


 23 25  0  0  0  0  0  0  0  0999 V2000
   15.6566   16.4223   23.0099 C   0  0  0  0  0  0  0  0  0  0  0  0
   15.4384   16.4134   21.7352 N   0  0  0  0  0  0  0  0  0  0  0  0
   16.4600   16.8119   20.8484 C   0  0  0  0  0  0  0  0  0  0  0  0
   16.2388   16.8201   19.4622 C   0  0  0  0  0  0  0  0  0  0  0  0
   14.7530   16.3669   18.7357 Cl  0  0  0  0  0  0  0  0  0  0  0  0
   17.2511   17.2149   18.5659 C   0  0  0  0  0  0  0  0  0  0  0  0
   17.2778   17.3050   17.1891 N   0  0  0  0  0  0  0  0  0  0  0  0
   18.4765   17.7300   16.8741 C   0  0  0  0  0  0  0  0  0  0  0  0
   19.2398   17.9169   17.9944 N   0  0  0  0  0  0  0  0  0  0  0  0
   18.4825   17.5991   19.0931 C   0  0  0  0  0  0  0  0  0  0  0  0
   18.7620   17.6104   20.4603 C   0  0  0  0  0  0  0  0  0  0  0  0
   17.7180   17.2091   21.3131 C   0  0  0  0  0  0  0  0  0  0  0  0
   17.9323   17.1953   22.7698 C   0  0  0  0  0  0  0  0  0  0  0  0
   19.0065   17.5090   23.2703 O   0  0  0  0  0  0  0  0  0  0  0  0
   16.8589   16.8094   23.5281 N   0  0  0  0  0  0  0  0  0  0  0  0
   20.1741   18.2268   18.0093 H   0  0  0  0  0  0  0  0  0  0  0  0
   16.9607   16.8113   24.5074 H   0  0  0  0  0  0  0  0  0  0  0  0
   13.8382   14.9241   23.6909 C   0  0  0  0  0  0  0  0  0  0  0  0
   14.7165   16.0506   23.9255 N   0  0  0  0  0  0  0  0  0  0  0  0
   14.6335   16.5594   24.7642 H   0  0  0  0  0  0  0  0  0  0  0  0
   18.9965   17.9718   15.6558 N   0  0  0  0  0  0  0  0  0  0  0  0
   18.0818   18.3700   14.6027 C   0  0  0  0  0  0  0  0  0  0  0  0
   19.9621   17.8816   15.4860 H   0  0  0  0  0  0  0  0  0  0  0  0
 18 19  1  0
 19  1  1  0
  1  2  2  0
  2  3  1  0
  3  4  2  0
  4  5  1  0
  4  6  1  0
  6  7  1  0
  7  8  2  0
  8 21  1  0
 21 22  1  0
  8  9  1  0
  9 10  1  0
 10 11  1  0
 11 12  2  0
 12 13  1  0
 13 14  2  0
 13 15  1  0
 15  1  1  0
 12  3  1  0
 10  6  2  0
 19 20  1  0
 21 23  1  0
  9 16  1  0
 15 17  1  0
M  END
> <minimizedAffinity>
-9.12196

> <CNNscore>
0.9823448062

> <CNNaffinity>
6.9469742775

> <CNN_VS>
6.8243241310

> <CNNaffinity_variance>
0.1461801380

$$$$



 23 25  0  0  0  0  0  0  0  0999 V2000
   18.3688   17.8221   17.4388 C   0  0  0  0  0  0  0  0  0  0  0  0
   17.2176   17.3767   17.8248 N   0  0  0  0  0  0  0  0  0  0  0  0
   16.9752   17.1639   19.1977 C   0  0  0  0  0  0  0  0  0  0  0  0
   15.7362   16.6701   19.6355 C   0  0  0  0  0  0  0  0  0  0  0  0
   14.4413   16.2849   18.5793 Cl  0  0  0  0  0  0  0  0  0  0  0  0
   15.4811   16.4542   21.0039 C   0  0  0  0  0  0  0  0  0  0  0  0
   14.3665   15.9867   21.6699 N   0  0  0  0  0  0  0  0  0  0  0  0
   14.6760   15.9844   22.9430 C   0  0  0  0  0  0  0  0  0  0  0  0
   15.9521   16.4390   23.1375 N   0  0  0  0  0  0  0  0  0  0  0  0
   16.4947   16.7441   21.9152 C   0  0  0  0  0  0  0  0  0  0  0  0
   17.7450   17.2378   21.5406 C   0  0  0  0  0  0  0  0  0  0  0  0
   17.9503   17.4347   20.1632 C   0  0  0  0  0  0  0  0  0  0  0  0
   19.2441   17.9510   19.6862 C   0  0  0  0  0  0  0  0  0  0  0  0
   20.1535   18.2345   20.4579 O   0  0  0  0  0  0  0  0  0  0  0  0
   19.3665   18.0957   18.3297 N   0  0  0  0  0  0  0  0  0  0  0  0
   16.4041   16.5313   24.0072 H   0  0  0  0  0  0  0  0  0  0  0  0
   20.2270   18.4168   17.9752 H   0  0  0  0  0  0  0  0  0  0  0  0
   17.6564   18.0167   15.1001 C   0  0  0  0  0  0  0  0  0  0  0  0
   18.6738   18.0512   16.1293 N   0  0  0  0  0  0  0  0  0  0  0  0
   19.6061   18.2441   15.8786 H   0  0  0  0  0  0  0  0  0  0  0  0
   13.9222   15.6199   23.9975 N   0  0  0  0  0  0  0  0  0  0  0  0
   13.7416   14.2002   24.2345 C   0  0  0  0  0  0  0  0  0  0  0  0
   13.5087   16.2922   24.5860 H   0  0  0  0  0  0  0  0  0  0  0  0
 18 19  1  0
 19  1  1  0
  1  2  2  0
  2  3  1  0
  3  4  2  0
  4  5  1  0
  4  6  1  0
  6  7  1  0
  7  8  2  0
  8 21  1  0
 21 22  1  0
  8  9  1  0
  9 10  1  0
 10 11  1  0
 11 12  2  0
 12 13  1  0
 13 14  2  0
 13 15  1  0
 15  1  1  0
 12  3  1  0
 10  6  2  0
 19 20  1  0
 21 23  1  0
  9 16  1  0
 15 17  1  0
M  END
> <minimizedAffinity>
-7.88701

> <CNNscore>
0.8816983700

> <CNNaffinity>
6.6180024147

> <CNN_VS>
5.8350820541

> <CNNaffinity_variance>
0.1574753374

$$$$



 23 25  0  0  0  0  0  0  0  0999 V2000
   16.0687   16.6125   22.4497 C   0  0  0  0  0  0  0  0  0  0  0  0
   15.3548   16.4853   21.3788 N   0  0  0  0  0  0  0  0  0  0  0  0
   15.9260   16.7667   20.1205 C   0  0  0  0  0  0  0  0  0  0  0  0
   15.1641   16.6457   18.9477 C   0  0  0  0  0  0  0  0  0  0  0  0
   13.5180   16.1652   18.9308 Cl  0  0  0  0  0  0  0  0  0  0  0  0
   15.7230   16.9227   17.6848 C   0  0  0  0  0  0  0  0  0  0  0  0
   15.1906   16.8772   16.4124 N   0  0  0  0  0  0  0  0  0  0  0  0
   16.1541   17.2359   15.6002 C   0  0  0  0  0  0  0  0  0  0  0  0
   17.3019   17.5100   16.2932 N   0  0  0  0  0  0  0  0  0  0  0  0
   17.0569   17.3222   17.6297 C   0  0  0  0  0  0  0  0  0  0  0  0
   17.8641   17.4592   18.7598 C   0  0  0  0  0  0  0  0  0  0  0  0
   17.2588   17.1722   19.9965 C   0  0  0  0  0  0  0  0  0  0  0  0
   18.0429   17.2949   21.2368 C   0  0  0  0  0  0  0  0  0  0  0  0
   19.2231   17.6259   21.2279 O   0  0  0  0  0  0  0  0  0  0  0  0
   17.3723   17.0148   22.3979 N   0  0  0  0  0  0  0  0  0  0  0  0
   18.1583   17.7938   15.8992 H   0  0  0  0  0  0  0  0  0  0  0  0
   17.8606   17.1095   23.2475 H   0  0  0  0  0  0  0  0  0  0  0  0
   14.4470   15.4853   23.9037 C   0  0  0  0  0  0  0  0  0  0  0  0
   15.5834   16.3583   23.6987 N   0  0  0  0  0  0  0  0  0  0  0  0
   16.0152   16.7776   24.4777 H   0  0  0  0  0  0  0  0  0  0  0  0
   16.1349   17.3430   14.2582 N   0  0  0  0  0  0  0  0  0  0  0  0
   15.7106   16.1823   13.4984 C   0  0  0  0  0  0  0  0  0  0  0  0
   16.3990   18.1783   13.8090 H   0  0  0  0  0  0  0  0  0  0  0  0
 18 19  1  0
 19  1  1  0
  1  2  2  0
  2  3  1  0
  3  4  2  0
  4  5  1  0
  4  6  1  0
  6  7  1  0
  7  8  2  0
  8 21  1  0
 21 22  1  0
  8  9  1  0
  9 10  1  0
 10 11  1  0
 11 12  2  0
 12 13  1  0
 13 14  2  0
 13 15  1  0
 15  1  1  0
 12  3  1  0
 10  6  2  0
 19 20  1  0
 21 23  1  0
  9 16  1  0
 15 17  1  0
M  END
> <minimizedAffinity>
-7.23800

> <CNNscore>
0.7552467585

> <CNNaffinity>
6.0213260651

> <CNN_VS>
4.5475869179

> <CNNaffinity_variance>
0.1023535952

$$$$



 23 25  0  0  0  0  0  0  0  0999 V2000
   16.4986   16.8501   21.2615 C   0  0  0  0  0  0  0  0  0  0  0  0
   15.9839   16.8111   20.0756 N   0  0  0  0  0  0  0  0  0  0  0  0
   16.7801   17.1338   18.9573 C   0  0  0  0  0  0  0  0  0  0  0  0
   16.2368   17.1085   17.6632 C   0  0  0  0  0  0  0  0  0  0  0  0
   14.6051   16.7016   17.3269 Cl  0  0  0  0  0  0  0  0  0  0  0  0
   17.0215   17.4276   16.5378 C   0  0  0  0  0  0  0  0  0  0  0  0
   16.7241   17.4729   15.1910 N   0  0  0  0  0  0  0  0  0  0  0  0
   17.8288   17.8320   14.5849 C   0  0  0  0  0  0  0  0  0  0  0  0
   18.8426   18.0187   15.4849 N   0  0  0  0  0  0  0  0  0  0  0  0
   18.3563   17.7711   16.7434 C   0  0  0  0  0  0  0  0  0  0  0  0
   18.9524   17.8126   18.0045 C   0  0  0  0  0  0  0  0  0  0  0  0
   18.1264   17.4870   19.0954 C   0  0  0  0  0  0  0  0  0  0  0  0
   18.6796   17.5094   20.4598 C   0  0  0  0  0  0  0  0  0  0  0  0
   19.8527   17.7888   20.6794 O   0  0  0  0  0  0  0  0  0  0  0  0
   17.8031   17.1975   21.4651 N   0  0  0  0  0  0  0  0  0  0  0  0
   19.7647   18.2855   15.2663 H   0  0  0  0  0  0  0  0  0  0  0  0
   18.1344   17.2256   22.3918 H   0  0  0  0  0  0  0  0  0  0  0  0
   14.4203   16.0868   22.3163 C   0  0  0  0  0  0  0  0  0  0  0  0
   15.7894   16.5513   22.3876 N   0  0  0  0  0  0  0  0  0  0  0  0
   16.2180   16.6537   23.2679 H   0  0  0  0  0  0  0  0  0  0  0  0
   18.0536   18.0110   13.2694 N   0  0  0  0  0  0  0  0  0  0  0  0
   17.1584   17.3488   12.3396 C   0  0  0  0  0  0  0  0  0  0  0  0
   18.7980   18.5706   12.9504 H   0  0  0  0  0  0  0  0  0  0  0  0
 18 19  1  0
 19  1  1  0
  1  2  2  0
  2  3  1  0
  3  4  2  0
  4  5  1  0
  4  6  1  0
  6  7  1  0
  7  8  2  0
  8 21  1  0
 21 22  1  0
  8  9  1  0
  9 10  1  0
 10 11  1  0
 11 12  2  0
 12 13  1  0
 13 14  2  0
 13 15  1  0
 15  1  1  0
 12  3  1  0
 10  6  2  0
 19 20  1  0
 21 23  1  0
  9 16  1  0
 15 17  1  0
M  END
> <minimizedAffinity>
-7.13102

> <CNNscore>
0.5842294693

> <CNNaffinity>
5.9848208427

> <CNN_VS>
3.4965085983

> <CNNaffinity_variance>
0.1468509287

$$$$



 23 25  0  0  0  0  0  0  0  0999 V2000
   17.6727   17.7033   16.7118 C   0  0  0  0  0  0  0  0  0  0  0  0
   17.8799   17.6393   17.9868 N   0  0  0  0  0  0  0  0  0  0  0  0
   16.8583   17.1698   18.8381 C   0  0  0  0  0  0  0  0  0  0  0  0
   17.0599   17.1037   20.2258 C   0  0  0  0  0  0  0  0  0  0  0  0
   18.5170   17.5764   20.9966 Cl  0  0  0  0  0  0  0  0  0  0  0  0
   16.0481   16.6357   21.0868 C   0  0  0  0  0  0  0  0  0  0  0  0
   16.0054   16.4785   22.4572 N   0  0  0  0  0  0  0  0  0  0  0  0
   14.8153   16.0054   22.7336 C   0  0  0  0  0  0  0  0  0  0  0  0
   14.0768   15.8410   21.5933 N   0  0  0  0  0  0  0  0  0  0  0  0
   14.8370   16.2390   20.5231 C   0  0  0  0  0  0  0  0  0  0  0  0
   14.5784   16.2807   19.1524 C   0  0  0  0  0  0  0  0  0  0  0  0
   15.6200   16.7568   18.3359 C   0  0  0  0  0  0  0  0  0  0  0  0
   15.4255   16.8338   16.8784 C   0  0  0  0  0  0  0  0  0  0  0  0
   14.3815   16.4775   16.3438 O   0  0  0  0  0  0  0  0  0  0  0  0
   16.4826   17.3258   16.1596 N   0  0  0  0  0  0  0  0  0  0  0  0
   13.1559   15.4955   21.5486 H   0  0  0  0  0  0  0  0  0  0  0  0
   16.3776   17.4125   15.1846 H   0  0  0  0  0  0  0  0  0  0  0  0
   18.2909   18.3847   14.4383 C   0  0  0  0  0  0  0  0  0  0  0  0
   18.6134   18.1467   15.8293 N   0  0  0  0  0  0  0  0  0  0  0  0
   19.5317   18.3084   16.1452 H   0  0  0  0  0  0  0  0  0  0  0  0
   14.2901   15.6795   23.9299 N   0  0  0  0  0  0  0  0  0  0  0  0
   13.8413   14.3126   24.1157 C   0  0  0  0  0  0  0  0  0  0  0  0
   14.2135   16.3445   24.6518 H   0  0  0  0  0  0  0  0  0  0  0  0
 18 19  1  0
 19  1  1  0
  1  2  2  0
  2  3  1  0
  3  4  2  0
  4  5  1  0
  4  6  1  0
  6  7  1  0
  7  8  2  0
  8 21  1  0
 21 22  1  0
  8  9  1  0
  9 10  1  0
 10 11  1  0
 11 12  2  0
 12 13  1  0
 13 14  2  0
 13 15  1  0
 15  1  1  0
 12  3  1  0
 10  6  2  0
 19 20  1  0
 21 23  1  0
  9 16  1  0
 15 17  1  0
M  END
> <minimizedAffinity>
-7.43208

> <CNNscore>
0.4070443809

> <CNNaffinity>
5.6814346313

> <CNN_VS>
2.3125960827

> <CNNaffinity_variance>
0.1597460061

$$$$



 23 25  0  0  0  0  0  0  0  0999 V2000
   16.4999   27.3291   21.6661 C   0  0  0  0  0  0  0  0  0  0  0  0
   17.2867   26.3629   21.3194 N   0  0  0  0  0  0  0  0  0  0  0  0
   17.3682   25.9798   19.9646 C   0  0  0  0  0  0  0  0  0  0  0  0
   18.2075   24.9261   19.5702 C   0  0  0  0  0  0  0  0  0  0  0  0
   19.1795   24.0279   20.6608 Cl  0  0  0  0  0  0  0  0  0  0  0  0
   18.2988   24.5344   18.2203 C   0  0  0  0  0  0  0  0  0  0  0  0
   19.0370   23.5502   17.5951 N   0  0  0  0  0  0  0  0  0  0  0  0
   18.7380   23.6226   16.3216 C   0  0  0  0  0  0  0  0  0  0  0  0
   17.8340   24.6229   16.0871 N   0  0  0  0  0  0  0  0  0  0  0  0
   17.5307   25.2224   17.2829 C   0  0  0  0  0  0  0  0  0  0  0  0
   16.6799   26.2778   17.6142 C   0  0  0  0  0  0  0  0  0  0  0  0
   16.6234   26.6294   18.9748 C   0  0  0  0  0  0  0  0  0  0  0  0
   15.7476   27.7316   19.4064 C   0  0  0  0  0  0  0  0  0  0  0  0
   15.0708   28.3720   18.6099 O   0  0  0  0  0  0  0  0  0  0  0  0
   15.7383   27.9964   20.7503 N   0  0  0  0  0  0  0  0  0  0  0  0
   17.4640   24.8703   15.2089 H   0  0  0  0  0  0  0  0  0  0  0  0
   15.1459   28.7120   21.0759 H   0  0  0  0  0  0  0  0  0  0  0  0
   16.7438   26.9069   24.0696 C   0  0  0  0  0  0  0  0  0  0  0  0
   16.3701   27.7528   22.9560 N   0  0  0  0  0  0  0  0  0  0  0  0
   16.0145   28.6535   23.1335 H   0  0  0  0  0  0  0  0  0  0  0  0
   19.2015   22.8793   15.2990 N   0  0  0  0  0  0  0  0  0  0  0  0
   19.9652   23.5574   14.2688 C   0  0  0  0  0  0  0  0  0  0  0  0
   19.0284   21.9113   15.2521 H   0  0  0  0  0  0  0  0  0  0  0  0
 18 19  1  0
 19  1  1  0
  1  2  2  0
  2  3  1  0
  3  4  2  0
  4  5  1  0
  4  6  1  0
  6  7  1  0
  7  8  2  0
  8 21  1  0
 21 22  1  0
  8  9  1  0
  9 10  1  0
 10 11  1  0
 11 12  2  0
 12 13  1  0
 13 14  2  0
 13 15  1  0
 15  1  1  0
 12  3  1  0
 10  6  2  0
 19 20  1  0
 21 23  1  0
  9 16  1  0
 15 17  1  0
M  END
> <minimizedAffinity>
-4.84216

> <CNNscore>
0.3269198537

> <CNNaffinity>
5.3384361267

> <CNN_VS>
1.7452408075

> <CNNaffinity_variance>
0.8548811078

$$$$



 23 25  0  0  0  0  0  0  0  0999 V2000
   16.3495   16.6762   22.7914 C   0  0  0  0  0  0  0  0  0  0  0  0
   16.4588   16.7117   21.5032 N   0  0  0  0  0  0  0  0  0  0  0  0
   15.3049   16.5979   20.7005 C   0  0  0  0  0  0  0  0  0  0  0  0
   15.4042   16.6225   19.3004 C   0  0  0  0  0  0  0  0  0  0  0  0
   16.8888   16.7826   18.4571 Cl  0  0  0  0  0  0  0  0  0  0  0  0
   14.2594   16.5109   18.4874 C   0  0  0  0  0  0  0  0  0  0  0  0
   14.1004   16.5093   17.1166 N   0  0  0  0  0  0  0  0  0  0  0  0
   12.8156   16.3749   16.8981 C   0  0  0  0  0  0  0  0  0  0  0  0
   12.1244   16.2939   18.0764 N   0  0  0  0  0  0  0  0  0  0  0  0
   13.0209   16.3743   19.1115 C   0  0  0  0  0  0  0  0  0  0  0  0
   12.8592   16.3444   20.4972 C   0  0  0  0  0  0  0  0  0  0  0  0
   14.0326   16.4581   21.2643 C   0  0  0  0  0  0  0  0  0  0  0  0
   13.9471   16.4332   22.7340 C   0  0  0  0  0  0  0  0  0  0  0  0
   12.8749   16.3325   23.3196 O   0  0  0  0  0  0  0  0  0  0  0  0
   15.1379   16.5309   23.4037 N   0  0  0  0  0  0  0  0  0  0  0  0
   11.1490   16.1947   18.1661 H   0  0  0  0  0  0  0  0  0  0  0  0
   15.1190   16.4941   24.3874 H   0  0  0  0  0  0  0  0  0  0  0  0
   18.7074   17.2438   23.1558 C   0  0  0  0  0  0  0  0  0  0  0  0
   17.4206   16.7800   23.6294 N   0  0  0  0  0  0  0  0  0  0  0  0
   17.3163   16.5341   24.5770 H   0  0  0  0  0  0  0  0  0  0  0  0
   12.1566   16.3238   15.7250 N   0  0  0  0  0  0  0  0  0  0  0  0
   12.0683   15.0374   15.0604 C   0  0  0  0  0  0  0  0  0  0  0  0
   11.7496   17.1299   15.3327 H   0  0  0  0  0  0  0  0  0  0  0  0
 18 19  1  0
 19  1  1  0
  1  2  2  0
  2  3  1  0
  3  4  2  0
  4  5  1  0
  4  6  1  0
  6  7  1  0
  7  8  2  0
  8 21  1  0
 21 22  1  0
  8  9  1  0
  9 10  1  0
 10 11  1  0
 11 12  2  0
 12 13  1  0
 13 14  2  0
 13 15  1  0
 15  1  1  0
 12  3  1  0
 10  6  2  0
 19 20  1  0
 21 23  1  0
  9 16  1  0
 15 17  1  0
M  END
> <minimizedAffinity>
-8.05557

> <CNNscore>
0.3007960916

> <CNNaffinity>
5.5358128548

> <CNN_VS>
1.6651508808

> <CNNaffinity_variance>
0.1079335585

$$$$



 23 25  0  0  0  0  0  0  0  0999 V2000
   17.0191   25.9020   16.1140 C   0  0  0  0  0  0  0  0  0  0  0  0
   16.6246   26.5732   17.1468 N   0  0  0  0  0  0  0  0  0  0  0  0
   16.9585   26.1242   18.4413 C   0  0  0  0  0  0  0  0  0  0  0  0
   16.5299   26.8324   19.5750 C   0  0  0  0  0  0  0  0  0  0  0  0
   15.5854   28.2618   19.4999 Cl  0  0  0  0  0  0  0  0  0  0  0  0
   16.8576   26.3953   20.8733 C   0  0  0  0  0  0  0  0  0  0  0  0
   16.5616   26.9086   22.1196 N   0  0  0  0  0  0  0  0  0  0  0  0
   17.1166   26.1004   22.9887 C   0  0  0  0  0  0  0  0  0  0  0  0
   17.7714   25.0778   22.3577 N   0  0  0  0  0  0  0  0  0  0  0  0
   17.6208   25.2367   21.0035 C   0  0  0  0  0  0  0  0  0  0  0  0
   18.0765   24.4917   19.9151 C   0  0  0  0  0  0  0  0  0  0  0  0
   17.7215   24.9690   18.6406 C   0  0  0  0  0  0  0  0  0  0  0  0
   18.1617   24.2381   17.4406 C   0  0  0  0  0  0  0  0  0  0  0  0
   18.8489   23.2257   17.5137 O   0  0  0  0  0  0  0  0  0  0  0  0
   17.7572   24.7605   16.2407 N   0  0  0  0  0  0  0  0  0  0  0  0
   18.2665   24.3511   22.8005 H   0  0  0  0  0  0  0  0  0  0  0  0
   18.0147   24.2834   15.4190 H   0  0  0  0  0  0  0  0  0  0  0  0
   15.5975   27.1195   14.5292 C   0  0  0  0  0  0  0  0  0  0  0  0
   16.7337   26.2759   14.8338 N   0  0  0  0  0  0  0  0  0  0  0  0
   17.3129   25.9652   14.1008 H   0  0  0  0  0  0  0  0  0  0  0  0
   17.1180   26.1739   24.3332 N   0  0  0  0  0  0  0  0  0  0  0  0
   16.4578   25.1089   25.0641 C   0  0  0  0  0  0  0  0  0  0  0  0
   17.5512   26.9229   24.8029 H   0  0  0  0  0  0  0  0  0  0  0  0
 18 19  1  0
 19  1  1  0
  1  2  2  0
  2  3  1  0
  3  4  2  0
  4  5  1  0
  4  6  1  0
  6  7  1  0
  7  8  2  0
  8 21  1  0
 21 22  1  0
  8  9  1  0
  9 10  1  0
 10 11  1  0
 11 12  2  0
 12 13  1  0
 13 14  2  0
 13 15  1  0
 15  1  1  0
 12  3  1  0
 10  6  2  0
 19 20  1  0
 21 23  1  0
  9 16  1  0
 15 17  1  0
M  END
> <minimizedAffinity>
-4.57105

> <CNNscore>
0.2890529335

> <CNNaffinity>
5.6318545341

> <CNN_VS>
1.6279040575

> <CNNaffinity_variance>
1.4679297209

$$$$



 23 25  0  0  0  0  0  0  0  0999 V2000
   17.1065   26.2792   23.0277 C   0  0  0  0  0  0  0  0  0  0  0  0
   17.9168   25.6154   22.2690 N   0  0  0  0  0  0  0  0  0  0  0  0
   18.2593   26.1235   20.9988 C   0  0  0  0  0  0  0  0  0  0  0  0
   19.1280   25.4123   20.1561 C   0  0  0  0  0  0  0  0  0  0  0  0
   19.8301   23.9041   20.5722 Cl  0  0  0  0  0  0  0  0  0  0  0  0
   19.4788   25.9093   18.8858 C   0  0  0  0  0  0  0  0  0  0  0  0
   20.2975   25.4073   17.8947 N   0  0  0  0  0  0  0  0  0  0  0  0
   20.2653   26.2796   16.9176 C   0  0  0  0  0  0  0  0  0  0  0  0
   19.4592   27.3393   17.2337 N   0  0  0  0  0  0  0  0  0  0  0  0
   18.9385   27.1299   18.4854 C   0  0  0  0  0  0  0  0  0  0  0  0
   18.0715   27.8823   19.2788 C   0  0  0  0  0  0  0  0  0  0  0  0
   17.7513   27.3422   20.5374 C   0  0  0  0  0  0  0  0  0  0  0  0
   16.8409   28.0743   21.4337 C   0  0  0  0  0  0  0  0  0  0  0  0
   16.3599   29.1587   21.1248 O   0  0  0  0  0  0  0  0  0  0  0  0
   16.5676   27.4694   22.6318 N   0  0  0  0  0  0  0  0  0  0  0  0
   19.2829   28.1197   16.6601 H   0  0  0  0  0  0  0  0  0  0  0  0
   15.9440   27.9209   23.2455 H   0  0  0  0  0  0  0  0  0  0  0  0
   16.7561   26.7338   25.4121 C   0  0  0  0  0  0  0  0  0  0  0  0
   16.7311   25.8493   24.2664 N   0  0  0  0  0  0  0  0  0  0  0  0
   16.4367   24.9172   24.3840 H   0  0  0  0  0  0  0  0  0  0  0  0
   20.9031   26.2477   15.7322 N   0  0  0  0  0  0  0  0  0  0  0  0
   20.4014   27.1074   14.6770 C   0  0  0  0  0  0  0  0  0  0  0  0
   21.6813   25.6624   15.5870 H   0  0  0  0  0  0  0  0  0  0  0  0
 18 19  1  0
 19  1  1  0
  1  2  2  0
  2  3  1  0
  3  4  2  0
  4  5  1  0
  4  6  1  0
  6  7  1  0
  7  8  2  0
  8 21  1  0
 21 22  1  0
  8  9  1  0
  9 10  1  0
 10 11  1  0
 11 12  2  0
 12 13  1  0
 13 14  2  0
 13 15  1  0
 15  1  1  0
 12  3  1  0
 10  6  2  0
 19 20  1  0
 21 23  1  0
  9 16  1  0
 15 17  1  0
M  END
> <minimizedAffinity>
-4.75268

> <CNNscore>
0.2197467983

> <CNNaffinity>
5.0934100151

> <CNN_VS>
1.1192605495

> <CNNaffinity_variance>
0.1723529547

$$$$
