


 24 24  0  0  0  0  0  0  0  0999 V2000
   -0.8774   -5.7196   -3.8176 S   0  0  0  0  0  0  0  0  0  0  0  0
    0.2355   -5.3095   -4.6432 O   0  0  0  0  0  0  0  0  0  0  0  0
   -0.8244   -6.9228   -3.0164 O   0  0  0  0  0  0  0  0  0  0  0  0
   -4.5881   -5.9113   -6.4870 C   0  0  0  0  0  0  0  0  0  0  0  0
   -4.6805   -5.4588   -5.1651 C   0  0  0  0  0  0  0  0  0  0  0  0
   -3.5426   -5.3984   -4.3555 C   0  0  0  0  0  0  0  0  0  0  0  0
   -2.3057   -5.7977   -4.8675 C   0  0  0  0  0  0  0  0  0  0  0  0
   -2.1874   -6.2389   -6.1843 C   0  0  0  0  0  0  0  0  0  0  0  0
   -3.3310   -6.3008   -6.9848 C   0  0  0  0  0  0  0  0  0  0  0  0
   -3.1221   -6.9327   -8.7661 Br  0  0  0  0  0  0  0  0  0  0  0  0
   -6.7032   -6.9036   -6.9878 C   0  0  0  0  0  0  0  0  0  0  0  0
   -5.6520   -6.0148   -7.3436 O   0  0  0  0  0  0  0  0  0  0  0  0
   -1.2790   -4.4395   -2.7831 N   0  0  0  0  0  0  0  0  0  0  0  0
   -1.5923   -4.7642   -1.3655 C   0  0  0  0  0  0  0  0  0  0  0  0
   -2.9567   -4.1730   -0.9910 C   0  0  0  0  0  0  0  0  0  0  0  0
   -3.6880   -5.0768   -0.1579 O   0  0  0  0  0  0  0  0  0  0  0  0
   -3.8355   -5.9086   -0.6347 H   0  0  0  0  0  0  0  0  0  0  0  0
   -0.4442   -3.2175   -2.9663 C   0  0  0  0  0  0  0  0  0  0  0  0
   -1.1946   -2.1463   -3.7423 C   0  0  0  0  0  0  0  0  0  0  0  0
   -0.7635   -1.0085   -3.9276 O   0  0  0  0  0  0  0  0  0  0  0  0
   -2.4568   -2.5243   -4.1524 N   0  0  0  0  0  0  0  0  0  0  0  0
   -3.2536   -1.4813   -4.6862 O   0  0  0  0  0  0  0  0  0  0  0  0
   -2.7801   -3.4513   -4.0794 H   0  0  0  0  0  0  0  0  0  0  0  0
   -2.7527   -0.6508   -4.6694 H   0  0  0  0  0  0  0  0  0  0  0  0
 11 12  1  0
 12  4  1  0
  4  5  2  0
  5  6  1  0
  6  7  2  0
  7  1  1  0
  1  2  2  0
  1  3  2  0
  1 13  1  0
 13 14  1  0
 14 15  1  0
 15 16  1  0
 13 18  1  0
 18 19  1  0
 19 20  2  0
 19 21  1  0
 21 22  1  0
  7  8  1  0
  8  9  2  0
  9 10  1  0
  9  4  1  0
 16 17  1  0
 21 23  1  0
 22 24  1  0
M  END
> <minimizedAffinity>
-5.47391

> <CNNscore>
0.8170103431

> <CNNaffinity>
6.8014397621

> <CNN_VS>
5.5568466187

> <CNNaffinity_variance>
0.9298241735

$$$$



 24 24  0  0  0  0  0  0  0  0999 V2000
   -3.7705   -6.0016   -4.7870 S   0  0  0  0  0  0  0  0  0  0  0  0
   -3.5223   -7.2652   -4.1314 O   0  0  0  0  0  0  0  0  0  0  0  0
   -4.5921   -4.9792   -4.1769 O   0  0  0  0  0  0  0  0  0  0  0  0
   -5.4014   -6.9354   -8.9583 C   0  0  0  0  0  0  0  0  0  0  0  0
   -4.0298   -6.7425   -8.7532 C   0  0  0  0  0  0  0  0  0  0  0  0
   -3.5367   -6.4616   -7.4758 C   0  0  0  0  0  0  0  0  0  0  0  0
   -4.4197   -6.3672   -6.3973 C   0  0  0  0  0  0  0  0  0  0  0  0
   -5.7873   -6.5685   -6.5753 C   0  0  0  0  0  0  0  0  0  0  0  0
   -6.2719   -6.8438   -7.8566 C   0  0  0  0  0  0  0  0  0  0  0  0
   -8.1478   -7.0861   -8.0520 Br  0  0  0  0  0  0  0  0  0  0  0  0
   -6.7909   -8.3567  -10.2843 C   0  0  0  0  0  0  0  0  0  0  0  0
   -5.9701   -7.2008  -10.1759 O   0  0  0  0  0  0  0  0  0  0  0  0
   -2.2799   -5.2926   -5.1685 N   0  0  0  0  0  0  0  0  0  0  0  0
   -1.2039   -6.1767   -5.6918 C   0  0  0  0  0  0  0  0  0  0  0  0
   -0.5825   -6.9709   -4.5367 C   0  0  0  0  0  0  0  0  0  0  0  0
   -0.5439   -6.1823   -3.3439 O   0  0  0  0  0  0  0  0  0  0  0  0
   -0.0038   -5.3912   -3.4967 H   0  0  0  0  0  0  0  0  0  0  0  0
   -2.3859   -3.9749   -5.8585 C   0  0  0  0  0  0  0  0  0  0  0  0
   -2.0870   -2.8268   -4.9070 C   0  0  0  0  0  0  0  0  0  0  0  0
   -1.3342   -2.9208   -3.9380 O   0  0  0  0  0  0  0  0  0  0  0  0
   -2.8063   -1.6775   -5.1637 N   0  0  0  0  0  0  0  0  0  0  0  0
   -2.7069   -0.6712   -4.1711 O   0  0  0  0  0  0  0  0  0  0  0  0
   -3.3491   -1.5649   -5.9773 H   0  0  0  0  0  0  0  0  0  0  0  0
   -2.1277   -0.9782   -3.4562 H   0  0  0  0  0  0  0  0  0  0  0  0
 11 12  1  0
 12  4  1  0
  4  5  2  0
  5  6  1  0
  6  7  2  0
  7  1  1  0
  1  2  2  0
  1  3  2  0
  1 13  1  0
 13 14  1  0
 14 15  1  0
 15 16  1  0
 13 18  1  0
 18 19  1  0
 19 20  2  0
 19 21  1  0
 21 22  1  0
  7  8  1  0
  8  9  2  0
  9 10  1  0
  9  4  1  0
 16 17  1  0
 21 23  1  0
 22 24  1  0
M  END
> <minimizedAffinity>
-6.77464

> <CNNscore>
0.5907918215

> <CNNaffinity>
6.4541974068

> <CNN_VS>
3.8130869865

> <CNNaffinity_variance>
0.2652310133

$$$$



 24 24  0  0  0  0  0  0  0  0999 V2000
   -1.5284   -6.0534   -4.0625 S   0  0  0  0  0  0  0  0  0  0  0  0
   -2.4522   -7.0890   -3.6594 O   0  0  0  0  0  0  0  0  0  0  0  0
   -0.3321   -6.3561   -4.8174 O   0  0  0  0  0  0  0  0  0  0  0  0
   -0.3747   -3.7851   -0.2604 C   0  0  0  0  0  0  0  0  0  0  0  0
   -1.3414   -4.7974   -0.2239 C   0  0  0  0  0  0  0  0  0  0  0  0
   -1.6869   -5.4900   -1.3879 C   0  0  0  0  0  0  0  0  0  0  0  0
   -1.0670   -5.1657   -2.5971 C   0  0  0  0  0  0  0  0  0  0  0  0
   -0.0924   -4.1709   -2.6550 C   0  0  0  0  0  0  0  0  0  0  0  0
    0.2429   -3.4804   -1.4875 C   0  0  0  0  0  0  0  0  0  0  0  0
    1.5601   -2.1156   -1.6228 Br  0  0  0  0  0  0  0  0  0  0  0  0
   -0.3965   -3.5005    2.1118 C   0  0  0  0  0  0  0  0  0  0  0  0
    0.0136   -3.0490    0.8275 O   0  0  0  0  0  0  0  0  0  0  0  0
   -2.3865   -4.8743   -4.9245 N   0  0  0  0  0  0  0  0  0  0  0  0
   -3.2143   -5.3213   -6.0771 C   0  0  0  0  0  0  0  0  0  0  0  0
   -2.3376   -5.4266   -7.3307 C   0  0  0  0  0  0  0  0  0  0  0  0
   -1.1737   -4.6050   -7.2044 O   0  0  0  0  0  0  0  0  0  0  0  0
   -1.4417   -3.6791   -7.0955 H   0  0  0  0  0  0  0  0  0  0  0  0
   -3.0293   -3.8353   -4.0695 C   0  0  0  0  0  0  0  0  0  0  0  0
   -2.3739   -2.4767   -4.2631 C   0  0  0  0  0  0  0  0  0  0  0  0
   -2.1825   -1.6741   -3.3500 O   0  0  0  0  0  0  0  0  0  0  0  0
   -2.0873   -2.1690   -5.5774 N   0  0  0  0  0  0  0  0  0  0  0  0
   -1.6766   -0.8324   -5.8066 O   0  0  0  0  0  0  0  0  0  0  0  0
   -2.1628   -2.8300   -6.3030 H   0  0  0  0  0  0  0  0  0  0  0  0
   -1.6683   -0.3480   -4.9662 H   0  0  0  0  0  0  0  0  0  0  0  0
 11 12  1  0
 12  4  1  0
  4  5  2  0
  5  6  1  0
  6  7  2  0
  7  1  1  0
  1  2  2  0
  1  3  2  0
  1 13  1  0
 13 14  1  0
 14 15  1  0
 15 16  1  0
 13 18  1  0
 18 19  1  0
 19 20  2  0
 19 21  1  0
 21 22  1  0
  7  8  1  0
  8  9  2  0
  9 10  1  0
  9  4  1  0
 16 17  1  0
 21 23  1  0
 22 24  1  0
M  END
> <minimizedAffinity>
-5.95392

> <CNNscore>
0.4871296585

> <CNNaffinity>
6.0823092461

> <CNN_VS>
2.9628732204

> <CNNaffinity_variance>
0.6359117031

$$$$



 24 24  0  0  0  0  0  0  0  0999 V2000
   -1.0602   -5.2299   -2.6451 S   0  0  0  0  0  0  0  0  0  0  0  0
   -0.3985   -6.5089   -2.5234 O   0  0  0  0  0  0  0  0  0  0  0  0
   -0.3261   -4.0228   -2.9559 O   0  0  0  0  0  0  0  0  0  0  0  0
   -3.4201   -4.5130    1.2083 C   0  0  0  0  0  0  0  0  0  0  0  0
   -3.2787   -3.4959    0.2564 C   0  0  0  0  0  0  0  0  0  0  0  0
   -2.5601   -3.7220   -0.9211 C   0  0  0  0  0  0  0  0  0  0  0  0
   -1.9743   -4.9700   -1.1467 C   0  0  0  0  0  0  0  0  0  0  0  0
   -2.1130   -6.0013   -0.2195 C   0  0  0  0  0  0  0  0  0  0  0  0
   -2.8287   -5.7648    0.9570 C   0  0  0  0  0  0  0  0  0  0  0  0
   -2.9688   -7.1956    2.2016 Br  0  0  0  0  0  0  0  0  0  0  0  0
   -3.4003   -3.7821    3.4830 C   0  0  0  0  0  0  0  0  0  0  0  0
   -4.0945   -4.3737    2.3923 O   0  0  0  0  0  0  0  0  0  0  0  0
   -2.3032   -5.3749   -3.7870 N   0  0  0  0  0  0  0  0  0  0  0  0
   -3.0458   -6.6627   -3.8456 C   0  0  0  0  0  0  0  0  0  0  0  0
   -3.5598   -6.8965   -5.2712 C   0  0  0  0  0  0  0  0  0  0  0  0
   -2.5308   -6.6339   -6.2293 O   0  0  0  0  0  0  0  0  0  0  0  0
   -2.2473   -5.7093   -6.1541 H   0  0  0  0  0  0  0  0  0  0  0  0
   -3.1604   -4.1618   -3.9183 C   0  0  0  0  0  0  0  0  0  0  0  0
   -2.7116   -3.2908   -5.0813 C   0  0  0  0  0  0  0  0  0  0  0  0
   -2.2942   -3.7385   -6.1491 O   0  0  0  0  0  0  0  0  0  0  0  0
   -2.7223   -1.9375   -4.8117 N   0  0  0  0  0  0  0  0  0  0  0  0
   -2.1103   -1.1229   -5.7964 O   0  0  0  0  0  0  0  0  0  0  0  0
   -3.1257   -1.5651   -3.9946 H   0  0  0  0  0  0  0  0  0  0  0  0
   -1.7776   -1.6810   -6.5166 H   0  0  0  0  0  0  0  0  0  0  0  0
 11 12  1  0
 12  4  1  0
  4  5  2  0
  5  6  1  0
  6  7  2  0
  7  1  1  0
  1  2  2  0
  1  3  2  0
  1 13  1  0
 13 14  1  0
 14 15  1  0
 15 16  1  0
 13 18  1  0
 18 19  1  0
 19 20  2  0
 19 21  1  0
 21 22  1  0
  7  8  1  0
  8  9  2  0
  9 10  1  0
  9  4  1  0
 16 17  1  0
 21 23  1  0
 22 24  1  0
M  END
> <minimizedAffinity>
-4.92075

> <CNNscore>
0.4412113726

> <CNNaffinity>
5.8520140648

> <CNN_VS>
2.5819752216

> <CNNaffinity_variance>
1.1179972887

$$$$



 24 24  0  0  0  0  0  0  0  0999 V2000
   -1.2174   -6.4258   -4.3125 S   0  0  0  0  0  0  0  0  0  0  0  0
   -1.2691   -7.8376   -4.6166 O   0  0  0  0  0  0  0  0  0  0  0  0
   -0.2645   -5.5463   -4.9536 O   0  0  0  0  0  0  0  0  0  0  0  0
   -0.7102   -6.0134    0.2156 C   0  0  0  0  0  0  0  0  0  0  0  0
    0.0603   -5.2427   -0.6636 C   0  0  0  0  0  0  0  0  0  0  0  0
   -0.1020   -5.3699   -2.0461 C   0  0  0  0  0  0  0  0  0  0  0  0
   -1.0357   -6.2765   -2.5539 C   0  0  0  0  0  0  0  0  0  0  0  0
   -1.8229   -7.0445   -1.6977 C   0  0  0  0  0  0  0  0  0  0  0  0
   -1.6504   -6.9146   -0.3172 C   0  0  0  0  0  0  0  0  0  0  0  0
   -2.7305   -8.0018    0.8084 Br  0  0  0  0  0  0  0  0  0  0  0  0
   -1.0513   -4.7794    2.2330 C   0  0  0  0  0  0  0  0  0  0  0  0
   -0.6069   -5.9619    1.5805 O   0  0  0  0  0  0  0  0  0  0  0  0
   -2.7589   -5.7670   -4.5574 N   0  0  0  0  0  0  0  0  0  0  0  0
   -3.8596   -6.6954   -4.9315 C   0  0  0  0  0  0  0  0  0  0  0  0
   -4.7536   -6.0352   -5.9879 C   0  0  0  0  0  0  0  0  0  0  0  0
   -6.0919   -6.5325   -5.9002 O   0  0  0  0  0  0  0  0  0  0  0  0
   -6.0917   -7.4901   -6.0548 H   0  0  0  0  0  0  0  0  0  0  0  0
   -3.1437   -4.7213   -3.5665 C   0  0  0  0  0  0  0  0  0  0  0  0
   -2.6231   -3.3525   -3.9766 C   0  0  0  0  0  0  0  0  0  0  0  0
   -2.0632   -2.5748   -3.2042 O   0  0  0  0  0  0  0  0  0  0  0  0
   -2.9114   -3.0049   -5.2805 N   0  0  0  0  0  0  0  0  0  0  0  0
   -2.6280   -1.6590   -5.6212 O   0  0  0  0  0  0  0  0  0  0  0  0
   -3.2868   -3.6454   -5.9270 H   0  0  0  0  0  0  0  0  0  0  0  0
   -2.2664   -1.1989   -4.8476 H   0  0  0  0  0  0  0  0  0  0  0  0
 11 12  1  0
 12  4  1  0
  4  5  2  0
  5  6  1  0
  6  7  2  0
  7  1  1  0
  1  2  2  0
  1  3  2  0
  1 13  1  0
 13 14  1  0
 14 15  1  0
 15 16  1  0
 13 18  1  0
 18 19  1  0
 19 20  2  0
 19 21  1  0
 21 22  1  0
  7  8  1  0
  8  9  2  0
  9 10  1  0
  9  4  1  0
 16 17  1  0
 21 23  1  0
 22 24  1  0
M  END
> <minimizedAffinity>
-5.95910

> <CNNscore>
0.3841300905

> <CNNaffinity>
5.7564558983

> <CNN_VS>
2.2112278938

> <CNNaffinity_variance>
0.3398759067

$$$$



 24 24  0  0  0  0  0  0  0  0999 V2000
   -1.4736   -6.4844   -3.8995 S   0  0  0  0  0  0  0  0  0  0  0  0
   -0.3892   -6.6058   -4.8470 O   0  0  0  0  0  0  0  0  0  0  0  0
   -1.3423   -5.6966   -2.6934 O   0  0  0  0  0  0  0  0  0  0  0  0
   -2.7533  -10.7118   -2.7068 C   0  0  0  0  0  0  0  0  0  0  0  0
   -3.0833   -9.6118   -1.9058 C   0  0  0  0  0  0  0  0  0  0  0  0
   -2.6933   -8.3220   -2.2774 C   0  0  0  0  0  0  0  0  0  0  0  0
   -1.9642   -8.1301   -3.4535 C   0  0  0  0  0  0  0  0  0  0  0  0
   -1.6359   -9.2085   -4.2732 C   0  0  0  0  0  0  0  0  0  0  0  0
   -2.0254  -10.4949   -3.8913 C   0  0  0  0  0  0  0  0  0  0  0  0
   -1.5323  -11.9356   -5.0302 Br  0  0  0  0  0  0  0  0  0  0  0  0
   -2.4468  -12.6144   -1.2941 C   0  0  0  0  0  0  0  0  0  0  0  0
   -3.0832  -12.0082   -2.4118 O   0  0  0  0  0  0  0  0  0  0  0  0
   -2.8454   -5.9262   -4.7221 N   0  0  0  0  0  0  0  0  0  0  0  0
   -3.9331   -6.9022   -5.0011 C   0  0  0  0  0  0  0  0  0  0  0  0
   -4.7795   -6.4072   -6.1799 C   0  0  0  0  0  0  0  0  0  0  0  0
   -6.1562   -6.7469   -5.9919 O   0  0  0  0  0  0  0  0  0  0  0  0
   -6.2463   -7.7110   -5.9341 H   0  0  0  0  0  0  0  0  0  0  0  0
   -3.3199   -4.5825   -4.2828 C   0  0  0  0  0  0  0  0  0  0  0  0
   -2.7796   -3.4833   -5.1843 C   0  0  0  0  0  0  0  0  0  0  0  0
   -2.0915   -3.6948   -6.1826 O   0  0  0  0  0  0  0  0  0  0  0  0
   -3.0475   -2.2046   -4.7401 N   0  0  0  0  0  0  0  0  0  0  0  0
   -2.3772   -1.1714   -5.4408 O   0  0  0  0  0  0  0  0  0  0  0  0
   -3.6599   -2.0234   -3.9909 H   0  0  0  0  0  0  0  0  0  0  0  0
   -1.8252   -1.5589   -6.1379 H   0  0  0  0  0  0  0  0  0  0  0  0
 11 12  1  0
 12  4  1  0
  4  5  2  0
  5  6  1  0
  6  7  2  0
  7  1  1  0
  1  2  2  0
  1  3  2  0
  1 13  1  0
 13 14  1  0
 14 15  1  0
 15 16  1  0
 13 18  1  0
 18 19  1  0
 19 20  2  0
 19 21  1  0
 21 22  1  0
  7  8  1  0
  8  9  2  0
  9 10  1  0
  9  4  1  0
 16 17  1  0
 21 23  1  0
 22 24  1  0
M  END
> <minimizedAffinity>
-6.63267

> <CNNscore>
0.3304486573

> <CNNaffinity>
5.1863350868

> <CNN_VS>
1.7138174772

> <CNNaffinity_variance>
0.1809550524

$$$$



 24 24  0  0  0  0  0  0  0  0999 V2000
   -0.8317   -5.1042   -3.9647 S   0  0  0  0  0  0  0  0  0  0  0  0
    0.1409   -5.2818   -5.0187 O   0  0  0  0  0  0  0  0  0  0  0  0
   -0.8457   -3.9174   -3.1377 O   0  0  0  0  0  0  0  0  0  0  0  0
   -0.6038   -8.7964   -1.2726 C   0  0  0  0  0  0  0  0  0  0  0  0
   -1.5189   -8.7382   -2.3309 C   0  0  0  0  0  0  0  0  0  0  0  0
   -1.5811   -7.6092   -3.1527 C   0  0  0  0  0  0  0  0  0  0  0  0
   -0.7280   -6.5293   -2.9127 C   0  0  0  0  0  0  0  0  0  0  0  0
    0.1999   -6.5704   -1.8735 C   0  0  0  0  0  0  0  0  0  0  0  0
    0.2516   -7.7009   -1.0538 C   0  0  0  0  0  0  0  0  0  0  0  0
    1.5172   -7.6987    0.3653 Br  0  0  0  0  0  0  0  0  0  0  0  0
   -1.5385  -10.0738    0.5173 C   0  0  0  0  0  0  0  0  0  0  0  0
   -0.4850   -9.8558   -0.4123 O   0  0  0  0  0  0  0  0  0  0  0  0
   -2.3807   -5.2772   -4.6285 N   0  0  0  0  0  0  0  0  0  0  0  0
   -3.2620   -4.0790   -4.6568 C   0  0  0  0  0  0  0  0  0  0  0  0
   -2.4668   -2.8662   -5.1547 C   0  0  0  0  0  0  0  0  0  0  0  0
   -3.0798   -1.6479   -4.7235 O   0  0  0  0  0  0  0  0  0  0  0  0
   -3.9788   -1.5931   -5.0837 H   0  0  0  0  0  0  0  0  0  0  0  0
   -2.4286   -6.1077   -5.8661 C   0  0  0  0  0  0  0  0  0  0  0  0
   -3.4012   -5.5300   -6.8825 C   0  0  0  0  0  0  0  0  0  0  0  0
   -4.6180   -5.7107   -6.8433 O   0  0  0  0  0  0  0  0  0  0  0  0
   -2.7973   -4.8516   -7.9213 N   0  0  0  0  0  0  0  0  0  0  0  0
   -3.6594   -4.4908   -8.9863 O   0  0  0  0  0  0  0  0  0  0  0  0
   -1.8371   -4.6340   -7.9224 H   0  0  0  0  0  0  0  0  0  0  0  0
   -4.5593   -4.7959   -8.7913 H   0  0  0  0  0  0  0  0  0  0  0  0
 11 12  1  0
 12  4  1  0
  4  5  2  0
  5  6  1  0
  6  7  2  0
  7  1  1  0
  1  2  2  0
  1  3  2  0
  1 13  1  0
 13 14  1  0
 14 15  1  0
 15 16  1  0
 13 18  1  0
 18 19  1  0
 19 20  2  0
 19 21  1  0
 21 22  1  0
  7  8  1  0
  8  9  2  0
  9 10  1  0
  9  4  1  0
 16 17  1  0
 21 23  1  0
 22 24  1  0
M  END
> <minimizedAffinity>
-5.88707

> <CNNscore>
0.3109652102

> <CNNaffinity>
5.4971318245

> <CNN_VS>
1.7094167471

> <CNNaffinity_variance>
0.1210688353

$$$$



 24 24  0  0  0  0  0  0  0  0999 V2000
   -1.9987   -4.9128   -6.7348 S   0  0  0  0  0  0  0  0  0  0  0  0
   -2.1941   -3.6548   -6.0510 O   0  0  0  0  0  0  0  0  0  0  0  0
   -1.2927   -4.9893   -7.9950 O   0  0  0  0  0  0  0  0  0  0  0  0
   -6.1317   -6.8191   -7.1994 C   0  0  0  0  0  0  0  0  0  0  0  0
   -5.7339   -6.2627   -5.9776 C   0  0  0  0  0  0  0  0  0  0  0  0
   -4.4715   -5.6779   -5.8427 C   0  0  0  0  0  0  0  0  0  0  0  0
   -3.5988   -5.6535   -6.9333 C   0  0  0  0  0  0  0  0  0  0  0  0
   -3.9783   -6.1893   -8.1627 C   0  0  0  0  0  0  0  0  0  0  0  0
   -5.2401   -6.7764   -8.2871 C   0  0  0  0  0  0  0  0  0  0  0  0
   -5.7015   -7.5152   -9.9774 Br  0  0  0  0  0  0  0  0  0  0  0  0
   -8.0996   -7.0009   -8.5424 C   0  0  0  0  0  0  0  0  0  0  0  0
   -7.3425   -7.4223   -7.4152 O   0  0  0  0  0  0  0  0  0  0  0  0
   -1.2482   -5.9933   -5.6674 N   0  0  0  0  0  0  0  0  0  0  0  0
   -0.5484   -5.4265   -4.4832 C   0  0  0  0  0  0  0  0  0  0  0  0
   -1.3631   -4.2591   -3.9134 C   0  0  0  0  0  0  0  0  0  0  0  0
   -0.5594   -3.0796   -3.8200 O   0  0  0  0  0  0  0  0  0  0  0  0
    0.1915   -3.2459   -3.2288 H   0  0  0  0  0  0  0  0  0  0  0  0
   -2.0387   -7.2259   -5.3855 C   0  0  0  0  0  0  0  0  0  0  0  0
   -1.9873   -7.5905   -3.9099 C   0  0  0  0  0  0  0  0  0  0  0  0
   -2.8664   -7.2930   -3.1016 O   0  0  0  0  0  0  0  0  0  0  0  0
   -0.8180   -8.2114   -3.5209 N   0  0  0  0  0  0  0  0  0  0  0  0
   -0.6561   -8.3673   -2.1219 O   0  0  0  0  0  0  0  0  0  0  0  0
   -0.1452   -8.5234   -4.1684 H   0  0  0  0  0  0  0  0  0  0  0  0
   -1.4261   -7.9955   -1.6639 H   0  0  0  0  0  0  0  0  0  0  0  0
 11 12  1  0
 12  4  1  0
  4  5  2  0
  5  6  1  0
  6  7  2  0
  7  1  1  0
  1  2  2  0
  1  3  2  0
  1 13  1  0
 13 14  1  0
 14 15  1  0
 15 16  1  0
 13 18  1  0
 18 19  1  0
 19 20  2  0
 19 21  1  0
 21 22  1  0
  7  8  1  0
  8  9  2  0
  9 10  1  0
  9  4  1  0
 16 17  1  0
 21 23  1  0
 22 24  1  0
M  END
> <minimizedAffinity>
-6.50775

> <CNNscore>
0.2980136275

> <CNNaffinity>
5.2701249123

> <CNN_VS>
1.5705690384

> <CNNaffinity_variance>
0.1145307794

$$$$



 24 24  0  0  0  0  0  0  0  0999 V2000
   -1.3509   -5.0007   -2.2913 S   0  0  0  0  0  0  0  0  0  0  0  0
   -0.6338   -6.2189   -1.9916 O   0  0  0  0  0  0  0  0  0  0  0  0
   -0.6671   -3.8113   -2.7499 O   0  0  0  0  0  0  0  0  0  0  0  0
   -3.7942   -3.8956    1.4155 C   0  0  0  0  0  0  0  0  0  0  0  0
   -3.0964   -2.9147    0.7002 C   0  0  0  0  0  0  0  0  0  0  0  0
   -2.3550   -3.2576   -0.4341 C   0  0  0  0  0  0  0  0  0  0  0  0
   -2.3056   -4.5892   -0.8534 C   0  0  0  0  0  0  0  0  0  0  0  0
   -3.0029   -5.5803   -0.1648 C   0  0  0  0  0  0  0  0  0  0  0  0
   -3.7373   -5.2293    0.9709 C   0  0  0  0  0  0  0  0  0  0  0  0
   -4.6510   -6.6209    1.8898 Br  0  0  0  0  0  0  0  0  0  0  0  0
   -3.8623   -3.0867    3.6628 C   0  0  0  0  0  0  0  0  0  0  0  0
   -4.5328   -3.6500    2.5427 O   0  0  0  0  0  0  0  0  0  0  0  0
   -2.5631   -5.3551   -3.4206 N   0  0  0  0  0  0  0  0  0  0  0  0
   -3.3649   -4.2227   -3.9574 C   0  0  0  0  0  0  0  0  0  0  0  0
   -2.4573   -3.0059   -4.1739 C   0  0  0  0  0  0  0  0  0  0  0  0
   -3.1682   -1.9561   -4.8361 O   0  0  0  0  0  0  0  0  0  0  0  0
   -3.4730   -2.2684   -5.7024 H   0  0  0  0  0  0  0  0  0  0  0  0
   -2.1746   -6.3732   -4.4384 C   0  0  0  0  0  0  0  0  0  0  0  0
   -1.3090   -5.7623   -5.5295 C   0  0  0  0  0  0  0  0  0  0  0  0
   -0.1311   -5.4438   -5.3690 O   0  0  0  0  0  0  0  0  0  0  0  0
   -1.9811   -5.5036   -6.7065 N   0  0  0  0  0  0  0  0  0  0  0  0
   -1.2571   -4.7436   -7.6584 O   0  0  0  0  0  0  0  0  0  0  0  0
   -2.8971   -5.8237   -6.8728 H   0  0  0  0  0  0  0  0  0  0  0  0
   -0.3807   -4.5295   -7.3021 H   0  0  0  0  0  0  0  0  0  0  0  0
 11 12  1  0
 12  4  1  0
  4  5  2  0
  5  6  1  0
  6  7  2  0
  7  1  1  0
  1  2  2  0
  1  3  2  0
  1 13  1  0
 13 14  1  0
 14 15  1  0
 15 16  1  0
 13 18  1  0
 18 19  1  0
 19 20  2  0
 19 21  1  0
 21 22  1  0
  7  8  1  0
  8  9  2  0
  9 10  1  0
  9  4  1  0
 16 17  1  0
 21 23  1  0
 22 24  1  0
M  END
> <minimizedAffinity>
-5.30560

> <CNNscore>
0.2697484195

> <CNNaffinity>
5.1247286797

> <CNN_VS>
1.3823875189

> <CNNaffinity_variance>
0.2412640303

$$$$
