


 26 27  0  0  0  0  0  0  0  0999 V2000
    6.2341    5.1020    5.6349 N   0  0  0  0  0  0  0  0  0  0  0  0
    7.1421    5.8497    6.1472 C   0  0  0  0  0  0  0  0  0  0  0  0
    7.2239    6.1431    7.4807 O   0  0  0  0  0  0  0  0  0  0  0  0
    8.3267    7.0541    7.6590 C   0  0  0  0  0  0  0  0  0  0  0  0
    9.1727    6.8470    6.4137 C   0  0  0  0  0  0  0  0  0  0  0  0
    9.9311    8.0730    5.9399 C   0  0  0  0  0  0  0  0  0  0  0  0
   10.5758    7.7511    4.5669 C   0  0  0  0  0  0  0  0  0  0  0  0
    9.5805    7.1184    3.5452 C   0  0  0  0  0  0  0  0  0  0  0  0
    8.6170    6.0603    4.1630 C   0  0  0  0  0  0  0  0  0  0  0  0
    7.4936    5.9290    3.3004 O   0  0  0  0  0  0  0  0  0  0  0  0
    8.1591    6.4556    5.4675 N   0  0  0  0  0  0  0  0  0  0  0  0
    7.0393    6.7830    3.2288 H   0  0  0  0  0  0  0  0  0  0  0  0
   10.8995    8.3566    6.9688 O   0  0  0  0  0  0  0  0  0  0  0  0
   10.9072    9.7098    7.4068 C   0  0  0  0  0  0  0  0  0  0  0  0
   11.0899    9.0090    4.0543 O   0  0  0  0  0  0  0  0  0  0  0  0
   10.0881    9.9583    3.7126 C   0  0  0  0  0  0  0  0  0  0  0  0
   10.3995    6.5122    2.5066 O   0  0  0  0  0  0  0  0  0  0  0  0
   11.0368    5.3057    2.9109 C   0  0  0  0  0  0  0  0  0  0  0  0
    5.2346    4.5480    6.5533 C   0  0  0  0  0  0  0  0  0  0  0  0
    3.9568    5.3828    6.4776 C   0  0  0  0  0  0  0  0  0  0  0  0
    2.8477    4.8848    7.4071 C   0  0  0  0  0  0  0  0  0  0  0  0
    2.5706    5.8295    8.5785 C   0  0  0  0  0  0  0  0  0  0  0  0
    2.8531    5.1466    9.9197 C   0  0  0  0  0  0  0  0  0  0  0  0
    2.7443    6.1384   11.0801 C   0  0  0  0  0  0  0  0  0  0  0  0
    0.4414    7.2395   11.0860 C   0  0  0  0  0  0  0  0  0  0  0  0
    1.3487    6.1875   11.7061 C   0  0  0  0  0  0  0  0  0  0  0  0
 25 26  1  0
 26 24  1  0
 24 23  1  0
 23 22  1  0
 22 21  1  0
 21 20  1  0
 20 19  1  0
 19  1  1  0
  1  2  2  0
  2  3  1  0
  3  4  1  0
  5  4  1  0
  5  6  1  0
  6 13  1  0
 13 14  1  0
  6  7  1  0
  7 15  1  0
 15 16  1  0
  7  8  1  0
  8 17  1  0
 17 18  1  0
  8  9  1  0
  9 10  1  0
  9 11  1  0
 11  2  1  0
 11  5  1  0
 10 12  1  0
M  END
> <minimizedAffinity>
-5.41093

> <CNNscore>
0.2941335142

> <CNNaffinity>
5.0613923073

> <CNN_VS>
1.4887250662

> <CNNaffinity_variance>
0.2673813999

$$$$



 26 27  0  0  0  0  0  0  0  0999 V2000
    5.4383    6.9975   10.3203 N   0  0  0  0  0  0  0  0  0  0  0  0
    6.4183    6.8719    9.5019 C   0  0  0  0  0  0  0  0  0  0  0  0
    6.7729    5.6886    8.9144 O   0  0  0  0  0  0  0  0  0  0  0  0
    7.9492    5.9334    8.1181 C   0  0  0  0  0  0  0  0  0  0  0  0
    7.9267    7.4358    7.8907 C   0  0  0  0  0  0  0  0  0  0  0  0
    9.2909    8.0873    7.7596 C   0  0  0  0  0  0  0  0  0  0  0  0
    9.0998    9.6258    7.7329 C   0  0  0  0  0  0  0  0  0  0  0  0
    8.1882   10.1595    8.8814 C   0  0  0  0  0  0  0  0  0  0  0  0
    6.9369    9.2753    9.1675 C   0  0  0  0  0  0  0  0  0  0  0  0
    6.4806    9.5679   10.4827 O   0  0  0  0  0  0  0  0  0  0  0  0
    7.2458    7.8735    9.0827 N   0  0  0  0  0  0  0  0  0  0  0  0
    7.1807    9.3609   11.1214 H   0  0  0  0  0  0  0  0  0  0  0  0
    9.8592    7.5651    6.5425 O   0  0  0  0  0  0  0  0  0  0  0  0
    8.9788    7.5972    5.4258 C   0  0  0  0  0  0  0  0  0  0  0  0
   10.4286   10.2025    7.8371 O   0  0  0  0  0  0  0  0  0  0  0  0
   10.9517   10.7000    6.6123 C   0  0  0  0  0  0  0  0  0  0  0  0
    7.7817   11.4989    8.4845 O   0  0  0  0  0  0  0  0  0  0  0  0
    7.9193   12.4688    9.5169 C   0  0  0  0  0  0  0  0  0  0  0  0
    4.6745    5.7855   10.6317 C   0  0  0  0  0  0  0  0  0  0  0  0
    3.4927    5.6682    9.6698 C   0  0  0  0  0  0  0  0  0  0  0  0
    2.1407    5.5509   10.3771 C   0  0  0  0  0  0  0  0  0  0  0  0
    1.2599    6.7907   10.2078 C   0  0  0  0  0  0  0  0  0  0  0  0
    0.5262    7.1306   11.5082 C   0  0  0  0  0  0  0  0  0  0  0  0
    0.7594    6.0564   12.5730 C   0  0  0  0  0  0  0  0  0  0  0  0
    2.0297    5.4302   14.6966 C   0  0  0  0  0  0  0  0  0  0  0  0
    1.6093    6.5434   13.7489 C   0  0  0  0  0  0  0  0  0  0  0  0
 25 26  1  0
 26 24  1  0
 24 23  1  0
 23 22  1  0
 22 21  1  0
 21 20  1  0
 20 19  1  0
 19  1  1  0
  1  2  2  0
  2  3  1  0
  3  4  1  0
  5  4  1  0
  5  6  1  0
  6 13  1  0
 13 14  1  0
  6  7  1  0
  7 15  1  0
 15 16  1  0
  7  8  1  0
  8 17  1  0
 17 18  1  0
  8  9  1  0
  9 10  1  0
  9 11  1  0
 11  2  1  0
 11  5  1  0
 10 12  1  0
M  END
> <minimizedAffinity>
-6.46042

> <CNNscore>
0.2786010206

> <CNNaffinity>
4.8644618988

> <CNN_VS>
1.3552440405

> <CNNaffinity_variance>
0.5319486260

$$$$



 26 27  0  0  0  0  0  0  0  0999 V2000
    6.1669    3.8344    7.6577 N   0  0  0  0  0  0  0  0  0  0  0  0
    6.3158    4.8260    8.4579 C   0  0  0  0  0  0  0  0  0  0  0  0
    7.4170    5.6375    8.4680 O   0  0  0  0  0  0  0  0  0  0  0  0
    7.2472    6.5881    9.5382 C   0  0  0  0  0  0  0  0  0  0  0  0
    5.7493    6.5814    9.7946 C   0  0  0  0  0  0  0  0  0  0  0  0
    5.3408    6.8588   11.2295 C   0  0  0  0  0  0  0  0  0  0  0  0
    3.8141    6.6212   11.3600 C   0  0  0  0  0  0  0  0  0  0  0  0
    3.3427    5.2603   10.7597 C   0  0  0  0  0  0  0  0  0  0  0  0
    4.0247    4.8873    9.4086 C   0  0  0  0  0  0  0  0  0  0  0  0
    3.8985    3.4825    9.2231 O   0  0  0  0  0  0  0  0  0  0  0  0
    5.4201    5.2343    9.4037 N   0  0  0  0  0  0  0  0  0  0  0  0
    4.3403    3.0192    9.9518 H   0  0  0  0  0  0  0  0  0  0  0  0
    5.7270    8.2226   11.4902 O   0  0  0  0  0  0  0  0  0  0  0  0
    5.2715    9.1549   10.5173 C   0  0  0  0  0  0  0  0  0  0  0  0
    3.5143    6.6745   12.7801 O   0  0  0  0  0  0  0  0  0  0  0  0
    3.2961    5.4057   13.3832 C   0  0  0  0  0  0  0  0  0  0  0  0
    1.9027    5.3731   10.5858 O   0  0  0  0  0  0  0  0  0  0  0  0
    1.4876    6.6197   10.0389 C   0  0  0  0  0  0  0  0  0  0  0  0
    7.2579    3.5738    6.7137 C   0  0  0  0  0  0  0  0  0  0  0  0
    6.9589    4.2698    5.3864 C   0  0  0  0  0  0  0  0  0  0  0  0
    8.1071    4.1795    4.3788 C   0  0  0  0  0  0  0  0  0  0  0  0
    7.9257    5.1010    3.1708 C   0  0  0  0  0  0  0  0  0  0  0  0
    6.9381    6.2300    3.4786 C   0  0  0  0  0  0  0  0  0  0  0  0
    7.1477    7.4206    2.5402 C   0  0  0  0  0  0  0  0  0  0  0  0
    7.6347    8.1566    0.1450 C   0  0  0  0  0  0  0  0  0  0  0  0
    7.6511    7.0168    1.1525 C   0  0  0  0  0  0  0  0  0  0  0  0
 25 26  1  0
 26 24  1  0
 24 23  1  0
 23 22  1  0
 22 21  1  0
 21 20  1  0
 20 19  1  0
 19  1  1  0
  1  2  2  0
  2  3  1  0
  3  4  1  0
  5  4  1  0
  5  6  1  0
  6 13  1  0
 13 14  1  0
  6  7  1  0
  7 15  1  0
 15 16  1  0
  7  8  1  0
  8 17  1  0
 17 18  1  0
  8  9  1  0
  9 10  1  0
  9 11  1  0
 11  2  1  0
 11  5  1  0
 10 12  1  0
M  END
> <minimizedAffinity>
-6.01348

> <CNNscore>
0.2776291966

> <CNNaffinity>
5.5348873138

> <CNN_VS>
1.5366463661

> <CNNaffinity_variance>
0.0345693715

$$$$



 26 27  0  0  0  0  0  0  0  0999 V2000
    3.5305    5.6331    8.1260 N   0  0  0  0  0  0  0  0  0  0  0  0
    3.8995    4.6749    7.3570 C   0  0  0  0  0  0  0  0  0  0  0  0
    3.4709    3.3829    7.4910 O   0  0  0  0  0  0  0  0  0  0  0  0
    4.1479    2.5940    6.4925 C   0  0  0  0  0  0  0  0  0  0  0  0
    4.5928    3.6182    5.4617 C   0  0  0  0  0  0  0  0  0  0  0  0
    5.8782    3.2785    4.7303 C   0  0  0  0  0  0  0  0  0  0  0  0
    6.2923    4.5014    3.8716 C   0  0  0  0  0  0  0  0  0  0  0  0
    6.2831    5.8475    4.6607 C   0  0  0  0  0  0  0  0  0  0  0  0
    5.0716    6.0134    5.6273 C   0  0  0  0  0  0  0  0  0  0  0  0
    5.4143    6.9919    6.6012 O   0  0  0  0  0  0  0  0  0  0  0  0
    4.7530    4.7813    6.2968 N   0  0  0  0  0  0  0  0  0  0  0  0
    6.1918    6.6943    7.0989 H   0  0  0  0  0  0  0  0  0  0  0  0
    5.5839    2.1069    3.9442 O   0  0  0  0  0  0  0  0  0  0  0  0
    6.6091    1.1210    3.9587 C   0  0  0  0  0  0  0  0  0  0  0  0
    7.6284    4.2177    3.3778 O   0  0  0  0  0  0  0  0  0  0  0  0
    7.7133    4.0607    1.9673 C   0  0  0  0  0  0  0  0  0  0  0  0
    6.2797    6.9025    3.6588 O   0  0  0  0  0  0  0  0  0  0  0  0
    4.9760    7.2931    3.2426 C   0  0  0  0  0  0  0  0  0  0  0  0
    2.5998    5.2953    9.2072 C   0  0  0  0  0  0  0  0  0  0  0  0
    2.3480    6.5336   10.0667 C   0  0  0  0  0  0  0  0  0  0  0  0
    0.8755    6.9461   10.1245 C   0  0  0  0  0  0  0  0  0  0  0  0
    0.3985    7.2898   11.5372 C   0  0  0  0  0  0  0  0  0  0  0  0
    0.6546    6.1315   12.5054 C   0  0  0  0  0  0  0  0  0  0  0  0
    1.4892    6.5864   13.7049 C   0  0  0  0  0  0  0  0  0  0  0  0
    2.9530    4.4989   13.8294 C   0  0  0  0  0  0  0  0  0  0  0  0
    1.9969    5.4263   14.5644 C   0  0  0  0  0  0  0  0  0  0  0  0
 25 26  1  0
 26 24  1  0
 24 23  1  0
 23 22  1  0
 22 21  1  0
 21 20  1  0
 20 19  1  0
 19  1  1  0
  1  2  2  0
  2  3  1  0
  3  4  1  0
  5  4  1  0
  5  6  1  0
  6 13  1  0
 13 14  1  0
  6  7  1  0
  7 15  1  0
 15 16  1  0
  7  8  1  0
  8 17  1  0
 17 18  1  0
  8  9  1  0
  9 10  1  0
  9 11  1  0
 11  2  1  0
 11  5  1  0
 10 12  1  0
M  END
> <minimizedAffinity>
-7.33334

> <CNNscore>
0.2592546344

> <CNNaffinity>
4.7960515022

> <CNN_VS>
1.2433985472

> <CNNaffinity_variance>
0.7936703563

$$$$



 26 27  0  0  0  0  0  0  0  0999 V2000
    6.8469    7.9031    4.6744 N   0  0  0  0  0  0  0  0  0  0  0  0
    5.7960    7.2031    4.4476 C   0  0  0  0  0  0  0  0  0  0  0  0
    4.7741    7.6058    3.6324 O   0  0  0  0  0  0  0  0  0  0  0  0
    3.7532    6.5893    3.6798 C   0  0  0  0  0  0  0  0  0  0  0  0
    4.4928    5.3555    4.1698 C   0  0  0  0  0  0  0  0  0  0  0  0
    3.6604    4.3916    4.9949 C   0  0  0  0  0  0  0  0  0  0  0  0
    4.6006    3.3042    5.5762 C   0  0  0  0  0  0  0  0  0  0  0  0
    5.8712    3.8866    6.2700 C   0  0  0  0  0  0  0  0  0  0  0  0
    6.5224    5.0822    5.5112 C   0  0  0  0  0  0  0  0  0  0  0  0
    7.3244    5.8077    6.4354 O   0  0  0  0  0  0  0  0  0  0  0  0
    5.5308    5.9661    4.9607 N   0  0  0  0  0  0  0  0  0  0  0  0
    6.7664    6.1416    7.1552 H   0  0  0  0  0  0  0  0  0  0  0  0
    2.6679    3.8611    4.0947 O   0  0  0  0  0  0  0  0  0  0  0  0
    3.1622    2.8772    3.1943 C   0  0  0  0  0  0  0  0  0  0  0  0
    3.8081    2.5497    6.5311 O   0  0  0  0  0  0  0  0  0  0  0  0
    3.6482    3.1833    7.7937 C   0  0  0  0  0  0  0  0  0  0  0  0
    6.8129    2.7829    6.3793 O   0  0  0  0  0  0  0  0  0  0  0  0
    7.5044    2.4978    5.1686 C   0  0  0  0  0  0  0  0  0  0  0  0
    6.9292    9.2095    4.0140 C   0  0  0  0  0  0  0  0  0  0  0  0
    7.7793   10.1550    4.8619 C   0  0  0  0  0  0  0  0  0  0  0  0
    7.4455   10.1017    6.3544 C   0  0  0  0  0  0  0  0  0  0  0  0
    8.6696   10.2810    7.2548 C   0  0  0  0  0  0  0  0  0  0  0  0
    9.4583    8.9749    7.3842 C   0  0  0  0  0  0  0  0  0  0  0  0
   10.9651    9.2259    7.2911 C   0  0  0  0  0  0  0  0  0  0  0  0
   12.4771   10.7900    5.9558 C   0  0  0  0  0  0  0  0  0  0  0  0
   11.4156    9.7012    5.9079 C   0  0  0  0  0  0  0  0  0  0  0  0
 25 26  1  0
 26 24  1  0
 24 23  1  0
 23 22  1  0
 22 21  1  0
 21 20  1  0
 20 19  1  0
 19  1  1  0
  1  2  2  0
  2  3  1  0
  3  4  1  0
  5  4  1  0
  5  6  1  0
  6 13  1  0
 13 14  1  0
  6  7  1  0
  7 15  1  0
 15 16  1  0
  7  8  1  0
  8 17  1  0
 17 18  1  0
  8  9  1  0
  9 10  1  0
  9 11  1  0
 11  2  1  0
 11  5  1  0
 10 12  1  0
M  END
> <minimizedAffinity>
-5.29286

> <CNNscore>
0.2413532883

> <CNNaffinity>
4.3311786652

> <CNN_VS>
1.0453442335

> <CNNaffinity_variance>
0.6746962667

$$$$



 26 27  0  0  0  0  0  0  0  0999 V2000
    5.2583    7.1918    7.4284 N   0  0  0  0  0  0  0  0  0  0  0  0
    6.4914    7.5352    7.5137 C   0  0  0  0  0  0  0  0  0  0  0  0
    7.2223    7.4686    8.6681 O   0  0  0  0  0  0  0  0  0  0  0  0
    8.5337    7.9949    8.3838 C   0  0  0  0  0  0  0  0  0  0  0  0
    8.6496    7.8826    6.8727 C   0  0  0  0  0  0  0  0  0  0  0  0
    9.5032    8.9490    6.2118 C   0  0  0  0  0  0  0  0  0  0  0  0
    9.3570    8.8117    4.6743 C   0  0  0  0  0  0  0  0  0  0  0  0
    7.8745    8.7207    4.1959 C   0  0  0  0  0  0  0  0  0  0  0  0
    6.9661    7.8296    5.0961 C   0  0  0  0  0  0  0  0  0  0  0  0
    5.6130    8.2027    4.8648 O   0  0  0  0  0  0  0  0  0  0  0  0
    7.2654    8.0041    6.4916 N   0  0  0  0  0  0  0  0  0  0  0  0
    5.4905    9.1361    5.0984 H   0  0  0  0  0  0  0  0  0  0  0  0
   10.8477    8.7184    6.6766 O   0  0  0  0  0  0  0  0  0  0  0  0
   11.4326    9.8283    7.3469 C   0  0  0  0  0  0  0  0  0  0  0  0
    9.9996    9.9801    4.0988 O   0  0  0  0  0  0  0  0  0  0  0  0
    9.3189   11.2047    4.3405 C   0  0  0  0  0  0  0  0  0  0  0  0
    7.9193    8.1921    2.8412 O   0  0  0  0  0  0  0  0  0  0  0  0
    7.3110    9.0411    1.8746 C   0  0  0  0  0  0  0  0  0  0  0  0
    4.6174    6.7096    8.6556 C   0  0  0  0  0  0  0  0  0  0  0  0
    3.7453    5.4973    8.3312 C   0  0  0  0  0  0  0  0  0  0  0  0
    2.2734    5.6882    8.7036 C   0  0  0  0  0  0  0  0  0  0  0  0
    2.0587    5.9832   10.1897 C   0  0  0  0  0  0  0  0  0  0  0  0
    1.2282    7.2543   10.3878 C   0  0  0  0  0  0  0  0  0  0  0  0
    0.3042    7.1289   11.6013 C   0  0  0  0  0  0  0  0  0  0  0  0
    1.6243    6.7933   13.7601 C   0  0  0  0  0  0  0  0  0  0  0  0
    0.8141    6.1389   12.6511 C   0  0  0  0  0  0  0  0  0  0  0  0
 25 26  1  0
 26 24  1  0
 24 23  1  0
 23 22  1  0
 22 21  1  0
 21 20  1  0
 20 19  1  0
 19  1  1  0
  1  2  2  0
  2  3  1  0
  3  4  1  0
  5  4  1  0
  5  6  1  0
  6 13  1  0
 13 14  1  0
  6  7  1  0
  7 15  1  0
 15 16  1  0
  7  8  1  0
  8 17  1  0
 17 18  1  0
  8  9  1  0
  9 10  1  0
  9 11  1  0
 11  2  1  0
 11  5  1  0
 10 12  1  0
M  END
> <minimizedAffinity>
-5.63884

> <CNNscore>
0.2144800872

> <CNNaffinity>
4.0470652580

> <CNN_VS>
0.8680149317

> <CNNaffinity_variance>
0.9588225484

$$$$



 26 27  0  0  0  0  0  0  0  0999 V2000
    5.1774    6.3269    7.5887 N   0  0  0  0  0  0  0  0  0  0  0  0
    6.3014    6.9313    7.7198 C   0  0  0  0  0  0  0  0  0  0  0  0
    6.6016    7.7628    8.7636 O   0  0  0  0  0  0  0  0  0  0  0  0
    7.9197    8.2971    8.5292 C   0  0  0  0  0  0  0  0  0  0  0  0
    8.5407    7.3136    7.5512 C   0  0  0  0  0  0  0  0  0  0  0  0
    9.5425    7.9148    6.5829 C   0  0  0  0  0  0  0  0  0  0  0  0
    9.9264    6.8339    5.5396 C   0  0  0  0  0  0  0  0  0  0  0  0
    8.6945    6.1193    4.9020 C   0  0  0  0  0  0  0  0  0  0  0  0
    7.5564    5.7838    5.9129 C   0  0  0  0  0  0  0  0  0  0  0  0
    6.3524    5.6010    5.1777 O   0  0  0  0  0  0  0  0  0  0  0  0
    7.3637    6.8421    6.8670 N   0  0  0  0  0  0  0  0  0  0  0  0
    6.1370    6.4182    4.7017 H   0  0  0  0  0  0  0  0  0  0  0  0
   10.6566    8.3460    7.3891 O   0  0  0  0  0  0  0  0  0  0  0  0
   11.0410    9.6992    7.1785 C   0  0  0  0  0  0  0  0  0  0  0  0
   10.6984    7.5142    4.5146 O   0  0  0  0  0  0  0  0  0  0  0  0
    9.9601    8.4613    3.7536 C   0  0  0  0  0  0  0  0  0  0  0  0
    9.2055    4.9012    4.2923 O   0  0  0  0  0  0  0  0  0  0  0  0
    9.0458    4.8574    2.8788 C   0  0  0  0  0  0  0  0  0  0  0  0
    4.1715    6.5635    8.6286 C   0  0  0  0  0  0  0  0  0  0  0  0
    3.0976    5.4789    8.5533 C   0  0  0  0  0  0  0  0  0  0  0  0
    3.2464    4.3983    9.6266 C   0  0  0  0  0  0  0  0  0  0  0  0
    2.5527    4.7540   10.9434 C   0  0  0  0  0  0  0  0  0  0  0  0
    3.5420    5.3544   11.9461 C   0  0  0  0  0  0  0  0  0  0  0  0
    2.8975    6.4856   12.7506 C   0  0  0  0  0  0  0  0  0  0  0  0
    1.7929    5.1610   14.6322 C   0  0  0  0  0  0  0  0  0  0  0  0
    1.5907    6.0752   13.4332 C   0  0  0  0  0  0  0  0  0  0  0  0
 25 26  1  0
 26 24  1  0
 24 23  1  0
 23 22  1  0
 22 21  1  0
 21 20  1  0
 20 19  1  0
 19  1  1  0
  1  2  2  0
  2  3  1  0
  3  4  1  0
  5  4  1  0
  5  6  1  0
  6 13  1  0
 13 14  1  0
  6  7  1  0
  7 15  1  0
 15 16  1  0
  7  8  1  0
  8 17  1  0
 17 18  1  0
  8  9  1  0
  9 10  1  0
  9 11  1  0
 11  2  1  0
 11  5  1  0
 10 12  1  0
M  END
> <minimizedAffinity>
-5.70171

> <CNNscore>
0.1994944662

> <CNNaffinity>
4.4790301323

> <CNN_VS>
0.8935417533

> <CNNaffinity_variance>
0.5245323181

$$$$



 26 27  0  0  0  0  0  0  0  0999 V2000
    3.7649    3.9079    7.8726 N   0  0  0  0  0  0  0  0  0  0  0  0
    4.9274    4.3089    7.5072 C   0  0  0  0  0  0  0  0  0  0  0  0
    5.7499    5.0727    8.2890 O   0  0  0  0  0  0  0  0  0  0  0  0
    6.9295    5.3723    7.5166 C   0  0  0  0  0  0  0  0  0  0  0  0
    6.9400    4.2997    6.4402 C   0  0  0  0  0  0  0  0  0  0  0  0
    7.5502    4.7223    5.1166 C   0  0  0  0  0  0  0  0  0  0  0  0
    7.3050    3.5948    4.0807 C   0  0  0  0  0  0  0  0  0  0  0  0
    5.8241    3.1056    4.0324 C   0  0  0  0  0  0  0  0  0  0  0  0
    5.1505    2.9681    5.4313 C   0  0  0  0  0  0  0  0  0  0  0  0
    3.7402    2.9982    5.2473 O   0  0  0  0  0  0  0  0  0  0  0  0
    5.5286    4.0406    6.3112 N   0  0  0  0  0  0  0  0  0  0  0  0
    3.4849    3.8420    4.8426 H   0  0  0  0  0  0  0  0  0  0  0  0
    8.9474    4.9522    5.3848 O   0  0  0  0  0  0  0  0  0  0  0  0
    9.3913    6.2693    5.0826 C   0  0  0  0  0  0  0  0  0  0  0  0
    7.6979    4.1351    2.7911 O   0  0  0  0  0  0  0  0  0  0  0  0
    7.1157    5.3940    2.4787 C   0  0  0  0  0  0  0  0  0  0  0  0
    5.8460    1.8196    3.3523 O   0  0  0  0  0  0  0  0  0  0  0  0
    6.8634    0.9414    3.8201 C   0  0  0  0  0  0  0  0  0  0  0  0
    3.3133    4.3111    9.2078 C   0  0  0  0  0  0  0  0  0  0  0  0
    2.4863    5.5917    9.0995 C   0  0  0  0  0  0  0  0  0  0  0  0
    2.4000    6.3742   10.4119 C   0  0  0  0  0  0  0  0  0  0  0  0
    1.0239    6.9976   10.6551 C   0  0  0  0  0  0  0  0  0  0  0  0
    0.5578    6.7664   12.0953 C   0  0  0  0  0  0  0  0  0  0  0  0
    1.7443    6.7185   13.0607 C   0  0  0  0  0  0  0  0  0  0  0  0
    2.8334    4.5891   13.9524 C   0  0  0  0  0  0  0  0  0  0  0  0
    1.6673    5.5604   14.0582 C   0  0  0  0  0  0  0  0  0  0  0  0
 25 26  1  0
 26 24  1  0
 24 23  1  0
 23 22  1  0
 22 21  1  0
 21 20  1  0
 20 19  1  0
 19  1  1  0
  1  2  2  0
  2  3  1  0
  3  4  1  0
  5  4  1  0
  5  6  1  0
  6 13  1  0
 13 14  1  0
  6  7  1  0
  7 15  1  0
 15 16  1  0
  7  8  1  0
  8 17  1  0
 17 18  1  0
  8  9  1  0
  9 10  1  0
  9 11  1  0
 11  2  1  0
 11  5  1  0
 10 12  1  0
M  END
> <minimizedAffinity>
-7.36124

> <CNNscore>
0.1956425905

> <CNNaffinity>
4.5794644356

> <CNN_VS>
0.8959382772

> <CNNaffinity_variance>
0.7761602402

$$$$



 26 27  0  0  0  0  0  0  0  0999 V2000
    6.1268    8.5159    3.8754 N   0  0  0  0  0  0  0  0  0  0  0  0
    5.2407    7.6033    4.0419 C   0  0  0  0  0  0  0  0  0  0  0  0
    4.3506    7.2210    3.0762 O   0  0  0  0  0  0  0  0  0  0  0  0
    3.4826    6.2257    3.6538 C   0  0  0  0  0  0  0  0  0  0  0  0
    4.2701    5.7052    4.8447 C   0  0  0  0  0  0  0  0  0  0  0  0
    3.4289    5.2435    6.0203 C   0  0  0  0  0  0  0  0  0  0  0  0
    4.3748    4.9351    7.2096 C   0  0  0  0  0  0  0  0  0  0  0  0
    5.4003    6.0746    7.5007 C   0  0  0  0  0  0  0  0  0  0  0  0
    6.0220    6.7165    6.2237 C   0  0  0  0  0  0  0  0  0  0  0  0
    6.5286    7.9984    6.5755 O   0  0  0  0  0  0  0  0  0  0  0  0
    5.0471    6.8718    5.1782 N   0  0  0  0  0  0  0  0  0  0  0  0
    5.8036    8.5542    6.9016 H   0  0  0  0  0  0  0  0  0  0  0  0
    2.7068    4.0864    5.5550 O   0  0  0  0  0  0  0  0  0  0  0  0
    3.5247    2.9514    5.2985 C   0  0  0  0  0  0  0  0  0  0  0  0
    3.5199    4.7217    8.3642 O   0  0  0  0  0  0  0  0  0  0  0  0
    2.7514    5.8556    8.7448 C   0  0  0  0  0  0  0  0  0  0  0  0
    6.4404    5.4802    8.3263 O   0  0  0  0  0  0  0  0  0  0  0  0
    7.5393    4.9669    7.5818 C   0  0  0  0  0  0  0  0  0  0  0  0
    6.1617    9.1761    2.5668 C   0  0  0  0  0  0  0  0  0  0  0  0
    7.5499    9.0091    1.9501 C   0  0  0  0  0  0  0  0  0  0  0  0
    7.5375    8.2623    0.6144 C   0  0  0  0  0  0  0  0  0  0  0  0
    8.1861    9.0506   -0.5255 C   0  0  0  0  0  0  0  0  0  0  0  0
    7.2049    9.2606   -1.6822 C   0  0  0  0  0  0  0  0  0  0  0  0
    5.8973    9.8873   -1.1926 C   0  0  0  0  0  0  0  0  0  0  0  0
    3.5823    9.0976   -0.4628 C   0  0  0  0  0  0  0  0  0  0  0  0
    4.6605    9.0537   -1.5352 C   0  0  0  0  0  0  0  0  0  0  0  0
 25 26  1  0
 26 24  1  0
 24 23  1  0
 23 22  1  0
 22 21  1  0
 21 20  1  0
 20 19  1  0
 19  1  1  0
  1  2  2  0
  2  3  1  0
  3  4  1  0
  5  4  1  0
  5  6  1  0
  6 13  1  0
 13 14  1  0
  6  7  1  0
  7 15  1  0
 15 16  1  0
  7  8  1  0
  8 17  1  0
 17 18  1  0
  8  9  1  0
  9 10  1  0
  9 11  1  0
 11  2  1  0
 11  5  1  0
 10 12  1  0
M  END
> <minimizedAffinity>
-5.22427

> <CNNscore>
0.1868305802

> <CNNaffinity>
3.6056499481

> <CNN_VS>
0.6736456752

> <CNNaffinity_variance>
1.3587380648

$$$$
