


 25 28  0  0  0  0  0  0  0  0999 V2000
  -33.3292   32.4937    0.7840 C   0  0  0  0  0  0  0  0  0  0  0  0
  -32.9949   31.9994    2.0651 C   0  0  0  0  0  0  0  0  0  0  0  0
  -32.2095   32.7525    2.9427 C   0  0  0  0  0  0  0  0  0  0  0  0
  -31.7731   33.9892    2.5171 C   0  0  0  0  0  0  0  0  0  0  0  0
  -32.0832   34.4876    1.2723 C   0  0  0  0  0  0  0  0  0  0  0  0
  -32.8534   33.7572    0.3827 C   0  0  0  0  0  0  0  0  0  0  0  0
  -31.5677   35.7351    1.0859 O   0  0  0  0  0  0  0  0  0  0  0  0
  -30.8677   35.9428    2.3280 C   0  0  0  0  0  0  0  0  0  0  0  0
  -31.0163   34.8475    3.2524 O   0  0  0  0  0  0  0  0  0  0  0  0
  -35.8577   30.1018   -1.8076 O   0  0  0  0  0  0  0  0  0  0  0  0
  -34.8117   29.6530   -1.3648 C   0  0  0  0  0  0  0  0  0  0  0  0
  -34.2597   28.2653   -1.6305 C   0  0  0  0  0  0  0  0  0  0  0  0
  -32.9544   28.2781   -0.8755 C   0  0  0  0  0  0  0  0  0  0  0  0
  -32.0452   27.2306   -0.8045 C   0  0  0  0  0  0  0  0  0  0  0  0
  -30.8909   27.4181   -0.0521 C   0  0  0  0  0  0  0  0  0  0  0  0
  -29.9955   26.4255    0.0336 F   0  0  0  0  0  0  0  0  0  0  0  0
  -30.6442   28.6198    0.6170 C   0  0  0  0  0  0  0  0  0  0  0  0
  -31.5632   29.6721    0.5423 C   0  0  0  0  0  0  0  0  0  0  0  0
  -32.7191   29.4996   -0.2073 C   0  0  0  0  0  0  0  0  0  0  0  0
  -33.8503   30.3950   -0.4754 C   0  0  0  0  0  0  0  0  0  0  0  0
  -34.1467   31.6444   -0.0865 C   0  0  0  0  0  0  0  0  0  0  0  0
  -33.1850   34.3195   -0.9327 C   0  0  0  0  0  0  0  0  0  0  0  0
  -34.2329   34.1850   -1.5335 O   0  0  0  0  0  0  0  0  0  0  0  0
  -32.1376   34.9857   -1.4488 O   0  0  0  0  0  0  0  0  0  0  0  0
  -31.3456   35.0685   -0.9550 H   0  0  0  0  0  0  0  0  0  0  0  0
 10 11  2  0
 11 12  1  0
 12 13  1  0
 13 14  2  0
 14 15  1  0
 15 16  1  0
 15 17  2  0
 17 18  1  0
 18 19  2  0
 19 20  1  0
 20 21  2  0
 21  1  1  0
  1  2  2  0
  2  3  1  0
  3  4  2  0
  4  5  1  0
  5  6  2  0
  6 22  1  0
 22 23  2  0
 22 24  1  0
  5  7  1  0
  7  8  1  0
  8  9  1  0
 20 11  1  0
  6  1  1  0
 19 13  1  0
  9  4  1  0
 24 25  1  0
M  END
> <minimizedAffinity>
-10.40923

> <CNNscore>
0.9820049405

> <CNNaffinity>
5.4869093895

> <CNN_VS>
5.3881721497

> <CNNaffinity_variance>
0.2482866794

$$$$



 25 28  0  0  0  0  0  0  0  0999 V2000
  -33.6205   33.0617    1.1034 C   0  0  0  0  0  0  0  0  0  0  0  0
  -33.2388   32.4890    2.3377 C   0  0  0  0  0  0  0  0  0  0  0  0
  -32.2309   33.0661    3.1157 C   0  0  0  0  0  0  0  0  0  0  0  0
  -31.6235   34.2084    2.6390 C   0  0  0  0  0  0  0  0  0  0  0  0
  -31.9766   34.7798    1.4379 C   0  0  0  0  0  0  0  0  0  0  0  0
  -32.9669   34.2226    0.6462 C   0  0  0  0  0  0  0  0  0  0  0  0
  -31.2624   35.9134    1.1895 O   0  0  0  0  0  0  0  0  0  0  0  0
  -30.3974   35.9633    2.3408 C   0  0  0  0  0  0  0  0  0  0  0  0
  -30.6401   34.8968    3.2788 O   0  0  0  0  0  0  0  0  0  0  0  0
  -36.8364   31.2293   -1.1620 O   0  0  0  0  0  0  0  0  0  0  0  0
  -35.8248   30.6013   -0.8897 C   0  0  0  0  0  0  0  0  0  0  0  0
  -35.5455   29.1608   -1.2740 C   0  0  0  0  0  0  0  0  0  0  0  0
  -34.1629   28.9317   -0.7173 C   0  0  0  0  0  0  0  0  0  0  0  0
  -33.4330   27.7538   -0.8105 C   0  0  0  0  0  0  0  0  0  0  0  0
  -32.1703   27.7206   -0.2290 C   0  0  0  0  0  0  0  0  0  0  0  0
  -31.4431   26.5981   -0.3041 F   0  0  0  0  0  0  0  0  0  0  0  0
  -31.6430   28.8329    0.4324 C   0  0  0  0  0  0  0  0  0  0  0  0
  -32.3822   30.0172    0.5235 C   0  0  0  0  0  0  0  0  0  0  0  0
  -33.6437   30.0654   -0.0545 C   0  0  0  0  0  0  0  0  0  0  0  0
  -34.6423   31.1379   -0.1284 C   0  0  0  0  0  0  0  0  0  0  0  0
  -34.6770   32.3960    0.3364 C   0  0  0  0  0  0  0  0  0  0  0  0
  -33.3372   34.8622   -0.6227 C   0  0  0  0  0  0  0  0  0  0  0  0
  -34.4235   35.3264   -0.9088 O   0  0  0  0  0  0  0  0  0  0  0  0
  -32.3139   34.8303   -1.4939 O   0  0  0  0  0  0  0  0  0  0  0  0
  -31.4907   34.4642   -1.2365 H   0  0  0  0  0  0  0  0  0  0  0  0
 10 11  2  0
 11 12  1  0
 12 13  1  0
 13 14  2  0
 14 15  1  0
 15 16  1  0
 15 17  2  0
 17 18  1  0
 18 19  2  0
 19 20  1  0
 20 21  2  0
 21  1  1  0
  1  2  2  0
  2  3  1  0
  3  4  2  0
  4  5  1  0
  5  6  2  0
  6 22  1  0
 22 23  2  0
 22 24  1  0
  5  7  1  0
  7  8  1  0
  8  9  1  0
 20 11  1  0
  6  1  1  0
 19 13  1  0
  9  4  1  0
 24 25  1  0
M  END
> <minimizedAffinity>
-8.48183

> <CNNscore>
0.9482011795

> <CNNaffinity>
5.3187255859

> <CNN_VS>
5.0432219505

> <CNNaffinity_variance>
0.0968970135

$$$$



 25 28  0  0  0  0  0  0  0  0999 V2000
  -35.2227   31.5088    0.3214 C   0  0  0  0  0  0  0  0  0  0  0  0
  -35.7457   30.2069    0.4915 C   0  0  0  0  0  0  0  0  0  0  0  0
  -36.8536   29.7765   -0.2443 C   0  0  0  0  0  0  0  0  0  0  0  0
  -37.4172   30.6625   -1.1378 C   0  0  0  0  0  0  0  0  0  0  0  0
  -36.9268   31.9360   -1.3157 C   0  0  0  0  0  0  0  0  0  0  0  0
  -35.8350   32.3877   -0.5932 C   0  0  0  0  0  0  0  0  0  0  0  0
  -37.6247   32.6168   -2.2676 O   0  0  0  0  0  0  0  0  0  0  0  0
  -38.6280   31.6490   -2.6320 C   0  0  0  0  0  0  0  0  0  0  0  0
  -38.4854   30.3953   -1.9363 O   0  0  0  0  0  0  0  0  0  0  0  0
  -31.8820   32.7833    2.7804 O   0  0  0  0  0  0  0  0  0  0  0  0
  -31.8195   31.7565    2.1220 C   0  0  0  0  0  0  0  0  0  0  0  0
  -30.6313   30.8158    2.0576 C   0  0  0  0  0  0  0  0  0  0  0  0
  -31.1225   29.7245    1.1401 C   0  0  0  0  0  0  0  0  0  0  0  0
  -30.4046   28.5988    0.7573 C   0  0  0  0  0  0  0  0  0  0  0  0
  -31.0168   27.6964   -0.1055 C   0  0  0  0  0  0  0  0  0  0  0  0
  -30.3487   26.6012   -0.4909 F   0  0  0  0  0  0  0  0  0  0  0  0
  -32.3142   27.9070   -0.5798 C   0  0  0  0  0  0  0  0  0  0  0  0
  -33.0333   29.0425   -0.1912 C   0  0  0  0  0  0  0  0  0  0  0  0
  -32.4352   29.9510    0.6718 C   0  0  0  0  0  0  0  0  0  0  0  0
  -32.9187   31.2095    1.2510 C   0  0  0  0  0  0  0  0  0  0  0  0
  -34.0663   31.8946    1.1348 C   0  0  0  0  0  0  0  0  0  0  0  0
  -35.3202   33.7450   -0.8150 C   0  0  0  0  0  0  0  0  0  0  0  0
  -35.3376   34.6641   -0.0198 O   0  0  0  0  0  0  0  0  0  0  0  0
  -34.8540   33.8838   -2.0682 O   0  0  0  0  0  0  0  0  0  0  0  0
  -34.8568   33.1516   -2.6528 H   0  0  0  0  0  0  0  0  0  0  0  0
 10 11  2  0
 11 12  1  0
 12 13  1  0
 13 14  2  0
 14 15  1  0
 15 16  1  0
 15 17  2  0
 17 18  1  0
 18 19  2  0
 19 20  1  0
 20 21  2  0
 21  1  1  0
  1  2  2  0
  2  3  1  0
  3  4  2  0
  4  5  1  0
  5  6  2  0
  6 22  1  0
 22 23  2  0
 22 24  1  0
  5  7  1  0
  7  8  1  0
  8  9  1  0
 20 11  1  0
  6  1  1  0
 19 13  1  0
  9  4  1  0
 24 25  1  0
M  END
> <minimizedAffinity>
-7.90958

> <CNNscore>
0.8014808893

> <CNNaffinity>
4.7921109200

> <CNN_VS>
3.8407852650

> <CNNaffinity_variance>
0.3816814721

$$$$



 25 28  0  0  0  0  0  0  0  0999 V2000
  -38.6578   23.8743   -2.5184 C   0  0  0  0  0  0  0  0  0  0  0  0
  -38.1905   22.5880   -2.1658 C   0  0  0  0  0  0  0  0  0  0  0  0
  -38.3566   22.0945   -0.8686 C   0  0  0  0  0  0  0  0  0  0  0  0
  -38.9889   22.9028    0.0522 C   0  0  0  0  0  0  0  0  0  0  0  0
  -39.4475   24.1601   -0.2687 C   0  0  0  0  0  0  0  0  0  0  0  0
  -39.2882   24.6736   -1.5449 C   0  0  0  0  0  0  0  0  0  0  0  0
  -40.0612   24.7585    0.7906 O   0  0  0  0  0  0  0  0  0  0  0  0
  -39.8977   23.7597    1.8162 C   0  0  0  0  0  0  0  0  0  0  0  0
  -39.2400   22.5670    1.3462 O   0  0  0  0  0  0  0  0  0  0  0  0
  -38.1457   25.1433   -6.6364 O   0  0  0  0  0  0  0  0  0  0  0  0
  -37.3537   25.4860   -5.7721 C   0  0  0  0  0  0  0  0  0  0  0  0
  -36.1309   26.3577   -5.9857 C   0  0  0  0  0  0  0  0  0  0  0  0
  -35.5629   26.4780   -4.5939 C   0  0  0  0  0  0  0  0  0  0  0  0
  -34.4269   27.1932   -4.2377 C   0  0  0  0  0  0  0  0  0  0  0  0
  -34.0443   27.1872   -2.9008 C   0  0  0  0  0  0  0  0  0  0  0  0
  -32.9533   27.8690   -2.5278 F   0  0  0  0  0  0  0  0  0  0  0  0
  -34.7732   26.4851   -1.9373 C   0  0  0  0  0  0  0  0  0  0  0  0
  -35.9170   25.7662   -2.3011 C   0  0  0  0  0  0  0  0  0  0  0  0
  -36.3120   25.7653   -3.6322 C   0  0  0  0  0  0  0  0  0  0  0  0
  -37.4413   25.1225   -4.3140 C   0  0  0  0  0  0  0  0  0  0  0  0
  -38.4389   24.3299   -3.8939 C   0  0  0  0  0  0  0  0  0  0  0  0
  -39.8027   26.0110   -1.8661 C   0  0  0  0  0  0  0  0  0  0  0  0
  -40.7390   26.2695   -2.5968 O   0  0  0  0  0  0  0  0  0  0  0  0
  -39.0594   26.9657   -1.2804 O   0  0  0  0  0  0  0  0  0  0  0  0
  -38.3449   26.7272   -0.7230 H   0  0  0  0  0  0  0  0  0  0  0  0
 10 11  2  0
 11 12  1  0
 12 13  1  0
 13 14  2  0
 14 15  1  0
 15 16  1  0
 15 17  2  0
 17 18  1  0
 18 19  2  0
 19 20  1  0
 20 21  2  0
 21  1  1  0
  1  2  2  0
  2  3  1  0
  3  4  2  0
  4  5  1  0
  5  6  2  0
  6 22  1  0
 22 23  2  0
 22 24  1  0
  5  7  1  0
  7  8  1  0
  8  9  1  0
 20 11  1  0
  6  1  1  0
 19 13  1  0
  9  4  1  0
 24 25  1  0
M  END
> <minimizedAffinity>
-6.03317

> <CNNscore>
0.7245685458

> <CNNaffinity>
3.9142334461

> <CNN_VS>
2.8361303806

> <CNNaffinity_variance>
0.6168437004

$$$$



 25 28  0  0  0  0  0  0  0  0999 V2000
  -34.9134   32.9979    0.4736 C   0  0  0  0  0  0  0  0  0  0  0  0
  -35.8235   31.9394    0.6942 C   0  0  0  0  0  0  0  0  0  0  0  0
  -37.0351   31.8781   -0.0001 C   0  0  0  0  0  0  0  0  0  0  0  0
  -37.3115   32.8822   -0.9038 C   0  0  0  0  0  0  0  0  0  0  0  0
  -36.4415   33.9242   -1.1305 C   0  0  0  0  0  0  0  0  0  0  0  0
  -35.2387   34.0107   -0.4497 C   0  0  0  0  0  0  0  0  0  0  0  0
  -36.9133   34.7767   -2.0831 O   0  0  0  0  0  0  0  0  0  0  0  0
  -38.1874   34.1800   -2.3938 C   0  0  0  0  0  0  0  0  0  0  0  0
  -38.4349   32.9610   -1.6664 O   0  0  0  0  0  0  0  0  0  0  0  0
  -31.2655   33.1603    2.8184 O   0  0  0  0  0  0  0  0  0  0  0  0
  -31.5194   32.1903    2.1210 C   0  0  0  0  0  0  0  0  0  0  0  0
  -30.6496   30.9572    1.9672 C   0  0  0  0  0  0  0  0  0  0  0  0
  -31.4613   30.0937    1.0347 C   0  0  0  0  0  0  0  0  0  0  0  0
  -31.1056   28.8311    0.5783 C   0  0  0  0  0  0  0  0  0  0  0  0
  -31.9779   28.1802   -0.2871 C   0  0  0  0  0  0  0  0  0  0  0  0
  -31.6614   26.9609   -0.7427 F   0  0  0  0  0  0  0  0  0  0  0  0
  -33.1780   28.7702   -0.6924 C   0  0  0  0  0  0  0  0  0  0  0  0
  -33.5319   30.0423   -0.2298 C   0  0  0  0  0  0  0  0  0  0  0  0
  -32.6714   30.7030    0.6368 C   0  0  0  0  0  0  0  0  0  0  0  0
  -32.7579   32.0176    1.2831 C   0  0  0  0  0  0  0  0  0  0  0  0
  -33.6677   33.0029    1.2455 C   0  0  0  0  0  0  0  0  0  0  0  0
  -34.3201   35.1233   -0.7232 C   0  0  0  0  0  0  0  0  0  0  0  0
  -33.2471   35.0527   -1.2898 O   0  0  0  0  0  0  0  0  0  0  0  0
  -34.7905   36.2728   -0.2091 O   0  0  0  0  0  0  0  0  0  0  0  0
  -35.6229   36.2877    0.2209 H   0  0  0  0  0  0  0  0  0  0  0  0
 10 11  2  0
 11 12  1  0
 12 13  1  0
 13 14  2  0
 14 15  1  0
 15 16  1  0
 15 17  2  0
 17 18  1  0
 18 19  2  0
 19 20  1  0
 20 21  2  0
 21  1  1  0
  1  2  2  0
  2  3  1  0
  3  4  2  0
  4  5  1  0
  5  6  2  0
  6 22  1  0
 22 23  2  0
 22 24  1  0
  5  7  1  0
  7  8  1  0
  8  9  1  0
 20 11  1  0
  6  1  1  0
 19 13  1  0
  9  4  1  0
 24 25  1  0
M  END
> <minimizedAffinity>
-8.14719

> <CNNscore>
0.7194780707

> <CNNaffinity>
4.9865622520

> <CNN_VS>
3.5877223015

> <CNNaffinity_variance>
0.1664699614

$$$$



 25 28  0  0  0  0  0  0  0  0999 V2000
  -36.0712   29.9202   -0.6721 C   0  0  0  0  0  0  0  0  0  0  0  0
  -35.5504   29.5090   -1.9199 C   0  0  0  0  0  0  0  0  0  0  0  0
  -36.2966   28.6936   -2.7757 C   0  0  0  0  0  0  0  0  0  0  0  0
  -37.5532   28.3050   -2.3621 C   0  0  0  0  0  0  0  0  0  0  0  0
  -38.0775   28.6901   -1.1493 C   0  0  0  0  0  0  0  0  0  0  0  0
  -37.3547   29.4915   -0.2814 C   0  0  0  0  0  0  0  0  0  0  0  0
  -39.3402   28.2101   -0.9707 O   0  0  0  0  0  0  0  0  0  0  0  0
  -39.5299   27.4498   -2.1798 C   0  0  0  0  0  0  0  0  0  0  0  0
  -38.4076   27.5276   -3.0802 O   0  0  0  0  0  0  0  0  0  0  0  0
  -33.6997   32.5279    1.8592 O   0  0  0  0  0  0  0  0  0  0  0  0
  -33.2322   31.4903    1.4160 C   0  0  0  0  0  0  0  0  0  0  0  0
  -31.8265   30.9756    1.6612 C   0  0  0  0  0  0  0  0  0  0  0  0
  -31.8192   29.6647    0.9158 C   0  0  0  0  0  0  0  0  0  0  0  0
  -30.7503   28.7818    0.8328 C   0  0  0  0  0  0  0  0  0  0  0  0
  -30.9214   27.6175    0.0919 C   0  0  0  0  0  0  0  0  0  0  0  0
  -29.9079   26.7470   -0.0049 F   0  0  0  0  0  0  0  0  0  0  0  0
  -32.1279   27.3355   -0.5542 C   0  0  0  0  0  0  0  0  0  0  0  0
  -33.2017   28.2281   -0.4675 C   0  0  0  0  0  0  0  0  0  0  0  0
  -33.0458   29.3936    0.2708 C   0  0  0  0  0  0  0  0  0  0  0  0
  -33.9648   30.5037    0.5466 C   0  0  0  0  0  0  0  0  0  0  0  0
  -35.2279   30.7655    0.1776 C   0  0  0  0  0  0  0  0  0  0  0  0
  -37.9444   29.9031    0.9989 C   0  0  0  0  0  0  0  0  0  0  0  0
  -38.0363   31.0393    1.4209 O   0  0  0  0  0  0  0  0  0  0  0  0
  -38.3420   28.8345    1.7109 O   0  0  0  0  0  0  0  0  0  0  0  0
  -38.2551   27.9734    1.3517 H   0  0  0  0  0  0  0  0  0  0  0  0
 10 11  2  0
 11 12  1  0
 12 13  1  0
 13 14  2  0
 14 15  1  0
 15 16  1  0
 15 17  2  0
 17 18  1  0
 18 19  2  0
 19 20  1  0
 20 21  2  0
 21  1  1  0
  1  2  2  0
  2  3  1  0
  3  4  2  0
  4  5  1  0
  5  6  2  0
  6 22  1  0
 22 23  2  0
 22 24  1  0
  5  7  1  0
  7  8  1  0
  8  9  1  0
 20 11  1  0
  6  1  1  0
 19 13  1  0
  9  4  1  0
 24 25  1  0
M  END
> <minimizedAffinity>
-7.78367

> <CNNscore>
0.7022573948

> <CNNaffinity>
4.6156134605

> <CNN_VS>
3.2413487434

> <CNNaffinity_variance>
0.3777379096

$$$$



 25 28  0  0  0  0  0  0  0  0999 V2000
  -34.1588   32.5441   -0.8845 C   0  0  0  0  0  0  0  0  0  0  0  0
  -34.3436   31.1993   -0.4912 C   0  0  0  0  0  0  0  0  0  0  0  0
  -33.5758   30.6393    0.5340 C   0  0  0  0  0  0  0  0  0  0  0  0
  -32.6349   31.4404    1.1456 C   0  0  0  0  0  0  0  0  0  0  0  0
  -32.4356   32.7508    0.7751 C   0  0  0  0  0  0  0  0  0  0  0  0
  -33.1786   33.3257   -0.2424 C   0  0  0  0  0  0  0  0  0  0  0  0
  -31.4771   33.3497    1.5363 O   0  0  0  0  0  0  0  0  0  0  0  0
  -31.0703   32.2625    2.3897 C   0  0  0  0  0  0  0  0  0  0  0  0
  -31.8208   31.0533    2.1641 O   0  0  0  0  0  0  0  0  0  0  0  0
  -36.5498   34.2172   -4.0963 O   0  0  0  0  0  0  0  0  0  0  0  0
  -36.6949   33.0560   -3.7465 C   0  0  0  0  0  0  0  0  0  0  0  0
  -37.6801   32.0678   -4.3411 C   0  0  0  0  0  0  0  0  0  0  0  0
  -37.3972   30.8084   -3.5614 C   0  0  0  0  0  0  0  0  0  0  0  0
  -38.0351   29.5863   -3.7301 C   0  0  0  0  0  0  0  0  0  0  0  0
  -37.6480   28.5297   -2.9132 C   0  0  0  0  0  0  0  0  0  0  0  0
  -38.2452   27.3389   -3.0541 F   0  0  0  0  0  0  0  0  0  0  0  0
  -36.6492   28.6827   -1.9480 C   0  0  0  0  0  0  0  0  0  0  0  0
  -36.0095   29.9158   -1.7819 C   0  0  0  0  0  0  0  0  0  0  0  0
  -36.3844   30.9791   -2.5923 C   0  0  0  0  0  0  0  0  0  0  0  0
  -35.9120   32.3666   -2.6612 C   0  0  0  0  0  0  0  0  0  0  0  0
  -34.9919   33.0603   -1.9740 C   0  0  0  0  0  0  0  0  0  0  0  0
  -32.9586   34.7313   -0.6062 C   0  0  0  0  0  0  0  0  0  0  0  0
  -32.3181   35.1413   -1.5544 O   0  0  0  0  0  0  0  0  0  0  0  0
  -33.5233   35.5551    0.2936 O   0  0  0  0  0  0  0  0  0  0  0  0
  -34.0101   35.2013    1.0119 H   0  0  0  0  0  0  0  0  0  0  0  0
 10 11  2  0
 11 12  1  0
 12 13  1  0
 13 14  2  0
 14 15  1  0
 15 16  1  0
 15 17  2  0
 17 18  1  0
 18 19  2  0
 19 20  1  0
 20 21  2  0
 21  1  1  0
  1  2  2  0
  2  3  1  0
  3  4  2  0
  4  5  1  0
  5  6  2  0
  6 22  1  0
 22 23  2  0
 22 24  1  0
  5  7  1  0
  7  8  1  0
  8  9  1  0
 20 11  1  0
  6  1  1  0
 19 13  1  0
  9  4  1  0
 24 25  1  0
M  END
> <minimizedAffinity>
-7.15676

> <CNNscore>
0.6585685015

> <CNNaffinity>
4.2886791229

> <CNN_VS>
2.8243889809

> <CNNaffinity_variance>
0.2383936644

$$$$



 25 28  0  0  0  0  0  0  0  0999 V2000
  -33.9037   32.5682    0.8094 C   0  0  0  0  0  0  0  0  0  0  0  0
  -35.1281   31.9055    1.0521 C   0  0  0  0  0  0  0  0  0  0  0  0
  -36.3453   32.4930    0.6952 C   0  0  0  0  0  0  0  0  0  0  0  0
  -36.3108   33.7368    0.1012 C   0  0  0  0  0  0  0  0  0  0  0  0
  -35.1301   34.4015   -0.1400 C   0  0  0  0  0  0  0  0  0  0  0  0
  -33.9123   33.8433    0.2111 C   0  0  0  0  0  0  0  0  0  0  0  0
  -35.3419   35.5969   -0.7588 O   0  0  0  0  0  0  0  0  0  0  0  0
  -36.7802   35.6262   -0.8377 C   0  0  0  0  0  0  0  0  0  0  0  0
  -37.4009   34.4349   -0.3165 O   0  0  0  0  0  0  0  0  0  0  0  0
  -30.2032   30.7133    2.1120 O   0  0  0  0  0  0  0  0  0  0  0  0
  -30.9833   30.1143    1.3879 C   0  0  0  0  0  0  0  0  0  0  0  0
  -30.7948   28.7071    0.8540 C   0  0  0  0  0  0  0  0  0  0  0  0
  -32.0600   28.4800    0.0654 C   0  0  0  0  0  0  0  0  0  0  0  0
  -32.3910   27.3220   -0.6262 C   0  0  0  0  0  0  0  0  0  0  0  0
  -33.6029   27.2924   -1.3075 C   0  0  0  0  0  0  0  0  0  0  0  0
  -33.9489   26.1883   -1.9825 F   0  0  0  0  0  0  0  0  0  0  0  0
  -34.4682   28.3895   -1.3035 C   0  0  0  0  0  0  0  0  0  0  0  0
  -34.1303   29.5538   -0.6052 C   0  0  0  0  0  0  0  0  0  0  0  0
  -32.9242   29.5966    0.0815 C   0  0  0  0  0  0  0  0  0  0  0  0
  -32.2994   30.6493    0.8905 C   0  0  0  0  0  0  0  0  0  0  0  0
  -32.6676   31.8966    1.2202 C   0  0  0  0  0  0  0  0  0  0  0  0
  -32.6658   34.5656   -0.0736 C   0  0  0  0  0  0  0  0  0  0  0  0
  -31.8781   34.9992    0.7442 O   0  0  0  0  0  0  0  0  0  0  0  0
  -32.5088   34.7511   -1.3958 O   0  0  0  0  0  0  0  0  0  0  0  0
  -33.1377   34.4014   -1.9959 H   0  0  0  0  0  0  0  0  0  0  0  0
 10 11  2  0
 11 12  1  0
 12 13  1  0
 13 14  2  0
 14 15  1  0
 15 16  1  0
 15 17  2  0
 17 18  1  0
 18 19  2  0
 19 20  1  0
 20 21  2  0
 21  1  1  0
  1  2  2  0
  2  3  1  0
  3  4  2  0
  4  5  1  0
  5  6  2  0
  6 22  1  0
 22 23  2  0
 22 24  1  0
  5  7  1  0
  7  8  1  0
  8  9  1  0
 20 11  1  0
  6  1  1  0
 19 13  1  0
  9  4  1  0
 24 25  1  0
M  END
> <minimizedAffinity>
-8.96299

> <CNNscore>
0.6324626207

> <CNNaffinity>
4.6206388474

> <CNN_VS>
2.9223814011

> <CNNaffinity_variance>
0.4919315279

$$$$



 25 28  0  0  0  0  0  0  0  0999 V2000
  -34.7361   30.0045    0.6665 C   0  0  0  0  0  0  0  0  0  0  0  0
  -34.0285   28.8777    1.1429 C   0  0  0  0  0  0  0  0  0  0  0  0
  -32.7168   28.9988    1.6105 C   0  0  0  0  0  0  0  0  0  0  0  0
  -32.1386   30.2503    1.5905 C   0  0  0  0  0  0  0  0  0  0  0  0
  -32.8079   31.3597    1.1266 C   0  0  0  0  0  0  0  0  0  0  0  0
  -34.1052   31.2638    0.6516 C   0  0  0  0  0  0  0  0  0  0  0  0
  -32.0485   32.4865    1.2299 O   0  0  0  0  0  0  0  0  0  0  0  0
  -30.8212   31.9549    1.7656 C   0  0  0  0  0  0  0  0  0  0  0  0
  -30.8811   30.5382    2.0216 O   0  0  0  0  0  0  0  0  0  0  0  0
  -38.8409   29.4890   -0.6435 O   0  0  0  0  0  0  0  0  0  0  0  0
  -37.9161   28.9992   -1.2732 C   0  0  0  0  0  0  0  0  0  0  0  0
  -38.0446   28.1757   -2.5405 C   0  0  0  0  0  0  0  0  0  0  0  0
  -36.6080   27.8750   -2.8870 C   0  0  0  0  0  0  0  0  0  0  0  0
  -36.1715   27.1445   -3.9846 C   0  0  0  0  0  0  0  0  0  0  0  0
  -34.8024   26.9599   -4.1431 C   0  0  0  0  0  0  0  0  0  0  0  0
  -34.3522   26.2604   -5.1931 F   0  0  0  0  0  0  0  0  0  0  0  0
  -33.8852   27.4881   -3.2307 C   0  0  0  0  0  0  0  0  0  0  0  0
  -34.3300   28.2233   -2.1266 C   0  0  0  0  0  0  0  0  0  0  0  0
  -35.6943   28.4176   -1.9570 C   0  0  0  0  0  0  0  0  0  0  0  0
  -36.4574   29.1278   -0.9244 C   0  0  0  0  0  0  0  0  0  0  0  0
  -36.1038   29.8003    0.1814 C   0  0  0  0  0  0  0  0  0  0  0  0
  -34.8034   32.4661    0.1790 C   0  0  0  0  0  0  0  0  0  0  0  0
  -35.0807   32.7355   -0.9734 O   0  0  0  0  0  0  0  0  0  0  0  0
  -35.0681   33.3007    1.1990 O   0  0  0  0  0  0  0  0  0  0  0  0
  -34.8393   33.0579    2.0745 H   0  0  0  0  0  0  0  0  0  0  0  0
 10 11  2  0
 11 12  1  0
 12 13  1  0
 13 14  2  0
 14 15  1  0
 15 16  1  0
 15 17  2  0
 17 18  1  0
 18 19  2  0
 19 20  1  0
 20 21  2  0
 21  1  1  0
  1  2  2  0
  2  3  1  0
  3  4  2  0
  4  5  1  0
  5  6  2  0
  6 22  1  0
 22 23  2  0
 22 24  1  0
  5  7  1  0
  7  8  1  0
  8  9  1  0
 20 11  1  0
  6  1  1  0
 19 13  1  0
  9  4  1  0
 24 25  1  0
M  END
> <minimizedAffinity>
-7.30016

> <CNNscore>
0.5359544754

> <CNNaffinity>
4.6822838783

> <CNN_VS>
2.5094909668

> <CNNaffinity_variance>
0.1420197487

$$$$
