


 18 20  0  0  0  0  0  0  0  0999 V2000
    8.1569   82.6692    3.5161 O   0  0  0  0  0  0  0  0  0  0  0  0
    8.1303   82.3330    2.3366 C   0  0  0  0  0  0  0  0  0  0  0  0
    9.2438   81.8186    1.7248 N   0  0  0  0  0  0  0  0  0  0  0  0
    9.2556   81.4319    0.4120 C   0  0  0  0  0  0  0  0  0  0  0  0
   10.7401   80.8122   -0.1772 Cl  0  0  0  0  0  0  0  0  0  0  0  0
    8.2560   81.4937   -0.4091 N   0  0  0  0  0  0  0  0  0  0  0  0
    7.0703   82.0124    0.1427 C   0  0  0  0  0  0  0  0  0  0  0  0
    7.0092   82.4117    1.4477 C   0  0  0  0  0  0  0  0  0  0  0  0
    5.4923   82.9947    1.8774 S   0  0  0  0  0  0  0  0  0  0  0  0
    4.8565   82.7211    0.2829 C   0  0  0  0  0  0  0  0  0  0  0  0
    3.5422   82.9837   -0.1760 C   0  0  0  0  0  0  0  0  0  0  0  0
    2.3317   83.6505    0.8581 Cl  0  0  0  0  0  0  0  0  0  0  0  0
    3.1977   82.7010   -1.5001 C   0  0  0  0  0  0  0  0  0  0  0  0
    4.1352   82.1653   -2.3671 C   0  0  0  0  0  0  0  0  0  0  0  0
    5.4283   81.9087   -1.9100 C   0  0  0  0  0  0  0  0  0  0  0  0
    6.5831   81.2459   -2.9878 Cl  0  0  0  0  0  0  0  0  0  0  0  0
    5.8362   82.1751   -0.5755 C   0  0  0  0  0  0  0  0  0  0  0  0
   10.0699   81.7234    2.2519 H   0  0  0  0  0  0  0  0  0  0  0  0
  1  2  2  0
  2  3  1  0
  3  4  1  0
  4  5  1  0
  4  6  2  0
  6  7  1  0
  7  8  2  0
  8  9  1  0
  9 10  1  0
 10 11  2  0
 11 12  1  0
 11 13  1  0
 13 14  2  0
 14 15  1  0
 15 16  1  0
 15 17  2  0
  8  2  1  0
 17 10  1  0
 17  7  1  0
  3 18  1  0
M  END
> <minimizedAffinity>
-8.38433

> <CNNscore>
0.9094581604

> <CNNaffinity>
7.0027709007

> <CNN_VS>
6.3687272072

> <CNNaffinity_variance>
0.0642083511

$$$$



 18 20  0  0  0  0  0  0  0  0999 V2000
   10.9703   80.8042   -0.2120 O   0  0  0  0  0  0  0  0  0  0  0  0
    9.9159   80.9232   -0.8277 C   0  0  0  0  0  0  0  0  0  0  0  0
    9.8178   80.5370   -2.1392 N   0  0  0  0  0  0  0  0  0  0  0  0
    8.6608   80.6530   -2.8608 C   0  0  0  0  0  0  0  0  0  0  0  0
    8.7304   80.1173   -4.4866 Cl  0  0  0  0  0  0  0  0  0  0  0  0
    7.5361   81.1257   -2.4260 N   0  0  0  0  0  0  0  0  0  0  0  0
    7.5525   81.5461   -1.0835 C   0  0  0  0  0  0  0  0  0  0  0  0
    8.6830   81.4504   -0.3226 C   0  0  0  0  0  0  0  0  0  0  0  0
    8.4593   82.0137    1.2452 S   0  0  0  0  0  0  0  0  0  0  0  0
    6.7952   82.4130    0.9409 C   0  0  0  0  0  0  0  0  0  0  0  0
    5.8659   82.9775    1.8489 C   0  0  0  0  0  0  0  0  0  0  0  0
    6.2990   83.3633    3.4746 Cl  0  0  0  0  0  0  0  0  0  0  0  0
    4.5569   83.2361    1.4346 C   0  0  0  0  0  0  0  0  0  0  0  0
    4.1629   82.9433    0.1398 C   0  0  0  0  0  0  0  0  0  0  0  0
    5.0823   82.3874   -0.7506 C   0  0  0  0  0  0  0  0  0  0  0  0
    4.5882   82.0277   -2.3509 Cl  0  0  0  0  0  0  0  0  0  0  0  0
    6.4256   82.1026   -0.3865 C   0  0  0  0  0  0  0  0  0  0  0  0
   10.6131   80.1603   -2.5806 H   0  0  0  0  0  0  0  0  0  0  0  0
  1  2  2  0
  2  3  1  0
  3  4  1  0
  4  5  1  0
  4  6  2  0
  6  7  1  0
  7  8  2  0
  8  9  1  0
  9 10  1  0
 10 11  2  0
 11 12  1  0
 11 13  1  0
 13 14  2  0
 14 15  1  0
 15 16  1  0
 15 17  2  0
  8  2  1  0
 17 10  1  0
 17  7  1  0
  3 18  1  0
M  END
> <minimizedAffinity>
-8.16939

> <CNNscore>
0.8841443062

> <CNNaffinity>
7.0552773476

> <CNN_VS>
6.2378830910

> <CNNaffinity_variance>
0.0803554058

$$$$



 18 20  0  0  0  0  0  0  0  0999 V2000
    8.1765   80.5752   -3.8492 O   0  0  0  0  0  0  0  0  0  0  0  0
    8.3363   80.8601   -2.6667 C   0  0  0  0  0  0  0  0  0  0  0  0
    9.5415   80.6515   -2.0479 N   0  0  0  0  0  0  0  0  0  0  0  0
    9.7606   80.9555   -0.7317 C   0  0  0  0  0  0  0  0  0  0  0  0
   11.3315   80.6243   -0.1337 Cl  0  0  0  0  0  0  0  0  0  0  0  0
    8.8952   81.4640    0.0868 N   0  0  0  0  0  0  0  0  0  0  0  0
    7.6277   81.7094   -0.4722 C   0  0  0  0  0  0  0  0  0  0  0  0
    7.3607   81.4228   -1.7810 C   0  0  0  0  0  0  0  0  0  0  0  0
    5.7828   81.8016   -2.2191 S   0  0  0  0  0  0  0  0  0  0  0  0
    5.4017   82.3763   -0.6236 C   0  0  0  0  0  0  0  0  0  0  0  0
    4.1657   82.8993   -0.1698 C   0  0  0  0  0  0  0  0  0  0  0  0
    2.7974   83.0396   -1.2125 Cl  0  0  0  0  0  0  0  0  0  0  0  0
    4.0320   83.3186    1.1562 C   0  0  0  0  0  0  0  0  0  0  0  0
    5.1022   83.2254    2.0300 C   0  0  0  0  0  0  0  0  0  0  0  0
    6.3173   82.7095    1.5779 C   0  0  0  0  0  0  0  0  0  0  0  0
    7.6372   82.5971    2.6641 Cl  0  0  0  0  0  0  0  0  0  0  0  0
    6.5126   82.2678    0.2418 C   0  0  0  0  0  0  0  0  0  0  0  0
   10.2806   80.2668   -2.5724 H   0  0  0  0  0  0  0  0  0  0  0  0
  1  2  2  0
  2  3  1  0
  3  4  1  0
  4  5  1  0
  4  6  2  0
  6  7  1  0
  7  8  2  0
  8  9  1  0
  9 10  1  0
 10 11  2  0
 11 12  1  0
 11 13  1  0
 13 14  2  0
 14 15  1  0
 15 16  1  0
 15 17  2  0
  8  2  1  0
 17 10  1  0
 17  7  1  0
  3 18  1  0
M  END
> <minimizedAffinity>
-7.28769

> <CNNscore>
0.7983379960

> <CNNaffinity>
6.9827361107

> <CNN_VS>
5.5745835304

> <CNNaffinity_variance>
0.1297910810

$$$$



 18 20  0  0  0  0  0  0  0  0999 V2000
    8.7063   81.7977    3.6790 O   0  0  0  0  0  0  0  0  0  0  0  0
    8.3920   81.7561    2.4939 C   0  0  0  0  0  0  0  0  0  0  0  0
    9.2991   81.3825    1.5366 N   0  0  0  0  0  0  0  0  0  0  0  0
    8.9885   81.3233    0.2051 C   0  0  0  0  0  0  0  0  0  0  0  0
   10.2532   80.8348   -0.8422 Cl  0  0  0  0  0  0  0  0  0  0  0  0
    7.8383   81.6006   -0.3218 N   0  0  0  0  0  0  0  0  0  0  0  0
    6.8480   81.9942    0.5969 C   0  0  0  0  0  0  0  0  0  0  0  0
    7.1099   82.0685    1.9356 C   0  0  0  0  0  0  0  0  0  0  0  0
    5.7753   82.5604    2.8312 S   0  0  0  0  0  0  0  0  0  0  0  0
    4.7809   82.6915    1.4116 C   0  0  0  0  0  0  0  0  0  0  0  0
    3.4209   83.0825    1.3469 C   0  0  0  0  0  0  0  0  0  0  0  0
    2.5253   83.5042    2.7608 Cl  0  0  0  0  0  0  0  0  0  0  0  0
    2.7693   83.1340    0.1121 C   0  0  0  0  0  0  0  0  0  0  0  0
    3.4467   82.8046   -1.0499 C   0  0  0  0  0  0  0  0  0  0  0  0
    4.7862   82.4201   -0.9805 C   0  0  0  0  0  0  0  0  0  0  0  0
    5.6183   82.0140   -2.4218 Cl  0  0  0  0  0  0  0  0  0  0  0  0
    5.5006   82.3492    0.2455 C   0  0  0  0  0  0  0  0  0  0  0  0
   10.2124   81.1470    1.8187 H   0  0  0  0  0  0  0  0  0  0  0  0
  1  2  2  0
  2  3  1  0
  3  4  1  0
  4  5  1  0
  4  6  2  0
  6  7  1  0
  7  8  2  0
  8  9  1  0
  9 10  1  0
 10 11  2  0
 11 12  1  0
 11 13  1  0
 13 14  2  0
 14 15  1  0
 15 16  1  0
 15 17  2  0
  8  2  1  0
 17 10  1  0
 17  7  1  0
  3 18  1  0
M  END
> <minimizedAffinity>
-7.99035

> <CNNscore>
0.7172623873

> <CNNaffinity>
6.7306265831

> <CNN_VS>
4.8276252747

> <CNNaffinity_variance>
0.0279394537

$$$$



 18 20  0  0  0  0  0  0  0  0999 V2000
    9.6718   81.3555    0.1972 O   0  0  0  0  0  0  0  0  0  0  0  0
    8.4869   81.6458    0.0677 C   0  0  0  0  0  0  0  0  0  0  0  0
    7.9062   81.7013   -1.1726 N   0  0  0  0  0  0  0  0  0  0  0  0
    6.5887   82.0208   -1.3599 C   0  0  0  0  0  0  0  0  0  0  0  0
    6.0417   82.0395   -2.9833 Cl  0  0  0  0  0  0  0  0  0  0  0  0
    5.7344   82.3056   -0.4291 N   0  0  0  0  0  0  0  0  0  0  0  0
    6.2528   82.2709    0.8784 C   0  0  0  0  0  0  0  0  0  0  0  0
    7.5611   81.9574    1.1159 C   0  0  0  0  0  0  0  0  0  0  0  0
    7.9469   81.9804    2.7517 S   0  0  0  0  0  0  0  0  0  0  0  0
    6.3272   82.4234    3.2009 C   0  0  0  0  0  0  0  0  0  0  0  0
    5.8271   82.6463    4.5074 C   0  0  0  0  0  0  0  0  0  0  0  0
    6.8289   82.4959    5.9049 Cl  0  0  0  0  0  0  0  0  0  0  0  0
    4.4875   82.9987    4.6894 C   0  0  0  0  0  0  0  0  0  0  0  0
    3.6452   83.1314    3.5982 C   0  0  0  0  0  0  0  0  0  0  0  0
    4.1429   82.9106    2.3135 C   0  0  0  0  0  0  0  0  0  0  0  0
    3.0956   83.0765    0.9681 Cl  0  0  0  0  0  0  0  0  0  0  0  0
    5.4948   82.5504    2.0669 C   0  0  0  0  0  0  0  0  0  0  0  0
    8.4601   81.5029   -1.9620 H   0  0  0  0  0  0  0  0  0  0  0  0
  1  2  2  0
  2  3  1  0
  3  4  1  0
  4  5  1  0
  4  6  2  0
  6  7  1  0
  7  8  2  0
  8  9  1  0
  9 10  1  0
 10 11  2  0
 11 12  1  0
 11 13  1  0
 13 14  2  0
 14 15  1  0
 15 16  1  0
 15 17  2  0
  8  2  1  0
 17 10  1  0
 17  7  1  0
  3 18  1  0
M  END
> <minimizedAffinity>
-7.28710

> <CNNscore>
0.6403371096

> <CNNaffinity>
6.5611271858

> <CNN_VS>
4.2013330460

> <CNNaffinity_variance>
0.0163123477

$$$$



 18 20  0  0  0  0  0  0  0  0999 V2000
    6.4296   82.1595   -2.5448 O   0  0  0  0  0  0  0  0  0  0  0  0
    6.9999   82.0365   -1.4657 C   0  0  0  0  0  0  0  0  0  0  0  0
    8.3066   81.6276   -1.4014 N   0  0  0  0  0  0  0  0  0  0  0  0
    8.9786   81.4781   -0.2186 C   0  0  0  0  0  0  0  0  0  0  0  0
   10.6065   80.9580   -0.3378 Cl  0  0  0  0  0  0  0  0  0  0  0  0
    8.4959   81.6930    0.9639 N   0  0  0  0  0  0  0  0  0  0  0  0
    7.1547   82.1173    0.9856 C   0  0  0  0  0  0  0  0  0  0  0  0
    6.4425   82.2811   -0.1686 C   0  0  0  0  0  0  0  0  0  0  0  0
    4.8658   82.7933    0.1093 S   0  0  0  0  0  0  0  0  0  0  0  0
    5.0989   82.8108    1.8317 C   0  0  0  0  0  0  0  0  0  0  0  0
    4.1516   83.1622    2.8246 C   0  0  0  0  0  0  0  0  0  0  0  0
    2.5453   83.6478    2.4208 Cl  0  0  0  0  0  0  0  0  0  0  0  0
    4.5098   83.1206    4.1744 C   0  0  0  0  0  0  0  0  0  0  0  0
    5.7872   82.7371    4.5470 C   0  0  0  0  0  0  0  0  0  0  0  0
    6.7164   82.3920    3.5649 C   0  0  0  0  0  0  0  0  0  0  0  0
    8.2949   81.9186    4.0328 Cl  0  0  0  0  0  0  0  0  0  0  0  0
    6.4099   82.4154    2.1779 C   0  0  0  0  0  0  0  0  0  0  0  0
    8.7817   81.4332   -2.2415 H   0  0  0  0  0  0  0  0  0  0  0  0
  1  2  2  0
  2  3  1  0
  3  4  1  0
  4  5  1  0
  4  6  2  0
  6  7  1  0
  7  8  2  0
  8  9  1  0
  9 10  1  0
 10 11  2  0
 11 12  1  0
 11 13  1  0
 13 14  2  0
 14 15  1  0
 15 16  1  0
 15 17  2  0
  8  2  1  0
 17 10  1  0
 17  7  1  0
  3 18  1  0
M  END
> <minimizedAffinity>
-7.32075

> <CNNscore>
0.5958241820

> <CNNaffinity>
6.5712265968

> <CNN_VS>
3.9152956009

> <CNNaffinity_variance>
0.1392096728

$$$$



 18 20  0  0  0  0  0  0  0  0999 V2000
    4.8027   82.1722   -2.8025 O   0  0  0  0  0  0  0  0  0  0  0  0
    5.6771   82.0424   -1.9520 C   0  0  0  0  0  0  0  0  0  0  0  0
    6.9382   81.6289   -2.2948 N   0  0  0  0  0  0  0  0  0  0  0  0
    7.9412   81.4717   -1.3771 C   0  0  0  0  0  0  0  0  0  0  0  0
    9.4509   80.9469   -1.9938 Cl  0  0  0  0  0  0  0  0  0  0  0  0
    7.8473   81.6826   -0.1027 N   0  0  0  0  0  0  0  0  0  0  0  0
    6.5800   82.1112    0.3327 C   0  0  0  0  0  0  0  0  0  0  0  0
    5.5475   82.2826   -0.5454 C   0  0  0  0  0  0  0  0  0  0  0  0
    4.1355   82.7986    0.2065 S   0  0  0  0  0  0  0  0  0  0  0  0
    4.8880   82.8073    1.7734 C   0  0  0  0  0  0  0  0  0  0  0  0
    4.2943   83.1571    3.0111 C   0  0  0  0  0  0  0  0  0  0  0  0
    2.6439   83.6498    3.1235 Cl  0  0  0  0  0  0  0  0  0  0  0  0
    5.0507   83.1080    4.1847 C   0  0  0  0  0  0  0  0  0  0  0  0
    6.3790   82.7187    4.1442 C   0  0  0  0  0  0  0  0  0  0  0  0
    6.9589   82.3751    2.9225 C   0  0  0  0  0  0  0  0  0  0  0  0
    8.6026   81.8944    2.8796 Cl  0  0  0  0  0  0  0  0  0  0  0  0
    6.2401   82.4060    1.6975 C   0  0  0  0  0  0  0  0  0  0  0  0
    7.1305   81.4369   -3.2411 H   0  0  0  0  0  0  0  0  0  0  0  0
  1  2  2  0
  2  3  1  0
  3  4  1  0
  4  5  1  0
  4  6  2  0
  6  7  1  0
  7  8  2  0
  8  9  1  0
  9 10  1  0
 10 11  2  0
 11 12  1  0
 11 13  1  0
 13 14  2  0
 14 15  1  0
 15 16  1  0
 15 17  2  0
  8  2  1  0
 17 10  1  0
 17  7  1  0
  3 18  1  0
M  END
> <minimizedAffinity>
-7.53202

> <CNNscore>
0.5244560242

> <CNNaffinity>
6.4521965981

> <CNN_VS>
3.3838934898

> <CNNaffinity_variance>
0.3480149209

$$$$



 18 20  0  0  0  0  0  0  0  0999 V2000
    9.6557   81.5426    0.5705 O   0  0  0  0  0  0  0  0  0  0  0  0
    8.9453   81.3377    1.5495 C   0  0  0  0  0  0  0  0  0  0  0  0
    9.4538   80.7508    2.6790 N   0  0  0  0  0  0  0  0  0  0  0  0
    8.6955   80.5051    3.7915 C   0  0  0  0  0  0  0  0  0  0  0  0
    9.5057   79.7642    5.1066 Cl  0  0  0  0  0  0  0  0  0  0  0  0
    7.4379   80.7807    3.9320 N   0  0  0  0  0  0  0  0  0  0  0  0
    6.8382   81.3874    2.8132 C   0  0  0  0  0  0  0  0  0  0  0  0
    7.5537   81.6527    1.6800 C   0  0  0  0  0  0  0  0  0  0  0  0
    6.6250   82.3781    0.4815 S   0  0  0  0  0  0  0  0  0  0  0  0
    5.1982   82.3569    1.4741 C   0  0  0  0  0  0  0  0  0  0  0  0
    3.9075   82.8331    1.1358 C   0  0  0  0  0  0  0  0  0  0  0  0
    3.5706   83.5388   -0.4029 Cl  0  0  0  0  0  0  0  0  0  0  0  0
    2.8654   82.7372    2.0614 C   0  0  0  0  0  0  0  0  0  0  0  0
    3.0877   82.1786    3.3088 C   0  0  0  0  0  0  0  0  0  0  0  0
    4.3609   81.7111    3.6369 C   0  0  0  0  0  0  0  0  0  0  0  0
    4.6290   81.0211    5.1817 Cl  0  0  0  0  0  0  0  0  0  0  0  0
    5.4584   81.7818    2.7376 C   0  0  0  0  0  0  0  0  0  0  0  0
   10.4045   80.4952    2.6905 H   0  0  0  0  0  0  0  0  0  0  0  0
  1  2  2  0
  2  3  1  0
  3  4  1  0
  4  5  1  0
  4  6  2  0
  6  7  1  0
  7  8  2  0
  8  9  1  0
  9 10  1  0
 10 11  2  0
 11 12  1  0
 11 13  1  0
 13 14  2  0
 14 15  1  0
 15 16  1  0
 15 17  2  0
  8  2  1  0
 17 10  1  0
 17  7  1  0
  3 18  1  0
M  END
> <minimizedAffinity>
-6.73119

> <CNNscore>
0.4922367632

> <CNNaffinity>
6.6602044106

> <CNN_VS>
3.2783975601

> <CNNaffinity_variance>
0.1619033664

$$$$



 18 20  0  0  0  0  0  0  0  0999 V2000
    3.1670   82.5756   -1.7219 O   0  0  0  0  0  0  0  0  0  0  0  0
    4.3345   82.3262   -1.4399 C   0  0  0  0  0  0  0  0  0  0  0  0
    5.2132   81.8897   -2.3970 N   0  0  0  0  0  0  0  0  0  0  0  0
    6.5227   81.6008   -2.1237 C   0  0  0  0  0  0  0  0  0  0  0  0
    7.4689   81.0681   -3.4488 Cl  0  0  0  0  0  0  0  0  0  0  0  0
    7.0979   81.6945   -0.9670 N   0  0  0  0  0  0  0  0  0  0  0  0
    6.2613   82.1376    0.0737 C   0  0  0  0  0  0  0  0  0  0  0  0
    4.9476   82.4382   -0.1497 C   0  0  0  0  0  0  0  0  0  0  0  0
    4.1524   82.9450    1.2418 S   0  0  0  0  0  0  0  0  0  0  0  0
    5.5854   82.7713    2.2102 C   0  0  0  0  0  0  0  0  0  0  0  0
    5.7237   83.0294    3.5962 C   0  0  0  0  0  0  0  0  0  0  0  0
    4.4012   83.5843    4.5566 Cl  0  0  0  0  0  0  0  0  0  0  0  0
    6.9582   82.8352    4.2208 C   0  0  0  0  0  0  0  0  0  0  0  0
    8.0483   82.3911    3.4914 C   0  0  0  0  0  0  0  0  0  0  0  0
    7.9066   82.1383    2.1264 C   0  0  0  0  0  0  0  0  0  0  0  0
    9.2592   81.5890    1.2300 Cl  0  0  0  0  0  0  0  0  0  0  0  0
    6.6772   82.3175    1.4375 C   0  0  0  0  0  0  0  0  0  0  0  0
    4.8887   81.7793   -3.3199 H   0  0  0  0  0  0  0  0  0  0  0  0
  1  2  2  0
  2  3  1  0
  3  4  1  0
  4  5  1  0
  4  6  2  0
  6  7  1  0
  7  8  2  0
  8  9  1  0
  9 10  1  0
 10 11  2  0
 11 12  1  0
 11 13  1  0
 13 14  2  0
 14 15  1  0
 15 16  1  0
 15 17  2  0
  8  2  1  0
 17 10  1  0
 17  7  1  0
  3 18  1  0
M  END
> <minimizedAffinity>
-7.40403

> <CNNscore>
0.4911952615

> <CNNaffinity>
6.3486018181

> <CNN_VS>
3.1184031963

> <CNNaffinity_variance>
0.2857758701

$$$$
