


 39 46  0  0  0  0  0  0  0  0999 V2000
    3.1677    3.5825   15.1074 C   0  0  0  0  0  0  0  0  0  0  0  0
    2.3967    4.4266   16.1305 C   0  0  0  0  0  0  0  0  0  0  0  0
    3.1740    4.5875   17.4431 C   0  0  0  0  0  0  0  0  0  0  0  0
    4.3822    3.8333   17.5136 O   0  0  0  0  0  0  0  0  0  0  0  0
    5.3064    3.9330   16.4018 C   0  0  0  0  0  0  0  0  0  0  0  0
    5.9319    2.5192   16.4536 C   0  0  0  0  0  0  0  0  0  0  0  0
    4.6064    4.1511   15.0184 C   0  0  0  0  0  0  0  0  0  0  0  0
    6.2862    4.9954   16.6962 N   0  0  0  0  0  0  0  0  0  0  0  0
    7.6066    5.1023   16.2599 C   0  0  0  0  0  0  0  0  0  0  0  0
    8.4001    4.2991   15.4185 C   0  0  0  0  0  0  0  0  0  0  0  0
    9.7337    4.6566   15.1927 C   0  0  0  0  0  0  0  0  0  0  0  0
   10.2758    5.7943   15.7710 C   0  0  0  0  0  0  0  0  0  0  0  0
    9.4858    6.6160   16.5755 C   0  0  0  0  0  0  0  0  0  0  0  0
    8.1352    6.2817   16.8198 C   0  0  0  0  0  0  0  0  0  0  0  0
    7.0818    6.9457   17.5061 C   0  0  0  0  0  0  0  0  0  0  0  0
    6.9061    8.1595   18.1915 C   0  0  0  0  0  0  0  0  0  0  0  0
    5.6321    8.5627   18.6992 C   0  0  0  0  0  0  0  0  0  0  0  0
    4.4465    7.8220   18.5786 C   0  0  0  0  0  0  0  0  0  0  0  0
    3.0631    7.9315   18.9188 C   0  0  0  0  0  0  0  0  0  0  0  0
    2.2786    8.9137   19.5616 C   0  0  0  0  0  0  0  0  0  0  0  0
    0.9068    8.7110   19.7450 C   0  0  0  0  0  0  0  0  0  0  0  0
    0.3004    7.5439   19.2993 C   0  0  0  0  0  0  0  0  0  0  0  0
    1.0453    6.5500   18.6609 C   0  0  0  0  0  0  0  0  0  0  0  0
    2.4242    6.7604   18.4775 C   0  0  0  0  0  0  0  0  0  0  0  0
    3.3934    5.9561   17.8964 N   0  0  0  0  0  0  0  0  0  0  0  0
    4.5894    6.6033   17.9370 C   0  0  0  0  0  0  0  0  0  0  0  0
    5.9692    6.1425   17.3789 C   0  0  0  0  0  0  0  0  0  0  0  0
    5.8192    9.8808   19.3229 C   0  0  0  0  0  0  0  0  0  0  0  0
    4.9878   10.5651   19.8836 O   0  0  0  0  0  0  0  0  0  0  0  0
    7.1393   10.2266   19.1579 N   0  0  0  0  0  0  0  0  0  0  0  0
    7.9133    9.2270   18.5082 C   0  0  0  0  0  0  0  0  0  0  0  0
    8.4653    9.8296   17.3653 O   0  0  0  0  0  0  0  0  0  0  0  0
    7.5133   11.0854   19.4611 H   0  0  0  0  0  0  0  0  0  0  0  0
    7.7560   10.2192   16.8306 H   0  0  0  0  0  0  0  0  0  0  0  0
    3.3492    3.0634   12.7156 C   0  0  0  0  0  0  0  0  0  0  0  0
    2.5009    3.5693   13.7869 N   0  0  0  0  0  0  0  0  0  0  0  0
    1.6717    2.9786   13.8492 H   0  0  0  0  0  0  0  0  0  0  0  0
    4.5069    5.5574   14.7117 O   0  0  0  0  0  0  0  0  0  0  0  0
    5.3254    5.9592   13.6236 C   0  0  0  0  0  0  0  0  0  0  0  0
 35 36  1  0
  1 36  1  0
  1  2  1  0
  3  2  1  0
  3  4  1  0
  4  5  1  0
  5  6  1  0
  5  7  1  0
  7 38  1  0
 38 39  1  0
  5  8  1  0
  8  9  1  0
  9 10  2  0
 10 11  1  0
 11 12  2  0
 12 13  1  0
 13 14  2  0
 14 15  1  0
 15 16  2  0
 16 17  1  0
 17 18  2  0
 18 19  1  0
 19 20  2  0
 20 21  1  0
 21 22  2  0
 22 23  1  0
 23 24  2  0
 24 25  1  0
 25 26  1  0
 26 27  2  0
 17 28  1  0
 28 29  2  0
 28 30  1  0
 30 31  1  0
 31 32  1  0
  7  1  1  0
 27  8  1  0
 25  3  1  0
 14  9  1  0
 27 15  1  0
 31 16  1  0
 26 18  1  0
 24 19  1  0
 36 37  1  0
 30 33  1  0
 32 34  1  0
M  END
> <minimizedAffinity>
-12.89520

> <CNNscore>
0.9956428409

> <CNNaffinity>
8.1541471481

> <CNN_VS>
8.1186180115

> <CNNaffinity_variance>
0.0670566261

$$$$



 39 46  0  0  0  0  0  0  0  0999 V2000
    3.9099    3.8388   13.4657 C   0  0  0  0  0  0  0  0  0  0  0  0
    2.7344    4.1280   14.4082 C   0  0  0  0  0  0  0  0  0  0  0  0
    3.1482    4.0440   15.8830 C   0  0  0  0  0  0  0  0  0  0  0  0
    4.4847    3.5968   16.0998 O   0  0  0  0  0  0  0  0  0  0  0  0
    5.5429    4.2415   15.3481 C   0  0  0  0  0  0  0  0  0  0  0  0
    6.5336    3.0599   15.2245 C   0  0  0  0  0  0  0  0  0  0  0  0
    5.1039    4.7148   13.9217 C   0  0  0  0  0  0  0  0  0  0  0  0
    6.0853    5.3516   16.1535 N   0  0  0  0  0  0  0  0  0  0  0  0
    7.3751    5.8823   16.1412 C   0  0  0  0  0  0  0  0  0  0  0  0
    8.5228    5.5796   15.3837 C   0  0  0  0  0  0  0  0  0  0  0  0
    9.7086    6.2794   15.6319 C   0  0  0  0  0  0  0  0  0  0  0  0
    9.7627    7.2728   16.5979 C   0  0  0  0  0  0  0  0  0  0  0  0
    8.6202    7.6047   17.3266 C   0  0  0  0  0  0  0  0  0  0  0  0
    7.4080    6.9168   17.0965 C   0  0  0  0  0  0  0  0  0  0  0  0
    6.0899    7.0807   17.6037 C   0  0  0  0  0  0  0  0  0  0  0  0
    5.4295    7.9498   18.4883 C   0  0  0  0  0  0  0  0  0  0  0  0
    4.0183    7.8785   18.7045 C   0  0  0  0  0  0  0  0  0  0  0  0
    3.1538    6.9655   18.0820 C   0  0  0  0  0  0  0  0  0  0  0  0
    1.7607    6.6503   18.0404 C   0  0  0  0  0  0  0  0  0  0  0  0
    0.6087    7.1820   18.6597 C   0  0  0  0  0  0  0  0  0  0  0  0
   -0.6498    6.6297   18.3994 C   0  0  0  0  0  0  0  0  0  0  0  0
   -0.7821    5.5536   17.5315 C   0  0  0  0  0  0  0  0  0  0  0  0
    0.3355    5.0009   16.9025 C   0  0  0  0  0  0  0  0  0  0  0  0
    1.5984    5.5619   17.1667 C   0  0  0  0  0  0  0  0  0  0  0  0
    2.8581    5.2169   16.6995 N   0  0  0  0  0  0  0  0  0  0  0  0
    3.7760    6.0708   17.2278 C   0  0  0  0  0  0  0  0  0  0  0  0
    5.3132    6.1282   16.9800 C   0  0  0  0  0  0  0  0  0  0  0  0
    3.6785    8.9447   19.6582 C   0  0  0  0  0  0  0  0  0  0  0  0
    2.5871    9.2161   20.1153 O   0  0  0  0  0  0  0  0  0  0  0  0
    4.8428    9.6118   19.9562 N   0  0  0  0  0  0  0  0  0  0  0  0
    5.9916    9.0639   19.3233 C   0  0  0  0  0  0  0  0  0  0  0  0
    6.5601   10.0991   18.5622 O   0  0  0  0  0  0  0  0  0  0  0  0
    4.8777   10.3950   20.5517 H   0  0  0  0  0  0  0  0  0  0  0  0
    5.8906   10.4655   17.9636 H   0  0  0  0  0  0  0  0  0  0  0  0
    3.2588    2.8694   11.3071 C   0  0  0  0  0  0  0  0  0  0  0  0
    3.5574    4.0866   12.0504 N   0  0  0  0  0  0  0  0  0  0  0  0
    2.7369    4.6919   12.0227 H   0  0  0  0  0  0  0  0  0  0  0  0
    4.6582    6.0868   13.9529 O   0  0  0  0  0  0  0  0  0  0  0  0
    5.4718    6.9642   13.1892 C   0  0  0  0  0  0  0  0  0  0  0  0
 35 36  1  0
  1 36  1  0
  1  2  1  0
  3  2  1  0
  3  4  1  0
  4  5  1  0
  5  6  1  0
  5  7  1  0
  7 38  1  0
 38 39  1  0
  5  8  1  0
  8  9  1  0
  9 10  2  0
 10 11  1  0
 11 12  2  0
 12 13  1  0
 13 14  2  0
 14 15  1  0
 15 16  2  0
 16 17  1  0
 17 18  2  0
 18 19  1  0
 19 20  2  0
 20 21  1  0
 21 22  2  0
 22 23  1  0
 23 24  2  0
 24 25  1  0
 25 26  1  0
 26 27  2  0
 17 28  1  0
 28 29  2  0
 28 30  1  0
 30 31  1  0
 31 32  1  0
  7  1  1  0
 27  8  1  0
 25  3  1  0
 14  9  1  0
 27 15  1  0
 31 16  1  0
 26 18  1  0
 24 19  1  0
 36 37  1  0
 30 33  1  0
 32 34  1  0
M  END
> <minimizedAffinity>
-12.19415

> <CNNscore>
0.9269158244

> <CNNaffinity>
7.7933845520

> <CNN_VS>
7.2238116264

> <CNNaffinity_variance>
0.0258183032

$$$$



 39 46  0  0  0  0  0  0  0  0999 V2000
    3.8798    2.0652   15.1697 C   0  0  0  0  0  0  0  0  0  0  0  0
    5.3394    2.5076   15.0035 C   0  0  0  0  0  0  0  0  0  0  0  0
    5.4496    3.9902   14.6258 C   0  0  0  0  0  0  0  0  0  0  0  0
    4.2014    4.6340   14.3786 O   0  0  0  0  0  0  0  0  0  0  0  0
    3.1522    4.4745   15.3656 C   0  0  0  0  0  0  0  0  0  0  0  0
    1.9121    4.5523   14.4443 C   0  0  0  0  0  0  0  0  0  0  0  0
    3.1811    3.0908   16.0976 C   0  0  0  0  0  0  0  0  0  0  0  0
    3.2221    5.6009   16.3151 N   0  0  0  0  0  0  0  0  0  0  0  0
    2.1879    6.1822   17.0484 C   0  0  0  0  0  0  0  0  0  0  0  0
    0.8134    5.8943   17.1504 C   0  0  0  0  0  0  0  0  0  0  0  0
    0.0058    6.6991   17.9613 C   0  0  0  0  0  0  0  0  0  0  0  0
    0.5422    7.7606   18.6742 C   0  0  0  0  0  0  0  0  0  0  0  0
    1.9096    8.0293   18.6082 C   0  0  0  0  0  0  0  0  0  0  0  0
    2.7504    7.2327   17.7996 C   0  0  0  0  0  0  0  0  0  0  0  0
    4.1576    7.2043   17.5985 C   0  0  0  0  0  0  0  0  0  0  0  0
    5.2802    7.8922   18.0889 C   0  0  0  0  0  0  0  0  0  0  0  0
    6.6116    7.5248   17.7207 C   0  0  0  0  0  0  0  0  0  0  0  0
    6.9460    6.4710   16.8568 C   0  0  0  0  0  0  0  0  0  0  0  0
    8.1102    5.8365   16.3242 C   0  0  0  0  0  0  0  0  0  0  0  0
    9.4998    6.0359   16.4742 C   0  0  0  0  0  0  0  0  0  0  0  0
   10.4068    5.2164   15.7941 C   0  0  0  0  0  0  0  0  0  0  0  0
    9.9535    4.1993   14.9641 C   0  0  0  0  0  0  0  0  0  0  0  0
    8.5862    3.9742   14.7906 C   0  0  0  0  0  0  0  0  0  0  0  0
    7.6789    4.8004   15.4787 C   0  0  0  0  0  0  0  0  0  0  0  0
    6.2919    4.8119   15.4871 N   0  0  0  0  0  0  0  0  0  0  0  0
    5.8618    5.7914   16.3277 C   0  0  0  0  0  0  0  0  0  0  0  0
    4.4021    6.1772   16.7126 C   0  0  0  0  0  0  0  0  0  0  0  0
    7.5185    8.4333   18.4373 C   0  0  0  0  0  0  0  0  0  0  0  0
    8.7311    8.4661   18.3908 O   0  0  0  0  0  0  0  0  0  0  0  0
    6.7390    9.2694   19.2008 N   0  0  0  0  0  0  0  0  0  0  0  0
    5.3435    9.0537   19.0382 C   0  0  0  0  0  0  0  0  0  0  0  0
    4.8335    8.7597   20.3140 O   0  0  0  0  0  0  0  0  0  0  0  0
    7.1120    9.9529   19.8033 H   0  0  0  0  0  0  0  0  0  0  0  0
    5.3273    8.0174   20.6964 H   0  0  0  0  0  0  0  0  0  0  0  0
    2.7641   -0.1160   15.0269 C   0  0  0  0  0  0  0  0  0  0  0  0
    3.7766    0.6877   15.6993 N   0  0  0  0  0  0  0  0  0  0  0  0
    4.6807    0.2293   15.5865 H   0  0  0  0  0  0  0  0  0  0  0  0
    3.9457    3.1740   17.3184 O   0  0  0  0  0  0  0  0  0  0  0  0
    5.3368    2.9621   17.1310 C   0  0  0  0  0  0  0  0  0  0  0  0
 35 36  1  0
  1 36  1  0
  1  2  1  0
  3  2  1  0
  3  4  1  0
  4  5  1  0
  5  6  1  0
  5  7  1  0
  7 38  1  0
 38 39  1  0
  5  8  1  0
  8  9  1  0
  9 10  2  0
 10 11  1  0
 11 12  2  0
 12 13  1  0
 13 14  2  0
 14 15  1  0
 15 16  2  0
 16 17  1  0
 17 18  2  0
 18 19  1  0
 19 20  2  0
 20 21  1  0
 21 22  2  0
 22 23  1  0
 23 24  2  0
 24 25  1  0
 25 26  1  0
 26 27  2  0
 17 28  1  0
 28 29  2  0
 28 30  1  0
 30 31  1  0
 31 32  1  0
  7  1  1  0
 27  8  1  0
 25  3  1  0
 14  9  1  0
 27 15  1  0
 31 16  1  0
 26 18  1  0
 24 19  1  0
 36 37  1  0
 30 33  1  0
 32 34  1  0
M  END
> <minimizedAffinity>
-8.65182

> <CNNscore>
0.6560377479

> <CNNaffinity>
7.6089930534

> <CNN_VS>
4.9917864799

> <CNNaffinity_variance>
0.1045953035

$$$$



 39 46  0  0  0  0  0  0  0  0999 V2000
    3.0050    3.2287   14.2564 C   0  0  0  0  0  0  0  0  0  0  0  0
    4.3820    2.7286   13.8005 C   0  0  0  0  0  0  0  0  0  0  0  0
    4.6159    1.2625   14.1865 C   0  0  0  0  0  0  0  0  0  0  0  0
    3.5876    0.6893   14.9911 O   0  0  0  0  0  0  0  0  0  0  0  0
    2.2166    0.8486   14.5492 C   0  0  0  0  0  0  0  0  0  0  0  0
    1.5007    0.8724   15.9203 C   0  0  0  0  0  0  0  0  0  0  0  0
    1.9513    2.1924   13.7909 C   0  0  0  0  0  0  0  0  0  0  0  0
    1.8430   -0.3245   13.7371 N   0  0  0  0  0  0  0  0  0  0  0  0
    0.5811   -0.8928   13.5638 C   0  0  0  0  0  0  0  0  0  0  0  0
   -0.6943   -0.5476   14.0503 C   0  0  0  0  0  0  0  0  0  0  0  0
   -1.7906   -1.3529   13.7232 C   0  0  0  0  0  0  0  0  0  0  0  0
   -1.6400   -2.4711   12.9171 C   0  0  0  0  0  0  0  0  0  0  0  0
   -0.3862   -2.7986   12.4001 C   0  0  0  0  0  0  0  0  0  0  0  0
    0.7388   -2.0030   12.7114 C   0  0  0  0  0  0  0  0  0  0  0  0
    2.0932   -2.0293   12.2798 C   0  0  0  0  0  0  0  0  0  0  0  0
    2.8757   -2.7909   11.3956 C   0  0  0  0  0  0  0  0  0  0  0  0
    4.2415   -2.4674   11.1254 C   0  0  0  0  0  0  0  0  0  0  0  0
    4.9401   -1.3893   11.6898 C   0  0  0  0  0  0  0  0  0  0  0  0
    6.2326   -0.7837   11.6229 C   0  0  0  0  0  0  0  0  0  0  0  0
    7.4136   -1.0535   10.8978 C   0  0  0  0  0  0  0  0  0  0  0  0
    8.5425   -0.2444   11.0634 C   0  0  0  0  0  0  0  0  0  0  0  0
    8.5169    0.8314   11.9413 C   0  0  0  0  0  0  0  0  0  0  0  0
    7.3667    1.1270   12.6763 C   0  0  0  0  0  0  0  0  0  0  0  0
    6.2338    0.3108   12.5041 C   0  0  0  0  0  0  0  0  0  0  0  0
    4.9819    0.3623   13.0991 N   0  0  0  0  0  0  0  0  0  0  0  0
    4.2088   -0.6360   12.5925 C   0  0  0  0  0  0  0  0  0  0  0  0
    2.7199   -0.9728   12.9046 C   0  0  0  0  0  0  0  0  0  0  0  0
    4.7269   -3.4501   10.1456 C   0  0  0  0  0  0  0  0  0  0  0  0
    5.8377   -3.5361    9.6634 O   0  0  0  0  0  0  0  0  0  0  0  0
    3.6760   -4.2856    9.8508 N   0  0  0  0  0  0  0  0  0  0  0  0
    2.4955   -3.9987   10.5888 C   0  0  0  0  0  0  0  0  0  0  0  0
    1.4865   -3.7439    9.6448 O   0  0  0  0  0  0  0  0  0  0  0  0
    3.7353   -5.0139    9.1910 H   0  0  0  0  0  0  0  0  0  0  0  0
    1.7790   -3.0444    9.0398 H   0  0  0  0  0  0  0  0  0  0  0  0
    2.8184    5.6257   14.7489 C   0  0  0  0  0  0  0  0  0  0  0  0
    2.7090    4.5822   13.7378 N   0  0  0  0  0  0  0  0  0  0  0  0
    3.3653    4.7909   12.9854 H   0  0  0  0  0  0  0  0  0  0  0  0
    2.1056    2.0152   12.3672 O   0  0  0  0  0  0  0  0  0  0  0  0
    0.8866    2.1229   11.6477 C   0  0  0  0  0  0  0  0  0  0  0  0
 35 36  1  0
  1 36  1  0
  1  2  1  0
  3  2  1  0
  3  4  1  0
  4  5  1  0
  5  6  1  0
  5  7  1  0
  7 38  1  0
 38 39  1  0
  5  8  1  0
  8  9  1  0
  9 10  2  0
 10 11  1  0
 11 12  2  0
 12 13  1  0
 13 14  2  0
 14 15  1  0
 15 16  2  0
 16 17  1  0
 17 18  2  0
 18 19  1  0
 19 20  2  0
 20 21  1  0
 21 22  2  0
 22 23  1  0
 23 24  2  0
 24 25  1  0
 25 26  1  0
 26 27  2  0
 17 28  1  0
 28 29  2  0
 28 30  1  0
 30 31  1  0
 31 32  1  0
  7  1  1  0
 27  8  1  0
 25  3  1  0
 14  9  1  0
 27 15  1  0
 31 16  1  0
 26 18  1  0
 24 19  1  0
 36 37  1  0
 30 33  1  0
 32 34  1  0
M  END
> <minimizedAffinity>
-5.86789

> <CNNscore>
0.2510206699

> <CNNaffinity>
5.2617816925

> <CNN_VS>
1.3208159208

> <CNNaffinity_variance>
0.1843110323

$$$$



 39 46  0  0  0  0  0  0  0  0999 V2000
    0.8771    1.6395   12.5976 C   0  0  0  0  0  0  0  0  0  0  0  0
    2.1554    1.9932   11.8264 C   0  0  0  0  0  0  0  0  0  0  0  0
    3.4103    1.4361   12.5105 C   0  0  0  0  0  0  0  0  0  0  0  0
    3.1729    0.8188   13.7739 O   0  0  0  0  0  0  0  0  0  0  0  0
    2.1132   -0.1665   13.8556 C   0  0  0  0  0  0  0  0  0  0  0  0
    1.6693    0.0475   15.3219 C   0  0  0  0  0  0  0  0  0  0  0  0
    0.9123    0.1187   12.8925 C   0  0  0  0  0  0  0  0  0  0  0  0
    2.6935   -1.5036   13.6305 N   0  0  0  0  0  0  0  0  0  0  0  0
    2.2551   -2.7331   14.1219 C   0  0  0  0  0  0  0  0  0  0  0  0
    1.1607   -3.1017   14.9276 C   0  0  0  0  0  0  0  0  0  0  0  0
    1.0024   -4.4432   15.2917 C   0  0  0  0  0  0  0  0  0  0  0  0
    1.8957   -5.4111   14.8581 C   0  0  0  0  0  0  0  0  0  0  0  0
    2.9613   -5.0600   14.0287 C   0  0  0  0  0  0  0  0  0  0  0  0
    3.1454   -3.7137   13.6427 C   0  0  0  0  0  0  0  0  0  0  0  0
    4.0600   -3.0751   12.7611 C   0  0  0  0  0  0  0  0  0  0  0  0
    5.1130   -3.4623   11.9153 C   0  0  0  0  0  0  0  0  0  0  0  0
    5.7839   -2.5270   11.0677 C   0  0  0  0  0  0  0  0  0  0  0  0
    5.4827   -1.1594   10.9810 C   0  0  0  0  0  0  0  0  0  0  0  0
    5.9044   -0.0025   10.2561 C   0  0  0  0  0  0  0  0  0  0  0  0
    6.8697    0.2380    9.2544 C   0  0  0  0  0  0  0  0  0  0  0  0
    7.0406    1.5255    8.7349 C   0  0  0  0  0  0  0  0  0  0  0  0
    6.2657    2.5813    9.1971 C   0  0  0  0  0  0  0  0  0  0  0  0
    5.3025    2.3807   10.1883 C   0  0  0  0  0  0  0  0  0  0  0  0
    5.1339    1.0833   10.7055 C   0  0  0  0  0  0  0  0  0  0  0  0
    4.2764    0.6032   11.6844 N   0  0  0  0  0  0  0  0  0  0  0  0
    4.4710   -0.7359   11.8262 C   0  0  0  0  0  0  0  0  0  0  0  0
    3.7287   -1.7374   12.7609 C   0  0  0  0  0  0  0  0  0  0  0  0
    6.7959   -3.2828   10.3153 C   0  0  0  0  0  0  0  0  0  0  0  0
    7.5882   -2.8595    9.4988 O   0  0  0  0  0  0  0  0  0  0  0  0
    6.6918   -4.5985   10.6997 N   0  0  0  0  0  0  0  0  0  0  0  0
    5.7147   -4.8221   11.7076 C   0  0  0  0  0  0  0  0  0  0  0  0
    4.8080   -5.7590   11.1838 O   0  0  0  0  0  0  0  0  0  0  0  0
    7.2419   -5.3178   10.3135 H   0  0  0  0  0  0  0  0  0  0  0  0
    4.4645   -5.4373   10.3356 H   0  0  0  0  0  0  0  0  0  0  0  0
   -1.5757    1.6240   12.5169 C   0  0  0  0  0  0  0  0  0  0  0  0
   -0.3419    2.0255   11.8536 N   0  0  0  0  0  0  0  0  0  0  0  0
   -0.3477    3.0398   11.7464 H   0  0  0  0  0  0  0  0  0  0  0  0
    1.0887   -0.5703   11.6372 O   0  0  0  0  0  0  0  0  0  0  0  0
    0.0503   -1.4938   11.3471 C   0  0  0  0  0  0  0  0  0  0  0  0
 35 36  1  0
  1 36  1  0
  1  2  1  0
  3  2  1  0
  3  4  1  0
  4  5  1  0
  5  6  1  0
  5  7  1  0
  7 38  1  0
 38 39  1  0
  5  8  1  0
  8  9  1  0
  9 10  2  0
 10 11  1  0
 11 12  2  0
 12 13  1  0
 13 14  2  0
 14 15  1  0
 15 16  2  0
 16 17  1  0
 17 18  2  0
 18 19  1  0
 19 20  2  0
 20 21  1  0
 21 22  2  0
 22 23  1  0
 23 24  2  0
 24 25  1  0
 25 26  1  0
 26 27  2  0
 17 28  1  0
 28 29  2  0
 28 30  1  0
 30 31  1  0
 31 32  1  0
  7  1  1  0
 27  8  1  0
 25  3  1  0
 14  9  1  0
 27 15  1  0
 31 16  1  0
 26 18  1  0
 24 19  1  0
 36 37  1  0
 30 33  1  0
 32 34  1  0
M  END
> <minimizedAffinity>
-5.58023

> <CNNscore>
0.2280452996

> <CNNaffinity>
4.8943200111

> <CNN_VS>
1.1161266565

> <CNNaffinity_variance>
0.2058416605

$$$$



 39 46  0  0  0  0  0  0  0  0999 V2000
    4.7487    2.9185   12.8842 C   0  0  0  0  0  0  0  0  0  0  0  0
    3.9027    1.7032   13.2857 C   0  0  0  0  0  0  0  0  0  0  0  0
    3.6719    0.7504   12.1059 C   0  0  0  0  0  0  0  0  0  0  0  0
    4.1653    1.2246   10.8549 O   0  0  0  0  0  0  0  0  0  0  0  0
    5.5290    1.7130   10.8081 C   0  0  0  0  0  0  0  0  0  0  0  0
    5.3870    2.7800    9.6972 C   0  0  0  0  0  0  0  0  0  0  0  0
    6.0004    2.3930   12.1372 C   0  0  0  0  0  0  0  0  0  0  0  0
    6.4152    0.6018   10.4142 N   0  0  0  0  0  0  0  0  0  0  0  0
    7.6288    0.6615    9.7294 C   0  0  0  0  0  0  0  0  0  0  0  0
    8.3918    1.7365    9.2347 C   0  0  0  0  0  0  0  0  0  0  0  0
    9.5776    1.4700    8.5417 C   0  0  0  0  0  0  0  0  0  0  0  0
   10.0163    0.1684    8.3513 C   0  0  0  0  0  0  0  0  0  0  0  0
    9.2857   -0.9005    8.8709 C   0  0  0  0  0  0  0  0  0  0  0  0
    8.0856   -0.6622    9.5769 C   0  0  0  0  0  0  0  0  0  0  0  0
    7.1897   -1.5136   10.2797 C   0  0  0  0  0  0  0  0  0  0  0  0
    7.1009   -2.8813   10.5892 C   0  0  0  0  0  0  0  0  0  0  0  0
    6.0676   -3.3999   11.4298 C   0  0  0  0  0  0  0  0  0  0  0  0
    5.0544   -2.6338   12.0257 C   0  0  0  0  0  0  0  0  0  0  0  0
    3.9400   -2.8084   12.9028 C   0  0  0  0  0  0  0  0  0  0  0  0
    3.3753   -3.9145   13.5743 C   0  0  0  0  0  0  0  0  0  0  0  0
    2.2486   -3.7460   14.3860 C   0  0  0  0  0  0  0  0  0  0  0  0
    1.6719   -2.4922   14.5409 C   0  0  0  0  0  0  0  0  0  0  0  0
    2.2025   -1.3760   13.8907 C   0  0  0  0  0  0  0  0  0  0  0  0
    3.3369   -1.5513   13.0772 C   0  0  0  0  0  0  0  0  0  0  0  0
    4.0564   -0.6401   12.3182 N   0  0  0  0  0  0  0  0  0  0  0  0
    5.0914   -1.2850   11.7150 C   0  0  0  0  0  0  0  0  0  0  0  0
    6.2065   -0.6988   10.7982 C   0  0  0  0  0  0  0  0  0  0  0  0
    6.3043   -4.8456   11.5541 C   0  0  0  0  0  0  0  0  0  0  0  0
    5.6461   -5.6586   12.1701 O   0  0  0  0  0  0  0  0  0  0  0  0
    7.4384   -5.1368   10.8340 N   0  0  0  0  0  0  0  0  0  0  0  0
    7.9938   -4.0117   10.1660 C   0  0  0  0  0  0  0  0  0  0  0  0
    9.3138   -3.8835   10.6298 O   0  0  0  0  0  0  0  0  0  0  0  0
    7.8290   -6.0391   10.7855 H   0  0  0  0  0  0  0  0  0  0  0  0
    9.3127   -3.8331   11.5985 H   0  0  0  0  0  0  0  0  0  0  0  0
    5.9701    4.8781   13.7155 C   0  0  0  0  0  0  0  0  0  0  0  0
    5.1158    3.7471   14.0535 N   0  0  0  0  0  0  0  0  0  0  0  0
    4.2600    4.1038   14.4785 H   0  0  0  0  0  0  0  0  0  0  0  0
    6.6577    1.4373   12.9954 O   0  0  0  0  0  0  0  0  0  0  0  0
    8.0031    1.7767   13.2954 C   0  0  0  0  0  0  0  0  0  0  0  0
 35 36  1  0
  1 36  1  0
  1  2  1  0
  3  2  1  0
  3  4  1  0
  4  5  1  0
  5  6  1  0
  5  7  1  0
  7 38  1  0
 38 39  1  0
  5  8  1  0
  8  9  1  0
  9 10  2  0
 10 11  1  0
 11 12  2  0
 12 13  1  0
 13 14  2  0
 14 15  1  0
 15 16  2  0
 16 17  1  0
 17 18  2  0
 18 19  1  0
 19 20  2  0
 20 21  1  0
 21 22  2  0
 22 23  1  0
 23 24  2  0
 24 25  1  0
 25 26  1  0
 26 27  2  0
 17 28  1  0
 28 29  2  0
 28 30  1  0
 30 31  1  0
 31 32  1  0
  7  1  1  0
 27  8  1  0
 25  3  1  0
 14  9  1  0
 27 15  1  0
 31 16  1  0
 26 18  1  0
 24 19  1  0
 36 37  1  0
 30 33  1  0
 32 34  1  0
M  END
> <minimizedAffinity>
-6.79183

> <CNNscore>
0.2230351716

> <CNNaffinity>
4.9855227470

> <CNN_VS>
1.1119469404

> <CNNaffinity_variance>
0.6844398975

$$$$



 39 46  0  0  0  0  0  0  0  0999 V2000
    0.8275   -3.1161   17.1773 C   0  0  0  0  0  0  0  0  0  0  0  0
    0.2314   -2.2849   18.3208 C   0  0  0  0  0  0  0  0  0  0  0  0
    0.4332   -0.7801   18.1011 C   0  0  0  0  0  0  0  0  0  0  0  0
    1.2313   -0.4477   16.9672 O   0  0  0  0  0  0  0  0  0  0  0  0
    0.8982   -1.0695   15.7012 C   0  0  0  0  0  0  0  0  0  0  0  0
    2.3057   -1.1342   15.0629 C   0  0  0  0  0  0  0  0  0  0  0  0
    0.3153   -2.5156   15.8438 C   0  0  0  0  0  0  0  0  0  0  0  0
   -0.0162   -0.1780   14.9634 N   0  0  0  0  0  0  0  0  0  0  0  0
   -0.1724   -0.0454   13.5838 C   0  0  0  0  0  0  0  0  0  0  0  0
    0.4300   -0.6958   12.4898 C   0  0  0  0  0  0  0  0  0  0  0  0
    0.0839   -0.3087   11.1907 C   0  0  0  0  0  0  0  0  0  0  0  0
   -0.8516    0.6904   10.9685 C   0  0  0  0  0  0  0  0  0  0  0  0
   -1.4808    1.3137   12.0465 C   0  0  0  0  0  0  0  0  0  0  0  0
   -1.1534    0.9425   13.3696 C   0  0  0  0  0  0  0  0  0  0  0  0
   -1.6703    1.3225   14.6384 C   0  0  0  0  0  0  0  0  0  0  0  0
   -2.6828    2.1662   15.1251 C   0  0  0  0  0  0  0  0  0  0  0  0
   -3.0007    2.2398   16.5168 C   0  0  0  0  0  0  0  0  0  0  0  0
   -2.3633    1.5049   17.5279 C   0  0  0  0  0  0  0  0  0  0  0  0
   -2.4430    1.3158   18.9419 C   0  0  0  0  0  0  0  0  0  0  0  0
   -3.2675    1.8359   19.9632 C   0  0  0  0  0  0  0  0  0  0  0  0
   -3.0833    1.4346   21.2905 C   0  0  0  0  0  0  0  0  0  0  0  0
   -2.0892    0.5225   21.6203 C   0  0  0  0  0  0  0  0  0  0  0  0
   -1.2541   -0.0114   20.6365 C   0  0  0  0  0  0  0  0  0  0  0  0
   -1.4454    0.3945   19.3031 C   0  0  0  0  0  0  0  0  0  0  0  0
   -0.7701    0.0425   18.1438 N   0  0  0  0  0  0  0  0  0  0  0  0
   -1.3365    0.6868   17.0878 C   0  0  0  0  0  0  0  0  0  0  0  0
   -0.9708    0.5938   15.5761 C   0  0  0  0  0  0  0  0  0  0  0  0
   -4.1144    3.1903   16.6502 C   0  0  0  0  0  0  0  0  0  0  0  0
   -4.6727    3.5464   17.6677 O   0  0  0  0  0  0  0  0  0  0  0  0
   -4.4347    3.6237   15.3857 N   0  0  0  0  0  0  0  0  0  0  0  0
   -3.5956    3.0892   14.3705 C   0  0  0  0  0  0  0  0  0  0  0  0
   -4.4387    2.4228   13.4654 O   0  0  0  0  0  0  0  0  0  0  0  0
   -5.1752    4.2455   15.2007 H   0  0  0  0  0  0  0  0  0  0  0  0
   -4.9779    1.7737   13.9437 H   0  0  0  0  0  0  0  0  0  0  0  0
   -0.6429   -4.8018   18.1870 C   0  0  0  0  0  0  0  0  0  0  0  0
    0.4853   -4.5502   17.2998 N   0  0  0  0  0  0  0  0  0  0  0  0
    0.2539   -4.9078   16.3730 H   0  0  0  0  0  0  0  0  0  0  0  0
   -1.1261   -2.4828   15.8994 O   0  0  0  0  0  0  0  0  0  0  0  0
   -1.7500   -3.2333   14.8685 C   0  0  0  0  0  0  0  0  0  0  0  0
 35 36  1  0
  1 36  1  0
  1  2  1  0
  3  2  1  0
  3  4  1  0
  4  5  1  0
  5  6  1  0
  5  7  1  0
  7 38  1  0
 38 39  1  0
  5  8  1  0
  8  9  1  0
  9 10  2  0
 10 11  1  0
 11 12  2  0
 12 13  1  0
 13 14  2  0
 14 15  1  0
 15 16  2  0
 16 17  1  0
 17 18  2  0
 18 19  1  0
 19 20  2  0
 20 21  1  0
 21 22  2  0
 22 23  1  0
 23 24  2  0
 24 25  1  0
 25 26  1  0
 26 27  2  0
 17 28  1  0
 28 29  2  0
 28 30  1  0
 30 31  1  0
 31 32  1  0
  7  1  1  0
 27  8  1  0
 25  3  1  0
 14  9  1  0
 27 15  1  0
 31 16  1  0
 26 18  1  0
 24 19  1  0
 36 37  1  0
 30 33  1  0
 32 34  1  0
M  END
> <minimizedAffinity>
-4.94016

> <CNNscore>
0.2226679921

> <CNNaffinity>
5.4255061150

> <CNN_VS>
1.2080866098

> <CNNaffinity_variance>
0.1052840427

$$$$



 39 46  0  0  0  0  0  0  0  0999 V2000
    7.0839    3.8242   15.1327 C   0  0  0  0  0  0  0  0  0  0  0  0
    7.2186    5.1876   15.8233 C   0  0  0  0  0  0  0  0  0  0  0  0
    6.0316    6.1079   15.5115 C   0  0  0  0  0  0  0  0  0  0  0  0
    5.1101    5.5851   14.5572 O   0  0  0  0  0  0  0  0  0  0  0  0
    4.6214    4.2357   14.7592 C   0  0  0  0  0  0  0  0  0  0  0  0
    4.4048    3.8126   13.2871 C   0  0  0  0  0  0  0  0  0  0  0  0
    5.6638    3.2830   15.4352 C   0  0  0  0  0  0  0  0  0  0  0  0
    3.3597    4.2994   15.5202 N   0  0  0  0  0  0  0  0  0  0  0  0
    2.2834    3.4129   15.4904 C   0  0  0  0  0  0  0  0  0  0  0  0
    2.0566    2.2128   14.7897 C   0  0  0  0  0  0  0  0  0  0  0  0
    0.8324    1.5532   14.9441 C   0  0  0  0  0  0  0  0  0  0  0  0
   -0.1481    2.0554   15.7861 C   0  0  0  0  0  0  0  0  0  0  0  0
    0.0832    3.2237   16.5128 C   0  0  0  0  0  0  0  0  0  0  0  0
    1.3104    3.9104   16.3791 C   0  0  0  0  0  0  0  0  0  0  0  0
    1.8607    5.0468   17.0326 C   0  0  0  0  0  0  0  0  0  0  0  0
    1.4742    5.9346   18.0506 C   0  0  0  0  0  0  0  0  0  0  0  0
    2.3520    6.9511   18.5399 C   0  0  0  0  0  0  0  0  0  0  0  0
    3.6581    7.1766   18.0795 C   0  0  0  0  0  0  0  0  0  0  0  0
    4.7676    8.0352   18.3505 C   0  0  0  0  0  0  0  0  0  0  0  0
    5.0066    9.0805   19.2689 C   0  0  0  0  0  0  0  0  0  0  0  0
    6.2393    9.7415   19.2793 C   0  0  0  0  0  0  0  0  0  0  0  0
    7.2412    9.3797   18.3882 C   0  0  0  0  0  0  0  0  0  0  0  0
    7.0396    8.3517   17.4648 C   0  0  0  0  0  0  0  0  0  0  0  0
    5.7984    7.6893   17.4604 C   0  0  0  0  0  0  0  0  0  0  0  0
    5.3253    6.6580   16.6626 N   0  0  0  0  0  0  0  0  0  0  0  0
    4.0610    6.3405   17.0520 C   0  0  0  0  0  0  0  0  0  0  0  0
    3.1193    5.2282   16.5010 C   0  0  0  0  0  0  0  0  0  0  0  0
    1.6307    7.6604   19.6068 C   0  0  0  0  0  0  0  0  0  0  0  0
    2.0171    8.6006   20.2704 O   0  0  0  0  0  0  0  0  0  0  0  0
    0.4014    7.0593   19.7374 N   0  0  0  0  0  0  0  0  0  0  0  0
    0.1787    6.0089   18.8061 C   0  0  0  0  0  0  0  0  0  0  0  0
   -0.0930    4.8560   19.5618 O   0  0  0  0  0  0  0  0  0  0  0  0
   -0.2621    7.3307   20.4123 H   0  0  0  0  0  0  0  0  0  0  0  0
    0.6279    4.7061   20.1933 H   0  0  0  0  0  0  0  0  0  0  0  0
    9.1367    2.6159   14.5419 C   0  0  0  0  0  0  0  0  0  0  0  0
    8.1351    2.8783   15.5672 N   0  0  0  0  0  0  0  0  0  0  0  0
    8.6037    3.2687   16.3847 H   0  0  0  0  0  0  0  0  0  0  0  0
    5.4919    3.2711   16.8678 O   0  0  0  0  0  0  0  0  0  0  0  0
    4.6648    4.3203   17.3478 C   0  0  0  0  0  0  0  0  0  0  0  0
 35 36  1  0
  1 36  1  0
  1  2  1  0
  3  2  1  0
  3  4  1  0
  4  5  1  0
  5  6  1  0
  5  7  1  0
  7 38  1  0
 38 39  1  0
  5  8  1  0
  8  9  1  0
  9 10  2  0
 10 11  1  0
 11 12  2  0
 12 13  1  0
 13 14  2  0
 14 15  1  0
 15 16  2  0
 16 17  1  0
 17 18  2  0
 18 19  1  0
 19 20  2  0
 20 21  1  0
 21 22  2  0
 22 23  1  0
 23 24  2  0
 24 25  1  0
 25 26  1  0
 26 27  2  0
 17 28  1  0
 28 29  2  0
 28 30  1  0
 30 31  1  0
 31 32  1  0
  7  1  1  0
 27  8  1  0
 25  3  1  0
 14  9  1  0
 27 15  1  0
 31 16  1  0
 26 18  1  0
 24 19  1  0
 36 37  1  0
 30 33  1  0
 32 34  1  0
M  END
> <minimizedAffinity>
-10.33161

> <CNNscore>
0.1913905889

> <CNNaffinity>
6.3636784554

> <CNN_VS>
1.2179481983

> <CNNaffinity_variance>
0.2900879979

$$$$



 39 46  0  0  0  0  0  0  0  0999 V2000
    3.0485    3.6581   13.7572 C   0  0  0  0  0  0  0  0  0  0  0  0
    4.5369    3.4465   14.0635 C   0  0  0  0  0  0  0  0  0  0  0  0
    4.8895    1.9593   14.1936 C   0  0  0  0  0  0  0  0  0  0  0  0
    3.7709    1.0768   14.1353 O   0  0  0  0  0  0  0  0  0  0  0  0
    2.8332    1.2464   13.0433 C   0  0  0  0  0  0  0  0  0  0  0  0
    1.5333    0.7793   13.7396 C   0  0  0  0  0  0  0  0  0  0  0  0
    2.6766    2.7313   12.5724 C   0  0  0  0  0  0  0  0  0  0  0  0
    3.2319    0.3572   11.9363 N   0  0  0  0  0  0  0  0  0  0  0  0
    2.4239   -0.2359   10.9664 C   0  0  0  0  0  0  0  0  0  0  0  0
    1.0411   -0.1716   10.7090 C   0  0  0  0  0  0  0  0  0  0  0  0
    0.5063   -0.9267    9.6596 C   0  0  0  0  0  0  0  0  0  0  0  0
    1.3191   -1.7203    8.8644 C   0  0  0  0  0  0  0  0  0  0  0  0
    2.6955   -1.7603    9.0891 C   0  0  0  0  0  0  0  0  0  0  0  0
    3.2644   -1.0070   10.1400 C   0  0  0  0  0  0  0  0  0  0  0  0
    4.6057   -0.7798   10.5531 C   0  0  0  0  0  0  0  0  0  0  0  0
    5.8904   -1.1569   10.1272 C   0  0  0  0  0  0  0  0  0  0  0  0
    7.0722   -0.6480   10.7497 C   0  0  0  0  0  0  0  0  0  0  0  0
    7.0913    0.2567   11.8221 C   0  0  0  0  0  0  0  0  0  0  0  0
    8.0390    0.9626   12.6252 C   0  0  0  0  0  0  0  0  0  0  0  0
    9.4487    1.0359   12.6549 C   0  0  0  0  0  0  0  0  0  0  0  0
   10.0925    1.8478   13.5945 C   0  0  0  0  0  0  0  0  0  0  0  0
    9.3558    2.5897   14.5085 C   0  0  0  0  0  0  0  0  0  0  0  0
    7.9601    2.5405   14.5096 C   0  0  0  0  0  0  0  0  0  0  0  0
    7.3181    1.7237   13.5610 C   0  0  0  0  0  0  0  0  0  0  0  0
    5.9707    1.4783   13.3413 N   0  0  0  0  0  0  0  0  0  0  0  0
    5.8411    0.6246   12.2900 C   0  0  0  0  0  0  0  0  0  0  0  0
    4.5399    0.0795   11.6287 C   0  0  0  0  0  0  0  0  0  0  0  0
    8.2163   -1.2303   10.0332 C   0  0  0  0  0  0  0  0  0  0  0  0
    9.3981   -1.0649   10.2560 O   0  0  0  0  0  0  0  0  0  0  0  0
    7.7095   -2.0201    9.0288 N   0  0  0  0  0  0  0  0  0  0  0  0
    6.2895   -2.0811    9.0133 C   0  0  0  0  0  0  0  0  0  0  0  0
    5.8844   -1.6332    7.7447 O   0  0  0  0  0  0  0  0  0  0  0  0
    8.2765   -2.4983    8.3813 H   0  0  0  0  0  0  0  0  0  0  0  0
    6.2648   -0.7573    7.5744 H   0  0  0  0  0  0  0  0  0  0  0  0
    3.6291    6.0121   14.1376 C   0  0  0  0  0  0  0  0  0  0  0  0
    2.7409    5.0748   13.4624 N   0  0  0  0  0  0  0  0  0  0  0  0
    2.8215    5.2206   12.4561 H   0  0  0  0  0  0  0  0  0  0  0  0
    3.5799    3.0209   11.4851 O   0  0  0  0  0  0  0  0  0  0  0  0
    3.0096    2.8072   10.2028 C   0  0  0  0  0  0  0  0  0  0  0  0
 35 36  1  0
  1 36  1  0
  1  2  1  0
  3  2  1  0
  3  4  1  0
  4  5  1  0
  5  6  1  0
  5  7  1  0
  7 38  1  0
 38 39  1  0
  5  8  1  0
  8  9  1  0
  9 10  2  0
 10 11  1  0
 11 12  2  0
 12 13  1  0
 13 14  2  0
 14 15  1  0
 15 16  2  0
 16 17  1  0
 17 18  2  0
 18 19  1  0
 19 20  2  0
 20 21  1  0
 21 22  2  0
 22 23  1  0
 23 24  2  0
 24 25  1  0
 25 26  1  0
 26 27  2  0
 17 28  1  0
 28 29  2  0
 28 30  1  0
 30 31  1  0
 31 32  1  0
  7  1  1  0
 27  8  1  0
 25  3  1  0
 14  9  1  0
 27 15  1  0
 31 16  1  0
 26 18  1  0
 24 19  1  0
 36 37  1  0
 30 33  1  0
 32 34  1  0
M  END
> <minimizedAffinity>
-7.06787

> <CNNscore>
0.1749200672

> <CNNaffinity>
4.7717757225

> <CNN_VS>
0.8346793056

> <CNNaffinity_variance>
0.6576046944

$$$$
