


 31 33  0  0  0  0  0  0  0  0999 V2000
   46.2004   15.0936    3.4806 C   0  0  0  0  0  0  0  0  0  0  0  0
   45.2110   15.9802    3.0879 C   0  0  0  0  0  0  0  0  0  0  0  0
   44.3870   15.3877    1.7004 S   0  0  0  0  0  0  0  0  0  0  0  0
   45.3888   14.0027    1.5806 C   0  0  0  0  0  0  0  0  0  0  0  0
   46.3263   13.9919    2.5893 C   0  0  0  0  0  0  0  0  0  0  0  0
   47.6776   12.6785    2.7996 Br  0  0  0  0  0  0  0  0  0  0  0  0
   45.1500   13.0467    0.4990 C   0  0  0  0  0  0  0  0  0  0  0  0
   44.6815   13.4786   -0.7453 C   0  0  0  0  0  0  0  0  0  0  0  0
   44.4844   12.5591   -1.7725 C   0  0  0  0  0  0  0  0  0  0  0  0
   44.7378   11.2014   -1.5574 C   0  0  0  0  0  0  0  0  0  0  0  0
   45.1685   10.7335   -0.3110 C   0  0  0  0  0  0  0  0  0  0  0  0
   45.4044   11.6801    0.6977 C   0  0  0  0  0  0  0  0  0  0  0  0
   45.4778    9.3881   -0.0682 N   0  0  0  0  0  0  0  0  0  0  0  0
   44.8294    8.8011    0.3837 H   0  0  0  0  0  0  0  0  0  0  0  0
   46.7759    8.8679   -0.4947 C   0  0  0  0  0  0  0  0  0  0  0  0
   47.5468    8.3379    0.6932 C   0  0  0  0  0  0  0  0  0  0  0  0
   47.6583    9.0974    1.8678 C   0  0  0  0  0  0  0  0  0  0  0  0
   48.3525    8.5974    2.9710 C   0  0  0  0  0  0  0  0  0  0  0  0
   48.9348    7.3325    2.9151 C   0  0  0  0  0  0  0  0  0  0  0  0
   48.8214    6.5642    1.7578 C   0  0  0  0  0  0  0  0  0  0  0  0
   48.1292    7.0626    0.6532 C   0  0  0  0  0  0  0  0  0  0  0  0
   44.8438   17.2384    3.7006 C   0  0  0  0  0  0  0  0  0  0  0  0
   44.6943   17.4741    4.8921 O   0  0  0  0  0  0  0  0  0  0  0  0
   44.6468   18.2347    2.8069 O   0  0  0  0  0  0  0  0  0  0  0  0
   44.7571   18.0711    1.8909 H   0  0  0  0  0  0  0  0  0  0  0  0
   47.0305   15.3251    4.5295 O   0  0  0  0  0  0  0  0  0  0  0  0
   48.1219   16.1745    4.1908 C   0  0  0  0  0  0  0  0  0  0  0  0
   49.2058   18.1349    5.1822 O   0  0  0  0  0  0  0  0  0  0  0  0
   48.2790   17.3411    5.1448 C   0  0  0  0  0  0  0  0  0  0  0  0
   47.2584   17.4455    6.0228 O   0  0  0  0  0  0  0  0  0  0  0  0
   46.5488   16.8345    5.9912 H   0  0  0  0  0  0  0  0  0  0  0  0
 28 29  2  0
 29 30  1  0
 29 27  1  0
 27 26  1  0
 26  1  1  0
  1  2  2  0
  2 22  1  0
 22 23  2  0
 22 24  1  0
  2  3  1  0
  3  4  1  0
  4  7  1  0
  7  8  2  0
  8  9  1  0
  9 10  2  0
 10 11  1  0
 11 13  1  0
 13 15  1  0
 15 16  1  0
 16 17  2  0
 17 18  1  0
 18 19  2  0
 19 20  1  0
 20 21  2  0
 11 12  2  0
  4  5  2  0
  5  6  1  0
  5  1  1  0
 12  7  1  0
 21 16  1  0
 30 31  1  0
 24 25  1  0
 13 14  1  0
M  END
> <minimizedAffinity>
-8.36539

> <CNNscore>
0.9660592079

> <CNNaffinity>
6.4161491394

> <CNN_VS>
6.1983799934

> <CNNaffinity_variance>
0.1199603155

$$$$



 31 33  0  0  0  0  0  0  0  0999 V2000
   46.2235   15.0985    3.5006 C   0  0  0  0  0  0  0  0  0  0  0  0
   45.2350   16.0042    3.1515 C   0  0  0  0  0  0  0  0  0  0  0  0
   44.3870   15.4629    1.7575 S   0  0  0  0  0  0  0  0  0  0  0  0
   45.3768   14.0758    1.5782 C   0  0  0  0  0  0  0  0  0  0  0  0
   46.3286   14.0257    2.5723 C   0  0  0  0  0  0  0  0  0  0  0  0
   47.6732   12.6970    2.7200 Br  0  0  0  0  0  0  0  0  0  0  0  0
   45.1157   13.1573    0.4696 C   0  0  0  0  0  0  0  0  0  0  0  0
   44.9880   11.7836    0.6954 C   0  0  0  0  0  0  0  0  0  0  0  0
   44.7134   10.9259   -0.3669 C   0  0  0  0  0  0  0  0  0  0  0  0
   44.5816   11.4333   -1.6627 C   0  0  0  0  0  0  0  0  0  0  0  0
   44.7442   12.7979   -1.9263 C   0  0  0  0  0  0  0  0  0  0  0  0
   44.9759   13.6519   -0.8371 C   0  0  0  0  0  0  0  0  0  0  0  0
   44.5746   13.3524   -3.2024 N   0  0  0  0  0  0  0  0  0  0  0  0
   45.0079   12.9427   -3.9857 H   0  0  0  0  0  0  0  0  0  0  0  0
   43.7457   14.5470   -3.3550 C   0  0  0  0  0  0  0  0  0  0  0  0
   44.6024   15.7919   -3.3070 C   0  0  0  0  0  0  0  0  0  0  0  0
   45.8547   15.8211   -3.9393 C   0  0  0  0  0  0  0  0  0  0  0  0
   46.6351   16.9783   -3.9118 C   0  0  0  0  0  0  0  0  0  0  0  0
   46.1699   18.1190   -3.2602 C   0  0  0  0  0  0  0  0  0  0  0  0
   44.9229   18.1058   -2.6378 C   0  0  0  0  0  0  0  0  0  0  0  0
   44.1417   16.9495   -2.6627 C   0  0  0  0  0  0  0  0  0  0  0  0
   44.8858   17.2442    3.8100 C   0  0  0  0  0  0  0  0  0  0  0  0
   44.7258   17.4349    5.0082 O   0  0  0  0  0  0  0  0  0  0  0  0
   44.7208   18.2795    2.9551 O   0  0  0  0  0  0  0  0  0  0  0  0
   44.8395   18.1505    2.0346 H   0  0  0  0  0  0  0  0  0  0  0  0
   47.0702   15.2900    4.5444 O   0  0  0  0  0  0  0  0  0  0  0  0
   48.1720   16.1285    4.2127 C   0  0  0  0  0  0  0  0  0  0  0  0
   49.2236   18.1245    5.1673 O   0  0  0  0  0  0  0  0  0  0  0  0
   48.3053   17.3205    5.1386 C   0  0  0  0  0  0  0  0  0  0  0  0
   47.2727   17.4366    6.0008 O   0  0  0  0  0  0  0  0  0  0  0  0
   46.5696   16.8177    5.9758 H   0  0  0  0  0  0  0  0  0  0  0  0
 28 29  2  0
 29 30  1  0
 29 27  1  0
 27 26  1  0
 26  1  1  0
  1  2  2  0
  2 22  1  0
 22 23  2  0
 22 24  1  0
  2  3  1  0
  3  4  1  0
  4  7  1  0
  7  8  2  0
  8  9  1  0
  9 10  2  0
 10 11  1  0
 11 13  1  0
 13 15  1  0
 15 16  1  0
 16 17  2  0
 17 18  1  0
 18 19  2  0
 19 20  1  0
 20 21  2  0
 11 12  2  0
  4  5  2  0
  5  6  1  0
  5  1  1  0
 12  7  1  0
 21 16  1  0
 30 31  1  0
 24 25  1  0
 13 14  1  0
M  END
> <minimizedAffinity>
-8.33680

> <CNNscore>
0.9450102448

> <CNNaffinity>
6.3373775482

> <CNN_VS>
5.9888868332

> <CNNaffinity_variance>
0.0057379901

$$$$



 31 33  0  0  0  0  0  0  0  0999 V2000
   46.2302   15.0561    3.4954 C   0  0  0  0  0  0  0  0  0  0  0  0
   45.2424   15.9556    3.1289 C   0  0  0  0  0  0  0  0  0  0  0  0
   44.3747   15.3744    1.7634 S   0  0  0  0  0  0  0  0  0  0  0  0
   45.3550   13.9766    1.6172 C   0  0  0  0  0  0  0  0  0  0  0  0
   46.3184   13.9533    2.6010 C   0  0  0  0  0  0  0  0  0  0  0  0
   47.6576   12.6224    2.7756 Br  0  0  0  0  0  0  0  0  0  0  0  0
   45.0756   13.0243    0.5422 C   0  0  0  0  0  0  0  0  0  0  0  0
   45.0363   11.6504    0.7976 C   0  0  0  0  0  0  0  0  0  0  0  0
   44.7431   10.7589   -0.2315 C   0  0  0  0  0  0  0  0  0  0  0  0
   44.5042   11.2335   -1.5244 C   0  0  0  0  0  0  0  0  0  0  0  0
   44.5764   12.5994   -1.8196 C   0  0  0  0  0  0  0  0  0  0  0  0
   44.8286   13.4854   -0.7609 C   0  0  0  0  0  0  0  0  0  0  0  0
   44.2984   13.1193   -3.0912 N   0  0  0  0  0  0  0  0  0  0  0  0
   44.2524   12.5242   -3.8741 H   0  0  0  0  0  0  0  0  0  0  0  0
   44.0775   14.5569   -3.2398 C   0  0  0  0  0  0  0  0  0  0  0  0
   42.6145   14.8873   -3.0488 C   0  0  0  0  0  0  0  0  0  0  0  0
   42.2290   16.0700   -2.3995 C   0  0  0  0  0  0  0  0  0  0  0  0
   40.8777   16.3837   -2.2427 C   0  0  0  0  0  0  0  0  0  0  0  0
   39.8993   15.5243   -2.7391 C   0  0  0  0  0  0  0  0  0  0  0  0
   40.2698   14.3521   -3.3955 C   0  0  0  0  0  0  0  0  0  0  0  0
   41.6201   14.0357   -3.5520 C   0  0  0  0  0  0  0  0  0  0  0  0
   44.9077   17.2182    3.7511 C   0  0  0  0  0  0  0  0  0  0  0  0
   44.7448   17.4443    4.9427 O   0  0  0  0  0  0  0  0  0  0  0  0
   44.7614   18.2316    2.8670 O   0  0  0  0  0  0  0  0  0  0  0  0
   44.8826   18.0755    1.9511 H   0  0  0  0  0  0  0  0  0  0  0  0
   47.0905   15.2764    4.5222 O   0  0  0  0  0  0  0  0  0  0  0  0
   48.1602   16.1464    4.1672 C   0  0  0  0  0  0  0  0  0  0  0  0
   49.2366   18.1092    5.1619 O   0  0  0  0  0  0  0  0  0  0  0  0
   48.3100   17.3154    5.1194 C   0  0  0  0  0  0  0  0  0  0  0  0
   47.2827   17.4221    5.9893 O   0  0  0  0  0  0  0  0  0  0  0  0
   46.5733   16.8111    5.9536 H   0  0  0  0  0  0  0  0  0  0  0  0
 28 29  2  0
 29 30  1  0
 29 27  1  0
 27 26  1  0
 26  1  1  0
  1  2  2  0
  2 22  1  0
 22 23  2  0
 22 24  1  0
  2  3  1  0
  3  4  1  0
  4  7  1  0
  7  8  2  0
  8  9  1  0
  9 10  2  0
 10 11  1  0
 11 13  1  0
 13 15  1  0
 15 16  1  0
 16 17  2  0
 17 18  1  0
 18 19  2  0
 19 20  1  0
 20 21  2  0
 11 12  2  0
  4  5  2  0
  5  6  1  0
  5  1  1  0
 12  7  1  0
 21 16  1  0
 30 31  1  0
 24 25  1  0
 13 14  1  0
M  END
> <minimizedAffinity>
-8.51664

> <CNNscore>
0.9386685491

> <CNNaffinity>
6.3562164307

> <CNN_VS>
5.9663805962

> <CNNaffinity_variance>
0.1014941633

$$$$



 31 33  0  0  0  0  0  0  0  0999 V2000
   45.5041   15.0730    2.5085 C   0  0  0  0  0  0  0  0  0  0  0  0
   44.8158   15.2279    1.3163 C   0  0  0  0  0  0  0  0  0  0  0  0
   44.9859   13.8262    0.3357 S   0  0  0  0  0  0  0  0  0  0  0  0
   46.0274   13.0538    1.4560 C   0  0  0  0  0  0  0  0  0  0  0  0
   46.2299   13.8506    2.5608 C   0  0  0  0  0  0  0  0  0  0  0  0
   47.3645   13.4171    4.0169 Br  0  0  0  0  0  0  0  0  0  0  0  0
   46.5453   11.7223    1.1405 C   0  0  0  0  0  0  0  0  0  0  0  0
   46.3746   11.1732   -0.1337 C   0  0  0  0  0  0  0  0  0  0  0  0
   46.8965    9.9154   -0.4255 C   0  0  0  0  0  0  0  0  0  0  0  0
   47.5769    9.1923    0.5585 C   0  0  0  0  0  0  0  0  0  0  0  0
   47.7284    9.6979    1.8544 C   0  0  0  0  0  0  0  0  0  0  0  0
   47.2353   10.9853    2.1165 C   0  0  0  0  0  0  0  0  0  0  0  0
   48.4431    9.0256    2.8553 N   0  0  0  0  0  0  0  0  0  0  0  0
   48.1508    9.0730    3.7942 H   0  0  0  0  0  0  0  0  0  0  0  0
   49.6284    8.2530    2.4869 C   0  0  0  0  0  0  0  0  0  0  0  0
   49.4659    6.8087    2.9037 C   0  0  0  0  0  0  0  0  0  0  0  0
   49.8548    6.3876    4.1845 C   0  0  0  0  0  0  0  0  0  0  0  0
   49.6844    5.0582    4.5749 C   0  0  0  0  0  0  0  0  0  0  0  0
   49.1175    4.1389    3.6942 C   0  0  0  0  0  0  0  0  0  0  0  0
   48.7171    4.5476    2.4233 C   0  0  0  0  0  0  0  0  0  0  0  0
   48.8879    5.8758    2.0303 C   0  0  0  0  0  0  0  0  0  0  0  0
   44.0314   16.3619    0.8778 C   0  0  0  0  0  0  0  0  0  0  0  0
   43.8140   16.7206   -0.2719 O   0  0  0  0  0  0  0  0  0  0  0  0
   43.5067   17.0797    1.8973 O   0  0  0  0  0  0  0  0  0  0  0  0
   43.6635   16.8187    2.7834 H   0  0  0  0  0  0  0  0  0  0  0  0
   45.5693   16.0403    3.4588 O   0  0  0  0  0  0  0  0  0  0  0  0
   46.7907   16.7709    3.4178 C   0  0  0  0  0  0  0  0  0  0  0  0
   47.0597   16.6842    5.8511 O   0  0  0  0  0  0  0  0  0  0  0  0
   47.2369   17.2504    4.7841 C   0  0  0  0  0  0  0  0  0  0  0  0
   47.8792   18.4374    4.7426 O   0  0  0  0  0  0  0  0  0  0  0  0
   48.0134   18.8691    3.9218 H   0  0  0  0  0  0  0  0  0  0  0  0
 28 29  2  0
 29 30  1  0
 29 27  1  0
 27 26  1  0
 26  1  1  0
  1  2  2  0
  2 22  1  0
 22 23  2  0
 22 24  1  0
  2  3  1  0
  3  4  1  0
  4  7  1  0
  7  8  2  0
  8  9  1  0
  9 10  2  0
 10 11  1  0
 11 13  1  0
 13 15  1  0
 15 16  1  0
 16 17  2  0
 17 18  1  0
 18 19  2  0
 19 20  1  0
 20 21  2  0
 11 12  2  0
  4  5  2  0
  5  6  1  0
  5  1  1  0
 12  7  1  0
 21 16  1  0
 30 31  1  0
 24 25  1  0
 13 14  1  0
M  END
> <minimizedAffinity>
-7.00773

> <CNNscore>
0.9145464301

> <CNNaffinity>
6.3194403648

> <CNN_VS>
5.7794218063

> <CNNaffinity_variance>
0.0705394670

$$$$



 31 33  0  0  0  0  0  0  0  0999 V2000
   45.8488   15.0058    2.9123 C   0  0  0  0  0  0  0  0  0  0  0  0
   45.0555   15.7439    2.0492 C   0  0  0  0  0  0  0  0  0  0  0  0
   44.7340   14.8521    0.6150 S   0  0  0  0  0  0  0  0  0  0  0  0
   45.7044   13.5287    1.1079 C   0  0  0  0  0  0  0  0  0  0  0  0
   46.2527   13.7634    2.3491 C   0  0  0  0  0  0  0  0  0  0  0  0
   47.4437   12.5928    3.2473 Br  0  0  0  0  0  0  0  0  0  0  0  0
   45.8293   12.3722    0.2204 C   0  0  0  0  0  0  0  0  0  0  0  0
   44.9632   11.2816    0.3425 C   0  0  0  0  0  0  0  0  0  0  0  0
   45.0787   10.2000   -0.5272 C   0  0  0  0  0  0  0  0  0  0  0  0
   46.0704   10.1943   -1.5124 C   0  0  0  0  0  0  0  0  0  0  0  0
   46.9776   11.2527   -1.6331 C   0  0  0  0  0  0  0  0  0  0  0  0
   46.8171   12.3533   -0.7774 C   0  0  0  0  0  0  0  0  0  0  0  0
   47.9557   11.3066   -2.6357 N   0  0  0  0  0  0  0  0  0  0  0  0
   47.6960   11.3282   -3.5850 H   0  0  0  0  0  0  0  0  0  0  0  0
   49.3667   11.3303   -2.2532 C   0  0  0  0  0  0  0  0  0  0  0  0
   49.9320   12.7235   -2.4126 C   0  0  0  0  0  0  0  0  0  0  0  0
   51.1599   13.0666   -1.8265 C   0  0  0  0  0  0  0  0  0  0  0  0
   51.6905   14.3472   -1.9925 C   0  0  0  0  0  0  0  0  0  0  0  0
   51.0048   15.2943   -2.7510 C   0  0  0  0  0  0  0  0  0  0  0  0
   49.7897   14.9619   -3.3472 C   0  0  0  0  0  0  0  0  0  0  0  0
   49.2567   13.6828   -3.1813 C   0  0  0  0  0  0  0  0  0  0  0  0
   44.5182   17.0730    2.2447 C   0  0  0  0  0  0  0  0  0  0  0  0
   45.0847   18.0447    2.7270 O   0  0  0  0  0  0  0  0  0  0  0  0
   43.2344   17.1996    1.8376 O   0  0  0  0  0  0  0  0  0  0  0  0
   42.7860   16.4654    1.4662 H   0  0  0  0  0  0  0  0  0  0  0  0
   46.2850   15.4796    4.1074 O   0  0  0  0  0  0  0  0  0  0  0  0
   47.5639   16.0992    4.0203 C   0  0  0  0  0  0  0  0  0  0  0  0
   46.9826   17.5065    5.9393 O   0  0  0  0  0  0  0  0  0  0  0  0
   47.7777   17.1613    5.0795 C   0  0  0  0  0  0  0  0  0  0  0  0
   48.9888   17.7527    4.9965 O   0  0  0  0  0  0  0  0  0  0  0  0
   49.5965   17.4852    4.3354 H   0  0  0  0  0  0  0  0  0  0  0  0
 28 29  2  0
 29 30  1  0
 29 27  1  0
 27 26  1  0
 26  1  1  0
  1  2  2  0
  2 22  1  0
 22 23  2  0
 22 24  1  0
  2  3  1  0
  3  4  1  0
  4  7  1  0
  7  8  2  0
  8  9  1  0
  9 10  2  0
 10 11  1  0
 11 13  1  0
 13 15  1  0
 15 16  1  0
 16 17  2  0
 17 18  1  0
 18 19  2  0
 19 20  1  0
 20 21  2  0
 11 12  2  0
  4  5  2  0
  5  6  1  0
  5  1  1  0
 12  7  1  0
 21 16  1  0
 30 31  1  0
 24 25  1  0
 13 14  1  0
M  END
> <minimizedAffinity>
-7.43352

> <CNNscore>
0.9025726914

> <CNNaffinity>
6.0653691292

> <CNN_VS>
5.4744367599

> <CNNaffinity_variance>
0.1852423698

$$$$



 31 33  0  0  0  0  0  0  0  0999 V2000
   46.0791   15.0133    3.3667 C   0  0  0  0  0  0  0  0  0  0  0  0
   45.1288   15.9707    3.0512 C   0  0  0  0  0  0  0  0  0  0  0  0
   44.3168   15.5564    1.5937 S   0  0  0  0  0  0  0  0  0  0  0  0
   45.2743   14.1569    1.3474 C   0  0  0  0  0  0  0  0  0  0  0  0
   46.1881   14.0073    2.3667 C   0  0  0  0  0  0  0  0  0  0  0  0
   47.4899   12.6320    2.4625 Br  0  0  0  0  0  0  0  0  0  0  0  0
   45.0281   13.3286    0.1667 C   0  0  0  0  0  0  0  0  0  0  0  0
   44.6973   13.9131   -1.0593 C   0  0  0  0  0  0  0  0  0  0  0  0
   44.4917   13.1119   -2.1798 C   0  0  0  0  0  0  0  0  0  0  0  0
   44.5988   11.7219   -2.0779 C   0  0  0  0  0  0  0  0  0  0  0  0
   44.8885   11.1053   -0.8557 C   0  0  0  0  0  0  0  0  0  0  0  0
   45.1365   11.9311    0.2515 C   0  0  0  0  0  0  0  0  0  0  0  0
   45.0500    9.7195   -0.7214 N   0  0  0  0  0  0  0  0  0  0  0  0
   45.9486    9.3177   -0.7439 H   0  0  0  0  0  0  0  0  0  0  0  0
   43.8669    8.8784   -0.5476 C   0  0  0  0  0  0  0  0  0  0  0  0
   43.2230    8.5924   -1.8854 C   0  0  0  0  0  0  0  0  0  0  0  0
   41.8470    8.7935   -2.0725 C   0  0  0  0  0  0  0  0  0  0  0  0
   41.2581    8.5491   -3.3144 C   0  0  0  0  0  0  0  0  0  0  0  0
   42.0378    8.1095   -4.3826 C   0  0  0  0  0  0  0  0  0  0  0  0
   43.4075    7.9167   -4.2121 C   0  0  0  0  0  0  0  0  0  0  0  0
   43.9981    8.1589   -2.9710 C   0  0  0  0  0  0  0  0  0  0  0  0
   44.7901   17.1701    3.7861 C   0  0  0  0  0  0  0  0  0  0  0  0
   44.6061   17.2816    4.9909 O   0  0  0  0  0  0  0  0  0  0  0  0
   44.6668   18.2651    3.0015 O   0  0  0  0  0  0  0  0  0  0  0  0
   44.8043   18.1970    2.0771 H   0  0  0  0  0  0  0  0  0  0  0  0
   46.8929   15.1041    4.4495 O   0  0  0  0  0  0  0  0  0  0  0  0
   48.0766   15.8506    4.1875 C   0  0  0  0  0  0  0  0  0  0  0  0
   47.4315   17.4410    5.9355 O   0  0  0  0  0  0  0  0  0  0  0  0
   48.2331   17.0479    5.1028 C   0  0  0  0  0  0  0  0  0  0  0  0
   49.3966   17.7070    4.9148 O   0  0  0  0  0  0  0  0  0  0  0  0
   50.0094   17.4024    4.2748 H   0  0  0  0  0  0  0  0  0  0  0  0
 28 29  2  0
 29 30  1  0
 29 27  1  0
 27 26  1  0
 26  1  1  0
  1  2  2  0
  2 22  1  0
 22 23  2  0
 22 24  1  0
  2  3  1  0
  3  4  1  0
  4  7  1  0
  7  8  2  0
  8  9  1  0
  9 10  2  0
 10 11  1  0
 11 13  1  0
 13 15  1  0
 15 16  1  0
 16 17  2  0
 17 18  1  0
 18 19  2  0
 19 20  1  0
 20 21  2  0
 11 12  2  0
  4  5  2  0
  5  6  1  0
  5  1  1  0
 12  7  1  0
 21 16  1  0
 30 31  1  0
 24 25  1  0
 13 14  1  0
M  END
> <minimizedAffinity>
-8.22115

> <CNNscore>
0.8825624585

> <CNNaffinity>
6.2408556938

> <CNN_VS>
5.5079450607

> <CNNaffinity_variance>
0.0874716267

$$$$



 31 33  0  0  0  0  0  0  0  0999 V2000
   46.2158   15.0096    3.4673 C   0  0  0  0  0  0  0  0  0  0  0  0
   45.2418   15.8828    3.0114 C   0  0  0  0  0  0  0  0  0  0  0  0
   44.4211   15.2159    1.6560 S   0  0  0  0  0  0  0  0  0  0  0  0
   45.4049   13.8131    1.6316 C   0  0  0  0  0  0  0  0  0  0  0  0
   46.3339   13.8530    2.6474 C   0  0  0  0  0  0  0  0  0  0  0  0
   47.6655   12.5377    2.9510 Br  0  0  0  0  0  0  0  0  0  0  0  0
   45.1619   12.7949    0.6095 C   0  0  0  0  0  0  0  0  0  0  0  0
   44.9774   11.4556    0.9654 C   0  0  0  0  0  0  0  0  0  0  0  0
   44.7211   10.5029   -0.0175 C   0  0  0  0  0  0  0  0  0  0  0  0
   44.6644   10.8796   -1.3624 C   0  0  0  0  0  0  0  0  0  0  0  0
   44.8852   12.2049   -1.7533 C   0  0  0  0  0  0  0  0  0  0  0  0
   45.0973   13.1580   -0.7454 C   0  0  0  0  0  0  0  0  0  0  0  0
   44.7914   12.6316   -3.0852 N   0  0  0  0  0  0  0  0  0  0  0  0
   45.5925   12.6623   -3.6566 H   0  0  0  0  0  0  0  0  0  0  0  0
   43.4884   13.0306   -3.6149 C   0  0  0  0  0  0  0  0  0  0  0  0
   42.6859   11.8121   -4.0117 C   0  0  0  0  0  0  0  0  0  0  0  0
   43.2238   10.8583   -4.8891 C   0  0  0  0  0  0  0  0  0  0  0  0
   42.4896    9.7232   -5.2377 C   0  0  0  0  0  0  0  0  0  0  0  0
   41.2157    9.5257   -4.7083 C   0  0  0  0  0  0  0  0  0  0  0  0
   40.6751   10.4606   -3.8272 C   0  0  0  0  0  0  0  0  0  0  0  0
   41.4067   11.5968   -3.4785 C   0  0  0  0  0  0  0  0  0  0  0  0
   44.8867   17.1815    3.5413 C   0  0  0  0  0  0  0  0  0  0  0  0
   44.7500   18.2290    2.9234 O   0  0  0  0  0  0  0  0  0  0  0  0
   44.7037   17.1840    4.8817 O   0  0  0  0  0  0  0  0  0  0  0  0
   44.8045   16.3906    5.3698 H   0  0  0  0  0  0  0  0  0  0  0  0
   47.0404   15.2951    4.5072 O   0  0  0  0  0  0  0  0  0  0  0  0
   48.0957   16.1802    4.1460 C   0  0  0  0  0  0  0  0  0  0  0  0
   49.2282   18.0717    5.2139 O   0  0  0  0  0  0  0  0  0  0  0  0
   48.2680   17.3229    5.1260 C   0  0  0  0  0  0  0  0  0  0  0  0
   47.2189   17.4610    5.9649 O   0  0  0  0  0  0  0  0  0  0  0  0
   46.4837   16.8844    5.8945 H   0  0  0  0  0  0  0  0  0  0  0  0
 28 29  2  0
 29 30  1  0
 29 27  1  0
 27 26  1  0
 26  1  1  0
  1  2  2  0
  2 22  1  0
 22 23  2  0
 22 24  1  0
  2  3  1  0
  3  4  1  0
  4  7  1  0
  7  8  2  0
  8  9  1  0
  9 10  2  0
 10 11  1  0
 11 13  1  0
 13 15  1  0
 15 16  1  0
 16 17  2  0
 17 18  1  0
 18 19  2  0
 19 20  1  0
 20 21  2  0
 11 12  2  0
  4  5  2  0
  5  6  1  0
  5  1  1  0
 12  7  1  0
 21 16  1  0
 30 31  1  0
 24 25  1  0
 13 14  1  0
M  END
> <minimizedAffinity>
-7.98032

> <CNNscore>
0.8792660236

> <CNNaffinity>
6.2404861450

> <CNN_VS>
5.4870476723

> <CNNaffinity_variance>
0.1062380299

$$$$



 31 33  0  0  0  0  0  0  0  0999 V2000
   46.1302   15.0671    3.4322 C   0  0  0  0  0  0  0  0  0  0  0  0
   45.1938   15.9818    2.9787 C   0  0  0  0  0  0  0  0  0  0  0  0
   44.3983   15.3849    1.5764 S   0  0  0  0  0  0  0  0  0  0  0  0
   45.3455   13.9577    1.5316 C   0  0  0  0  0  0  0  0  0  0  0  0
   46.2434   13.9370    2.5755 C   0  0  0  0  0  0  0  0  0  0  0  0
   47.5302   12.5762    2.8719 Br  0  0  0  0  0  0  0  0  0  0  0  0
   45.1079   12.9826    0.4669 C   0  0  0  0  0  0  0  0  0  0  0  0
   44.9755   11.6224    0.7610 C   0  0  0  0  0  0  0  0  0  0  0  0
   44.7234   10.7103   -0.2609 C   0  0  0  0  0  0  0  0  0  0  0  0
   44.6191   11.1497   -1.5837 C   0  0  0  0  0  0  0  0  0  0  0  0
   44.7871   12.4989   -1.9144 C   0  0  0  0  0  0  0  0  0  0  0  0
   44.9957   13.4086   -0.8664 C   0  0  0  0  0  0  0  0  0  0  0  0
   44.6444   12.9862   -3.2208 N   0  0  0  0  0  0  0  0  0  0  0  0
   44.0202   12.5552   -3.8484 H   0  0  0  0  0  0  0  0  0  0  0  0
   45.4345   14.1429   -3.6395 C   0  0  0  0  0  0  0  0  0  0  0  0
   46.8372   13.7163   -4.0094 C   0  0  0  0  0  0  0  0  0  0  0  0
   47.9249   14.0529   -3.1894 C   0  0  0  0  0  0  0  0  0  0  0  0
   49.2165   13.6400   -3.5215 C   0  0  0  0  0  0  0  0  0  0  0  0
   49.4333   12.8812   -4.6702 C   0  0  0  0  0  0  0  0  0  0  0  0
   48.3595   12.5313   -5.4867 C   0  0  0  0  0  0  0  0  0  0  0  0
   47.0676   12.9443   -5.1575 C   0  0  0  0  0  0  0  0  0  0  0  0
   44.8565   17.2704    3.5436 C   0  0  0  0  0  0  0  0  0  0  0  0
   44.7589   18.3407    2.9583 O   0  0  0  0  0  0  0  0  0  0  0  0
   44.6417   17.2330    4.8788 O   0  0  0  0  0  0  0  0  0  0  0  0
   44.7124   16.4216    5.3421 H   0  0  0  0  0  0  0  0  0  0  0  0
   46.9294   15.2937    4.5059 O   0  0  0  0  0  0  0  0  0  0  0  0
   48.0733   16.0783    4.1848 C   0  0  0  0  0  0  0  0  0  0  0  0
   49.1566   18.0826    5.0850 O   0  0  0  0  0  0  0  0  0  0  0  0
   48.2297   17.2880    5.0837 C   0  0  0  0  0  0  0  0  0  0  0  0
   47.2084   17.4332    5.9549 O   0  0  0  0  0  0  0  0  0  0  0  0
   46.4986   16.8214    5.9510 H   0  0  0  0  0  0  0  0  0  0  0  0
 28 29  2  0
 29 30  1  0
 29 27  1  0
 27 26  1  0
 26  1  1  0
  1  2  2  0
  2 22  1  0
 22 23  2  0
 22 24  1  0
  2  3  1  0
  3  4  1  0
  4  7  1  0
  7  8  2  0
  8  9  1  0
  9 10  2  0
 10 11  1  0
 11 13  1  0
 13 15  1  0
 15 16  1  0
 16 17  2  0
 17 18  1  0
 18 19  2  0
 19 20  1  0
 20 21  2  0
 11 12  2  0
  4  5  2  0
  5  6  1  0
  5  1  1  0
 12  7  1  0
 21 16  1  0
 30 31  1  0
 24 25  1  0
 13 14  1  0
M  END
> <minimizedAffinity>
-7.57762

> <CNNscore>
0.8618794680

> <CNNaffinity>
5.9212279320

> <CNN_VS>
5.1033849716

> <CNNaffinity_variance>
0.0984702930

$$$$



 31 33  0  0  0  0  0  0  0  0999 V2000
   45.4425   14.6020    2.0664 C   0  0  0  0  0  0  0  0  0  0  0  0
   44.8404   15.0711    0.9103 C   0  0  0  0  0  0  0  0  0  0  0  0
   44.8244   13.8494   -0.2991 S   0  0  0  0  0  0  0  0  0  0  0  0
   45.6783   12.7344    0.6826 C   0  0  0  0  0  0  0  0  0  0  0  0
   45.9588   13.2853    1.9132 C   0  0  0  0  0  0  0  0  0  0  0  0
   46.9446   12.4263    3.2863 Br  0  0  0  0  0  0  0  0  0  0  0  0
   45.9879   11.4092    0.1452 C   0  0  0  0  0  0  0  0  0  0  0  0
   44.9780   10.4608   -0.0419 C   0  0  0  0  0  0  0  0  0  0  0  0
   45.2854    9.2131   -0.5790 C   0  0  0  0  0  0  0  0  0  0  0  0
   46.6053    8.9000   -0.9164 C   0  0  0  0  0  0  0  0  0  0  0  0
   47.6436    9.8135   -0.7031 C   0  0  0  0  0  0  0  0  0  0  0  0
   47.3080   11.0811   -0.2032 C   0  0  0  0  0  0  0  0  0  0  0  0
   48.9716    9.5560   -1.0703 N   0  0  0  0  0  0  0  0  0  0  0  0
   49.1763    9.1253   -1.9316 H   0  0  0  0  0  0  0  0  0  0  0  0
   50.0489    9.9353   -0.1575 C   0  0  0  0  0  0  0  0  0  0  0  0
   50.9933   10.9046   -0.8317 C   0  0  0  0  0  0  0  0  0  0  0  0
   50.6416   12.2545   -0.9835 C   0  0  0  0  0  0  0  0  0  0  0  0
   51.5237   13.1525   -1.5873 C   0  0  0  0  0  0  0  0  0  0  0  0
   52.7674   12.7135   -2.0378 C   0  0  0  0  0  0  0  0  0  0  0  0
   53.1325   11.3775   -1.8826 C   0  0  0  0  0  0  0  0  0  0  0  0
   52.2516   10.4777   -1.2808 C   0  0  0  0  0  0  0  0  0  0  0  0
   44.2688   16.3778    0.6670 C   0  0  0  0  0  0  0  0  0  0  0  0
   43.5182   16.7079   -0.2414 O   0  0  0  0  0  0  0  0  0  0  0  0
   44.6467   17.3077    1.5740 O   0  0  0  0  0  0  0  0  0  0  0  0
   45.2210   17.0715    2.2757 H   0  0  0  0  0  0  0  0  0  0  0  0
   45.6217   15.3678    3.1729 O   0  0  0  0  0  0  0  0  0  0  0  0
   46.9933   15.6486    3.4319 C   0  0  0  0  0  0  0  0  0  0  0  0
   46.4146   18.0002    3.8007 O   0  0  0  0  0  0  0  0  0  0  0  0
   47.2437   17.1046    3.7682 C   0  0  0  0  0  0  0  0  0  0  0  0
   48.5404   17.3683    4.0373 O   0  0  0  0  0  0  0  0  0  0  0  0
   49.1739   16.6785    4.0114 H   0  0  0  0  0  0  0  0  0  0  0  0
 28 29  2  0
 29 30  1  0
 29 27  1  0
 27 26  1  0
 26  1  1  0
  1  2  2  0
  2 22  1  0
 22 23  2  0
 22 24  1  0
  2  3  1  0
  3  4  1  0
  4  7  1  0
  7  8  2  0
  8  9  1  0
  9 10  2  0
 10 11  1  0
 11 13  1  0
 13 15  1  0
 15 16  1  0
 16 17  2  0
 17 18  1  0
 18 19  2  0
 19 20  1  0
 20 21  2  0
 11 12  2  0
  4  5  2  0
  5  6  1  0
  5  1  1  0
 12  7  1  0
 21 16  1  0
 30 31  1  0
 24 25  1  0
 13 14  1  0
M  END
> <minimizedAffinity>
-6.35786

> <CNNscore>
0.8070338368

> <CNNaffinity>
6.3075737953

> <CNN_VS>
5.0904254913

> <CNNaffinity_variance>
0.4462738931

$$$$
