


 34 37  0  0  0  0  0  0  0  0999 V2000
   40.1447   50.2152   12.1009 C   0  0  0  0  0  0  0  0  0  0  0  0
   39.9537   49.4853   10.9852 C   0  0  0  0  0  0  0  0  0  0  0  0
   38.6908   49.1706   10.5501 N   0  0  0  0  0  0  0  0  0  0  0  0
   37.5416   49.5464   11.1992 C   0  0  0  0  0  0  0  0  0  0  0  0
   36.4214   49.2559   10.7844 O   0  0  0  0  0  0  0  0  0  0  0  0
   37.7143   50.3481   12.4641 C   0  0  0  0  0  0  0  0  0  0  0  0
   38.9655   50.6395   12.8547 C   0  0  0  0  0  0  0  0  0  0  0  0
   38.6041   48.6437    9.7230 H   0  0  0  0  0  0  0  0  0  0  0  0
   42.8302   51.6446   14.0811 C   0  0  0  0  0  0  0  0  0  0  0  0
   43.9610   51.2486   13.4977 N   0  0  0  0  0  0  0  0  0  0  0  0
   43.8256   50.4727   12.4148 C   0  0  0  0  0  0  0  0  0  0  0  0
   44.9503   50.0685   11.8056 F   0  0  0  0  0  0  0  0  0  0  0  0
   42.6291   50.0722   11.8856 C   0  0  0  0  0  0  0  0  0  0  0  0
   41.5201   50.5263   12.5540 C   0  0  0  0  0  0  0  0  0  0  0  0
   41.6108   51.3176   13.6410 N   0  0  0  0  0  0  0  0  0  0  0  0
   41.6409   53.1821   15.4622 C   0  0  0  0  0  0  0  0  0  0  0  0
   42.8587   52.4433   15.2148 N   0  0  0  0  0  0  0  0  0  0  0  0
   43.6453   52.5023   15.8039 H   0  0  0  0  0  0  0  0  0  0  0  0
   36.5398   50.7058   13.0961 N   0  0  0  0  0  0  0  0  0  0  0  0
   35.6132   49.8896   13.7110 C   0  0  0  0  0  0  0  0  0  0  0  0
   35.6614   48.6659   13.7665 O   0  0  0  0  0  0  0  0  0  0  0  0
   36.3373   51.6692   13.1097 H   0  0  0  0  0  0  0  0  0  0  0  0
   34.4507   50.5917   14.3272 C   0  0  0  0  0  0  0  0  0  0  0  0
   34.5708   51.3711   15.4785 C   0  0  0  0  0  0  0  0  0  0  0  0
   33.4424   52.0091   16.0151 C   0  0  0  0  0  0  0  0  0  0  0  0
   32.1667   51.8879   15.4381 C   0  0  0  0  0  0  0  0  0  0  0  0
   32.0751   51.0811   14.2922 C   0  0  0  0  0  0  0  0  0  0  0  0
   33.1931   50.4379   13.7435 C   0  0  0  0  0  0  0  0  0  0  0  0
   31.0576   52.5248   15.9774 N   0  0  0  0  0  0  0  0  0  0  0  0
   31.2074   53.5355   17.0301 C   0  0  0  0  0  0  0  0  0  0  0  0
   30.0534   54.5341   16.9815 C   0  0  0  0  0  0  0  0  0  0  0  0
   28.6955   53.8571   17.1475 C   0  0  0  0  0  0  0  0  0  0  0  0
   28.6921   52.4146   16.6486 C   0  0  0  0  0  0  0  0  0  0  0  0
   29.7027   52.1884   15.5266 C   0  0  0  0  0  0  0  0  0  0  0  0
 16 17  1  0
 17  9  1  0
  9 10  2  0
 10 11  1  0
 11 12  1  0
 11 13  2  0
 13 14  1  0
 14  1  1  0
  1  2  2  0
  2  3  1  0
  3  4  1  0
  4  5  2  0
  4  6  1  0
  6 19  1  0
 19 20  1  0
 20 21  2  0
 20 23  1  0
 23 24  2  0
 24 25  1  0
 25 26  2  0
 26 29  1  0
 29 30  1  0
 30 31  1  0
 31 32  1  0
 32 33  1  0
 33 34  1  0
 26 27  1  0
 27 28  2  0
  6  7  2  0
 14 15  2  0
 15  9  1  0
  7  1  1  0
 28 23  1  0
 34 29  1  0
 17 18  1  0
  3  8  1  0
 19 22  1  0
M  END
> <minimizedAffinity>
-9.81230

> <CNNscore>
0.9812253118

> <CNNaffinity>
7.9036154747

> <CNN_VS>
7.7552275658

> <CNNaffinity_variance>
0.0102400454

$$$$



 34 37  0  0  0  0  0  0  0  0999 V2000
   39.6583   50.9833   13.0018 C   0  0  0  0  0  0  0  0  0  0  0  0
   39.7504   50.1540   11.9445 C   0  0  0  0  0  0  0  0  0  0  0  0
   38.6296   49.6091   11.3698 N   0  0  0  0  0  0  0  0  0  0  0  0
   37.3520   49.8400   11.8142 C   0  0  0  0  0  0  0  0  0  0  0  0
   36.3640   49.3434   11.2771 O   0  0  0  0  0  0  0  0  0  0  0  0
   37.2087   50.7477   13.0093 C   0  0  0  0  0  0  0  0  0  0  0  0
   38.3283   51.2646   13.5407 C   0  0  0  0  0  0  0  0  0  0  0  0
   38.7493   49.0172   10.5922 H   0  0  0  0  0  0  0  0  0  0  0  0
   43.1817   51.6944   13.5085 C   0  0  0  0  0  0  0  0  0  0  0  0
   43.2464   52.4363   14.6136 N   0  0  0  0  0  0  0  0  0  0  0  0
   42.0782   52.7170   15.2047 C   0  0  0  0  0  0  0  0  0  0  0  0
   42.1191   53.4557   16.3237 F   0  0  0  0  0  0  0  0  0  0  0  0
   40.8551   52.2999   14.7549 C   0  0  0  0  0  0  0  0  0  0  0  0
   40.8869   51.5440   13.6102 C   0  0  0  0  0  0  0  0  0  0  0  0
   42.0408   51.2292   12.9894 N   0  0  0  0  0  0  0  0  0  0  0  0
   44.2433   50.1207   12.0655 C   0  0  0  0  0  0  0  0  0  0  0  0
   44.3331   51.3544   12.8137 N   0  0  0  0  0  0  0  0  0  0  0  0
   45.1465   51.9090   12.8289 H   0  0  0  0  0  0  0  0  0  0  0  0
   35.9117   50.9555   13.4351 N   0  0  0  0  0  0  0  0  0  0  0  0
   35.3230   50.5591   14.6180 C   0  0  0  0  0  0  0  0  0  0  0  0
   35.8614   49.9007   15.5008 O   0  0  0  0  0  0  0  0  0  0  0  0
   35.3313   51.4513   12.8134 H   0  0  0  0  0  0  0  0  0  0  0  0
   33.8974   50.9618   14.7900 C   0  0  0  0  0  0  0  0  0  0  0  0
   33.4524   51.6879   15.8957 C   0  0  0  0  0  0  0  0  0  0  0  0
   32.0988   52.0396   16.0059 C   0  0  0  0  0  0  0  0  0  0  0  0
   31.1481   51.6773   15.0363 C   0  0  0  0  0  0  0  0  0  0  0  0
   31.6234   50.9304   13.9460 C   0  0  0  0  0  0  0  0  0  0  0  0
   32.9727   50.5720   13.8211 C   0  0  0  0  0  0  0  0  0  0  0  0
   29.8115   52.0319   15.1556 N   0  0  0  0  0  0  0  0  0  0  0  0
   28.7540   51.0175   15.0840 C   0  0  0  0  0  0  0  0  0  0  0  0
   27.5296   51.4638   15.8797 C   0  0  0  0  0  0  0  0  0  0  0  0
   26.9656   52.7902   15.3774 C   0  0  0  0  0  0  0  0  0  0  0  0
   28.0308   53.6801   14.7426 C   0  0  0  0  0  0  0  0  0  0  0  0
   29.4172   53.4337   15.3330 C   0  0  0  0  0  0  0  0  0  0  0  0
 16 17  1  0
 17  9  1  0
  9 10  2  0
 10 11  1  0
 11 12  1  0
 11 13  2  0
 13 14  1  0
 14  1  1  0
  1  2  2  0
  2  3  1  0
  3  4  1  0
  4  5  2  0
  4  6  1  0
  6 19  1  0
 19 20  1  0
 20 21  2  0
 20 23  1  0
 23 24  2  0
 24 25  1  0
 25 26  2  0
 26 29  1  0
 29 30  1  0
 30 31  1  0
 31 32  1  0
 32 33  1  0
 33 34  1  0
 26 27  1  0
 27 28  2  0
  6  7  2  0
 14 15  2  0
 15  9  1  0
  7  1  1  0
 28 23  1  0
 34 29  1  0
 17 18  1  0
  3  8  1  0
 19 22  1  0
M  END
> <minimizedAffinity>
-8.60292

> <CNNscore>
0.9323043227

> <CNNaffinity>
7.7651324272

> <CNN_VS>
7.2394666672

> <CNNaffinity_variance>
0.0358341038

$$$$



 34 37  0  0  0  0  0  0  0  0999 V2000
   39.6674   51.0365   13.4788 C   0  0  0  0  0  0  0  0  0  0  0  0
   39.4344   50.6041   12.2246 C   0  0  0  0  0  0  0  0  0  0  0  0
   38.1750   50.2348   11.8234 N   0  0  0  0  0  0  0  0  0  0  0  0
   37.0735   50.2573   12.6415 C   0  0  0  0  0  0  0  0  0  0  0  0
   35.9544   49.9265   12.2548 O   0  0  0  0  0  0  0  0  0  0  0  0
   37.2976   50.7165   14.0597 C   0  0  0  0  0  0  0  0  0  0  0  0
   38.5428   51.0735   14.4129 C   0  0  0  0  0  0  0  0  0  0  0  0
   38.0547   49.9359   10.8931 H   0  0  0  0  0  0  0  0  0  0  0  0
   42.3527   52.4777   15.4507 C   0  0  0  0  0  0  0  0  0  0  0  0
   43.4721   52.2383   14.7684 N   0  0  0  0  0  0  0  0  0  0  0  0
   43.3298   51.5670   13.6185 C   0  0  0  0  0  0  0  0  0  0  0  0
   44.4422   51.3217   12.9101 F   0  0  0  0  0  0  0  0  0  0  0  0
   42.1371   51.1237   13.1154 C   0  0  0  0  0  0  0  0  0  0  0  0
   41.0403   51.4138   13.8871 C   0  0  0  0  0  0  0  0  0  0  0  0
   41.1372   52.0961   15.0452 N   0  0  0  0  0  0  0  0  0  0  0  0
   42.8749   54.5165   16.5714 C   0  0  0  0  0  0  0  0  0  0  0  0
   42.3901   53.1574   16.6593 N   0  0  0  0  0  0  0  0  0  0  0  0
   42.1089   52.7471   17.5089 H   0  0  0  0  0  0  0  0  0  0  0  0
   36.1712   50.7226   14.8586 N   0  0  0  0  0  0  0  0  0  0  0  0
   35.6530   51.7617   15.6033 C   0  0  0  0  0  0  0  0  0  0  0  0
   36.1449   52.8791   15.7135 O   0  0  0  0  0  0  0  0  0  0  0  0
   35.6729   49.8746   14.9024 H   0  0  0  0  0  0  0  0  0  0  0  0
   34.3984   51.4523   16.3478 C   0  0  0  0  0  0  0  0  0  0  0  0
   33.1317   51.6861   15.8107 C   0  0  0  0  0  0  0  0  0  0  0  0
   31.9848   51.3759   16.5567 C   0  0  0  0  0  0  0  0  0  0  0  0
   32.0558   50.8374   17.8528 C   0  0  0  0  0  0  0  0  0  0  0  0
   33.3442   50.6321   18.3728 C   0  0  0  0  0  0  0  0  0  0  0  0
   34.4996   50.9361   17.6397 C   0  0  0  0  0  0  0  0  0  0  0  0
   30.9139   50.5333   18.5811 N   0  0  0  0  0  0  0  0  0  0  0  0
   30.4254   49.1531   18.6741 C   0  0  0  0  0  0  0  0  0  0  0  0
   29.6570   48.9441   19.9769 C   0  0  0  0  0  0  0  0  0  0  0  0
   28.4665   49.8907   20.1044 C   0  0  0  0  0  0  0  0  0  0  0  0
   28.6754   51.2034   19.3542 C   0  0  0  0  0  0  0  0  0  0  0  0
   30.1503   51.5866   19.2589 C   0  0  0  0  0  0  0  0  0  0  0  0
 16 17  1  0
 17  9  1  0
  9 10  2  0
 10 11  1  0
 11 12  1  0
 11 13  2  0
 13 14  1  0
 14  1  1  0
  1  2  2  0
  2  3  1  0
  3  4  1  0
  4  5  2  0
  4  6  1  0
  6 19  1  0
 19 20  1  0
 20 21  2  0
 20 23  1  0
 23 24  2  0
 24 25  1  0
 25 26  2  0
 26 29  1  0
 29 30  1  0
 30 31  1  0
 31 32  1  0
 32 33  1  0
 33 34  1  0
 26 27  1  0
 27 28  2  0
  6  7  2  0
 14 15  2  0
 15  9  1  0
  7  1  1  0
 28 23  1  0
 34 29  1  0
 17 18  1  0
  3  8  1  0
 19 22  1  0
M  END
> <minimizedAffinity>
-8.41352

> <CNNscore>
0.4764576256

> <CNNaffinity>
7.3745112419

> <CNN_VS>
3.5136420727

> <CNNaffinity_variance>
0.3353768885

$$$$



 34 37  0  0  0  0  0  0  0  0999 V2000
   37.8628   51.0781   13.7747 C   0  0  0  0  0  0  0  0  0  0  0  0
   37.6556   50.3785   12.6426 C   0  0  0  0  0  0  0  0  0  0  0  0
   36.4566   49.7556   12.4021 N   0  0  0  0  0  0  0  0  0  0  0  0
   35.3957   49.7752   13.2722 C   0  0  0  0  0  0  0  0  0  0  0  0
   34.3296   49.2133   13.0295 O   0  0  0  0  0  0  0  0  0  0  0  0
   35.5957   50.5317   14.5607 C   0  0  0  0  0  0  0  0  0  0  0  0
   36.7810   51.1311   14.7573 C   0  0  0  0  0  0  0  0  0  0  0  0
   36.3514   49.2655   11.5547 H   0  0  0  0  0  0  0  0  0  0  0  0
   40.6755   52.4977   15.5773 C   0  0  0  0  0  0  0  0  0  0  0  0
   41.5134   52.9487   14.6444 N   0  0  0  0  0  0  0  0  0  0  0  0
   41.1343   52.7662   13.3732 C   0  0  0  0  0  0  0  0  0  0  0  0
   41.9581   53.2197   12.4165 F   0  0  0  0  0  0  0  0  0  0  0  0
   39.9705   52.1608   12.9845 C   0  0  0  0  0  0  0  0  0  0  0  0
   39.1728   51.7268   14.0131 C   0  0  0  0  0  0  0  0  0  0  0  0
   39.5109   51.8997   15.3061 N   0  0  0  0  0  0  0  0  0  0  0  0
   41.7653   53.7940   17.2558 C   0  0  0  0  0  0  0  0  0  0  0  0
   40.9774   52.6280   16.9249 N   0  0  0  0  0  0  0  0  0  0  0  0
   40.6789   51.9784   17.6018 H   0  0  0  0  0  0  0  0  0  0  0  0
   34.5120   50.5279   15.4167 N   0  0  0  0  0  0  0  0  0  0  0  0
   33.2759   51.1137   15.2387 C   0  0  0  0  0  0  0  0  0  0  0  0
   32.9358   51.7904   14.2748 O   0  0  0  0  0  0  0  0  0  0  0  0
   34.6382   50.0440   16.2647 H   0  0  0  0  0  0  0  0  0  0  0  0
   32.3034   50.9066   16.3502 C   0  0  0  0  0  0  0  0  0  0  0  0
   31.0762   50.2692   16.1626 C   0  0  0  0  0  0  0  0  0  0  0  0
   30.1995   50.1018   17.2450 C   0  0  0  0  0  0  0  0  0  0  0  0
   30.5041   50.5662   18.5360 C   0  0  0  0  0  0  0  0  0  0  0  0
   31.7374   51.2206   18.6880 C   0  0  0  0  0  0  0  0  0  0  0  0
   32.6245   51.3948   17.6169 C   0  0  0  0  0  0  0  0  0  0  0  0
   29.6291   50.3939   19.5996 N   0  0  0  0  0  0  0  0  0  0  0  0
   28.6667   51.4408   19.9601 C   0  0  0  0  0  0  0  0  0  0  0  0
   27.4353   50.8299   20.6249 C   0  0  0  0  0  0  0  0  0  0  0  0
   27.7888   50.0407   21.8826 C   0  0  0  0  0  0  0  0  0  0  0  0
   29.1989   49.4586   21.8353 C   0  0  0  0  0  0  0  0  0  0  0  0
   29.6578   49.1700   20.4079 C   0  0  0  0  0  0  0  0  0  0  0  0
 16 17  1  0
 17  9  1  0
  9 10  2  0
 10 11  1  0
 11 12  1  0
 11 13  2  0
 13 14  1  0
 14  1  1  0
  1  2  2  0
  2  3  1  0
  3  4  1  0
  4  5  2  0
  4  6  1  0
  6 19  1  0
 19 20  1  0
 20 21  2  0
 20 23  1  0
 23 24  2  0
 24 25  1  0
 25 26  2  0
 26 29  1  0
 29 30  1  0
 30 31  1  0
 31 32  1  0
 32 33  1  0
 33 34  1  0
 26 27  1  0
 27 28  2  0
  6  7  2  0
 14 15  2  0
 15  9  1  0
  7  1  1  0
 28 23  1  0
 34 29  1  0
 17 18  1  0
  3  8  1  0
 19 22  1  0
M  END
> <minimizedAffinity>
-7.18793

> <CNNscore>
0.4328519106

> <CNNaffinity>
7.2089824677

> <CNN_VS>
3.1204218864

> <CNNaffinity_variance>
0.4877923429

$$$$



 34 37  0  0  0  0  0  0  0  0999 V2000
   39.2443   51.3877   14.5775 C   0  0  0  0  0  0  0  0  0  0  0  0
   39.6345   51.0330   13.3381 C   0  0  0  0  0  0  0  0  0  0  0  0
   38.7347   50.5504   12.4212 N   0  0  0  0  0  0  0  0  0  0  0  0
   37.3981   50.3762   12.6788 C   0  0  0  0  0  0  0  0  0  0  0  0
   36.6117   49.9471   11.8369 O   0  0  0  0  0  0  0  0  0  0  0  0
   36.9258   50.7431   14.0625 C   0  0  0  0  0  0  0  0  0  0  0  0
   37.8354   51.2158   14.9298 C   0  0  0  0  0  0  0  0  0  0  0  0
   39.0679   50.3150   11.5252 H   0  0  0  0  0  0  0  0  0  0  0  0
   41.0471   51.7788   17.7037 C   0  0  0  0  0  0  0  0  0  0  0  0
   41.9542   52.7297   17.4824 N   0  0  0  0  0  0  0  0  0  0  0  0
   41.9728   53.2516   16.2494 C   0  0  0  0  0  0  0  0  0  0  0  0
   42.8721   54.2166   16.0056 F   0  0  0  0  0  0  0  0  0  0  0  0
   41.1397   52.8777   15.2304 C   0  0  0  0  0  0  0  0  0  0  0  0
   40.2413   51.8912   15.5503 C   0  0  0  0  0  0  0  0  0  0  0  0
   40.1813   51.3462   16.7813 N   0  0  0  0  0  0  0  0  0  0  0  0
   40.5744   52.0491   20.0251 C   0  0  0  0  0  0  0  0  0  0  0  0
   40.9500   51.1657   18.9441 N   0  0  0  0  0  0  0  0  0  0  0  0
   41.1231   50.2058   19.0777 H   0  0  0  0  0  0  0  0  0  0  0  0
   35.5776   50.5513   14.2917 N   0  0  0  0  0  0  0  0  0  0  0  0
   34.7164   51.3240   15.0426 C   0  0  0  0  0  0  0  0  0  0  0  0
   35.0240   52.3220   15.6846 O   0  0  0  0  0  0  0  0  0  0  0  0
   35.1790   49.7596   13.8631 H   0  0  0  0  0  0  0  0  0  0  0  0
   33.3003   50.8572   15.0749 C   0  0  0  0  0  0  0  0  0  0  0  0
   32.5203   50.9105   16.2309 C   0  0  0  0  0  0  0  0  0  0  0  0
   31.1930   50.4570   16.2036 C   0  0  0  0  0  0  0  0  0  0  0  0
   30.6037   49.9310   15.0412 C   0  0  0  0  0  0  0  0  0  0  0  0
   31.4203   49.8726   13.9001 C   0  0  0  0  0  0  0  0  0  0  0  0
   32.7477   50.3225   13.9111 C   0  0  0  0  0  0  0  0  0  0  0  0
   29.2889   49.4863   15.0259 N   0  0  0  0  0  0  0  0  0  0  0  0
   28.3609   49.9159   13.9739 C   0  0  0  0  0  0  0  0  0  0  0  0
   27.2842   48.8577   13.7453 C   0  0  0  0  0  0  0  0  0  0  0  0
   26.4826   48.5654   15.0109 C   0  0  0  0  0  0  0  0  0  0  0  0
   27.2867   48.8062   16.2856 C   0  0  0  0  0  0  0  0  0  0  0  0
   28.7838   48.5928   16.0740 C   0  0  0  0  0  0  0  0  0  0  0  0
 16 17  1  0
 17  9  1  0
  9 10  2  0
 10 11  1  0
 11 12  1  0
 11 13  2  0
 13 14  1  0
 14  1  1  0
  1  2  2  0
  2  3  1  0
  3  4  1  0
  4  5  2  0
  4  6  1  0
  6 19  1  0
 19 20  1  0
 20 21  2  0
 20 23  1  0
 23 24  2  0
 24 25  1  0
 25 26  2  0
 26 29  1  0
 29 30  1  0
 30 31  1  0
 31 32  1  0
 32 33  1  0
 33 34  1  0
 26 27  1  0
 27 28  2  0
  6  7  2  0
 14 15  2  0
 15  9  1  0
  7  1  1  0
 28 23  1  0
 34 29  1  0
 17 18  1  0
  3  8  1  0
 19 22  1  0
M  END
> <minimizedAffinity>
-8.47480

> <CNNscore>
0.3507868350

> <CNNaffinity>
7.0781168938

> <CNN_VS>
2.4829101562

> <CNNaffinity_variance>
0.1508557051

$$$$



 34 37  0  0  0  0  0  0  0  0999 V2000
   38.0677   51.5324   14.5382 C   0  0  0  0  0  0  0  0  0  0  0  0
   39.3506   51.8628   14.2954 C   0  0  0  0  0  0  0  0  0  0  0  0
   40.0679   52.6247   15.1833 N   0  0  0  0  0  0  0  0  0  0  0  0
   39.5561   53.1173   16.3574 C   0  0  0  0  0  0  0  0  0  0  0  0
   40.2226   53.7931   17.1386 O   0  0  0  0  0  0  0  0  0  0  0  0
   38.1160   52.7857   16.6555 C   0  0  0  0  0  0  0  0  0  0  0  0
   37.4491   52.0345   15.7646 C   0  0  0  0  0  0  0  0  0  0  0  0
   41.0056   52.8302   14.9649 H   0  0  0  0  0  0  0  0  0  0  0  0
   35.2876   49.7902   12.9850 C   0  0  0  0  0  0  0  0  0  0  0  0
   35.7862   49.2144   11.8915 N   0  0  0  0  0  0  0  0  0  0  0  0
   37.0886   49.4201   11.6583 C   0  0  0  0  0  0  0  0  0  0  0  0
   37.6148   48.8432   10.5675 F   0  0  0  0  0  0  0  0  0  0  0  0
   37.9161   50.1659   12.4528 C   0  0  0  0  0  0  0  0  0  0  0  0
   37.3146   50.7214   13.5538 C   0  0  0  0  0  0  0  0  0  0  0  0
   36.0098   50.5311   13.8319 N   0  0  0  0  0  0  0  0  0  0  0  0
   33.4283   50.6777   14.1853 C   0  0  0  0  0  0  0  0  0  0  0  0
   33.9476   49.6479   13.3136 N   0  0  0  0  0  0  0  0  0  0  0  0
   33.3944   48.9051   12.9799 H   0  0  0  0  0  0  0  0  0  0  0  0
   37.6295   53.3004   17.8410 N   0  0  0  0  0  0  0  0  0  0  0  0
   37.4385   52.6521   19.0435 C   0  0  0  0  0  0  0  0  0  0  0  0
   37.6397   51.4616   19.2556 O   0  0  0  0  0  0  0  0  0  0  0  0
   37.3873   54.2545   17.8260 H   0  0  0  0  0  0  0  0  0  0  0  0
   36.9140   53.5007   20.1520 C   0  0  0  0  0  0  0  0  0  0  0  0
   36.5087   52.9673   21.3763 C   0  0  0  0  0  0  0  0  0  0  0  0
   36.0227   53.8135   22.3842 C   0  0  0  0  0  0  0  0  0  0  0  0
   35.9142   55.2036   22.2091 C   0  0  0  0  0  0  0  0  0  0  0  0
   36.3114   55.7073   20.9597 C   0  0  0  0  0  0  0  0  0  0  0  0
   36.7998   54.8752   19.9430 C   0  0  0  0  0  0  0  0  0  0  0  0
   35.4328   56.0311   23.2142 N   0  0  0  0  0  0  0  0  0  0  0  0
   35.9003   55.8864   24.5972 C   0  0  0  0  0  0  0  0  0  0  0  0
   35.8081   57.2197   25.3356 C   0  0  0  0  0  0  0  0  0  0  0  0
   34.3850   57.7708   25.3587 C   0  0  0  0  0  0  0  0  0  0  0  0
   33.5598   57.3205   24.1562 C   0  0  0  0  0  0  0  0  0  0  0  0
   34.4257   57.0582   22.9263 C   0  0  0  0  0  0  0  0  0  0  0  0
 16 17  1  0
 17  9  1  0
  9 10  2  0
 10 11  1  0
 11 12  1  0
 11 13  2  0
 13 14  1  0
 14  1  1  0
  1  2  2  0
  2  3  1  0
  3  4  1  0
  4  5  2  0
  4  6  1  0
  6 19  1  0
 19 20  1  0
 20 21  2  0
 20 23  1  0
 23 24  2  0
 24 25  1  0
 25 26  2  0
 26 29  1  0
 29 30  1  0
 30 31  1  0
 31 32  1  0
 32 33  1  0
 33 34  1  0
 26 27  1  0
 27 28  2  0
  6  7  2  0
 14 15  2  0
 15  9  1  0
  7  1  1  0
 28 23  1  0
 34 29  1  0
 17 18  1  0
  3  8  1  0
 19 22  1  0
M  END
> <minimizedAffinity>
-7.00144

> <CNNscore>
0.2941642702

> <CNNaffinity>
6.3248705864

> <CNN_VS>
1.8605508804

> <CNNaffinity_variance>
0.0761341378

$$$$



 34 37  0  0  0  0  0  0  0  0999 V2000
   38.8140   51.8767   14.4913 C   0  0  0  0  0  0  0  0  0  0  0  0
   39.5182   52.5664   15.4091 C   0  0  0  0  0  0  0  0  0  0  0  0
   38.8955   53.1854   16.4637 N   0  0  0  0  0  0  0  0  0  0  0  0
   37.5383   53.1716   16.6666 C   0  0  0  0  0  0  0  0  0  0  0  0
   37.0060   53.7299   17.6238 O   0  0  0  0  0  0  0  0  0  0  0  0
   36.7131   52.4263   15.6488 C   0  0  0  0  0  0  0  0  0  0  0  0
   37.3593   51.8303   14.6339 C   0  0  0  0  0  0  0  0  0  0  0  0
   39.4557   53.6682   17.1135 H   0  0  0  0  0  0  0  0  0  0  0  0
   39.3159   49.8975   11.4901 C   0  0  0  0  0  0  0  0  0  0  0  0
   40.6258   49.9328   11.2475 N   0  0  0  0  0  0  0  0  0  0  0  0
   41.3656   50.6464   12.1058 C   0  0  0  0  0  0  0  0  0  0  0  0
   42.6882   50.6896   11.8866 F   0  0  0  0  0  0  0  0  0  0  0  0
   40.8714   51.3235   13.1872 C   0  0  0  0  0  0  0  0  0  0  0  0
   39.5127   51.2319   13.3555 C   0  0  0  0  0  0  0  0  0  0  0  0
   38.7325   50.5160   12.5219 N   0  0  0  0  0  0  0  0  0  0  0  0
   37.0849   49.1499   11.1041 C   0  0  0  0  0  0  0  0  0  0  0  0
   38.4588   49.1944   10.6565 N   0  0  0  0  0  0  0  0  0  0  0  0
   38.7618   48.7603    9.8264 H   0  0  0  0  0  0  0  0  0  0  0  0
   35.3513   52.4357   15.8781 N   0  0  0  0  0  0  0  0  0  0  0  0
   34.5846   51.4929   16.5309 C   0  0  0  0  0  0  0  0  0  0  0  0
   34.9932   50.4357   16.9980 O   0  0  0  0  0  0  0  0  0  0  0  0
   34.8642   53.2173   15.5303 H   0  0  0  0  0  0  0  0  0  0  0  0
   33.1309   51.8096   16.6336 C   0  0  0  0  0  0  0  0  0  0  0  0
   32.4925   52.0088   17.8585 C   0  0  0  0  0  0  0  0  0  0  0  0
   31.1215   52.3042   17.8956 C   0  0  0  0  0  0  0  0  0  0  0  0
   30.3431   52.4011   16.7296 C   0  0  0  0  0  0  0  0  0  0  0  0
   31.0102   52.1760   15.5144 C   0  0  0  0  0  0  0  0  0  0  0  0
   32.3794   51.8809   15.4606 C   0  0  0  0  0  0  0  0  0  0  0  0
   28.9874   52.6950   16.7787 N   0  0  0  0  0  0  0  0  0  0  0  0
   28.4315   53.8151   16.0114 C   0  0  0  0  0  0  0  0  0  0  0  0
   26.9680   53.5521   15.6646 C   0  0  0  0  0  0  0  0  0  0  0  0
   26.1081   53.3402   16.9077 C   0  0  0  0  0  0  0  0  0  0  0  0
   26.8989   52.7642   18.0792 C   0  0  0  0  0  0  0  0  0  0  0  0
   28.0762   51.9086   17.6172 C   0  0  0  0  0  0  0  0  0  0  0  0
 16 17  1  0
 17  9  1  0
  9 10  2  0
 10 11  1  0
 11 12  1  0
 11 13  2  0
 13 14  1  0
 14  1  1  0
  1  2  2  0
  2  3  1  0
  3  4  1  0
  4  5  2  0
  4  6  1  0
  6 19  1  0
 19 20  1  0
 20 21  2  0
 20 23  1  0
 23 24  2  0
 24 25  1  0
 25 26  2  0
 26 29  1  0
 29 30  1  0
 30 31  1  0
 31 32  1  0
 32 33  1  0
 33 34  1  0
 26 27  1  0
 27 28  2  0
  6  7  2  0
 14 15  2  0
 15  9  1  0
  7  1  1  0
 28 23  1  0
 34 29  1  0
 17 18  1  0
  3  8  1  0
 19 22  1  0
M  END
> <minimizedAffinity>
-7.52745

> <CNNscore>
0.2038245797

> <CNNaffinity>
6.2583947182

> <CNN_VS>
1.2756146193

> <CNNaffinity_variance>
0.1767433882

$$$$



 34 37  0  0  0  0  0  0  0  0999 V2000
   38.5377   51.1750   14.1537 C   0  0  0  0  0  0  0  0  0  0  0  0
   38.3860   50.8302   12.8606 C   0  0  0  0  0  0  0  0  0  0  0  0
   37.1864   50.3614   12.3867 N   0  0  0  0  0  0  0  0  0  0  0  0
   36.0692   50.1921   13.1653 C   0  0  0  0  0  0  0  0  0  0  0  0
   35.0042   49.7756   12.7140 O   0  0  0  0  0  0  0  0  0  0  0  0
   36.2048   50.5483   14.6238 C   0  0  0  0  0  0  0  0  0  0  0  0
   37.3930   51.0075   15.0483 C   0  0  0  0  0  0  0  0  0  0  0  0
   37.1237   50.1329   11.4311 H   0  0  0  0  0  0  0  0  0  0  0  0
   42.1374   51.4331   14.5434 C   0  0  0  0  0  0  0  0  0  0  0  0
   42.3360   52.3868   15.4527 N   0  0  0  0  0  0  0  0  0  0  0  0
   41.2360   52.9698   15.9459 C   0  0  0  0  0  0  0  0  0  0  0  0
   41.4109   53.9272   16.8691 F   0  0  0  0  0  0  0  0  0  0  0  0
   39.9552   52.6545   15.5824 C   0  0  0  0  0  0  0  0  0  0  0  0
   39.8490   51.6635   14.6393 C   0  0  0  0  0  0  0  0  0  0  0  0
   40.9290   51.0432   14.1246 N   0  0  0  0  0  0  0  0  0  0  0  0
   43.8860   51.5175   12.9245 C   0  0  0  0  0  0  0  0  0  0  0  0
   43.2097   50.7723   13.9624 N   0  0  0  0  0  0  0  0  0  0  0  0
   43.4880   49.8682   14.2351 H   0  0  0  0  0  0  0  0  0  0  0  0
   35.0652   50.3617   15.3810 N   0  0  0  0  0  0  0  0  0  0  0  0
   34.3177   51.3060   16.0536 C   0  0  0  0  0  0  0  0  0  0  0  0
   34.5719   52.5032   16.1248 O   0  0  0  0  0  0  0  0  0  0  0  0
   34.7443   49.4335   15.4498 H   0  0  0  0  0  0  0  0  0  0  0  0
   33.1178   50.7826   16.7680 C   0  0  0  0  0  0  0  0  0  0  0  0
   31.8592   50.7164   16.1688 C   0  0  0  0  0  0  0  0  0  0  0  0
   30.7645   50.2147   16.8888 C   0  0  0  0  0  0  0  0  0  0  0  0
   30.8792   49.7753   18.2187 C   0  0  0  0  0  0  0  0  0  0  0  0
   32.1540   49.8731   18.7998 C   0  0  0  0  0  0  0  0  0  0  0  0
   33.2576   50.3710   18.0935 C   0  0  0  0  0  0  0  0  0  0  0  0
   29.7891   49.2798   18.9209 N   0  0  0  0  0  0  0  0  0  0  0  0
   28.7515   50.1808   19.4345 C   0  0  0  0  0  0  0  0  0  0  0  0
   27.4127   49.4535   19.5342 C   0  0  0  0  0  0  0  0  0  0  0  0
   27.4860   48.2289   20.4423 C   0  0  0  0  0  0  0  0  0  0  0  0
   28.8804   47.6095   20.4837 C   0  0  0  0  0  0  0  0  0  0  0  0
   29.6559   47.8437   19.1894 C   0  0  0  0  0  0  0  0  0  0  0  0
 16 17  1  0
 17  9  1  0
  9 10  2  0
 10 11  1  0
 11 12  1  0
 11 13  2  0
 13 14  1  0
 14  1  1  0
  1  2  2  0
  2  3  1  0
  3  4  1  0
  4  5  2  0
  4  6  1  0
  6 19  1  0
 19 20  1  0
 20 21  2  0
 20 23  1  0
 23 24  2  0
 24 25  1  0
 25 26  2  0
 26 29  1  0
 29 30  1  0
 30 31  1  0
 31 32  1  0
 32 33  1  0
 33 34  1  0
 26 27  1  0
 27 28  2  0
  6  7  2  0
 14 15  2  0
 15  9  1  0
  7  1  1  0
 28 23  1  0
 34 29  1  0
 17 18  1  0
  3  8  1  0
 19 22  1  0
M  END
> <minimizedAffinity>
-7.69143

> <CNNscore>
0.1938551813

> <CNNaffinity>
6.9248576164

> <CNN_VS>
1.3424195051

> <CNNaffinity_variance>
0.1758557409

$$$$



 34 37  0  0  0  0  0  0  0  0999 V2000
   37.9098   51.1582   14.8403 C   0  0  0  0  0  0  0  0  0  0  0  0
   38.1140   51.5169   16.1224 C   0  0  0  0  0  0  0  0  0  0  0  0
   37.0617   51.7983   16.9572 N   0  0  0  0  0  0  0  0  0  0  0  0
   35.7455   51.7556   16.5711 C   0  0  0  0  0  0  0  0  0  0  0  0
   34.8209   52.0068   17.3413 O   0  0  0  0  0  0  0  0  0  0  0  0
   35.4767   51.3774   15.1368 C   0  0  0  0  0  0  0  0  0  0  0  0
   36.5321   51.1052   14.3527 C   0  0  0  0  0  0  0  0  0  0  0  0
   37.2631   52.0455   17.8886 H   0  0  0  0  0  0  0  0  0  0  0  0
   41.3553   50.6940   13.7964 C   0  0  0  0  0  0  0  0  0  0  0  0
   41.3066   50.4381   12.4895 N   0  0  0  0  0  0  0  0  0  0  0  0
   40.0863   50.4100   11.9390 C   0  0  0  0  0  0  0  0  0  0  0  0
   40.0129   50.1625   10.6227 F   0  0  0  0  0  0  0  0  0  0  0  0
   38.9178   50.6219   12.6187 C   0  0  0  0  0  0  0  0  0  0  0  0
   39.0662   50.8753   13.9591 C   0  0  0  0  0  0  0  0  0  0  0  0
   40.2758   50.9233   14.5512 N   0  0  0  0  0  0  0  0  0  0  0  0
   43.0017   52.0628   14.8458 C   0  0  0  0  0  0  0  0  0  0  0  0
   42.5691   50.7366   14.4663 N   0  0  0  0  0  0  0  0  0  0  0  0
   43.0940   49.9283   14.6674 H   0  0  0  0  0  0  0  0  0  0  0  0
   34.1434   51.3488   14.7784 N   0  0  0  0  0  0  0  0  0  0  0  0
   33.4964   50.4552   13.9504 C   0  0  0  0  0  0  0  0  0  0  0  0
   34.0236   49.5292   13.3442 O   0  0  0  0  0  0  0  0  0  0  0  0
   33.5811   52.0589   15.1642 H   0  0  0  0  0  0  0  0  0  0  0  0
   32.0326   50.6841   13.7806 C   0  0  0  0  0  0  0  0  0  0  0  0
   31.5135   51.8865   13.2984 C   0  0  0  0  0  0  0  0  0  0  0  0
   30.1267   52.0466   13.1591 C   0  0  0  0  0  0  0  0  0  0  0  0
   29.2163   51.0318   13.4999 C   0  0  0  0  0  0  0  0  0  0  0  0
   29.7685   49.8414   14.0006 C   0  0  0  0  0  0  0  0  0  0  0  0
   31.1516   49.6657   14.1447 C   0  0  0  0  0  0  0  0  0  0  0  0
   27.8461   51.2014   13.3568 N   0  0  0  0  0  0  0  0  0  0  0  0
   27.0106   50.1364   12.7910 C   0  0  0  0  0  0  0  0  0  0  0  0
   25.5862   50.2287   13.3331 C   0  0  0  0  0  0  0  0  0  0  0  0
   24.9353   51.5739   13.0227 C   0  0  0  0  0  0  0  0  0  0  0  0
   25.9524   52.7050   12.8976 C   0  0  0  0  0  0  0  0  0  0  0  0
   27.1982   52.4588   13.7454 C   0  0  0  0  0  0  0  0  0  0  0  0
 16 17  1  0
 17  9  1  0
  9 10  2  0
 10 11  1  0
 11 12  1  0
 11 13  2  0
 13 14  1  0
 14  1  1  0
  1  2  2  0
  2  3  1  0
  3  4  1  0
  4  5  2  0
  4  6  1  0
  6 19  1  0
 19 20  1  0
 20 21  2  0
 20 23  1  0
 23 24  2  0
 24 25  1  0
 25 26  2  0
 26 29  1  0
 29 30  1  0
 30 31  1  0
 31 32  1  0
 32 33  1  0
 33 34  1  0
 26 27  1  0
 27 28  2  0
  6  7  2  0
 14 15  2  0
 15  9  1  0
  7  1  1  0
 28 23  1  0
 34 29  1  0
 17 18  1  0
  3  8  1  0
 19 22  1  0
M  END
> <minimizedAffinity>
-8.43509

> <CNNscore>
0.1889376044

> <CNNaffinity>
6.6161999702

> <CNN_VS>
1.2500489950

> <CNNaffinity_variance>
0.0205215011

$$$$
