


 27 30  0  0  0  0  0  0  0  0999 V2000
   42.0903   31.7515   31.3824 C   0  0  0  0  0  0  0  0  0  0  0  0
   43.0706   31.1985   30.5454 C   0  0  0  0  0  0  0  0  0  0  0  0
   44.3014   31.8369   30.3676 C   0  0  0  0  0  0  0  0  0  0  0  0
   44.5709   33.0446   31.0209 C   0  0  0  0  0  0  0  0  0  0  0  0
   43.6093   33.5941   31.8765 C   0  0  0  0  0  0  0  0  0  0  0  0
   42.3785   32.9516   32.0511 C   0  0  0  0  0  0  0  0  0  0  0  0
   39.4050   29.5968   32.9562 C   0  0  0  0  0  0  0  0  0  0  0  0
   38.3706   29.7287   32.0242 C   0  0  0  0  0  0  0  0  0  0  0  0
   38.5333   30.5232   30.8864 C   0  0  0  0  0  0  0  0  0  0  0  0
   39.7344   31.2108   30.6536 C   0  0  0  0  0  0  0  0  0  0  0  0
   39.8617   32.0525   29.4110 C   0  0  0  0  0  0  0  0  0  0  0  0
   40.7969   31.0794   31.5732 C   0  0  0  0  0  0  0  0  0  0  0  0
   40.6094   30.2757   32.7155 C   0  0  0  0  0  0  0  0  0  0  0  0
   37.3497   26.3866   35.8931 C   0  0  0  0  0  0  0  0  0  0  0  0
   38.3603   27.3627   35.4550 C   0  0  0  0  0  0  0  0  0  0  0  0
   39.4522   27.7723   36.0619 N   0  0  0  0  0  0  0  0  0  0  0  0
   40.0400   28.6923   35.2178 N   0  0  0  0  0  0  0  0  0  0  0  0
   39.2648   28.7801   34.1546 C   0  0  0  0  0  0  0  0  0  0  0  0
   38.1684   27.9577   34.2378 O   0  0  0  0  0  0  0  0  0  0  0  0
   45.8958   33.6892   30.7983 C   0  0  0  0  0  0  0  0  0  0  0  0
   46.1766   34.7267   31.3873 O   0  0  0  0  0  0  0  0  0  0  0  0
   46.7554   33.0346   29.9410 N   0  0  0  0  0  0  0  0  0  0  0  0
   46.4385   32.2358   29.4608 H   0  0  0  0  0  0  0  0  0  0  0  0
   48.1095   33.4925   29.7303 C   0  0  0  0  0  0  0  0  0  0  0  0
   48.8928   33.3236   30.9946 C   0  0  0  0  0  0  0  0  0  0  0  0
   50.1036   34.1798   31.2674 C   0  0  0  0  0  0  0  0  0  0  0  0
   50.2727   32.7175   30.9589 C   0  0  0  0  0  0  0  0  0  0  0  0
 14 15  1  0
 15 16  2  0
 16 17  1  0
 17 18  2  0
 18  7  1  0
  7  8  2  0
  8  9  1  0
  9 10  2  0
 10 11  1  0
 10 12  1  0
 12  1  1  0
  1  2  2  0
  2  3  1  0
  3  4  2  0
  4 20  1  0
 20 21  2  0
 20 22  1  0
 22 24  1  0
 24 25  1  0
 25 26  1  0
 26 27  1  0
  4  5  1  0
  5  6  2  0
 12 13  2  0
 18 19  1  0
 19 15  1  0
 13  7  1  0
  6  1  1  0
 27 25  1  0
 22 23  1  0
M  END
> <minimizedAffinity>
-10.73223

> <CNNscore>
0.8972274065

> <CNNaffinity>
7.6246447563

> <CNN_VS>
6.8410401344

> <CNNaffinity_variance>
0.1010900363

$$$$



 27 30  0  0  0  0  0  0  0  0999 V2000
   49.3671   35.6563   28.9802 C   0  0  0  0  0  0  0  0  0  0  0  0
   50.1405   35.2339   27.8889 C   0  0  0  0  0  0  0  0  0  0  0  0
   50.4147   36.1026   26.8286 C   0  0  0  0  0  0  0  0  0  0  0  0
   49.9143   37.4092   26.8391 C   0  0  0  0  0  0  0  0  0  0  0  0
   49.1607   37.8491   27.9333 C   0  0  0  0  0  0  0  0  0  0  0  0
   48.8885   36.9759   28.9924 C   0  0  0  0  0  0  0  0  0  0  0  0
   47.3933   33.5668   31.4436 C   0  0  0  0  0  0  0  0  0  0  0  0
   48.4197   33.0311   32.2283 C   0  0  0  0  0  0  0  0  0  0  0  0
   49.7562   33.3358   31.9585 C   0  0  0  0  0  0  0  0  0  0  0  0
   50.1015   34.1811   30.8928 C   0  0  0  0  0  0  0  0  0  0  0  0
   51.5566   34.4813   30.6443 C   0  0  0  0  0  0  0  0  0  0  0  0
   49.0810   34.7451   30.0977 C   0  0  0  0  0  0  0  0  0  0  0  0
   47.7401   34.4213   30.3857 C   0  0  0  0  0  0  0  0  0  0  0  0
   43.3828   30.9077   31.4435 C   0  0  0  0  0  0  0  0  0  0  0  0
   44.2167   32.0934   31.6979 C   0  0  0  0  0  0  0  0  0  0  0  0
   43.8960   33.2451   32.2449 N   0  0  0  0  0  0  0  0  0  0  0  0
   45.0476   34.0057   32.2442 N   0  0  0  0  0  0  0  0  0  0  0  0
   45.9906   33.2646   31.6960 C   0  0  0  0  0  0  0  0  0  0  0  0
   45.5300   32.0269   31.3197 O   0  0  0  0  0  0  0  0  0  0  0  0
   50.2308   38.2975   25.6854 C   0  0  0  0  0  0  0  0  0  0  0  0
   51.3142   38.2018   25.1204 O   0  0  0  0  0  0  0  0  0  0  0  0
   49.2371   39.1730   25.3000 N   0  0  0  0  0  0  0  0  0  0  0  0
   48.4145   39.2323   25.8376 H   0  0  0  0  0  0  0  0  0  0  0  0
   49.3737   40.0053   24.1269 C   0  0  0  0  0  0  0  0  0  0  0  0
   48.4376   41.1686   24.2320 C   0  0  0  0  0  0  0  0  0  0  0  0
   48.1861   41.8335   25.5617 C   0  0  0  0  0  0  0  0  0  0  0  0
   47.1038   41.0117   24.9170 C   0  0  0  0  0  0  0  0  0  0  0  0
 14 15  1  0
 15 16  2  0
 16 17  1  0
 17 18  2  0
 18  7  1  0
  7  8  2  0
  8  9  1  0
  9 10  2  0
 10 11  1  0
 10 12  1  0
 12  1  1  0
  1  2  2  0
  2  3  1  0
  3  4  2  0
  4 20  1  0
 20 21  2  0
 20 22  1  0
 22 24  1  0
 24 25  1  0
 25 26  1  0
 26 27  1  0
  4  5  1  0
  5  6  2  0
 12 13  2  0
 18 19  1  0
 19 15  1  0
 13  7  1  0
  6  1  1  0
 27 25  1  0
 22 23  1  0
M  END
> <minimizedAffinity>
-7.01274

> <CNNscore>
0.6875139475

> <CNNaffinity>
6.1626439095

> <CNN_VS>
4.2369036674

> <CNNaffinity_variance>
0.1071059108

$$$$



 27 30  0  0  0  0  0  0  0  0999 V2000
   49.4576   35.6397   28.9735 C   0  0  0  0  0  0  0  0  0  0  0  0
   50.2124   35.1998   27.8763 C   0  0  0  0  0  0  0  0  0  0  0  0
   50.5248   36.0708   26.8284 C   0  0  0  0  0  0  0  0  0  0  0  0
   50.0817   37.3977   26.8578 C   0  0  0  0  0  0  0  0  0  0  0  0
   49.3474   37.8543   27.9583 C   0  0  0  0  0  0  0  0  0  0  0  0
   49.0368   36.9786   29.0047 C   0  0  0  0  0  0  0  0  0  0  0  0
   47.3969   33.5397   31.3555 C   0  0  0  0  0  0  0  0  0  0  0  0
   48.3938   33.0066   32.1789 C   0  0  0  0  0  0  0  0  0  0  0  0
   49.7387   33.3164   31.9618 C   0  0  0  0  0  0  0  0  0  0  0  0
   50.1222   34.1645   30.9114 C   0  0  0  0  0  0  0  0  0  0  0  0
   51.5848   34.4702   30.7202 C   0  0  0  0  0  0  0  0  0  0  0  0
   49.1314   34.7259   30.0779 C   0  0  0  0  0  0  0  0  0  0  0  0
   47.7815   34.3969   30.3130 C   0  0  0  0  0  0  0  0  0  0  0  0
   43.5305   30.7328   31.9276 C   0  0  0  0  0  0  0  0  0  0  0  0
   44.2759   31.9960   31.8056 C   0  0  0  0  0  0  0  0  0  0  0  0
   43.8407   33.2360   31.8436 N   0  0  0  0  0  0  0  0  0  0  0  0
   44.9511   34.0389   31.6798 N   0  0  0  0  0  0  0  0  0  0  0  0
   45.9864   33.2321   31.5527 C   0  0  0  0  0  0  0  0  0  0  0  0
   45.6289   31.9082   31.6214 O   0  0  0  0  0  0  0  0  0  0  0  0
   50.4372   38.2879   25.7169 C   0  0  0  0  0  0  0  0  0  0  0  0
   50.3277   39.5030   25.8336 O   0  0  0  0  0  0  0  0  0  0  0  0
   50.9112   37.6638   24.5820 N   0  0  0  0  0  0  0  0  0  0  0  0
   50.9177   36.6801   24.5422 H   0  0  0  0  0  0  0  0  0  0  0  0
   51.3983   38.4180   23.4500 C   0  0  0  0  0  0  0  0  0  0  0  0
   51.3209   37.5704   22.2186 C   0  0  0  0  0  0  0  0  0  0  0  0
   50.5816   38.0564   20.9977 C   0  0  0  0  0  0  0  0  0  0  0  0
   50.0168   36.9292   21.8177 C   0  0  0  0  0  0  0  0  0  0  0  0
 14 15  1  0
 15 16  2  0
 16 17  1  0
 17 18  2  0
 18  7  1  0
  7  8  2  0
  8  9  1  0
  9 10  2  0
 10 11  1  0
 10 12  1  0
 12  1  1  0
  1  2  2  0
  2  3  1  0
  3  4  2  0
  4 20  1  0
 20 21  2  0
 20 22  1  0
 22 24  1  0
 24 25  1  0
 25 26  1  0
 26 27  1  0
  4  5  1  0
  5  6  2  0
 12 13  2  0
 18 19  1  0
 19 15  1  0
 13  7  1  0
  6  1  1  0
 27 25  1  0
 22 23  1  0
M  END
> <minimizedAffinity>
-6.74689

> <CNNscore>
0.6862029433

> <CNNaffinity>
6.0285973549

> <CNN_VS>
4.1368412971

> <CNNaffinity_variance>
0.1251185089

$$$$



 27 30  0  0  0  0  0  0  0  0999 V2000
   45.7730   20.9115   23.4660 C   0  0  0  0  0  0  0  0  0  0  0  0
   46.7737   21.8938   23.4336 C   0  0  0  0  0  0  0  0  0  0  0  0
   48.0815   21.5949   23.8264 C   0  0  0  0  0  0  0  0  0  0  0  0
   48.4100   20.3072   24.2645 C   0  0  0  0  0  0  0  0  0  0  0  0
   47.4252   19.3128   24.2793 C   0  0  0  0  0  0  0  0  0  0  0  0
   46.1173   19.6168   23.8855 C   0  0  0  0  0  0  0  0  0  0  0  0
   42.1173   21.8632   23.7104 C   0  0  0  0  0  0  0  0  0  0  0  0
   41.7339   21.8145   22.3663 C   0  0  0  0  0  0  0  0  0  0  0  0
   42.6586   21.4825   21.3729 C   0  0  0  0  0  0  0  0  0  0  0  0
   43.9933   21.1952   21.6981 C   0  0  0  0  0  0  0  0  0  0  0  0
   44.9515   20.8402   20.5914 C   0  0  0  0  0  0  0  0  0  0  0  0
   44.3981   21.2234   23.0498 C   0  0  0  0  0  0  0  0  0  0  0  0
   43.4495   21.5640   24.0346 C   0  0  0  0  0  0  0  0  0  0  0  0
   38.7423   24.4755   25.9332 C   0  0  0  0  0  0  0  0  0  0  0  0
   39.6875   23.3616   25.7543 C   0  0  0  0  0  0  0  0  0  0  0  0
   39.9434   22.3413   26.5428 N   0  0  0  0  0  0  0  0  0  0  0  0
   40.9110   21.5936   25.9033 N   0  0  0  0  0  0  0  0  0  0  0  0
   41.1783   22.2107   24.7689 C   0  0  0  0  0  0  0  0  0  0  0  0
   40.4330   23.3525   24.6070 O   0  0  0  0  0  0  0  0  0  0  0  0
   49.8165   20.0369   24.6756 C   0  0  0  0  0  0  0  0  0  0  0  0
   50.1288   18.9264   25.0897 O   0  0  0  0  0  0  0  0  0  0  0  0
   50.7061   21.0803   24.5263 N   0  0  0  0  0  0  0  0  0  0  0  0
   50.3701   21.9605   24.2406 H   0  0  0  0  0  0  0  0  0  0  0  0
   52.1189   20.9134   24.7788 C   0  0  0  0  0  0  0  0  0  0  0  0
   52.6931   22.2086   25.2618 C   0  0  0  0  0  0  0  0  0  0  0  0
   53.1606   22.3565   26.6877 C   0  0  0  0  0  0  0  0  0  0  0  0
   51.9193   23.0702   26.2271 C   0  0  0  0  0  0  0  0  0  0  0  0
 14 15  1  0
 15 16  2  0
 16 17  1  0
 17 18  2  0
 18  7  1  0
  7  8  2  0
  8  9  1  0
  9 10  2  0
 10 11  1  0
 10 12  1  0
 12  1  1  0
  1  2  2  0
  2  3  1  0
  3  4  2  0
  4 20  1  0
 20 21  2  0
 20 22  1  0
 22 24  1  0
 24 25  1  0
 25 26  1  0
 26 27  1  0
  4  5  1  0
  5  6  2  0
 12 13  2  0
 18 19  1  0
 19 15  1  0
 13  7  1  0
  6  1  1  0
 27 25  1  0
 22 23  1  0
M  END
> <minimizedAffinity>
-3.26059

> <CNNscore>
0.6492000818

> <CNNaffinity>
5.0506572723

> <CNN_VS>
3.2788870335

> <CNNaffinity_variance>
0.5941725969

$$$$



 27 30  0  0  0  0  0  0  0  0999 V2000
   44.9164   20.9042   25.5184 C   0  0  0  0  0  0  0  0  0  0  0  0
   45.6383   21.6024   26.4975 C   0  0  0  0  0  0  0  0  0  0  0  0
   46.8601   21.1135   26.9690 C   0  0  0  0  0  0  0  0  0  0  0  0
   47.3789   19.9127   26.4721 C   0  0  0  0  0  0  0  0  0  0  0  0
   46.6788   19.2191   25.4783 C   0  0  0  0  0  0  0  0  0  0  0  0
   45.4559   19.7122   25.0097 C   0  0  0  0  0  0  0  0  0  0  0  0
   41.1857   21.4875   25.2501 C   0  0  0  0  0  0  0  0  0  0  0  0
   41.1221   22.3262   24.1326 C   0  0  0  0  0  0  0  0  0  0  0  0
   42.2867   22.7148   23.4659 C   0  0  0  0  0  0  0  0  0  0  0  0
   43.5469   22.2782   23.9028 C   0  0  0  0  0  0  0  0  0  0  0  0
   44.7727   22.7228   23.1487 C   0  0  0  0  0  0  0  0  0  0  0  0
   43.6332   21.4189   25.0190 C   0  0  0  0  0  0  0  0  0  0  0  0
   42.4459   21.0425   25.6783 C   0  0  0  0  0  0  0  0  0  0  0  0
   36.8474   21.9905   27.2701 C   0  0  0  0  0  0  0  0  0  0  0  0
   38.0740   21.2861   26.8635 C   0  0  0  0  0  0  0  0  0  0  0  0
   38.4275   20.0344   27.0548 N   0  0  0  0  0  0  0  0  0  0  0  0
   39.6715   19.8925   26.4745 N   0  0  0  0  0  0  0  0  0  0  0  0
   39.9903   21.0684   25.9699 C   0  0  0  0  0  0  0  0  0  0  0  0
   39.0145   22.0106   26.1831 O   0  0  0  0  0  0  0  0  0  0  0  0
   48.6833   19.4303   27.0069 C   0  0  0  0  0  0  0  0  0  0  0  0
   49.3268   18.5938   26.3839 O   0  0  0  0  0  0  0  0  0  0  0  0
   49.1056   20.0013   28.1893 N   0  0  0  0  0  0  0  0  0  0  0  0
   48.5082   20.6254   28.6613 H   0  0  0  0  0  0  0  0  0  0  0  0
   50.4031   19.7061   28.7522 C   0  0  0  0  0  0  0  0  0  0  0  0
   51.3481   20.8223   28.4333 C   0  0  0  0  0  0  0  0  0  0  0  0
   51.8916   21.7043   29.5287 C   0  0  0  0  0  0  0  0  0  0  0  0
   50.8964   22.2562   28.5452 C   0  0  0  0  0  0  0  0  0  0  0  0
 14 15  1  0
 15 16  2  0
 16 17  1  0
 17 18  2  0
 18  7  1  0
  7  8  2  0
  8  9  1  0
  9 10  2  0
 10 11  1  0
 10 12  1  0
 12  1  1  0
  1  2  2  0
  2  3  1  0
  3  4  2  0
  4 20  1  0
 20 21  2  0
 20 22  1  0
 22 24  1  0
 24 25  1  0
 25 26  1  0
 26 27  1  0
  4  5  1  0
  5  6  2  0
 12 13  2  0
 18 19  1  0
 19 15  1  0
 13  7  1  0
  6  1  1  0
 27 25  1  0
 22 23  1  0
M  END
> <minimizedAffinity>
-3.59590

> <CNNscore>
0.5777430534

> <CNNaffinity>
4.7701125145

> <CNN_VS>
2.7558994293

> <CNNaffinity_variance>
0.2575519681

$$$$



 27 30  0  0  0  0  0  0  0  0999 V2000
   46.7655   20.6178   28.4084 C   0  0  0  0  0  0  0  0  0  0  0  0
   47.9878   21.2510   28.1394 C   0  0  0  0  0  0  0  0  0  0  0  0
   48.9441   21.4155   29.1456 C   0  0  0  0  0  0  0  0  0  0  0  0
   48.6913   20.9533   30.4419 C   0  0  0  0  0  0  0  0  0  0  0  0
   47.4847   20.2994   30.7167 C   0  0  0  0  0  0  0  0  0  0  0  0
   46.5303   20.1375   29.7063 C   0  0  0  0  0  0  0  0  0  0  0  0
   44.9367   21.1025   25.1295 C   0  0  0  0  0  0  0  0  0  0  0  0
   43.8779   20.2001   25.2736 C   0  0  0  0  0  0  0  0  0  0  0  0
   43.7556   19.4233   26.4285 C   0  0  0  0  0  0  0  0  0  0  0  0
   44.6927   19.5256   27.4681 C   0  0  0  0  0  0  0  0  0  0  0  0
   44.5156   18.6685   28.6941 C   0  0  0  0  0  0  0  0  0  0  0  0
   45.7604   20.4410   27.3504 C   0  0  0  0  0  0  0  0  0  0  0  0
   45.8661   21.2117   26.1754 C   0  0  0  0  0  0  0  0  0  0  0  0
   43.5682   24.0951   21.6186 C   0  0  0  0  0  0  0  0  0  0  0  0
   44.4946   23.2447   22.3832 C   0  0  0  0  0  0  0  0  0  0  0  0
   45.7679   22.9909   22.1767 N   0  0  0  0  0  0  0  0  0  0  0  0
   46.1582   22.1331   23.1847 N   0  0  0  0  0  0  0  0  0  0  0  0
   45.0949   21.9229   23.9359 C   0  0  0  0  0  0  0  0  0  0  0  0
   43.9913   22.6016   23.4812 O   0  0  0  0  0  0  0  0  0  0  0  0
   49.7397   21.1536   31.4817 C   0  0  0  0  0  0  0  0  0  0  0  0
   49.4243   21.2033   32.6650 O   0  0  0  0  0  0  0  0  0  0  0  0
   51.0392   21.2399   31.0278 N   0  0  0  0  0  0  0  0  0  0  0  0
   51.2095   21.2484   30.0582 H   0  0  0  0  0  0  0  0  0  0  0  0
   52.1568   21.3183   31.9402 C   0  0  0  0  0  0  0  0  0  0  0  0
   52.8210   22.6521   31.7979 C   0  0  0  0  0  0  0  0  0  0  0  0
   54.3243   22.7666   31.8158 C   0  0  0  0  0  0  0  0  0  0  0  0
   53.5186   23.2836   32.9758 C   0  0  0  0  0  0  0  0  0  0  0  0
 14 15  1  0
 15 16  2  0
 16 17  1  0
 17 18  2  0
 18  7  1  0
  7  8  2  0
  8  9  1  0
  9 10  2  0
 10 11  1  0
 10 12  1  0
 12  1  1  0
  1  2  2  0
  2  3  1  0
  3  4  2  0
  4 20  1  0
 20 21  2  0
 20 22  1  0
 22 24  1  0
 24 25  1  0
 25 26  1  0
 26 27  1  0
  4  5  1  0
  5  6  2  0
 12 13  2  0
 18 19  1  0
 19 15  1  0
 13  7  1  0
  6  1  1  0
 27 25  1  0
 22 23  1  0
M  END
> <minimizedAffinity>
-3.85226

> <CNNscore>
0.4885545671

> <CNNaffinity>
4.9560465813

> <CNN_VS>
2.4212992191

> <CNNaffinity_variance>
0.4736416042

$$$$



 27 30  0  0  0  0  0  0  0  0999 V2000
   43.7067   32.0740   31.8939 C   0  0  0  0  0  0  0  0  0  0  0  0
   43.8385   30.7245   32.2527 C   0  0  0  0  0  0  0  0  0  0  0  0
   42.7173   29.8934   32.3322 C   0  0  0  0  0  0  0  0  0  0  0  0
   41.4421   30.4005   32.0591 C   0  0  0  0  0  0  0  0  0  0  0  0
   41.3008   31.7396   31.6777 C   0  0  0  0  0  0  0  0  0  0  0  0
   42.4260   32.5679   31.5998 C   0  0  0  0  0  0  0  0  0  0  0  0
   47.0644   33.4070   30.7630 C   0  0  0  0  0  0  0  0  0  0  0  0
   47.1944   34.5385   31.5748 C   0  0  0  0  0  0  0  0  0  0  0  0
   46.1919   34.8812   32.4856 C   0  0  0  0  0  0  0  0  0  0  0  0
   45.0301   34.1031   32.6048 C   0  0  0  0  0  0  0  0  0  0  0  0
   43.9793   34.5127   33.6033 C   0  0  0  0  0  0  0  0  0  0  0  0
   44.8852   32.9483   31.8064 C   0  0  0  0  0  0  0  0  0  0  0  0
   45.9072   32.6236   30.8922 C   0  0  0  0  0  0  0  0  0  0  0  0
   51.5300   32.6380   29.1436 C   0  0  0  0  0  0  0  0  0  0  0  0
   50.0603   32.6848   29.0809 C   0  0  0  0  0  0  0  0  0  0  0  0
   49.2509   32.3808   28.0905 N   0  0  0  0  0  0  0  0  0  0  0  0
   47.9712   32.6017   28.5573 N   0  0  0  0  0  0  0  0  0  0  0  0
   48.0894   33.0257   29.8003 C   0  0  0  0  0  0  0  0  0  0  0  0
   49.3998   33.1056   30.2029 O   0  0  0  0  0  0  0  0  0  0  0  0
   40.2770   29.4770   32.1594 C   0  0  0  0  0  0  0  0  0  0  0  0
   39.3748   29.5404   31.3322 O   0  0  0  0  0  0  0  0  0  0  0  0
   40.3111   28.5631   33.1918 N   0  0  0  0  0  0  0  0  0  0  0  0
   41.0414   28.6098   33.8504 H   0  0  0  0  0  0  0  0  0  0  0  0
   39.3016   27.5388   33.3305 C   0  0  0  0  0  0  0  0  0  0  0  0
   38.4886   27.8064   34.5585 C   0  0  0  0  0  0  0  0  0  0  0  0
   38.6827   26.9776   35.8031 C   0  0  0  0  0  0  0  0  0  0  0  0
   37.4239   26.8314   34.9929 C   0  0  0  0  0  0  0  0  0  0  0  0
 14 15  1  0
 15 16  2  0
 16 17  1  0
 17 18  2  0
 18  7  1  0
  7  8  2  0
  8  9  1  0
  9 10  2  0
 10 11  1  0
 10 12  1  0
 12  1  1  0
  1  2  2  0
  2  3  1  0
  3  4  2  0
  4 20  1  0
 20 21  2  0
 20 22  1  0
 22 24  1  0
 24 25  1  0
 25 26  1  0
 26 27  1  0
  4  5  1  0
  5  6  2  0
 12 13  2  0
 18 19  1  0
 19 15  1  0
 13  7  1  0
  6  1  1  0
 27 25  1  0
 22 23  1  0
M  END
> <minimizedAffinity>
-9.57732

> <CNNscore>
0.4802713394

> <CNNaffinity>
6.6407828331

> <CNN_VS>
3.1893777847

> <CNNaffinity_variance>
0.0134229064

$$$$



 27 30  0  0  0  0  0  0  0  0999 V2000
   41.9699   30.3095   31.8234 C   0  0  0  0  0  0  0  0  0  0  0  0
   41.3667   30.5624   33.0642 C   0  0  0  0  0  0  0  0  0  0  0  0
   40.5610   29.5983   33.6769 C   0  0  0  0  0  0  0  0  0  0  0  0
   40.3401   28.3644   33.0550 C   0  0  0  0  0  0  0  0  0  0  0  0
   40.9552   28.0919   31.8278 C   0  0  0  0  0  0  0  0  0  0  0  0
   41.7606   29.0603   31.2181 C   0  0  0  0  0  0  0  0  0  0  0  0
   45.0036   32.4487   31.0813 C   0  0  0  0  0  0  0  0  0  0  0  0
   44.5250   33.2446   30.0356 C   0  0  0  0  0  0  0  0  0  0  0  0
   43.2212   33.0868   29.5590 C   0  0  0  0  0  0  0  0  0  0  0  0
   42.3630   32.1245   30.1132 C   0  0  0  0  0  0  0  0  0  0  0  0
   40.9655   31.9948   29.5662 C   0  0  0  0  0  0  0  0  0  0  0  0
   42.8203   31.3211   31.1795 C   0  0  0  0  0  0  0  0  0  0  0  0
   44.1400   31.4951   31.6420 C   0  0  0  0  0  0  0  0  0  0  0  0
   48.4893   32.3921   34.3982 C   0  0  0  0  0  0  0  0  0  0  0  0
   47.9021   32.5616   33.0594 C   0  0  0  0  0  0  0  0  0  0  0  0
   48.4765   32.8984   31.9258 N   0  0  0  0  0  0  0  0  0  0  0  0
   47.4753   32.9136   30.9763 N   0  0  0  0  0  0  0  0  0  0  0  0
   46.3593   32.5854   31.5974 C   0  0  0  0  0  0  0  0  0  0  0  0
   46.5563   32.3476   32.9354 O   0  0  0  0  0  0  0  0  0  0  0  0
   39.4719   27.3695   33.7454 C   0  0  0  0  0  0  0  0  0  0  0  0
   38.9216   26.4862   33.0980 O   0  0  0  0  0  0  0  0  0  0  0  0
   39.3700   27.4963   35.1150 N   0  0  0  0  0  0  0  0  0  0  0  0
   39.7955   28.2652   35.5589 H   0  0  0  0  0  0  0  0  0  0  0  0
   38.6543   26.5286   35.9143 C   0  0  0  0  0  0  0  0  0  0  0  0
   37.3223   27.0919   36.3006 C   0  0  0  0  0  0  0  0  0  0  0  0
   36.5241   26.4752   37.4213 C   0  0  0  0  0  0  0  0  0  0  0  0
   36.0577   26.3286   35.9989 C   0  0  0  0  0  0  0  0  0  0  0  0
 14 15  1  0
 15 16  2  0
 16 17  1  0
 17 18  2  0
 18  7  1  0
  7  8  2  0
  8  9  1  0
  9 10  2  0
 10 11  1  0
 10 12  1  0
 12  1  1  0
  1  2  2  0
  2  3  1  0
  3  4  2  0
  4 20  1  0
 20 21  2  0
 20 22  1  0
 22 24  1  0
 24 25  1  0
 25 26  1  0
 26 27  1  0
  4  5  1  0
  5  6  2  0
 12 13  2  0
 18 19  1  0
 19 15  1  0
 13  7  1  0
  6  1  1  0
 27 25  1  0
 22 23  1  0
M  END
> <minimizedAffinity>
-6.25996

> <CNNscore>
0.4681168199

> <CNNaffinity>
6.5678653717

> <CNN_VS>
3.0745282173

> <CNNaffinity_variance>
0.0004710644

$$$$



 27 30  0  0  0  0  0  0  0  0999 V2000
   44.1292   20.7166   26.6218 C   0  0  0  0  0  0  0  0  0  0  0  0
   44.9235   21.5044   27.4678 C   0  0  0  0  0  0  0  0  0  0  0  0
   46.1090   20.9993   28.0098 C   0  0  0  0  0  0  0  0  0  0  0  0
   46.5179   19.6933   27.7186 C   0  0  0  0  0  0  0  0  0  0  0  0
   45.7454   18.9058   26.8573 C   0  0  0  0  0  0  0  0  0  0  0  0
   44.5593   19.4155   26.3174 C   0  0  0  0  0  0  0  0  0  0  0  0
   40.4511   21.5362   26.2607 C   0  0  0  0  0  0  0  0  0  0  0  0
   40.4410   22.2016   25.0305 C   0  0  0  0  0  0  0  0  0  0  0  0
   41.6257   22.3967   24.3160 C   0  0  0  0  0  0  0  0  0  0  0  0
   42.8531   21.9353   24.8162 C   0  0  0  0  0  0  0  0  0  0  0  0
   44.1022   22.1679   24.0071 C   0  0  0  0  0  0  0  0  0  0  0  0
   42.8842   21.2476   26.0482 C   0  0  0  0  0  0  0  0  0  0  0  0
   41.6778   21.0651   26.7534 C   0  0  0  0  0  0  0  0  0  0  0  0
   37.7662   21.0553   30.2249 C   0  0  0  0  0  0  0  0  0  0  0  0
   38.0442   21.1081   28.7806 C   0  0  0  0  0  0  0  0  0  0  0  0
   37.2261   20.9666   27.7612 N   0  0  0  0  0  0  0  0  0  0  0  0
   37.9981   21.1053   26.6257 N   0  0  0  0  0  0  0  0  0  0  0  0
   39.2339   21.3212   27.0321 C   0  0  0  0  0  0  0  0  0  0  0  0
   39.3392   21.3343   28.4011 O   0  0  0  0  0  0  0  0  0  0  0  0
   47.7874   19.1982   28.3217 C   0  0  0  0  0  0  0  0  0  0  0  0
   48.5817   18.5636   27.6371 O   0  0  0  0  0  0  0  0  0  0  0  0
   48.0026   19.5269   29.6438 N   0  0  0  0  0  0  0  0  0  0  0  0
   47.2933   19.9906   30.1448 H   0  0  0  0  0  0  0  0  0  0  0  0
   49.2434   19.2074   30.3116 C   0  0  0  0  0  0  0  0  0  0  0  0
   50.0027   20.4696   30.5781 C   0  0  0  0  0  0  0  0  0  0  0  0
   50.2737   20.9181   31.9919 C   0  0  0  0  0  0  0  0  0  0  0  0
   49.2963   21.6780   31.1378 C   0  0  0  0  0  0  0  0  0  0  0  0
 14 15  1  0
 15 16  2  0
 16 17  1  0
 17 18  2  0
 18  7  1  0
  7  8  2  0
  8  9  1  0
  9 10  2  0
 10 11  1  0
 10 12  1  0
 12  1  1  0
  1  2  2  0
  2  3  1  0
  3  4  2  0
  4 20  1  0
 20 21  2  0
 20 22  1  0
 22 24  1  0
 24 25  1  0
 25 26  1  0
 26 27  1  0
  4  5  1  0
  5  6  2  0
 12 13  2  0
 18 19  1  0
 19 15  1  0
 13  7  1  0
  6  1  1  0
 27 25  1  0
 22 23  1  0
M  END
> <minimizedAffinity>
-4.16055

> <CNNscore>
0.3659981489

> <CNNaffinity>
4.6570200920

> <CNN_VS>
1.7044607401

> <CNNaffinity_variance>
0.4816879928

$$$$
