


 29 32  0  0  0  0  0  0  0  0999 V2000
   15.4113   -3.0456   -8.9195 C   0  0  0  0  0  0  0  0  0  0  0  0
   15.9408   -2.1147   -9.7917 N   0  0  0  0  0  0  0  0  0  0  0  0
   16.4560   -1.1994   -9.0065 C   0  0  0  0  0  0  0  0  0  0  0  0
   17.1883   -0.0190   -9.3712 C   0  0  0  0  0  0  0  0  0  0  0  0
   17.6983    0.7823   -8.4751 N   0  0  0  0  0  0  0  0  0  0  0  0
   17.5141    0.4407   -7.1474 C   0  0  0  0  0  0  0  0  0  0  0  0
   18.0632    1.2539   -6.2206 F   0  0  0  0  0  0  0  0  0  0  0  0
   16.8337   -0.6363   -6.7254 C   0  0  0  0  0  0  0  0  0  0  0  0
   16.2735   -1.4689   -7.6753 N   0  0  0  0  0  0  0  0  0  0  0  0
   15.5196   -2.6250   -7.5949 C   0  0  0  0  0  0  0  0  0  0  0  0
   13.5588   -6.6431  -10.2615 C   0  0  0  0  0  0  0  0  0  0  0  0
   13.6500   -5.5413  -11.1196 C   0  0  0  0  0  0  0  0  0  0  0  0
   14.2532   -4.3565  -10.6855 C   0  0  0  0  0  0  0  0  0  0  0  0
   14.7788   -4.2626   -9.3914 C   0  0  0  0  0  0  0  0  0  0  0  0
   14.6634   -5.3577   -8.5269 C   0  0  0  0  0  0  0  0  0  0  0  0
   14.0624   -6.5433   -8.9599 C   0  0  0  0  0  0  0  0  0  0  0  0
   10.5466   -7.1346  -11.5039 C   0  0  0  0  0  0  0  0  0  0  0  0
   11.6426   -8.1017  -11.2641 C   0  0  0  0  0  0  0  0  0  0  0  0
   11.4758   -9.3941  -11.5721 N   0  0  0  0  0  0  0  0  0  0  0  0
   12.6570  -10.0199  -11.2229 O   0  0  0  0  0  0  0  0  0  0  0  0
   13.5281   -9.1059  -10.7163 C   0  0  0  0  0  0  0  0  0  0  0  0
   14.8492   -9.6253  -10.3143 C   0  0  0  0  0  0  0  0  0  0  0  0
   12.9306   -7.8642  -10.7151 C   0  0  0  0  0  0  0  0  0  0  0  0
   15.1152   -3.1540   -6.3930 N   0  0  0  0  0  0  0  0  0  0  0  0
   15.7123   -3.7534   -5.8897 H   0  0  0  0  0  0  0  0  0  0  0  0
   13.7651   -2.8142   -5.8552 C   0  0  0  0  0  0  0  0  0  0  0  0
   13.8612   -1.6727   -4.8307 C   0  0  0  0  0  0  0  0  0  0  0  0
   12.9252   -2.3312   -7.0536 C   0  0  0  0  0  0  0  0  0  0  0  0
   13.0559   -4.0197   -5.2250 C   0  0  0  0  0  0  0  0  0  0  0  0
 17 18  1  0
 18 19  2  0
 19 20  1  0
 20 21  1  0
 21 22  1  0
 21 23  2  0
 23 11  1  0
 11 12  2  0
 12 13  1  0
 13 14  2  0
 14  1  1  0
  1  2  1  0
  2  3  2  0
  3  4  1  0
  4  5  2  0
  5  6  1  0
  6  7  1  0
  6  8  2  0
  8  9  1  0
  9 10  1  0
 10 24  1  0
 24 26  1  0
 26 27  1  0
 26 28  1  0
 26 29  1  0
 14 15  1  0
 15 16  2  0
 23 18  1  0
 16 11  1  0
 10  1  2  0
  9  3  1  0
 24 25  1  0
M  END
> <minimizedAffinity>
-8.16260

> <CNNscore>
0.9237963557

> <CNNaffinity>
6.9642162323

> <CNN_VS>
6.4335174561

> <CNNaffinity_variance>
0.0157332513

$$$$



 29 32  0  0  0  0  0  0  0  0999 V2000
   15.9620   -1.8077  -10.2570 C   0  0  0  0  0  0  0  0  0  0  0  0
   16.5181   -1.4123   -9.0562 N   0  0  0  0  0  0  0  0  0  0  0  0
   17.0537   -0.2452   -9.3222 C   0  0  0  0  0  0  0  0  0  0  0  0
   17.7226    0.6557   -8.4257 C   0  0  0  0  0  0  0  0  0  0  0  0
   18.1605    1.8219   -8.8173 N   0  0  0  0  0  0  0  0  0  0  0  0
   17.9429    2.1645  -10.1397 C   0  0  0  0  0  0  0  0  0  0  0  0
   18.3716    3.3803  -10.5393 F   0  0  0  0  0  0  0  0  0  0  0  0
   17.3378    1.3757  -11.0412 C   0  0  0  0  0  0  0  0  0  0  0  0
   16.8978    0.1319  -10.6304 N   0  0  0  0  0  0  0  0  0  0  0  0
   16.2632   -0.9103  -11.2803 C   0  0  0  0  0  0  0  0  0  0  0  0
   13.7758   -5.4532  -10.5819 C   0  0  0  0  0  0  0  0  0  0  0  0
   14.1504   -4.7572  -11.7368 C   0  0  0  0  0  0  0  0  0  0  0  0
   14.8647   -3.5588  -11.6384 C   0  0  0  0  0  0  0  0  0  0  0  0
   15.2191   -3.0470  -10.3845 C   0  0  0  0  0  0  0  0  0  0  0  0
   14.8211   -3.7322   -9.2304 C   0  0  0  0  0  0  0  0  0  0  0  0
   14.1086   -4.9311   -9.3272 C   0  0  0  0  0  0  0  0  0  0  0  0
   10.8853   -6.0627  -12.0421 C   0  0  0  0  0  0  0  0  0  0  0  0
   11.7963   -6.9823  -11.3219 C   0  0  0  0  0  0  0  0  0  0  0  0
   11.4813   -8.2780  -11.1988 N   0  0  0  0  0  0  0  0  0  0  0  0
   12.5126   -8.8495  -10.4786 O   0  0  0  0  0  0  0  0  0  0  0  0
   13.4428   -7.9028  -10.1796 C   0  0  0  0  0  0  0  0  0  0  0  0
   14.6210   -8.3699   -9.4243 C   0  0  0  0  0  0  0  0  0  0  0  0
   13.0341   -6.6900  -10.6903 C   0  0  0  0  0  0  0  0  0  0  0  0
   15.9922   -0.8775  -12.6269 N   0  0  0  0  0  0  0  0  0  0  0  0
   15.1117   -0.5757  -12.9478 H   0  0  0  0  0  0  0  0  0  0  0  0
   17.0408   -1.3023  -13.6003 C   0  0  0  0  0  0  0  0  0  0  0  0
   18.1158   -2.1509  -12.9030 C   0  0  0  0  0  0  0  0  0  0  0  0
   16.3320   -2.1744  -14.6547 C   0  0  0  0  0  0  0  0  0  0  0  0
   17.6991   -0.1177  -14.3190 C   0  0  0  0  0  0  0  0  0  0  0  0
 17 18  1  0
 18 19  2  0
 19 20  1  0
 20 21  1  0
 21 22  1  0
 21 23  2  0
 23 11  1  0
 11 12  2  0
 12 13  1  0
 13 14  2  0
 14  1  1  0
  1  2  1  0
  2  3  2  0
  3  4  1  0
  4  5  2  0
  5  6  1  0
  6  7  1  0
  6  8  2  0
  8  9  1  0
  9 10  1  0
 10 24  1  0
 24 26  1  0
 26 27  1  0
 26 28  1  0
 26 29  1  0
 14 15  1  0
 15 16  2  0
 23 18  1  0
 16 11  1  0
 10  1  2  0
  9  3  1  0
 24 25  1  0
M  END
> <minimizedAffinity>
-8.25999

> <CNNscore>
0.7594947815

> <CNNaffinity>
6.4102210999

> <CNN_VS>
4.8685293198

> <CNNaffinity_variance>
0.1612671763

$$$$



 29 32  0  0  0  0  0  0  0  0999 V2000
   15.5991   -1.1246  -11.9368 C   0  0  0  0  0  0  0  0  0  0  0  0
   14.9385   -0.2499  -12.7770 N   0  0  0  0  0  0  0  0  0  0  0  0
   15.7586    0.7675  -12.8864 C   0  0  0  0  0  0  0  0  0  0  0  0
   15.6112    1.9518  -13.6855 C   0  0  0  0  0  0  0  0  0  0  0  0
   16.5415    2.8662  -13.7439 N   0  0  0  0  0  0  0  0  0  0  0  0
   17.6912    2.6426  -13.0080 C   0  0  0  0  0  0  0  0  0  0  0  0
   18.6645    3.5743  -13.0882 F   0  0  0  0  0  0  0  0  0  0  0  0
   17.9004    1.5699  -12.2293 C   0  0  0  0  0  0  0  0  0  0  0  0
   16.9039    0.6159  -12.1494 N   0  0  0  0  0  0  0  0  0  0  0  0
   16.7846   -0.5728  -11.4536 C   0  0  0  0  0  0  0  0  0  0  0  0
   13.9765   -4.9455  -10.9661 C   0  0  0  0  0  0  0  0  0  0  0  0
   14.0614   -3.9520   -9.9842 C   0  0  0  0  0  0  0  0  0  0  0  0
   14.5956   -2.6971  -10.2940 C   0  0  0  0  0  0  0  0  0  0  0  0
   15.0438   -2.4192  -11.5908 C   0  0  0  0  0  0  0  0  0  0  0  0
   14.9811   -3.4232  -12.5644 C   0  0  0  0  0  0  0  0  0  0  0  0
   14.4457   -4.6775  -12.2567 C   0  0  0  0  0  0  0  0  0  0  0  0
   15.1582   -7.3049   -8.9924 C   0  0  0  0  0  0  0  0  0  0  0  0
   13.9071   -7.2702   -9.7847 C   0  0  0  0  0  0  0  0  0  0  0  0
   13.0642   -8.3100   -9.7527 N   0  0  0  0  0  0  0  0  0  0  0  0
   12.0196   -7.9740  -10.5922 O   0  0  0  0  0  0  0  0  0  0  0  0
   12.2326   -6.7370  -11.1170 C   0  0  0  0  0  0  0  0  0  0  0  0
   11.1850   -6.2302  -12.0240 C   0  0  0  0  0  0  0  0  0  0  0  0
   13.4264   -6.2423  -10.6385 C   0  0  0  0  0  0  0  0  0  0  0  0
   17.7484   -1.0087  -10.5768 N   0  0  0  0  0  0  0  0  0  0  0  0
   18.4432   -1.6381  -10.8774 H   0  0  0  0  0  0  0  0  0  0  0  0
   17.7357   -0.5220   -9.1660 C   0  0  0  0  0  0  0  0  0  0  0  0
   19.1508   -0.5576   -8.5675 C   0  0  0  0  0  0  0  0  0  0  0  0
   17.2569    0.9420   -9.2121 C   0  0  0  0  0  0  0  0  0  0  0  0
   16.7736   -1.3153   -8.2725 C   0  0  0  0  0  0  0  0  0  0  0  0
 17 18  1  0
 18 19  2  0
 19 20  1  0
 20 21  1  0
 21 22  1  0
 21 23  2  0
 23 11  1  0
 11 12  2  0
 12 13  1  0
 13 14  2  0
 14  1  1  0
  1  2  1  0
  2  3  2  0
  3  4  1  0
  4  5  2  0
  5  6  1  0
  6  7  1  0
  6  8  2  0
  8  9  1  0
  9 10  1  0
 10 24  1  0
 24 26  1  0
 26 27  1  0
 26 28  1  0
 26 29  1  0
 14 15  1  0
 15 16  2  0
 23 18  1  0
 16 11  1  0
 10  1  2  0
  9  3  1  0
 24 25  1  0
M  END
> <minimizedAffinity>
-8.07567

> <CNNscore>
0.4373288155

> <CNNaffinity>
5.9094424248

> <CNN_VS>
2.5843694210

> <CNNaffinity_variance>
0.6140765548

$$$$



 29 32  0  0  0  0  0  0  0  0999 V2000
   15.5448   -1.2129  -11.8111 C   0  0  0  0  0  0  0  0  0  0  0  0
   14.8625   -0.3537  -12.6500 N   0  0  0  0  0  0  0  0  0  0  0  0
   15.6689    0.6724  -12.7796 C   0  0  0  0  0  0  0  0  0  0  0  0
   15.4965    1.8475  -13.5871 C   0  0  0  0  0  0  0  0  0  0  0  0
   16.4150    2.7723  -13.6664 N   0  0  0  0  0  0  0  0  0  0  0  0
   17.5771    2.5689  -12.9442 C   0  0  0  0  0  0  0  0  0  0  0  0
   18.5380    3.5113  -13.0459 F   0  0  0  0  0  0  0  0  0  0  0  0
   17.8096    1.5059  -12.1588 C   0  0  0  0  0  0  0  0  0  0  0  0
   16.8258    0.5410  -12.0568 N   0  0  0  0  0  0  0  0  0  0  0  0
   16.7300   -0.6427  -11.3490 C   0  0  0  0  0  0  0  0  0  0  0  0
   13.9806   -5.0435  -10.7846 C   0  0  0  0  0  0  0  0  0  0  0  0
   14.0836   -4.0459   -9.8086 C   0  0  0  0  0  0  0  0  0  0  0  0
   14.5989   -2.7878  -10.1367 C   0  0  0  0  0  0  0  0  0  0  0  0
   15.0097   -2.5107  -11.4460 C   0  0  0  0  0  0  0  0  0  0  0  0
   14.9292   -3.5186  -12.4142 C   0  0  0  0  0  0  0  0  0  0  0  0
   14.4127   -4.7761  -12.0882 C   0  0  0  0  0  0  0  0  0  0  0  0
   11.2798   -6.5835  -11.8767 C   0  0  0  0  0  0  0  0  0  0  0  0
   12.2988   -7.0342  -10.9007 C   0  0  0  0  0  0  0  0  0  0  0  0
   12.1903   -8.2387  -10.3261 N   0  0  0  0  0  0  0  0  0  0  0  0
   13.2725   -8.3485   -9.4743 O   0  0  0  0  0  0  0  0  0  0  0  0
   14.0282   -7.2194   -9.5450 C   0  0  0  0  0  0  0  0  0  0  0  0
   15.2375   -7.1967   -8.6999 C   0  0  0  0  0  0  0  0  0  0  0  0
   13.4502   -6.3436  -10.4381 C   0  0  0  0  0  0  0  0  0  0  0  0
   17.7107   -1.0591  -10.4815 N   0  0  0  0  0  0  0  0  0  0  0  0
   18.4141   -1.6759  -10.7883 H   0  0  0  0  0  0  0  0  0  0  0  0
   17.7033   -0.5707   -9.0712 C   0  0  0  0  0  0  0  0  0  0  0  0
   19.1180   -0.6203   -8.4729 C   0  0  0  0  0  0  0  0  0  0  0  0
   17.2398    0.8982   -9.1190 C   0  0  0  0  0  0  0  0  0  0  0  0
   16.7330   -1.3528   -8.1767 C   0  0  0  0  0  0  0  0  0  0  0  0
 17 18  1  0
 18 19  2  0
 19 20  1  0
 20 21  1  0
 21 22  1  0
 21 23  2  0
 23 11  1  0
 11 12  2  0
 12 13  1  0
 13 14  2  0
 14  1  1  0
  1  2  1  0
  2  3  2  0
  3  4  1  0
  4  5  2  0
  5  6  1  0
  6  7  1  0
  6  8  2  0
  8  9  1  0
  9 10  1  0
 10 24  1  0
 24 26  1  0
 26 27  1  0
 26 28  1  0
 26 29  1  0
 14 15  1  0
 15 16  2  0
 23 18  1  0
 16 11  1  0
 10  1  2  0
  9  3  1  0
 24 25  1  0
M  END
> <minimizedAffinity>
-8.05036

> <CNNscore>
0.4305292368

> <CNNaffinity>
5.8767991066

> <CNN_VS>
2.5301337242

> <CNNaffinity_variance>
0.5584452152

$$$$



 29 32  0  0  0  0  0  0  0  0999 V2000
   14.7340   -5.2360   -8.3428 C   0  0  0  0  0  0  0  0  0  0  0  0
   13.7678   -5.2295   -9.3297 N   0  0  0  0  0  0  0  0  0  0  0  0
   13.7698   -6.4591   -9.7857 C   0  0  0  0  0  0  0  0  0  0  0  0
   12.9225   -7.0412  -10.7887 C   0  0  0  0  0  0  0  0  0  0  0  0
   12.9964   -8.3054  -11.1069 N   0  0  0  0  0  0  0  0  0  0  0  0
   13.9240   -9.0728  -10.4258 C   0  0  0  0  0  0  0  0  0  0  0  0
   13.9834  -10.3853  -10.7352 F   0  0  0  0  0  0  0  0  0  0  0  0
   14.7586   -8.6027   -9.4859 C   0  0  0  0  0  0  0  0  0  0  0  0
   14.6956   -7.2592   -9.1688 N   0  0  0  0  0  0  0  0  0  0  0  0
   15.3958   -6.4615   -8.2830 C   0  0  0  0  0  0  0  0  0  0  0  0
   15.5221   -1.7654   -5.9960 C   0  0  0  0  0  0  0  0  0  0  0  0
   16.5479   -2.6811   -6.2564 C   0  0  0  0  0  0  0  0  0  0  0  0
   16.2964   -3.8238   -7.0226 C   0  0  0  0  0  0  0  0  0  0  0  0
   15.0185   -4.0596   -7.5433 C   0  0  0  0  0  0  0  0  0  0  0  0
   13.9884   -3.1550   -7.2599 C   0  0  0  0  0  0  0  0  0  0  0  0
   14.2386   -2.0114   -6.4957 C   0  0  0  0  0  0  0  0  0  0  0  0
   14.7027   -1.0949   -2.8754 C   0  0  0  0  0  0  0  0  0  0  0  0
   15.4577   -0.2782   -3.8538 C   0  0  0  0  0  0  0  0  0  0  0  0
   15.9202    0.9288   -3.5045 N   0  0  0  0  0  0  0  0  0  0  0  0
   16.5577    1.4265   -4.6247 O   0  0  0  0  0  0  0  0  0  0  0  0
   16.4838    0.5191   -5.6356 C   0  0  0  0  0  0  0  0  0  0  0  0
   17.1411    0.9039   -6.8992 C   0  0  0  0  0  0  0  0  0  0  0  0
   15.7877   -0.5875   -5.2000 C   0  0  0  0  0  0  0  0  0  0  0  0
   16.4368   -6.9443   -7.5273 N   0  0  0  0  0  0  0  0  0  0  0  0
   17.3634   -6.8593   -7.8489 H   0  0  0  0  0  0  0  0  0  0  0  0
   16.1541   -7.5985   -6.2160 C   0  0  0  0  0  0  0  0  0  0  0  0
   16.4335   -9.1078   -6.2918 C   0  0  0  0  0  0  0  0  0  0  0  0
   17.1216   -6.9690   -5.1950 C   0  0  0  0  0  0  0  0  0  0  0  0
   14.7189   -7.3595   -5.7299 C   0  0  0  0  0  0  0  0  0  0  0  0
 17 18  1  0
 18 19  2  0
 19 20  1  0
 20 21  1  0
 21 22  1  0
 21 23  2  0
 23 11  1  0
 11 12  2  0
 12 13  1  0
 13 14  2  0
 14  1  1  0
  1  2  1  0
  2  3  2  0
  3  4  1  0
  4  5  2  0
  5  6  1  0
  6  7  1  0
  6  8  2  0
  8  9  1  0
  9 10  1  0
 10 24  1  0
 24 26  1  0
 26 27  1  0
 26 28  1  0
 26 29  1  0
 14 15  1  0
 15 16  2  0
 23 18  1  0
 16 11  1  0
 10  1  2  0
  9  3  1  0
 24 25  1  0
M  END
> <minimizedAffinity>
-5.76022

> <CNNscore>
0.3793712556

> <CNNaffinity>
5.9792609215

> <CNN_VS>
2.2683596611

> <CNNaffinity_variance>
0.1665542871

$$$$



 29 32  0  0  0  0  0  0  0  0999 V2000
   14.1468   -4.8559   -9.4122 C   0  0  0  0  0  0  0  0  0  0  0  0
   14.5537   -3.6197   -9.8748 N   0  0  0  0  0  0  0  0  0  0  0  0
   15.2401   -3.1163   -8.8772 C   0  0  0  0  0  0  0  0  0  0  0  0
   15.9474   -1.8677   -8.8198 C   0  0  0  0  0  0  0  0  0  0  0  0
   16.6433   -1.5152   -7.7726 N   0  0  0  0  0  0  0  0  0  0  0  0
   16.6828   -2.4050   -6.7143 C   0  0  0  0  0  0  0  0  0  0  0  0
   17.4231   -2.0536   -5.6419 F   0  0  0  0  0  0  0  0  0  0  0  0
   16.0413   -3.5834   -6.6857 C   0  0  0  0  0  0  0  0  0  0  0  0
   15.2850   -3.9427   -7.7849 N   0  0  0  0  0  0  0  0  0  0  0  0
   14.5071   -5.0470   -8.0791 C   0  0  0  0  0  0  0  0  0  0  0  0
   11.8882   -7.5076  -11.8701 C   0  0  0  0  0  0  0  0  0  0  0  0
   12.9430   -8.0012  -11.0940 C   0  0  0  0  0  0  0  0  0  0  0  0
   13.6909   -7.1371  -10.2878 C   0  0  0  0  0  0  0  0  0  0  0  0
   13.3875   -5.7712  -10.2426 C   0  0  0  0  0  0  0  0  0  0  0  0
   12.3482   -5.2762  -11.0393 C   0  0  0  0  0  0  0  0  0  0  0  0
   11.5986   -6.1390  -11.8443 C   0  0  0  0  0  0  0  0  0  0  0  0
    9.8681   -6.8454  -14.3879 C   0  0  0  0  0  0  0  0  0  0  0  0
   10.2547   -8.1490  -13.8001 C   0  0  0  0  0  0  0  0  0  0  0  0
    9.7605   -9.2858  -14.3064 N   0  0  0  0  0  0  0  0  0  0  0  0
   10.2974  -10.3034  -13.5415 O   0  0  0  0  0  0  0  0  0  0  0  0
   11.1143   -9.7788  -12.5884 C   0  0  0  0  0  0  0  0  0  0  0  0
   11.7800  -10.7512  -11.7007 C   0  0  0  0  0  0  0  0  0  0  0  0
   11.1209   -8.4057  -12.7045 C   0  0  0  0  0  0  0  0  0  0  0  0
   14.2995   -6.0594   -7.1737 N   0  0  0  0  0  0  0  0  0  0  0  0
   13.4758   -6.0807   -6.6347 H   0  0  0  0  0  0  0  0  0  0  0  0
   15.3302   -7.1265   -7.0121 C   0  0  0  0  0  0  0  0  0  0  0  0
   16.7332   -6.5110   -6.8903 C   0  0  0  0  0  0  0  0  0  0  0  0
   14.9984   -7.8606   -5.6984 C   0  0  0  0  0  0  0  0  0  0  0  0
   15.3094   -8.1504   -8.1542 C   0  0  0  0  0  0  0  0  0  0  0  0
 17 18  1  0
 18 19  2  0
 19 20  1  0
 20 21  1  0
 21 22  1  0
 21 23  2  0
 23 11  1  0
 11 12  2  0
 12 13  1  0
 13 14  2  0
 14  1  1  0
  1  2  1  0
  2  3  2  0
  3  4  1  0
  4  5  2  0
  5  6  1  0
  6  7  1  0
  6  8  2  0
  8  9  1  0
  9 10  1  0
 10 24  1  0
 24 26  1  0
 26 27  1  0
 26 28  1  0
 26 29  1  0
 14 15  1  0
 15 16  2  0
 23 18  1  0
 16 11  1  0
 10  1  2  0
  9  3  1  0
 24 25  1  0
M  END
> <minimizedAffinity>
-8.19216

> <CNNscore>
0.3686955273

> <CNNaffinity>
6.7824358940

> <CNN_VS>
2.5006537437

> <CNNaffinity_variance>
0.0190633703

$$$$



 29 32  0  0  0  0  0  0  0  0999 V2000
   14.7788   -7.2733   -8.5980 C   0  0  0  0  0  0  0  0  0  0  0  0
   13.9476   -8.3021   -8.9960 N   0  0  0  0  0  0  0  0  0  0  0  0
   13.1423   -7.7425   -9.8666 C   0  0  0  0  0  0  0  0  0  0  0  0
   12.1047   -8.3566  -10.6470 C   0  0  0  0  0  0  0  0  0  0  0  0
   11.4117   -7.6845  -11.5263 N   0  0  0  0  0  0  0  0  0  0  0  0
   11.7263   -6.3472  -11.6869 C   0  0  0  0  0  0  0  0  0  0  0  0
   11.0285   -5.6576  -12.6139 F   0  0  0  0  0  0  0  0  0  0  0  0
   12.6715   -5.6980  -10.9897 C   0  0  0  0  0  0  0  0  0  0  0  0
   13.3863   -6.4055  -10.0420 N   0  0  0  0  0  0  0  0  0  0  0  0
   14.3938   -6.0577   -9.1616 C   0  0  0  0  0  0  0  0  0  0  0  0
   17.9349   -7.9242   -5.8072 C   0  0  0  0  0  0  0  0  0  0  0  0
   18.1897   -7.2480   -7.0057 C   0  0  0  0  0  0  0  0  0  0  0  0
   17.1603   -7.0336   -7.9279 C   0  0  0  0  0  0  0  0  0  0  0  0
   15.8632   -7.4860   -7.6585 C   0  0  0  0  0  0  0  0  0  0  0  0
   15.6169   -8.1844   -6.4705 C   0  0  0  0  0  0  0  0  0  0  0  0
   16.6444   -8.3979   -5.5469 C   0  0  0  0  0  0  0  0  0  0  0  0
   19.8580   -5.7518   -4.2448 C   0  0  0  0  0  0  0  0  0  0  0  0
   19.8386   -7.2307   -4.1642 C   0  0  0  0  0  0  0  0  0  0  0  0
   20.6947   -7.8694   -3.3565 N   0  0  0  0  0  0  0  0  0  0  0  0
   20.4313   -9.2161   -3.5180 O   0  0  0  0  0  0  0  0  0  0  0  0
   19.4183   -9.3815   -4.4110 C   0  0  0  0  0  0  0  0  0  0  0  0
   19.0090  -10.7744   -4.6737 C   0  0  0  0  0  0  0  0  0  0  0  0
   19.0045   -8.1460   -4.8593 C   0  0  0  0  0  0  0  0  0  0  0  0
   14.8535   -4.7681   -9.0464 N   0  0  0  0  0  0  0  0  0  0  0  0
   15.3574   -4.3541   -9.7839 H   0  0  0  0  0  0  0  0  0  0  0  0
   14.5844   -3.9986   -7.7962 C   0  0  0  0  0  0  0  0  0  0  0  0
   13.8336   -4.8683   -6.7755 C   0  0  0  0  0  0  0  0  0  0  0  0
   15.9586   -3.6240   -7.2081 C   0  0  0  0  0  0  0  0  0  0  0  0
   13.8013   -2.7046   -8.0520 C   0  0  0  0  0  0  0  0  0  0  0  0
 17 18  1  0
 18 19  2  0
 19 20  1  0
 20 21  1  0
 21 22  1  0
 21 23  2  0
 23 11  1  0
 11 12  2  0
 12 13  1  0
 13 14  2  0
 14  1  1  0
  1  2  1  0
  2  3  2  0
  3  4  1  0
  4  5  2  0
  5  6  1  0
  6  7  1  0
  6  8  2  0
  8  9  1  0
  9 10  1  0
 10 24  1  0
 24 26  1  0
 26 27  1  0
 26 28  1  0
 26 29  1  0
 14 15  1  0
 15 16  2  0
 23 18  1  0
 16 11  1  0
 10  1  2  0
  9  3  1  0
 24 25  1  0
M  END
> <minimizedAffinity>
-6.87634

> <CNNscore>
0.3390412629

> <CNNaffinity>
6.3720679283

> <CNN_VS>
2.1603939533

> <CNNaffinity_variance>
0.1538511515

$$$$



 29 32  0  0  0  0  0  0  0  0999 V2000
   15.0414   -7.2836   -8.3823 C   0  0  0  0  0  0  0  0  0  0  0  0
   14.2246   -8.3191   -8.7924 N   0  0  0  0  0  0  0  0  0  0  0  0
   13.4117   -7.7605   -9.6566 C   0  0  0  0  0  0  0  0  0  0  0  0
   12.3828   -8.3798  -10.4444 C   0  0  0  0  0  0  0  0  0  0  0  0
   11.6806   -7.7071  -11.3159 N   0  0  0  0  0  0  0  0  0  0  0  0
   11.9767   -6.3638  -11.4609 C   0  0  0  0  0  0  0  0  0  0  0  0
   11.2696   -5.6732  -12.3800 F   0  0  0  0  0  0  0  0  0  0  0  0
   12.9128   -5.7098  -10.7559 C   0  0  0  0  0  0  0  0  0  0  0  0
   13.6372   -6.4183   -9.8164 N   0  0  0  0  0  0  0  0  0  0  0  0
   14.6398   -6.0670   -8.9317 C   0  0  0  0  0  0  0  0  0  0  0  0
   18.2073   -7.9269   -5.6007 C   0  0  0  0  0  0  0  0  0  0  0  0
   18.4253   -7.1426   -6.7390 C   0  0  0  0  0  0  0  0  0  0  0  0
   17.3927   -6.9297   -7.6580 C   0  0  0  0  0  0  0  0  0  0  0  0
   16.1286   -7.4923   -7.4451 C   0  0  0  0  0  0  0  0  0  0  0  0
   15.9208   -8.2972   -6.3187 C   0  0  0  0  0  0  0  0  0  0  0  0
   16.9514   -8.5095   -5.3983 C   0  0  0  0  0  0  0  0  0  0  0  0
   19.6304  -10.7376   -4.6343 C   0  0  0  0  0  0  0  0  0  0  0  0
   19.9186   -9.3416   -4.2314 C   0  0  0  0  0  0  0  0  0  0  0  0
   20.8913   -9.0861   -3.3473 N   0  0  0  0  0  0  0  0  0  0  0  0
   20.8976   -7.7147   -3.1802 O   0  0  0  0  0  0  0  0  0  0  0  0
   19.9395   -7.1525   -3.9657 C   0  0  0  0  0  0  0  0  0  0  0  0
   19.8380   -5.6816   -3.9091 C   0  0  0  0  0  0  0  0  0  0  0  0
   19.2803   -8.1462   -4.6561 C   0  0  0  0  0  0  0  0  0  0  0  0
   15.0816   -4.7725   -8.8014 N   0  0  0  0  0  0  0  0  0  0  0  0
   15.6281   -4.3620   -9.5099 H   0  0  0  0  0  0  0  0  0  0  0  0
   14.7280   -3.9926   -7.5790 C   0  0  0  0  0  0  0  0  0  0  0  0
   15.9949   -3.4651   -6.8873 C   0  0  0  0  0  0  0  0  0  0  0  0
   13.8892   -2.7903   -8.0541 C   0  0  0  0  0  0  0  0  0  0  0  0
   13.8890   -4.8005   -6.5808 C   0  0  0  0  0  0  0  0  0  0  0  0
 17 18  1  0
 18 19  2  0
 19 20  1  0
 20 21  1  0
 21 22  1  0
 21 23  2  0
 23 11  1  0
 11 12  2  0
 12 13  1  0
 13 14  2  0
 14  1  1  0
  1  2  1  0
  2  3  2  0
  3  4  1  0
  4  5  2  0
  5  6  1  0
  6  7  1  0
  6  8  2  0
  8  9  1  0
  9 10  1  0
 10 24  1  0
 24 26  1  0
 26 27  1  0
 26 28  1  0
 26 29  1  0
 14 15  1  0
 15 16  2  0
 23 18  1  0
 16 11  1  0
 10  1  2  0
  9  3  1  0
 24 25  1  0
M  END
> <minimizedAffinity>
-6.69805

> <CNNscore>
0.3342738748

> <CNNaffinity>
6.2971272469

> <CNN_VS>
2.1049652100

> <CNNaffinity_variance>
0.2492535859

$$$$



 29 32  0  0  0  0  0  0  0  0999 V2000
   15.6968   -7.5563   -7.8926 C   0  0  0  0  0  0  0  0  0  0  0  0
   15.7021   -8.7102   -8.6517 N   0  0  0  0  0  0  0  0  0  0  0  0
   14.6227   -8.6110   -9.3898 C   0  0  0  0  0  0  0  0  0  0  0  0
   14.1526   -9.5063  -10.4096 C   0  0  0  0  0  0  0  0  0  0  0  0
   13.0818   -9.2522  -11.1123 N   0  0  0  0  0  0  0  0  0  0  0  0
   12.4172   -8.0696  -10.8417 C   0  0  0  0  0  0  0  0  0  0  0  0
   11.3252   -7.7930  -11.5852 F   0  0  0  0  0  0  0  0  0  0  0  0
   12.7848   -7.1878   -9.8993 C   0  0  0  0  0  0  0  0  0  0  0  0
   13.9040   -7.4713   -9.1399 N   0  0  0  0  0  0  0  0  0  0  0  0
   14.5397   -6.8089   -8.1063 C   0  0  0  0  0  0  0  0  0  0  0  0
   18.8671   -6.6440   -5.1924 C   0  0  0  0  0  0  0  0  0  0  0  0
   17.5948   -6.9531   -4.6981 C   0  0  0  0  0  0  0  0  0  0  0  0
   16.5487   -7.2501   -5.5777 C   0  0  0  0  0  0  0  0  0  0  0  0
   16.7651   -7.2490   -6.9608 C   0  0  0  0  0  0  0  0  0  0  0  0
   18.0323   -6.9146   -7.4531 C   0  0  0  0  0  0  0  0  0  0  0  0
   19.0793   -6.6192   -6.5751 C   0  0  0  0  0  0  0  0  0  0  0  0
   21.2257   -8.5922   -3.9675 C   0  0  0  0  0  0  0  0  0  0  0  0
   20.9775   -7.1490   -3.7447 C   0  0  0  0  0  0  0  0  0  0  0  0
   21.7858   -6.4459   -2.9414 N   0  0  0  0  0  0  0  0  0  0  0  0
   21.2850   -5.1582   -2.9370 O   0  0  0  0  0  0  0  0  0  0  0  0
   20.1884   -5.0897   -3.7392 C   0  0  0  0  0  0  0  0  0  0  0  0
   19.5509   -3.7638   -3.8512 C   0  0  0  0  0  0  0  0  0  0  0  0
   19.9437   -6.3343   -4.2777 C   0  0  0  0  0  0  0  0  0  0  0  0
   14.0503   -5.6406   -7.5739 N   0  0  0  0  0  0  0  0  0  0  0  0
   13.3375   -5.6659   -6.8952 H   0  0  0  0  0  0  0  0  0  0  0  0
   14.6058   -4.3329   -8.0308 C   0  0  0  0  0  0  0  0  0  0  0  0
   15.9057   -4.0041   -7.2797 C   0  0  0  0  0  0  0  0  0  0  0  0
   14.9296   -4.4942   -9.5287 C   0  0  0  0  0  0  0  0  0  0  0  0
   13.6092   -3.1771   -7.8754 C   0  0  0  0  0  0  0  0  0  0  0  0
 17 18  1  0
 18 19  2  0
 19 20  1  0
 20 21  1  0
 21 22  1  0
 21 23  2  0
 23 11  1  0
 11 12  2  0
 12 13  1  0
 13 14  2  0
 14  1  1  0
  1  2  1  0
  2  3  2  0
  3  4  1  0
  4  5  2  0
  5  6  1  0
  6  7  1  0
  6  8  2  0
  8  9  1  0
  9 10  1  0
 10 24  1  0
 24 26  1  0
 26 27  1  0
 26 28  1  0
 26 29  1  0
 14 15  1  0
 15 16  2  0
 23 18  1  0
 16 11  1  0
 10  1  2  0
  9  3  1  0
 24 25  1  0
M  END
> <minimizedAffinity>
-5.70739

> <CNNscore>
0.3124305904

> <CNNaffinity>
6.2424616814

> <CNN_VS>
1.9503359795

> <CNNaffinity_variance>
0.0214998554

$$$$
