


 23 25  0  0  0  0  0  0  0  0999 V2000
  112.8096  134.7332   62.0955 C   0  0  0  0  0  0  0  0  0  0  0  0
  111.7059  135.6073   62.1216 C   0  0  0  0  0  0  0  0  0  0  0  0
  111.8864  136.9518   62.3931 C   0  0  0  0  0  0  0  0  0  0  0  0
  113.1669  137.4292   62.6329 C   0  0  0  0  0  0  0  0  0  0  0  0
  114.2854  136.5804   62.6067 C   0  0  0  0  0  0  0  0  0  0  0  0
  115.5372  137.1630   62.8476 C   0  0  0  0  0  0  0  0  0  0  0  0
  116.7005  136.4104   62.8190 C   0  0  0  0  0  0  0  0  0  0  0  0
  116.6239  135.0514   62.5636 C   0  0  0  0  0  0  0  0  0  0  0  0
  115.3843  134.4153   62.3555 C   0  0  0  0  0  0  0  0  0  0  0  0
  114.1562  135.1841   62.3393 C   0  0  0  0  0  0  0  0  0  0  0  0
  112.8587  132.2332   62.8575 O   0  0  0  0  0  0  0  0  0  0  0  0
  112.4243  133.0288   61.7249 S   0  0  0  0  0  0  0  0  0  0  0  0
  112.8992  132.7305   60.3897 O   0  0  0  0  0  0  0  0  0  0  0  0
  110.8113  132.9864   61.6708 O   0  0  0  0  0  0  0  0  0  0  0  0
  110.5181  132.0834   61.4720 H   0  0  0  0  0  0  0  0  0  0  0  0
  115.3749  133.0174   62.0595 N   0  0  0  0  0  0  0  0  0  0  0  0
  114.5203  132.5521   62.2088 H   0  0  0  0  0  0  0  0  0  0  0  0
  116.4424  132.2142   61.5774 C   0  0  0  0  0  0  0  0  0  0  0  0
  117.0993  132.5017   60.3738 C   0  0  0  0  0  0  0  0  0  0  0  0
  118.1976  131.7439   59.9603 C   0  0  0  0  0  0  0  0  0  0  0  0
  118.6696  130.7059   60.7597 C   0  0  0  0  0  0  0  0  0  0  0  0
  118.0522  130.4346   61.9780 C   0  0  0  0  0  0  0  0  0  0  0  0
  116.9540  131.1935   62.3901 C   0  0  0  0  0  0  0  0  0  0  0  0
 11 12  2  0
 12 13  2  0
 12 14  1  0
 12  1  1  0
  1  2  2  0
  2  3  1  0
  3  4  2  0
  4  5  1  0
  5  6  2  0
  6  7  1  0
  7  8  2  0
  8  9  1  0
  9 16  1  0
 16 18  1  0
 18 19  2  0
 19 20  1  0
 20 21  2  0
 21 22  1  0
 22 23  2  0
  9 10  2  0
 10  1  1  0
 10  5  1  0
 23 18  1  0
 14 15  1  0
 16 17  1  0
M  END
> <minimizedAffinity>
-10.50362

> <CNNscore>
0.8813585639

> <CNNaffinity>
5.9134540558

> <CNN_VS>
5.2118735313

> <CNNaffinity_variance>
0.0586467981

$$$$



 23 25  0  0  0  0  0  0  0  0999 V2000
  112.7601  134.6781   61.9803 C   0  0  0  0  0  0  0  0  0  0  0  0
  111.6386  135.5275   62.0387 C   0  0  0  0  0  0  0  0  0  0  0  0
  111.7875  136.8574   62.3895 C   0  0  0  0  0  0  0  0  0  0  0  0
  113.0543  137.3451   62.6768 C   0  0  0  0  0  0  0  0  0  0  0  0
  114.1901  136.5212   62.6201 C   0  0  0  0  0  0  0  0  0  0  0  0
  115.4260  137.1133   62.9140 C   0  0  0  0  0  0  0  0  0  0  0  0
  116.6047  136.3864   62.8610 C   0  0  0  0  0  0  0  0  0  0  0  0
  116.5597  135.0431   62.5271 C   0  0  0  0  0  0  0  0  0  0  0  0
  115.3366  134.3960   62.2630 C   0  0  0  0  0  0  0  0  0  0  0  0
  114.0934  135.1404   62.2711 C   0  0  0  0  0  0  0  0  0  0  0  0
  113.1522  132.7271   60.2851 O   0  0  0  0  0  0  0  0  0  0  0  0
  112.4152  132.9906   61.5066 S   0  0  0  0  0  0  0  0  0  0  0  0
  110.9833  132.7815   61.5627 O   0  0  0  0  0  0  0  0  0  0  0  0
  113.0667  132.1030   62.6873 O   0  0  0  0  0  0  0  0  0  0  0  0
  112.9206  131.1620   62.5026 H   0  0  0  0  0  0  0  0  0  0  0  0
  115.3602  133.0175   61.8874 N   0  0  0  0  0  0  0  0  0  0  0  0
  114.4818  132.5909   61.7624 H   0  0  0  0  0  0  0  0  0  0  0  0
  116.4904  132.1849   61.6716 C   0  0  0  0  0  0  0  0  0  0  0  0
  116.8214  131.1448   62.5499 C   0  0  0  0  0  0  0  0  0  0  0  0
  117.8913  130.2898   62.2742 C   0  0  0  0  0  0  0  0  0  0  0  0
  118.6264  130.4480   61.1021 C   0  0  0  0  0  0  0  0  0  0  0  0
  118.2836  131.4518   60.1999 C   0  0  0  0  0  0  0  0  0  0  0  0
  117.2133  132.3059   60.4771 C   0  0  0  0  0  0  0  0  0  0  0  0
 11 12  2  0
 12 13  2  0
 12 14  1  0
 12  1  1  0
  1  2  2  0
  2  3  1  0
  3  4  2  0
  4  5  1  0
  5  6  2  0
  6  7  1  0
  7  8  2  0
  8  9  1  0
  9 16  1  0
 16 18  1  0
 18 19  2  0
 19 20  1  0
 20 21  2  0
 21 22  1  0
 22 23  2  0
  9 10  2  0
 10  1  1  0
 10  5  1  0
 23 18  1  0
 14 15  1  0
 16 17  1  0
M  END
> <minimizedAffinity>
-10.48554

> <CNNscore>
0.8712122440

> <CNNaffinity>
5.8981881142

> <CNN_VS>
5.1385736465

> <CNNaffinity_variance>
0.0450681150

$$$$



 23 25  0  0  0  0  0  0  0  0999 V2000
  115.1849  133.2506   61.4126 C   0  0  0  0  0  0  0  0  0  0  0  0
  115.9482  132.2653   60.7574 C   0  0  0  0  0  0  0  0  0  0  0  0
  117.2931  132.1175   61.0460 C   0  0  0  0  0  0  0  0  0  0  0  0
  117.8787  132.9465   61.9921 C   0  0  0  0  0  0  0  0  0  0  0  0
  117.1390  133.9329   62.6645 C   0  0  0  0  0  0  0  0  0  0  0  0
  117.8199  134.7089   63.6125 C   0  0  0  0  0  0  0  0  0  0  0  0
  117.1688  135.6902   64.3431 C   0  0  0  0  0  0  0  0  0  0  0  0
  115.8215  135.9208   64.1208 C   0  0  0  0  0  0  0  0  0  0  0  0
  115.1056  135.1931   63.1500 C   0  0  0  0  0  0  0  0  0  0  0  0
  115.7506  134.1338   62.4005 C   0  0  0  0  0  0  0  0  0  0  0  0
  113.2615  134.5637   60.2253 O   0  0  0  0  0  0  0  0  0  0  0  0
  113.4628  133.3191   60.9429 S   0  0  0  0  0  0  0  0  0  0  0  0
  112.6574  132.9991   62.1032 O   0  0  0  0  0  0  0  0  0  0  0  0
  113.2852  132.1022   59.8970 O   0  0  0  0  0  0  0  0  0  0  0  0
  112.3653  132.0708   59.5907 H   0  0  0  0  0  0  0  0  0  0  0  0
  113.7091  135.4521   62.9943 N   0  0  0  0  0  0  0  0  0  0  0  0
  113.1094  134.6886   63.1580 H   0  0  0  0  0  0  0  0  0  0  0  0
  113.0765  136.6714   62.6333 C   0  0  0  0  0  0  0  0  0  0  0  0
  111.7826  136.7030   62.0973 C   0  0  0  0  0  0  0  0  0  0  0  0
  111.1516  137.9192   61.8241 C   0  0  0  0  0  0  0  0  0  0  0  0
  111.7972  139.1195   62.1097 C   0  0  0  0  0  0  0  0  0  0  0  0
  113.0673  139.1038   62.6805 C   0  0  0  0  0  0  0  0  0  0  0  0
  113.6968  137.8867   62.9532 C   0  0  0  0  0  0  0  0  0  0  0  0
 11 12  2  0
 12 13  2  0
 12 14  1  0
 12  1  1  0
  1  2  2  0
  2  3  1  0
  3  4  2  0
  4  5  1  0
  5  6  2  0
  6  7  1  0
  7  8  2  0
  8  9  1  0
  9 16  1  0
 16 18  1  0
 18 19  2  0
 19 20  1  0
 20 21  2  0
 21 22  1  0
 22 23  2  0
  9 10  2  0
 10  1  1  0
 10  5  1  0
 23 18  1  0
 14 15  1  0
 16 17  1  0
M  END
> <minimizedAffinity>
-8.85004

> <CNNscore>
0.8267451525

> <CNNaffinity>
5.7824287415

> <CNN_VS>
4.7805948257

> <CNNaffinity_variance>
0.0157618728

$$$$



 23 25  0  0  0  0  0  0  0  0999 V2000
  112.7825  134.5417   61.9602 C   0  0  0  0  0  0  0  0  0  0  0  0
  111.4179  134.8437   61.7884 C   0  0  0  0  0  0  0  0  0  0  0  0
  110.9614  136.1375   61.9663 C   0  0  0  0  0  0  0  0  0  0  0  0
  111.8640  137.1339   62.3093 C   0  0  0  0  0  0  0  0  0  0  0  0
  113.2309  136.8611   62.4807 C   0  0  0  0  0  0  0  0  0  0  0  0
  114.0624  137.9394   62.8128 C   0  0  0  0  0  0  0  0  0  0  0  0
  115.4281  137.7726   62.9788 C   0  0  0  0  0  0  0  0  0  0  0  0
  115.9812  136.5117   62.8300 C   0  0  0  0  0  0  0  0  0  0  0  0
  115.1792  135.3915   62.5360 C   0  0  0  0  0  0  0  0  0  0  0  0
  113.7549  135.5433   62.3170 C   0  0  0  0  0  0  0  0  0  0  0  0
  113.6768  132.2991   62.9623 O   0  0  0  0  0  0  0  0  0  0  0  0
  113.2253  132.8323   61.6909 S   0  0  0  0  0  0  0  0  0  0  0  0
  114.0714  132.7564   60.5180 O   0  0  0  0  0  0  0  0  0  0  0  0
  111.8305  132.1131   61.3119 O   0  0  0  0  0  0  0  0  0  0  0  0
  111.9870  131.1698   61.1485 H   0  0  0  0  0  0  0  0  0  0  0  0
  115.8146  134.1242   62.3578 N   0  0  0  0  0  0  0  0  0  0  0  0
  115.2945  133.4477   61.8669 H   0  0  0  0  0  0  0  0  0  0  0  0
  117.1016  133.7168   62.7994 C   0  0  0  0  0  0  0  0  0  0  0  0
  117.6712  134.2151   63.9783 C   0  0  0  0  0  0  0  0  0  0  0  0
  118.9038  133.7400   64.4329 C   0  0  0  0  0  0  0  0  0  0  0  0
  119.5690  132.7401   63.7279 C   0  0  0  0  0  0  0  0  0  0  0  0
  118.9957  132.2063   62.5766 C   0  0  0  0  0  0  0  0  0  0  0  0
  117.7630  132.6825   62.1234 C   0  0  0  0  0  0  0  0  0  0  0  0
 11 12  2  0
 12 13  2  0
 12 14  1  0
 12  1  1  0
  1  2  2  0
  2  3  1  0
  3  4  2  0
  4  5  1  0
  5  6  2  0
  6  7  1  0
  7  8  2  0
  8  9  1  0
  9 16  1  0
 16 18  1  0
 18 19  2  0
 19 20  1  0
 20 21  2  0
 21 22  1  0
 22 23  2  0
  9 10  2  0
 10  1  1  0
 10  5  1  0
 23 18  1  0
 14 15  1  0
 16 17  1  0
M  END
> <minimizedAffinity>
-9.09080

> <CNNscore>
0.8231553435

> <CNNaffinity>
6.0110239983

> <CNN_VS>
4.9480066299

> <CNNaffinity_variance>
0.0055605490

$$$$



 23 25  0  0  0  0  0  0  0  0999 V2000
  113.7766  133.8062   61.8571 C   0  0  0  0  0  0  0  0  0  0  0  0
  114.0398  132.4352   61.6733 C   0  0  0  0  0  0  0  0  0  0  0  0
  115.2860  131.9167   61.9767 C   0  0  0  0  0  0  0  0  0  0  0  0
  116.2702  132.7615   62.4695 C   0  0  0  0  0  0  0  0  0  0  0  0
  116.0323  134.1313   62.6680 C   0  0  0  0  0  0  0  0  0  0  0  0
  117.0874  134.8963   63.1837 C   0  0  0  0  0  0  0  0  0  0  0  0
  116.9399  136.2511   63.4356 C   0  0  0  0  0  0  0  0  0  0  0  0
  115.7307  136.8659   63.1568 C   0  0  0  0  0  0  0  0  0  0  0  0
  114.6554  136.1457   62.6004 C   0  0  0  0  0  0  0  0  0  0  0  0
  114.7678  134.7204   62.3648 C   0  0  0  0  0  0  0  0  0  0  0  0
  111.5086  134.8452   62.6383 O   0  0  0  0  0  0  0  0  0  0  0  0
  112.1231  134.3296   61.4295 S   0  0  0  0  0  0  0  0  0  0  0  0
  111.4871  133.2702   60.6741 O   0  0  0  0  0  0  0  0  0  0  0  0
  112.3448  135.5642   60.4132 O   0  0  0  0  0  0  0  0  0  0  0  0
  111.4834  135.9093   60.1308 H   0  0  0  0  0  0  0  0  0  0  0  0
  113.4216  136.8289   62.3706 N   0  0  0  0  0  0  0  0  0  0  0  0
  112.6850  136.2792   62.0178 H   0  0  0  0  0  0  0  0  0  0  0  0
  113.1234  138.2006   62.5867 C   0  0  0  0  0  0  0  0  0  0  0  0
  111.9199  138.7729   62.1548 C   0  0  0  0  0  0  0  0  0  0  0  0
  111.6155  140.1043   62.4488 C   0  0  0  0  0  0  0  0  0  0  0  0
  112.4998  140.8719   63.2026 C   0  0  0  0  0  0  0  0  0  0  0  0
  113.6812  140.3047   63.6734 C   0  0  0  0  0  0  0  0  0  0  0  0
  113.9839  138.9730   63.3786 C   0  0  0  0  0  0  0  0  0  0  0  0
 11 12  2  0
 12 13  2  0
 12 14  1  0
 12  1  1  0
  1  2  2  0
  2  3  1  0
  3  4  2  0
  4  5  1  0
  5  6  2  0
  6  7  1  0
  7  8  2  0
  8  9  1  0
  9 16  1  0
 16 18  1  0
 18 19  2  0
 19 20  1  0
 20 21  2  0
 21 22  1  0
 22 23  2  0
  9 10  2  0
 10  1  1  0
 10  5  1  0
 23 18  1  0
 14 15  1  0
 16 17  1  0
M  END
> <minimizedAffinity>
-7.18371

> <CNNscore>
0.7899780869

> <CNNaffinity>
5.6229233742

> <CNN_VS>
4.4419860840

> <CNNaffinity_variance>
0.0463923514

$$$$



 23 25  0  0  0  0  0  0  0  0999 V2000
  122.7904  133.1333   64.6520 C   0  0  0  0  0  0  0  0  0  0  0  0
  121.6442  133.9116   64.4002 C   0  0  0  0  0  0  0  0  0  0  0  0
  120.4944  133.3216   63.9065 C   0  0  0  0  0  0  0  0  0  0  0  0
  120.4821  131.9547   63.6685 C   0  0  0  0  0  0  0  0  0  0  0  0
  121.6092  131.1546   63.9167 C   0  0  0  0  0  0  0  0  0  0  0  0
  121.4900  129.7824   63.6572 C   0  0  0  0  0  0  0  0  0  0  0  0
  122.5405  128.9099   63.8936 C   0  0  0  0  0  0  0  0  0  0  0  0
  123.7384  129.4054   64.3808 C   0  0  0  0  0  0  0  0  0  0  0  0
  123.9173  130.7824   64.6185 C   0  0  0  0  0  0  0  0  0  0  0  0
  122.8237  131.7118   64.4190 C   0  0  0  0  0  0  0  0  0  0  0  0
  123.7715  135.4015   65.5043 O   0  0  0  0  0  0  0  0  0  0  0  0
  124.1956  134.0302   65.2937 S   0  0  0  0  0  0  0  0  0  0  0  0
  125.3464  133.7340   64.4660 O   0  0  0  0  0  0  0  0  0  0  0  0
  124.4705  133.3624   66.7376 O   0  0  0  0  0  0  0  0  0  0  0  0
  125.2283  133.7993   67.1569 H   0  0  0  0  0  0  0  0  0  0  0  0
  125.1643  131.2264   65.1567 N   0  0  0  0  0  0  0  0  0  0  0  0
  125.2142  132.1802   65.3954 H   0  0  0  0  0  0  0  0  0  0  0  0
  126.3407  130.4660   65.3908 C   0  0  0  0  0  0  0  0  0  0  0  0
  127.3279  130.8887   66.2904 C   0  0  0  0  0  0  0  0  0  0  0  0
  128.4380  130.0854   66.5629 C   0  0  0  0  0  0  0  0  0  0  0  0
  128.5602  128.8365   65.9591 C   0  0  0  0  0  0  0  0  0  0  0  0
  127.5665  128.3855   65.0940 C   0  0  0  0  0  0  0  0  0  0  0  0
  126.4570  129.1901   64.8228 C   0  0  0  0  0  0  0  0  0  0  0  0
 11 12  2  0
 12 13  2  0
 12 14  1  0
 12  1  1  0
  1  2  2  0
  2  3  1  0
  3  4  2  0
  4  5  1  0
  5  6  2  0
  6  7  1  0
  7  8  2  0
  8  9  1  0
  9 16  1  0
 16 18  1  0
 18 19  2  0
 19 20  1  0
 20 21  2  0
 21 22  1  0
 22 23  2  0
  9 10  2  0
 10  1  1  0
 10  5  1  0
 23 18  1  0
 14 15  1  0
 16 17  1  0
M  END
> <minimizedAffinity>
-7.28556

> <CNNscore>
0.6731791496

> <CNNaffinity>
4.7237658501

> <CNN_VS>
3.1799407005

> <CNNaffinity_variance>
0.2891876996

$$$$



 23 25  0  0  0  0  0  0  0  0999 V2000
  120.2580  135.4735   65.3099 C   0  0  0  0  0  0  0  0  0  0  0  0
  119.2799  136.3882   65.7452 C   0  0  0  0  0  0  0  0  0  0  0  0
  117.9419  136.1595   65.4778 C   0  0  0  0  0  0  0  0  0  0  0  0
  117.5753  135.0165   64.7818 C   0  0  0  0  0  0  0  0  0  0  0  0
  118.5298  134.0852   64.3418 C   0  0  0  0  0  0  0  0  0  0  0  0
  118.0558  132.9560   63.6600 C   0  0  0  0  0  0  0  0  0  0  0  0
  118.9196  131.9707   63.2087 C   0  0  0  0  0  0  0  0  0  0  0  0
  120.2809  132.1120   63.4207 C   0  0  0  0  0  0  0  0  0  0  0  0
  120.8064  133.2489   64.0655 C   0  0  0  0  0  0  0  0  0  0  0  0
  119.9238  134.2747   64.5837 C   0  0  0  0  0  0  0  0  0  0  0  0
  122.6657  136.0767   64.4898 O   0  0  0  0  0  0  0  0  0  0  0  0
  121.9408  135.8970   65.7335 S   0  0  0  0  0  0  0  0  0  0  0  0
  122.4125  134.9604   66.7323 O   0  0  0  0  0  0  0  0  0  0  0  0
  121.8210  137.3353   66.4569 O   0  0  0  0  0  0  0  0  0  0  0  0
  122.7036  137.6390   66.7209 H   0  0  0  0  0  0  0  0  0  0  0  0
  122.2162  133.3180   64.2874 N   0  0  0  0  0  0  0  0  0  0  0  0
  122.5954  134.2232   64.3646 H   0  0  0  0  0  0  0  0  0  0  0  0
  123.1397  132.2460   64.4108 C   0  0  0  0  0  0  0  0  0  0  0  0
  124.2815  132.3424   65.2169 C   0  0  0  0  0  0  0  0  0  0  0  0
  125.1326  131.2473   65.3844 C   0  0  0  0  0  0  0  0  0  0  0  0
  124.8369  130.0335   64.7691 C   0  0  0  0  0  0  0  0  0  0  0  0
  123.6839  129.9110   63.9980 C   0  0  0  0  0  0  0  0  0  0  0  0
  122.8337  131.0071   63.8316 C   0  0  0  0  0  0  0  0  0  0  0  0
 11 12  2  0
 12 13  2  0
 12 14  1  0
 12  1  1  0
  1  2  2  0
  2  3  1  0
  3  4  2  0
  4  5  1  0
  5  6  2  0
  6  7  1  0
  7  8  2  0
  8  9  1  0
  9 16  1  0
 16 18  1  0
 18 19  2  0
 19 20  1  0
 20 21  2  0
 21 22  1  0
 22 23  2  0
  9 10  2  0
 10  1  1  0
 10  5  1  0
 23 18  1  0
 14 15  1  0
 16 17  1  0
M  END
> <minimizedAffinity>
-7.48836

> <CNNscore>
0.6454231143

> <CNNaffinity>
4.9345664978

> <CNN_VS>
3.1848833561

> <CNNaffinity_variance>
0.3612403870

$$$$



 23 25  0  0  0  0  0  0  0  0999 V2000
  120.6136  134.9855   65.3521 C   0  0  0  0  0  0  0  0  0  0  0  0
  119.2151  134.8224   65.3336 C   0  0  0  0  0  0  0  0  0  0  0  0
  118.6460  133.7506   64.6694 C   0  0  0  0  0  0  0  0  0  0  0  0
  119.4688  132.8361   64.0278 C   0  0  0  0  0  0  0  0  0  0  0  0
  120.8666  132.9718   64.0360 C   0  0  0  0  0  0  0  0  0  0  0  0
  121.6095  131.9868   63.3708 C   0  0  0  0  0  0  0  0  0  0  0  0
  122.9946  132.0229   63.3449 C   0  0  0  0  0  0  0  0  0  0  0  0
  123.6588  133.0622   63.9748 C   0  0  0  0  0  0  0  0  0  0  0  0
  122.9529  134.0957   64.6213 C   0  0  0  0  0  0  0  0  0  0  0  0
  121.5063  134.0620   64.6992 C   0  0  0  0  0  0  0  0  0  0  0  0
  122.2035  135.9408   67.1942 O   0  0  0  0  0  0  0  0  0  0  0  0
  121.2036  136.4102   66.2538 S   0  0  0  0  0  0  0  0  0  0  0  0
  120.0590  137.1691   66.7132 O   0  0  0  0  0  0  0  0  0  0  0  0
  121.9470  137.3096   65.1380 O   0  0  0  0  0  0  0  0  0  0  0  0
  122.3001  138.1124   65.5525 H   0  0  0  0  0  0  0  0  0  0  0  0
  123.6965  135.1197   65.2849 N   0  0  0  0  0  0  0  0  0  0  0  0
  123.2478  135.5511   66.0476 H   0  0  0  0  0  0  0  0  0  0  0  0
  125.0009  135.5938   64.9834 C   0  0  0  0  0  0  0  0  0  0  0  0
  125.2189  136.8711   64.4508 C   0  0  0  0  0  0  0  0  0  0  0  0
  126.5157  137.3445   64.2369 C   0  0  0  0  0  0  0  0  0  0  0  0
  127.6114  136.5559   64.5789 C   0  0  0  0  0  0  0  0  0  0  0  0
  127.4105  135.3005   65.1470 C   0  0  0  0  0  0  0  0  0  0  0  0
  126.1129  134.8287   65.3604 C   0  0  0  0  0  0  0  0  0  0  0  0
 11 12  2  0
 12 13  2  0
 12 14  1  0
 12  1  1  0
  1  2  2  0
  2  3  1  0
  3  4  2  0
  4  5  1  0
  5  6  2  0
  6  7  1  0
  7  8  2  0
  8  9  1  0
  9 16  1  0
 16 18  1  0
 18 19  2  0
 19 20  1  0
 20 21  2  0
 21 22  1  0
 22 23  2  0
  9 10  2  0
 10  1  1  0
 10  5  1  0
 23 18  1  0
 14 15  1  0
 16 17  1  0
M  END
> <minimizedAffinity>
-6.41821

> <CNNscore>
0.6123032570

> <CNNaffinity>
4.6926803589

> <CNN_VS>
2.8733434677

> <CNNaffinity_variance>
0.1836612672

$$$$



 23 25  0  0  0  0  0  0  0  0999 V2000
  123.1401  134.9161   65.2748 C   0  0  0  0  0  0  0  0  0  0  0  0
  124.5426  135.0355   65.3147 C   0  0  0  0  0  0  0  0  0  0  0  0
  125.3423  134.0722   64.7262 C   0  0  0  0  0  0  0  0  0  0  0  0
  124.7466  132.9916   64.0916 C   0  0  0  0  0  0  0  0  0  0  0  0
  123.3506  132.8516   64.0320 C   0  0  0  0  0  0  0  0  0  0  0  0
  122.8476  131.7319   63.3553 C   0  0  0  0  0  0  0  0  0  0  0  0
  121.4842  131.5211   63.2237 C   0  0  0  0  0  0  0  0  0  0  0  0
  120.5997  132.4261   63.7863 C   0  0  0  0  0  0  0  0  0  0  0  0
  121.0592  133.5442   64.5097 C   0  0  0  0  0  0  0  0  0  0  0  0
  122.4784  133.8115   64.6284 C   0  0  0  0  0  0  0  0  0  0  0  0
  121.5102  135.6547   67.1804 O   0  0  0  0  0  0  0  0  0  0  0  0
  122.2391  136.2378   66.0699 S   0  0  0  0  0  0  0  0  0  0  0  0
  121.5450  136.9980   65.0512 O   0  0  0  0  0  0  0  0  0  0  0  0
  123.3880  137.1986   66.6727 O   0  0  0  0  0  0  0  0  0  0  0  0
  122.9756  137.9504   67.1263 H   0  0  0  0  0  0  0  0  0  0  0  0
  120.0969  134.4612   65.0340 N   0  0  0  0  0  0  0  0  0  0  0  0
  120.3462  134.9136   65.8721 H   0  0  0  0  0  0  0  0  0  0  0  0
  118.8263  134.8027   64.4991 C   0  0  0  0  0  0  0  0  0  0  0  0
  118.1859  134.0016   63.5447 C   0  0  0  0  0  0  0  0  0  0  0  0
  116.9021  134.3165   63.0925 C   0  0  0  0  0  0  0  0  0  0  0  0
  116.2319  135.4219   63.6103 C   0  0  0  0  0  0  0  0  0  0  0  0
  116.8395  136.2041   64.5892 C   0  0  0  0  0  0  0  0  0  0  0  0
  118.1234  135.8876   65.0404 C   0  0  0  0  0  0  0  0  0  0  0  0
 11 12  2  0
 12 13  2  0
 12 14  1  0
 12  1  1  0
  1  2  2  0
  2  3  1  0
  3  4  2  0
  4  5  1  0
  5  6  2  0
  6  7  1  0
  7  8  2  0
  8  9  1  0
  9 16  1  0
 16 18  1  0
 18 19  2  0
 19 20  1  0
 20 21  2  0
 21 22  1  0
 22 23  2  0
  9 10  2  0
 10  1  1  0
 10  5  1  0
 23 18  1  0
 14 15  1  0
 16 17  1  0
M  END
> <minimizedAffinity>
-6.61744

> <CNNscore>
0.6029983163

> <CNNaffinity>
4.8582863808

> <CNN_VS>
2.9295384884

> <CNNaffinity_variance>
0.3341784477

$$$$
