


 17 19  0  0  0  0  0  0  0  0999 V2000
    9.2096   80.6555   -3.0369 O   0  0  0  0  0  0  0  0  0  0  0  0
    9.0872   80.9767   -1.8588 C   0  0  0  0  0  0  0  0  0  0  0  0
   10.1444   80.8740   -0.9855 N   0  0  0  0  0  0  0  0  0  0  0  0
   10.0471   81.2227    0.3377 C   0  0  0  0  0  0  0  0  0  0  0  0
    8.9923   81.6794    0.9315 N   0  0  0  0  0  0  0  0  0  0  0  0
    7.8619   81.8144    0.1022 C   0  0  0  0  0  0  0  0  0  0  0  0
    7.9060   81.4810   -1.2226 C   0  0  0  0  0  0  0  0  0  0  0  0
    6.4376   81.7282   -2.0030 S   0  0  0  0  0  0  0  0  0  0  0  0
    5.6803   82.3046   -0.5488 C   0  0  0  0  0  0  0  0  0  0  0  0
    4.3414   82.7401   -0.3912 C   0  0  0  0  0  0  0  0  0  0  0  0
    3.2254   82.7530   -1.7081 Cl  0  0  0  0  0  0  0  0  0  0  0  0
    3.8932   83.1752    0.8585 C   0  0  0  0  0  0  0  0  0  0  0  0
    4.7517   83.1831    1.9447 C   0  0  0  0  0  0  0  0  0  0  0  0
    6.0696   82.7531    1.7841 C   0  0  0  0  0  0  0  0  0  0  0  0
    7.1248   82.7662    3.1342 Cl  0  0  0  0  0  0  0  0  0  0  0  0
    6.5815   82.3000    0.5388 C   0  0  0  0  0  0  0  0  0  0  0  0
   11.0055   80.5368   -1.3233 H   0  0  0  0  0  0  0  0  0  0  0  0
  1  2  2  0
  2  3  1  0
  3  4  1  0
  4  5  2  0
  5  6  1  0
  6  7  2  0
  7  8  1  0
  8  9  1  0
  9 10  2  0
 10 11  1  0
 10 12  1  0
 12 13  2  0
 13 14  1  0
 14 15  1  0
 14 16  2  0
  7  2  1  0
 16  9  1  0
 16  6  1  0
  3 17  1  0
M  END
> <minimizedAffinity>
-7.80592

> <CNNscore>
0.9369883537

> <CNNaffinity>
7.0768084526

> <CNN_VS>
6.6308870316

> <CNNaffinity_variance>
0.1887760907

$$$$



 17 19  0  0  0  0  0  0  0  0999 V2000
    8.2849   82.3863    3.5135 O   0  0  0  0  0  0  0  0  0  0  0  0
    8.2830   82.1128    2.3171 C   0  0  0  0  0  0  0  0  0  0  0  0
    9.4186   81.6462    1.6978 N   0  0  0  0  0  0  0  0  0  0  0  0
    9.4563   81.3298    0.3635 C   0  0  0  0  0  0  0  0  0  0  0  0
    8.4718   81.4202   -0.4709 N   0  0  0  0  0  0  0  0  0  0  0  0
    7.2682   81.8924    0.0878 C   0  0  0  0  0  0  0  0  0  0  0  0
    7.1776   82.2215    1.4113 C   0  0  0  0  0  0  0  0  0  0  0  0
    5.6441   82.7588    1.8427 S   0  0  0  0  0  0  0  0  0  0  0  0
    5.0414   82.5606    0.2247 C   0  0  0  0  0  0  0  0  0  0  0  0
    3.7313   82.8280   -0.2435 C   0  0  0  0  0  0  0  0  0  0  0  0
    2.4925   83.4218    0.8019 Cl  0  0  0  0  0  0  0  0  0  0  0  0
    3.4140   82.6112   -1.5867 C   0  0  0  0  0  0  0  0  0  0  0  0
    4.3744   82.1356   -2.4634 C   0  0  0  0  0  0  0  0  0  0  0  0
    5.6634   81.8738   -1.9972 C   0  0  0  0  0  0  0  0  0  0  0  0
    6.8453   81.2856   -3.0895 Cl  0  0  0  0  0  0  0  0  0  0  0  0
    6.0442   82.0750   -0.6433 C   0  0  0  0  0  0  0  0  0  0  0  0
   10.2371   81.5347    2.2333 H   0  0  0  0  0  0  0  0  0  0  0  0
  1  2  2  0
  2  3  1  0
  3  4  1  0
  4  5  2  0
  5  6  1  0
  6  7  2  0
  7  8  1  0
  8  9  1  0
  9 10  2  0
 10 11  1  0
 10 12  1  0
 12 13  2  0
 13 14  1  0
 14 15  1  0
 14 16  2  0
  7  2  1  0
 16  9  1  0
 16  6  1  0
  3 17  1  0
M  END
> <minimizedAffinity>
-7.42785

> <CNNscore>
0.8707666993

> <CNNaffinity>
6.8509078026

> <CNN_VS>
5.9655423164

> <CNNaffinity_variance>
0.2179103345

$$$$



 17 19  0  0  0  0  0  0  0  0999 V2000
   10.9004   80.8746   -0.3910 O   0  0  0  0  0  0  0  0  0  0  0  0
    9.8129   81.0307   -0.9379 C   0  0  0  0  0  0  0  0  0  0  0  0
    9.6417   80.7271   -2.2681 N   0  0  0  0  0  0  0  0  0  0  0  0
    8.4426   80.8878   -2.9148 C   0  0  0  0  0  0  0  0  0  0  0  0
    7.3453   81.3292   -2.3906 N   0  0  0  0  0  0  0  0  0  0  0  0
    7.4381   81.6636   -1.0256 C   0  0  0  0  0  0  0  0  0  0  0  0
    8.6091   81.5223   -0.3351 C   0  0  0  0  0  0  0  0  0  0  0  0
    8.4726   81.9848    1.2754 S   0  0  0  0  0  0  0  0  0  0  0  0
    6.7951   82.3990    1.0886 C   0  0  0  0  0  0  0  0  0  0  0  0
    5.9183   82.9029    2.0807 C   0  0  0  0  0  0  0  0  0  0  0  0
    6.4410   83.1860    3.7013 Cl  0  0  0  0  0  0  0  0  0  0  0  0
    4.5888   83.1848    1.7570 C   0  0  0  0  0  0  0  0  0  0  0  0
    4.1233   82.9739    0.4701 C   0  0  0  0  0  0  0  0  0  0  0  0
    4.9911   82.4773   -0.5035 C   0  0  0  0  0  0  0  0  0  0  0  0
    4.4060   82.2196   -2.0933 Cl  0  0  0  0  0  0  0  0  0  0  0  0
    6.3521   82.1726   -0.2334 C   0  0  0  0  0  0  0  0  0  0  0  0
   10.4102   80.3805   -2.7766 H   0  0  0  0  0  0  0  0  0  0  0  0
  1  2  2  0
  2  3  1  0
  3  4  1  0
  4  5  2  0
  5  6  1  0
  6  7  2  0
  7  8  1  0
  8  9  1  0
  9 10  2  0
 10 11  1  0
 10 12  1  0
 12 13  2  0
 13 14  1  0
 14 15  1  0
 14 16  2  0
  7  2  1  0
 16  9  1  0
 16  6  1  0
  3 17  1  0
M  END
> <minimizedAffinity>
-7.60147

> <CNNscore>
0.8479433656

> <CNNaffinity>
6.6809859276

> <CNN_VS>
5.6650977135

> <CNNaffinity_variance>
0.1758373976

$$$$



 17 19  0  0  0  0  0  0  0  0999 V2000
    9.5631   81.2580   -1.0166 O   0  0  0  0  0  0  0  0  0  0  0  0
    8.3653   81.5021   -1.1263 C   0  0  0  0  0  0  0  0  0  0  0  0
    7.7428   81.4465   -2.3511 N   0  0  0  0  0  0  0  0  0  0  0  0
    6.4070   81.7124   -2.5144 C   0  0  0  0  0  0  0  0  0  0  0  0
    5.5738   82.0401   -1.5806 N   0  0  0  0  0  0  0  0  0  0  0  0
    6.1358   82.1190   -0.2915 C   0  0  0  0  0  0  0  0  0  0  0  0
    7.4610   81.8638   -0.0748 C   0  0  0  0  0  0  0  0  0  0  0  0
    7.8963   82.0215    1.5413 S   0  0  0  0  0  0  0  0  0  0  0  0
    6.2778   82.4478    2.0097 C   0  0  0  0  0  0  0  0  0  0  0  0
    5.8119   82.7530    3.3123 C   0  0  0  0  0  0  0  0  0  0  0  0
    6.8612   82.7384    4.6830 Cl  0  0  0  0  0  0  0  0  0  0  0  0
    4.4680   83.0777    3.5130 C   0  0  0  0  0  0  0  0  0  0  0  0
    3.5882   83.1024    2.4442 C   0  0  0  0  0  0  0  0  0  0  0  0
    4.0521   82.8010    1.1631 C   0  0  0  0  0  0  0  0  0  0  0  0
    2.9559   82.8343   -0.1535 Cl  0  0  0  0  0  0  0  0  0  0  0  0
    5.4066   82.4641    0.8981 C   0  0  0  0  0  0  0  0  0  0  0  0
    8.2771   81.2062   -3.1424 H   0  0  0  0  0  0  0  0  0  0  0  0
  1  2  2  0
  2  3  1  0
  3  4  1  0
  4  5  2  0
  5  6  1  0
  6  7  2  0
  7  8  1  0
  8  9  1  0
  9 10  2  0
 10 11  1  0
 10 12  1  0
 12 13  2  0
 13 14  1  0
 14 15  1  0
 14 16  2  0
  7  2  1  0
 16  9  1  0
 16  6  1  0
  3 17  1  0
M  END
> <minimizedAffinity>
-7.26134

> <CNNscore>
0.6938437819

> <CNNaffinity>
6.6321597099

> <CNN_VS>
4.6016826630

> <CNNaffinity_variance>
0.2521556020

$$$$



 17 19  0  0  0  0  0  0  0  0999 V2000
    2.9088   82.6336   -1.8280 O   0  0  0  0  0  0  0  0  0  0  0  0
    4.1010   82.3983   -1.6565 C   0  0  0  0  0  0  0  0  0  0  0  0
    4.9040   82.0190   -2.7064 N   0  0  0  0  0  0  0  0  0  0  0  0
    6.2400   81.7475   -2.5549 C   0  0  0  0  0  0  0  0  0  0  0  0
    6.9109   81.8062   -1.4503 N   0  0  0  0  0  0  0  0  0  0  0  0
    6.1572   82.1891   -0.3237 C   0  0  0  0  0  0  0  0  0  0  0  0
    4.8232   82.4703   -0.4206 C   0  0  0  0  0  0  0  0  0  0  0  0
    4.1426   82.9029    1.0545 S   0  0  0  0  0  0  0  0  0  0  0  0
    5.6568   82.7206    1.8878 C   0  0  0  0  0  0  0  0  0  0  0  0
    5.9094   82.9253    3.2667 C   0  0  0  0  0  0  0  0  0  0  0  0
    4.6649   83.4120    4.3596 Cl  0  0  0  0  0  0  0  0  0  0  0  0
    7.1963   82.7325    3.7751 C   0  0  0  0  0  0  0  0  0  0  0  0
    8.2272   82.3422    2.9372 C   0  0  0  0  0  0  0  0  0  0  0  0
    7.9732   82.1419    1.5797 C   0  0  0  0  0  0  0  0  0  0  0  0
    9.2552   81.6589    0.5505 Cl  0  0  0  0  0  0  0  0  0  0  0  0
    6.6860   82.3224    1.0062 C   0  0  0  0  0  0  0  0  0  0  0  0
    4.5040   81.9390   -3.6024 H   0  0  0  0  0  0  0  0  0  0  0  0
  1  2  2  0
  2  3  1  0
  3  4  1  0
  4  5  2  0
  5  6  1  0
  6  7  2  0
  7  8  1  0
  8  9  1  0
  9 10  2  0
 10 11  1  0
 10 12  1  0
 12 13  2  0
 13 14  1  0
 14 15  1  0
 14 16  2  0
  7  2  1  0
 16  9  1  0
 16  6  1  0
  3 17  1  0
M  END
> <minimizedAffinity>
-7.35359

> <CNNscore>
0.6869199872

> <CNNaffinity>
6.5396122932

> <CNN_VS>
4.4921903610

> <CNNaffinity_variance>
0.4500025213

$$$$



 17 19  0  0  0  0  0  0  0  0999 V2000
    6.1349   81.6593   -2.8505 O   0  0  0  0  0  0  0  0  0  0  0  0
    5.2995   82.0189   -2.0265 C   0  0  0  0  0  0  0  0  0  0  0  0
    4.0050   82.2873   -2.4046 N   0  0  0  0  0  0  0  0  0  0  0  0
    3.0431   82.6913   -1.5139 C   0  0  0  0  0  0  0  0  0  0  0  0
    3.2061   82.8708   -0.2431 N   0  0  0  0  0  0  0  0  0  0  0  0
    4.5099   82.6157    0.2249 C   0  0  0  0  0  0  0  0  0  0  0  0
    5.5043   82.2112   -0.6210 C   0  0  0  0  0  0  0  0  0  0  0  0
    6.9692   81.9704    0.1680 S   0  0  0  0  0  0  0  0  0  0  0  0
    6.2946   82.4132    1.7073 C   0  0  0  0  0  0  0  0  0  0  0  0
    6.9607   82.4591    2.9568 C   0  0  0  0  0  0  0  0  0  0  0  0
    8.6316   82.0551    3.1150 Cl  0  0  0  0  0  0  0  0  0  0  0  0
    6.2619   82.8401    4.1049 C   0  0  0  0  0  0  0  0  0  0  0  0
    4.9202   83.1731    4.0278 C   0  0  0  0  0  0  0  0  0  0  0  0
    4.2687   83.1263    2.7946 C   0  0  0  0  0  0  0  0  0  0  0  0
    2.6081   83.5404    2.7090 Cl  0  0  0  0  0  0  0  0  0  0  0  0
    4.9268   82.7469    1.5941 C   0  0  0  0  0  0  0  0  0  0  0  0
    3.7586   82.1855   -3.3523 H   0  0  0  0  0  0  0  0  0  0  0  0
  1  2  2  0
  2  3  1  0
  3  4  1  0
  4  5  2  0
  5  6  1  0
  6  7  2  0
  7  8  1  0
  8  9  1  0
  9 10  2  0
 10 11  1  0
 10 12  1  0
 12 13  2  0
 13 14  1  0
 14 15  1  0
 14 16  2  0
  7  2  1  0
 16  9  1  0
 16  6  1  0
  3 17  1  0
M  END
> <minimizedAffinity>
-6.91262

> <CNNscore>
0.6398726702

> <CNNaffinity>
6.1917252541

> <CNN_VS>
3.9619157314

> <CNNaffinity_variance>
0.0827443227

$$$$



 17 19  0  0  0  0  0  0  0  0999 V2000
    9.1858   81.9466   -1.1463 O   0  0  0  0  0  0  0  0  0  0  0  0
    8.0075   82.1413   -0.8638 C   0  0  0  0  0  0  0  0  0  0  0  0
    7.0592   82.2827   -1.8495 N   0  0  0  0  0  0  0  0  0  0  0  0
    5.7333   82.5015   -1.5741 C   0  0  0  0  0  0  0  0  0  0  0  0
    5.2041   82.6022   -0.3978 N   0  0  0  0  0  0  0  0  0  0  0  0
    6.1129   82.4682    0.6698 C   0  0  0  0  0  0  0  0  0  0  0  0
    7.4439   82.2494    0.4496 C   0  0  0  0  0  0  0  0  0  0  0  0
    8.3255   82.1243    1.8757 S   0  0  0  0  0  0  0  0  0  0  0  0
    6.9105   82.3663    2.8555 C   0  0  0  0  0  0  0  0  0  0  0  0
    6.8391   82.3957    4.2701 C   0  0  0  0  0  0  0  0  0  0  0  0
    8.2379   82.1812    5.2586 Cl  0  0  0  0  0  0  0  0  0  0  0  0
    5.6101   82.6032    4.9011 C   0  0  0  0  0  0  0  0  0  0  0  0
    4.4603   82.7802    4.1503 C   0  0  0  0  0  0  0  0  0  0  0  0
    4.5361   82.7504    2.7571 C   0  0  0  0  0  0  0  0  0  0  0  0
    3.1080   82.9705    1.8362 Cl  0  0  0  0  0  0  0  0  0  0  0  0
    5.7568   82.5435    2.0603 C   0  0  0  0  0  0  0  0  0  0  0  0
    7.3432   82.2247   -2.7904 H   0  0  0  0  0  0  0  0  0  0  0  0
  1  2  2  0
  2  3  1  0
  3  4  1  0
  4  5  2  0
  5  6  1  0
  6  7  2  0
  7  8  1  0
  8  9  1  0
  9 10  2  0
 10 11  1  0
 10 12  1  0
 12 13  2  0
 13 14  1  0
 14 15  1  0
 14 16  2  0
  7  2  1  0
 16  9  1  0
 16  6  1  0
  3 17  1  0
M  END
> <minimizedAffinity>
-6.28983

> <CNNscore>
0.5986732841

> <CNNaffinity>
6.3949890137

> <CNN_VS>
3.8285090923

> <CNNaffinity_variance>
0.0558942445

$$$$



 17 19  0  0  0  0  0  0  0  0999 V2000
    9.4946   81.4412    1.7967 O   0  0  0  0  0  0  0  0  0  0  0  0
    8.4084   81.8002    2.2412 C   0  0  0  0  0  0  0  0  0  0  0  0
    8.2351   82.0228    3.5870 N   0  0  0  0  0  0  0  0  0  0  0  0
    7.0374   82.4244    4.1218 C   0  0  0  0  0  0  0  0  0  0  0  0
    5.9434   82.6430    3.4667 N   0  0  0  0  0  0  0  0  0  0  0  0
    6.0385   82.4363    2.0767 C   0  0  0  0  0  0  0  0  0  0  0  0
    7.2083   82.0362    1.4940 C   0  0  0  0  0  0  0  0  0  0  0  0
    7.0751   81.8571   -0.1723 S   0  0  0  0  0  0  0  0  0  0  0  0
    5.4008   82.3232   -0.1603 C   0  0  0  0  0  0  0  0  0  0  0  0
    4.5277   82.4213   -1.2717 C   0  0  0  0  0  0  0  0  0  0  0  0
    5.0524   82.0674   -2.8778 Cl  0  0  0  0  0  0  0  0  0  0  0  0
    3.2005   82.8140   -1.0821 C   0  0  0  0  0  0  0  0  0  0  0  0
    2.7336   83.1083    0.1878 C   0  0  0  0  0  0  0  0  0  0  0  0
    3.5977   83.0101    1.2792 C   0  0  0  0  0  0  0  0  0  0  0  0
    3.0110   83.3762    2.8469 Cl  0  0  0  0  0  0  0  0  0  0  0  0
    4.9564   82.6161    1.1480 C   0  0  0  0  0  0  0  0  0  0  0  0
    9.0010   81.8887    4.1908 H   0  0  0  0  0  0  0  0  0  0  0  0
  1  2  2  0
  2  3  1  0
  3  4  1  0
  4  5  2  0
  5  6  1  0
  6  7  2  0
  7  8  1  0
  8  9  1  0
  9 10  2  0
 10 11  1  0
 10 12  1  0
 12 13  2  0
 13 14  1  0
 14 15  1  0
 14 16  2  0
  7  2  1  0
 16  9  1  0
 16  6  1  0
  3 17  1  0
M  END
> <minimizedAffinity>
-7.21474

> <CNNscore>
0.4964618087

> <CNNaffinity>
6.0907568932

> <CNN_VS>
3.0238282681

> <CNNaffinity_variance>
0.0256389081

$$$$



 17 19  0  0  0  0  0  0  0  0999 V2000
    5.5941   82.2424   -2.9692 O   0  0  0  0  0  0  0  0  0  0  0  0
    6.3437   82.0839   -2.0105 C   0  0  0  0  0  0  0  0  0  0  0  0
    7.6406   81.6636   -2.1903 N   0  0  0  0  0  0  0  0  0  0  0  0
    8.5084   81.4749   -1.1448 C   0  0  0  0  0  0  0  0  0  0  0  0
    8.2450   81.6569    0.1087 N   0  0  0  0  0  0  0  0  0  0  0  0
    6.9318   82.0894    0.3774 C   0  0  0  0  0  0  0  0  0  0  0  0
    6.0285   82.2924   -0.6280 C   0  0  0  0  0  0  0  0  0  0  0  0
    4.5315   82.8062   -0.0612 S   0  0  0  0  0  0  0  0  0  0  0  0
    5.0653   82.7703    1.5924 C   0  0  0  0  0  0  0  0  0  0  0  0
    4.3117   83.0980    2.7464 C   0  0  0  0  0  0  0  0  0  0  0  0
    2.6648   83.6057    2.6465 Cl  0  0  0  0  0  0  0  0  0  0  0  0
    4.9012   83.0137    4.0102 C   0  0  0  0  0  0  0  0  0  0  0  0
    6.2195   82.6114    4.1407 C   0  0  0  0  0  0  0  0  0  0  0  0
    6.9576   82.2897    3.0008 C   0  0  0  0  0  0  0  0  0  0  0  0
    8.5884   81.7927    3.1721 Cl  0  0  0  0  0  0  0  0  0  0  0  0
    6.4121   82.3564    1.6907 C   0  0  0  0  0  0  0  0  0  0  0  0
    7.9590   81.4912   -3.1058 H   0  0  0  0  0  0  0  0  0  0  0  0
  1  2  2  0
  2  3  1  0
  3  4  1  0
  4  5  2  0
  5  6  1  0
  6  7  2  0
  7  8  1  0
  8  9  1  0
  9 10  2  0
 10 11  1  0
 10 12  1  0
 12 13  2  0
 13 14  1  0
 14 15  1  0
 14 16  2  0
  7  2  1  0
 16  9  1  0
 16  6  1  0
  3 17  1  0
M  END
> <minimizedAffinity>
-6.74810

> <CNNscore>
0.4911742210

> <CNNaffinity>
6.1896858215

> <CNN_VS>
3.0402140617

> <CNNaffinity_variance>
0.4465893209

$$$$
