


 19 19  0  0  0  0  0  0  0  0999 V2000
   45.6246   14.5220    2.6018 C   0  0  0  0  0  0  0  0  0  0  0  0
   44.8458   14.8506    1.4614 C   0  0  0  0  0  0  0  0  0  0  0  0
   44.7933   13.7899   -0.1007 Br  0  0  0  0  0  0  0  0  0  0  0  0
   44.1355   16.0132    1.6174 C   0  0  0  0  0  0  0  0  0  0  0  0
   44.3885   16.6927    3.1653 S   0  0  0  0  0  0  0  0  0  0  0  0
   45.4506   15.4218    3.6400 C   0  0  0  0  0  0  0  0  0  0  0  0
   46.0480   15.3860    4.9571 C   0  0  0  0  0  0  0  0  0  0  0  0
   46.1577   14.4262    5.7081 O   0  0  0  0  0  0  0  0  0  0  0  0
   46.5364   16.5838    5.3567 O   0  0  0  0  0  0  0  0  0  0  0  0
   46.4620   17.3308    4.7959 H   0  0  0  0  0  0  0  0  0  0  0  0
   46.3859   13.4070    2.7249 O   0  0  0  0  0  0  0  0  0  0  0  0
   45.6593   12.2284    2.3448 C   0  0  0  0  0  0  0  0  0  0  0  0
   46.6634   11.0769    2.2652 C   0  0  0  0  0  0  0  0  0  0  0  0
   46.6813   10.2528    0.9436 C   0  0  0  0  0  0  0  0  0  0  0  0
   47.5260   10.9741   -0.1222 C   0  0  0  0  0  0  0  0  0  0  0  0
   45.2491   10.0724    0.4089 C   0  0  0  0  0  0  0  0  0  0  0  0
   47.3106    8.8675    1.2890 C   0  0  0  0  0  0  0  0  0  0  0  0
   47.9957    7.3706    3.1976 C   0  0  0  0  0  0  0  0  0  0  0  0
   48.0764    8.7749    2.6141 C   0  0  0  0  0  0  0  0  0  0  0  0
 18 19  1  0
 19 17  1  0
 17 14  1  0
 14 15  1  0
 14 16  1  0
 14 13  1  0
 13 12  1  0
 12 11  1  0
 11  1  1  0
  1  2  1  0
  2  3  1  0
  2  4  2  0
  4  5  1  0
  5  6  1  0
  6  7  1  0
  7  8  2  0
  7  9  1  0
  6  1  2  0
  9 10  1  0
M  END
> <minimizedAffinity>
-5.35658

> <CNNscore>
0.7836559415

> <CNNaffinity>
5.3314671516

> <CNN_VS>
4.1780357361

> <CNNaffinity_variance>
0.1754329056

$$$$



 19 19  0  0  0  0  0  0  0  0999 V2000
   45.0582   14.6883    2.7233 C   0  0  0  0  0  0  0  0  0  0  0  0
   45.6309   13.4159    2.4624 C   0  0  0  0  0  0  0  0  0  0  0  0
   44.9316   12.2027    1.1947 Br  0  0  0  0  0  0  0  0  0  0  0  0
   46.7442   13.1659    3.2232 C   0  0  0  0  0  0  0  0  0  0  0  0
   47.1159   14.4924    4.2350 S   0  0  0  0  0  0  0  0  0  0  0  0
   45.7846   15.4168    3.6503 C   0  0  0  0  0  0  0  0  0  0  0  0
   45.5248   16.7572    4.1286 C   0  0  0  0  0  0  0  0  0  0  0  0
   46.2231   17.7530    3.9942 O   0  0  0  0  0  0  0  0  0  0  0  0
   44.3502   16.8711    4.7921 O   0  0  0  0  0  0  0  0  0  0  0  0
   43.8014   16.1201    4.9055 H   0  0  0  0  0  0  0  0  0  0  0  0
   43.9788   15.1983    2.0809 O   0  0  0  0  0  0  0  0  0  0  0  0
   44.3652   15.9782    0.9390 C   0  0  0  0  0  0  0  0  0  0  0  0
   44.2329   15.0820   -0.2939 C   0  0  0  0  0  0  0  0  0  0  0  0
   44.1219   15.7984   -1.6724 C   0  0  0  0  0  0  0  0  0  0  0  0
   42.6468   15.9053   -2.0996 C   0  0  0  0  0  0  0  0  0  0  0  0
   44.8977   15.0127   -2.7451 C   0  0  0  0  0  0  0  0  0  0  0  0
   44.7383   17.2199   -1.4885 C   0  0  0  0  0  0  0  0  0  0  0  0
   44.3736   18.8557   -3.3710 C   0  0  0  0  0  0  0  0  0  0  0  0
   45.3457   17.8694   -2.7375 C   0  0  0  0  0  0  0  0  0  0  0  0
 18 19  1  0
 19 17  1  0
 17 14  1  0
 14 15  1  0
 14 16  1  0
 14 13  1  0
 13 12  1  0
 12 11  1  0
 11  1  1  0
  1  2  1  0
  2  3  1  0
  2  4  2  0
  4  5  1  0
  5  6  1  0
  6  7  1  0
  7  8  2  0
  7  9  1  0
  6  1  2  0
  9 10  1  0
M  END
> <minimizedAffinity>
-6.24822

> <CNNscore>
0.6248757839

> <CNNaffinity>
5.2445578575

> <CNN_VS>
3.2771971226

> <CNNaffinity_variance>
0.0015974920

$$$$



 19 19  0  0  0  0  0  0  0  0999 V2000
   45.0532   14.9432    2.5783 C   0  0  0  0  0  0  0  0  0  0  0  0
   45.5224   13.6458    2.2441 C   0  0  0  0  0  0  0  0  0  0  0  0
   44.7610   12.5862    0.8783 Br  0  0  0  0  0  0  0  0  0  0  0  0
   46.5862   13.2488    3.0131 C   0  0  0  0  0  0  0  0  0  0  0  0
   47.0389   14.4670    4.1234 S   0  0  0  0  0  0  0  0  0  0  0  0
   45.8105   15.5416    3.5714 C   0  0  0  0  0  0  0  0  0  0  0  0
   45.6519   16.8645    4.1350 C   0  0  0  0  0  0  0  0  0  0  0  0
   46.4266   17.8093    4.0674 O   0  0  0  0  0  0  0  0  0  0  0  0
   44.4846   17.0268    4.8012 O   0  0  0  0  0  0  0  0  0  0  0  0
   43.8782   16.3152    4.8641 H   0  0  0  0  0  0  0  0  0  0  0  0
   44.0417   15.5877    1.9463 O   0  0  0  0  0  0  0  0  0  0  0  0
   44.5206   16.3515    0.8288 C   0  0  0  0  0  0  0  0  0  0  0  0
   43.5951   16.0618   -0.3545 C   0  0  0  0  0  0  0  0  0  0  0  0
   44.2044   16.2293   -1.7781 C   0  0  0  0  0  0  0  0  0  0  0  0
   45.0533   14.9976   -2.1421 C   0  0  0  0  0  0  0  0  0  0  0  0
   45.0945   17.4840   -1.8324 C   0  0  0  0  0  0  0  0  0  0  0  0
   43.0038   16.3719   -2.7644 C   0  0  0  0  0  0  0  0  0  0  0  0
   40.5151   16.0154   -2.5868 C   0  0  0  0  0  0  0  0  0  0  0  0
   41.8790   15.3391   -2.6272 C   0  0  0  0  0  0  0  0  0  0  0  0
 18 19  1  0
 19 17  1  0
 17 14  1  0
 14 15  1  0
 14 16  1  0
 14 13  1  0
 13 12  1  0
 12 11  1  0
 11  1  1  0
  1  2  1  0
  2  3  1  0
  2  4  2  0
  4  5  1  0
  5  6  1  0
  6  7  1  0
  7  8  2  0
  7  9  1  0
  6  1  2  0
  9 10  1  0
M  END
> <minimizedAffinity>
-6.08257

> <CNNscore>
0.4605719745

> <CNNaffinity>
4.9007582664

> <CNN_VS>
2.2571518421

> <CNNaffinity_variance>
0.0555380881

$$$$



 19 19  0  0  0  0  0  0  0  0999 V2000
   50.4324    7.3084    3.1986 C   0  0  0  0  0  0  0  0  0  0  0  0
   49.2282    6.6364    2.8622 C   0  0  0  0  0  0  0  0  0  0  0  0
   48.0452    7.2365    1.5174 Br  0  0  0  0  0  0  0  0  0  0  0  0
   49.0199    5.5074    3.6121 C   0  0  0  0  0  0  0  0  0  0  0  0
   50.3057    5.2428    4.7067 S   0  0  0  0  0  0  0  0  0  0  0  0
   51.1567    6.6427    4.1734 C   0  0  0  0  0  0  0  0  0  0  0  0
   52.4397    7.0084    4.7329 C   0  0  0  0  0  0  0  0  0  0  0  0
   52.8448    8.1269    5.0194 O   0  0  0  0  0  0  0  0  0  0  0  0
   53.2499    5.9466    4.9545 O   0  0  0  0  0  0  0  0  0  0  0  0
   52.9578    5.0820    4.7418 H   0  0  0  0  0  0  0  0  0  0  0  0
   50.8946    8.4245    2.5833 O   0  0  0  0  0  0  0  0  0  0  0  0
   51.6504    8.1022    1.4059 C   0  0  0  0  0  0  0  0  0  0  0  0
   51.6414    9.3374    0.5033 C   0  0  0  0  0  0  0  0  0  0  0  0
   52.9592   10.1649    0.4346 C   0  0  0  0  0  0  0  0  0  0  0  0
   53.8504    9.6525   -0.7113 C   0  0  0  0  0  0  0  0  0  0  0  0
   53.7321   10.0467    1.7606 C   0  0  0  0  0  0  0  0  0  0  0  0
   52.5438   11.6469    0.1783 C   0  0  0  0  0  0  0  0  0  0  0  0
   50.9484   12.3722   -1.6331 C   0  0  0  0  0  0  0  0  0  0  0  0
   52.4012   12.0740   -1.2873 C   0  0  0  0  0  0  0  0  0  0  0  0
 18 19  1  0
 19 17  1  0
 17 14  1  0
 14 15  1  0
 14 16  1  0
 14 13  1  0
 13 12  1  0
 12 11  1  0
 11  1  1  0
  1  2  1  0
  2  3  1  0
  2  4  2  0
  4  5  1  0
  5  6  1  0
  6  7  1  0
  7  8  2  0
  7  9  1  0
  6  1  2  0
  9 10  1  0
M  END
> <minimizedAffinity>
-4.47176

> <CNNscore>
0.4517308176

> <CNNaffinity>
4.4759297371

> <CNN_VS>
2.0219154358

> <CNNaffinity_variance>
0.1509347409

$$$$



 19 19  0  0  0  0  0  0  0  0999 V2000
   45.1081   14.4777    2.1224 C   0  0  0  0  0  0  0  0  0  0  0  0
   46.1752   13.9349    2.8850 C   0  0  0  0  0  0  0  0  0  0  0  0
   46.6466   12.1060    2.8564 Br  0  0  0  0  0  0  0  0  0  0  0  0
   46.8268   14.8782    3.6376 C   0  0  0  0  0  0  0  0  0  0  0  0
   46.1628   16.4342    3.3940 S   0  0  0  0  0  0  0  0  0  0  0  0
   44.9976   15.8506    2.2670 C   0  0  0  0  0  0  0  0  0  0  0  0
   44.0589   16.7401    1.6185 C   0  0  0  0  0  0  0  0  0  0  0  0
   43.3703   16.5184    0.6317 O   0  0  0  0  0  0  0  0  0  0  0  0
   43.9627   17.9489    2.2206 O   0  0  0  0  0  0  0  0  0  0  0  0
   44.4818   18.1380    2.9774 H   0  0  0  0  0  0  0  0  0  0  0  0
   44.3308   13.7711    1.2653 O   0  0  0  0  0  0  0  0  0  0  0  0
   45.1080   13.1875    0.2084 C   0  0  0  0  0  0  0  0  0  0  0  0
   44.8212   13.9850   -1.0652 C   0  0  0  0  0  0  0  0  0  0  0  0
   45.3446   13.3820   -2.4025 C   0  0  0  0  0  0  0  0  0  0  0  0
   46.6562   12.6126   -2.1621 C   0  0  0  0  0  0  0  0  0  0  0  0
   45.6021   14.5016   -3.4271 C   0  0  0  0  0  0  0  0  0  0  0  0
   44.2354   12.4152   -2.9215 C   0  0  0  0  0  0  0  0  0  0  0  0
   44.2872   11.2969   -5.1797 C   0  0  0  0  0  0  0  0  0  0  0  0
   43.8610   12.5358   -4.4035 C   0  0  0  0  0  0  0  0  0  0  0  0
 18 19  1  0
 19 17  1  0
 17 14  1  0
 14 15  1  0
 14 16  1  0
 14 13  1  0
 13 12  1  0
 12 11  1  0
 11  1  1  0
  1  2  1  0
  2  3  1  0
  2  4  2  0
  4  5  1  0
  5  6  1  0
  6  7  1  0
  7  8  2  0
  7  9  1  0
  6  1  2  0
  9 10  1  0
M  END
> <minimizedAffinity>
-4.92153

> <CNNscore>
0.4486143291

> <CNNaffinity>
4.9652094841

> <CNN_VS>
2.2274641991

> <CNNaffinity_variance>
0.0201939642

$$$$



 19 19  0  0  0  0  0  0  0  0999 V2000
   50.6626    7.4343    2.9438 C   0  0  0  0  0  0  0  0  0  0  0  0
   49.5573    6.6205    2.5818 C   0  0  0  0  0  0  0  0  0  0  0  0
   48.4354    6.9890    1.1075 Br  0  0  0  0  0  0  0  0  0  0  0  0
   49.3957    5.5404    3.4113 C   0  0  0  0  0  0  0  0  0  0  0  0
   50.6084    5.4947    4.6149 S   0  0  0  0  0  0  0  0  0  0  0  0
   51.3651    6.9250    4.0231 C   0  0  0  0  0  0  0  0  0  0  0  0
   52.5593    7.4608    4.6394 C   0  0  0  0  0  0  0  0  0  0  0  0
   52.8396    8.6344    4.8430 O   0  0  0  0  0  0  0  0  0  0  0  0
   53.4372    6.5057    5.0266 O   0  0  0  0  0  0  0  0  0  0  0  0
   53.2407    5.6014    4.8794 H   0  0  0  0  0  0  0  0  0  0  0  0
   51.0666    8.5376    2.2675 O   0  0  0  0  0  0  0  0  0  0  0  0
   51.7984    8.1903    1.0821 C   0  0  0  0  0  0  0  0  0  0  0  0
   52.8612    9.2695    0.8671 C   0  0  0  0  0  0  0  0  0  0  0  0
   52.7905   10.0664   -0.4694 C   0  0  0  0  0  0  0  0  0  0  0  0
   51.3491   10.0724   -1.0099 C   0  0  0  0  0  0  0  0  0  0  0  0
   53.7161    9.4272   -1.5203 C   0  0  0  0  0  0  0  0  0  0  0  0
   53.2560   11.5205   -0.1481 C   0  0  0  0  0  0  0  0  0  0  0  0
   55.6443   12.1681    0.3307 C   0  0  0  0  0  0  0  0  0  0  0  0
   54.5946   11.9600   -0.7529 C   0  0  0  0  0  0  0  0  0  0  0  0
 18 19  1  0
 19 17  1  0
 17 14  1  0
 14 15  1  0
 14 16  1  0
 14 13  1  0
 13 12  1  0
 12 11  1  0
 11  1  1  0
  1  2  1  0
  2  3  1  0
  2  4  2  0
  4  5  1  0
  5  6  1  0
  6  7  1  0
  7  8  2  0
  7  9  1  0
  6  1  2  0
  9 10  1  0
M  END
> <minimizedAffinity>
-4.13663

> <CNNscore>
0.4448971152

> <CNNaffinity>
4.4417338371

> <CNN_VS>
1.9761145115

> <CNNaffinity_variance>
0.0151818097

$$$$



 19 19  0  0  0  0  0  0  0  0999 V2000
   45.3540   12.9989    1.7038 C   0  0  0  0  0  0  0  0  0  0  0  0
   46.4209   12.2939    2.3201 C   0  0  0  0  0  0  0  0  0  0  0  0
   46.9731   10.5692    1.7828 Br  0  0  0  0  0  0  0  0  0  0  0  0
   47.0076   12.9988    3.3396 C   0  0  0  0  0  0  0  0  0  0  0  0
   46.2832   14.5353    3.5296 S   0  0  0  0  0  0  0  0  0  0  0  0
   45.1789   14.2658    2.2348 C   0  0  0  0  0  0  0  0  0  0  0  0
   44.2216   15.2735    1.8334 C   0  0  0  0  0  0  0  0  0  0  0  0
   44.0881   15.7885    0.7315 O   0  0  0  0  0  0  0  0  0  0  0  0
   43.3912   15.6523    2.8334 O   0  0  0  0  0  0  0  0  0  0  0  0
   43.4775   15.2695    3.6843 H   0  0  0  0  0  0  0  0  0  0  0  0
   44.6345   12.5464    0.6476 O   0  0  0  0  0  0  0  0  0  0  0  0
   45.3534   12.7029   -0.5853 C   0  0  0  0  0  0  0  0  0  0  0  0
   44.3231   12.9574   -1.6873 C   0  0  0  0  0  0  0  0  0  0  0  0
   44.0707   11.7950   -2.6928 C   0  0  0  0  0  0  0  0  0  0  0  0
   45.1608   11.7853   -3.7798 C   0  0  0  0  0  0  0  0  0  0  0  0
   42.6957   11.9610   -3.3647 C   0  0  0  0  0  0  0  0  0  0  0  0
   44.1156   10.4719   -1.8671 C   0  0  0  0  0  0  0  0  0  0  0  0
   42.6756    8.4034   -1.8399 C   0  0  0  0  0  0  0  0  0  0  0  0
   43.7293    9.1877   -2.6104 C   0  0  0  0  0  0  0  0  0  0  0  0
 18 19  1  0
 19 17  1  0
 17 14  1  0
 14 15  1  0
 14 16  1  0
 14 13  1  0
 13 12  1  0
 12 11  1  0
 11  1  1  0
  1  2  1  0
  2  3  1  0
  2  4  2  0
  4  5  1  0
  5  6  1  0
  6  7  1  0
  7  8  2  0
  7  9  1  0
  6  1  2  0
  9 10  1  0
M  END
> <minimizedAffinity>
-4.60736

> <CNNscore>
0.3822232485

> <CNNaffinity>
4.6858654022

> <CNN_VS>
1.7910467386

> <CNNaffinity_variance>
0.3798436224

$$$$



 19 19  0  0  0  0  0  0  0  0999 V2000
   45.1654   14.9350    2.5156 C   0  0  0  0  0  0  0  0  0  0  0  0
   46.3253   14.5234    3.2228 C   0  0  0  0  0  0  0  0  0  0  0  0
   46.8292   12.7144    3.4276 Br  0  0  0  0  0  0  0  0  0  0  0  0
   47.0397   15.5761    3.7347 C   0  0  0  0  0  0  0  0  0  0  0  0
   46.3188   17.0718    3.3288 S   0  0  0  0  0  0  0  0  0  0  0  0
   45.0431   16.3131    2.4538 C   0  0  0  0  0  0  0  0  0  0  0  0
   44.0166   17.0856    1.7887 C   0  0  0  0  0  0  0  0  0  0  0  0
   43.3388   16.7628    0.8224 O   0  0  0  0  0  0  0  0  0  0  0  0
   43.8154   18.3024    2.3470 O   0  0  0  0  0  0  0  0  0  0  0  0
   44.3244   18.5680    3.0876 H   0  0  0  0  0  0  0  0  0  0  0  0
   44.3090   14.0990    1.8788 O   0  0  0  0  0  0  0  0  0  0  0  0
   44.7857   13.7542    0.5690 C   0  0  0  0  0  0  0  0  0  0  0  0
   44.7304   12.2301    0.4479 C   0  0  0  0  0  0  0  0  0  0  0  0
   45.1100   11.6227   -0.9352 C   0  0  0  0  0  0  0  0  0  0  0  0
   44.4371   12.4180   -2.0685 C   0  0  0  0  0  0  0  0  0  0  0  0
   44.6544   10.1545   -1.0154 C   0  0  0  0  0  0  0  0  0  0  0  0
   46.6629   11.7168   -1.0538 C   0  0  0  0  0  0  0  0  0  0  0  0
   48.3790    9.9981   -0.3804 C   0  0  0  0  0  0  0  0  0  0  0  0
   47.4750   11.1239    0.1037 C   0  0  0  0  0  0  0  0  0  0  0  0
 18 19  1  0
 19 17  1  0
 17 14  1  0
 14 15  1  0
 14 16  1  0
 14 13  1  0
 13 12  1  0
 12 11  1  0
 11  1  1  0
  1  2  1  0
  2  3  1  0
  2  4  2  0
  4  5  1  0
  5  6  1  0
  6  7  1  0
  7  8  2  0
  7  9  1  0
  6  1  2  0
  9 10  1  0
M  END
> <minimizedAffinity>
-5.82029

> <CNNscore>
0.3675567806

> <CNNaffinity>
4.7874870300

> <CNN_VS>
1.7596733570

> <CNNaffinity_variance>
0.0575981177

$$$$



 19 19  0  0  0  0  0  0  0  0999 V2000
   44.8260    9.9669   -2.0463 C   0  0  0  0  0  0  0  0  0  0  0  0
   45.5651   10.6742   -3.0305 C   0  0  0  0  0  0  0  0  0  0  0  0
   47.2027   11.5449   -2.6725 Br  0  0  0  0  0  0  0  0  0  0  0  0
   44.9670   10.6530   -4.2643 C   0  0  0  0  0  0  0  0  0  0  0  0
   43.5194    9.7446   -4.2374 S   0  0  0  0  0  0  0  0  0  0  0  0
   43.6912    9.3662   -2.5653 C   0  0  0  0  0  0  0  0  0  0  0  0
   42.7267    8.5400   -1.8725 C   0  0  0  0  0  0  0  0  0  0  0  0
   42.8401    8.0090   -0.7759 O   0  0  0  0  0  0  0  0  0  0  0  0
   41.5730    8.3716   -2.5606 O   0  0  0  0  0  0  0  0  0  0  0  0
   41.4668    8.7702   -3.4019 H   0  0  0  0  0  0  0  0  0  0  0  0
   45.2137    9.7995   -0.7581 O   0  0  0  0  0  0  0  0  0  0  0  0
   46.2649    8.8278   -0.6464 C   0  0  0  0  0  0  0  0  0  0  0  0
   46.7047    8.7950    0.8185 C   0  0  0  0  0  0  0  0  0  0  0  0
   48.1678    8.3418    1.1010 C   0  0  0  0  0  0  0  0  0  0  0  0
   49.1596    9.2394    0.3391 C   0  0  0  0  0  0  0  0  0  0  0  0
   48.3691    6.8824    0.6544 C   0  0  0  0  0  0  0  0  0  0  0  0
   48.3877    8.4741    2.6400 C   0  0  0  0  0  0  0  0  0  0  0  0
   49.0220    6.8317    4.4435 C   0  0  0  0  0  0  0  0  0  0  0  0
   47.9187    7.2961    3.5021 C   0  0  0  0  0  0  0  0  0  0  0  0
 18 19  1  0
 19 17  1  0
 17 14  1  0
 14 15  1  0
 14 16  1  0
 14 13  1  0
 13 12  1  0
 12 11  1  0
 11  1  1  0
  1  2  1  0
  2  3  1  0
  2  4  2  0
  4  5  1  0
  5  6  1  0
  6  7  1  0
  7  8  2  0
  7  9  1  0
  6  1  2  0
  9 10  1  0
M  END
> <minimizedAffinity>
-3.60934

> <CNNscore>
0.3536069691

> <CNNaffinity>
4.1204924583

> <CNN_VS>
1.4570348263

> <CNNaffinity_variance>
0.3012906015

$$$$
