


 30 32  0  0  0  0  0  0  0  0999 V2000
   39.3762    4.0813   15.7589 C   0  0  0  0  0  0  0  0  0  0  0  0
   38.2457    4.4487   16.5782 O   0  0  0  0  0  0  0  0  0  0  0  0
   38.7636    5.0302   17.8032 C   0  0  0  0  0  0  0  0  0  0  0  0
   40.2942    4.9985   17.7160 C   0  0  0  0  0  0  0  0  0  0  0  0
   40.8026    6.2221   17.1539 O   0  0  0  0  0  0  0  0  0  0  0  0
   40.5325    3.8647   16.7314 C   0  0  0  0  0  0  0  0  0  0  0  0
   41.8157    3.9761   16.1208 O   0  0  0  0  0  0  0  0  0  0  0  0
   40.3972    6.3719   16.2855 H   0  0  0  0  0  0  0  0  0  0  0  0
   41.8998    4.8468   15.7016 H   0  0  0  0  0  0  0  0  0  0  0  0
   38.2408    4.2852   18.9336 N   0  0  0  0  0  0  0  0  0  0  0  0
   38.6147    3.0405   19.3647 C   0  0  0  0  0  0  0  0  0  0  0  0
   37.9492    2.6691   20.4399 N   0  0  0  0  0  0  0  0  0  0  0  0
   37.1006    3.7245   20.7092 C   0  0  0  0  0  0  0  0  0  0  0  0
   36.1352    3.9387   21.7077 C   0  0  0  0  0  0  0  0  0  0  0  0
   35.8550    3.0203   22.7130 N   0  0  0  0  0  0  0  0  0  0  0  0
   35.4262    5.0905   21.6830 N   0  0  0  0  0  0  0  0  0  0  0  0
   35.7044    5.9960   20.7189 C   0  0  0  0  0  0  0  0  0  0  0  0
   36.6091    5.9062   19.7238 N   0  0  0  0  0  0  0  0  0  0  0  0
   37.2645    4.7362   19.7785 C   0  0  0  0  0  0  0  0  0  0  0  0
   36.3535    2.1726   22.7583 H   0  0  0  0  0  0  0  0  0  0  0  0
   35.1580    3.2177   23.3797 H   0  0  0  0  0  0  0  0  0  0  0  0
   39.0282    2.8695   14.8954 C   0  0  0  0  0  0  0  0  0  0  0  0
   40.2165    2.1729   14.5116 O   0  0  0  0  0  0  0  0  0  0  0  0
   40.0877    0.7608   14.6912 C   0  0  0  0  0  0  0  0  0  0  0  0
   40.2603    0.0077   13.3417 C   0  0  0  0  0  0  0  0  0  0  0  0
   41.6023   -0.7474   13.3690 C   0  0  0  0  0  0  0  0  0  0  0  0
   39.1161   -1.0124   13.1881 C   0  0  0  0  0  0  0  0  0  0  0  0
   40.2191    1.0789   12.2117 C   0  0  0  0  0  0  0  0  0  0  0  0
   42.0777    2.5831   11.2353 C   0  0  0  0  0  0  0  0  0  0  0  0
   41.4190    1.2158   11.2638 C   0  0  0  0  0  0  0  0  0  0  0  0
 29 30  1  0
 30 28  1  0
 28 25  1  0
 25 26  1  0
 25 27  1  0
 25 24  1  0
 24 23  1  0
 23 22  1  0
  1 22  1  0
  1  2  1  0
  2  3  1  0
  3 10  1  0
 10 11  1  0
 11 12  2  0
 12 13  1  0
 13 14  2  0
 14 15  1  0
 14 16  1  0
 16 17  2  0
 17 18  1  0
 18 19  2  0
  3  4  1  0
  4  5  1  0
  4  6  1  0
  6  7  1  0
  6  1  1  0
 19 10  1  0
 19 13  1  0
 15 20  1  0
 15 21  1  0
  5  8  1  0
  7  9  1  0
M  END
> <minimizedAffinity>
-5.12510

> <CNNscore>
0.7553594112

> <CNNaffinity>
4.1962704659

> <CNN_VS>
3.1696922779

> <CNNaffinity_variance>
0.8455539346

$$$$



 30 32  0  0  0  0  0  0  0  0999 V2000
   37.5088    9.0924   17.3814 C   0  0  0  0  0  0  0  0  0  0  0  0
   38.1065    8.1078   18.2519 O   0  0  0  0  0  0  0  0  0  0  0  0
   37.5298    6.8189   17.9159 C   0  0  0  0  0  0  0  0  0  0  0  0
   36.5195    7.0479   16.7853 C   0  0  0  0  0  0  0  0  0  0  0  0
   37.1422    6.8828   15.4982 O   0  0  0  0  0  0  0  0  0  0  0  0
   36.1567    8.5120   16.9757 C   0  0  0  0  0  0  0  0  0  0  0  0
   35.6367    9.0728   15.7728 O   0  0  0  0  0  0  0  0  0  0  0  0
   37.9015    7.4822   15.4271 H   0  0  0  0  0  0  0  0  0  0  0  0
   36.2758    8.9459   15.0542 H   0  0  0  0  0  0  0  0  0  0  0  0
   36.9320    6.2474   19.1084 N   0  0  0  0  0  0  0  0  0  0  0  0
   36.0241    6.8274   19.9536 C   0  0  0  0  0  0  0  0  0  0  0  0
   35.6712    6.0172   20.9314 N   0  0  0  0  0  0  0  0  0  0  0  0
   36.3933    4.8618   20.7076 C   0  0  0  0  0  0  0  0  0  0  0  0
   36.4709    3.6395   21.3965 C   0  0  0  0  0  0  0  0  0  0  0  0
   35.7359    3.3569   22.5422 N   0  0  0  0  0  0  0  0  0  0  0  0
   37.3174    2.6909   20.9341 N   0  0  0  0  0  0  0  0  0  0  0  0
   38.0229    2.9514   19.8112 C   0  0  0  0  0  0  0  0  0  0  0  0
   38.0218    4.0737   19.0646 N   0  0  0  0  0  0  0  0  0  0  0  0
   37.1875    4.9896   19.5809 C   0  0  0  0  0  0  0  0  0  0  0  0
   35.1112    4.0264   22.9038 H   0  0  0  0  0  0  0  0  0  0  0  0
   35.8400    2.4873   22.9918 H   0  0  0  0  0  0  0  0  0  0  0  0
   37.4406   10.4461   18.0871 C   0  0  0  0  0  0  0  0  0  0  0  0
   37.8880   11.4865   17.2142 O   0  0  0  0  0  0  0  0  0  0  0  0
   38.5278   10.9647   16.0475 C   0  0  0  0  0  0  0  0  0  0  0  0
   39.5384   11.9894   15.4586 C   0  0  0  0  0  0  0  0  0  0  0  0
   40.0439   12.8918   16.5997 C   0  0  0  0  0  0  0  0  0  0  0  0
   40.7341   11.2249   14.8592 C   0  0  0  0  0  0  0  0  0  0  0  0
   38.7815   12.8024   14.3667 C   0  0  0  0  0  0  0  0  0  0  0  0
   36.4932   13.9000   13.8882 C   0  0  0  0  0  0  0  0  0  0  0  0
   37.7085   13.8139   14.7937 C   0  0  0  0  0  0  0  0  0  0  0  0
 29 30  1  0
 30 28  1  0
 28 25  1  0
 25 26  1  0
 25 27  1  0
 25 24  1  0
 24 23  1  0
 23 22  1  0
  1 22  1  0
  1  2  1  0
  2  3  1  0
  3 10  1  0
 10 11  1  0
 11 12  2  0
 12 13  1  0
 13 14  2  0
 14 15  1  0
 14 16  1  0
 16 17  2  0
 17 18  1  0
 18 19  2  0
  3  4  1  0
  4  5  1  0
  4  6  1  0
  6  7  1  0
  6  1  1  0
 19 10  1  0
 19 13  1  0
 15 20  1  0
 15 21  1  0
  5  8  1  0
  7  9  1  0
M  END
> <minimizedAffinity>
-5.35976

> <CNNscore>
0.6835752130

> <CNNaffinity>
4.3246407509

> <CNN_VS>
2.9562172890

> <CNNaffinity_variance>
0.9590961933

$$$$



 30 32  0  0  0  0  0  0  0  0999 V2000
   37.6353    8.3915   17.9612 C   0  0  0  0  0  0  0  0  0  0  0  0
   38.4892    7.3456   18.4724 O   0  0  0  0  0  0  0  0  0  0  0  0
   38.0842    6.1026   17.8417 C   0  0  0  0  0  0  0  0  0  0  0  0
   36.9117    6.4223   16.9065 C   0  0  0  0  0  0  0  0  0  0  0  0
   37.3795    6.7142   15.5770 O   0  0  0  0  0  0  0  0  0  0  0  0
   36.3504    7.6931   17.5242 C   0  0  0  0  0  0  0  0  0  0  0  0
   35.5961    8.4376   16.5710 O   0  0  0  0  0  0  0  0  0  0  0  0
   38.0189    7.4428   15.6119 H   0  0  0  0  0  0  0  0  0  0  0  0
   36.1481    8.6223   15.7950 H   0  0  0  0  0  0  0  0  0  0  0  0
   37.7447    5.1415   18.8746 N   0  0  0  0  0  0  0  0  0  0  0  0
   38.2337    3.8725   19.0349 C   0  0  0  0  0  0  0  0  0  0  0  0
   37.7263    3.2775   20.0958 N   0  0  0  0  0  0  0  0  0  0  0  0
   36.8632    4.2075   20.6404 C   0  0  0  0  0  0  0  0  0  0  0  0
   36.0184    4.1792   21.7631 C   0  0  0  0  0  0  0  0  0  0  0  0
   35.9129    3.0864   22.6160 N   0  0  0  0  0  0  0  0  0  0  0  0
   35.2523    5.2638   22.0216 N   0  0  0  0  0  0  0  0  0  0  0  0
   35.3616    6.3367   21.2070 C   0  0  0  0  0  0  0  0  0  0  0  0
   36.1401    6.4824   20.1164 N   0  0  0  0  0  0  0  0  0  0  0  0
   36.8577    5.3709   19.8901 C   0  0  0  0  0  0  0  0  0  0  0  0
   36.4570    2.2819   22.4549 H   0  0  0  0  0  0  0  0  0  0  0  0
   35.2941    3.1171   23.3811 H   0  0  0  0  0  0  0  0  0  0  0  0
   37.4470    9.4799   19.0173 C   0  0  0  0  0  0  0  0  0  0  0  0
   38.2767   10.6072   18.7249 O   0  0  0  0  0  0  0  0  0  0  0  0
   38.6396   10.6575   17.3434 C   0  0  0  0  0  0  0  0  0  0  0  0
   40.1485   10.9931   17.1737 C   0  0  0  0  0  0  0  0  0  0  0  0
   40.7009   10.1838   15.9855 C   0  0  0  0  0  0  0  0  0  0  0  0
   40.2953   12.4956   16.8662 C   0  0  0  0  0  0  0  0  0  0  0  0
   40.8537   10.6175   18.5107 C   0  0  0  0  0  0  0  0  0  0  0  0
   43.0576    9.3501   18.9651 C   0  0  0  0  0  0  0  0  0  0  0  0
   41.5810    9.2701   18.6223 C   0  0  0  0  0  0  0  0  0  0  0  0
 29 30  1  0
 30 28  1  0
 28 25  1  0
 25 26  1  0
 25 27  1  0
 25 24  1  0
 24 23  1  0
 23 22  1  0
  1 22  1  0
  1  2  1  0
  2  3  1  0
  3 10  1  0
 10 11  1  0
 11 12  2  0
 12 13  1  0
 13 14  2  0
 14 15  1  0
 14 16  1  0
 16 17  2  0
 17 18  1  0
 18 19  2  0
  3  4  1  0
  4  5  1  0
  4  6  1  0
  6  7  1  0
  6  1  1  0
 19 10  1  0
 19 13  1  0
 15 20  1  0
 15 21  1  0
  5  8  1  0
  7  9  1  0
M  END
> <minimizedAffinity>
-4.68618

> <CNNscore>
0.6419872046

> <CNNaffinity>
4.7127442360

> <CNN_VS>
3.0255215168

> <CNNaffinity_variance>
0.3558822572

$$$$



 30 32  0  0  0  0  0  0  0  0999 V2000
   38.1314    7.8035   17.5358 C   0  0  0  0  0  0  0  0  0  0  0  0
   38.8758    6.8402   18.3119 O   0  0  0  0  0  0  0  0  0  0  0  0
   38.5343    5.5199   17.8148 C   0  0  0  0  0  0  0  0  0  0  0  0
   37.5174    5.7040   16.6820 C   0  0  0  0  0  0  0  0  0  0  0  0
   38.1791    5.7962   15.4071 O   0  0  0  0  0  0  0  0  0  0  0  0
   36.9055    7.0539   17.0210 C   0  0  0  0  0  0  0  0  0  0  0  0
   36.3157    7.6539   15.8704 O   0  0  0  0  0  0  0  0  0  0  0  0
   38.8252    6.5193   15.4296 H   0  0  0  0  0  0  0  0  0  0  0  0
   36.9782    7.7207   15.1650 H   0  0  0  0  0  0  0  0  0  0  0  0
   38.0251    4.7218   18.9147 N   0  0  0  0  0  0  0  0  0  0  0  0
   38.3746    3.4429   19.2569 C   0  0  0  0  0  0  0  0  0  0  0  0
   37.7323    3.0250   20.3292 N   0  0  0  0  0  0  0  0  0  0  0  0
   36.9249    4.0854   20.6901 C   0  0  0  0  0  0  0  0  0  0  0  0
   35.9984    4.2650   21.7312 C   0  0  0  0  0  0  0  0  0  0  0  0
   35.7223    3.2948   22.6879 N   0  0  0  0  0  0  0  0  0  0  0  0
   35.3241    5.4357   21.8000 N   0  0  0  0  0  0  0  0  0  0  0  0
   35.5991    6.3905   20.8838 C   0  0  0  0  0  0  0  0  0  0  0  0
   36.4688    6.3367   19.8555 N   0  0  0  0  0  0  0  0  0  0  0  0
   37.0899    5.1474   19.8174 C   0  0  0  0  0  0  0  0  0  0  0  0
   36.1961    2.4321   22.6651 H   0  0  0  0  0  0  0  0  0  0  0  0
   35.0529    3.4704   23.3881 H   0  0  0  0  0  0  0  0  0  0  0  0
   37.8208    9.0356   18.3847 C   0  0  0  0  0  0  0  0  0  0  0  0
   37.0820    9.9932   17.6220 O   0  0  0  0  0  0  0  0  0  0  0  0
   37.9421   10.8693   16.8901 C   0  0  0  0  0  0  0  0  0  0  0  0
   37.8690   12.3190   17.4480 C   0  0  0  0  0  0  0  0  0  0  0  0
   36.5180   12.5018   18.1645 C   0  0  0  0  0  0  0  0  0  0  0  0
   39.0064   12.5206   18.4674 C   0  0  0  0  0  0  0  0  0  0  0  0
   38.0187   13.2841   16.2347 C   0  0  0  0  0  0  0  0  0  0  0  0
   36.5401   13.7216   14.1628 C   0  0  0  0  0  0  0  0  0  0  0  0
   36.7663   13.9493   15.6465 C   0  0  0  0  0  0  0  0  0  0  0  0
 29 30  1  0
 30 28  1  0
 28 25  1  0
 25 26  1  0
 25 27  1  0
 25 24  1  0
 24 23  1  0
 23 22  1  0
  1 22  1  0
  1  2  1  0
  2  3  1  0
  3 10  1  0
 10 11  1  0
 11 12  2  0
 12 13  1  0
 13 14  2  0
 14 15  1  0
 14 16  1  0
 16 17  2  0
 17 18  1  0
 18 19  2  0
  3  4  1  0
  4  5  1  0
  4  6  1  0
  6  7  1  0
  6  1  1  0
 19 10  1  0
 19 13  1  0
 15 20  1  0
 15 21  1  0
  5  8  1  0
  7  9  1  0
M  END
> <minimizedAffinity>
-5.29952

> <CNNscore>
0.6079399586

> <CNNaffinity>
4.2311701775

> <CNN_VS>
2.5722973347

> <CNNaffinity_variance>
0.9202510715

$$$$



 30 32  0  0  0  0  0  0  0  0999 V2000
   38.3864    8.5736   17.1601 C   0  0  0  0  0  0  0  0  0  0  0  0
   38.6796    7.3676   17.8976 O   0  0  0  0  0  0  0  0  0  0  0  0
   37.6467    6.3985   17.5805 C   0  0  0  0  0  0  0  0  0  0  0  0
   36.6720    7.0682   16.6042 C   0  0  0  0  0  0  0  0  0  0  0  0
   37.0537    6.8124   15.2402 O   0  0  0  0  0  0  0  0  0  0  0  0
   36.8812    8.5430   16.9087 C   0  0  0  0  0  0  0  0  0  0  0  0
   36.4726    9.3568   15.8120 O   0  0  0  0  0  0  0  0  0  0  0  0
   37.9654    7.1116   15.0981 H   0  0  0  0  0  0  0  0  0  0  0  0
   36.9436    9.0795   15.0106 H   0  0  0  0  0  0  0  0  0  0  0  0
   37.0137    5.9674   18.8131 N   0  0  0  0  0  0  0  0  0  0  0  0
   36.0828    6.6395   19.5592 C   0  0  0  0  0  0  0  0  0  0  0  0
   35.7004    5.9470   20.6133 N   0  0  0  0  0  0  0  0  0  0  0  0
   36.4265    4.7746   20.5451 C   0  0  0  0  0  0  0  0  0  0  0  0
   36.4819    3.6400   21.3723 C   0  0  0  0  0  0  0  0  0  0  0  0
   35.7137    3.4902   22.5212 N   0  0  0  0  0  0  0  0  0  0  0  0
   37.3397    2.6457   21.0470 N   0  0  0  0  0  0  0  0  0  0  0  0
   38.0778    2.7760   19.9224 C   0  0  0  0  0  0  0  0  0  0  0  0
   38.1003    3.8047   19.0517 N   0  0  0  0  0  0  0  0  0  0  0  0
   37.2531    4.7728   19.4346 C   0  0  0  0  0  0  0  0  0  0  0  0
   35.0800    4.1960   22.7851 H   0  0  0  0  0  0  0  0  0  0  0  0
   35.8032    2.6784   23.0709 H   0  0  0  0  0  0  0  0  0  0  0  0
   38.8837    9.7957   17.9310 C   0  0  0  0  0  0  0  0  0  0  0  0
   37.8070   10.7050   18.1725 O   0  0  0  0  0  0  0  0  0  0  0  0
   38.2784   12.0012   18.5475 C   0  0  0  0  0  0  0  0  0  0  0  0
   37.3646   13.1177   17.9673 C   0  0  0  0  0  0  0  0  0  0  0  0
   38.0730   14.4736   18.1449 C   0  0  0  0  0  0  0  0  0  0  0  0
   37.1515   12.8585   16.4637 C   0  0  0  0  0  0  0  0  0  0  0  0
   36.0183   13.0587   18.7482 C   0  0  0  0  0  0  0  0  0  0  0  0
   35.6938   14.1662   21.0587 C   0  0  0  0  0  0  0  0  0  0  0  0
   36.0433   12.9132   20.2763 C   0  0  0  0  0  0  0  0  0  0  0  0
 29 30  1  0
 30 28  1  0
 28 25  1  0
 25 26  1  0
 25 27  1  0
 25 24  1  0
 24 23  1  0
 23 22  1  0
  1 22  1  0
  1  2  1  0
  2  3  1  0
  3 10  1  0
 10 11  1  0
 11 12  2  0
 12 13  1  0
 13 14  2  0
 14 15  1  0
 14 16  1  0
 16 17  2  0
 17 18  1  0
 18 19  2  0
  3  4  1  0
  4  5  1  0
  4  6  1  0
  6  7  1  0
  6  1  1  0
 19 10  1  0
 19 13  1  0
 15 20  1  0
 15 21  1  0
  5  8  1  0
  7  9  1  0
M  END
> <minimizedAffinity>
-5.05007

> <CNNscore>
0.6049430370

> <CNNaffinity>
4.1321797371

> <CNN_VS>
2.4997334480

> <CNNaffinity_variance>
0.9533939958

$$$$



 30 32  0  0  0  0  0  0  0  0999 V2000
   38.5316    8.6478   17.1066 C   0  0  0  0  0  0  0  0  0  0  0  0
   38.7279    7.3726   17.7546 O   0  0  0  0  0  0  0  0  0  0  0  0
   37.5711    6.5478   17.4569 C   0  0  0  0  0  0  0  0  0  0  0  0
   36.6221    7.3830   16.5890 C   0  0  0  0  0  0  0  0  0  0  0  0
   36.8852    7.1718   15.1898 O   0  0  0  0  0  0  0  0  0  0  0  0
   37.0204    8.8028   16.9590 C   0  0  0  0  0  0  0  0  0  0  0  0
   36.6416    9.7245   15.9397 O   0  0  0  0  0  0  0  0  0  0  0  0
   37.8149    7.3746   15.0014 H   0  0  0  0  0  0  0  0  0  0  0  0
   37.0260    9.4467   15.0936 H   0  0  0  0  0  0  0  0  0  0  0  0
   36.9706    6.1144   18.7049 N   0  0  0  0  0  0  0  0  0  0  0  0
   36.0483    6.7786   19.4686 C   0  0  0  0  0  0  0  0  0  0  0  0
   35.6975    6.0860   20.5337 N   0  0  0  0  0  0  0  0  0  0  0  0
   36.4359    4.9221   20.4542 C   0  0  0  0  0  0  0  0  0  0  0  0
   36.5231    3.7917   21.2844 C   0  0  0  0  0  0  0  0  0  0  0  0
   35.7821    3.6376   22.4505 N   0  0  0  0  0  0  0  0  0  0  0  0
   37.3854    2.8063   20.9442 N   0  0  0  0  0  0  0  0  0  0  0  0
   38.0970    2.9407   19.8031 C   0  0  0  0  0  0  0  0  0  0  0  0
   38.0881    3.9659   18.9281 N   0  0  0  0  0  0  0  0  0  0  0  0
   37.2379    4.9254   19.3257 C   0  0  0  0  0  0  0  0  0  0  0  0
   35.1460    4.3369   22.7255 H   0  0  0  0  0  0  0  0  0  0  0  0
   35.8934    2.8293   23.0013 H   0  0  0  0  0  0  0  0  0  0  0  0
   39.2153    9.7553   17.9073 C   0  0  0  0  0  0  0  0  0  0  0  0
   38.3077   10.8355   18.1399 O   0  0  0  0  0  0  0  0  0  0  0  0
   38.9778   11.9975   18.6334 C   0  0  0  0  0  0  0  0  0  0  0  0
   38.3713   13.2934   18.0242 C   0  0  0  0  0  0  0  0  0  0  0  0
   37.1725   12.9052   17.1387 C   0  0  0  0  0  0  0  0  0  0  0  0
   37.8754   14.1991   19.1675 C   0  0  0  0  0  0  0  0  0  0  0  0
   39.5003   13.9848   17.2035 C   0  0  0  0  0  0  0  0  0  0  0  0
   40.0796   13.2903   14.7843 C   0  0  0  0  0  0  0  0  0  0  0  0
   40.3723   13.1377   16.2660 C   0  0  0  0  0  0  0  0  0  0  0  0
 29 30  1  0
 30 28  1  0
 28 25  1  0
 25 26  1  0
 25 27  1  0
 25 24  1  0
 24 23  1  0
 23 22  1  0
  1 22  1  0
  1  2  1  0
  2  3  1  0
  3 10  1  0
 10 11  1  0
 11 12  2  0
 12 13  1  0
 13 14  2  0
 14 15  1  0
 14 16  1  0
 16 17  2  0
 17 18  1  0
 18 19  2  0
  3  4  1  0
  4  5  1  0
  4  6  1  0
  6  7  1  0
  6  1  1  0
 19 10  1  0
 19 13  1  0
 15 20  1  0
 15 21  1  0
  5  8  1  0
  7  9  1  0
M  END
> <minimizedAffinity>
-4.75241

> <CNNscore>
0.5945411325

> <CNNaffinity>
4.1283454895

> <CNN_VS>
2.4544711113

> <CNNaffinity_variance>
0.8297507167

$$$$



 30 32  0  0  0  0  0  0  0  0999 V2000
   41.7657    3.0661   11.8094 C   0  0  0  0  0  0  0  0  0  0  0  0
   41.2777    2.9243   10.4581 O   0  0  0  0  0  0  0  0  0  0  0  0
   42.2148    3.6020    9.5809 C   0  0  0  0  0  0  0  0  0  0  0  0
   43.3227    4.1934   10.4607 C   0  0  0  0  0  0  0  0  0  0  0  0
   44.4200    3.2716   10.5945 O   0  0  0  0  0  0  0  0  0  0  0  0
   42.6231    4.3288   11.8038 C   0  0  0  0  0  0  0  0  0  0  0  0
   43.5664    4.3787   12.8714 O   0  0  0  0  0  0  0  0  0  0  0  0
   44.0934    2.4292   10.9476 H   0  0  0  0  0  0  0  0  0  0  0  0
   44.1375    3.5955   12.8350 H   0  0  0  0  0  0  0  0  0  0  0  0
   41.4985    4.6046    8.8143 N   0  0  0  0  0  0  0  0  0  0  0  0
   40.3913    5.3171    9.1903 C   0  0  0  0  0  0  0  0  0  0  0  0
   40.0089    6.1655    8.2570 N   0  0  0  0  0  0  0  0  0  0  0  0
   40.9109    5.9844    7.2274 C   0  0  0  0  0  0  0  0  0  0  0  0
   41.0387    6.5757    5.9590 C   0  0  0  0  0  0  0  0  0  0  0  0
   40.1855    7.5656    5.4849 N   0  0  0  0  0  0  0  0  0  0  0  0
   42.0325    6.1498    5.1458 N   0  0  0  0  0  0  0  0  0  0  0  0
   42.8766    5.1998    5.6058 C   0  0  0  0  0  0  0  0  0  0  0  0
   42.8597    4.5732    6.7991 N   0  0  0  0  0  0  0  0  0  0  0  0
   41.8411    5.0128    7.5546 C   0  0  0  0  0  0  0  0  0  0  0  0
   39.4525    7.8969    6.0524 H   0  0  0  0  0  0  0  0  0  0  0  0
   40.3144    7.9353    4.5816 H   0  0  0  0  0  0  0  0  0  0  0  0
   40.5953    3.0893   12.7916 C   0  0  0  0  0  0  0  0  0  0  0  0
   40.2464    1.7590   13.1830 O   0  0  0  0  0  0  0  0  0  0  0  0
   38.9691    1.3711   12.6720 C   0  0  0  0  0  0  0  0  0  0  0  0
   38.9655   -0.1271   12.2553 C   0  0  0  0  0  0  0  0  0  0  0  0
   40.1269   -0.3662   11.2725 C   0  0  0  0  0  0  0  0  0  0  0  0
   39.1849   -0.9955   13.5088 C   0  0  0  0  0  0  0  0  0  0  0  0
   37.5818   -0.4166   11.6014 C   0  0  0  0  0  0  0  0  0  0  0  0
   35.5666   -1.9711   11.1627 C   0  0  0  0  0  0  0  0  0  0  0  0
   36.8765   -1.7479   11.8965 C   0  0  0  0  0  0  0  0  0  0  0  0
 29 30  1  0
 30 28  1  0
 28 25  1  0
 25 26  1  0
 25 27  1  0
 25 24  1  0
 24 23  1  0
 23 22  1  0
  1 22  1  0
  1  2  1  0
  2  3  1  0
  3 10  1  0
 10 11  1  0
 11 12  2  0
 12 13  1  0
 13 14  2  0
 14 15  1  0
 14 16  1  0
 16 17  2  0
 17 18  1  0
 18 19  2  0
  3  4  1  0
  4  5  1  0
  4  6  1  0
  6  7  1  0
  6  1  1  0
 19 10  1  0
 19 13  1  0
 15 20  1  0
 15 21  1  0
  5  8  1  0
  7  9  1  0
M  END
> <minimizedAffinity>
-5.65432

> <CNNscore>
0.5027061701

> <CNNaffinity>
3.9630203247

> <CNN_VS>
1.9922348261

> <CNNaffinity_variance>
1.2684127092

$$$$



 30 32  0  0  0  0  0  0  0  0999 V2000
   39.1718    2.0200   12.7014 C   0  0  0  0  0  0  0  0  0  0  0  0
   38.8640    0.7673   12.0530 O   0  0  0  0  0  0  0  0  0  0  0  0
   37.4330    0.5542   12.1696 C   0  0  0  0  0  0  0  0  0  0  0  0
   36.8524    1.7442   12.9430 C   0  0  0  0  0  0  0  0  0  0  0  0
   36.4244    2.7827   12.0430 O   0  0  0  0  0  0  0  0  0  0  0  0
   38.0605    2.2339   13.7255 C   0  0  0  0  0  0  0  0  0  0  0  0
   37.9024    3.5961   14.1148 O   0  0  0  0  0  0  0  0  0  0  0  0
   37.1680    3.0495   11.4802 H   0  0  0  0  0  0  0  0  0  0  0  0
   37.7321    4.1391   13.3293 H   0  0  0  0  0  0  0  0  0  0  0  0
   37.2004   -0.7200   12.8241 N   0  0  0  0  0  0  0  0  0  0  0  0
   37.6493   -1.1282   14.0516 C   0  0  0  0  0  0  0  0  0  0  0  0
   37.2334   -2.3424   14.3514 N   0  0  0  0  0  0  0  0  0  0  0  0
   36.4860   -2.7368   13.2595 C   0  0  0  0  0  0  0  0  0  0  0  0
   35.7895   -3.9200   12.9601 C   0  0  0  0  0  0  0  0  0  0  0  0
   35.7200   -5.0081   13.8226 N   0  0  0  0  0  0  0  0  0  0  0  0
   35.1666   -4.0167   11.7631 N   0  0  0  0  0  0  0  0  0  0  0  0
   35.2150   -2.9567   10.9260 C   0  0  0  0  0  0  0  0  0  0  0  0
   35.8371   -1.7750   11.1085 N   0  0  0  0  0  0  0  0  0  0  0  0
   36.4597   -1.7420   12.2971 C   0  0  0  0  0  0  0  0  0  0  0  0
   36.1629   -4.9691   14.7010 H   0  0  0  0  0  0  0  0  0  0  0  0
   35.2280   -5.8178   13.5549 H   0  0  0  0  0  0  0  0  0  0  0  0
   40.5833    1.9771   13.2854 C   0  0  0  0  0  0  0  0  0  0  0  0
   41.5560    2.1535   12.2522 O   0  0  0  0  0  0  0  0  0  0  0  0
   41.5704    3.4944   11.7575 C   0  0  0  0  0  0  0  0  0  0  0  0
   42.3316    3.5828   10.4044 C   0  0  0  0  0  0  0  0  0  0  0  0
   43.6728    4.3018   10.6417 C   0  0  0  0  0  0  0  0  0  0  0  0
   42.6128    2.1565    9.8946 C   0  0  0  0  0  0  0  0  0  0  0  0
   41.4184    4.3673    9.4162 C   0  0  0  0  0  0  0  0  0  0  0  0
   41.0019    5.4987    7.1322 C   0  0  0  0  0  0  0  0  0  0  0  0
   41.9300    4.6687    8.0005 C   0  0  0  0  0  0  0  0  0  0  0  0
 29 30  1  0
 30 28  1  0
 28 25  1  0
 25 26  1  0
 25 27  1  0
 25 24  1  0
 24 23  1  0
 23 22  1  0
  1 22  1  0
  1  2  1  0
  2  3  1  0
  3 10  1  0
 10 11  1  0
 11 12  2  0
 12 13  1  0
 13 14  2  0
 14 15  1  0
 14 16  1  0
 16 17  2  0
 17 18  1  0
 18 19  2  0
  3  4  1  0
  4  5  1  0
  4  6  1  0
  6  7  1  0
  6  1  1  0
 19 10  1  0
 19 13  1  0
 15 20  1  0
 15 21  1  0
  5  8  1  0
  7  9  1  0
M  END
> <minimizedAffinity>
-6.27643

> <CNNscore>
0.4767218828

> <CNNaffinity>
4.5920996666

> <CNN_VS>
2.1891543865

> <CNNaffinity_variance>
0.4498030245

$$$$



 30 32  0  0  0  0  0  0  0  0999 V2000
   39.7903    2.9490   15.4346 C   0  0  0  0  0  0  0  0  0  0  0  0
   38.9891    3.7071   16.3661 O   0  0  0  0  0  0  0  0  0  0  0  0
   39.7732    3.8841   17.5748 C   0  0  0  0  0  0  0  0  0  0  0  0
   41.1183    3.1807   17.3573 C   0  0  0  0  0  0  0  0  0  0  0  0
   42.0960    4.0939   16.8262 O   0  0  0  0  0  0  0  0  0  0  0  0
   40.7705    2.1530   16.2921 C   0  0  0  0  0  0  0  0  0  0  0  0
   41.9341    1.7345   15.5831 O   0  0  0  0  0  0  0  0  0  0  0  0
   41.7597    4.4859   16.0051 H   0  0  0  0  0  0  0  0  0  0  0  0
   42.3814    2.5099   15.2094 H   0  0  0  0  0  0  0  0  0  0  0  0
   39.0267    3.3526   18.7001 N   0  0  0  0  0  0  0  0  0  0  0  0
   39.1857    2.1403   19.3164 C   0  0  0  0  0  0  0  0  0  0  0  0
   38.3523    1.9856   20.3256 N   0  0  0  0  0  0  0  0  0  0  0  0
   37.6165    3.1536   20.3551 C   0  0  0  0  0  0  0  0  0  0  0  0
   36.5709    3.5992   21.1815 C   0  0  0  0  0  0  0  0  0  0  0  0
   36.0567    2.8542   22.2366 N   0  0  0  0  0  0  0  0  0  0  0  0
   36.0206    4.8092   20.9299 N   0  0  0  0  0  0  0  0  0  0  0  0
   36.5262    5.5470   19.9166 C   0  0  0  0  0  0  0  0  0  0  0  0
   37.5273    5.2312   19.0711 N   0  0  0  0  0  0  0  0  0  0  0  0
   38.0188    4.0130   19.3471 C   0  0  0  0  0  0  0  0  0  0  0  0
   36.4355    1.9698   22.4453 H   0  0  0  0  0  0  0  0  0  0  0  0
   35.3138    3.2111   22.7751 H   0  0  0  0  0  0  0  0  0  0  0  0
   38.8908    2.1026   14.5347 C   0  0  0  0  0  0  0  0  0  0  0  0
   39.4912    0.8289   14.2859 O   0  0  0  0  0  0  0  0  0  0  0  0
   38.5183   -0.2167   14.2297 C   0  0  0  0  0  0  0  0  0  0  0  0
   38.8167   -1.1955   13.0588 C   0  0  0  0  0  0  0  0  0  0  0  0
   40.3197   -1.1240   12.7301 C   0  0  0  0  0  0  0  0  0  0  0  0
   38.4705   -2.6290   13.5045 C   0  0  0  0  0  0  0  0  0  0  0  0
   37.9364   -0.7492   11.8539 C   0  0  0  0  0  0  0  0  0  0  0  0
   35.3699   -0.9743   11.6733 C   0  0  0  0  0  0  0  0  0  0  0  0
   36.7307   -1.6080   11.4471 C   0  0  0  0  0  0  0  0  0  0  0  0
 29 30  1  0
 30 28  1  0
 28 25  1  0
 25 26  1  0
 25 27  1  0
 25 24  1  0
 24 23  1  0
 23 22  1  0
  1 22  1  0
  1  2  1  0
  2  3  1  0
  3 10  1  0
 10 11  1  0
 11 12  2  0
 12 13  1  0
 13 14  2  0
 14 15  1  0
 14 16  1  0
 16 17  2  0
 17 18  1  0
 18 19  2  0
  3  4  1  0
  4  5  1  0
  4  6  1  0
  6  7  1  0
  6  1  1  0
 19 10  1  0
 19 13  1  0
 15 20  1  0
 15 21  1  0
  5  8  1  0
  7  9  1  0
M  END
> <minimizedAffinity>
-5.50036

> <CNNscore>
0.4669794738

> <CNNaffinity>
4.4281516075

> <CNN_VS>
2.0678558350

> <CNNaffinity_variance>
0.6950374246

$$$$
