


 32 35  0  0  0  0  0  0  0  0999 V2000
   -0.4741   33.3807   -4.6558 C   0  0  0  0  0  0  0  0  0  0  0  0
   -1.0713   32.7738   -5.7009 N   0  0  0  0  0  0  0  0  0  0  0  0
   -0.7000   33.5009   -6.7656 N   0  0  0  0  0  0  0  0  0  0  0  0
    0.1845   34.5025   -6.4888 C   0  0  0  0  0  0  0  0  0  0  0  0
    0.3390   34.4687   -5.1122 C   0  0  0  0  0  0  0  0  0  0  0  0
   -1.0383   33.3259   -7.6735 H   0  0  0  0  0  0  0  0  0  0  0  0
    0.2456   31.8479   -1.2528 C   0  0  0  0  0  0  0  0  0  0  0  0
    0.4227   32.4014   -2.5347 C   0  0  0  0  0  0  0  0  0  0  0  0
   -0.6660   32.8558   -3.2950 C   0  0  0  0  0  0  0  0  0  0  0  0
   -1.9448   32.7850   -2.7151 C   0  0  0  0  0  0  0  0  0  0  0  0
   -3.0673   33.2532   -3.3516 O   0  0  0  0  0  0  0  0  0  0  0  0
   -2.1430   32.2322   -1.4513 C   0  0  0  0  0  0  0  0  0  0  0  0
   -1.0490   31.7585   -0.7331 C   0  0  0  0  0  0  0  0  0  0  0  0
   -1.2292   31.2006    0.5010 O   0  0  0  0  0  0  0  0  0  0  0  0
   -2.9973   33.6359   -4.2040 H   0  0  0  0  0  0  0  0  0  0  0  0
   -2.0906   31.1332    0.8634 H   0  0  0  0  0  0  0  0  0  0  0  0
    2.0535   30.1120   -1.1593 C   0  0  0  0  0  0  0  0  0  0  0  0
    1.4450   31.3368   -0.4926 C   0  0  0  0  0  0  0  0  0  0  0  0
    1.2442   35.3433   -4.3844 C   0  0  0  0  0  0  0  0  0  0  0  0
    2.5114   34.8439   -4.0403 C   0  0  0  0  0  0  0  0  0  0  0  0
    3.3612   35.6683   -3.3346 C   0  0  0  0  0  0  0  0  0  0  0  0
    2.9989   36.9428   -2.9684 C   0  0  0  0  0  0  0  0  0  0  0  0
    1.7655   37.4688   -3.2844 C   0  0  0  0  0  0  0  0  0  0  0  0
    0.8772   36.6578   -3.9993 C   0  0  0  0  0  0  0  0  0  0  0  0
   -0.6887   37.3083   -4.3509 Cl  0  0  0  0  0  0  0  0  0  0  0  0
    3.9794   37.5807   -2.2751 O   0  0  0  0  0  0  0  0  0  0  0  0
    5.0039   36.5645   -2.2513 C   0  0  0  0  0  0  0  0  0  0  0  0
    4.6148   35.3460   -2.9189 O   0  0  0  0  0  0  0  0  0  0  0  0
    0.7652   35.3387   -7.4918 C   0  0  0  0  0  0  0  0  0  0  0  0
    1.2058   36.4708   -7.3829 O   0  0  0  0  0  0  0  0  0  0  0  0
    0.7974   34.7045   -8.6843 O   0  0  0  0  0  0  0  0  0  0  0  0
    0.4574   33.8349   -8.7618 H   0  0  0  0  0  0  0  0  0  0  0  0
 17 18  1  0
 18  7  1  0
  7  8  2  0
  8  9  1  0
  9  1  1  0
  1  2  2  0
  2  3  1  0
  3  4  1  0
  4 29  1  0
 29 30  2  0
 29 31  1  0
  4  5  2  0
  5 19  1  0
 19 20  2  0
 20 21  1  0
 21 22  2  0
 22 23  1  0
 23 24  2  0
 24 25  1  0
 22 26  1  0
 26 27  1  0
 27 28  1  0
  9 10  2  0
 10 11  1  0
 10 12  1  0
 12 13  2  0
 13 14  1  0
 13  7  1  0
  5  1  1  0
 24 19  1  0
 28 21  1  0
  3  6  1  0
 31 32  1  0
 11 15  1  0
 14 16  1  0
M  END
> <minimizedAffinity>
-10.39129

> <CNNscore>
0.9870084524

> <CNNaffinity>
6.8489704132

> <CNN_VS>
6.7599916458

> <CNNaffinity_variance>
0.0886621103

$$$$



 32 35  0  0  0  0  0  0  0  0999 V2000
   -0.5773   33.3261   -4.3519 C   0  0  0  0  0  0  0  0  0  0  0  0
   -1.0023   32.6756   -5.4534 N   0  0  0  0  0  0  0  0  0  0  0  0
   -0.6142   33.4569   -6.4728 N   0  0  0  0  0  0  0  0  0  0  0  0
    0.1243   34.5441   -6.1059 C   0  0  0  0  0  0  0  0  0  0  0  0
    0.1506   34.5039   -4.7210 C   0  0  0  0  0  0  0  0  0  0  0  0
   -0.8438   33.2615   -7.4101 H   0  0  0  0  0  0  0  0  0  0  0  0
   -0.0456   31.6195   -0.9974 C   0  0  0  0  0  0  0  0  0  0  0  0
    0.1999   32.2116   -2.2505 C   0  0  0  0  0  0  0  0  0  0  0  0
   -0.8382   32.7603   -3.0192 C   0  0  0  0  0  0  0  0  0  0  0  0
   -2.1348   32.7437   -2.4759 C   0  0  0  0  0  0  0  0  0  0  0  0
   -3.2093   33.3033   -3.1213 O   0  0  0  0  0  0  0  0  0  0  0  0
   -2.4008   32.1543   -1.2415 C   0  0  0  0  0  0  0  0  0  0  0  0
   -1.3573   31.5876   -0.5154 C   0  0  0  0  0  0  0  0  0  0  0  0
   -1.6049   30.9932    0.6896 O   0  0  0  0  0  0  0  0  0  0  0  0
   -3.0928   33.7146   -3.9552 H   0  0  0  0  0  0  0  0  0  0  0  0
   -2.4787   30.9635    1.0266 H   0  0  0  0  0  0  0  0  0  0  0  0
    2.0026   30.1779   -1.1289 C   0  0  0  0  0  0  0  0  0  0  0  0
    1.0996   31.0075   -0.2282 C   0  0  0  0  0  0  0  0  0  0  0  0
    0.8808   35.4595   -3.9041 C   0  0  0  0  0  0  0  0  0  0  0  0
    0.2643   36.6881   -3.6140 C   0  0  0  0  0  0  0  0  0  0  0  0
    0.9656   37.5997   -2.8545 C   0  0  0  0  0  0  0  0  0  0  0  0
    2.2306   37.3348   -2.3863 C   0  0  0  0  0  0  0  0  0  0  0  0
    2.8706   36.1439   -2.6502 C   0  0  0  0  0  0  0  0  0  0  0  0
    2.1875   35.1960   -3.4202 C   0  0  0  0  0  0  0  0  0  0  0  0
    3.0169   33.7211   -3.7883 Cl  0  0  0  0  0  0  0  0  0  0  0  0
    2.7429   38.3681   -1.6659 O   0  0  0  0  0  0  0  0  0  0  0  0
    1.6534   39.3126   -1.7284 C   0  0  0  0  0  0  0  0  0  0  0  0
    0.5237   38.8315   -2.4861 O   0  0  0  0  0  0  0  0  0  0  0  0
    0.7017   35.4556   -7.0430 C   0  0  0  0  0  0  0  0  0  0  0  0
    1.1030   36.5922   -6.8569 O   0  0  0  0  0  0  0  0  0  0  0  0
    0.7826   34.8944   -8.2693 O   0  0  0  0  0  0  0  0  0  0  0  0
    0.4726   34.0209   -8.4062 H   0  0  0  0  0  0  0  0  0  0  0  0
 17 18  1  0
 18  7  1  0
  7  8  2  0
  8  9  1  0
  9  1  1  0
  1  2  2  0
  2  3  1  0
  3  4  1  0
  4 29  1  0
 29 30  2  0
 29 31  1  0
  4  5  2  0
  5 19  1  0
 19 20  2  0
 20 21  1  0
 21 22  2  0
 22 23  1  0
 23 24  2  0
 24 25  1  0
 22 26  1  0
 26 27  1  0
 27 28  1  0
  9 10  2  0
 10 11  1  0
 10 12  1  0
 12 13  2  0
 13 14  1  0
 13  7  1  0
  5  1  1  0
 24 19  1  0
 28 21  1  0
  3  6  1  0
 31 32  1  0
 11 15  1  0
 14 16  1  0
M  END
> <minimizedAffinity>
-10.11987

> <CNNscore>
0.9848431349

> <CNNaffinity>
6.8619332314

> <CNN_VS>
6.7579278946

> <CNNaffinity_variance>
0.0605069585

$$$$



 32 35  0  0  0  0  0  0  0  0999 V2000
    1.3900   34.9822   -4.0915 C   0  0  0  0  0  0  0  0  0  0  0  0
    1.1527   35.0770   -5.4151 N   0  0  0  0  0  0  0  0  0  0  0  0
    2.0024   36.0247   -5.8394 N   0  0  0  0  0  0  0  0  0  0  0  0
    2.8516   36.4964   -4.8809 C   0  0  0  0  0  0  0  0  0  0  0  0
    2.4650   35.8522   -3.7165 C   0  0  0  0  0  0  0  0  0  0  0  0
    2.0125   36.3533   -6.7674 H   0  0  0  0  0  0  0  0  0  0  0  0
    0.5449   32.2055   -1.6372 C   0  0  0  0  0  0  0  0  0  0  0  0
    1.2646   33.1566   -2.3845 C   0  0  0  0  0  0  0  0  0  0  0  0
    0.6212   34.0304   -3.2746 C   0  0  0  0  0  0  0  0  0  0  0  0
   -0.7801   33.9595   -3.3641 C   0  0  0  0  0  0  0  0  0  0  0  0
   -1.5094   34.8056   -4.1619 O   0  0  0  0  0  0  0  0  0  0  0  0
   -1.5105   33.0191   -2.6401 C   0  0  0  0  0  0  0  0  0  0  0  0
   -0.8431   32.1424   -1.7898 C   0  0  0  0  0  0  0  0  0  0  0  0
   -1.5441   31.2053   -1.0846 O   0  0  0  0  0  0  0  0  0  0  0  0
   -1.0738   35.4593   -4.6728 H   0  0  0  0  0  0  0  0  0  0  0  0
   -2.4750   31.1499   -1.1757 H   0  0  0  0  0  0  0  0  0  0  0  0
    1.9012   30.1006   -1.4927 C   0  0  0  0  0  0  0  0  0  0  0  0
    1.2885   31.2618   -0.7238 C   0  0  0  0  0  0  0  0  0  0  0  0
    3.1432   36.0227   -2.4419 C   0  0  0  0  0  0  0  0  0  0  0  0
    4.1519   35.1057   -2.1022 C   0  0  0  0  0  0  0  0  0  0  0  0
    4.7811   35.2584   -0.8855 C   0  0  0  0  0  0  0  0  0  0  0  0
    4.4464   36.2694   -0.0163 C   0  0  0  0  0  0  0  0  0  0  0  0
    3.4621   37.1872   -0.3106 C   0  0  0  0  0  0  0  0  0  0  0  0
    2.8015   37.0604   -1.5377 C   0  0  0  0  0  0  0  0  0  0  0  0
    1.5328   38.1881   -1.8799 Cl  0  0  0  0  0  0  0  0  0  0  0  0
    5.1825   36.2347    1.1264 O   0  0  0  0  0  0  0  0  0  0  0  0
    6.0242   35.0895    0.8756 C   0  0  0  0  0  0  0  0  0  0  0  0
    5.7703   34.4627   -0.3990 O   0  0  0  0  0  0  0  0  0  0  0  0
    3.8851   37.4475   -5.1446 C   0  0  0  0  0  0  0  0  0  0  0  0
    4.3904   38.2582   -4.3863 O   0  0  0  0  0  0  0  0  0  0  0  0
    4.3029   37.3578   -6.4262 O   0  0  0  0  0  0  0  0  0  0  0  0
    3.9109   36.7330   -7.0042 H   0  0  0  0  0  0  0  0  0  0  0  0
 17 18  1  0
 18  7  1  0
  7  8  2  0
  8  9  1  0
  9  1  1  0
  1  2  2  0
  2  3  1  0
  3  4  1  0
  4 29  1  0
 29 30  2  0
 29 31  1  0
  4  5  2  0
  5 19  1  0
 19 20  2  0
 20 21  1  0
 21 22  2  0
 22 23  1  0
 23 24  2  0
 24 25  1  0
 22 26  1  0
 26 27  1  0
 27 28  1  0
  9 10  2  0
 10 11  1  0
 10 12  1  0
 12 13  2  0
 13 14  1  0
 13  7  1  0
  5  1  1  0
 24 19  1  0
 28 21  1  0
  3  6  1  0
 31 32  1  0
 11 15  1  0
 14 16  1  0
M  END
> <minimizedAffinity>
-8.90704

> <CNNscore>
0.4419706762

> <CNNaffinity>
6.0924859047

> <CNN_VS>
2.6927001476

> <CNNaffinity_variance>
0.2078017145

$$$$



 32 35  0  0  0  0  0  0  0  0999 V2000
    1.5296   35.5585   -4.6393 C   0  0  0  0  0  0  0  0  0  0  0  0
    1.4877   36.0767   -5.8830 N   0  0  0  0  0  0  0  0  0  0  0  0
    0.7035   35.2322   -6.5700 N   0  0  0  0  0  0  0  0  0  0  0  0
    0.1522   34.2331   -5.8217 C   0  0  0  0  0  0  0  0  0  0  0  0
    0.6886   34.4014   -4.5552 C   0  0  0  0  0  0  0  0  0  0  0  0
    0.5391   35.3257   -7.5362 H   0  0  0  0  0  0  0  0  0  0  0  0
    4.4856   36.7546   -2.5706 C   0  0  0  0  0  0  0  0  0  0  0  0
    3.7215   36.1656   -3.5953 C   0  0  0  0  0  0  0  0  0  0  0  0
    2.3193   36.2259   -3.5927 C   0  0  0  0  0  0  0  0  0  0  0  0
    1.6963   36.9383   -2.5529 C   0  0  0  0  0  0  0  0  0  0  0  0
    0.3352   37.1040   -2.4883 O   0  0  0  0  0  0  0  0  0  0  0  0
    2.4338   37.5207   -1.5240 C   0  0  0  0  0  0  0  0  0  0  0  0
    3.8216   37.4167   -1.5339 C   0  0  0  0  0  0  0  0  0  0  0  0
    4.5574   37.9700   -0.5243 O   0  0  0  0  0  0  0  0  0  0  0  0
   -0.2138   36.7351   -3.1520 H   0  0  0  0  0  0  0  0  0  0  0  0
    4.1274   38.4172    0.1780 H   0  0  0  0  0  0  0  0  0  0  0  0
    6.6233   37.6479   -3.5314 C   0  0  0  0  0  0  0  0  0  0  0  0
    5.9892   36.6268   -2.5986 C   0  0  0  0  0  0  0  0  0  0  0  0
    0.3297   33.5738   -3.4150 C   0  0  0  0  0  0  0  0  0  0  0  0
   -1.0253   33.5027   -3.0505 C   0  0  0  0  0  0  0  0  0  0  0  0
   -1.3612   32.7321   -1.9584 C   0  0  0  0  0  0  0  0  0  0  0  0
   -0.4150   32.0469   -1.2340 C   0  0  0  0  0  0  0  0  0  0  0  0
    0.9235   32.0921   -1.5570 C   0  0  0  0  0  0  0  0  0  0  0  0
    1.2998   32.8669   -2.6599 C   0  0  0  0  0  0  0  0  0  0  0  0
    2.9888   32.9577   -3.0308 Cl  0  0  0  0  0  0  0  0  0  0  0  0
   -0.9576   31.3561   -0.1961 O   0  0  0  0  0  0  0  0  0  0  0  0
   -2.3554   31.6792   -0.3527 C   0  0  0  0  0  0  0  0  0  0  0  0
   -2.6170   32.5567   -1.4678 O   0  0  0  0  0  0  0  0  0  0  0  0
   -0.7748   33.2789   -6.3439 C   0  0  0  0  0  0  0  0  0  0  0  0
   -0.9261   32.1095   -6.0322 O   0  0  0  0  0  0  0  0  0  0  0  0
   -1.5516   33.8381   -7.2974 O   0  0  0  0  0  0  0  0  0  0  0  0
   -1.4306   34.7370   -7.5326 H   0  0  0  0  0  0  0  0  0  0  0  0
 17 18  1  0
 18  7  1  0
  7  8  2  0
  8  9  1  0
  9  1  1  0
  1  2  2  0
  2  3  1  0
  3  4  1  0
  4 29  1  0
 29 30  2  0
 29 31  1  0
  4  5  2  0
  5 19  1  0
 19 20  2  0
 20 21  1  0
 21 22  2  0
 22 23  1  0
 23 24  2  0
 24 25  1  0
 22 26  1  0
 26 27  1  0
 27 28  1  0
  9 10  2  0
 10 11  1  0
 10 12  1  0
 12 13  2  0
 13 14  1  0
 13  7  1  0
  5  1  1  0
 24 19  1  0
 28 21  1  0
  3  6  1  0
 31 32  1  0
 11 15  1  0
 14 16  1  0
M  END
> <minimizedAffinity>
-9.67023

> <CNNscore>
0.4350223541

> <CNNaffinity>
5.8749527931

> <CNN_VS>
2.5557358265

> <CNNaffinity_variance>
0.1237801909

$$$$



 32 35  0  0  0  0  0  0  0  0999 V2000
    1.7190   35.3596   -4.4430 C   0  0  0  0  0  0  0  0  0  0  0  0
    1.8366   35.1115   -5.7627 N   0  0  0  0  0  0  0  0  0  0  0  0
    2.5103   36.1681   -6.2421 N   0  0  0  0  0  0  0  0  0  0  0  0
    2.9225   37.0572   -5.2926 C   0  0  0  0  0  0  0  0  0  0  0  0
    2.4030   36.5720   -4.1031 C   0  0  0  0  0  0  0  0  0  0  0  0
    2.6925   36.2920   -7.2017 H   0  0  0  0  0  0  0  0  0  0  0  0
    1.0628   32.5941   -1.9192 C   0  0  0  0  0  0  0  0  0  0  0  0
    1.7221   33.5507   -2.7137 C   0  0  0  0  0  0  0  0  0  0  0  0
    1.0144   34.4021   -3.5763 C   0  0  0  0  0  0  0  0  0  0  0  0
   -0.3879   34.3032   -3.5891 C   0  0  0  0  0  0  0  0  0  0  0  0
   -1.1758   35.1264   -4.3546 O   0  0  0  0  0  0  0  0  0  0  0  0
   -1.0594   33.3569   -2.8174 C   0  0  0  0  0  0  0  0  0  0  0  0
   -0.3299   32.5025   -1.9958 C   0  0  0  0  0  0  0  0  0  0  0  0
   -0.9731   31.5599   -1.2445 O   0  0  0  0  0  0  0  0  0  0  0  0
   -0.7815   35.7828   -4.8947 H   0  0  0  0  0  0  0  0  0  0  0  0
   -1.9063   31.4856   -1.2845 H   0  0  0  0  0  0  0  0  0  0  0  0
    1.9673   30.2735   -1.6230 C   0  0  0  0  0  0  0  0  0  0  0  0
    1.8732   31.6750   -1.0382 C   0  0  0  0  0  0  0  0  0  0  0  0
    2.6438   37.1917   -2.8102 C   0  0  0  0  0  0  0  0  0  0  0  0
    1.7973   38.2398   -2.4118 C   0  0  0  0  0  0  0  0  0  0  0  0
    2.0385   38.8379   -1.1937 C   0  0  0  0  0  0  0  0  0  0  0  0
    3.0706   38.4369   -0.3792 C   0  0  0  0  0  0  0  0  0  0  0  0
    3.9240   37.4152   -0.7338 C   0  0  0  0  0  0  0  0  0  0  0  0
    3.7085   36.7869   -1.9654 C   0  0  0  0  0  0  0  0  0  0  0  0
    4.8141   35.5362   -2.4260 Cl  0  0  0  0  0  0  0  0  0  0  0  0
    3.1349   39.1613    0.7698 O   0  0  0  0  0  0  0  0  0  0  0  0
    2.0210   40.0611    0.5892 C   0  0  0  0  0  0  0  0  0  0  0  0
    1.3239   39.8632   -0.6585 O   0  0  0  0  0  0  0  0  0  0  0  0
    3.7224   38.2051   -5.5841 C   0  0  0  0  0  0  0  0  0  0  0  0
    3.4636   39.3834   -5.4048 O   0  0  0  0  0  0  0  0  0  0  0  0
    4.9085   37.8393   -6.1175 O   0  0  0  0  0  0  0  0  0  0  0  0
    5.1017   36.9325   -6.2529 H   0  0  0  0  0  0  0  0  0  0  0  0
 17 18  1  0
 18  7  1  0
  7  8  2  0
  8  9  1  0
  9  1  1  0
  1  2  2  0
  2  3  1  0
  3  4  1  0
  4 29  1  0
 29 30  2  0
 29 31  1  0
  4  5  2  0
  5 19  1  0
 19 20  2  0
 20 21  1  0
 21 22  2  0
 22 23  1  0
 23 24  2  0
 24 25  1  0
 22 26  1  0
 26 27  1  0
 27 28  1  0
  9 10  2  0
 10 11  1  0
 10 12  1  0
 12 13  2  0
 13 14  1  0
 13  7  1  0
  5  1  1  0
 24 19  1  0
 28 21  1  0
  3  6  1  0
 31 32  1  0
 11 15  1  0
 14 16  1  0
M  END
> <minimizedAffinity>
-8.59144

> <CNNscore>
0.2482171059

> <CNNaffinity>
5.7049255371

> <CNN_VS>
1.4160600901

> <CNNaffinity_variance>
0.2325189263

$$$$



 32 35  0  0  0  0  0  0  0  0999 V2000
    3.2414   37.6525   -4.3133 C   0  0  0  0  0  0  0  0  0  0  0  0
    3.9950   38.7236   -3.9938 N   0  0  0  0  0  0  0  0  0  0  0  0
    3.8987   38.8128   -2.6585 N   0  0  0  0  0  0  0  0  0  0  0  0
    3.1942   37.8025   -2.0711 C   0  0  0  0  0  0  0  0  0  0  0  0
    2.7289   37.0345   -3.1265 C   0  0  0  0  0  0  0  0  0  0  0  0
    4.3036   39.5480   -2.1440 H   0  0  0  0  0  0  0  0  0  0  0  0
    1.8438   36.1134   -7.4954 C   0  0  0  0  0  0  0  0  0  0  0  0
    1.9653   36.5526   -6.1638 C   0  0  0  0  0  0  0  0  0  0  0  0
    3.1013   37.2476   -5.7207 C   0  0  0  0  0  0  0  0  0  0  0  0
    4.1022   37.5362   -6.6649 C   0  0  0  0  0  0  0  0  0  0  0  0
    5.2258   38.2579   -6.3474 O   0  0  0  0  0  0  0  0  0  0  0  0
    4.0057   37.1024   -7.9857 C   0  0  0  0  0  0  0  0  0  0  0  0
    2.8830   36.3859   -8.3897 C   0  0  0  0  0  0  0  0  0  0  0  0
    2.7809   35.9414   -9.6776 O   0  0  0  0  0  0  0  0  0  0  0  0
    5.3469   38.5767   -5.4747 H   0  0  0  0  0  0  0  0  0  0  0  0
    3.4689   36.1158  -10.2894 H   0  0  0  0  0  0  0  0  0  0  0  0
   -0.0720   34.6937   -6.7178 C   0  0  0  0  0  0  0  0  0  0  0  0
    0.6198   35.3347   -7.9117 C   0  0  0  0  0  0  0  0  0  0  0  0
    1.9632   35.8109   -2.9523 C   0  0  0  0  0  0  0  0  0  0  0  0
    2.6563   34.6434   -2.5912 C   0  0  0  0  0  0  0  0  0  0  0  0
    1.9311   33.4806   -2.4442 C   0  0  0  0  0  0  0  0  0  0  0  0
    0.5712   33.4428   -2.6411 C   0  0  0  0  0  0  0  0  0  0  0  0
   -0.1449   34.5643   -2.9978 C   0  0  0  0  0  0  0  0  0  0  0  0
    0.5608   35.7621   -3.1571 C   0  0  0  0  0  0  0  0  0  0  0  0
   -0.3382   37.1567   -3.6525 Cl  0  0  0  0  0  0  0  0  0  0  0  0
    0.0549   32.1991   -2.4515 O   0  0  0  0  0  0  0  0  0  0  0  0
    1.2445   31.4583   -2.1066 C   0  0  0  0  0  0  0  0  0  0  0  0
    2.4398   32.2664   -2.1049 O   0  0  0  0  0  0  0  0  0  0  0  0
    3.0434   37.6675   -0.6564 C   0  0  0  0  0  0  0  0  0  0  0  0
    3.5223   36.8279    0.0873 O   0  0  0  0  0  0  0  0  0  0  0  0
    2.2578   38.6494   -0.1626 O   0  0  0  0  0  0  0  0  0  0  0  0
    1.8927   39.2917   -0.7390 H   0  0  0  0  0  0  0  0  0  0  0  0
 17 18  1  0
 18  7  1  0
  7  8  2  0
  8  9  1  0
  9  1  1  0
  1  2  2  0
  2  3  1  0
  3  4  1  0
  4 29  1  0
 29 30  2  0
 29 31  1  0
  4  5  2  0
  5 19  1  0
 19 20  2  0
 20 21  1  0
 21 22  2  0
 22 23  1  0
 23 24  2  0
 24 25  1  0
 22 26  1  0
 26 27  1  0
 27 28  1  0
  9 10  2  0
 10 11  1  0
 10 12  1  0
 12 13  2  0
 13 14  1  0
 13  7  1  0
  5  1  1  0
 24 19  1  0
 28 21  1  0
  3  6  1  0
 31 32  1  0
 11 15  1  0
 14 16  1  0
M  END
> <minimizedAffinity>
-7.35124

> <CNNscore>
0.2010267526

> <CNNaffinity>
5.3794093132

> <CNN_VS>
1.0814051628

> <CNNaffinity_variance>
0.2979493141

$$$$



 32 35  0  0  0  0  0  0  0  0999 V2000
    2.6138   34.5473   -2.4793 C   0  0  0  0  0  0  0  0  0  0  0  0
    3.1430   33.8697   -1.4410 N   0  0  0  0  0  0  0  0  0  0  0  0
    4.1553   34.6427   -1.0194 N   0  0  0  0  0  0  0  0  0  0  0  0
    4.2652   35.8383   -1.6679 C   0  0  0  0  0  0  0  0  0  0  0  0
    3.2852   35.8020   -2.6469 C   0  0  0  0  0  0  0  0  0  0  0  0
    4.7694   34.3694   -0.3000 H   0  0  0  0  0  0  0  0  0  0  0  0
    0.0711   33.8877   -5.2266 C   0  0  0  0  0  0  0  0  0  0  0  0
    1.1953   34.3745   -4.5337 C   0  0  0  0  0  0  0  0  0  0  0  0
    1.4669   33.9886   -3.2120 C   0  0  0  0  0  0  0  0  0  0  0  0
    0.6022   33.0572   -2.6108 C   0  0  0  0  0  0  0  0  0  0  0  0
    0.8100   32.5730   -1.3432 O   0  0  0  0  0  0  0  0  0  0  0  0
   -0.5214   32.5702   -3.2758 C   0  0  0  0  0  0  0  0  0  0  0  0
   -0.7851   32.9957   -4.5745 C   0  0  0  0  0  0  0  0  0  0  0  0
   -1.8907   32.5383   -5.2341 O   0  0  0  0  0  0  0  0  0  0  0  0
    1.5493   32.8635   -0.8461 H   0  0  0  0  0  0  0  0  0  0  0  0
   -2.4746   31.9399   -4.8109 H   0  0  0  0  0  0  0  0  0  0  0  0
    0.0742   35.8542   -6.7834 C   0  0  0  0  0  0  0  0  0  0  0  0
   -0.1984   34.3650   -6.6328 C   0  0  0  0  0  0  0  0  0  0  0  0
    3.0114   36.9082   -3.5498 C   0  0  0  0  0  0  0  0  0  0  0  0
    3.9577   37.1969   -4.5472 C   0  0  0  0  0  0  0  0  0  0  0  0
    3.7048   38.2572   -5.3906 C   0  0  0  0  0  0  0  0  0  0  0  0
    2.5682   39.0217   -5.2758 C   0  0  0  0  0  0  0  0  0  0  0  0
    1.6173   38.7730   -4.3105 C   0  0  0  0  0  0  0  0  0  0  0  0
    1.8434   37.7043   -3.4360 C   0  0  0  0  0  0  0  0  0  0  0  0
    0.6676   37.4277   -2.1952 Cl  0  0  0  0  0  0  0  0  0  0  0  0
    2.5187   40.0178   -6.2001 O   0  0  0  0  0  0  0  0  0  0  0  0
    3.7515   39.7900   -6.9150 C   0  0  0  0  0  0  0  0  0  0  0  0
    4.5112   38.6757   -6.4020 O   0  0  0  0  0  0  0  0  0  0  0  0
    5.2235   36.8387   -1.3167 C   0  0  0  0  0  0  0  0  0  0  0  0
    6.4310   36.8352   -1.4885 O   0  0  0  0  0  0  0  0  0  0  0  0
    4.6196   37.8955   -0.7305 O   0  0  0  0  0  0  0  0  0  0  0  0
    3.6916   37.8924   -0.6011 H   0  0  0  0  0  0  0  0  0  0  0  0
 17 18  1  0
 18  7  1  0
  7  8  2  0
  8  9  1  0
  9  1  1  0
  1  2  2  0
  2  3  1  0
  3  4  1  0
  4 29  1  0
 29 30  2  0
 29 31  1  0
  4  5  2  0
  5 19  1  0
 19 20  2  0
 20 21  1  0
 21 22  2  0
 22 23  1  0
 23 24  2  0
 24 25  1  0
 22 26  1  0
 26 27  1  0
 27 28  1  0
  9 10  2  0
 10 11  1  0
 10 12  1  0
 12 13  2  0
 13 14  1  0
 13  7  1  0
  5  1  1  0
 24 19  1  0
 28 21  1  0
  3  6  1  0
 31 32  1  0
 11 15  1  0
 14 16  1  0
M  END
> <minimizedAffinity>
-8.43904

> <CNNscore>
0.1287005097

> <CNNaffinity>
5.1538996696

> <CNN_VS>
0.6633095145

> <CNNaffinity_variance>
0.3534429073

$$$$



 32 35  0  0  0  0  0  0  0  0999 V2000
    2.3888   34.8393   -2.6371 C   0  0  0  0  0  0  0  0  0  0  0  0
    2.9247   34.1253   -1.6271 N   0  0  0  0  0  0  0  0  0  0  0  0
    3.9344   34.8869   -1.1792 N   0  0  0  0  0  0  0  0  0  0  0  0
    4.0361   36.1070   -1.7817 C   0  0  0  0  0  0  0  0  0  0  0  0
    3.0533   36.1030   -2.7586 C   0  0  0  0  0  0  0  0  0  0  0  0
    4.5521   34.5894   -0.4726 H   0  0  0  0  0  0  0  0  0  0  0  0
   -0.9614   33.2268   -3.4266 C   0  0  0  0  0  0  0  0  0  0  0  0
    0.1181   33.7909   -2.7214 C   0  0  0  0  0  0  0  0  0  0  0  0
    1.2425   34.3030   -3.3872 C   0  0  0  0  0  0  0  0  0  0  0  0
    1.2386   34.2789   -4.7929 C   0  0  0  0  0  0  0  0  0  0  0  0
    2.2635   34.8045   -5.5398 O   0  0  0  0  0  0  0  0  0  0  0  0
    0.1843   33.7166   -5.5098 C   0  0  0  0  0  0  0  0  0  0  0  0
   -0.9033   33.1856   -4.8226 C   0  0  0  0  0  0  0  0  0  0  0  0
   -1.9379   32.6178   -5.5112 O   0  0  0  0  0  0  0  0  0  0  0  0
    3.0004   35.1964   -5.1139 H   0  0  0  0  0  0  0  0  0  0  0  0
   -1.9142   32.5824   -6.4472 H   0  0  0  0  0  0  0  0  0  0  0  0
   -1.6741   31.9058   -1.4171 C   0  0  0  0  0  0  0  0  0  0  0  0
   -2.1293   32.6532   -2.6618 C   0  0  0  0  0  0  0  0  0  0  0  0
    2.7709   37.2414   -3.6177 C   0  0  0  0  0  0  0  0  0  0  0  0
    3.7259   37.5906   -4.5872 C   0  0  0  0  0  0  0  0  0  0  0  0
    3.4645   38.6811   -5.3885 C   0  0  0  0  0  0  0  0  0  0  0  0
    2.3115   39.4182   -5.2587 C   0  0  0  0  0  0  0  0  0  0  0  0
    1.3517   39.1104   -4.3197 C   0  0  0  0  0  0  0  0  0  0  0  0
    1.5860   38.0096   -3.4881 C   0  0  0  0  0  0  0  0  0  0  0  0
    0.3980   37.6578   -2.2784 Cl  0  0  0  0  0  0  0  0  0  0  0  0
    2.2559   40.4519   -6.1404 O   0  0  0  0  0  0  0  0  0  0  0  0
    3.5033   40.2784   -6.8453 C   0  0  0  0  0  0  0  0  0  0  0  0
    4.2771   39.1578   -6.3686 O   0  0  0  0  0  0  0  0  0  0  0  0
    4.9904   37.0981   -1.3954 C   0  0  0  0  0  0  0  0  0  0  0  0
    6.1815   37.1543   -1.6517 O   0  0  0  0  0  0  0  0  0  0  0  0
    4.4033   38.0670   -0.6593 O   0  0  0  0  0  0  0  0  0  0  0  0
    3.4878   38.0184   -0.4657 H   0  0  0  0  0  0  0  0  0  0  0  0
 17 18  1  0
 18  7  1  0
  7  8  2  0
  8  9  1  0
  9  1  1  0
  1  2  2  0
  2  3  1  0
  3  4  1  0
  4 29  1  0
 29 30  2  0
 29 31  1  0
  4  5  2  0
  5 19  1  0
 19 20  2  0
 20 21  1  0
 21 22  2  0
 22 23  1  0
 23 24  2  0
 24 25  1  0
 22 26  1  0
 26 27  1  0
 27 28  1  0
  9 10  2  0
 10 11  1  0
 10 12  1  0
 12 13  2  0
 13 14  1  0
 13  7  1  0
  5  1  1  0
 24 19  1  0
 28 21  1  0
  3  6  1  0
 31 32  1  0
 11 15  1  0
 14 16  1  0
M  END
> <minimizedAffinity>
-8.24315

> <CNNscore>
0.1225438789

> <CNNaffinity>
4.9765987396

> <CNN_VS>
0.6098517179

> <CNNaffinity_variance>
0.4754590988

$$$$



 32 35  0  0  0  0  0  0  0  0999 V2000
    2.2452   36.3881   -2.7981 C   0  0  0  0  0  0  0  0  0  0  0  0
    2.5450   37.2298   -1.7888 N   0  0  0  0  0  0  0  0  0  0  0  0
    2.6377   38.4334   -2.3746 N   0  0  0  0  0  0  0  0  0  0  0  0
    2.3256   38.4441   -3.7029 C   0  0  0  0  0  0  0  0  0  0  0  0
    2.0846   37.1171   -4.0212 C   0  0  0  0  0  0  0  0  0  0  0  0
    2.9091   39.2435   -1.8854 H   0  0  0  0  0  0  0  0  0  0  0  0
    0.7041   32.9183   -2.6148 C   0  0  0  0  0  0  0  0  0  0  0  0
    0.9029   34.2792   -2.9137 C   0  0  0  0  0  0  0  0  0  0  0  0
    2.0730   34.9520   -2.5292 C   0  0  0  0  0  0  0  0  0  0  0  0
    3.0699   34.2092   -1.8725 C   0  0  0  0  0  0  0  0  0  0  0  0
    4.2729   34.7583   -1.5042 O   0  0  0  0  0  0  0  0  0  0  0  0
    2.8892   32.8635   -1.5589 C   0  0  0  0  0  0  0  0  0  0  0  0
    1.7046   32.2298   -1.9227 C   0  0  0  0  0  0  0  0  0  0  0  0
    1.5069   30.9148   -1.6091 O   0  0  0  0  0  0  0  0  0  0  0  0
    4.4526   35.6592   -1.6883 H   0  0  0  0  0  0  0  0  0  0  0  0
    2.1678   30.4392   -1.1455 H   0  0  0  0  0  0  0  0  0  0  0  0
   -1.7364   33.2482   -3.0903 C   0  0  0  0  0  0  0  0  0  0  0  0
   -0.5893   32.2514   -3.0150 C   0  0  0  0  0  0  0  0  0  0  0  0
    1.6641   36.6716   -5.3397 C   0  0  0  0  0  0  0  0  0  0  0  0
    2.6590   36.4000   -6.2939 C   0  0  0  0  0  0  0  0  0  0  0  0
    2.2577   35.9952   -7.5487 C   0  0  0  0  0  0  0  0  0  0  0  0
    0.9302   35.8560   -7.8772 C   0  0  0  0  0  0  0  0  0  0  0  0
   -0.0754   36.1143   -6.9717 C   0  0  0  0  0  0  0  0  0  0  0  0
    0.2969   36.5291   -5.6882 C   0  0  0  0  0  0  0  0  0  0  0  0
   -0.9731   36.8983   -4.5705 Cl  0  0  0  0  0  0  0  0  0  0  0  0
    0.7546   35.4541   -9.1643 O   0  0  0  0  0  0  0  0  0  0  0  0
    2.1240   35.3498   -9.6081 C   0  0  0  0  0  0  0  0  0  0  0  0
    3.0828   35.6968   -8.5872 O   0  0  0  0  0  0  0  0  0  0  0  0
    2.2833   39.6351   -4.4916 C   0  0  0  0  0  0  0  0  0  0  0  0
    1.4008   40.4739   -4.5639 O   0  0  0  0  0  0  0  0  0  0  0  0
    3.4174   39.7724   -5.2128 O   0  0  0  0  0  0  0  0  0  0  0  0
    4.0919   39.1247   -5.1531 H   0  0  0  0  0  0  0  0  0  0  0  0
 17 18  1  0
 18  7  1  0
  7  8  2  0
  8  9  1  0
  9  1  1  0
  1  2  2  0
  2  3  1  0
  3  4  1  0
  4 29  1  0
 29 30  2  0
 29 31  1  0
  4  5  2  0
  5 19  1  0
 19 20  2  0
 20 21  1  0
 21 22  2  0
 22 23  1  0
 23 24  2  0
 24 25  1  0
 22 26  1  0
 26 27  1  0
 27 28  1  0
  9 10  2  0
 10 11  1  0
 10 12  1  0
 12 13  2  0
 13 14  1  0
 13  7  1  0
  5  1  1  0
 24 19  1  0
 28 21  1  0
  3  6  1  0
 31 32  1  0
 11 15  1  0
 14 16  1  0
M  END
> <minimizedAffinity>
-6.96657

> <CNNscore>
0.1209419444

> <CNNaffinity>
4.8926815987

> <CNN_VS>
0.5917304158

> <CNNaffinity_variance>
0.5442899466

$$$$
