


 25 26  0  0  0  0  0  0  0  0999 V2000
   32.8472   22.9895   27.9881 C   0  0  0  0  0  0  0  0  0  0  0  0
   32.9131   21.6050   28.3096 O   0  0  0  0  0  0  0  0  0  0  0  0
   32.1118   20.7864   27.4402 C   0  0  0  0  0  0  0  0  0  0  0  0
   32.6640   20.8780   26.0147 C   0  0  0  0  0  0  0  0  0  0  0  0
   31.8988   20.0880   25.1023 O   0  0  0  0  0  0  0  0  0  0  0  0
   32.6296   22.3364   25.5634 C   0  0  0  0  0  0  0  0  0  0  0  0
   33.2247   22.4357   24.2576 O   0  0  0  0  0  0  0  0  0  0  0  0
   33.3561   23.2572   26.5479 C   0  0  0  0  0  0  0  0  0  0  0  0
   33.1312   24.5952   26.0760 O   0  0  0  0  0  0  0  0  0  0  0  0
   30.9842   20.4106   25.0836 H   0  0  0  0  0  0  0  0  0  0  0  0
   34.1488   22.1443   24.3004 H   0  0  0  0  0  0  0  0  0  0  0  0
   32.1774   24.7653   26.0287 H   0  0  0  0  0  0  0  0  0  0  0  0
   31.9939   24.7457   30.0309 O   0  0  0  0  0  0  0  0  0  0  0  0
   33.1605   24.3666   30.0191 C   0  0  0  0  0  0  0  0  0  0  0  0
   33.6695   23.5881   29.0109 N   0  0  0  0  0  0  0  0  0  0  0  0
   34.6410   23.4306   28.9842 H   0  0  0  0  0  0  0  0  0  0  0  0
   34.0891   24.7277   31.1256 C   0  0  0  0  0  0  0  0  0  0  0  0
   35.4800   24.7440   30.9568 C   0  0  0  0  0  0  0  0  0  0  0  0
   36.3093   25.0931   32.0257 C   0  0  0  0  0  0  0  0  0  0  0  0
   35.7553   25.4327   33.2599 C   0  0  0  0  0  0  0  0  0  0  0  0
   34.3715   25.4321   33.4289 C   0  0  0  0  0  0  0  0  0  0  0  0
   33.5390   25.0848   32.3635 C   0  0  0  0  0  0  0  0  0  0  0  0
   32.1469   19.3427   27.9573 C   0  0  0  0  0  0  0  0  0  0  0  0
   33.2176   18.6299   27.3320 O   0  0  0  0  0  0  0  0  0  0  0  0
   33.0826   18.6211   26.3715 H   0  0  0  0  0  0  0  0  0  0  0  0
 13 14  2  0
 14 15  1  0
  1 15  1  0
  1  2  1  0
  2  3  1  0
  3 23  1  0
 23 24  1  0
  3  4  1  0
  4  5  1  0
  4  6  1  0
  6  7  1  0
  6  8  1  0
  8  9  1  0
 14 17  1  0
 17 18  2  0
 18 19  1  0
 19 20  2  0
 20 21  1  0
 21 22  2  0
  8  1  1  0
 22 17  1  0
 15 16  1  0
 24 25  1  0
  5 10  1  0
  7 11  1  0
  9 12  1  0
M  END
> <minimizedAffinity>
-10.18558

> <CNNscore>
0.8311331272

> <CNNaffinity>
3.9072315693

> <CNN_VS>
3.2474296093

> <CNNaffinity_variance>
0.6198738217

$$$$



 25 26  0  0  0  0  0  0  0  0999 V2000
   42.9072   30.2193   19.4497 C   0  0  0  0  0  0  0  0  0  0  0  0
   42.2381   30.6073   18.2554 O   0  0  0  0  0  0  0  0  0  0  0  0
   42.9638   31.5908   17.4976 C   0  0  0  0  0  0  0  0  0  0  0  0
   44.2847   30.9813   17.0190 C   0  0  0  0  0  0  0  0  0  0  0  0
   45.0544   31.9198   16.2648 O   0  0  0  0  0  0  0  0  0  0  0  0
   45.0931   30.5348   18.2352 C   0  0  0  0  0  0  0  0  0  0  0  0
   46.2958   29.8871   17.7847 O   0  0  0  0  0  0  0  0  0  0  0  0
   44.2925   29.5946   19.1406 C   0  0  0  0  0  0  0  0  0  0  0  0
   45.1139   29.3659   20.2966 O   0  0  0  0  0  0  0  0  0  0  0  0
   45.2692   32.6840   16.8222 H   0  0  0  0  0  0  0  0  0  0  0  0
   46.0646   29.1049   17.2596 H   0  0  0  0  0  0  0  0  0  0  0  0
   45.3222   30.2143   20.7182 H   0  0  0  0  0  0  0  0  0  0  0  0
   42.0828   27.7357   18.3831 O   0  0  0  0  0  0  0  0  0  0  0  0
   41.6920   28.0651   19.4983 C   0  0  0  0  0  0  0  0  0  0  0  0
   41.9757   29.2915   20.0433 N   0  0  0  0  0  0  0  0  0  0  0  0
   41.5226   29.5505   20.8781 H   0  0  0  0  0  0  0  0  0  0  0  0
   40.8910   27.1266   20.3318 C   0  0  0  0  0  0  0  0  0  0  0  0
   40.2226   27.5429   21.4907 C   0  0  0  0  0  0  0  0  0  0  0  0
   39.4808   26.6241   22.2375 C   0  0  0  0  0  0  0  0  0  0  0  0
   39.3979   25.2933   21.8279 C   0  0  0  0  0  0  0  0  0  0  0  0
   40.0492   24.8772   20.6676 C   0  0  0  0  0  0  0  0  0  0  0  0
   40.7908   25.7920   19.9179 C   0  0  0  0  0  0  0  0  0  0  0  0
   42.0960   32.0346   16.3133 C   0  0  0  0  0  0  0  0  0  0  0  0
   40.7342   32.1620   16.7313 O   0  0  0  0  0  0  0  0  0  0  0  0
   40.4147   31.3062   17.0574 H   0  0  0  0  0  0  0  0  0  0  0  0
 13 14  2  0
 14 15  1  0
  1 15  1  0
  1  2  1  0
  2  3  1  0
  3 23  1  0
 23 24  1  0
  3  4  1  0
  4  5  1  0
  4  6  1  0
  6  7  1  0
  6  8  1  0
  8  9  1  0
 14 17  1  0
 17 18  2  0
 18 19  1  0
 19 20  2  0
 20 21  1  0
 21 22  2  0
  8  1  1  0
 22 17  1  0
 15 16  1  0
 24 25  1  0
  5 10  1  0
  7 11  1  0
  9 12  1  0
M  END
> <minimizedAffinity>
12.21547

> <CNNscore>
0.4630887806

> <CNNaffinity>
4.2172207832

> <CNN_VS>
1.9529476166

> <CNNaffinity_variance>
0.2109062523

$$$$



 25 26  0  0  0  0  0  0  0  0999 V2000
   34.2712   23.9016   27.2865 C   0  0  0  0  0  0  0  0  0  0  0  0
   33.3432   24.8656   27.7702 O   0  0  0  0  0  0  0  0  0  0  0  0
   32.0963   24.8558   27.0538 C   0  0  0  0  0  0  0  0  0  0  0  0
   31.4022   23.5084   27.2728 C   0  0  0  0  0  0  0  0  0  0  0  0
   30.1573   23.4383   26.5747 O   0  0  0  0  0  0  0  0  0  0  0  0
   32.3182   22.3929   26.7744 C   0  0  0  0  0  0  0  0  0  0  0  0
   31.7038   21.1230   27.0555 O   0  0  0  0  0  0  0  0  0  0  0  0
   33.7067   22.4631   27.4162 C   0  0  0  0  0  0  0  0  0  0  0  0
   34.4939   21.4535   26.7647 O   0  0  0  0  0  0  0  0  0  0  0  0
   30.3146   23.5355   25.6225 H   0  0  0  0  0  0  0  0  0  0  0  0
   31.5865   21.0256   28.0134 H   0  0  0  0  0  0  0  0  0  0  0  0
   34.5074   21.6205   25.8092 H   0  0  0  0  0  0  0  0  0  0  0  0
   34.2842   24.6454   30.0126 O   0  0  0  0  0  0  0  0  0  0  0  0
   35.3512   24.4196   29.4510 C   0  0  0  0  0  0  0  0  0  0  0  0
   35.4309   24.1424   28.1099 N   0  0  0  0  0  0  0  0  0  0  0  0
   36.3206   24.1062   27.6900 H   0  0  0  0  0  0  0  0  0  0  0  0
   36.6288   24.4210   30.2156 C   0  0  0  0  0  0  0  0  0  0  0  0
   37.3117   25.6048   30.5250 C   0  0  0  0  0  0  0  0  0  0  0  0
   38.5061   25.5536   31.2481 C   0  0  0  0  0  0  0  0  0  0  0  0
   39.0175   24.3262   31.6694 C   0  0  0  0  0  0  0  0  0  0  0  0
   38.3344   23.1467   31.3767 C   0  0  0  0  0  0  0  0  0  0  0  0
   37.1402   23.1931   30.6552 C   0  0  0  0  0  0  0  0  0  0  0  0
   31.2304   26.0154   27.5619 C   0  0  0  0  0  0  0  0  0  0  0  0
   31.0665   25.9130   28.9790 O   0  0  0  0  0  0  0  0  0  0  0  0
   30.6322   25.0728   29.1944 H   0  0  0  0  0  0  0  0  0  0  0  0
 13 14  2  0
 14 15  1  0
  1 15  1  0
  1  2  1  0
  2  3  1  0
  3 23  1  0
 23 24  1  0
  3  4  1  0
  4  5  1  0
  4  6  1  0
  6  7  1  0
  6  8  1  0
  8  9  1  0
 14 17  1  0
 17 18  2  0
 18 19  1  0
 19 20  2  0
 20 21  1  0
 21 22  2  0
  8  1  1  0
 22 17  1  0
 15 16  1  0
 24 25  1  0
  5 10  1  0
  7 11  1  0
  9 12  1  0
M  END
> <minimizedAffinity>
-8.29183

> <CNNscore>
0.4126703739

> <CNNaffinity>
4.1583743095

> <CNN_VS>
1.7160378695

> <CNNaffinity_variance>
0.3579365313

$$$$



 25 26  0  0  0  0  0  0  0  0999 V2000
   36.0752   24.6292   29.7811 C   0  0  0  0  0  0  0  0  0  0  0  0
   37.1866   23.9388   30.3403 O   0  0  0  0  0  0  0  0  0  0  0  0
   37.8920   24.7126   31.3261 C   0  0  0  0  0  0  0  0  0  0  0  0
   36.9639   24.9765   32.5153 C   0  0  0  0  0  0  0  0  0  0  0  0
   37.6115   25.7515   33.5262 O   0  0  0  0  0  0  0  0  0  0  0  0
   35.7299   25.7290   32.0225 C   0  0  0  0  0  0  0  0  0  0  0  0
   34.8192   25.9041   33.1221 O   0  0  0  0  0  0  0  0  0  0  0  0
   35.0351   24.9967   30.8710 C   0  0  0  0  0  0  0  0  0  0  0  0
   33.9868   25.8706   30.4232 O   0  0  0  0  0  0  0  0  0  0  0  0
   37.8690   26.6116   33.1589 H   0  0  0  0  0  0  0  0  0  0  0  0
   34.5429   25.0358   33.4545 H   0  0  0  0  0  0  0  0  0  0  0  0
   34.3672   26.7226   30.1579 H   0  0  0  0  0  0  0  0  0  0  0  0
   33.5724   23.3178   29.8145 O   0  0  0  0  0  0  0  0  0  0  0  0
   34.3162   23.1586   28.8521 C   0  0  0  0  0  0  0  0  0  0  0  0
   35.5806   23.6886   28.8057 N   0  0  0  0  0  0  0  0  0  0  0  0
   36.1781   23.4142   28.0729 H   0  0  0  0  0  0  0  0  0  0  0  0
   33.8670   22.3827   27.6634 C   0  0  0  0  0  0  0  0  0  0  0  0
   33.6281   22.9894   26.4232 C   0  0  0  0  0  0  0  0  0  0  0  0
   33.2107   22.2168   25.3365 C   0  0  0  0  0  0  0  0  0  0  0  0
   33.0378   20.8403   25.4811 C   0  0  0  0  0  0  0  0  0  0  0  0
   33.2883   20.2296   26.7091 C   0  0  0  0  0  0  0  0  0  0  0  0
   33.7062   20.9975   27.7975 C   0  0  0  0  0  0  0  0  0  0  0  0
   39.1404   23.9334   31.7586 C   0  0  0  0  0  0  0  0  0  0  0  0
   40.0468   24.8079   32.4362 O   0  0  0  0  0  0  0  0  0  0  0  0
   40.3102   25.5260   31.8396 H   0  0  0  0  0  0  0  0  0  0  0  0
 13 14  2  0
 14 15  1  0
  1 15  1  0
  1  2  1  0
  2  3  1  0
  3 23  1  0
 23 24  1  0
  3  4  1  0
  4  5  1  0
  4  6  1  0
  6  7  1  0
  6  8  1  0
  8  9  1  0
 14 17  1  0
 17 18  2  0
 18 19  1  0
 19 20  2  0
 20 21  1  0
 21 22  2  0
  8  1  1  0
 22 17  1  0
 15 16  1  0
 24 25  1  0
  5 10  1  0
  7 11  1  0
  9 12  1  0
M  END
> <minimizedAffinity>
-8.48157

> <CNNscore>
0.4001207352

> <CNNaffinity>
3.9056084156

> <CNN_VS>
1.5627149343

> <CNNaffinity_variance>
0.4143615663

$$$$



 25 26  0  0  0  0  0  0  0  0999 V2000
   33.6508   22.2434   27.1937 C   0  0  0  0  0  0  0  0  0  0  0  0
   32.6640   23.2583   27.3374 O   0  0  0  0  0  0  0  0  0  0  0  0
   31.5481   23.0887   26.4464 C   0  0  0  0  0  0  0  0  0  0  0  0
   30.8184   21.7889   26.7976 C   0  0  0  0  0  0  0  0  0  0  0  0
   29.7010   21.5635   25.9358 O   0  0  0  0  0  0  0  0  0  0  0  0
   31.7946   20.6221   26.6657 C   0  0  0  0  0  0  0  0  0  0  0  0
   31.1343   19.4116   27.0754 O   0  0  0  0  0  0  0  0  0  0  0  0
   33.0628   20.8405   27.4956 C   0  0  0  0  0  0  0  0  0  0  0  0
   33.9372   19.7468   27.1753 O   0  0  0  0  0  0  0  0  0  0  0  0
   30.0096   21.4879   25.0193 H   0  0  0  0  0  0  0  0  0  0  0  0
   30.8643   19.4889   28.0038 H   0  0  0  0  0  0  0  0  0  0  0  0
   34.1047   19.7360   26.2199 H   0  0  0  0  0  0  0  0  0  0  0  0
   33.6008   24.5463   28.8305 O   0  0  0  0  0  0  0  0  0  0  0  0
   34.5251   23.7488   28.9513 C   0  0  0  0  0  0  0  0  0  0  0  0
   34.6652   22.6576   28.1320 N   0  0  0  0  0  0  0  0  0  0  0  0
   35.4964   22.1329   28.1869 H   0  0  0  0  0  0  0  0  0  0  0  0
   35.5459   23.9235   30.0210 C   0  0  0  0  0  0  0  0  0  0  0  0
   36.8967   23.6088   29.8216 C   0  0  0  0  0  0  0  0  0  0  0  0
   37.8171   23.7936   30.8564 C   0  0  0  0  0  0  0  0  0  0  0  0
   37.3957   24.2978   32.0867 C   0  0  0  0  0  0  0  0  0  0  0  0
   36.0554   24.6262   32.2854 C   0  0  0  0  0  0  0  0  0  0  0  0
   35.1324   24.4439   31.2541 C   0  0  0  0  0  0  0  0  0  0  0  0
   30.6200   24.3018   26.5876 C   0  0  0  0  0  0  0  0  0  0  0  0
   29.9989   24.5856   25.3310 O   0  0  0  0  0  0  0  0  0  0  0  0
   30.6813   24.7816   24.6700 H   0  0  0  0  0  0  0  0  0  0  0  0
 13 14  2  0
 14 15  1  0
  1 15  1  0
  1  2  1  0
  2  3  1  0
  3 23  1  0
 23 24  1  0
  3  4  1  0
  4  5  1  0
  4  6  1  0
  6  7  1  0
  6  8  1  0
  8  9  1  0
 14 17  1  0
 17 18  2  0
 18 19  1  0
 19 20  2  0
 20 21  1  0
 21 22  2  0
  8  1  1  0
 22 17  1  0
 15 16  1  0
 24 25  1  0
  5 10  1  0
  7 11  1  0
  9 12  1  0
M  END
> <minimizedAffinity>
-8.92759

> <CNNscore>
0.3967436552

> <CNNaffinity>
3.6931927204

> <CNN_VS>
1.4652507305

> <CNNaffinity_variance>
0.6072408557

$$$$



 25 26  0  0  0  0  0  0  0  0999 V2000
   33.3167   23.3832   28.9499 C   0  0  0  0  0  0  0  0  0  0  0  0
   33.6715   22.2934   28.1067 O   0  0  0  0  0  0  0  0  0  0  0  0
   32.6168   21.9113   27.2069 C   0  0  0  0  0  0  0  0  0  0  0  0
   32.3350   23.0681   26.2438 C   0  0  0  0  0  0  0  0  0  0  0  0
   31.2859   22.7468   25.3283 O   0  0  0  0  0  0  0  0  0  0  0  0
   31.9324   24.2990   27.0531 C   0  0  0  0  0  0  0  0  0  0  0  0
   31.7485   25.4084   26.1562 O   0  0  0  0  0  0  0  0  0  0  0  0
   32.9738   24.6477   28.1202 C   0  0  0  0  0  0  0  0  0  0  0  0
   32.4103   25.7261   28.8837 O   0  0  0  0  0  0  0  0  0  0  0  0
   30.4693   22.5703   25.8212 H   0  0  0  0  0  0  0  0  0  0  0  0
   32.5828   25.5956   25.6981 H   0  0  0  0  0  0  0  0  0  0  0  0
   31.5601   25.4473   29.2584 H   0  0  0  0  0  0  0  0  0  0  0  0
   35.8803   24.2206   28.1059 O   0  0  0  0  0  0  0  0  0  0  0  0
   35.6790   24.0286   29.3006 C   0  0  0  0  0  0  0  0  0  0  0  0
   34.4900   23.5357   29.7751 N   0  0  0  0  0  0  0  0  0  0  0  0
   34.4350   23.2738   30.7225 H   0  0  0  0  0  0  0  0  0  0  0  0
   36.7287   24.3418   30.3091 C   0  0  0  0  0  0  0  0  0  0  0  0
   37.6913   23.4018   30.7004 C   0  0  0  0  0  0  0  0  0  0  0  0
   38.6582   23.7455   31.6487 C   0  0  0  0  0  0  0  0  0  0  0  0
   38.6721   25.0256   32.2024 C   0  0  0  0  0  0  0  0  0  0  0  0
   37.7254   25.9691   31.8056 C   0  0  0  0  0  0  0  0  0  0  0  0
   36.7580   25.6304   30.8579 C   0  0  0  0  0  0  0  0  0  0  0  0
   33.0528   20.6514   26.4484 C   0  0  0  0  0  0  0  0  0  0  0  0
   34.4406   20.3994   26.6847 O   0  0  0  0  0  0  0  0  0  0  0  0
   34.9638   21.1551   26.3745 H   0  0  0  0  0  0  0  0  0  0  0  0
 13 14  2  0
 14 15  1  0
  1 15  1  0
  1  2  1  0
  2  3  1  0
  3 23  1  0
 23 24  1  0
  3  4  1  0
  4  5  1  0
  4  6  1  0
  6  7  1  0
  6  8  1  0
  8  9  1  0
 14 17  1  0
 17 18  2  0
 18 19  1  0
 19 20  2  0
 20 21  1  0
 21 22  2  0
  8  1  1  0
 22 17  1  0
 15 16  1  0
 24 25  1  0
  5 10  1  0
  7 11  1  0
  9 12  1  0
M  END
> <minimizedAffinity>
-8.91639

> <CNNscore>
0.3682128191

> <CNNaffinity>
3.8496541977

> <CNN_VS>
1.4174920321

> <CNNaffinity_variance>
0.8532713056

$$$$



 25 26  0  0  0  0  0  0  0  0999 V2000
   32.8093   23.4366   28.8141 C   0  0  0  0  0  0  0  0  0  0  0  0
   33.6417   22.5185   28.1150 O   0  0  0  0  0  0  0  0  0  0  0  0
   32.9195   21.7127   27.1677 C   0  0  0  0  0  0  0  0  0  0  0  0
   32.3419   22.6180   26.0759 C   0  0  0  0  0  0  0  0  0  0  0  0
   31.6041   21.8695   25.1077 O   0  0  0  0  0  0  0  0  0  0  0  0
   31.4169   23.6461   26.7236 C   0  0  0  0  0  0  0  0  0  0  0  0
   30.9393   24.5487   25.7105 O   0  0  0  0  0  0  0  0  0  0  0  0
   32.1195   24.4255   27.8387 C   0  0  0  0  0  0  0  0  0  0  0  0
   31.1087   25.2490   28.4417 O   0  0  0  0  0  0  0  0  0  0  0  0
   30.8604   21.4232   25.5422 H   0  0  0  0  0  0  0  0  0  0  0  0
   31.6912   25.0136   25.3111 H   0  0  0  0  0  0  0  0  0  0  0  0
   30.3862   24.6888   28.7659 H   0  0  0  0  0  0  0  0  0  0  0  0
   32.1914   24.6374   31.2964 O   0  0  0  0  0  0  0  0  0  0  0  0
   33.3649   24.5581   30.9480 C   0  0  0  0  0  0  0  0  0  0  0  0
   33.7351   24.0715   29.7200 N   0  0  0  0  0  0  0  0  0  0  0  0
   34.6760   24.1598   29.4442 H   0  0  0  0  0  0  0  0  0  0  0  0
   34.4606   24.9792   31.8639 C   0  0  0  0  0  0  0  0  0  0  0  0
   34.3220   24.9456   33.2578 C   0  0  0  0  0  0  0  0  0  0  0  0
   35.3814   25.3483   34.0750 C   0  0  0  0  0  0  0  0  0  0  0  0
   36.5805   25.7775   33.5063 C   0  0  0  0  0  0  0  0  0  0  0  0
   36.7285   25.7990   32.1202 C   0  0  0  0  0  0  0  0  0  0  0  0
   35.6731   25.3968   31.2999 C   0  0  0  0  0  0  0  0  0  0  0  0
   33.8801   20.6734   26.5762 C   0  0  0  0  0  0  0  0  0  0  0  0
   33.4244   19.3557   26.8948 O   0  0  0  0  0  0  0  0  0  0  0  0
   33.3930   19.2486   27.8584 H   0  0  0  0  0  0  0  0  0  0  0  0
 13 14  2  0
 14 15  1  0
  1 15  1  0
  1  2  1  0
  2  3  1  0
  3 23  1  0
 23 24  1  0
  3  4  1  0
  4  5  1  0
  4  6  1  0
  6  7  1  0
  6  8  1  0
  8  9  1  0
 14 17  1  0
 17 18  2  0
 18 19  1  0
 19 20  2  0
 20 21  1  0
 21 22  2  0
  8  1  1  0
 22 17  1  0
 15 16  1  0
 24 25  1  0
  5 10  1  0
  7 11  1  0
  9 12  1  0
M  END
> <minimizedAffinity>
-8.69258

> <CNNscore>
0.3468047380

> <CNNaffinity>
3.6693630219

> <CNN_VS>
1.2725524902

> <CNNaffinity_variance>
0.7659481168

$$$$



 25 26  0  0  0  0  0  0  0  0999 V2000
   33.9504   24.2081   29.4282 C   0  0  0  0  0  0  0  0  0  0  0  0
   34.5413   24.4211   28.1515 O   0  0  0  0  0  0  0  0  0  0  0  0
   33.6851   24.0334   27.0631 C   0  0  0  0  0  0  0  0  0  0  0  0
   32.4383   24.9225   27.0641 C   0  0  0  0  0  0  0  0  0  0  0  0
   31.5440   24.5757   26.0048 O   0  0  0  0  0  0  0  0  0  0  0  0
   31.7166   24.7615   28.4002 C   0  0  0  0  0  0  0  0  0  0  0  0
   30.5922   25.6580   28.4351 O   0  0  0  0  0  0  0  0  0  0  0  0
   32.6451   25.0300   29.5879 C   0  0  0  0  0  0  0  0  0  0  0  0
   31.8828   24.7144   30.7638 O   0  0  0  0  0  0  0  0  0  0  0  0
   31.2498   23.6582   26.1174 H   0  0  0  0  0  0  0  0  0  0  0  0
   30.9056   26.5727   28.3581 H   0  0  0  0  0  0  0  0  0  0  0  0
   31.5819   23.7935   30.7165 H   0  0  0  0  0  0  0  0  0  0  0  0
   36.3551   22.8203   29.9543 O   0  0  0  0  0  0  0  0  0  0  0  0
   36.1773   23.9207   30.4665 C   0  0  0  0  0  0  0  0  0  0  0  0
   35.0005   24.6123   30.3309 N   0  0  0  0  0  0  0  0  0  0  0  0
   34.8663   25.4220   30.8746 H   0  0  0  0  0  0  0  0  0  0  0  0
   37.2549   24.5738   31.2597 C   0  0  0  0  0  0  0  0  0  0  0  0
   37.0311   25.7397   32.0040 C   0  0  0  0  0  0  0  0  0  0  0  0
   38.0748   26.3130   32.7349 C   0  0  0  0  0  0  0  0  0  0  0  0
   39.3387   25.7231   32.7313 C   0  0  0  0  0  0  0  0  0  0  0  0
   39.5628   24.5549   32.0041 C   0  0  0  0  0  0  0  0  0  0  0  0
   38.5228   23.9782   31.2730 C   0  0  0  0  0  0  0  0  0  0  0  0
   34.4668   24.1749   25.7509 C   0  0  0  0  0  0  0  0  0  0  0  0
   34.1025   23.1222   24.8540 O   0  0  0  0  0  0  0  0  0  0  0  0
   34.3116   22.2658   25.2586 H   0  0  0  0  0  0  0  0  0  0  0  0
 13 14  2  0
 14 15  1  0
  1 15  1  0
  1  2  1  0
  2  3  1  0
  3 23  1  0
 23 24  1  0
  3  4  1  0
  4  5  1  0
  4  6  1  0
  6  7  1  0
  6  8  1  0
  8  9  1  0
 14 17  1  0
 17 18  2  0
 18 19  1  0
 19 20  2  0
 20 21  1  0
 21 22  2  0
  8  1  1  0
 22 17  1  0
 15 16  1  0
 24 25  1  0
  5 10  1  0
  7 11  1  0
  9 12  1  0
M  END
> <minimizedAffinity>
-8.48393

> <CNNscore>
0.2652343512

> <CNNaffinity>
3.4054286480

> <CNN_VS>
0.9032366872

> <CNNaffinity_variance>
1.2536280155

$$$$



 25 26  0  0  0  0  0  0  0  0999 V2000
   31.2202   23.6829   26.2301 C   0  0  0  0  0  0  0  0  0  0  0  0
   31.0394   22.3709   26.7502 O   0  0  0  0  0  0  0  0  0  0  0  0
   32.2788   21.6712   26.9563 C   0  0  0  0  0  0  0  0  0  0  0  0
   33.0953   22.4012   28.0266 C   0  0  0  0  0  0  0  0  0  0  0  0
   34.3457   21.7528   28.2677 O   0  0  0  0  0  0  0  0  0  0  0  0
   33.3560   23.8317   27.5603 C   0  0  0  0  0  0  0  0  0  0  0  0
   34.0504   24.5430   28.6000 O   0  0  0  0  0  0  0  0  0  0  0  0
   32.0592   24.5598   27.1955 C   0  0  0  0  0  0  0  0  0  0  0  0
   32.4583   25.8285   26.6528 O   0  0  0  0  0  0  0  0  0  0  0  0
   34.8701   21.7480   27.4516 H   0  0  0  0  0  0  0  0  0  0  0  0
   33.4983   24.5706   29.3971 H   0  0  0  0  0  0  0  0  0  0  0  0
   33.0415   25.6852   25.8910 H   0  0  0  0  0  0  0  0  0  0  0  0
   28.9025   22.0790   26.0278 O   0  0  0  0  0  0  0  0  0  0  0  0
   28.7824   23.2995   26.0580 C   0  0  0  0  0  0  0  0  0  0  0  0
   29.8635   24.1438   26.0642 N   0  0  0  0  0  0  0  0  0  0  0  0
   29.7061   25.1089   25.9501 H   0  0  0  0  0  0  0  0  0  0  0  0
   27.4346   23.9305   26.1058 C   0  0  0  0  0  0  0  0  0  0  0  0
   26.9717   24.7788   25.0913 C   0  0  0  0  0  0  0  0  0  0  0  0
   25.6972   25.3442   25.1808 C   0  0  0  0  0  0  0  0  0  0  0  0
   24.8805   25.0604   26.2754 C   0  0  0  0  0  0  0  0  0  0  0  0
   25.3308   24.2054   27.2803 C   0  0  0  0  0  0  0  0  0  0  0  0
   26.6032   23.6376   27.1946 C   0  0  0  0  0  0  0  0  0  0  0  0
   31.9635   20.2323   27.3840 C   0  0  0  0  0  0  0  0  0  0  0  0
   33.0933   19.3929   27.1306 O   0  0  0  0  0  0  0  0  0  0  0  0
   33.2995   19.4056   26.1828 H   0  0  0  0  0  0  0  0  0  0  0  0
 13 14  2  0
 14 15  1  0
  1 15  1  0
  1  2  1  0
  2  3  1  0
  3 23  1  0
 23 24  1  0
  3  4  1  0
  4  5  1  0
  4  6  1  0
  6  7  1  0
  6  8  1  0
  8  9  1  0
 14 17  1  0
 17 18  2  0
 18 19  1  0
 19 20  2  0
 20 21  1  0
 21 22  2  0
  8  1  1  0
 22 17  1  0
 15 16  1  0
 24 25  1  0
  5 10  1  0
  7 11  1  0
  9 12  1  0
M  END
> <minimizedAffinity>
-8.61296

> <CNNscore>
0.2546441555

> <CNNaffinity>
3.5509929657

> <CNN_VS>
0.9042395949

> <CNNaffinity_variance>
0.1032493487

$$$$
