


 33 36  0  0  0  0  0  0  0  0999 V2000
   18.3275   18.3426   14.5745 C   0  0  0  0  0  0  0  0  0  0  0  0
   17.1812   17.7594   14.3329 N   0  0  0  0  0  0  0  0  0  0  0  0
   16.7818   17.2040   15.5274 C   0  0  0  0  0  0  0  0  0  0  0  0
   15.6225   16.4606   15.8187 C   0  0  0  0  0  0  0  0  0  0  0  0
   15.4698   15.9717   17.1419 C   0  0  0  0  0  0  0  0  0  0  0  0
   14.3237   15.1971   17.4123 N   0  0  0  0  0  0  0  0  0  0  0  0
   14.1425   14.7184   18.5943 C   0  0  0  0  0  0  0  0  0  0  0  0
   13.0503   13.9699   18.8767 N   0  0  0  0  0  0  0  0  0  0  0  0
   15.0235   14.9252   19.6025 N   0  0  0  0  0  0  0  0  0  0  0  0
   16.1543   15.6924   19.4851 C   0  0  0  0  0  0  0  0  0  0  0  0
   16.8557   15.8808   20.4708 O   0  0  0  0  0  0  0  0  0  0  0  0
   16.4347   16.2502   18.1357 C   0  0  0  0  0  0  0  0  0  0  0  0
   17.5821   17.0101   17.8406 C   0  0  0  0  0  0  0  0  0  0  0  0
   18.9647   17.4561   19.0585 Br  0  0  0  0  0  0  0  0  0  0  0  0
   17.7132   17.4582   16.5224 C   0  0  0  0  0  0  0  0  0  0  0  0
   18.6797   18.2025   15.8880 N   0  0  0  0  0  0  0  0  0  0  0  0
   12.3813   13.7917   18.1768 H   0  0  0  0  0  0  0  0  0  0  0  0
   12.9252   13.6037   19.7820 H   0  0  0  0  0  0  0  0  0  0  0  0
   14.8412   14.4993   20.4712 H   0  0  0  0  0  0  0  0  0  0  0  0
   19.4892   18.5722   16.3089 H   0  0  0  0  0  0  0  0  0  0  0  0
   19.8001   18.3564   12.6413 C   0  0  0  0  0  0  0  0  0  0  0  0
   19.0734   19.0382   13.6929 N   0  0  0  0  0  0  0  0  0  0  0  0
   19.1248   20.0187   13.7645 H   0  0  0  0  0  0  0  0  0  0  0  0
   14.5970   16.1632   14.7447 C   0  0  0  0  0  0  0  0  0  0  0  0
   13.4002   15.3930   15.3193 C   0  0  0  0  0  0  0  0  0  0  0  0
   12.1009   16.0499   15.1093 N   0  0  0  0  0  0  0  0  0  0  0  0
   11.4492   15.3697   14.7181 H   0  0  0  0  0  0  0  0  0  0  0  0
   11.5368   16.5809   16.3527 C   0  0  0  0  0  0  0  0  0  0  0  0
   10.3837   15.6978   16.8387 C   0  0  0  0  0  0  0  0  0  0  0  0
   10.2795   15.6563   18.3627 C   0  0  0  0  0  0  0  0  0  0  0  0
    9.4236   14.4269   18.6504 C   0  0  0  0  0  0  0  0  0  0  0  0
    9.5639   13.5152   17.4313 C   0  0  0  0  0  0  0  0  0  0  0  0
   10.5331   14.2181   16.4868 C   0  0  0  0  0  0  0  0  0  0  0  0
 21 22  1  0
 22  1  1  0
  1  2  2  0
  2  3  1  0
  3  4  2  0
  4 24  1  0
 24 25  1  0
 25 26  1  0
 26 28  1  0
 28 29  1  0
 29 30  1  0
 30 31  1  0
 31 32  1  0
 32 33  1  0
  4  5  1  0
  5  6  1  0
  6  7  2  0
  7  8  1  0
  7  9  1  0
  9 10  1  0
 10 11  2  0
 10 12  1  0
 12 13  1  0
 13 14  1  0
 13 15  2  0
 15 16  1  0
 16  1  1  0
 15  3  1  0
 33 29  1  0
 12  5  2  0
 22 23  1  0
 26 27  1  0
  8 17  1  0
  8 18  1  0
  9 19  1  0
 16 20  1  0
M  END
> <minimizedAffinity>
-8.23773

> <CNNscore>
0.2021983415

> <CNNaffinity>
6.1157245636

> <CNN_VS>
1.2365893126

> <CNNaffinity_variance>
0.5810618997

$$$$



 33 36  0  0  0  0  0  0  0  0999 V2000
   18.7741   16.9448   18.4925 C   0  0  0  0  0  0  0  0  0  0  0  0
   17.5432   16.6167   18.7927 N   0  0  0  0  0  0  0  0  0  0  0  0
   16.8066   16.8317   17.6499 C   0  0  0  0  0  0  0  0  0  0  0  0
   15.4290   16.6423   17.4315 C   0  0  0  0  0  0  0  0  0  0  0  0
   14.9139   16.9760   16.1521 C   0  0  0  0  0  0  0  0  0  0  0  0
   13.5270   16.8179   15.9568 N   0  0  0  0  0  0  0  0  0  0  0  0
   13.0056   17.1181   14.8178 C   0  0  0  0  0  0  0  0  0  0  0  0
   11.6757   16.9763   14.6078 N   0  0  0  0  0  0  0  0  0  0  0  0
   13.7438   17.5932   13.7859 N   0  0  0  0  0  0  0  0  0  0  0  0
   15.1051   17.7546   13.8296 C   0  0  0  0  0  0  0  0  0  0  0  0
   15.6973   18.1243   12.8237 O   0  0  0  0  0  0  0  0  0  0  0  0
   15.7631   17.4518   15.1280 C   0  0  0  0  0  0  0  0  0  0  0  0
   17.1428   17.6207   15.3492 C   0  0  0  0  0  0  0  0  0  0  0  0
   18.4027   18.2566   14.0835 Br  0  0  0  0  0  0  0  0  0  0  0  0
   17.6146   17.3036   16.6269 C   0  0  0  0  0  0  0  0  0  0  0  0
   18.8682   17.3481   17.1896 N   0  0  0  0  0  0  0  0  0  0  0  0
   11.0974   16.6347   15.3276 H   0  0  0  0  0  0  0  0  0  0  0  0
   11.2870   17.2149   13.7353 H   0  0  0  0  0  0  0  0  0  0  0  0
   13.2751   17.8371   12.9552 H   0  0  0  0  0  0  0  0  0  0  0  0
   19.6948   17.6240   16.7314 H   0  0  0  0  0  0  0  0  0  0  0  0
   19.6797   16.5717   20.7166 C   0  0  0  0  0  0  0  0  0  0  0  0
   19.8446   16.8683   19.3082 N   0  0  0  0  0  0  0  0  0  0  0  0
   20.7471   17.0155   18.9433 H   0  0  0  0  0  0  0  0  0  0  0  0
   14.5266   16.1369   18.5377 C   0  0  0  0  0  0  0  0  0  0  0  0
   14.5332   14.6035   18.6013 C   0  0  0  0  0  0  0  0  0  0  0  0
   13.1967   13.9961   18.6955 N   0  0  0  0  0  0  0  0  0  0  0  0
   12.6990   14.4192   19.4789 H   0  0  0  0  0  0  0  0  0  0  0  0
   12.4082   14.1912   17.4764 C   0  0  0  0  0  0  0  0  0  0  0  0
   11.0283   14.7625   17.8159 C   0  0  0  0  0  0  0  0  0  0  0  0
   11.0870   15.8210   18.9166 C   0  0  0  0  0  0  0  0  0  0  0  0
    9.6504   15.9255   19.4184 C   0  0  0  0  0  0  0  0  0  0  0  0
    8.9769   14.6002   19.0618 C   0  0  0  0  0  0  0  0  0  0  0  0
   10.0523   13.7433   18.4024 C   0  0  0  0  0  0  0  0  0  0  0  0
 21 22  1  0
 22  1  1  0
  1  2  2  0
  2  3  1  0
  3  4  2  0
  4 24  1  0
 24 25  1  0
 25 26  1  0
 26 28  1  0
 28 29  1  0
 29 30  1  0
 30 31  1  0
 31 32  1  0
 32 33  1  0
  4  5  1  0
  5  6  1  0
  6  7  2  0
  7  8  1  0
  7  9  1  0
  9 10  1  0
 10 11  2  0
 10 12  1  0
 12 13  1  0
 13 14  1  0
 13 15  2  0
 15 16  1  0
 16  1  1  0
 15  3  1  0
 33 29  1  0
 12  5  2  0
 22 23  1  0
 26 27  1  0
  8 17  1  0
  8 18  1  0
  9 19  1  0
 16 20  1  0
M  END
> <minimizedAffinity>
-7.87220

> <CNNscore>
0.1692598462

> <CNNaffinity>
5.5913567543

> <CNN_VS>
0.9463921785

> <CNNaffinity_variance>
1.4413080215

$$$$



 33 36  0  0  0  0  0  0  0  0999 V2000
   12.2634   15.8003   18.0152 C   0  0  0  0  0  0  0  0  0  0  0  0
   12.6044   16.1129   16.7910 N   0  0  0  0  0  0  0  0  0  0  0  0
   13.9516   16.3924   16.8348 C   0  0  0  0  0  0  0  0  0  0  0  0
   14.8123   16.7857   15.7928 C   0  0  0  0  0  0  0  0  0  0  0  0
   16.1681   17.0445   16.1218 C   0  0  0  0  0  0  0  0  0  0  0  0
   17.0118   17.4739   15.0776 N   0  0  0  0  0  0  0  0  0  0  0  0
   18.2489   17.7345   15.3243 C   0  0  0  0  0  0  0  0  0  0  0  0
   19.0774   18.1503   14.3377 N   0  0  0  0  0  0  0  0  0  0  0  0
   18.7802   17.6183   16.5651 N   0  0  0  0  0  0  0  0  0  0  0  0
   18.0815   17.1723   17.6578 C   0  0  0  0  0  0  0  0  0  0  0  0
   18.6641   17.0330   18.7257 O   0  0  0  0  0  0  0  0  0  0  0  0
   16.6391   16.8818   17.4439 C   0  0  0  0  0  0  0  0  0  0  0  0
   15.7758   16.4702   18.4765 C   0  0  0  0  0  0  0  0  0  0  0  0
   16.2550   16.2190   20.2933 Br  0  0  0  0  0  0  0  0  0  0  0  0
   14.4416   16.2446   18.1233 C   0  0  0  0  0  0  0  0  0  0  0  0
   13.3443   15.8485   18.8509 N   0  0  0  0  0  0  0  0  0  0  0  0
   18.7378   18.2502   13.4191 H   0  0  0  0  0  0  0  0  0  0  0  0
   20.0197   18.3529   14.5389 H   0  0  0  0  0  0  0  0  0  0  0  0
   19.7240   17.8690   16.6899 H   0  0  0  0  0  0  0  0  0  0  0  0
   13.3380   15.6353   19.8120 H   0  0  0  0  0  0  0  0  0  0  0  0
   10.0054   15.0781   17.4804 C   0  0  0  0  0  0  0  0  0  0  0  0
   11.0371   15.4296   18.4348 N   0  0  0  0  0  0  0  0  0  0  0  0
   10.8407   15.3975   19.3990 H   0  0  0  0  0  0  0  0  0  0  0  0
   14.2959   16.9624   14.3801 C   0  0  0  0  0  0  0  0  0  0  0  0
   13.7941   18.3942   14.1485 C   0  0  0  0  0  0  0  0  0  0  0  0
   12.5071   18.6960   14.7936 N   0  0  0  0  0  0  0  0  0  0  0  0
   12.5917   18.5154   15.7940 H   0  0  0  0  0  0  0  0  0  0  0  0
   12.0991   20.0896   14.5999 C   0  0  0  0  0  0  0  0  0  0  0  0
   12.6571   20.9725   15.7201 C   0  0  0  0  0  0  0  0  0  0  0  0
   11.5960   21.8898   16.3267 C   0  0  0  0  0  0  0  0  0  0  0  0
   12.3963   22.9637   17.0566 C   0  0  0  0  0  0  0  0  0  0  0  0
   13.7726   22.9952   16.3918 C   0  0  0  0  0  0  0  0  0  0  0  0
   13.7209   21.9703   15.2638 C   0  0  0  0  0  0  0  0  0  0  0  0
 21 22  1  0
 22  1  1  0
  1  2  2  0
  2  3  1  0
  3  4  2  0
  4 24  1  0
 24 25  1  0
 25 26  1  0
 26 28  1  0
 28 29  1  0
 29 30  1  0
 30 31  1  0
 31 32  1  0
 32 33  1  0
  4  5  1  0
  5  6  1  0
  6  7  2  0
  7  8  1  0
  7  9  1  0
  9 10  1  0
 10 11  2  0
 10 12  1  0
 12 13  1  0
 13 14  1  0
 13 15  2  0
 15 16  1  0
 16  1  1  0
 15  3  1  0
 33 29  1  0
 12  5  2  0
 22 23  1  0
 26 27  1  0
  8 17  1  0
  8 18  1  0
  9 19  1  0
 16 20  1  0
M  END
> <minimizedAffinity>
-8.03616

> <CNNscore>
0.1248150691

> <CNNaffinity>
5.0063757896

> <CNN_VS>
0.6248711348

> <CNNaffinity_variance>
1.4379868507

$$$$



 33 36  0  0  0  0  0  0  0  0999 V2000
   18.6324   18.2430   12.8744 C   0  0  0  0  0  0  0  0  0  0  0  0
   19.0697   19.4565   12.6533 N   0  0  0  0  0  0  0  0  0  0  0  0
   20.3701   19.3161   12.2242 C   0  0  0  0  0  0  0  0  0  0  0  0
   21.2973   20.3095   11.8569 C   0  0  0  0  0  0  0  0  0  0  0  0
   22.5981   19.8875   11.4787 C   0  0  0  0  0  0  0  0  0  0  0  0
   23.5292   20.8931   11.1492 N   0  0  0  0  0  0  0  0  0  0  0  0
   24.7280   20.5654   10.8108 C   0  0  0  0  0  0  0  0  0  0  0  0
   25.6399   21.5140   10.4923 N   0  0  0  0  0  0  0  0  0  0  0  0
   25.1405   19.2758   10.7639 N   0  0  0  0  0  0  0  0  0  0  0  0
   24.3260   18.2022   11.0194 C   0  0  0  0  0  0  0  0  0  0  0  0
   24.7686   17.0686   10.8839 O   0  0  0  0  0  0  0  0  0  0  0  0
   22.9361   18.5161   11.4438 C   0  0  0  0  0  0  0  0  0  0  0  0
   21.9972   17.5280   11.7948 C   0  0  0  0  0  0  0  0  0  0  0  0
   22.3031   15.6572   11.8078 Br  0  0  0  0  0  0  0  0  0  0  0  0
   20.7316   17.9782   12.1837 C   0  0  0  0  0  0  0  0  0  0  0  0
   19.5958   17.3166   12.5869 N   0  0  0  0  0  0  0  0  0  0  0  0
   25.3877   22.4654   10.5118 H   0  0  0  0  0  0  0  0  0  0  0  0
   26.5552   21.2524   10.2412 H   0  0  0  0  0  0  0  0  0  0  0  0
   26.0809   19.0987   10.5326 H   0  0  0  0  0  0  0  0  0  0  0  0
   19.4935   16.3399   12.6569 H   0  0  0  0  0  0  0  0  0  0  0  0
   17.1143   17.6956   14.6915 C   0  0  0  0  0  0  0  0  0  0  0  0
   17.3950   17.9003   13.2850 N   0  0  0  0  0  0  0  0  0  0  0  0
   16.6751   17.7882   12.6228 H   0  0  0  0  0  0  0  0  0  0  0  0
   20.9264   21.7771   11.9030 C   0  0  0  0  0  0  0  0  0  0  0  0
   20.7763   22.2656   13.3503 C   0  0  0  0  0  0  0  0  0  0  0  0
   19.5804   23.0879   13.5902 N   0  0  0  0  0  0  0  0  0  0  0  0
   18.7891   22.4703   13.7716 H   0  0  0  0  0  0  0  0  0  0  0  0
   19.7442   23.9908   14.7321 C   0  0  0  0  0  0  0  0  0  0  0  0
   18.8712   23.5356   15.9053 C   0  0  0  0  0  0  0  0  0  0  0  0
   17.4489   24.0892   15.8267 C   0  0  0  0  0  0  0  0  0  0  0  0
   16.9000   23.9250   17.2403 C   0  0  0  0  0  0  0  0  0  0  0  0
   18.1157   23.8653   18.1653 C   0  0  0  0  0  0  0  0  0  0  0  0
   19.3375   24.0415   17.2699 C   0  0  0  0  0  0  0  0  0  0  0  0
 21 22  1  0
 22  1  1  0
  1  2  2  0
  2  3  1  0
  3  4  2  0
  4 24  1  0
 24 25  1  0
 25 26  1  0
 26 28  1  0
 28 29  1  0
 29 30  1  0
 30 31  1  0
 31 32  1  0
 32 33  1  0
  4  5  1  0
  5  6  1  0
  6  7  2  0
  7  8  1  0
  7  9  1  0
  9 10  1  0
 10 11  2  0
 10 12  1  0
 12 13  1  0
 13 14  1  0
 13 15  2  0
 15 16  1  0
 16  1  1  0
 15  3  1  0
 33 29  1  0
 12  5  2  0
 22 23  1  0
 26 27  1  0
  8 17  1  0
  8 18  1  0
  9 19  1  0
 16 20  1  0
M  END
> <minimizedAffinity>
-6.05911

> <CNNscore>
0.1165031642

> <CNNaffinity>
5.2609920502

> <CNN_VS>
0.6129221916

> <CNNaffinity_variance>
0.0804399252

$$$$



 33 36  0  0  0  0  0  0  0  0999 V2000
   18.5175   18.1335   14.3670 C   0  0  0  0  0  0  0  0  0  0  0  0
   17.3073   17.7318   14.0724 N   0  0  0  0  0  0  0  0  0  0  0  0
   16.7630   17.2784   15.2527 C   0  0  0  0  0  0  0  0  0  0  0  0
   15.4867   16.7351   15.4922 C   0  0  0  0  0  0  0  0  0  0  0  0
   15.1894   16.3119   16.8136 C   0  0  0  0  0  0  0  0  0  0  0  0
   13.9224   15.7350   17.0336 N   0  0  0  0  0  0  0  0  0  0  0  0
   13.6060   15.3226   18.2121 C   0  0  0  0  0  0  0  0  0  0  0  0
   12.3956   14.7633   18.4466 N   0  0  0  0  0  0  0  0  0  0  0  0
   14.4548   15.4149   19.2640 N   0  0  0  0  0  0  0  0  0  0  0  0
   15.6976   15.9910   19.1959 C   0  0  0  0  0  0  0  0  0  0  0  0
   16.3676   16.0928   20.2157 O   0  0  0  0  0  0  0  0  0  0  0  0
   16.1331   16.4614   17.8544 C   0  0  0  0  0  0  0  0  0  0  0  0
   17.4004   17.0229   17.6100 C   0  0  0  0  0  0  0  0  0  0  0  0
   18.7707   17.2779   18.8949 Br  0  0  0  0  0  0  0  0  0  0  0  0
   17.6697   17.4093   16.2933 C   0  0  0  0  0  0  0  0  0  0  0  0
   18.7738   17.9748   15.7005 N   0  0  0  0  0  0  0  0  0  0  0  0
   11.7443   14.6741   17.7138 H   0  0  0  0  0  0  0  0  0  0  0  0
   12.1668   14.4458   19.3500 H   0  0  0  0  0  0  0  0  0  0  0  0
   14.1621   15.0465   20.1287 H   0  0  0  0  0  0  0  0  0  0  0  0
   19.6087   18.2235   16.1591 H   0  0  0  0  0  0  0  0  0  0  0  0
   19.1397   19.9527   12.8806 C   0  0  0  0  0  0  0  0  0  0  0  0
   19.4094   18.6790   13.5160 N   0  0  0  0  0  0  0  0  0  0  0  0
   20.2520   18.2072   13.3244 H   0  0  0  0  0  0  0  0  0  0  0  0
   14.4846   16.5743   14.3683 C   0  0  0  0  0  0  0  0  0  0  0  0
   14.0855   17.9356   13.7826 C   0  0  0  0  0  0  0  0  0  0  0  0
   12.6421   18.2154   13.8311 N   0  0  0  0  0  0  0  0  0  0  0  0
   12.3142   18.0810   14.7876 H   0  0  0  0  0  0  0  0  0  0  0  0
   12.3246   19.5829   13.4126 C   0  0  0  0  0  0  0  0  0  0  0  0
   11.6345   20.3447   14.5480 C   0  0  0  0  0  0  0  0  0  0  0  0
   10.9399   21.6166   14.0629 C   0  0  0  0  0  0  0  0  0  0  0  0
   10.7259   22.4380   15.3302 C   0  0  0  0  0  0  0  0  0  0  0  0
   11.7669   21.9478   16.3367 C   0  0  0  0  0  0  0  0  0  0  0  0
   12.5878   20.8859   15.6129 C   0  0  0  0  0  0  0  0  0  0  0  0
 21 22  1  0
 22  1  1  0
  1  2  2  0
  2  3  1  0
  3  4  2  0
  4 24  1  0
 24 25  1  0
 25 26  1  0
 26 28  1  0
 28 29  1  0
 29 30  1  0
 30 31  1  0
 31 32  1  0
 32 33  1  0
  4  5  1  0
  5  6  1  0
  6  7  2  0
  7  8  1  0
  7  9  1  0
  9 10  1  0
 10 11  2  0
 10 12  1  0
 12 13  1  0
 13 14  1  0
 13 15  2  0
 15 16  1  0
 16  1  1  0
 15  3  1  0
 33 29  1  0
 12  5  2  0
 22 23  1  0
 26 27  1  0
  8 17  1  0
  8 18  1  0
  9 19  1  0
 16 20  1  0
M  END
> <minimizedAffinity>
-7.34061

> <CNNscore>
0.1131028906

> <CNNaffinity>
4.7526159286

> <CNN_VS>
0.5375345945

> <CNNaffinity_variance>
1.4310541153

$$$$



 33 36  0  0  0  0  0  0  0  0999 V2000
   12.5531   15.1688   17.8473 C   0  0  0  0  0  0  0  0  0  0  0  0
   12.9350   15.4435   16.6261 N   0  0  0  0  0  0  0  0  0  0  0  0
   14.2292   15.9009   16.7300 C   0  0  0  0  0  0  0  0  0  0  0  0
   15.1025   16.3360   15.7153 C   0  0  0  0  0  0  0  0  0  0  0  0
   16.3881   16.7927   16.1052 C   0  0  0  0  0  0  0  0  0  0  0  0
   17.2401   17.2610   15.0847 N   0  0  0  0  0  0  0  0  0  0  0  0
   18.4137   17.6985   15.3853 C   0  0  0  0  0  0  0  0  0  0  0  0
   19.2485   18.1552   14.4223 N   0  0  0  0  0  0  0  0  0  0  0  0
   18.8686   17.7346   16.6610 N   0  0  0  0  0  0  0  0  0  0  0  0
   18.1588   17.2721   17.7396 C   0  0  0  0  0  0  0  0  0  0  0  0
   18.6794   17.2808   18.8479 O   0  0  0  0  0  0  0  0  0  0  0  0
   16.7836   16.7801   17.4615 C   0  0  0  0  0  0  0  0  0  0  0  0
   15.9107   16.3259   18.4679 C   0  0  0  0  0  0  0  0  0  0  0  0
   16.2916   16.2590   20.3238 Br  0  0  0  0  0  0  0  0  0  0  0  0
   14.6439   15.9034   18.0529 C   0  0  0  0  0  0  0  0  0  0  0  0
   13.5587   15.4138   18.7405 N   0  0  0  0  0  0  0  0  0  0  0  0
   18.9631   18.1493   13.4801 H   0  0  0  0  0  0  0  0  0  0  0  0
   20.1410   18.4932   14.6642 H   0  0  0  0  0  0  0  0  0  0  0  0
   19.7617   18.1155   16.8234 H   0  0  0  0  0  0  0  0  0  0  0  0
   13.5133   15.2646   19.7126 H   0  0  0  0  0  0  0  0  0  0  0  0
   10.1366   15.1295   17.5918 C   0  0  0  0  0  0  0  0  0  0  0  0
   11.3581   14.6673   18.2187 N   0  0  0  0  0  0  0  0  0  0  0  0
   11.3152   13.9803   18.9226 H   0  0  0  0  0  0  0  0  0  0  0  0
   14.6665   16.3505   14.2651 C   0  0  0  0  0  0  0  0  0  0  0  0
   15.3795   17.4622   13.4832 C   0  0  0  0  0  0  0  0  0  0  0  0
   16.2150   16.9804   12.3725 N   0  0  0  0  0  0  0  0  0  0  0  0
   15.6300   16.4457   11.7304 H   0  0  0  0  0  0  0  0  0  0  0  0
   16.8458   18.0763   11.6327 C   0  0  0  0  0  0  0  0  0  0  0  0
   17.7190   17.5266   10.5009 C   0  0  0  0  0  0  0  0  0  0  0  0
   19.1345   17.1863   10.9654 C   0  0  0  0  0  0  0  0  0  0  0  0
   19.9466   17.1048    9.6768 C   0  0  0  0  0  0  0  0  0  0  0  0
   19.1903   17.9393    8.6430 C   0  0  0  0  0  0  0  0  0  0  0  0
   17.9825   18.5205    9.3703 C   0  0  0  0  0  0  0  0  0  0  0  0
 21 22  1  0
 22  1  1  0
  1  2  2  0
  2  3  1  0
  3  4  2  0
  4 24  1  0
 24 25  1  0
 25 26  1  0
 26 28  1  0
 28 29  1  0
 29 30  1  0
 30 31  1  0
 31 32  1  0
 32 33  1  0
  4  5  1  0
  5  6  1  0
  6  7  2  0
  7  8  1  0
  7  9  1  0
  9 10  1  0
 10 11  2  0
 10 12  1  0
 12 13  1  0
 13 14  1  0
 13 15  2  0
 15 16  1  0
 16  1  1  0
 15  3  1  0
 33 29  1  0
 12  5  2  0
 22 23  1  0
 26 27  1  0
  8 17  1  0
  8 18  1  0
  9 19  1  0
 16 20  1  0
M  END
> <minimizedAffinity>
-8.02546

> <CNNscore>
0.1024861410

> <CNNaffinity>
4.8588747978

> <CNN_VS>
0.4979673326

> <CNNaffinity_variance>
1.7170814276

$$$$



 33 36  0  0  0  0  0  0  0  0999 V2000
   12.5708   15.1540   17.9808 C   0  0  0  0  0  0  0  0  0  0  0  0
   12.9214   15.4557   16.7566 N   0  0  0  0  0  0  0  0  0  0  0  0
   14.2188   15.9086   16.8370 C   0  0  0  0  0  0  0  0  0  0  0  0
   15.0663   16.3653   15.8100 C   0  0  0  0  0  0  0  0  0  0  0  0
   16.3626   16.8110   16.1765 C   0  0  0  0  0  0  0  0  0  0  0  0
   17.1888   17.3010   15.1450 N   0  0  0  0  0  0  0  0  0  0  0  0
   18.3708   17.7297   15.4247 C   0  0  0  0  0  0  0  0  0  0  0  0
   19.1812   18.2068   14.4509 N   0  0  0  0  0  0  0  0  0  0  0  0
   18.8588   17.7361   16.6886 N   0  0  0  0  0  0  0  0  0  0  0  0
   18.1764   17.2504   17.7746 C   0  0  0  0  0  0  0  0  0  0  0  0
   18.7256   17.2332   18.8688 O   0  0  0  0  0  0  0  0  0  0  0  0
   16.7933   16.7670   17.5214 C   0  0  0  0  0  0  0  0  0  0  0  0
   15.9460   16.2915   18.5397 C   0  0  0  0  0  0  0  0  0  0  0  0
   16.3748   16.1819   20.3830 Br  0  0  0  0  0  0  0  0  0  0  0  0
   14.6679   15.8805   18.1484 C   0  0  0  0  0  0  0  0  0  0  0  0
   13.5998   15.3771   18.8527 N   0  0  0  0  0  0  0  0  0  0  0  0
   18.8714   18.2227   13.5166 H   0  0  0  0  0  0  0  0  0  0  0  0
   20.0804   18.5378   14.6770 H   0  0  0  0  0  0  0  0  0  0  0  0
   19.7567   18.1118   16.8362 H   0  0  0  0  0  0  0  0  0  0  0  0
   13.5794   15.2060   19.8221 H   0  0  0  0  0  0  0  0  0  0  0  0
   10.3138   15.5206   18.8042 C   0  0  0  0  0  0  0  0  0  0  0  0
   11.3848   14.6461   18.3718 N   0  0  0  0  0  0  0  0  0  0  0  0
   11.2452   13.6716   18.3633 H   0  0  0  0  0  0  0  0  0  0  0  0
   14.5928   16.4134   14.3723 C   0  0  0  0  0  0  0  0  0  0  0  0
   13.4795   17.4541   14.1901 C   0  0  0  0  0  0  0  0  0  0  0  0
   13.8025   18.5243   13.2340 N   0  0  0  0  0  0  0  0  0  0  0  0
   12.9371   18.9866   12.9550 H   0  0  0  0  0  0  0  0  0  0  0  0
   14.7088   19.5252   13.8022 C   0  0  0  0  0  0  0  0  0  0  0  0
   15.7133   19.9993   12.7477 C   0  0  0  0  0  0  0  0  0  0  0  0
   16.4794   18.8428   12.1066 C   0  0  0  0  0  0  0  0  0  0  0  0
   17.6938   19.5040   11.4626 C   0  0  0  0  0  0  0  0  0  0  0  0
   17.9106   20.8188   12.2119 C   0  0  0  0  0  0  0  0  0  0  0  0
   16.8441   20.8658   13.3008 C   0  0  0  0  0  0  0  0  0  0  0  0
 21 22  1  0
 22  1  1  0
  1  2  2  0
  2  3  1  0
  3  4  2  0
  4 24  1  0
 24 25  1  0
 25 26  1  0
 26 28  1  0
 28 29  1  0
 29 30  1  0
 30 31  1  0
 31 32  1  0
 32 33  1  0
  4  5  1  0
  5  6  1  0
  6  7  2  0
  7  8  1  0
  7  9  1  0
  9 10  1  0
 10 11  2  0
 10 12  1  0
 12 13  1  0
 13 14  1  0
 13 15  2  0
 15 16  1  0
 16  1  1  0
 15  3  1  0
 33 29  1  0
 12  5  2  0
 22 23  1  0
 26 27  1  0
  8 17  1  0
  8 18  1  0
  9 19  1  0
 16 20  1  0
M  END
> <minimizedAffinity>
-7.38089

> <CNNscore>
0.1018527001

> <CNNaffinity>
4.5228819847

> <CNN_VS>
0.4606677294

> <CNNaffinity_variance>
1.9273132086

$$$$



 33 36  0  0  0  0  0  0  0  0999 V2000
   12.5865   18.2759   13.5248 C   0  0  0  0  0  0  0  0  0  0  0  0
   13.8551   18.4965   13.2911 N   0  0  0  0  0  0  0  0  0  0  0  0
   14.5286   18.0314   14.3979 C   0  0  0  0  0  0  0  0  0  0  0  0
   15.9111   18.0318   14.6625 C   0  0  0  0  0  0  0  0  0  0  0  0
   16.3419   17.5140   15.9114 C   0  0  0  0  0  0  0  0  0  0  0  0
   17.7248   17.5540   16.1809 N   0  0  0  0  0  0  0  0  0  0  0  0
   18.1681   17.1081   17.3050 C   0  0  0  0  0  0  0  0  0  0  0  0
   19.4919   17.1382   17.5866 N   0  0  0  0  0  0  0  0  0  0  0  0
   17.3484   16.6007   18.2570 N   0  0  0  0  0  0  0  0  0  0  0  0
   15.9919   16.4662   18.1060 C   0  0  0  0  0  0  0  0  0  0  0  0
   15.3403   15.9312   18.9940 O   0  0  0  0  0  0  0  0  0  0  0  0
   15.4148   16.9896   16.8397 C   0  0  0  0  0  0  0  0  0  0  0  0
   14.0355   16.9760   16.5593 C   0  0  0  0  0  0  0  0  0  0  0  0
   12.6742   16.3189   17.7033 Br  0  0  0  0  0  0  0  0  0  0  0  0
   13.6422   17.5135   15.3297 C   0  0  0  0  0  0  0  0  0  0  0  0
   12.4115   17.6671   14.7362 N   0  0  0  0  0  0  0  0  0  0  0  0
   20.1276   17.4979   16.9264 H   0  0  0  0  0  0  0  0  0  0  0  0
   19.8190   16.8006   18.4517 H   0  0  0  0  0  0  0  0  0  0  0  0
   17.7505   16.3113   19.1077 H   0  0  0  0  0  0  0  0  0  0  0  0
   11.5493   17.3859   15.1193 H   0  0  0  0  0  0  0  0  0  0  0  0
   10.5183   19.4765   13.0920 C   0  0  0  0  0  0  0  0  0  0  0  0
   11.5600   18.5511   12.6954 N   0  0  0  0  0  0  0  0  0  0  0  0
   11.5179   18.1191   11.8117 H   0  0  0  0  0  0  0  0  0  0  0  0
   16.8959   18.6013   13.6629 C   0  0  0  0  0  0  0  0  0  0  0  0
   16.9138   20.1352   13.7147 C   0  0  0  0  0  0  0  0  0  0  0  0
   18.2481   20.7178   13.9242 N   0  0  0  0  0  0  0  0  0  0  0  0
   18.9518   20.0302   13.6552 H   0  0  0  0  0  0  0  0  0  0  0  0
   18.4549   21.9357   13.1367 C   0  0  0  0  0  0  0  0  0  0  0  0
   19.7546   21.8398   12.3321 C   0  0  0  0  0  0  0  0  0  0  0  0
   20.5089   20.5362   12.5906 C   0  0  0  0  0  0  0  0  0  0  0  0
   21.9245   20.8131   12.0944 C   0  0  0  0  0  0  0  0  0  0  0  0
   22.1013   22.3311   12.1357 C   0  0  0  0  0  0  0  0  0  0  0  0
   20.7997   22.8933   12.6973 C   0  0  0  0  0  0  0  0  0  0  0  0
 21 22  1  0
 22  1  1  0
  1  2  2  0
  2  3  1  0
  3  4  2  0
  4 24  1  0
 24 25  1  0
 25 26  1  0
 26 28  1  0
 28 29  1  0
 29 30  1  0
 30 31  1  0
 31 32  1  0
 32 33  1  0
  4  5  1  0
  5  6  1  0
  6  7  2  0
  7  8  1  0
  7  9  1  0
  9 10  1  0
 10 11  2  0
 10 12  1  0
 12 13  1  0
 13 14  1  0
 13 15  2  0
 15 16  1  0
 16  1  1  0
 15  3  1  0
 33 29  1  0
 12  5  2  0
 22 23  1  0
 26 27  1  0
  8 17  1  0
  8 18  1  0
  9 19  1  0
 16 20  1  0
M  END
> <minimizedAffinity>
-5.89286

> <CNNscore>
0.1016230956

> <CNNaffinity>
5.1194071770

> <CNN_VS>
0.5202500224

> <CNNaffinity_variance>
0.3696395457

$$$$



 33 36  0  0  0  0  0  0  0  0999 V2000
   15.9129   16.4395   17.5523 C   0  0  0  0  0  0  0  0  0  0  0  0
   15.8358   17.1256   16.4405 N   0  0  0  0  0  0  0  0  0  0  0  0
   14.5096   17.0988   16.0725 C   0  0  0  0  0  0  0  0  0  0  0  0
   13.8862   17.6781   14.9512 C   0  0  0  0  0  0  0  0  0  0  0  0
   12.4920   17.4679   14.7920 C   0  0  0  0  0  0  0  0  0  0  0  0
   11.8857   18.0210   13.6461 N   0  0  0  0  0  0  0  0  0  0  0  0
   10.6248   17.8495   13.4467 C   0  0  0  0  0  0  0  0  0  0  0  0
   10.0213   18.3695   12.3521 N   0  0  0  0  0  0  0  0  0  0  0  0
    9.8458   17.1434   14.3011 N   0  0  0  0  0  0  0  0  0  0  0  0
   10.3000   16.5896   15.4708 C   0  0  0  0  0  0  0  0  0  0  0  0
    9.5069   16.0281   16.2157 O   0  0  0  0  0  0  0  0  0  0  0  0
   11.7548   16.7288   15.7441 C   0  0  0  0  0  0  0  0  0  0  0  0
   12.3827   16.1685   16.8724 C   0  0  0  0  0  0  0  0  0  0  0  0
   11.5340   15.1473   18.2253 Br  0  0  0  0  0  0  0  0  0  0  0  0
   13.7609   16.3755   16.9882 C   0  0  0  0  0  0  0  0  0  0  0  0
   14.6814   15.9826   17.9309 N   0  0  0  0  0  0  0  0  0  0  0  0
   10.5456   18.8905   11.7018 H   0  0  0  0  0  0  0  0  0  0  0  0
    9.0581   18.2268   12.2065 H   0  0  0  0  0  0  0  0  0  0  0  0
    8.8971   17.0204   14.0685 H   0  0  0  0  0  0  0  0  0  0  0  0
   14.4863   15.4601   18.7422 H   0  0  0  0  0  0  0  0  0  0  0  0
   18.1903   17.0685   18.1219 C   0  0  0  0  0  0  0  0  0  0  0  0
   17.0240   16.2247   18.2850 N   0  0  0  0  0  0  0  0  0  0  0  0
   17.0430   15.4874   18.9370 H   0  0  0  0  0  0  0  0  0  0  0  0
   14.6867   18.4639   13.9338 C   0  0  0  0  0  0  0  0  0  0  0  0
   14.2457   19.9336   13.8970 C   0  0  0  0  0  0  0  0  0  0  0  0
   13.7326   20.3788   12.5923 N   0  0  0  0  0  0  0  0  0  0  0  0
   12.7860   20.0183   12.4722 H   0  0  0  0  0  0  0  0  0  0  0  0
   13.6987   21.8386   12.4748 C   0  0  0  0  0  0  0  0  0  0  0  0
   14.8397   22.3313   11.5797 C   0  0  0  0  0  0  0  0  0  0  0  0
   15.9121   23.0893   12.3613 C   0  0  0  0  0  0  0  0  0  0  0  0
   16.6805   23.8642   11.2956 C   0  0  0  0  0  0  0  0  0  0  0  0
   15.7292   24.0137   10.1083 C   0  0  0  0  0  0  0  0  0  0  0  0
   14.4178   23.3610   10.5323 C   0  0  0  0  0  0  0  0  0  0  0  0
 21 22  1  0
 22  1  1  0
  1  2  2  0
  2  3  1  0
  3  4  2  0
  4 24  1  0
 24 25  1  0
 25 26  1  0
 26 28  1  0
 28 29  1  0
 29 30  1  0
 30 31  1  0
 31 32  1  0
 32 33  1  0
  4  5  1  0
  5  6  1  0
  6  7  2  0
  7  8  1  0
  7  9  1  0
  9 10  1  0
 10 11  2  0
 10 12  1  0
 12 13  1  0
 13 14  1  0
 13 15  2  0
 15 16  1  0
 16  1  1  0
 15  3  1  0
 33 29  1  0
 12  5  2  0
 22 23  1  0
 26 27  1  0
  8 17  1  0
  8 18  1  0
  9 19  1  0
 16 20  1  0
M  END
> <minimizedAffinity>
-5.95023

> <CNNscore>
0.0934635699

> <CNNaffinity>
5.1857242584

> <CNN_VS>
0.4846763015

> <CNNaffinity_variance>
0.3134063780

$$$$
