


 32 35  0  0  0  0  0  0  0  0999 V2000
   23.8194    6.7379   16.6074 C   0  0  0  0  0  0  0  0  0  0  0  0
   21.6035    4.7213   11.3579 C   0  0  0  0  0  0  0  0  0  0  0  0
   22.9734    4.6838   10.9954 C   0  0  0  0  0  0  0  0  0  0  0  0
   23.9705    5.0543   11.9067 C   0  0  0  0  0  0  0  0  0  0  0  0
   23.5600    5.4506   13.1640 C   0  0  0  0  0  0  0  0  0  0  0  0
   22.2245    5.4876   13.5211 C   0  0  0  0  0  0  0  0  0  0  0  0
   21.2186    5.1319   12.6436 C   0  0  0  0  0  0  0  0  0  0  0  0
   22.1534    5.9614   14.9016 C   0  0  0  0  0  0  0  0  0  0  0  0
   21.1166    6.1625   15.5031 O   0  0  0  0  0  0  0  0  0  0  0  0
   23.4431    6.1382   15.3236 N   0  0  0  0  0  0  0  0  0  0  0  0
   24.3379    5.8983   14.3176 C   0  0  0  0  0  0  0  0  0  0  0  0
   25.5473    6.0187   14.3199 O   0  0  0  0  0  0  0  0  0  0  0  0
   20.5981    4.4254    9.1936 O   0  0  0  0  0  0  0  0  0  0  0  0
   20.5343    4.3346   10.4047 C   0  0  0  0  0  0  0  0  0  0  0  0
   19.4396    3.8549   11.0179 O   0  0  0  0  0  0  0  0  0  0  0  0
   19.4146    3.7948   11.9526 H   0  0  0  0  0  0  0  0  0  0  0  0
   24.8352    5.8444   17.3294 C   0  0  0  0  0  0  0  0  0  0  0  0
   25.8682    6.2133   17.8681 O   0  0  0  0  0  0  0  0  0  0  0  0
   24.4965    4.5372   17.3954 O   0  0  0  0  0  0  0  0  0  0  0  0
   23.7081    4.2364   16.9882 H   0  0  0  0  0  0  0  0  0  0  0  0
   24.3588    8.1705   16.4506 C   0  0  0  0  0  0  0  0  0  0  0  0
   23.4747    9.0438   15.5746 C   0  0  0  0  0  0  0  0  0  0  0  0
   23.8239    9.1789   14.2198 C   0  0  0  0  0  0  0  0  0  0  0  0
   23.0671    9.9704   13.3637 C   0  0  0  0  0  0  0  0  0  0  0  0
   21.9487   10.6413   13.8473 C   0  0  0  0  0  0  0  0  0  0  0  0
   21.5711   10.5335   15.1929 C   0  0  0  0  0  0  0  0  0  0  0  0
   20.4401   11.2246   15.6573 C   0  0  0  0  0  0  0  0  0  0  0  0
   20.0511   11.1328   16.9902 C   0  0  0  0  0  0  0  0  0  0  0  0
   18.6628   11.9877   17.5395 Cl  0  0  0  0  0  0  0  0  0  0  0  0
   20.7784   10.3540   17.8786 C   0  0  0  0  0  0  0  0  0  0  0  0
   21.9049    9.6598   17.4286 C   0  0  0  0  0  0  0  0  0  0  0  0
   22.3328    9.7291   16.0814 C   0  0  0  0  0  0  0  0  0  0  0  0
 13 14  2  0
 14 15  1  0
 14  2  1  0
  2  3  2  0
  3  4  1  0
  4  5  2  0
  5  6  1  0
  6  7  2  0
  6  8  1  0
  8  9  2  0
  8 10  1  0
 10  1  1  0
  1 21  1  0
 21 22  1  0
 22 23  2  0
 23 24  1  0
 24 25  2  0
 25 26  1  0
 26 27  2  0
 27 28  1  0
 28 29  1  0
 28 30  2  0
 30 31  1  0
 31 32  2  0
  1 17  1  0
 17 18  2  0
 17 19  1  0
 10 11  1  0
 11 12  2  0
  7  2  1  0
 32 22  1  0
 11  5  1  0
 32 26  1  0
 15 16  1  0
 19 20  1  0
M  END
> <minimizedAffinity>
-8.37677

> <CNNscore>
0.8194779158

> <CNNaffinity>
4.9169125557

> <CNN_VS>
4.0293011665

> <CNNaffinity_variance>
0.1618036181

$$$$



 32 35  0  0  0  0  0  0  0  0999 V2000
   23.4977    6.1999   13.9744 C   0  0  0  0  0  0  0  0  0  0  0  0
   19.9999    4.0785    9.5248 C   0  0  0  0  0  0  0  0  0  0  0  0
   21.1162    4.4217    8.7212 C   0  0  0  0  0  0  0  0  0  0  0  0
   22.2738    4.9671    9.2908 C   0  0  0  0  0  0  0  0  0  0  0  0
   22.2775    5.1497   10.6594 C   0  0  0  0  0  0  0  0  0  0  0  0
   21.1905    4.8153   11.4463 C   0  0  0  0  0  0  0  0  0  0  0  0
   20.0341    4.2793   10.9134 C   0  0  0  0  0  0  0  0  0  0  0  0
   21.5301    5.1505   12.8274 C   0  0  0  0  0  0  0  0  0  0  0  0
   20.7681    5.0328   13.7669 O   0  0  0  0  0  0  0  0  0  0  0  0
   22.8151    5.6211   12.8133 N   0  0  0  0  0  0  0  0  0  0  0  0
   23.3087    5.6950   11.5400 C   0  0  0  0  0  0  0  0  0  0  0  0
   24.3793    6.1218   11.1544 O   0  0  0  0  0  0  0  0  0  0  0  0
   17.9221    2.8683    9.5433 O   0  0  0  0  0  0  0  0  0  0  0  0
   18.7652    3.5021    8.9380 C   0  0  0  0  0  0  0  0  0  0  0  0
   18.6506    3.7485    7.6225 O   0  0  0  0  0  0  0  0  0  0  0  0
   19.3137    4.2394    7.1782 H   0  0  0  0  0  0  0  0  0  0  0  0
   24.7125    5.3441   14.3529 C   0  0  0  0  0  0  0  0  0  0  0  0
   25.7763    5.2935   13.7535 O   0  0  0  0  0  0  0  0  0  0  0  0
   24.5705    4.6270   15.4902 O   0  0  0  0  0  0  0  0  0  0  0  0
   23.7619    4.6538   15.9630 H   0  0  0  0  0  0  0  0  0  0  0  0
   23.9060    7.6657   13.7450 C   0  0  0  0  0  0  0  0  0  0  0  0
   22.8764    8.6559   14.2657 C   0  0  0  0  0  0  0  0  0  0  0  0
   22.7298    9.8719   13.5762 C   0  0  0  0  0  0  0  0  0  0  0  0
   21.8155   10.8280   14.0028 C   0  0  0  0  0  0  0  0  0  0  0  0
   21.0325   10.5855   15.1267 C   0  0  0  0  0  0  0  0  0  0  0  0
   21.1528    9.3861   15.8420 C   0  0  0  0  0  0  0  0  0  0  0  0
   20.3538    9.1673   16.9761 C   0  0  0  0  0  0  0  0  0  0  0  0
   20.4608    7.9845   17.7012 C   0  0  0  0  0  0  0  0  0  0  0  0
   19.4733    7.7361   19.0880 Cl  0  0  0  0  0  0  0  0  0  0  0  0
   21.3609    7.0038   17.3102 C   0  0  0  0  0  0  0  0  0  0  0  0
   22.1606    7.2085   16.1823 C   0  0  0  0  0  0  0  0  0  0  0  0
   22.0818    8.3982   15.4200 C   0  0  0  0  0  0  0  0  0  0  0  0
 13 14  2  0
 14 15  1  0
 14  2  1  0
  2  3  2  0
  3  4  1  0
  4  5  2  0
  5  6  1  0
  6  7  2  0
  6  8  1  0
  8  9  2  0
  8 10  1  0
 10  1  1  0
  1 21  1  0
 21 22  1  0
 22 23  2  0
 23 24  1  0
 24 25  2  0
 25 26  1  0
 26 27  2  0
 27 28  1  0
 28 29  1  0
 28 30  2  0
 30 31  1  0
 31 32  2  0
  1 17  1  0
 17 18  2  0
 17 19  1  0
 10 11  1  0
 11 12  2  0
  7  2  1  0
 32 22  1  0
 11  5  1  0
 32 26  1  0
 15 16  1  0
 19 20  1  0
M  END
> <minimizedAffinity>
-7.87384

> <CNNscore>
0.7002646923

> <CNNaffinity>
5.0791931152

> <CNN_VS>
3.5567796230

> <CNNaffinity_variance>
0.1124671996

$$$$



 32 35  0  0  0  0  0  0  0  0999 V2000
   23.4646    6.3544   13.8051 C   0  0  0  0  0  0  0  0  0  0  0  0
   19.8854    3.9567    9.5654 C   0  0  0  0  0  0  0  0  0  0  0  0
   20.9845    4.2519    8.7200 C   0  0  0  0  0  0  0  0  0  0  0  0
   22.1514    4.8335    9.2317 C   0  0  0  0  0  0  0  0  0  0  0  0
   22.1818    5.0999   10.5861 C   0  0  0  0  0  0  0  0  0  0  0  0
   21.1118    4.8125   11.4137 C   0  0  0  0  0  0  0  0  0  0  0  0
   19.9467    4.2427   10.9381 C   0  0  0  0  0  0  0  0  0  0  0  0
   21.4778    5.2328   12.7645 C   0  0  0  0  0  0  0  0  0  0  0  0
   20.7350    5.1716   13.7246 O   0  0  0  0  0  0  0  0  0  0  0  0
   22.7608    5.7040   12.6957 N   0  0  0  0  0  0  0  0  0  0  0  0
   23.2287    5.7003   11.4107 C   0  0  0  0  0  0  0  0  0  0  0  0
   24.2900    6.1046   10.9782 O   0  0  0  0  0  0  0  0  0  0  0  0
   18.3093    3.3039    7.8707 O   0  0  0  0  0  0  0  0  0  0  0  0
   18.6411    3.3430    9.0400 C   0  0  0  0  0  0  0  0  0  0  0  0
   17.8756    2.8105   10.0070 O   0  0  0  0  0  0  0  0  0  0  0  0
   18.1529    2.8532   10.9010 H   0  0  0  0  0  0  0  0  0  0  0  0
   24.6464    5.4894   14.2596 C   0  0  0  0  0  0  0  0  0  0  0  0
   25.7129    5.3590   13.6774 O   0  0  0  0  0  0  0  0  0  0  0  0
   24.4704    4.8644   15.4454 O   0  0  0  0  0  0  0  0  0  0  0  0
   23.6592    4.9531   15.9059 H   0  0  0  0  0  0  0  0  0  0  0  0
   23.9275    7.7788   13.4522 C   0  0  0  0  0  0  0  0  0  0  0  0
   23.0033    8.8548   13.9996 C   0  0  0  0  0  0  0  0  0  0  0  0
   23.2699    9.3553   15.2858 C   0  0  0  0  0  0  0  0  0  0  0  0
   22.4599   10.3320   15.8531 C   0  0  0  0  0  0  0  0  0  0  0  0
   21.3687   10.8248   15.1451 C   0  0  0  0  0  0  0  0  0  0  0  0
   21.0693   10.3478   13.8614 C   0  0  0  0  0  0  0  0  0  0  0  0
   19.9592   10.8586   13.1691 C   0  0  0  0  0  0  0  0  0  0  0  0
   19.6438   10.3956   11.8954 C   0  0  0  0  0  0  0  0  0  0  0  0
   18.2793   11.0338   11.0641 Cl  0  0  0  0  0  0  0  0  0  0  0  0
   20.4257    9.4212   11.2922 C   0  0  0  0  0  0  0  0  0  0  0  0
   21.5343    8.9060   11.9699 C   0  0  0  0  0  0  0  0  0  0  0  0
   21.8864    9.3502   13.2665 C   0  0  0  0  0  0  0  0  0  0  0  0
 13 14  2  0
 14 15  1  0
 14  2  1  0
  2  3  2  0
  3  4  1  0
  4  5  2  0
  5  6  1  0
  6  7  2  0
  6  8  1  0
  8  9  2  0
  8 10  1  0
 10  1  1  0
  1 21  1  0
 21 22  1  0
 22 23  2  0
 23 24  1  0
 24 25  2  0
 25 26  1  0
 26 27  2  0
 27 28  1  0
 28 29  1  0
 28 30  2  0
 30 31  1  0
 31 32  2  0
  1 17  1  0
 17 18  2  0
 17 19  1  0
 10 11  1  0
 11 12  2  0
  7  2  1  0
 32 22  1  0
 11  5  1  0
 32 26  1  0
 15 16  1  0
 19 20  1  0
M  END
> <minimizedAffinity>
-7.86114

> <CNNscore>
0.6814067960

> <CNNaffinity>
5.2597575188

> <CNN_VS>
3.5840344429

> <CNNaffinity_variance>
0.0555955209

$$$$



 32 35  0  0  0  0  0  0  0  0999 V2000
   22.4468    6.5511   12.9823 C   0  0  0  0  0  0  0  0  0  0  0  0
   24.2346    6.2669   18.7492 C   0  0  0  0  0  0  0  0  0  0  0  0
   25.4103    6.8658   18.2309 C   0  0  0  0  0  0  0  0  0  0  0  0
   25.5189    7.1815   16.8706 C   0  0  0  0  0  0  0  0  0  0  0  0
   24.4354    6.8880   16.0666 C   0  0  0  0  0  0  0  0  0  0  0  0
   23.2867    6.3045   16.5692 C   0  0  0  0  0  0  0  0  0  0  0  0
   23.1514    5.9782   17.9047 C   0  0  0  0  0  0  0  0  0  0  0  0
   22.3621    6.1248   15.4520 C   0  0  0  0  0  0  0  0  0  0  0  0
   21.2771    5.5845   15.5423 O   0  0  0  0  0  0  0  0  0  0  0  0
   22.9740    6.6506   14.3466 N   0  0  0  0  0  0  0  0  0  0  0  0
   24.2404    7.0815   14.6311 C   0  0  0  0  0  0  0  0  0  0  0  0
   25.0826    7.5387   13.8836 O   0  0  0  0  0  0  0  0  0  0  0  0
   24.8921    5.2591   20.8311 O   0  0  0  0  0  0  0  0  0  0  0  0
   24.1035    5.9237   20.1866 C   0  0  0  0  0  0  0  0  0  0  0  0
   22.9905    6.4301   20.7427 O   0  0  0  0  0  0  0  0  0  0  0  0
   22.3981    6.9392   20.2251 H   0  0  0  0  0  0  0  0  0  0  0  0
   20.9391    6.2740   13.0184 C   0  0  0  0  0  0  0  0  0  0  0  0
   20.0691    7.0531   13.3783 O   0  0  0  0  0  0  0  0  0  0  0  0
   20.5736    5.0572   12.5560 O   0  0  0  0  0  0  0  0  0  0  0  0
   21.2271    4.4469   12.2757 H   0  0  0  0  0  0  0  0  0  0  0  0
   22.7575    7.8009   12.1401 C   0  0  0  0  0  0  0  0  0  0  0  0
   21.6505    8.8418   12.1938 C   0  0  0  0  0  0  0  0  0  0  0  0
   20.7580    8.9055   11.1098 C   0  0  0  0  0  0  0  0  0  0  0  0
   19.7290    9.8397   11.0871 C   0  0  0  0  0  0  0  0  0  0  0  0
   19.5748   10.7271   12.1471 C   0  0  0  0  0  0  0  0  0  0  0  0
   20.4472   10.6959   13.2439 C   0  0  0  0  0  0  0  0  0  0  0  0
   20.2728   11.6057   14.2996 C   0  0  0  0  0  0  0  0  0  0  0  0
   21.1303   11.5927   15.3954 C   0  0  0  0  0  0  0  0  0  0  0  0
   20.9001   12.7159   16.6782 Cl  0  0  0  0  0  0  0  0  0  0  0  0
   22.1706   10.6769   15.4583 C   0  0  0  0  0  0  0  0  0  0  0  0
   22.3537    9.7650   14.4150 C   0  0  0  0  0  0  0  0  0  0  0  0
   21.5038    9.7479   13.2836 C   0  0  0  0  0  0  0  0  0  0  0  0
 13 14  2  0
 14 15  1  0
 14  2  1  0
  2  3  2  0
  3  4  1  0
  4  5  2  0
  5  6  1  0
  6  7  2  0
  6  8  1  0
  8  9  2  0
  8 10  1  0
 10  1  1  0
  1 21  1  0
 21 22  1  0
 22 23  2  0
 23 24  1  0
 24 25  2  0
 25 26  1  0
 26 27  2  0
 27 28  1  0
 28 29  1  0
 28 30  2  0
 30 31  1  0
 31 32  2  0
  1 17  1  0
 17 18  2  0
 17 19  1  0
 10 11  1  0
 11 12  2  0
  7  2  1  0
 32 22  1  0
 11  5  1  0
 32 26  1  0
 15 16  1  0
 19 20  1  0
M  END
> <minimizedAffinity>
-7.35772

> <CNNscore>
0.5091071129

> <CNNaffinity>
4.9222145081

> <CNN_VS>
2.5059344769

> <CNNaffinity_variance>
0.0462892950

$$$$



 32 35  0  0  0  0  0  0  0  0999 V2000
   22.8571    5.9456   13.6819 C   0  0  0  0  0  0  0  0  0  0  0  0
   19.6467    4.2970    8.8333 C   0  0  0  0  0  0  0  0  0  0  0  0
   20.9141    4.3345    8.1994 C   0  0  0  0  0  0  0  0  0  0  0  0
   22.0705    4.6611    8.9190 C   0  0  0  0  0  0  0  0  0  0  0  0
   21.9195    4.9387   10.2631 C   0  0  0  0  0  0  0  0  0  0  0  0
   20.6847    4.9023   10.8847 C   0  0  0  0  0  0  0  0  0  0  0  0
   19.5263    4.5874   10.2011 C   0  0  0  0  0  0  0  0  0  0  0  0
   20.8898    5.2581   12.2871 C   0  0  0  0  0  0  0  0  0  0  0  0
   19.9948    5.3748   13.1010 O   0  0  0  0  0  0  0  0  0  0  0  0
   22.2358    5.4418   12.4534 N   0  0  0  0  0  0  0  0  0  0  0  0
   22.9097    5.3151   11.2702 C   0  0  0  0  0  0  0  0  0  0  0  0
   24.0920    5.4745   11.0384 O   0  0  0  0  0  0  0  0  0  0  0  0
   17.8448    4.6758    7.2866 O   0  0  0  0  0  0  0  0  0  0  0  0
   18.4114    3.9553    8.0859 C   0  0  0  0  0  0  0  0  0  0  0  0
   17.9488    2.7287    8.3791 O   0  0  0  0  0  0  0  0  0  0  0  0
   18.4032    2.1923    8.9985 H   0  0  0  0  0  0  0  0  0  0  0  0
   23.5779    7.2701   13.4037 C   0  0  0  0  0  0  0  0  0  0  0  0
   24.7072    7.5681   13.7632 O   0  0  0  0  0  0  0  0  0  0  0  0
   22.8824    8.1474   12.6456 O   0  0  0  0  0  0  0  0  0  0  0  0
   22.0152    7.9357   12.3608 H   0  0  0  0  0  0  0  0  0  0  0  0
   21.8454    6.0995   14.8312 C   0  0  0  0  0  0  0  0  0  0  0  0
   22.2775    7.1247   15.8675 C   0  0  0  0  0  0  0  0  0  0  0  0
   21.6855    8.3984   15.8155 C   0  0  0  0  0  0  0  0  0  0  0  0
   22.0410    9.3878   16.7247 C   0  0  0  0  0  0  0  0  0  0  0  0
   22.9951    9.1215   17.7012 C   0  0  0  0  0  0  0  0  0  0  0  0
   23.6096    7.8643   17.7824 C   0  0  0  0  0  0  0  0  0  0  0  0
   24.5734    7.6219   18.7749 C   0  0  0  0  0  0  0  0  0  0  0  0
   25.1968    6.3816   18.8698 C   0  0  0  0  0  0  0  0  0  0  0  0
   26.3753    6.1051   20.0925 Cl  0  0  0  0  0  0  0  0  0  0  0  0
   24.8718    5.3661   17.9822 C   0  0  0  0  0  0  0  0  0  0  0  0
   23.9130    5.5938   16.9910 C   0  0  0  0  0  0  0  0  0  0  0  0
   23.2583    6.8417   16.8617 C   0  0  0  0  0  0  0  0  0  0  0  0
 13 14  2  0
 14 15  1  0
 14  2  1  0
  2  3  2  0
  3  4  1  0
  4  5  2  0
  5  6  1  0
  6  7  2  0
  6  8  1  0
  8  9  2  0
  8 10  1  0
 10  1  1  0
  1 21  1  0
 21 22  1  0
 22 23  2  0
 23 24  1  0
 24 25  2  0
 25 26  1  0
 26 27  2  0
 27 28  1  0
 28 29  1  0
 28 30  2  0
 30 31  1  0
 31 32  2  0
  1 17  1  0
 17 18  2  0
 17 19  1  0
 10 11  1  0
 11 12  2  0
  7  2  1  0
 32 22  1  0
 11  5  1  0
 32 26  1  0
 15 16  1  0
 19 20  1  0
M  END
> <minimizedAffinity>
-8.19102

> <CNNscore>
0.4154661298

> <CNNaffinity>
4.7891602516

> <CNN_VS>
1.9897338152

> <CNNaffinity_variance>
0.2929913998

$$$$



 32 35  0  0  0  0  0  0  0  0999 V2000
   19.1865    3.9366    9.4993 C   0  0  0  0  0  0  0  0  0  0  0  0
   16.1821    9.0180   10.7980 C   0  0  0  0  0  0  0  0  0  0  0  0
   16.7882    8.8438   12.0676 C   0  0  0  0  0  0  0  0  0  0  0  0
   17.6491    7.7667   12.3136 C   0  0  0  0  0  0  0  0  0  0  0  0
   17.8801    6.8929   11.2698 C   0  0  0  0  0  0  0  0  0  0  0  0
   17.2911    7.0604   10.0299 C   0  0  0  0  0  0  0  0  0  0  0  0
   16.4351    8.1101    9.7581 C   0  0  0  0  0  0  0  0  0  0  0  0
   17.7396    5.9596    9.1799 C   0  0  0  0  0  0  0  0  0  0  0  0
   17.3607    5.7781    8.0394 O   0  0  0  0  0  0  0  0  0  0  0  0
   18.6105    5.2148    9.9279 N   0  0  0  0  0  0  0  0  0  0  0  0
   18.7046    5.6877   11.2076 C   0  0  0  0  0  0  0  0  0  0  0  0
   19.3282    5.2383   12.1490 O   0  0  0  0  0  0  0  0  0  0  0  0
   15.6015   11.2569   10.1403 O   0  0  0  0  0  0  0  0  0  0  0  0
   15.2660   10.1517   10.5207 C   0  0  0  0  0  0  0  0  0  0  0  0
   13.9765    9.8426   10.7354 O   0  0  0  0  0  0  0  0  0  0  0  0
   13.7431    8.9838   11.0285 H   0  0  0  0  0  0  0  0  0  0  0  0
   18.0713    2.9639    9.0973 C   0  0  0  0  0  0  0  0  0  0  0  0
   17.6990    2.7215    7.9589 O   0  0  0  0  0  0  0  0  0  0  0  0
   17.5020    2.2955   10.1254 O   0  0  0  0  0  0  0  0  0  0  0  0
   17.7750    2.4684   11.0050 H   0  0  0  0  0  0  0  0  0  0  0  0
   20.2079    4.1051    8.3609 C   0  0  0  0  0  0  0  0  0  0  0  0
   21.3187    5.0856    8.7018 C   0  0  0  0  0  0  0  0  0  0  0  0
   21.5357    6.1611    7.8233 C   0  0  0  0  0  0  0  0  0  0  0  0
   22.5411    7.0895    8.0670 C   0  0  0  0  0  0  0  0  0  0  0  0
   23.3477    6.9584    9.1927 C   0  0  0  0  0  0  0  0  0  0  0  0
   23.1635    5.8973   10.0899 C   0  0  0  0  0  0  0  0  0  0  0  0
   23.9941    5.7847   11.2168 C   0  0  0  0  0  0  0  0  0  0  0  0
   23.8291    4.7368   12.1172 C   0  0  0  0  0  0  0  0  0  0  0  0
   24.8574    4.6165   13.4913 Cl  0  0  0  0  0  0  0  0  0  0  0  0
   22.8379    3.7881   11.9117 C   0  0  0  0  0  0  0  0  0  0  0  0
   22.0034    3.8897   10.7950 C   0  0  0  0  0  0  0  0  0  0  0  0
   22.1409    4.9398    9.8564 C   0  0  0  0  0  0  0  0  0  0  0  0
 13 14  2  0
 14 15  1  0
 14  2  1  0
  2  3  2  0
  3  4  1  0
  4  5  2  0
  5  6  1  0
  6  7  2  0
  6  8  1  0
  8  9  2  0
  8 10  1  0
 10  1  1  0
  1 21  1  0
 21 22  1  0
 22 23  2  0
 23 24  1  0
 24 25  2  0
 25 26  1  0
 26 27  2  0
 27 28  1  0
 28 29  1  0
 28 30  2  0
 30 31  1  0
 31 32  2  0
  1 17  1  0
 17 18  2  0
 17 19  1  0
 10 11  1  0
 11 12  2  0
  7  2  1  0
 32 22  1  0
 11  5  1  0
 32 26  1  0
 15 16  1  0
 19 20  1  0
M  END
> <minimizedAffinity>
-7.47396

> <CNNscore>
0.4117727578

> <CNNaffinity>
4.7072210312

> <CNN_VS>
1.9383053780

> <CNNaffinity_variance>
0.2806784213

$$$$



 32 35  0  0  0  0  0  0  0  0999 V2000
   23.1524    5.9320   14.0549 C   0  0  0  0  0  0  0  0  0  0  0  0
   20.2787    4.6684    8.8897 C   0  0  0  0  0  0  0  0  0  0  0  0
   21.5316    5.0011    8.3160 C   0  0  0  0  0  0  0  0  0  0  0  0
   22.6174    5.3698    9.1202 C   0  0  0  0  0  0  0  0  0  0  0  0
   22.4128    5.3902   10.4855 C   0  0  0  0  0  0  0  0  0  0  0  0
   21.1921    5.0655   11.0485 C   0  0  0  0  0  0  0  0  0  0  0  0
   20.1021    4.7018   10.2816 C   0  0  0  0  0  0  0  0  0  0  0  0
   21.3269    5.2053   12.4968 C   0  0  0  0  0  0  0  0  0  0  0  0
   20.4167    5.0478   13.2867 O   0  0  0  0  0  0  0  0  0  0  0  0
   22.6273    5.5566   12.7387 N   0  0  0  0  0  0  0  0  0  0  0  0
   23.3241    5.7339   11.5753 C   0  0  0  0  0  0  0  0  0  0  0  0
   24.4703    6.1046   11.4151 O   0  0  0  0  0  0  0  0  0  0  0  0
   18.5098    3.2274    8.1301 O   0  0  0  0  0  0  0  0  0  0  0  0
   19.1174    4.2780    8.0529 C   0  0  0  0  0  0  0  0  0  0  0  0
   18.7775    5.2237    7.1615 O   0  0  0  0  0  0  0  0  0  0  0  0
   19.2613    6.0252    7.1214 H   0  0  0  0  0  0  0  0  0  0  0  0
   24.6292    5.5346   14.1666 C   0  0  0  0  0  0  0  0  0  0  0  0
   25.5598    6.2790   14.4374 O   0  0  0  0  0  0  0  0  0  0  0  0
   24.8786    4.2180   13.9875 O   0  0  0  0  0  0  0  0  0  0  0  0
   24.1774    3.6324   13.7793 H   0  0  0  0  0  0  0  0  0  0  0  0
   22.9597    7.4281   14.3591 C   0  0  0  0  0  0  0  0  0  0  0  0
   21.7142    7.7091   15.1848 C   0  0  0  0  0  0  0  0  0  0  0  0
   20.6660    8.4151   14.5697 C   0  0  0  0  0  0  0  0  0  0  0  0
   19.5027    8.7164   15.2683 C   0  0  0  0  0  0  0  0  0  0  0  0
   19.3675    8.3180   16.5942 C   0  0  0  0  0  0  0  0  0  0  0  0
   20.3925    7.6151   17.2421 C   0  0  0  0  0  0  0  0  0  0  0  0
   20.2332    7.2279   18.5828 C   0  0  0  0  0  0  0  0  0  0  0  0
   21.2406    6.5324   19.2442 C   0  0  0  0  0  0  0  0  0  0  0  0
   21.0261    6.0676   20.8868 Cl  0  0  0  0  0  0  0  0  0  0  0  0
   22.4180    6.2115   18.5843 C   0  0  0  0  0  0  0  0  0  0  0  0
   22.5883    6.5895   17.2495 C   0  0  0  0  0  0  0  0  0  0  0  0
   21.5878    7.2987   16.5434 C   0  0  0  0  0  0  0  0  0  0  0  0
 13 14  2  0
 14 15  1  0
 14  2  1  0
  2  3  2  0
  3  4  1  0
  4  5  2  0
  5  6  1  0
  6  7  2  0
  6  8  1  0
  8  9  2  0
  8 10  1  0
 10  1  1  0
  1 21  1  0
 21 22  1  0
 22 23  2  0
 23 24  1  0
 24 25  2  0
 25 26  1  0
 26 27  2  0
 27 28  1  0
 28 29  1  0
 28 30  2  0
 30 31  1  0
 31 32  2  0
  1 17  1  0
 17 18  2  0
 17 19  1  0
 10 11  1  0
 11 12  2  0
  7  2  1  0
 32 22  1  0
 11  5  1  0
 32 26  1  0
 15 16  1  0
 19 20  1  0
M  END
> <minimizedAffinity>
-7.78530

> <CNNscore>
0.3426276743

> <CNNaffinity>
4.7642993927

> <CNN_VS>
1.6323808432

> <CNNaffinity_variance>
0.2305432409

$$$$



 32 35  0  0  0  0  0  0  0  0999 V2000
   23.5170    8.0657   14.4334 C   0  0  0  0  0  0  0  0  0  0  0  0
   20.8030    4.0200   10.8555 C   0  0  0  0  0  0  0  0  0  0  0  0
   21.9990    3.2896   11.0698 C   0  0  0  0  0  0  0  0  0  0  0  0
   23.0165    3.7968   11.8879 C   0  0  0  0  0  0  0  0  0  0  0  0
   22.8002    5.0285   12.4731 C   0  0  0  0  0  0  0  0  0  0  0  0
   21.6344    5.7433   12.2668 C   0  0  0  0  0  0  0  0  0  0  0  0
   20.6150    5.2712   11.4628 C   0  0  0  0  0  0  0  0  0  0  0  0
   21.7480    6.9921   13.0169 C   0  0  0  0  0  0  0  0  0  0  0  0
   20.9137    7.8758   13.0042 O   0  0  0  0  0  0  0  0  0  0  0  0
   22.9473    6.9481   13.6747 N   0  0  0  0  0  0  0  0  0  0  0  0
   23.6536    5.8213   13.3559 C   0  0  0  0  0  0  0  0  0  0  0  0
   24.7710    5.4913   13.7016 O   0  0  0  0  0  0  0  0  0  0  0  0
   19.4667    3.8765    8.8616 O   0  0  0  0  0  0  0  0  0  0  0  0
   19.7162    3.4991    9.9904 C   0  0  0  0  0  0  0  0  0  0  0  0
   18.9969    2.5324   10.5844 O   0  0  0  0  0  0  0  0  0  0  0  0
   19.2088    2.2588   11.4551 H   0  0  0  0  0  0  0  0  0  0  0  0
   24.0692    9.1272   13.4744 C   0  0  0  0  0  0  0  0  0  0  0  0
   25.1542    9.0999   12.9129 O   0  0  0  0  0  0  0  0  0  0  0  0
   23.2264   10.1519   13.2146 O   0  0  0  0  0  0  0  0  0  0  0  0
   22.3903   10.1893   13.6360 H   0  0  0  0  0  0  0  0  0  0  0  0
   22.5072    8.6831   15.4168 C   0  0  0  0  0  0  0  0  0  0  0  0
   22.3749    7.8890   16.7066 C   0  0  0  0  0  0  0  0  0  0  0  0
   21.0958    7.4291   17.0645 C   0  0  0  0  0  0  0  0  0  0  0  0
   20.8996    6.7064   18.2355 C   0  0  0  0  0  0  0  0  0  0  0  0
   21.9783    6.4317   19.0696 C   0  0  0  0  0  0  0  0  0  0  0  0
   23.2680    6.8765   18.7476 C   0  0  0  0  0  0  0  0  0  0  0  0
   24.3398    6.5898   19.6088 C   0  0  0  0  0  0  0  0  0  0  0  0
   25.6267    7.0254   19.3082 C   0  0  0  0  0  0  0  0  0  0  0  0
   26.9261    6.6642   20.3765 Cl  0  0  0  0  0  0  0  0  0  0  0  0
   25.8668    7.7499   18.1496 C   0  0  0  0  0  0  0  0  0  0  0  0
   24.8091    8.0403   17.2834 C   0  0  0  0  0  0  0  0  0  0  0  0
   23.4866    7.6160   17.5550 C   0  0  0  0  0  0  0  0  0  0  0  0
 13 14  2  0
 14 15  1  0
 14  2  1  0
  2  3  2  0
  3  4  1  0
  4  5  2  0
  5  6  1  0
  6  7  2  0
  6  8  1  0
  8  9  2  0
  8 10  1  0
 10  1  1  0
  1 21  1  0
 21 22  1  0
 22 23  2  0
 23 24  1  0
 24 25  2  0
 25 26  1  0
 26 27  2  0
 27 28  1  0
 28 29  1  0
 28 30  2  0
 30 31  1  0
 31 32  2  0
  1 17  1  0
 17 18  2  0
 17 19  1  0
 10 11  1  0
 11 12  2  0
  7  2  1  0
 32 22  1  0
 11  5  1  0
 32 26  1  0
 15 16  1  0
 19 20  1  0
M  END
> <minimizedAffinity>
-8.47512

> <CNNscore>
0.3350374401

> <CNNaffinity>
5.1179981232

> <CNN_VS>
1.7147209644

> <CNNaffinity_variance>
0.1751255989

$$$$



 32 35  0  0  0  0  0  0  0  0999 V2000
   23.5547    5.7262   13.8879 C   0  0  0  0  0  0  0  0  0  0  0  0
   22.9612    7.1204    8.0366 C   0  0  0  0  0  0  0  0  0  0  0  0
   22.3373    5.8488    7.9776 C   0  0  0  0  0  0  0  0  0  0  0  0
   22.1876    5.0653    9.1290 C   0  0  0  0  0  0  0  0  0  0  0  0
   22.6687    5.5866   10.3135 C   0  0  0  0  0  0  0  0  0  0  0  0
   23.2771    6.8270   10.3747 C   0  0  0  0  0  0  0  0  0  0  0  0
   23.4425    7.6209    9.2563 C   0  0  0  0  0  0  0  0  0  0  0  0
   23.6719    7.0530   11.7633 C   0  0  0  0  0  0  0  0  0  0  0  0
   24.2843    8.0291   12.1500 O   0  0  0  0  0  0  0  0  0  0  0  0
   23.2408    5.9674   12.4764 N   0  0  0  0  0  0  0  0  0  0  0  0
   22.6744    5.0252   11.6630 C   0  0  0  0  0  0  0  0  0  0  0  0
   22.2469    3.9231   11.9453 O   0  0  0  0  0  0  0  0  0  0  0  0
   22.9627    7.5957    5.6794 O   0  0  0  0  0  0  0  0  0  0  0  0
   23.1301    7.9624    6.8268 C   0  0  0  0  0  0  0  0  0  0  0  0
   23.5012    9.2205    7.1166 O   0  0  0  0  0  0  0  0  0  0  0  0
   23.6239    9.4790    8.0088 H   0  0  0  0  0  0  0  0  0  0  0  0
   25.0727    5.6304   14.0819 C   0  0  0  0  0  0  0  0  0  0  0  0
   25.8008    4.7436   13.6614 O   0  0  0  0  0  0  0  0  0  0  0  0
   25.6275    6.6689   14.7465 O   0  0  0  0  0  0  0  0  0  0  0  0
   25.0846    7.3579   15.0760 H   0  0  0  0  0  0  0  0  0  0  0  0
   22.9467    6.7931   14.8153 C   0  0  0  0  0  0  0  0  0  0  0  0
   21.4513    6.9747   14.6092 C   0  0  0  0  0  0  0  0  0  0  0  0
   20.6194    5.8642   14.8338 C   0  0  0  0  0  0  0  0  0  0  0  0
   19.2441    5.9554   14.6541 C   0  0  0  0  0  0  0  0  0  0  0  0
   18.6766    7.1579   14.2456 C   0  0  0  0  0  0  0  0  0  0  0  0
   19.4743    8.2859   14.0087 C   0  0  0  0  0  0  0  0  0  0  0  0
   18.8773    9.4872   13.5926 C   0  0  0  0  0  0  0  0  0  0  0  0
   19.6524   10.6168   13.3493 C   0  0  0  0  0  0  0  0  0  0  0  0
   18.9019   12.0787   12.8398 Cl  0  0  0  0  0  0  0  0  0  0  0  0
   21.0289   10.5694   13.5162 C   0  0  0  0  0  0  0  0  0  0  0  0
   21.6351    9.3805   13.9316 C   0  0  0  0  0  0  0  0  0  0  0  0
   20.8811    8.2106   14.1876 C   0  0  0  0  0  0  0  0  0  0  0  0
 13 14  2  0
 14 15  1  0
 14  2  1  0
  2  3  2  0
  3  4  1  0
  4  5  2  0
  5  6  1  0
  6  7  2  0
  6  8  1  0
  8  9  2  0
  8 10  1  0
 10  1  1  0
  1 21  1  0
 21 22  1  0
 22 23  2  0
 23 24  1  0
 24 25  2  0
 25 26  1  0
 26 27  2  0
 27 28  1  0
 28 29  1  0
 28 30  2  0
 30 31  1  0
 31 32  2  0
  1 17  1  0
 17 18  2  0
 17 19  1  0
 10 11  1  0
 11 12  2  0
  7  2  1  0
 32 22  1  0
 11  5  1  0
 32 26  1  0
 15 16  1  0
 19 20  1  0
M  END
> <minimizedAffinity>
-7.53763

> <CNNscore>
0.3329480588

> <CNNaffinity>
4.4221892357

> <CNN_VS>
1.4723592997

> <CNNaffinity_variance>
0.3498816490

$$$$
