


 29 31  0  0  0  0  0  0  0  0999 V2000
   28.8336   65.9217    8.1364 C   0  0  0  0  0  0  0  0  0  0  0  0
   28.2633   66.8108    7.0079 C   0  0  0  0  0  0  0  0  0  0  0  0
   29.2488   67.0023    5.8508 C   0  0  0  0  0  0  0  0  0  0  0  0
   30.6943   66.7624    6.2767 C   0  0  0  0  0  0  0  0  0  0  0  0
   31.5734   67.4177    5.3673 O   0  0  0  0  0  0  0  0  0  0  0  0
   30.9070   67.2520    7.7214 C   0  0  0  0  0  0  0  0  0  0  0  0
   32.3566   67.1004    8.2358 C   0  0  0  0  0  0  0  0  0  0  0  0
   33.1549   66.2539    7.3937 O   0  0  0  0  0  0  0  0  0  0  0  0
   32.1916   66.4548    9.6135 C   0  0  0  0  0  0  0  0  0  0  0  0
   33.3270   65.6482    9.9207 O   0  0  0  0  0  0  0  0  0  0  0  0
   30.9075   65.6458    9.4469 C   0  0  0  0  0  0  0  0  0  0  0  0
   30.0315   66.5724    8.7189 N   0  0  0  0  0  0  0  0  0  0  0  0
   31.3934   68.3708    5.3737 H   0  0  0  0  0  0  0  0  0  0  0  0
   32.7451   65.3767    7.3355 H   0  0  0  0  0  0  0  0  0  0  0  0
   33.4541   64.9887    9.2208 H   0  0  0  0  0  0  0  0  0  0  0  0
   27.7803   65.6995    9.2385 C   0  0  0  0  0  0  0  0  0  0  0  0
   27.3343   67.0121    9.8507 C   0  0  0  0  0  0  0  0  0  0  0  0
   28.1044   67.8910   10.2205 O   0  0  0  0  0  0  0  0  0  0  0  0
   23.1224   67.6917   10.4246 C   0  0  0  0  0  0  0  0  0  0  0  0
   24.0948   68.4015   11.1513 C   0  0  0  0  0  0  0  0  0  0  0  0
   25.4610   68.1701   10.9545 C   0  0  0  0  0  0  0  0  0  0  0  0
   25.8838   67.2110   10.0306 C   0  0  0  0  0  0  0  0  0  0  0  0
   24.9442   66.4891    9.2948 C   0  0  0  0  0  0  0  0  0  0  0  0
   25.4300   65.1324    8.0593 Br  0  0  0  0  0  0  0  0  0  0  0  0
   23.5789   66.7337    9.4925 C   0  0  0  0  0  0  0  0  0  0  0  0
   21.0908   67.0484   11.7746 C   0  0  0  0  0  0  0  0  0  0  0  0
   21.6104   67.9228   10.6132 C   0  0  0  0  0  0  0  0  0  0  0  0
   21.2394   69.3857   10.9460 C   0  0  0  0  0  0  0  0  0  0  0  0
   20.8625   67.5430    9.3168 C   0  0  0  0  0  0  0  0  0  0  0  0
 26 27  1  0
 27 28  1  0
 27 29  1  0
 27 19  1  0
 19 20  2  0
 20 21  1  0
 21 22  2  0
 22 17  1  0
 17 18  2  0
 17 16  1  0
  1 16  1  0
  1  2  1  0
  2  3  1  0
  3  4  1  0
  4  5  1  0
  4  6  1  0
  6  7  1  0
  7  8  1  0
  7  9  1  0
  9 10  1  0
  9 11  1  0
 11 12  1  0
 22 23  1  0
 23 24  1  0
 23 25  2  0
 25 19  1  0
 12  1  1  0
  6 12  1  0
  5 13  1  0
  8 14  1  0
 10 15  1  0
M  END
> <minimizedAffinity>
-8.41434

> <CNNscore>
0.8537002802

> <CNNaffinity>
6.5073513985

> <CNN_VS>
5.5553278923

> <CNNaffinity_variance>
0.0763220564

$$$$



 29 31  0  0  0  0  0  0  0  0999 V2000
   28.8307   65.6578    8.1724 C   0  0  0  0  0  0  0  0  0  0  0  0
   28.1749   66.5621    7.1041 C   0  0  0  0  0  0  0  0  0  0  0  0
   29.1266   66.9033    5.9532 C   0  0  0  0  0  0  0  0  0  0  0  0
   30.5922   66.7593    6.3527 C   0  0  0  0  0  0  0  0  0  0  0  0
   31.4027   67.5383    5.4778 O   0  0  0  0  0  0  0  0  0  0  0  0
   30.7820   67.1779    7.8227 C   0  0  0  0  0  0  0  0  0  0  0  0
   32.2456   67.1168    8.3159 C   0  0  0  0  0  0  0  0  0  0  0  0
   33.1003   66.3911    7.4181 O   0  0  0  0  0  0  0  0  0  0  0  0
   32.1518   66.3787    9.6532 C   0  0  0  0  0  0  0  0  0  0  0  0
   33.3536   65.6524    9.9024 O   0  0  0  0  0  0  0  0  0  0  0  0
   30.9368   65.4774    9.4479 C   0  0  0  0  0  0  0  0  0  0  0  0
   29.9783   66.3698    8.7840 N   0  0  0  0  0  0  0  0  0  0  0  0
   31.1449   68.4711    5.5432 H   0  0  0  0  0  0  0  0  0  0  0  0
   32.7634   65.4879    7.3101 H   0  0  0  0  0  0  0  0  0  0  0  0
   33.5257   65.0486    9.1630 H   0  0  0  0  0  0  0  0  0  0  0  0
   27.8134   65.2836    9.2672 C   0  0  0  0  0  0  0  0  0  0  0  0
   26.6074   66.2011    9.2390 C   0  0  0  0  0  0  0  0  0  0  0  0
   26.2045   66.7703    8.2312 O   0  0  0  0  0  0  0  0  0  0  0  0
   24.5196   66.7758   12.9594 C   0  0  0  0  0  0  0  0  0  0  0  0
   24.0961   65.8302   12.0088 C   0  0  0  0  0  0  0  0  0  0  0  0
   24.7845   65.6541   10.8031 C   0  0  0  0  0  0  0  0  0  0  0  0
   25.9093   66.4324   10.5176 C   0  0  0  0  0  0  0  0  0  0  0  0
   26.3542   67.3800   11.4393 C   0  0  0  0  0  0  0  0  0  0  0  0
   27.8397   68.5147   11.1093 Br  0  0  0  0  0  0  0  0  0  0  0  0
   25.6636   67.5432   12.6474 C   0  0  0  0  0  0  0  0  0  0  0  0
   24.2116   68.3473   14.9087 C   0  0  0  0  0  0  0  0  0  0  0  0
   23.7879   66.9941   14.2981 C   0  0  0  0  0  0  0  0  0  0  0  0
   22.2478   67.0165   14.1711 C   0  0  0  0  0  0  0  0  0  0  0  0
   24.1512   65.8579   15.2786 C   0  0  0  0  0  0  0  0  0  0  0  0
 26 27  1  0
 27 28  1  0
 27 29  1  0
 27 19  1  0
 19 20  2  0
 20 21  1  0
 21 22  2  0
 22 17  1  0
 17 18  2  0
 17 16  1  0
  1 16  1  0
  1  2  1  0
  2  3  1  0
  3  4  1  0
  4  5  1  0
  4  6  1  0
  6  7  1  0
  7  8  1  0
  7  9  1  0
  9 10  1  0
  9 11  1  0
 11 12  1  0
 22 23  1  0
 23 24  1  0
 23 25  2  0
 25 19  1  0
 12  1  1  0
  6 12  1  0
  5 13  1  0
  8 14  1  0
 10 15  1  0
M  END
> <minimizedAffinity>
-7.60518

> <CNNscore>
0.8123812675

> <CNNaffinity>
6.4106159210

> <CNN_VS>
5.2078642845

> <CNNaffinity_variance>
0.1576019824

$$$$



 29 31  0  0  0  0  0  0  0  0999 V2000
   29.1180   65.6450    9.7286 C   0  0  0  0  0  0  0  0  0  0  0  0
   27.7746   66.1428    9.1481 C   0  0  0  0  0  0  0  0  0  0  0  0
   27.7525   66.1328    7.6164 C   0  0  0  0  0  0  0  0  0  0  0  0
   29.1554   66.1704    7.0175 C   0  0  0  0  0  0  0  0  0  0  0  0
   29.0893   66.6583    5.6808 O   0  0  0  0  0  0  0  0  0  0  0  0
   30.0793   67.0389    7.8917 C   0  0  0  0  0  0  0  0  0  0  0  0
   31.5175   67.1847    7.3448 C   0  0  0  0  0  0  0  0  0  0  0  0
   31.8097   66.2403    6.3027 O   0  0  0  0  0  0  0  0  0  0  0  0
   32.4030   66.9053    8.5613 C   0  0  0  0  0  0  0  0  0  0  0  0
   33.6435   66.3347    8.1494 O   0  0  0  0  0  0  0  0  0  0  0  0
   31.5436   65.9463    9.3815 C   0  0  0  0  0  0  0  0  0  0  0  0
   30.2084   66.5510    9.2948 N   0  0  0  0  0  0  0  0  0  0  0  0
   28.7192   67.5549    5.6818 H   0  0  0  0  0  0  0  0  0  0  0  0
   31.6878   65.3389    6.6397 H   0  0  0  0  0  0  0  0  0  0  0  0
   33.4740   65.5338    7.6290 H   0  0  0  0  0  0  0  0  0  0  0  0
   29.0635   65.6039   11.2677 C   0  0  0  0  0  0  0  0  0  0  0  0
   27.9423   66.4704   11.8053 C   0  0  0  0  0  0  0  0  0  0  0  0
   26.7785   66.0992   11.9045 O   0  0  0  0  0  0  0  0  0  0  0  0
   29.0601   70.4613   12.9686 C   0  0  0  0  0  0  0  0  0  0  0  0
   29.8679   69.3485   13.2629 C   0  0  0  0  0  0  0  0  0  0  0  0
   29.4918   68.0564   12.8786 C   0  0  0  0  0  0  0  0  0  0  0  0
   28.2887   67.8490   12.1991 C   0  0  0  0  0  0  0  0  0  0  0  0
   27.4645   68.9319   11.8934 C   0  0  0  0  0  0  0  0  0  0  0  0
   25.7903   68.7338   11.0211 Br  0  0  0  0  0  0  0  0  0  0  0  0
   27.8534   70.2228   12.2746 C   0  0  0  0  0  0  0  0  0  0  0  0
   29.6344   71.9745   14.9037 C   0  0  0  0  0  0  0  0  0  0  0  0
   29.4443   71.8979   13.3736 C   0  0  0  0  0  0  0  0  0  0  0  0
   30.7563   72.3984   12.7282 C   0  0  0  0  0  0  0  0  0  0  0  0
   28.3237   72.8726   12.9509 C   0  0  0  0  0  0  0  0  0  0  0  0
 26 27  1  0
 27 28  1  0
 27 29  1  0
 27 19  1  0
 19 20  2  0
 20 21  1  0
 21 22  2  0
 22 17  1  0
 17 18  2  0
 17 16  1  0
  1 16  1  0
  1  2  1  0
  2  3  1  0
  3  4  1  0
  4  5  1  0
  4  6  1  0
  6  7  1  0
  7  8  1  0
  7  9  1  0
  9 10  1  0
  9 11  1  0
 11 12  1  0
 22 23  1  0
 23 24  1  0
 23 25  2  0
 25 19  1  0
 12  1  1  0
  6 12  1  0
  5 13  1  0
  8 14  1  0
 10 15  1  0
M  END
> <minimizedAffinity>
-7.92480

> <CNNscore>
0.7203862071

> <CNNaffinity>
6.8451552391

> <CNN_VS>
4.9311552048

> <CNNaffinity_variance>
0.2156471759

$$$$



 29 31  0  0  0  0  0  0  0  0999 V2000
   28.8242   66.0387    8.2718 C   0  0  0  0  0  0  0  0  0  0  0  0
   28.2289   66.8779    7.1183 C   0  0  0  0  0  0  0  0  0  0  0  0
   29.1599   66.9588    5.9044 C   0  0  0  0  0  0  0  0  0  0  0  0
   30.6159   66.6895    6.2733 C   0  0  0  0  0  0  0  0  0  0  0  0
   31.4699   67.2525    5.2820 O   0  0  0  0  0  0  0  0  0  0  0  0
   30.9199   67.2589    7.6717 C   0  0  0  0  0  0  0  0  0  0  0  0
   32.3877   67.0829    8.1230 C   0  0  0  0  0  0  0  0  0  0  0  0
   33.1108   66.1554    7.2984 O   0  0  0  0  0  0  0  0  0  0  0  0
   32.2706   66.5306    9.5454 C   0  0  0  0  0  0  0  0  0  0  0  0
   33.3907   65.7010    9.8474 O   0  0  0  0  0  0  0  0  0  0  0  0
   30.9515   65.7637    9.4939 C   0  0  0  0  0  0  0  0  0  0  0  0
   30.0731   66.6769    8.7522 N   0  0  0  0  0  0  0  0  0  0  0  0
   31.3248   68.2105    5.2364 H   0  0  0  0  0  0  0  0  0  0  0  0
   32.6674   65.2929    7.3165 H   0  0  0  0  0  0  0  0  0  0  0  0
   33.4579   64.9950    9.1856 H   0  0  0  0  0  0  0  0  0  0  0  0
   27.8217   65.9264    9.4362 C   0  0  0  0  0  0  0  0  0  0  0  0
   28.3637   65.0547   10.5513 C   0  0  0  0  0  0  0  0  0  0  0  0
   28.6285   63.8651   10.4222 O   0  0  0  0  0  0  0  0  0  0  0  0
   28.8905   67.0062   14.3519 C   0  0  0  0  0  0  0  0  0  0  0  0
   29.0530   67.6932   13.1358 C   0  0  0  0  0  0  0  0  0  0  0  0
   28.8787   67.0459   11.9072 C   0  0  0  0  0  0  0  0  0  0  0  0
   28.5482   65.6888   11.8702 C   0  0  0  0  0  0  0  0  0  0  0  0
   28.3812   64.9787   13.0591 C   0  0  0  0  0  0  0  0  0  0  0  0
   27.9848   63.1228   13.0994 Br  0  0  0  0  0  0  0  0  0  0  0  0
   28.5493   65.6373   14.2842 C   0  0  0  0  0  0  0  0  0  0  0  0
   29.3285   66.6184   16.8058 C   0  0  0  0  0  0  0  0  0  0  0  0
   29.0715   67.6876   15.7223 C   0  0  0  0  0  0  0  0  0  0  0  0
   30.2554   68.6796   15.7745 C   0  0  0  0  0  0  0  0  0  0  0  0
   27.7943   68.4780   16.0807 C   0  0  0  0  0  0  0  0  0  0  0  0
 26 27  1  0
 27 28  1  0
 27 29  1  0
 27 19  1  0
 19 20  2  0
 20 21  1  0
 21 22  2  0
 22 17  1  0
 17 18  2  0
 17 16  1  0
  1 16  1  0
  1  2  1  0
  2  3  1  0
  3  4  1  0
  4  5  1  0
  4  6  1  0
  6  7  1  0
  7  8  1  0
  7  9  1  0
  9 10  1  0
  9 11  1  0
 11 12  1  0
 22 23  1  0
 23 24  1  0
 23 25  2  0
 25 19  1  0
 12  1  1  0
  6 12  1  0
  5 13  1  0
  8 14  1  0
 10 15  1  0
M  END
> <minimizedAffinity>
-8.61525

> <CNNscore>
0.7173838615

> <CNNaffinity>
6.3347153664

> <CNN_VS>
4.5444226265

> <CNNaffinity_variance>
0.2205513269

$$$$



 29 31  0  0  0  0  0  0  0  0999 V2000
   29.1126   65.6175    9.5852 C   0  0  0  0  0  0  0  0  0  0  0  0
   27.7832   66.0882    8.9526 C   0  0  0  0  0  0  0  0  0  0  0  0
   27.8149   66.0613    7.4213 C   0  0  0  0  0  0  0  0  0  0  0  0
   29.2372   66.1141    6.8713 C   0  0  0  0  0  0  0  0  0  0  0  0
   29.2107   66.5864    5.5276 O   0  0  0  0  0  0  0  0  0  0  0  0
   30.1168   67.0060    7.7673 C   0  0  0  0  0  0  0  0  0  0  0  0
   31.5710   67.1680    7.2693 C   0  0  0  0  0  0  0  0  0  0  0  0
   31.9136   66.2170    6.2488 O   0  0  0  0  0  0  0  0  0  0  0  0
   32.4173   66.9155    8.5191 C   0  0  0  0  0  0  0  0  0  0  0  0
   33.6799   66.3596    8.1572 O   0  0  0  0  0  0  0  0  0  0  0  0
   31.5441   65.9523    9.3196 C   0  0  0  0  0  0  0  0  0  0  0  0
   30.2038   66.5353    9.1795 N   0  0  0  0  0  0  0  0  0  0  0  0
   28.8274   67.4772    5.5056 H   0  0  0  0  0  0  0  0  0  0  0  0
   31.7935   65.3176    6.5916 H   0  0  0  0  0  0  0  0  0  0  0  0
   33.5408   65.5506    7.6404 H   0  0  0  0  0  0  0  0  0  0  0  0
   29.0048   65.5921   11.1218 C   0  0  0  0  0  0  0  0  0  0  0  0
   28.1250   66.7150   11.6336 C   0  0  0  0  0  0  0  0  0  0  0  0
   28.4512   67.8963   11.6276 O   0  0  0  0  0  0  0  0  0  0  0  0
   24.3525   65.5532   13.3509 C   0  0  0  0  0  0  0  0  0  0  0  0
   25.5333   64.8294   13.5942 C   0  0  0  0  0  0  0  0  0  0  0  0
   26.7531   65.2186   13.0290 C   0  0  0  0  0  0  0  0  0  0  0  0
   26.8143   66.3384   12.1956 C   0  0  0  0  0  0  0  0  0  0  0  0
   25.6604   67.0770   11.9335 C   0  0  0  0  0  0  0  0  0  0  0  0
   25.6441   68.5783   10.7721 Br  0  0  0  0  0  0  0  0  0  0  0  0
   24.4455   66.6847   12.5106 C   0  0  0  0  0  0  0  0  0  0  0  0
   22.7925   65.8821   15.3059 C   0  0  0  0  0  0  0  0  0  0  0  0
   22.9933   65.1554   13.9587 C   0  0  0  0  0  0  0  0  0  0  0  0
   21.7825   65.5114   13.0667 C   0  0  0  0  0  0  0  0  0  0  0  0
   22.9575   63.6296   14.1938 C   0  0  0  0  0  0  0  0  0  0  0  0
 26 27  1  0
 27 28  1  0
 27 29  1  0
 27 19  1  0
 19 20  2  0
 20 21  1  0
 21 22  2  0
 22 17  1  0
 17 18  2  0
 17 16  1  0
  1 16  1  0
  1  2  1  0
  2  3  1  0
  3  4  1  0
  4  5  1  0
  4  6  1  0
  6  7  1  0
  7  8  1  0
  7  9  1  0
  9 10  1  0
  9 11  1  0
 11 12  1  0
 22 23  1  0
 23 24  1  0
 23 25  2  0
 25 19  1  0
 12  1  1  0
  6 12  1  0
  5 13  1  0
  8 14  1  0
 10 15  1  0
M  END
> <minimizedAffinity>
-7.79333

> <CNNscore>
0.6675858498

> <CNNaffinity>
6.3017210960

> <CNN_VS>
4.2069396973

> <CNNaffinity_variance>
0.0344938077

$$$$



 29 31  0  0  0  0  0  0  0  0999 V2000
   25.0824   64.9666   14.3298 C   0  0  0  0  0  0  0  0  0  0  0  0
   25.3772   65.1537   15.8356 C   0  0  0  0  0  0  0  0  0  0  0  0
   26.7667   65.7432   16.0973 C   0  0  0  0  0  0  0  0  0  0  0  0
   27.7226   65.5109   14.9308 C   0  0  0  0  0  0  0  0  0  0  0  0
   29.0672   65.6042   15.3915 O   0  0  0  0  0  0  0  0  0  0  0  0
   27.4404   64.1429   14.2818 C   0  0  0  0  0  0  0  0  0  0  0  0
   28.3905   63.7856   13.1162 C   0  0  0  0  0  0  0  0  0  0  0  0
   29.1485   64.9156   12.6563 O   0  0  0  0  0  0  0  0  0  0  0  0
   27.4489   63.3070   12.0087 C   0  0  0  0  0  0  0  0  0  0  0  0
   28.0099   63.5867   10.7277 O   0  0  0  0  0  0  0  0  0  0  0  0
   26.1755   64.0998   12.2930 C   0  0  0  0  0  0  0  0  0  0  0  0
   26.0530   64.0057   13.7532 N   0  0  0  0  0  0  0  0  0  0  0  0
   29.2238   64.9297   16.0708 H   0  0  0  0  0  0  0  0  0  0  0  0
   28.5424   65.6162   12.3687 H   0  0  0  0  0  0  0  0  0  0  0  0
   28.2026   64.5349   10.6591 H   0  0  0  0  0  0  0  0  0  0  0  0
   23.6495   64.4424   14.1172 C   0  0  0  0  0  0  0  0  0  0  0  0
   22.8979   64.3378   15.4291 C   0  0  0  0  0  0  0  0  0  0  0  0
   23.1028   63.4673   16.2672 O   0  0  0  0  0  0  0  0  0  0  0  0
   19.8919   67.3273   16.1755 C   0  0  0  0  0  0  0  0  0  0  0  0
   21.2269   67.4992   16.5822 C   0  0  0  0  0  0  0  0  0  0  0  0
   22.1940   66.5185   16.3330 C   0  0  0  0  0  0  0  0  0  0  0  0
   21.8406   65.3355   15.6789 C   0  0  0  0  0  0  0  0  0  0  0  0
   20.5243   65.1340   15.2639 C   0  0  0  0  0  0  0  0  0  0  0  0
   19.9479   63.5359   14.4173 Br  0  0  0  0  0  0  0  0  0  0  0  0
   19.5650   66.1251   15.5102 C   0  0  0  0  0  0  0  0  0  0  0  0
   17.4394   67.6925   16.6401 C   0  0  0  0  0  0  0  0  0  0  0  0
   18.8022   68.3869   16.4304 C   0  0  0  0  0  0  0  0  0  0  0  0
   19.0619   69.2616   17.6777 C   0  0  0  0  0  0  0  0  0  0  0  0
   18.7078   69.3357   15.2158 C   0  0  0  0  0  0  0  0  0  0  0  0
 26 27  1  0
 27 28  1  0
 27 29  1  0
 27 19  1  0
 19 20  2  0
 20 21  1  0
 21 22  2  0
 22 17  1  0
 17 18  2  0
 17 16  1  0
  1 16  1  0
  1  2  1  0
  2  3  1  0
  3  4  1  0
  4  5  1  0
  4  6  1  0
  6  7  1  0
  7  8  1  0
  7  9  1  0
  9 10  1  0
  9 11  1  0
 11 12  1  0
 22 23  1  0
 23 24  1  0
 23 25  2  0
 25 19  1  0
 12  1  1  0
  6 12  1  0
  5 13  1  0
  8 14  1  0
 10 15  1  0
M  END
> <minimizedAffinity>
-6.33303

> <CNNscore>
0.5635076165

> <CNNaffinity>
4.8349308968

> <CNN_VS>
2.7245204449

> <CNNaffinity_variance>
0.3106113374

$$$$



 29 31  0  0  0  0  0  0  0  0999 V2000
   24.9781   65.1626   13.5660 C   0  0  0  0  0  0  0  0  0  0  0  0
   24.9351   65.2581   15.1081 C   0  0  0  0  0  0  0  0  0  0  0  0
   26.2802   65.6732   15.7125 C   0  0  0  0  0  0  0  0  0  0  0  0
   27.4501   65.3759   14.7791 C   0  0  0  0  0  0  0  0  0  0  0  0
   28.6543   65.2962   15.5358 O   0  0  0  0  0  0  0  0  0  0  0  0
   27.1850   64.0747   13.9988 C   0  0  0  0  0  0  0  0  0  0  0  0
   28.3361   63.6540   13.0570 C   0  0  0  0  0  0  0  0  0  0  0  0
   29.2928   64.7054   12.8515 O   0  0  0  0  0  0  0  0  0  0  0  0
   27.6312   63.3288   11.7382 C   0  0  0  0  0  0  0  0  0  0  0  0
   28.4986   63.5896   10.6365 O   0  0  0  0  0  0  0  0  0  0  0  0
   26.4159   64.2520   11.7775 C   0  0  0  0  0  0  0  0  0  0  0  0
   25.9505   64.1183   13.1636 N   0  0  0  0  0  0  0  0  0  0  0  0
   28.5790   64.5833   16.1892 H   0  0  0  0  0  0  0  0  0  0  0  0
   28.8455   65.4814   12.4793 H   0  0  0  0  0  0  0  0  0  0  0  0
   28.7992   64.5111   10.6728 H   0  0  0  0  0  0  0  0  0  0  0  0
   23.5865   64.8154   13.0035 C   0  0  0  0  0  0  0  0  0  0  0  0
   22.8318   63.8831   13.9300 C   0  0  0  0  0  0  0  0  0  0  0  0
   23.2319   62.7716   14.2561 O   0  0  0  0  0  0  0  0  0  0  0  0
   18.9759   65.2183   15.3010 C   0  0  0  0  0  0  0  0  0  0  0  0
   19.2725   65.0862   13.9328 C   0  0  0  0  0  0  0  0  0  0  0  0
   20.5308   64.6511   13.5013 C   0  0  0  0  0  0  0  0  0  0  0  0
   21.5262   64.3490   14.4341 C   0  0  0  0  0  0  0  0  0  0  0  0
   21.2640   64.4710   15.7985 C   0  0  0  0  0  0  0  0  0  0  0  0
   22.5739   64.1327   17.1300 Br  0  0  0  0  0  0  0  0  0  0  0  0
   19.9987   64.8991   16.2213 C   0  0  0  0  0  0  0  0  0  0  0  0
   17.7113   67.1376   16.3407 C   0  0  0  0  0  0  0  0  0  0  0  0
   17.6010   65.6915   15.8117 C   0  0  0  0  0  0  0  0  0  0  0  0
   16.4981   65.6877   14.7291 C   0  0  0  0  0  0  0  0  0  0  0  0
   17.1263   64.7671   16.9539 C   0  0  0  0  0  0  0  0  0  0  0  0
 26 27  1  0
 27 28  1  0
 27 29  1  0
 27 19  1  0
 19 20  2  0
 20 21  1  0
 21 22  2  0
 22 17  1  0
 17 18  2  0
 17 16  1  0
  1 16  1  0
  1  2  1  0
  2  3  1  0
  3  4  1  0
  4  5  1  0
  4  6  1  0
  6  7  1  0
  7  8  1  0
  7  9  1  0
  9 10  1  0
  9 11  1  0
 11 12  1  0
 22 23  1  0
 23 24  1  0
 23 25  2  0
 25 19  1  0
 12  1  1  0
  6 12  1  0
  5 13  1  0
  8 14  1  0
 10 15  1  0
M  END
> <minimizedAffinity>
-7.31875

> <CNNscore>
0.4715304971

> <CNNaffinity>
5.0777282715

> <CNN_VS>
2.3943037987

> <CNNaffinity_variance>
0.2869592607

$$$$



 29 31  0  0  0  0  0  0  0  0999 V2000
   28.8318   65.6418    9.6037 C   0  0  0  0  0  0  0  0  0  0  0  0
   27.5647   66.1554    8.8825 C   0  0  0  0  0  0  0  0  0  0  0  0
   27.6954   66.1145    7.3567 C   0  0  0  0  0  0  0  0  0  0  0  0
   29.1516   66.1107    6.9008 C   0  0  0  0  0  0  0  0  0  0  0  0
   29.2303   66.5724    5.5556 O   0  0  0  0  0  0  0  0  0  0  0  0
   30.0031   66.9775    7.8473 C   0  0  0  0  0  0  0  0  0  0  0  0
   31.4917   67.0821    7.4447 C   0  0  0  0  0  0  0  0  0  0  0  0
   31.8649   66.1107    6.4546 O   0  0  0  0  0  0  0  0  0  0  0  0
   32.2447   66.8094    8.7488 C   0  0  0  0  0  0  0  0  0  0  0  0
   33.5068   66.2048    8.4738 O   0  0  0  0  0  0  0  0  0  0  0  0
   31.2861   65.8855    9.4961 C   0  0  0  0  0  0  0  0  0  0  0  0
   29.9803   66.5158    9.2649 N   0  0  0  0  0  0  0  0  0  0  0  0
   28.8825   67.4763    5.5031 H   0  0  0  0  0  0  0  0  0  0  0  0
   31.6895   65.2192    6.7942 H   0  0  0  0  0  0  0  0  0  0  0  0
   33.3720   65.3971    7.9538 H   0  0  0  0  0  0  0  0  0  0  0  0
   28.6230   65.6332   11.1300 C   0  0  0  0  0  0  0  0  0  0  0  0
   27.2008   66.0075   11.4963 C   0  0  0  0  0  0  0  0  0  0  0  0
   26.2249   65.3071   11.2529 O   0  0  0  0  0  0  0  0  0  0  0  0
   26.5607   69.8475   13.3335 C   0  0  0  0  0  0  0  0  0  0  0  0
   26.5170   69.6753   11.9386 C   0  0  0  0  0  0  0  0  0  0  0  0
   26.7272   68.4208   11.3548 C   0  0  0  0  0  0  0  0  0  0  0  0
   26.9981   67.3101   12.1580 C   0  0  0  0  0  0  0  0  0  0  0  0
   27.0496   67.4480   13.5451 C   0  0  0  0  0  0  0  0  0  0  0  0
   27.4633   66.0041   14.7057 Br  0  0  0  0  0  0  0  0  0  0  0  0
   26.8294   68.7062   14.1209 C   0  0  0  0  0  0  0  0  0  0  0  0
   27.1909   71.3119   15.2886 C   0  0  0  0  0  0  0  0  0  0  0  0
   26.3311   71.2130   14.0102 C   0  0  0  0  0  0  0  0  0  0  0  0
   26.7016   72.4208   13.1201 C   0  0  0  0  0  0  0  0  0  0  0  0
   24.8409   71.3604   14.3871 C   0  0  0  0  0  0  0  0  0  0  0  0
 26 27  1  0
 27 28  1  0
 27 29  1  0
 27 19  1  0
 19 20  2  0
 20 21  1  0
 21 22  2  0
 22 17  1  0
 17 18  2  0
 17 16  1  0
  1 16  1  0
  1  2  1  0
  2  3  1  0
  3  4  1  0
  4  5  1  0
  4  6  1  0
  6  7  1  0
  7  8  1  0
  7  9  1  0
  9 10  1  0
  9 11  1  0
 11 12  1  0
 22 23  1  0
 23 24  1  0
 23 25  2  0
 25 19  1  0
 12  1  1  0
  6 12  1  0
  5 13  1  0
  8 14  1  0
 10 15  1  0
M  END
> <minimizedAffinity>
-6.92334

> <CNNscore>
0.4682125151

> <CNNaffinity>
6.1934852600

> <CNN_VS>
2.8998672962

> <CNNaffinity_variance>
0.1214970425

$$$$



 29 31  0  0  0  0  0  0  0  0999 V2000
   28.7473   65.5707    9.5650 C   0  0  0  0  0  0  0  0  0  0  0  0
   27.4961   66.1089    8.8341 C   0  0  0  0  0  0  0  0  0  0  0  0
   27.6621   66.1245    7.3113 C   0  0  0  0  0  0  0  0  0  0  0  0
   29.1284   66.1396    6.8894 C   0  0  0  0  0  0  0  0  0  0  0  0
   29.2372   66.6507    5.5643 O   0  0  0  0  0  0  0  0  0  0  0  0
   29.9559   66.9719    7.8867 C   0  0  0  0  0  0  0  0  0  0  0  0
   31.4532   67.0934    7.5228 C   0  0  0  0  0  0  0  0  0  0  0  0
   31.8512   66.1597    6.5064 O   0  0  0  0  0  0  0  0  0  0  0  0
   32.1765   66.7737    8.8330 C   0  0  0  0  0  0  0  0  0  0  0  0
   33.4459   66.1814    8.5651 O   0  0  0  0  0  0  0  0  0  0  0  0
   31.2030   65.8215    9.5233 C   0  0  0  0  0  0  0  0  0  0  0  0
   29.9015   66.4582    9.2854 N   0  0  0  0  0  0  0  0  0  0  0  0
   28.8886   67.5555    5.5371 H   0  0  0  0  0  0  0  0  0  0  0  0
   31.6701   65.2560    6.8087 H   0  0  0  0  0  0  0  0  0  0  0  0
   33.3249   65.3933    8.0127 H   0  0  0  0  0  0  0  0  0  0  0  0
   28.5034   65.5055   11.0847 C   0  0  0  0  0  0  0  0  0  0  0  0
   27.8124   64.2157   11.4797 C   0  0  0  0  0  0  0  0  0  0  0  0
   28.1969   63.1024   11.1409 O   0  0  0  0  0  0  0  0  0  0  0  0
   24.2983   64.6216   13.9325 C   0  0  0  0  0  0  0  0  0  0  0  0
   25.5811   64.9354   14.4156 C   0  0  0  0  0  0  0  0  0  0  0  0
   26.7151   64.7984   13.6068 C   0  0  0  0  0  0  0  0  0  0  0  0
   26.5893   64.3316   12.2959 C   0  0  0  0  0  0  0  0  0  0  0  0
   25.3308   64.0105   11.7873 C   0  0  0  0  0  0  0  0  0  0  0  0
   25.0761   63.3203   10.0375 Br  0  0  0  0  0  0  0  0  0  0  0  0
   24.2004   64.1590   12.6017 C   0  0  0  0  0  0  0  0  0  0  0  0
   23.4198   64.9055   16.2802 C   0  0  0  0  0  0  0  0  0  0  0  0
   23.0281   64.7633   14.7937 C   0  0  0  0  0  0  0  0  0  0  0  0
   22.1635   65.9924   14.4331 C   0  0  0  0  0  0  0  0  0  0  0  0
   22.1414   63.5112   14.6191 C   0  0  0  0  0  0  0  0  0  0  0  0
 26 27  1  0
 27 28  1  0
 27 29  1  0
 27 19  1  0
 19 20  2  0
 20 21  1  0
 21 22  2  0
 22 17  1  0
 17 18  2  0
 17 16  1  0
  1 16  1  0
  1  2  1  0
  2  3  1  0
  3  4  1  0
  4  5  1  0
  4  6  1  0
  6  7  1  0
  7  8  1  0
  7  9  1  0
  9 10  1  0
  9 11  1  0
 11 12  1  0
 22 23  1  0
 23 24  1  0
 23 25  2  0
 25 19  1  0
 12  1  1  0
  6 12  1  0
  5 13  1  0
  8 14  1  0
 10 15  1  0
M  END
> <minimizedAffinity>
-8.81885

> <CNNscore>
0.4513231814

> <CNNaffinity>
6.4245624542

> <CNN_VS>
2.8995540142

> <CNNaffinity_variance>
0.1009443104

$$$$
