


 39 42  0  0  0  0  0  0  0  0999 V2000
   10.5423   66.9835    3.7162 C   0  0  0  0  0  0  0  0  0  0  0  0
   10.8319   68.4408    3.3956 C   0  0  0  0  0  0  0  0  0  0  0  0
    9.5506   68.9949    2.9161 N   0  0  0  0  0  0  0  0  0  0  0  0
    8.8663   67.8820    2.2317 C   0  0  0  0  0  0  0  0  0  0  0  0
    9.6241   66.5903    2.5590 C   0  0  0  0  0  0  0  0  0  0  0  0
   12.2951   65.6420    2.7617 O   0  0  0  0  0  0  0  0  0  0  0  0
   11.8065   66.1388    3.7706 C   0  0  0  0  0  0  0  0  0  0  0  0
   12.3066   66.0169    5.0468 N   0  0  0  0  0  0  0  0  0  0  0  0
   11.8107   66.4979    5.7482 H   0  0  0  0  0  0  0  0  0  0  0  0
   13.4233   65.3014    5.4769 C   0  0  0  0  0  0  0  0  0  0  0  0
   14.3652   64.7313    4.6303 C   0  0  0  0  0  0  0  0  0  0  0  0
   15.4404   64.0332    5.1845 C   0  0  0  0  0  0  0  0  0  0  0  0
   15.5416   63.9242    6.5628 C   0  0  0  0  0  0  0  0  0  0  0  0
   16.8453   63.0756    7.2824 Cl  0  0  0  0  0  0  0  0  0  0  0  0
   14.5620   64.5210    7.3344 C   0  0  0  0  0  0  0  0  0  0  0  0
   13.5094   65.2037    6.8205 N   0  0  0  0  0  0  0  0  0  0  0  0
    8.6722   65.4616    2.9175 C   0  0  0  0  0  0  0  0  0  0  0  0
    7.5847   65.6996    3.4327 O   0  0  0  0  0  0  0  0  0  0  0  0
    9.1900   64.2102    2.6529 N   0  0  0  0  0  0  0  0  0  0  0  0
   10.0943   64.1853    2.2643 H   0  0  0  0  0  0  0  0  0  0  0  0
    8.5700   62.9608    2.8762 C   0  0  0  0  0  0  0  0  0  0  0  0
    7.7906   62.6467    3.9820 C   0  0  0  0  0  0  0  0  0  0  0  0
    7.2121   61.3713    4.1021 C   0  0  0  0  0  0  0  0  0  0  0  0
    7.3900   60.3760    3.1274 C   0  0  0  0  0  0  0  0  0  0  0  0
    8.1766   60.7089    2.0161 C   0  0  0  0  0  0  0  0  0  0  0  0
    8.7518   61.9750    1.9044 C   0  0  0  0  0  0  0  0  0  0  0  0
    9.4973   62.2506    0.8215 F   0  0  0  0  0  0  0  0  0  0  0  0
    6.7718   59.0696    3.2389 N   0  0  0  0  0  0  0  0  0  0  0  0
    7.4355   58.0185    3.8732 C   0  0  0  0  0  0  0  0  0  0  0  0
    6.9054   56.7964    3.9937 C   0  0  0  0  0  0  0  0  0  0  0  0
    5.6041   56.5160    3.4517 C   0  0  0  0  0  0  0  0  0  0  0  0
    4.9317   54.7861    3.6345 Br  0  0  0  0  0  0  0  0  0  0  0  0
    4.9188   57.4806    2.8340 C   0  0  0  0  0  0  0  0  0  0  0  0
    5.4754   58.8566    2.7142 C   0  0  0  0  0  0  0  0  0  0  0  0
    4.7410   59.6971    2.1986 O   0  0  0  0  0  0  0  0  0  0  0  0
    8.7477   69.5447    4.0363 C   0  0  0  0  0  0  0  0  0  0  0  0
    7.6197   70.5046    3.6224 C   0  0  0  0  0  0  0  0  0  0  0  0
    7.9736   71.7906    3.8752 F   0  0  0  0  0  0  0  0  0  0  0  0
    6.5207   70.2525    4.3828 F   0  0  0  0  0  0  0  0  0  0  0  0
  6  7  2  0
  7  8  1  0
  8 10  1  0
 10 11  2  0
 11 12  1  0
 12 13  2  0
 13 14  1  0
 13 15  1  0
 15 16  2  0
  1  7  1  0
  1  2  1  0
  2  3  1  0
  3 36  1  0
 36 37  1  0
 37 38  1  0
 37 39  1  0
  3  4  1  0
  4  5  1  0
  5 17  1  0
 17 18  2  0
 17 19  1  0
 19 21  1  0
 21 22  2  0
 22 23  1  0
 23 24  2  0
 24 28  1  0
 28 29  1  0
 29 30  2  0
 30 31  1  0
 31 32  1  0
 31 33  2  0
 33 34  1  0
 34 35  2  0
 24 25  1  0
 25 26  2  0
 26 27  1  0
 16 10  1  0
  5  1  1  0
 26 21  1  0
 34 28  1  0
  8  9  1  0
 19 20  1  0
M  END
> <minimizedAffinity>
-10.66206

> <CNNscore>
0.9418842793

> <CNNaffinity>
8.4920043945

> <CNN_VS>
7.9984855652

> <CNNaffinity_variance>
0.0100329770

$$$$



 39 42  0  0  0  0  0  0  0  0999 V2000
   10.3806   66.7684    3.9540 C   0  0  0  0  0  0  0  0  0  0  0  0
   10.9959   68.1271    3.6614 C   0  0  0  0  0  0  0  0  0  0  0  0
    9.9134   68.9190    3.0451 N   0  0  0  0  0  0  0  0  0  0  0  0
    9.0900   67.9523    2.2950 C   0  0  0  0  0  0  0  0  0  0  0  0
    9.5271   66.5418    2.7062 C   0  0  0  0  0  0  0  0  0  0  0  0
   11.3764   64.6180    3.5448 O   0  0  0  0  0  0  0  0  0  0  0  0
   11.4310   65.6849    4.1468 C   0  0  0  0  0  0  0  0  0  0  0  0
   12.4083   66.0493    5.0445 N   0  0  0  0  0  0  0  0  0  0  0  0
   12.3233   66.9531    5.4256 H   0  0  0  0  0  0  0  0  0  0  0  0
   13.5031   65.3068    5.4850 C   0  0  0  0  0  0  0  0  0  0  0  0
   14.4386   64.7135    4.6472 C   0  0  0  0  0  0  0  0  0  0  0  0
   15.4911   63.9894    5.2115 C   0  0  0  0  0  0  0  0  0  0  0  0
   15.5766   63.8781    6.5907 C   0  0  0  0  0  0  0  0  0  0  0  0
   16.8522   62.9979    7.3225 Cl  0  0  0  0  0  0  0  0  0  0  0  0
   14.6047   64.4989    7.3530 C   0  0  0  0  0  0  0  0  0  0  0  0
   13.5741   65.2072    6.8293 N   0  0  0  0  0  0  0  0  0  0  0  0
    8.3312   65.6409    2.9642 C   0  0  0  0  0  0  0  0  0  0  0  0
    7.4932   65.9393    3.8091 O   0  0  0  0  0  0  0  0  0  0  0  0
    8.3466   64.4878    2.2063 N   0  0  0  0  0  0  0  0  0  0  0  0
    9.1080   64.3799    1.5916 H   0  0  0  0  0  0  0  0  0  0  0  0
    7.3941   63.4448    2.2124 C   0  0  0  0  0  0  0  0  0  0  0  0
    6.2166   63.4481    2.9488 C   0  0  0  0  0  0  0  0  0  0  0  0
    5.3320   62.3583    2.8757 C   0  0  0  0  0  0  0  0  0  0  0  0
    5.5917   61.2386    2.0687 C   0  0  0  0  0  0  0  0  0  0  0  0
    6.7825   61.2511    1.3295 C   0  0  0  0  0  0  0  0  0  0  0  0
    7.6588   62.3338    1.4093 C   0  0  0  0  0  0  0  0  0  0  0  0
    8.7879   62.3035    0.6823 F   0  0  0  0  0  0  0  0  0  0  0  0
    4.6668   60.1265    1.9736 N   0  0  0  0  0  0  0  0  0  0  0  0
    3.3283   60.3386    1.6405 C   0  0  0  0  0  0  0  0  0  0  0  0
    2.4398   59.3433    1.5470 C   0  0  0  0  0  0  0  0  0  0  0  0
    2.8433   57.9875    1.8021 C   0  0  0  0  0  0  0  0  0  0  0  0
    1.5507   56.6491    1.6761 Br  0  0  0  0  0  0  0  0  0  0  0  0
    4.1106   57.7202    2.1245 C   0  0  0  0  0  0  0  0  0  0  0  0
    5.1244   58.8079    2.2050 C   0  0  0  0  0  0  0  0  0  0  0  0
    6.2808   58.4576    2.4323 O   0  0  0  0  0  0  0  0  0  0  0  0
    9.1284   69.6496    4.0707 C   0  0  0  0  0  0  0  0  0  0  0  0
    7.6013   69.5467    3.9208 C   0  0  0  0  0  0  0  0  0  0  0  0
    7.0296   70.7731    4.0295 F   0  0  0  0  0  0  0  0  0  0  0  0
    7.1041   68.7995    4.9426 F   0  0  0  0  0  0  0  0  0  0  0  0
  6  7  2  0
  7  8  1  0
  8 10  1  0
 10 11  2  0
 11 12  1  0
 12 13  2  0
 13 14  1  0
 13 15  1  0
 15 16  2  0
  1  7  1  0
  1  2  1  0
  2  3  1  0
  3 36  1  0
 36 37  1  0
 37 38  1  0
 37 39  1  0
  3  4  1  0
  4  5  1  0
  5 17  1  0
 17 18  2  0
 17 19  1  0
 19 21  1  0
 21 22  2  0
 22 23  1  0
 23 24  2  0
 24 28  1  0
 28 29  1  0
 29 30  2  0
 30 31  1  0
 31 32  1  0
 31 33  2  0
 33 34  1  0
 34 35  2  0
 24 25  1  0
 25 26  2  0
 26 27  1  0
 16 10  1  0
  5  1  1  0
 26 21  1  0
 34 28  1  0
  8  9  1  0
 19 20  1  0
M  END
> <minimizedAffinity>
-9.44418

> <CNNscore>
0.7060441375

> <CNNaffinity>
7.6092295647

> <CNN_VS>
5.3724517822

> <CNNaffinity_variance>
0.0047870814

$$$$



 39 42  0  0  0  0  0  0  0  0999 V2000
   10.4247   66.8204    3.9240 C   0  0  0  0  0  0  0  0  0  0  0  0
   11.0262   68.1213    3.4181 C   0  0  0  0  0  0  0  0  0  0  0  0
    9.9093   68.8417    2.7760 N   0  0  0  0  0  0  0  0  0  0  0  0
    9.0330   67.7975    2.2129 C   0  0  0  0  0  0  0  0  0  0  0  0
    9.4892   66.4462    2.7744 C   0  0  0  0  0  0  0  0  0  0  0  0
   11.5193   64.7130    3.5444 O   0  0  0  0  0  0  0  0  0  0  0  0
   11.4801   65.7566    4.1870 C   0  0  0  0  0  0  0  0  0  0  0  0
   12.3475   66.1099    5.1952 N   0  0  0  0  0  0  0  0  0  0  0  0
   12.1972   66.9957    5.5977 H   0  0  0  0  0  0  0  0  0  0  0  0
   13.4112   65.3781    5.7214 C   0  0  0  0  0  0  0  0  0  0  0  0
   13.6911   65.2626    7.0769 C   0  0  0  0  0  0  0  0  0  0  0  0
   14.7913   64.5024    7.4796 C   0  0  0  0  0  0  0  0  0  0  0  0
   15.5775   63.8838    6.5198 C   0  0  0  0  0  0  0  0  0  0  0  0
   16.9365   62.9426    6.9723 Cl  0  0  0  0  0  0  0  0  0  0  0  0
   15.2300   64.0487    5.1919 C   0  0  0  0  0  0  0  0  0  0  0  0
   14.1675   64.7810    4.7761 N   0  0  0  0  0  0  0  0  0  0  0  0
    8.3084   65.6027    3.2245 C   0  0  0  0  0  0  0  0  0  0  0  0
    8.0316   64.5552    2.6490 O   0  0  0  0  0  0  0  0  0  0  0  0
    7.6022   66.1691    4.2660 N   0  0  0  0  0  0  0  0  0  0  0  0
    7.9355   67.0331    4.6002 H   0  0  0  0  0  0  0  0  0  0  0  0
    6.4555   65.6501    4.9069 C   0  0  0  0  0  0  0  0  0  0  0  0
    6.1966   64.2996    5.1018 C   0  0  0  0  0  0  0  0  0  0  0  0
    5.0245   63.8905    5.7610 C   0  0  0  0  0  0  0  0  0  0  0  0
    4.0806   64.8106    6.2457 C   0  0  0  0  0  0  0  0  0  0  0  0
    4.3571   66.1698    6.0441 C   0  0  0  0  0  0  0  0  0  0  0  0
    5.5201   66.5698    5.3853 C   0  0  0  0  0  0  0  0  0  0  0  0
    5.7449   67.8832    5.2153 F   0  0  0  0  0  0  0  0  0  0  0  0
    2.8848   64.3893    6.9484 N   0  0  0  0  0  0  0  0  0  0  0  0
    2.6942   64.7168    8.2916 C   0  0  0  0  0  0  0  0  0  0  0  0
    1.6095   64.3444    8.9798 C   0  0  0  0  0  0  0  0  0  0  0  0
    0.5815   63.5666    8.3441 C   0  0  0  0  0  0  0  0  0  0  0  0
   -0.8947   63.0616    9.3658 Br  0  0  0  0  0  0  0  0  0  0  0  0
    0.7057   63.2225    7.0604 C   0  0  0  0  0  0  0  0  0  0  0  0
    1.8897   63.6511    6.2655 C   0  0  0  0  0  0  0  0  0  0  0  0
    1.8803   63.3535    5.0726 O   0  0  0  0  0  0  0  0  0  0  0  0
    9.1979   69.7093    3.7470 C   0  0  0  0  0  0  0  0  0  0  0  0
    8.3174   70.8045    3.1220 C   0  0  0  0  0  0  0  0  0  0  0  0
    9.0673   71.6370    2.3555 F   0  0  0  0  0  0  0  0  0  0  0  0
    7.7883   71.5691    4.1145 F   0  0  0  0  0  0  0  0  0  0  0  0
  6  7  2  0
  7  8  1  0
  8 10  1  0
 10 11  2  0
 11 12  1  0
 12 13  2  0
 13 14  1  0
 13 15  1  0
 15 16  2  0
  1  7  1  0
  1  2  1  0
  2  3  1  0
  3 36  1  0
 36 37  1  0
 37 38  1  0
 37 39  1  0
  3  4  1  0
  4  5  1  0
  5 17  1  0
 17 18  2  0
 17 19  1  0
 19 21  1  0
 21 22  2  0
 22 23  1  0
 23 24  2  0
 24 28  1  0
 28 29  1  0
 29 30  2  0
 30 31  1  0
 31 32  1  0
 31 33  2  0
 33 34  1  0
 34 35  2  0
 24 25  1  0
 25 26  2  0
 26 27  1  0
 16 10  1  0
  5  1  1  0
 26 21  1  0
 34 28  1  0
  8  9  1  0
 19 20  1  0
M  END
> <minimizedAffinity>
-8.71666

> <CNNscore>
0.5336233974

> <CNNaffinity>
7.1824593544

> <CNN_VS>
3.8327283859

> <CNNaffinity_variance>
0.0242412314

$$$$



 39 42  0  0  0  0  0  0  0  0999 V2000
   11.3888   65.1004    0.9320 C   0  0  0  0  0  0  0  0  0  0  0  0
   12.4467   65.2113   -0.1538 C   0  0  0  0  0  0  0  0  0  0  0  0
   11.9474   64.3824   -1.2684 N   0  0  0  0  0  0  0  0  0  0  0  0
   11.1950   63.2806   -0.6397 C   0  0  0  0  0  0  0  0  0  0  0  0
   11.0101   63.6221    0.8431 C   0  0  0  0  0  0  0  0  0  0  0  0
   11.5410   66.4939    2.8861 O   0  0  0  0  0  0  0  0  0  0  0  0
   11.9226   65.4844    2.3039 C   0  0  0  0  0  0  0  0  0  0  0  0
   12.8466   64.5841    2.7829 N   0  0  0  0  0  0  0  0  0  0  0  0
   13.0281   63.8087    2.2040 H   0  0  0  0  0  0  0  0  0  0  0  0
   13.5596   64.6259    3.9803 C   0  0  0  0  0  0  0  0  0  0  0  0
   13.2333   65.4347    5.0613 C   0  0  0  0  0  0  0  0  0  0  0  0
   14.0307   65.3893    6.2070 C   0  0  0  0  0  0  0  0  0  0  0  0
   15.1275   64.5418    6.2382 C   0  0  0  0  0  0  0  0  0  0  0  0
   16.1315   64.4569    7.6247 Cl  0  0  0  0  0  0  0  0  0  0  0  0
   15.3826   63.7698    5.1202 C   0  0  0  0  0  0  0  0  0  0  0  0
   14.6239   63.7958    3.9969 N   0  0  0  0  0  0  0  0  0  0  0  0
    9.5890   63.3476    1.3050 C   0  0  0  0  0  0  0  0  0  0  0  0
    9.1026   63.9744    2.2407 O   0  0  0  0  0  0  0  0  0  0  0  0
    8.9802   62.3233    0.6089 N   0  0  0  0  0  0  0  0  0  0  0  0
    9.5168   61.8969   -0.0979 H   0  0  0  0  0  0  0  0  0  0  0  0
    7.6747   61.8172    0.7952 C   0  0  0  0  0  0  0  0  0  0  0  0
    6.5440   62.2698    0.1278 C   0  0  0  0  0  0  0  0  0  0  0  0
    5.2899   61.6891    0.3838 C   0  0  0  0  0  0  0  0  0  0  0  0
    5.1258   60.6432    1.3066 C   0  0  0  0  0  0  0  0  0  0  0  0
    6.2764   60.1954    1.9701 C   0  0  0  0  0  0  0  0  0  0  0  0
    7.5179   60.7786    1.7150 C   0  0  0  0  0  0  0  0  0  0  0  0
    8.5939   60.3167    2.3732 F   0  0  0  0  0  0  0  0  0  0  0  0
    3.8367   60.0270    1.5512 N   0  0  0  0  0  0  0  0  0  0  0  0
    3.6549   58.6558    1.3658 C   0  0  0  0  0  0  0  0  0  0  0  0
    2.4824   58.0471    1.5742 C   0  0  0  0  0  0  0  0  0  0  0  0
    1.3385   58.8069    1.9988 C   0  0  0  0  0  0  0  0  0  0  0  0
   -0.2721   57.9010    2.2505 Br  0  0  0  0  0  0  0  0  0  0  0  0
    1.4493   60.1226    2.1942 C   0  0  0  0  0  0  0  0  0  0  0  0
    2.7516   60.8174    1.9979 C   0  0  0  0  0  0  0  0  0  0  0  0
    2.7764   62.0147    2.2761 O   0  0  0  0  0  0  0  0  0  0  0  0
   11.1079   65.1777   -2.1982 C   0  0  0  0  0  0  0  0  0  0  0  0
   10.0840   64.3670   -3.0102 C   0  0  0  0  0  0  0  0  0  0  0  0
   10.7008   63.6908   -4.0128 F   0  0  0  0  0  0  0  0  0  0  0  0
    9.2109   65.2233   -3.6052 F   0  0  0  0  0  0  0  0  0  0  0  0
  6  7  2  0
  7  8  1  0
  8 10  1  0
 10 11  2  0
 11 12  1  0
 12 13  2  0
 13 14  1  0
 13 15  1  0
 15 16  2  0
  1  7  1  0
  1  2  1  0
  2  3  1  0
  3 36  1  0
 36 37  1  0
 37 38  1  0
 37 39  1  0
  3  4  1  0
  4  5  1  0
  5 17  1  0
 17 18  2  0
 17 19  1  0
 19 21  1  0
 21 22  2  0
 22 23  1  0
 23 24  2  0
 24 28  1  0
 28 29  1  0
 29 30  2  0
 30 31  1  0
 31 32  1  0
 31 33  2  0
 33 34  1  0
 34 35  2  0
 24 25  1  0
 25 26  2  0
 26 27  1  0
 16 10  1  0
  5  1  1  0
 26 21  1  0
 34 28  1  0
  8  9  1  0
 19 20  1  0
M  END
> <minimizedAffinity>
-7.89194

> <CNNscore>
0.2290043682

> <CNNaffinity>
6.8915381432

> <CNN_VS>
1.5781923532

> <CNNaffinity_variance>
0.3005931377

$$$$



 39 42  0  0  0  0  0  0  0  0999 V2000
    8.7518   69.4186    3.6042 C   0  0  0  0  0  0  0  0  0  0  0  0
    8.6788   70.9004    3.2735 C   0  0  0  0  0  0  0  0  0  0  0  0
    7.2592   71.1595    2.9629 N   0  0  0  0  0  0  0  0  0  0  0  0
    6.7524   69.9174    2.3499 C   0  0  0  0  0  0  0  0  0  0  0  0
    7.8051   68.8236    2.5619 C   0  0  0  0  0  0  0  0  0  0  0  0
   11.1434   69.6047    3.4347 O   0  0  0  0  0  0  0  0  0  0  0  0
   10.1652   68.8674    3.4905 C   0  0  0  0  0  0  0  0  0  0  0  0
   10.1960   67.4919    3.4640 N   0  0  0  0  0  0  0  0  0  0  0  0
    9.3234   67.0431    3.5430 H   0  0  0  0  0  0  0  0  0  0  0  0
   11.3008   66.6505    3.3401 C   0  0  0  0  0  0  0  0  0  0  0  0
   11.5957   65.9025    2.2075 C   0  0  0  0  0  0  0  0  0  0  0  0
   12.7327   65.0915    2.2079 C   0  0  0  0  0  0  0  0  0  0  0  0
   13.5375   65.0503    3.3360 C   0  0  0  0  0  0  0  0  0  0  0  0
   14.9411   64.0676    3.3771 Cl  0  0  0  0  0  0  0  0  0  0  0  0
   13.1735   65.8257    4.4211 C   0  0  0  0  0  0  0  0  0  0  0  0
   12.0755   66.6206    4.4451 N   0  0  0  0  0  0  0  0  0  0  0  0
    7.1703   67.5201    3.0163 C   0  0  0  0  0  0  0  0  0  0  0  0
    6.3274   67.5115    3.9076 O   0  0  0  0  0  0  0  0  0  0  0  0
    7.6809   66.4132    2.3695 N   0  0  0  0  0  0  0  0  0  0  0  0
    8.3785   66.5844    1.6963 H   0  0  0  0  0  0  0  0  0  0  0  0
    7.3163   65.0625    2.5637 C   0  0  0  0  0  0  0  0  0  0  0  0
    6.3444   64.6215    3.4525 C   0  0  0  0  0  0  0  0  0  0  0  0
    6.0536   63.2506    3.5618 C   0  0  0  0  0  0  0  0  0  0  0  0
    6.7177   62.2827    2.7907 C   0  0  0  0  0  0  0  0  0  0  0  0
    7.6937   62.7434    1.8964 C   0  0  0  0  0  0  0  0  0  0  0  0
    7.9811   64.1049    1.7954 C   0  0  0  0  0  0  0  0  0  0  0  0
    8.9233   64.5014    0.9239 F   0  0  0  0  0  0  0  0  0  0  0  0
    6.3993   60.8717    2.8849 N   0  0  0  0  0  0  0  0  0  0  0  0
    7.2624   59.9876    3.5338 C   0  0  0  0  0  0  0  0  0  0  0  0
    7.0111   58.6782    3.6393 C   0  0  0  0  0  0  0  0  0  0  0  0
    5.8165   58.1226    3.0649 C   0  0  0  0  0  0  0  0  0  0  0  0
    5.5366   56.2859    3.2284 Br  0  0  0  0  0  0  0  0  0  0  0  0
    4.9509   58.9174    2.4319 C   0  0  0  0  0  0  0  0  0  0  0  0
    5.1942   60.3828    2.3280 C   0  0  0  0  0  0  0  0  0  0  0  0
    4.3054   61.0450    1.7957 O   0  0  0  0  0  0  0  0  0  0  0  0
    6.5005   71.5355    4.1813 C   0  0  0  0  0  0  0  0  0  0  0  0
    6.1344   73.0253    4.2894 C   0  0  0  0  0  0  0  0  0  0  0  0
    7.2442   73.7973    4.1657 F   0  0  0  0  0  0  0  0  0  0  0  0
    5.6327   73.2704    5.5295 F   0  0  0  0  0  0  0  0  0  0  0  0
  6  7  2  0
  7  8  1  0
  8 10  1  0
 10 11  2  0
 11 12  1  0
 12 13  2  0
 13 14  1  0
 13 15  1  0
 15 16  2  0
  1  7  1  0
  1  2  1  0
  2  3  1  0
  3 36  1  0
 36 37  1  0
 37 38  1  0
 37 39  1  0
  3  4  1  0
  4  5  1  0
  5 17  1  0
 17 18  2  0
 17 19  1  0
 19 21  1  0
 21 22  2  0
 22 23  1  0
 23 24  2  0
 24 28  1  0
 28 29  1  0
 29 30  2  0
 30 31  1  0
 31 32  1  0
 31 33  2  0
 33 34  1  0
 34 35  2  0
 24 25  1  0
 25 26  2  0
 26 27  1  0
 16 10  1  0
  5  1  1  0
 26 21  1  0
 34 28  1  0
  8  9  1  0
 19 20  1  0
M  END
> <minimizedAffinity>
-8.43123

> <CNNscore>
0.2219191343

> <CNNaffinity>
6.9530258179

> <CNN_VS>
1.5430095196

> <CNNaffinity_variance>
0.0637515858

$$$$



 39 42  0  0  0  0  0  0  0  0999 V2000
    8.3821   62.7783    2.2966 C   0  0  0  0  0  0  0  0  0  0  0  0
    9.3636   62.3086    1.2354 C   0  0  0  0  0  0  0  0  0  0  0  0
    9.4799   63.4348    0.2883 N   0  0  0  0  0  0  0  0  0  0  0  0
    8.1587   64.0902    0.2844 C   0  0  0  0  0  0  0  0  0  0  0  0
    7.3456   63.5183    1.4512 C   0  0  0  0  0  0  0  0  0  0  0  0
    7.4981   61.7260    4.2700 O   0  0  0  0  0  0  0  0  0  0  0  0
    7.7780   61.6229    3.0806 C   0  0  0  0  0  0  0  0  0  0  0  0
    7.5930   60.4990    2.3084 N   0  0  0  0  0  0  0  0  0  0  0  0
    7.8464   60.5848    1.3609 H   0  0  0  0  0  0  0  0  0  0  0  0
    7.0937   59.2549    2.6915 C   0  0  0  0  0  0  0  0  0  0  0  0
    7.7708   58.3520    3.5011 C   0  0  0  0  0  0  0  0  0  0  0  0
    7.1644   57.1327    3.8112 C   0  0  0  0  0  0  0  0  0  0  0  0
    5.9052   56.8516    3.3039 C   0  0  0  0  0  0  0  0  0  0  0  0
    5.1271   55.3667    3.6602 Cl  0  0  0  0  0  0  0  0  0  0  0  0
    5.2999   57.8046    2.5061 C   0  0  0  0  0  0  0  0  0  0  0  0
    5.8674   58.9949    2.1911 N   0  0  0  0  0  0  0  0  0  0  0  0
    6.6293   64.6148    2.2213 C   0  0  0  0  0  0  0  0  0  0  0  0
    6.9864   65.7843    2.1236 O   0  0  0  0  0  0  0  0  0  0  0  0
    5.6233   64.1374    3.0365 N   0  0  0  0  0  0  0  0  0  0  0  0
    5.4783   63.1637    3.0259 H   0  0  0  0  0  0  0  0  0  0  0  0
    4.7782   64.8871    3.8843 C   0  0  0  0  0  0  0  0  0  0  0  0
    3.5179   65.3563    3.5373 C   0  0  0  0  0  0  0  0  0  0  0  0
    2.7545   66.0884    4.4630 C   0  0  0  0  0  0  0  0  0  0  0  0
    3.2208   66.3717    5.7571 C   0  0  0  0  0  0  0  0  0  0  0  0
    4.4931   65.8893    6.0935 C   0  0  0  0  0  0  0  0  0  0  0  0
    5.2480   65.1668    5.1690 C   0  0  0  0  0  0  0  0  0  0  0  0
    6.4617   64.7226    5.5351 F   0  0  0  0  0  0  0  0  0  0  0  0
    2.4226   67.1044    6.7201 N   0  0  0  0  0  0  0  0  0  0  0  0
    2.2521   68.4845    6.6023 C   0  0  0  0  0  0  0  0  0  0  0  0
    1.5293   69.2006    7.4704 C   0  0  0  0  0  0  0  0  0  0  0  0
    0.8949   68.5562    8.5877 C   0  0  0  0  0  0  0  0  0  0  0  0
   -0.0805   69.6153    9.7732 Br  0  0  0  0  0  0  0  0  0  0  0  0
    1.0203   67.2379    8.7543 C   0  0  0  0  0  0  0  0  0  0  0  0
    1.7948   66.4153    7.7843 C   0  0  0  0  0  0  0  0  0  0  0  0
    1.7905   65.2009    7.9761 O   0  0  0  0  0  0  0  0  0  0  0  0
   10.5670   64.3633    0.6852 C   0  0  0  0  0  0  0  0  0  0  0  0
   11.7651   63.7041    1.3890 C   0  0  0  0  0  0  0  0  0  0  0  0
   11.7681   64.0126    2.7110 F   0  0  0  0  0  0  0  0  0  0  0  0
   12.9169   64.2116    0.8739 F   0  0  0  0  0  0  0  0  0  0  0  0
  6  7  2  0
  7  8  1  0
  8 10  1  0
 10 11  2  0
 11 12  1  0
 12 13  2  0
 13 14  1  0
 13 15  1  0
 15 16  2  0
  1  7  1  0
  1  2  1  0
  2  3  1  0
  3 36  1  0
 36 37  1  0
 37 38  1  0
 37 39  1  0
  3  4  1  0
  4  5  1  0
  5 17  1  0
 17 18  2  0
 17 19  1  0
 19 21  1  0
 21 22  2  0
 22 23  1  0
 23 24  2  0
 24 28  1  0
 28 29  1  0
 29 30  2  0
 30 31  1  0
 31 32  1  0
 31 33  2  0
 33 34  1  0
 34 35  2  0
 24 25  1  0
 25 26  2  0
 26 27  1  0
 16 10  1  0
  5  1  1  0
 26 21  1  0
 34 28  1  0
  8  9  1  0
 19 20  1  0
M  END
> <minimizedAffinity>
-7.24478

> <CNNscore>
0.2078375220

> <CNNaffinity>
6.1381134987

> <CNN_VS>
1.2757302523

> <CNNaffinity_variance>
0.5887794495

$$$$



 39 42  0  0  0  0  0  0  0  0999 V2000
    6.0764   69.7490    3.5945 C   0  0  0  0  0  0  0  0  0  0  0  0
    6.4717   71.2157    3.5416 C   0  0  0  0  0  0  0  0  0  0  0  0
    7.9478   71.2203    3.5424 N   0  0  0  0  0  0  0  0  0  0  0  0
    8.3494   70.0497    4.3447 C   0  0  0  0  0  0  0  0  0  0  0  0
    7.1030   69.1888    4.5790 C   0  0  0  0  0  0  0  0  0  0  0  0
    4.3841   69.2536    5.2298 O   0  0  0  0  0  0  0  0  0  0  0  0
    4.6446   69.5505    4.0689 C   0  0  0  0  0  0  0  0  0  0  0  0
    3.7232   69.7443    3.0653 N   0  0  0  0  0  0  0  0  0  0  0  0
    4.0923   70.0037    2.1903 H   0  0  0  0  0  0  0  0  0  0  0  0
    2.3356   69.6215    3.1251 C   0  0  0  0  0  0  0  0  0  0  0  0
    1.5005   70.4793    3.8293 C   0  0  0  0  0  0  0  0  0  0  0  0
    0.1233   70.2475    3.8153 C   0  0  0  0  0  0  0  0  0  0  0  0
   -0.3769   69.1687    3.1026 C   0  0  0  0  0  0  0  0  0  0  0  0
   -2.0602   68.8493    3.0607 Cl  0  0  0  0  0  0  0  0  0  0  0  0
    0.5223   68.3636    2.4285 C   0  0  0  0  0  0  0  0  0  0  0  0
    1.8626   68.5678    2.4265 N   0  0  0  0  0  0  0  0  0  0  0  0
    7.3938   67.7146    4.3541 C   0  0  0  0  0  0  0  0  0  0  0  0
    8.5442   67.2904    4.3925 O   0  0  0  0  0  0  0  0  0  0  0  0
    6.2645   66.9767    4.0636 N   0  0  0  0  0  0  0  0  0  0  0  0
    5.4137   67.4717    4.0406 H   0  0  0  0  0  0  0  0  0  0  0  0
    6.1905   65.5919    3.7954 C   0  0  0  0  0  0  0  0  0  0  0  0
    6.4593   65.0050    2.5657 C   0  0  0  0  0  0  0  0  0  0  0  0
    6.3626   63.6115    2.4092 C   0  0  0  0  0  0  0  0  0  0  0  0
    5.9991   62.7646    3.4689 C   0  0  0  0  0  0  0  0  0  0  0  0
    5.7337   63.3712    4.7042 C   0  0  0  0  0  0  0  0  0  0  0  0
    5.8271   64.7553    4.8525 C   0  0  0  0  0  0  0  0  0  0  0  0
    5.5649   65.2934    6.0550 F   0  0  0  0  0  0  0  0  0  0  0  0
    5.9248   61.3252    3.3138 N   0  0  0  0  0  0  0  0  0  0  0  0
    6.9091   60.4977    3.8562 C   0  0  0  0  0  0  0  0  0  0  0  0
    6.8831   59.1662    3.7325 C   0  0  0  0  0  0  0  0  0  0  0  0
    5.8170   58.5277    3.0103 C   0  0  0  0  0  0  0  0  0  0  0  0
    5.8517   56.6694    2.8561 Br  0  0  0  0  0  0  0  0  0  0  0  0
    4.8452   59.2654    2.4689 C   0  0  0  0  0  0  0  0  0  0  0  0
    4.8365   60.7468    2.6192 C   0  0  0  0  0  0  0  0  0  0  0  0
    3.8619   61.3347    2.1541 O   0  0  0  0  0  0  0  0  0  0  0  0
    8.4882   71.1677    2.1615 C   0  0  0  0  0  0  0  0  0  0  0  0
    9.9763   70.7942    2.0558 C   0  0  0  0  0  0  0  0  0  0  0  0
   10.1398   69.4528    2.1854 F   0  0  0  0  0  0  0  0  0  0  0  0
   10.6518   71.3648    3.0892 F   0  0  0  0  0  0  0  0  0  0  0  0
  6  7  2  0
  7  8  1  0
  8 10  1  0
 10 11  2  0
 11 12  1  0
 12 13  2  0
 13 14  1  0
 13 15  1  0
 15 16  2  0
  1  7  1  0
  1  2  1  0
  2  3  1  0
  3 36  1  0
 36 37  1  0
 37 38  1  0
 37 39  1  0
  3  4  1  0
  4  5  1  0
  5 17  1  0
 17 18  2  0
 17 19  1  0
 19 21  1  0
 21 22  2  0
 22 23  1  0
 23 24  2  0
 24 28  1  0
 28 29  1  0
 29 30  2  0
 30 31  1  0
 31 32  1  0
 31 33  2  0
 33 34  1  0
 34 35  2  0
 24 25  1  0
 25 26  2  0
 26 27  1  0
 16 10  1  0
  5  1  1  0
 26 21  1  0
 34 28  1  0
  8  9  1  0
 19 20  1  0
M  END
> <minimizedAffinity>
-6.66890

> <CNNscore>
0.1840050817

> <CNNaffinity>
5.4151611328

> <CNN_VS>
0.9964171648

> <CNNaffinity_variance>
0.5515437722

$$$$



 39 42  0  0  0  0  0  0  0  0999 V2000
    8.2486   62.8338    2.2590 C   0  0  0  0  0  0  0  0  0  0  0  0
    9.6553   63.2397    2.6671 C   0  0  0  0  0  0  0  0  0  0  0  0
   10.1797   64.0205    1.5295 N   0  0  0  0  0  0  0  0  0  0  0  0
    9.5599   63.4358    0.3256 C   0  0  0  0  0  0  0  0  0  0  0  0
    8.4437   62.4897    0.7824 C   0  0  0  0  0  0  0  0  0  0  0  0
    7.5658   61.7271    4.2819 O   0  0  0  0  0  0  0  0  0  0  0  0
    7.7264   61.6561    3.0683 C   0  0  0  0  0  0  0  0  0  0  0  0
    7.4668   60.5522    2.2888 N   0  0  0  0  0  0  0  0  0  0  0  0
    7.6249   60.6636    1.3235 H   0  0  0  0  0  0  0  0  0  0  0  0
    7.0092   59.2967    2.6866 C   0  0  0  0  0  0  0  0  0  0  0  0
    7.7246   58.4178    3.4896 C   0  0  0  0  0  0  0  0  0  0  0  0
    7.1581   57.1837    3.8160 C   0  0  0  0  0  0  0  0  0  0  0  0
    5.8993   56.8644    3.3309 C   0  0  0  0  0  0  0  0  0  0  0  0
    5.1693   55.3602    3.7077 Cl  0  0  0  0  0  0  0  0  0  0  0  0
    5.2542   57.7954    2.5383 C   0  0  0  0  0  0  0  0  0  0  0  0
    5.7827   58.9994    2.2077 N   0  0  0  0  0  0  0  0  0  0  0  0
    7.1807   62.6799   -0.0404 C   0  0  0  0  0  0  0  0  0  0  0  0
    6.0958   62.8466    0.5074 O   0  0  0  0  0  0  0  0  0  0  0  0
    7.3995   62.5887   -1.3998 N   0  0  0  0  0  0  0  0  0  0  0  0
    8.3276   62.4211   -1.6821 H   0  0  0  0  0  0  0  0  0  0  0  0
    6.4430   62.7084   -2.4323 C   0  0  0  0  0  0  0  0  0  0  0  0
    6.2063   63.8634   -3.1664 C   0  0  0  0  0  0  0  0  0  0  0  0
    5.2331   63.8716   -4.1805 C   0  0  0  0  0  0  0  0  0  0  0  0
    4.4715   62.7339   -4.4937 C   0  0  0  0  0  0  0  0  0  0  0  0
    4.7237   61.5754   -3.7461 C   0  0  0  0  0  0  0  0  0  0  0  0
    5.6880   61.5745   -2.7379 C   0  0  0  0  0  0  0  0  0  0  0  0
    5.8971   60.4412   -2.0477 F   0  0  0  0  0  0  0  0  0  0  0  0
    3.4862   62.7354   -5.5569 N   0  0  0  0  0  0  0  0  0  0  0  0
    2.1931   63.2089   -5.3302 C   0  0  0  0  0  0  0  0  0  0  0  0
    1.2515   63.2236   -6.2800 C   0  0  0  0  0  0  0  0  0  0  0  0
    1.5459   62.7309   -7.5978 C   0  0  0  0  0  0  0  0  0  0  0  0
    0.1823   62.7592   -8.8698 Br  0  0  0  0  0  0  0  0  0  0  0  0
    2.7654   62.2655   -7.8768 C   0  0  0  0  0  0  0  0  0  0  0  0
    3.8386   62.2671   -6.8446 C   0  0  0  0  0  0  0  0  0  0  0  0
    4.9495   61.8922   -7.2147 O   0  0  0  0  0  0  0  0  0  0  0  0
    9.8693   65.4639    1.6771 C   0  0  0  0  0  0  0  0  0  0  0  0
    8.4152   65.8550    1.3646 C   0  0  0  0  0  0  0  0  0  0  0  0
    8.2659   66.1093    0.0395 F   0  0  0  0  0  0  0  0  0  0  0  0
    8.1174   67.0125    2.0135 F   0  0  0  0  0  0  0  0  0  0  0  0
  6  7  2  0
  7  8  1  0
  8 10  1  0
 10 11  2  0
 11 12  1  0
 12 13  2  0
 13 14  1  0
 13 15  1  0
 15 16  2  0
  1  7  1  0
  1  2  1  0
  2  3  1  0
  3 36  1  0
 36 37  1  0
 37 38  1  0
 37 39  1  0
  3  4  1  0
  4  5  1  0
  5 17  1  0
 17 18  2  0
 17 19  1  0
 19 21  1  0
 21 22  2  0
 22 23  1  0
 23 24  2  0
 24 28  1  0
 28 29  1  0
 29 30  2  0
 30 31  1  0
 31 32  1  0
 31 33  2  0
 33 34  1  0
 34 35  2  0
 24 25  1  0
 25 26  2  0
 26 27  1  0
 16 10  1  0
  5  1  1  0
 26 21  1  0
 34 28  1  0
  8  9  1  0
 19 20  1  0
M  END
> <minimizedAffinity>
-6.68090

> <CNNscore>
0.1648002267

> <CNNaffinity>
5.9700074196

> <CNN_VS>
0.9838585854

> <CNNaffinity_variance>
0.2527774274

$$$$



 39 42  0  0  0  0  0  0  0  0999 V2000
   11.1849   64.8458    0.5744 C   0  0  0  0  0  0  0  0  0  0  0  0
   10.8526   63.6959   -0.3622 C   0  0  0  0  0  0  0  0  0  0  0  0
    9.4417   63.9017   -0.7444 N   0  0  0  0  0  0  0  0  0  0  0  0
    8.7985   64.5251    0.4273 C   0  0  0  0  0  0  0  0  0  0  0  0
    9.9034   64.9497    1.4012 C   0  0  0  0  0  0  0  0  0  0  0  0
   13.4147   64.0344    0.9656 O   0  0  0  0  0  0  0  0  0  0  0  0
   12.4100   64.5615    1.4306 C   0  0  0  0  0  0  0  0  0  0  0  0
   12.2466   64.9616    2.7371 N   0  0  0  0  0  0  0  0  0  0  0  0
   11.3871   65.3930    2.9480 H   0  0  0  0  0  0  0  0  0  0  0  0
   13.1385   64.8362    3.8015 C   0  0  0  0  0  0  0  0  0  0  0  0
   14.3738   64.2065    3.7215 C   0  0  0  0  0  0  0  0  0  0  0  0
   15.1769   64.1419    4.8623 C   0  0  0  0  0  0  0  0  0  0  0  0
   14.7232   64.7045    6.0453 C   0  0  0  0  0  0  0  0  0  0  0  0
   15.6778   64.6461    7.4675 Cl  0  0  0  0  0  0  0  0  0  0  0  0
   13.4818   65.3129    6.0399 C   0  0  0  0  0  0  0  0  0  0  0  0
   12.6842   65.3887    4.9462 N   0  0  0  0  0  0  0  0  0  0  0  0
    9.6615   66.3485    1.9426 C   0  0  0  0  0  0  0  0  0  0  0  0
   10.5947   67.1292    2.0997 O   0  0  0  0  0  0  0  0  0  0  0  0
    8.3408   66.5848    2.2656 N   0  0  0  0  0  0  0  0  0  0  0  0
    7.7136   65.8425    2.1080 H   0  0  0  0  0  0  0  0  0  0  0  0
    7.7868   67.7706    2.7967 C   0  0  0  0  0  0  0  0  0  0  0  0
    8.5185   68.8023    3.3704 C   0  0  0  0  0  0  0  0  0  0  0  0
    7.8657   69.9456    3.8627 C   0  0  0  0  0  0  0  0  0  0  0  0
    6.4709   70.0957    3.7962 C   0  0  0  0  0  0  0  0  0  0  0  0
    5.7465   69.0476    3.2121 C   0  0  0  0  0  0  0  0  0  0  0  0
    6.3996   67.9133    2.7291 C   0  0  0  0  0  0  0  0  0  0  0  0
    5.6653   66.9339    2.1759 F   0  0  0  0  0  0  0  0  0  0  0  0
    5.8005   71.2863    4.2804 N   0  0  0  0  0  0  0  0  0  0  0  0
    6.3322   72.5533    4.0363 C   0  0  0  0  0  0  0  0  0  0  0  0
    5.7504   73.6773    4.4688 C   0  0  0  0  0  0  0  0  0  0  0  0
    4.5307   73.6148    5.2266 C   0  0  0  0  0  0  0  0  0  0  0  0
    3.7826   75.2174    5.8184 Br  0  0  0  0  0  0  0  0  0  0  0  0
    3.9724   72.4319    5.4920 C   0  0  0  0  0  0  0  0  0  0  0  0
    4.5854   71.1689    4.9954 C   0  0  0  0  0  0  0  0  0  0  0  0
    3.9598   70.1351    5.2222 O   0  0  0  0  0  0  0  0  0  0  0  0
    9.3298   64.7431   -1.9614 C   0  0  0  0  0  0  0  0  0  0  0  0
    8.3654   64.2132   -3.0359 C   0  0  0  0  0  0  0  0  0  0  0  0
    7.3470   63.5233   -2.4616 F   0  0  0  0  0  0  0  0  0  0  0  0
    9.0276   63.3298   -3.8301 F   0  0  0  0  0  0  0  0  0  0  0  0
  6  7  2  0
  7  8  1  0
  8 10  1  0
 10 11  2  0
 11 12  1  0
 12 13  2  0
 13 14  1  0
 13 15  1  0
 15 16  2  0
  1  7  1  0
  1  2  1  0
  2  3  1  0
  3 36  1  0
 36 37  1  0
 37 38  1  0
 37 39  1  0
  3  4  1  0
  4  5  1  0
  5 17  1  0
 17 18  2  0
 17 19  1  0
 19 21  1  0
 21 22  2  0
 22 23  1  0
 23 24  2  0
 24 28  1  0
 28 29  1  0
 29 30  2  0
 30 31  1  0
 31 32  1  0
 31 33  2  0
 33 34  1  0
 34 35  2  0
 24 25  1  0
 25 26  2  0
 26 27  1  0
 16 10  1  0
  5  1  1  0
 26 21  1  0
 34 28  1  0
  8  9  1  0
 19 20  1  0
M  END
> <minimizedAffinity>
-7.98551

> <CNNscore>
0.1581080258

> <CNNaffinity>
6.4210739136

> <CNN_VS>
1.0152232647

> <CNNaffinity_variance>
0.1352813989

$$$$
