


 26 30  0  0  0  0  0  0  0  0999 V2000
   11.4904   24.5715    7.8886 N   0  0  0  0  0  0  0  0  0  0  0  0
   12.5281   25.4287    7.3095 C   0  0  0  0  0  0  0  0  0  0  0  0
   12.9656   26.5749    8.2319 C   0  0  0  0  0  0  0  0  0  0  0  0
   11.8554   26.9521    9.2149 C   0  0  0  0  0  0  0  0  0  0  0  0
   11.3139   25.7581   10.0157 C   0  0  0  0  0  0  0  0  0  0  0  0
   11.6073   24.4195    9.3327 C   0  0  0  0  0  0  0  0  0  0  0  0
   12.1645   28.1201   10.0277 N   0  0  0  0  0  0  0  0  0  0  0  0
   12.3218   29.3715    9.4560 C   0  0  0  0  0  0  0  0  0  0  0  0
   12.6341   30.2963   10.3363 N   0  0  0  0  0  0  0  0  0  0  0  0
   12.6797   29.6340   11.5352 C   0  0  0  0  0  0  0  0  0  0  0  0
   12.9629   30.0934   12.8346 C   0  0  0  0  0  0  0  0  0  0  0  0
   12.9586   29.2734   13.9286 N   0  0  0  0  0  0  0  0  0  0  0  0
   12.6570   27.9904   13.6681 C   0  0  0  0  0  0  0  0  0  0  0  0
   12.5751   26.9680   14.5703 N   0  0  0  0  0  0  0  0  0  0  0  0
   12.2307   25.8042   13.9162 C   0  0  0  0  0  0  0  0  0  0  0  0
   12.0909   26.0817   12.5660 C   0  0  0  0  0  0  0  0  0  0  0  0
   12.3685   27.4615   12.4291 C   0  0  0  0  0  0  0  0  0  0  0  0
   12.3838   28.2908   11.3469 C   0  0  0  0  0  0  0  0  0  0  0  0
   12.7370   27.0495   15.5380 H   0  0  0  0  0  0  0  0  0  0  0  0
   11.2840   23.3132    7.1567 C   0  0  0  0  0  0  0  0  0  0  0  0
    7.2044   22.3049    6.1336 C   0  0  0  0  0  0  0  0  0  0  0  0
    7.5425   23.6216    6.4377 C   0  0  0  0  0  0  0  0  0  0  0  0
    8.8593   23.9467    6.7692 C   0  0  0  0  0  0  0  0  0  0  0  0
    9.8559   22.9594    6.7955 C   0  0  0  0  0  0  0  0  0  0  0  0
    9.4978   21.6361    6.4958 C   0  0  0  0  0  0  0  0  0  0  0  0
    8.1808   21.3119    6.1644 C   0  0  0  0  0  0  0  0  0  0  0  0
 21 22  2  0
 22 23  1  0
 23 24  2  0
 24 20  1  0
 20  1  1  0
  1  2  1  0
  2  3  1  0
  3  4  1  0
  4  7  1  0
  7  8  1  0
  8  9  2  0
  9 10  1  0
 10 11  2  0
 11 12  1  0
 12 13  2  0
 13 14  1  0
 14 15  1  0
 15 16  2  0
 16 17  1  0
 17 18  2  0
  4  5  1  0
  5  6  1  0
 24 25  1  0
 25 26  2  0
 26 21  1  0
  6  1  1  0
 18  7  1  0
 18 10  1  0
 17 13  1  0
 14 19  1  0
M  END
> <minimizedAffinity>
-10.01534

> <CNNscore>
0.9939234853

> <CNNaffinity>
7.8317012787

> <CNN_VS>
7.7841119766

> <CNNaffinity_variance>
0.0371566154

$$$$



 26 30  0  0  0  0  0  0  0  0999 V2000
   10.8886   25.0038    7.8944 N   0  0  0  0  0  0  0  0  0  0  0  0
   11.2102   26.4306    7.9843 C   0  0  0  0  0  0  0  0  0  0  0  0
   11.8137   26.8418    9.3344 C   0  0  0  0  0  0  0  0  0  0  0  0
   11.3799   25.8895   10.4505 C   0  0  0  0  0  0  0  0  0  0  0  0
   11.6546   24.4110   10.1361 C   0  0  0  0  0  0  0  0  0  0  0  0
   11.8135   24.1562    8.6347 C   0  0  0  0  0  0  0  0  0  0  0  0
   11.8148   26.3045   11.7768 N   0  0  0  0  0  0  0  0  0  0  0  0
   11.8142   25.4199   12.8422 C   0  0  0  0  0  0  0  0  0  0  0  0
   12.2017   25.9792   13.9668 N   0  0  0  0  0  0  0  0  0  0  0  0
   12.4740   27.2800   13.6325 C   0  0  0  0  0  0  0  0  0  0  0  0
   12.9247   28.3599   14.4138 C   0  0  0  0  0  0  0  0  0  0  0  0
   13.1474   29.6064   13.8980 N   0  0  0  0  0  0  0  0  0  0  0  0
   12.9069   29.7209   12.5812 C   0  0  0  0  0  0  0  0  0  0  0  0
   13.0531   30.8428   11.8156 N   0  0  0  0  0  0  0  0  0  0  0  0
   12.7173   30.5552   10.5097 C   0  0  0  0  0  0  0  0  0  0  0  0
   12.3448   29.2229   10.4331 C   0  0  0  0  0  0  0  0  0  0  0  0
   12.4656   28.7165   11.7479 C   0  0  0  0  0  0  0  0  0  0  0  0
   12.2413   27.4808   12.2787 C   0  0  0  0  0  0  0  0  0  0  0  0
   13.3519   31.7210   12.1454 H   0  0  0  0  0  0  0  0  0  0  0  0
   10.6010   24.5458    6.5272 C   0  0  0  0  0  0  0  0  0  0  0  0
    7.4896   21.5762    6.0716 C   0  0  0  0  0  0  0  0  0  0  0  0
    8.8189   21.1801    6.2007 C   0  0  0  0  0  0  0  0  0  0  0  0
    9.8233   22.1389    6.3464 C   0  0  0  0  0  0  0  0  0  0  0  0
    9.5101   23.5064    6.3703 C   0  0  0  0  0  0  0  0  0  0  0  0
    8.1676   23.8900    6.2299 C   0  0  0  0  0  0  0  0  0  0  0  0
    7.1639   22.9305    6.0842 C   0  0  0  0  0  0  0  0  0  0  0  0
 21 22  2  0
 22 23  1  0
 23 24  2  0
 24 20  1  0
 20  1  1  0
  1  2  1  0
  2  3  1  0
  3  4  1  0
  4  7  1  0
  7  8  1  0
  8  9  2  0
  9 10  1  0
 10 11  2  0
 11 12  1  0
 12 13  2  0
 13 14  1  0
 14 15  1  0
 15 16  2  0
 16 17  1  0
 17 18  2  0
  4  5  1  0
  5  6  1  0
 24 25  1  0
 25 26  2  0
 26 21  1  0
  6  1  1  0
 18  7  1  0
 18 10  1  0
 17 13  1  0
 14 19  1  0
M  END
> <minimizedAffinity>
-9.93856

> <CNNscore>
0.9792155623

> <CNNaffinity>
7.6015586853

> <CNN_VS>
7.4435644150

> <CNNaffinity_variance>
0.0159681533

$$$$



 26 30  0  0  0  0  0  0  0  0999 V2000
   12.3381   27.0058    6.5812 N   0  0  0  0  0  0  0  0  0  0  0  0
   12.6588   28.4311    6.4690 C   0  0  0  0  0  0  0  0  0  0  0  0
   13.0597   29.0789    7.8015 C   0  0  0  0  0  0  0  0  0  0  0  0
   12.4542   28.3279    8.9891 C   0  0  0  0  0  0  0  0  0  0  0  0
   12.7559   26.8216    8.9802 C   0  0  0  0  0  0  0  0  0  0  0  0
   13.1332   26.3129    7.5861 C   0  0  0  0  0  0  0  0  0  0  0  0
   12.6919   28.9727   10.2729 N   0  0  0  0  0  0  0  0  0  0  0  0
   13.1033   30.2928   10.3482 C   0  0  0  0  0  0  0  0  0  0  0  0
   13.3035   30.6926   11.5842 N   0  0  0  0  0  0  0  0  0  0  0  0
   13.0087   29.5989   12.3556 C   0  0  0  0  0  0  0  0  0  0  0  0
   13.0380   29.4168   13.7504 C   0  0  0  0  0  0  0  0  0  0  0  0
   12.7019   28.2356   14.3515 N   0  0  0  0  0  0  0  0  0  0  0  0
   12.3350   27.2589   13.5051 C   0  0  0  0  0  0  0  0  0  0  0  0
   11.9460   25.9916   13.8349 N   0  0  0  0  0  0  0  0  0  0  0  0
   11.6387   25.2918   12.6875 C   0  0  0  0  0  0  0  0  0  0  0  0
   11.8365   26.1234   11.5971 C   0  0  0  0  0  0  0  0  0  0  0  0
   12.2798   27.3552   12.1319 C   0  0  0  0  0  0  0  0  0  0  0  0
   12.6247   28.5376   11.5472 C   0  0  0  0  0  0  0  0  0  0  0  0
   11.8932   25.6334   14.7504 H   0  0  0  0  0  0  0  0  0  0  0  0
   12.2517   26.3137    5.2869 C   0  0  0  0  0  0  0  0  0  0  0  0
    8.7320   23.8959    4.5995 C   0  0  0  0  0  0  0  0  0  0  0  0
    9.4609   24.3901    3.5201 C   0  0  0  0  0  0  0  0  0  0  0  0
   10.5963   25.1716    3.7422 C   0  0  0  0  0  0  0  0  0  0  0  0
   11.0202   25.4644    5.0473 C   0  0  0  0  0  0  0  0  0  0  0  0
   10.2703   24.9671    6.1241 C   0  0  0  0  0  0  0  0  0  0  0  0
    9.1350   24.1856    5.9011 C   0  0  0  0  0  0  0  0  0  0  0  0
 21 22  2  0
 22 23  1  0
 23 24  2  0
 24 20  1  0
 20  1  1  0
  1  2  1  0
  2  3  1  0
  3  4  1  0
  4  7  1  0
  7  8  1  0
  8  9  2  0
  9 10  1  0
 10 11  2  0
 11 12  1  0
 12 13  2  0
 13 14  1  0
 14 15  1  0
 15 16  2  0
 16 17  1  0
 17 18  2  0
  4  5  1  0
  5  6  1  0
 24 25  1  0
 25 26  2  0
 26 21  1  0
  6  1  1  0
 18  7  1  0
 18 10  1  0
 17 13  1  0
 14 19  1  0
M  END
> <minimizedAffinity>
-8.69529

> <CNNscore>
0.9605486393

> <CNNaffinity>
7.6164951324

> <CNN_VS>
7.3160138130

> <CNNaffinity_variance>
0.0331211090

$$$$



 26 30  0  0  0  0  0  0  0  0999 V2000
   11.6487   26.0321    6.9112 N   0  0  0  0  0  0  0  0  0  0  0  0
   10.6121   25.9872    7.9459 C   0  0  0  0  0  0  0  0  0  0  0  0
   10.7397   27.1013    8.9940 C   0  0  0  0  0  0  0  0  0  0  0  0
   12.1843   27.5915    9.1114 C   0  0  0  0  0  0  0  0  0  0  0  0
   12.8018   28.0071    7.7675 C   0  0  0  0  0  0  0  0  0  0  0  0
   12.0699   27.3855    6.5749 C   0  0  0  0  0  0  0  0  0  0  0  0
   12.3904   28.5563   10.1824 N   0  0  0  0  0  0  0  0  0  0  0  0
   12.5706   29.9024    9.9116 C   0  0  0  0  0  0  0  0  0  0  0  0
   12.7794   30.6150   10.9961 N   0  0  0  0  0  0  0  0  0  0  0  0
   12.7302   29.7086   12.0227 C   0  0  0  0  0  0  0  0  0  0  0  0
   12.8824   29.8761   13.4114 C   0  0  0  0  0  0  0  0  0  0  0  0
   12.7967   28.8383   14.2974 N   0  0  0  0  0  0  0  0  0  0  0  0
   12.5500   27.6416   13.7391 C   0  0  0  0  0  0  0  0  0  0  0  0
   12.4093   26.4476   14.3877 N   0  0  0  0  0  0  0  0  0  0  0  0
   12.1533   25.4524   13.4685 C   0  0  0  0  0  0  0  0  0  0  0  0
   12.1315   26.0158   12.2029 C   0  0  0  0  0  0  0  0  0  0  0  0
   12.3886   27.3932   12.3936 C   0  0  0  0  0  0  0  0  0  0  0  0
   12.4839   28.4374   11.5221 C   0  0  0  0  0  0  0  0  0  0  0  0
   12.4799   26.3178   15.3610 H   0  0  0  0  0  0  0  0  0  0  0  0
   11.3661   25.1742    5.7511 C   0  0  0  0  0  0  0  0  0  0  0  0
   10.7892   27.1517    1.9480 C   0  0  0  0  0  0  0  0  0  0  0  0
    9.7385   26.4521    2.5374 C   0  0  0  0  0  0  0  0  0  0  0  0
    9.9253   25.8127    3.7644 C   0  0  0  0  0  0  0  0  0  0  0  0
   11.1644   25.8695    4.4204 C   0  0  0  0  0  0  0  0  0  0  0  0
   12.2156   26.5703    3.8097 C   0  0  0  0  0  0  0  0  0  0  0  0
   12.0279   27.2094    2.5826 C   0  0  0  0  0  0  0  0  0  0  0  0
 21 22  2  0
 22 23  1  0
 23 24  2  0
 24 20  1  0
 20  1  1  0
  1  2  1  0
  2  3  1  0
  3  4  1  0
  4  7  1  0
  7  8  1  0
  8  9  2  0
  9 10  1  0
 10 11  2  0
 11 12  1  0
 12 13  2  0
 13 14  1  0
 14 15  1  0
 15 16  2  0
 16 17  1  0
 17 18  2  0
  4  5  1  0
  5  6  1  0
 24 25  1  0
 25 26  2  0
 26 21  1  0
  6  1  1  0
 18  7  1  0
 18 10  1  0
 17 13  1  0
 14 19  1  0
M  END
> <minimizedAffinity>
-8.92654

> <CNNscore>
0.9389973283

> <CNNaffinity>
7.4165167809

> <CNN_VS>
6.9640893936

> <CNNaffinity_variance>
0.0241703317

$$$$



 26 30  0  0  0  0  0  0  0  0999 V2000
   11.8107   24.5762    7.4650 N   0  0  0  0  0  0  0  0  0  0  0  0
   13.1808   24.7934    7.9367 C   0  0  0  0  0  0  0  0  0  0  0  0
   13.3701   26.1171    8.6902 C   0  0  0  0  0  0  0  0  0  0  0  0
   12.3343   27.1566    8.2570 C   0  0  0  0  0  0  0  0  0  0  0  0
   10.8854   26.6548    8.3522 C   0  0  0  0  0  0  0  0  0  0  0  0
   10.7992   25.1261    8.3576 C   0  0  0  0  0  0  0  0  0  0  0  0
   12.5456   28.4733    8.8417 N   0  0  0  0  0  0  0  0  0  0  0  0
   12.7895   29.5811    8.0473 C   0  0  0  0  0  0  0  0  0  0  0  0
   12.9925   30.6740    8.7487 N   0  0  0  0  0  0  0  0  0  0  0  0
   12.8733   30.2764   10.0547 C   0  0  0  0  0  0  0  0  0  0  0  0
   12.9877   31.0009   11.2553 C   0  0  0  0  0  0  0  0  0  0  0  0
   12.8312   30.4264   12.4861 N   0  0  0  0  0  0  0  0  0  0  0  0
   12.5535   29.1122   12.4616 C   0  0  0  0  0  0  0  0  0  0  0  0
   12.3432   28.2984   13.5385 N   0  0  0  0  0  0  0  0  0  0  0  0
   12.0760   27.0182   13.1021 C   0  0  0  0  0  0  0  0  0  0  0  0
   12.1179   27.0063   11.7172 C   0  0  0  0  0  0  0  0  0  0  0  0
   12.4251   28.3322   11.3333 C   0  0  0  0  0  0  0  0  0  0  0  0
   12.5911   28.9184   10.1135 C   0  0  0  0  0  0  0  0  0  0  0  0
   12.3772   28.5822   14.4806 H   0  0  0  0  0  0  0  0  0  0  0  0
   11.5483   23.2002    7.0184 C   0  0  0  0  0  0  0  0  0  0  0  0
    8.4908   22.6705    4.0055 C   0  0  0  0  0  0  0  0  0  0  0  0
    8.7038   21.6830    4.9647 C   0  0  0  0  0  0  0  0  0  0  0  0
    9.6918   21.8536    5.9364 C   0  0  0  0  0  0  0  0  0  0  0  0
   10.4758   23.0170    5.9643 C   0  0  0  0  0  0  0  0  0  0  0  0
   10.2554   23.9984    4.9858 C   0  0  0  0  0  0  0  0  0  0  0  0
    9.2673   23.8269    4.0145 C   0  0  0  0  0  0  0  0  0  0  0  0
 21 22  2  0
 22 23  1  0
 23 24  2  0
 24 20  1  0
 20  1  1  0
  1  2  1  0
  2  3  1  0
  3  4  1  0
  4  7  1  0
  7  8  1  0
  8  9  2  0
  9 10  1  0
 10 11  2  0
 11 12  1  0
 12 13  2  0
 13 14  1  0
 14 15  1  0
 15 16  2  0
 16 17  1  0
 17 18  2  0
  4  5  1  0
  5  6  1  0
 24 25  1  0
 25 26  2  0
 26 21  1  0
  6  1  1  0
 18  7  1  0
 18 10  1  0
 17 13  1  0
 14 19  1  0
M  END
> <minimizedAffinity>
-8.71689

> <CNNscore>
0.9018875957

> <CNNaffinity>
7.4419016838

> <CNN_VS>
6.7117586136

> <CNNaffinity_variance>
0.2379978299

$$$$



 26 30  0  0  0  0  0  0  0  0999 V2000
   10.9413   25.1620    7.6883 N   0  0  0  0  0  0  0  0  0  0  0  0
   11.4887   26.5156    7.8119 C   0  0  0  0  0  0  0  0  0  0  0  0
   12.0688   26.8208    9.1998 C   0  0  0  0  0  0  0  0  0  0  0  0
   11.4164   25.9535   10.2782 C   0  0  0  0  0  0  0  0  0  0  0  0
   11.4610   24.4500    9.9657 C   0  0  0  0  0  0  0  0  0  0  0  0
   11.6664   24.1725    8.4740 C   0  0  0  0  0  0  0  0  0  0  0  0
   11.8326   26.2904   11.6323 N   0  0  0  0  0  0  0  0  0  0  0  0
   11.8227   25.3439   12.6431 C   0  0  0  0  0  0  0  0  0  0  0  0
   12.1935   25.8367   13.8038 N   0  0  0  0  0  0  0  0  0  0  0  0
   12.4640   27.1562   13.5511 C   0  0  0  0  0  0  0  0  0  0  0  0
   12.8998   28.1894   14.4009 C   0  0  0  0  0  0  0  0  0  0  0  0
   13.1232   29.4653   13.9631 N   0  0  0  0  0  0  0  0  0  0  0  0
   12.8987   29.6571   12.6525 C   0  0  0  0  0  0  0  0  0  0  0  0
   13.0493   30.8232   11.9570 N   0  0  0  0  0  0  0  0  0  0  0  0
   12.7313   30.6126   10.6321 C   0  0  0  0  0  0  0  0  0  0  0  0
   12.3660   29.2857   10.4716 C   0  0  0  0  0  0  0  0  0  0  0  0
   12.4726   28.7024   11.7553 C   0  0  0  0  0  0  0  0  0  0  0  0
   12.2474   27.4364   12.2088 C   0  0  0  0  0  0  0  0  0  0  0  0
   13.3399   31.6813   12.3423 H   0  0  0  0  0  0  0  0  0  0  0  0
   10.6654   24.7582    6.3018 C   0  0  0  0  0  0  0  0  0  0  0  0
   12.1919   27.3262    3.1743 C   0  0  0  0  0  0  0  0  0  0  0  0
   10.8465   26.9651    3.1862 C   0  0  0  0  0  0  0  0  0  0  0  0
   10.3542   26.1350    4.1951 C   0  0  0  0  0  0  0  0  0  0  0  0
   11.2006   25.6598    5.2084 C   0  0  0  0  0  0  0  0  0  0  0  0
   12.5552   26.0248    5.1775 C   0  0  0  0  0  0  0  0  0  0  0  0
   13.0467   26.8549    4.1682 C   0  0  0  0  0  0  0  0  0  0  0  0
 21 22  2  0
 22 23  1  0
 23 24  2  0
 24 20  1  0
 20  1  1  0
  1  2  1  0
  2  3  1  0
  3  4  1  0
  4  7  1  0
  7  8  1  0
  8  9  2  0
  9 10  1  0
 10 11  2  0
 11 12  1  0
 12 13  2  0
 13 14  1  0
 14 15  1  0
 15 16  2  0
 16 17  1  0
 17 18  2  0
  4  5  1  0
  5  6  1  0
 24 25  1  0
 25 26  2  0
 26 21  1  0
  6  1  1  0
 18  7  1  0
 18 10  1  0
 17 13  1  0
 14 19  1  0
M  END
> <minimizedAffinity>
-9.39785

> <CNNscore>
0.8873778582

> <CNNaffinity>
7.3118863106

> <CNN_VS>
6.4884061813

> <CNNaffinity_variance>
0.0067246319

$$$$



 26 30  0  0  0  0  0  0  0  0999 V2000
   11.5404   24.2710    8.1253 N   0  0  0  0  0  0  0  0  0  0  0  0
   12.5383   25.2792    7.7580 C   0  0  0  0  0  0  0  0  0  0  0  0
   12.9764   26.1676    8.9305 C   0  0  0  0  0  0  0  0  0  0  0  0
   11.8888   26.2484   10.0035 C   0  0  0  0  0  0  0  0  0  0  0  0
   11.4018   24.8741   10.4876 C   0  0  0  0  0  0  0  0  0  0  0  0
   11.7062   23.7620    9.4801 C   0  0  0  0  0  0  0  0  0  0  0  0
   12.1946   27.1817   11.0787 N   0  0  0  0  0  0  0  0  0  0  0  0
   12.2715   26.7600   12.3955 C   0  0  0  0  0  0  0  0  0  0  0  0
   12.5193   27.7445   13.2303 N   0  0  0  0  0  0  0  0  0  0  0  0
   12.6154   28.8576   12.4366 C   0  0  0  0  0  0  0  0  0  0  0  0
   12.8663   30.2039   12.7595 C   0  0  0  0  0  0  0  0  0  0  0  0
   12.9300   31.1931   11.8177 N   0  0  0  0  0  0  0  0  0  0  0  0
   12.7388   30.7790   10.5540 C   0  0  0  0  0  0  0  0  0  0  0  0
   12.7569   31.5505    9.4269 N   0  0  0  0  0  0  0  0  0  0  0  0
   12.5295   30.7568    8.3228 C   0  0  0  0  0  0  0  0  0  0  0  0
   12.3587   29.4490    8.7471 C   0  0  0  0  0  0  0  0  0  0  0  0
   12.4886   29.4844   10.1548 C   0  0  0  0  0  0  0  0  0  0  0  0
   12.4211   28.5104   11.1066 C   0  0  0  0  0  0  0  0  0  0  0  0
   12.9088   32.5230    9.4062 H   0  0  0  0  0  0  0  0  0  0  0  0
   11.3418   23.2332    7.1029 C   0  0  0  0  0  0  0  0  0  0  0  0
    7.3003   22.6602    5.6729 C   0  0  0  0  0  0  0  0  0  0  0  0
    8.2650   23.2150    4.8350 C   0  0  0  0  0  0  0  0  0  0  0  0
    9.5693   23.4012    5.2972 C   0  0  0  0  0  0  0  0  0  0  0  0
    9.9266   23.0295    6.6022 C   0  0  0  0  0  0  0  0  0  0  0  0
    8.9415   22.4805    7.4372 C   0  0  0  0  0  0  0  0  0  0  0  0
    7.6375   22.2947    6.9742 C   0  0  0  0  0  0  0  0  0  0  0  0
 21 22  2  0
 22 23  1  0
 23 24  2  0
 24 20  1  0
 20  1  1  0
  1  2  1  0
  2  3  1  0
  3  4  1  0
  4  7  1  0
  7  8  1  0
  8  9  2  0
  9 10  1  0
 10 11  2  0
 11 12  1  0
 12 13  2  0
 13 14  1  0
 14 15  1  0
 15 16  2  0
 16 17  1  0
 17 18  2  0
  4  5  1  0
  5  6  1  0
 24 25  1  0
 25 26  2  0
 26 21  1  0
  6  1  1  0
 18  7  1  0
 18 10  1  0
 17 13  1  0
 14 19  1  0
M  END
> <minimizedAffinity>
-8.89220

> <CNNscore>
0.8842151165

> <CNNaffinity>
7.2987580299

> <CNN_VS>
6.4536724091

> <CNNaffinity_variance>
0.0293183941

$$$$



 26 30  0  0  0  0  0  0  0  0999 V2000
   11.6179   24.8880    9.3431 N   0  0  0  0  0  0  0  0  0  0  0  0
   11.4474   24.7355   10.7904 C   0  0  0  0  0  0  0  0  0  0  0  0
   11.5554   26.0559   11.5656 C   0  0  0  0  0  0  0  0  0  0  0  0
   12.4050   27.0779   10.8075 C   0  0  0  0  0  0  0  0  0  0  0  0
   11.9410   27.3085    9.3612 C   0  0  0  0  0  0  0  0  0  0  0  0
   11.0957   26.1475    8.8302 C   0  0  0  0  0  0  0  0  0  0  0  0
   12.6517   28.3036   11.5538 N   0  0  0  0  0  0  0  0  0  0  0  0
   12.8894   28.2784   12.9178 C   0  0  0  0  0  0  0  0  0  0  0  0
   13.0531   29.4791   13.4270 N   0  0  0  0  0  0  0  0  0  0  0  0
   12.9245   30.3297   12.3602 C   0  0  0  0  0  0  0  0  0  0  0  0
   12.9993   31.7326   12.2828 C   0  0  0  0  0  0  0  0  0  0  0  0
   12.8457   32.4200   11.1109 N   0  0  0  0  0  0  0  0  0  0  0  0
   12.6217   31.6500   10.0330 C   0  0  0  0  0  0  0  0  0  0  0  0
   12.4408   32.0729    8.7467 N   0  0  0  0  0  0  0  0  0  0  0  0
   12.2489   30.9813    7.9266 C   0  0  0  0  0  0  0  0  0  0  0  0
   12.3042   29.8331    8.7001 C   0  0  0  0  0  0  0  0  0  0  0  0
   12.5342   30.2751   10.0235 C   0  0  0  0  0  0  0  0  0  0  0  0
   12.6826   29.6046   11.2014 C   0  0  0  0  0  0  0  0  0  0  0  0
   12.4467   33.0119    8.4509 H   0  0  0  0  0  0  0  0  0  0  0  0
   11.2197   23.7019    8.5709 C   0  0  0  0  0  0  0  0  0  0  0  0
    9.3049   24.4015    4.7564 C   0  0  0  0  0  0  0  0  0  0  0  0
    8.5346   24.1239    5.8834 C   0  0  0  0  0  0  0  0  0  0  0  0
    9.1530   23.8967    7.1144 C   0  0  0  0  0  0  0  0  0  0  0  0
   10.5499   23.9498    7.2349 C   0  0  0  0  0  0  0  0  0  0  0  0
   11.3126   24.2216    6.0887 C   0  0  0  0  0  0  0  0  0  0  0  0
   10.6934   24.4486    4.8581 C   0  0  0  0  0  0  0  0  0  0  0  0
 21 22  2  0
 22 23  1  0
 23 24  2  0
 24 20  1  0
 20  1  1  0
  1  2  1  0
  2  3  1  0
  3  4  1  0
  4  7  1  0
  7  8  1  0
  8  9  2  0
  9 10  1  0
 10 11  2  0
 11 12  1  0
 12 13  2  0
 13 14  1  0
 14 15  1  0
 15 16  2  0
 16 17  1  0
 17 18  2  0
  4  5  1  0
  5  6  1  0
 24 25  1  0
 25 26  2  0
 26 21  1  0
  6  1  1  0
 18  7  1  0
 18 10  1  0
 17 13  1  0
 14 19  1  0
M  END
> <minimizedAffinity>
-7.69369

> <CNNscore>
0.7481776476

> <CNNaffinity>
7.2264747620

> <CNN_VS>
5.4066867828

> <CNNaffinity_variance>
0.0822608396

$$$$



 26 30  0  0  0  0  0  0  0  0999 V2000
   11.8663   27.5934    6.0936 N   0  0  0  0  0  0  0  0  0  0  0  0
   13.1309   27.9270    6.7544 C   0  0  0  0  0  0  0  0  0  0  0  0
   13.2537   27.3551    8.1735 C   0  0  0  0  0  0  0  0  0  0  0  0
   11.8777   27.1319    8.8041 C   0  0  0  0  0  0  0  0  0  0  0  0
   10.9347   26.2867    7.9343 C   0  0  0  0  0  0  0  0  0  0  0  0
   11.3521   26.2809    6.4612 C   0  0  0  0  0  0  0  0  0  0  0  0
   11.9327   26.7142   10.1979 N   0  0  0  0  0  0  0  0  0  0  0  0
   11.6608   25.4075   10.5673 C   0  0  0  0  0  0  0  0  0  0  0  0
   11.7220   25.2241   11.8674 N   0  0  0  0  0  0  0  0  0  0  0  0
   12.0517   26.4529   12.3768 C   0  0  0  0  0  0  0  0  0  0  0  0
   12.2570   26.8790   13.7019 C   0  0  0  0  0  0  0  0  0  0  0  0
   12.5887   28.1657   14.0242 N   0  0  0  0  0  0  0  0  0  0  0  0
   12.7093   28.9949   12.9741 C   0  0  0  0  0  0  0  0  0  0  0  0
   13.0365   30.3207   13.0097 N   0  0  0  0  0  0  0  0  0  0  0  0
   13.0693   30.8207   11.7253 C   0  0  0  0  0  0  0  0  0  0  0  0
   12.7542   29.7979   10.8454 C   0  0  0  0  0  0  0  0  0  0  0  0
   12.5256   28.6583   11.6508 C   0  0  0  0  0  0  0  0  0  0  0  0
   12.1882   27.3728   11.3461 C   0  0  0  0  0  0  0  0  0  0  0  0
   13.2206   30.8389   13.8262 H   0  0  0  0  0  0  0  0  0  0  0  0
   11.8611   27.8689    4.6495 C   0  0  0  0  0  0  0  0  0  0  0  0
   14.4385   31.0561    3.2690 C   0  0  0  0  0  0  0  0  0  0  0  0
   14.7791   29.7276    3.0243 C   0  0  0  0  0  0  0  0  0  0  0  0
   13.9477   28.6989    3.4712 C   0  0  0  0  0  0  0  0  0  0  0  0
   12.7618   28.9862    4.1640 C   0  0  0  0  0  0  0  0  0  0  0  0
   12.4371   30.3289    4.4107 C   0  0  0  0  0  0  0  0  0  0  0  0
   13.2691   31.3570    3.9635 C   0  0  0  0  0  0  0  0  0  0  0  0
 21 22  2  0
 22 23  1  0
 23 24  2  0
 24 20  1  0
 20  1  1  0
  1  2  1  0
  2  3  1  0
  3  4  1  0
  4  7  1  0
  7  8  1  0
  8  9  2  0
  9 10  1  0
 10 11  2  0
 11 12  1  0
 12 13  2  0
 13 14  1  0
 14 15  1  0
 15 16  2  0
 16 17  1  0
 17 18  2  0
  4  5  1  0
  5  6  1  0
 24 25  1  0
 25 26  2  0
 26 21  1  0
  6  1  1  0
 18  7  1  0
 18 10  1  0
 17 13  1  0
 14 19  1  0
M  END
> <minimizedAffinity>
-9.11766

> <CNNscore>
0.6631574631

> <CNNaffinity>
6.9601230621

> <CNN_VS>
4.6156573296

> <CNNaffinity_variance>
0.0188699365

$$$$
