


 46 46  0  0  0  0  0  0  0  0999 V2000
   36.6753   41.9553   -2.9365 C   0  0  0  0  0  0  0  0  0  0  0  0
   37.5782   39.6346   -2.8705 N   0  0  0  0  0  0  0  0  0  0  0  0
   37.8397   40.9464   -3.1994 C   0  0  0  0  0  0  0  0  0  0  0  0
   38.9431   41.3340   -3.5723 O   0  0  0  0  0  0  0  0  0  0  0  0
   36.6683   39.4108   -2.5684 H   0  0  0  0  0  0  0  0  0  0  0  0
   38.5594   38.5498   -2.9390 C   0  0  0  0  0  0  0  0  0  0  0  0
   37.9980   37.2117   -2.3751 C   0  0  0  0  0  0  0  0  0  0  0  0
   38.3466   35.9222   -3.1802 C   0  0  0  0  0  0  0  0  0  0  0  0
   38.2546   36.1085   -4.7086 C   0  0  0  0  0  0  0  0  0  0  0  0
   37.2866   34.8414   -2.8101 C   0  0  0  0  0  0  0  0  0  0  0  0
   39.7431   35.3102   -2.7815 C   0  0  0  0  0  0  0  0  0  0  0  0
   39.9411   34.1464   -1.7499 C   0  0  0  0  0  0  0  0  0  0  0  0
   38.9011   34.1928   -0.6043 C   0  0  0  0  0  0  0  0  0  0  0  0
   39.8076   32.7583   -2.4206 C   0  0  0  0  0  0  0  0  0  0  0  0
   41.3413   34.2633   -1.0375 C   0  0  0  0  0  0  0  0  0  0  0  0
   41.5926   34.9912    0.3227 C   0  0  0  0  0  0  0  0  0  0  0  0
   43.0246   35.5862    0.2522 C   0  0  0  0  0  0  0  0  0  0  0  0
   41.5619   34.0232    1.5272 C   0  0  0  0  0  0  0  0  0  0  0  0
   40.6243   36.1491    0.5840 C   0  0  0  0  0  0  0  0  0  0  0  0
   39.8965   38.9034   -2.2471 C   0  0  0  0  0  0  0  0  0  0  0  0
   42.1610   37.8431   -2.5120 C   0  0  0  0  0  0  0  0  0  0  0  0
   41.1675   38.8408   -3.1189 C   0  0  0  0  0  0  0  0  0  0  0  0
   40.8737   38.4602   -4.5742 C   0  0  0  0  0  0  0  0  0  0  0  0
   35.6779   41.7620   -4.0006 N   0  0  0  0  0  0  0  0  0  0  0  0
   34.8705   42.3376   -3.7617 H   0  0  0  0  0  0  0  0  0  0  0  0
   36.0837   42.1223   -5.5404 P   0  0  0  0  0  0  0  0  0  0  0  0
   37.2258   43.0677   -5.7567 O   0  0  0  0  0  0  0  0  0  0  0  0
   36.4073   40.6823   -6.1864 O   0  0  0  0  0  0  0  0  0  0  0  0
   37.2165   40.3242   -5.7892 H   0  0  0  0  0  0  0  0  0  0  0  0
   34.5616   42.6400   -6.3845 C   0  0  0  0  0  0  0  0  0  0  0  0
   34.7185   42.6955   -7.8274 N   0  0  0  0  0  0  0  0  0  0  0  0
   33.6856   43.0018   -8.6546 C   0  0  0  0  0  0  0  0  0  0  0  0
   32.5797   43.3566   -8.2693 O   0  0  0  0  0  0  0  0  0  0  0  0
   35.6018   42.5052   -8.2184 H   0  0  0  0  0  0  0  0  0  0  0  0
   34.0673   42.8194   -9.9329 O   0  0  0  0  0  0  0  0  0  0  0  0
   33.7193   43.8690  -10.8408 C   0  0  0  0  0  0  0  0  0  0  0  0
   33.2866   43.2339  -12.1364 C   0  0  0  0  0  0  0  0  0  0  0  0
   33.1954   43.9893  -13.3136 C   0  0  0  0  0  0  0  0  0  0  0  0
   32.8111   43.3850  -14.5135 C   0  0  0  0  0  0  0  0  0  0  0  0
   32.5177   42.0225  -14.5519 C   0  0  0  0  0  0  0  0  0  0  0  0
   32.6113   41.2618  -13.3902 C   0  0  0  0  0  0  0  0  0  0  0  0
   32.9981   41.8610  -12.1876 C   0  0  0  0  0  0  0  0  0  0  0  0
   36.0478   41.8903   -1.5259 C   0  0  0  0  0  0  0  0  0  0  0  0
   36.4495   42.9632   -0.4919 C   0  0  0  0  0  0  0  0  0  0  0  0
   37.1268   42.2775    0.7036 C   0  0  0  0  0  0  0  0  0  0  0  0
   37.3707   44.0499   -1.0442 C   0  0  0  0  0  0  0  0  0  0  0  0
 21 22  1  0
 22 23  1  0
 22 20  1  0
  6 20  1  0
  6  7  1  0
  7  8  1  0
  8  9  1  0
  8 10  1  0
  8 11  1  0
 11 12  1  0
 12 13  1  0
 12 14  1  0
 12 15  1  0
 15 16  1  0
 16 17  1  0
 16 18  1  0
 16 19  1  0
  6  2  1  0
  2  3  1  0
  3  4  2  0
  3  1  1  0
  1 43  1  0
 43 44  1  0
 44 45  1  0
 44 46  1  0
  1 24  1  0
 24 26  1  0
 26 27  2  0
 26 28  1  0
 26 30  1  0
 30 31  1  0
 31 32  1  0
 32 33  2  0
 32 35  1  0
 35 36  1  0
 36 37  1  0
 37 38  2  0
 38 39  1  0
 39 40  2  0
 40 41  1  0
 41 42  2  0
 42 37  1  0
  2  5  1  0
 24 25  1  0
 28 29  1  0
 31 34  1  0
M  END
> <minimizedAffinity>
-8.36059

> <CNNscore>
0.8550751209

> <CNNaffinity>
7.8813095093

> <CNN_VS>
6.7391119003

> <CNNaffinity_variance>
0.4111773968

$$$$



 46 46  0  0  0  0  0  0  0  0999 V2000
   36.7386   41.9627   -2.9296 C   0  0  0  0  0  0  0  0  0  0  0  0
   37.5910   39.6611   -3.3553 N   0  0  0  0  0  0  0  0  0  0  0  0
   37.9115   40.9998   -3.3038 C   0  0  0  0  0  0  0  0  0  0  0  0
   39.0586   41.4171   -3.4326 O   0  0  0  0  0  0  0  0  0  0  0  0
   36.6472   39.4109   -3.2297 H   0  0  0  0  0  0  0  0  0  0  0  0
   38.5566   38.5842   -3.5840 C   0  0  0  0  0  0  0  0  0  0  0  0
   39.7717   38.6674   -2.6143 C   0  0  0  0  0  0  0  0  0  0  0  0
   40.2876   37.3142   -2.0353 C   0  0  0  0  0  0  0  0  0  0  0  0
   39.7015   36.0778   -2.7475 C   0  0  0  0  0  0  0  0  0  0  0  0
   39.8098   37.2290   -0.5544 C   0  0  0  0  0  0  0  0  0  0  0  0
   41.8605   37.2291   -1.9860 C   0  0  0  0  0  0  0  0  0  0  0  0
   42.7924   37.2725   -3.2460 C   0  0  0  0  0  0  0  0  0  0  0  0
   42.6802   35.9896   -4.1049 C   0  0  0  0  0  0  0  0  0  0  0  0
   42.4474   38.4634   -4.1721 C   0  0  0  0  0  0  0  0  0  0  0  0
   44.3067   37.3489   -2.8189 C   0  0  0  0  0  0  0  0  0  0  0  0
   45.4270   38.0776   -3.6295 C   0  0  0  0  0  0  0  0  0  0  0  0
   46.7686   37.7702   -2.9117 C   0  0  0  0  0  0  0  0  0  0  0  0
   45.2540   39.6134   -3.6304 C   0  0  0  0  0  0  0  0  0  0  0  0
   45.5537   37.5856   -5.0747 C   0  0  0  0  0  0  0  0  0  0  0  0
   39.0450   38.5152   -5.0497 C   0  0  0  0  0  0  0  0  0  0  0  0
   37.6237   37.3424   -6.7605 C   0  0  0  0  0  0  0  0  0  0  0  0
   38.8080   37.1879   -5.7990 C   0  0  0  0  0  0  0  0  0  0  0  0
   40.0434   36.7103   -6.5704 C   0  0  0  0  0  0  0  0  0  0  0  0
   35.7084   41.8253   -3.9708 N   0  0  0  0  0  0  0  0  0  0  0  0
   34.9565   42.4729   -3.7346 H   0  0  0  0  0  0  0  0  0  0  0  0
   36.1131   42.1089   -5.5268 P   0  0  0  0  0  0  0  0  0  0  0  0
   37.2468   43.0524   -5.7907 O   0  0  0  0  0  0  0  0  0  0  0  0
   36.4509   40.6404   -6.0968 O   0  0  0  0  0  0  0  0  0  0  0  0
   37.2627   40.3109   -5.6807 H   0  0  0  0  0  0  0  0  0  0  0  0
   34.5875   42.5680   -6.3982 C   0  0  0  0  0  0  0  0  0  0  0  0
   34.7986   42.7619   -7.8221 N   0  0  0  0  0  0  0  0  0  0  0  0
   33.7752   43.0328   -8.6732 C   0  0  0  0  0  0  0  0  0  0  0  0
   32.6232   43.2412   -8.3171 O   0  0  0  0  0  0  0  0  0  0  0  0
   35.7125   42.6948   -8.1819 H   0  0  0  0  0  0  0  0  0  0  0  0
   34.2274   42.9992   -9.9410 O   0  0  0  0  0  0  0  0  0  0  0  0
   33.5836   43.8931  -10.8540 C   0  0  0  0  0  0  0  0  0  0  0  0
   33.2224   43.1102  -12.0892 C   0  0  0  0  0  0  0  0  0  0  0  0
   32.9518   41.7367  -12.0179 C   0  0  0  0  0  0  0  0  0  0  0  0
   32.5993   41.0248  -13.1675 C   0  0  0  0  0  0  0  0  0  0  0  0
   32.5100   41.6755  -14.3974 C   0  0  0  0  0  0  0  0  0  0  0  0
   32.7703   43.0403  -14.4784 C   0  0  0  0  0  0  0  0  0  0  0  0
   33.1205   43.7578  -13.3306 C   0  0  0  0  0  0  0  0  0  0  0  0
   36.1623   41.7836   -1.5071 C   0  0  0  0  0  0  0  0  0  0  0  0
   36.5006   42.8435   -0.4375 C   0  0  0  0  0  0  0  0  0  0  0  0
   37.0352   42.1363    0.8164 C   0  0  0  0  0  0  0  0  0  0  0  0
   37.5084   43.8959   -0.8970 C   0  0  0  0  0  0  0  0  0  0  0  0
 21 22  1  0
 22 23  1  0
 22 20  1  0
  6 20  1  0
  6  7  1  0
  7  8  1  0
  8  9  1  0
  8 10  1  0
  8 11  1  0
 11 12  1  0
 12 13  1  0
 12 14  1  0
 12 15  1  0
 15 16  1  0
 16 17  1  0
 16 18  1  0
 16 19  1  0
  6  2  1  0
  2  3  1  0
  3  4  2  0
  3  1  1  0
  1 43  1  0
 43 44  1  0
 44 45  1  0
 44 46  1  0
  1 24  1  0
 24 26  1  0
 26 27  2  0
 26 28  1  0
 26 30  1  0
 30 31  1  0
 31 32  1  0
 32 33  2  0
 32 35  1  0
 35 36  1  0
 36 37  1  0
 37 38  2  0
 38 39  1  0
 39 40  2  0
 40 41  1  0
 41 42  2  0
 42 37  1  0
  2  5  1  0
 24 25  1  0
 28 29  1  0
 31 34  1  0
M  END
> <minimizedAffinity>
-8.72832

> <CNNscore>
0.7714530826

> <CNNaffinity>
7.9225502014

> <CNN_VS>
6.1118760109

> <CNNaffinity_variance>
0.5831258297

$$$$



 46 46  0  0  0  0  0  0  0  0999 V2000
   36.8115   41.9275   -3.4526 C   0  0  0  0  0  0  0  0  0  0  0  0
   37.5908   39.6069   -3.9142 N   0  0  0  0  0  0  0  0  0  0  0  0
   37.9736   40.8933   -3.6041 C   0  0  0  0  0  0  0  0  0  0  0  0
   39.1346   41.2020   -3.3524 O   0  0  0  0  0  0  0  0  0  0  0  0
   36.6361   39.4430   -4.0906 H   0  0  0  0  0  0  0  0  0  0  0  0
   38.5049   38.4662   -3.9997 C   0  0  0  0  0  0  0  0  0  0  0  0
   39.3665   38.3045   -2.7131 C   0  0  0  0  0  0  0  0  0  0  0  0
   38.7142   37.5105   -1.5399 C   0  0  0  0  0  0  0  0  0  0  0  0
   37.7791   36.3773   -2.0099 C   0  0  0  0  0  0  0  0  0  0  0  0
   37.8207   38.5078   -0.7426 C   0  0  0  0  0  0  0  0  0  0  0  0
   39.7724   36.9614   -0.5091 C   0  0  0  0  0  0  0  0  0  0  0  0
   40.3885   35.5203   -0.5510 C   0  0  0  0  0  0  0  0  0  0  0  0
   39.6316   34.5303    0.3672 C   0  0  0  0  0  0  0  0  0  0  0  0
   40.3530   34.9242   -1.9786 C   0  0  0  0  0  0  0  0  0  0  0  0
   41.8688   35.5294   -0.0123 C   0  0  0  0  0  0  0  0  0  0  0  0
   43.1319   35.8411   -0.8786 C   0  0  0  0  0  0  0  0  0  0  0  0
   42.6962   36.8826   -1.9438 C   0  0  0  0  0  0  0  0  0  0  0  0
   43.6480   34.5999   -1.6415 C   0  0  0  0  0  0  0  0  0  0  0  0
   44.2854   36.4543   -0.0785 C   0  0  0  0  0  0  0  0  0  0  0  0
   39.4137   38.5158   -5.2499 C   0  0  0  0  0  0  0  0  0  0  0  0
   41.1037   36.6756   -5.5325 C   0  0  0  0  0  0  0  0  0  0  0  0
   39.7129   37.1717   -5.9451 C   0  0  0  0  0  0  0  0  0  0  0  0
   38.6658   36.0956   -5.6370 C   0  0  0  0  0  0  0  0  0  0  0  0
   35.7569   41.5456   -4.4046 N   0  0  0  0  0  0  0  0  0  0  0  0
   34.8771   41.9080   -4.0372 H   0  0  0  0  0  0  0  0  0  0  0  0
   35.8707   42.0463   -5.9544 P   0  0  0  0  0  0  0  0  0  0  0  0
   36.9080   43.0778   -6.2787 O   0  0  0  0  0  0  0  0  0  0  0  0
   36.1510   40.6831   -6.7660 O   0  0  0  0  0  0  0  0  0  0  0  0
   37.0341   40.3496   -6.5428 H   0  0  0  0  0  0  0  0  0  0  0  0
   34.2008   42.5256   -6.4826 C   0  0  0  0  0  0  0  0  0  0  0  0
   34.1463   42.8897   -7.8877 N   0  0  0  0  0  0  0  0  0  0  0  0
   33.9236   41.9711   -8.8632 C   0  0  0  0  0  0  0  0  0  0  0  0
   33.6473   40.7980   -8.6513 O   0  0  0  0  0  0  0  0  0  0  0  0
   34.2748   43.8323   -8.1412 H   0  0  0  0  0  0  0  0  0  0  0  0
   34.0884   42.5495  -10.0680 O   0  0  0  0  0  0  0  0  0  0  0  0
   33.1729   42.1353  -11.0864 C   0  0  0  0  0  0  0  0  0  0  0  0
   33.2046   43.1673  -12.1832 C   0  0  0  0  0  0  0  0  0  0  0  0
   33.6209   44.4805  -11.9246 C   0  0  0  0  0  0  0  0  0  0  0  0
   33.6643   45.4243  -12.9542 C   0  0  0  0  0  0  0  0  0  0  0  0
   33.2966   45.0672  -14.2509 C   0  0  0  0  0  0  0  0  0  0  0  0
   32.8879   43.7643  -14.5200 C   0  0  0  0  0  0  0  0  0  0  0  0
   32.8455   42.8155  -13.4939 C   0  0  0  0  0  0  0  0  0  0  0  0
   36.2684   42.1086   -2.0173 C   0  0  0  0  0  0  0  0  0  0  0  0
   37.1505   42.8403   -0.9839 C   0  0  0  0  0  0  0  0  0  0  0  0
   36.9159   44.3529   -1.1070 C   0  0  0  0  0  0  0  0  0  0  0  0
   36.9130   42.4044    0.4611 C   0  0  0  0  0  0  0  0  0  0  0  0
 21 22  1  0
 22 23  1  0
 22 20  1  0
  6 20  1  0
  6  7  1  0
  7  8  1  0
  8  9  1  0
  8 10  1  0
  8 11  1  0
 11 12  1  0
 12 13  1  0
 12 14  1  0
 12 15  1  0
 15 16  1  0
 16 17  1  0
 16 18  1  0
 16 19  1  0
  6  2  1  0
  2  3  1  0
  3  4  2  0
  3  1  1  0
  1 43  1  0
 43 44  1  0
 44 45  1  0
 44 46  1  0
  1 24  1  0
 24 26  1  0
 26 27  2  0
 26 28  1  0
 26 30  1  0
 30 31  1  0
 31 32  1  0
 32 33  2  0
 32 35  1  0
 35 36  1  0
 36 37  1  0
 37 38  2  0
 38 39  1  0
 39 40  2  0
 40 41  1  0
 41 42  2  0
 42 37  1  0
  2  5  1  0
 24 25  1  0
 28 29  1  0
 31 34  1  0
M  END
> <minimizedAffinity>
-7.97994

> <CNNscore>
0.7654127479

> <CNNaffinity>
7.9631667137

> <CNN_VS>
6.0951094627

> <CNNaffinity_variance>
0.2145232409

$$$$



 46 46  0  0  0  0  0  0  0  0999 V2000
   36.4764   42.1885   -3.2541 C   0  0  0  0  0  0  0  0  0  0  0  0
   37.6513   40.0120   -3.5503 N   0  0  0  0  0  0  0  0  0  0  0  0
   37.7800   41.3834   -3.5629 C   0  0  0  0  0  0  0  0  0  0  0  0
   38.8598   41.9514   -3.6973 O   0  0  0  0  0  0  0  0  0  0  0  0
   36.7494   39.6377   -3.4248 H   0  0  0  0  0  0  0  0  0  0  0  0
   38.7627   39.0721   -3.7107 C   0  0  0  0  0  0  0  0  0  0  0  0
   38.2802   37.6602   -4.1550 C   0  0  0  0  0  0  0  0  0  0  0  0
   39.0555   37.0062   -5.3398 C   0  0  0  0  0  0  0  0  0  0  0  0
   38.3144   37.1064   -6.6889 C   0  0  0  0  0  0  0  0  0  0  0  0
   39.1855   35.4849   -5.0280 C   0  0  0  0  0  0  0  0  0  0  0  0
   40.5300   37.5451   -5.4784 C   0  0  0  0  0  0  0  0  0  0  0  0
   41.8156   36.6554   -5.3614 C   0  0  0  0  0  0  0  0  0  0  0  0
   41.8928   35.9086   -4.0078 C   0  0  0  0  0  0  0  0  0  0  0  0
   41.8690   35.5783   -6.4713 C   0  0  0  0  0  0  0  0  0  0  0  0
   43.1162   37.5427   -5.4148 C   0  0  0  0  0  0  0  0  0  0  0  0
   44.0384   37.8492   -4.1906 C   0  0  0  0  0  0  0  0  0  0  0  0
   43.1909   38.6813   -3.1911 C   0  0  0  0  0  0  0  0  0  0  0  0
   45.2640   38.7097   -4.5729 C   0  0  0  0  0  0  0  0  0  0  0  0
   44.5163   36.5927   -3.4560 C   0  0  0  0  0  0  0  0  0  0  0  0
   39.6454   38.9627   -2.4456 C   0  0  0  0  0  0  0  0  0  0  0  0
   37.5557   38.6228   -1.0892 C   0  0  0  0  0  0  0  0  0  0  0  0
   39.0323   38.2352   -1.2315 C   0  0  0  0  0  0  0  0  0  0  0  0
   39.1619   36.7107   -1.3225 C   0  0  0  0  0  0  0  0  0  0  0  0
   35.4918   41.8447   -4.2917 N   0  0  0  0  0  0  0  0  0  0  0  0
   34.6399   42.3640   -4.0792 H   0  0  0  0  0  0  0  0  0  0  0  0
   35.8546   42.1401   -5.8559 P   0  0  0  0  0  0  0  0  0  0  0  0
   36.9213   43.1520   -6.1443 O   0  0  0  0  0  0  0  0  0  0  0  0
   36.2777   40.6913   -6.4195 O   0  0  0  0  0  0  0  0  0  0  0  0
   37.1151   40.4182   -6.0132 H   0  0  0  0  0  0  0  0  0  0  0  0
   34.2900   42.4927   -6.7075 C   0  0  0  0  0  0  0  0  0  0  0  0
   34.4496   42.5782   -8.1487 N   0  0  0  0  0  0  0  0  0  0  0  0
   33.4538   43.0193   -8.9603 C   0  0  0  0  0  0  0  0  0  0  0  0
   32.3926   43.4770   -8.5582 O   0  0  0  0  0  0  0  0  0  0  0  0
   35.3069   42.3077   -8.5501 H   0  0  0  0  0  0  0  0  0  0  0  0
   33.8118   42.8390  -10.2457 O   0  0  0  0  0  0  0  0  0  0  0  0
   33.7316   43.9977  -11.0812 C   0  0  0  0  0  0  0  0  0  0  0  0
   33.3067   43.5480  -12.4546 C   0  0  0  0  0  0  0  0  0  0  0  0
   32.9354   42.2178  -12.6940 C   0  0  0  0  0  0  0  0  0  0  0  0
   32.5248   41.8167  -13.9681 C   0  0  0  0  0  0  0  0  0  0  0  0
   32.4774   42.7378  -15.0138 C   0  0  0  0  0  0  0  0  0  0  0  0
   32.8377   44.0625  -14.7854 C   0  0  0  0  0  0  0  0  0  0  0  0
   33.2465   44.4696  -13.5118 C   0  0  0  0  0  0  0  0  0  0  0  0
   35.9106   42.0118   -1.8271 C   0  0  0  0  0  0  0  0  0  0  0  0
   36.3117   43.0359   -0.7446 C   0  0  0  0  0  0  0  0  0  0  0  0
   37.0572   42.3067    0.3827 C   0  0  0  0  0  0  0  0  0  0  0  0
   37.1721   44.1878   -1.2618 C   0  0  0  0  0  0  0  0  0  0  0  0
 21 22  1  0
 22 23  1  0
 22 20  1  0
  6 20  1  0
  6  7  1  0
  7  8  1  0
  8  9  1  0
  8 10  1  0
  8 11  1  0
 11 12  1  0
 12 13  1  0
 12 14  1  0
 12 15  1  0
 15 16  1  0
 16 17  1  0
 16 18  1  0
 16 19  1  0
  6  2  1  0
  2  3  1  0
  3  4  2  0
  3  1  1  0
  1 43  1  0
 43 44  1  0
 44 45  1  0
 44 46  1  0
  1 24  1  0
 24 26  1  0
 26 27  2  0
 26 28  1  0
 26 30  1  0
 30 31  1  0
 31 32  1  0
 32 33  2  0
 32 35  1  0
 35 36  1  0
 36 37  1  0
 37 38  2  0
 38 39  1  0
 39 40  2  0
 40 41  1  0
 41 42  2  0
 42 37  1  0
  2  5  1  0
 24 25  1  0
 28 29  1  0
 31 34  1  0
M  END
> <minimizedAffinity>
-8.85884

> <CNNscore>
0.7395794988

> <CNNaffinity>
7.9337334633

> <CNN_VS>
5.8676266670

> <CNNaffinity_variance>
0.5597810745

$$$$



 46 46  0  0  0  0  0  0  0  0999 V2000
   36.6547   41.9774   -2.7222 C   0  0  0  0  0  0  0  0  0  0  0  0
   37.5181   39.6813   -2.2890 N   0  0  0  0  0  0  0  0  0  0  0  0
   37.7808   40.9034   -2.8678 C   0  0  0  0  0  0  0  0  0  0  0  0
   38.8638   41.1839   -3.3728 O   0  0  0  0  0  0  0  0  0  0  0  0
   36.6264   39.5432   -1.8952 H   0  0  0  0  0  0  0  0  0  0  0  0
   38.4730   38.5734   -2.2185 C   0  0  0  0  0  0  0  0  0  0  0  0
   38.4847   37.7224   -3.5221 C   0  0  0  0  0  0  0  0  0  0  0  0
   39.8870   37.3945   -4.1207 C   0  0  0  0  0  0  0  0  0  0  0  0
   40.0406   37.8205   -5.5952 C   0  0  0  0  0  0  0  0  0  0  0  0
   40.0527   35.8451   -4.0972 C   0  0  0  0  0  0  0  0  0  0  0  0
   41.0720   37.9676   -3.2541 C   0  0  0  0  0  0  0  0  0  0  0  0
   42.5882   37.8534   -3.6362 C   0  0  0  0  0  0  0  0  0  0  0  0
   43.2857   39.2341   -3.6945 C   0  0  0  0  0  0  0  0  0  0  0  0
   43.3731   36.9975   -2.6134 C   0  0  0  0  0  0  0  0  0  0  0  0
   42.7565   37.2478   -5.0807 C   0  0  0  0  0  0  0  0  0  0  0  0
   43.8327   36.1886   -5.4846 C   0  0  0  0  0  0  0  0  0  0  0  0
   43.7136   35.9950   -7.0201 C   0  0  0  0  0  0  0  0  0  0  0  0
   43.5812   34.8101   -4.8323 C   0  0  0  0  0  0  0  0  0  0  0  0
   45.2683   36.6315   -5.1853 C   0  0  0  0  0  0  0  0  0  0  0  0
   38.2500   37.6642   -0.9876 C   0  0  0  0  0  0  0  0  0  0  0  0
   40.2109   36.5659    0.1398 C   0  0  0  0  0  0  0  0  0  0  0  0
   39.1050   36.3829   -0.9063 C   0  0  0  0  0  0  0  0  0  0  0  0
   38.2788   35.1352   -0.5749 C   0  0  0  0  0  0  0  0  0  0  0  0
   35.6638   41.7209   -3.7790 N   0  0  0  0  0  0  0  0  0  0  0  0
   34.8735   42.3418   -3.6048 H   0  0  0  0  0  0  0  0  0  0  0  0
   36.0994   41.9267   -5.3390 P   0  0  0  0  0  0  0  0  0  0  0  0
   37.0358   43.0520   -5.6579 O   0  0  0  0  0  0  0  0  0  0  0  0
   36.7584   40.5098   -5.7312 O   0  0  0  0  0  0  0  0  0  0  0  0
   37.5924   40.3966   -5.2489 H   0  0  0  0  0  0  0  0  0  0  0  0
   34.5698   41.9748   -6.3165 C   0  0  0  0  0  0  0  0  0  0  0  0
   34.8120   42.3049   -7.7101 N   0  0  0  0  0  0  0  0  0  0  0  0
   33.8608   42.8788   -8.4917 C   0  0  0  0  0  0  0  0  0  0  0  0
   32.7738   43.2619   -8.0805 O   0  0  0  0  0  0  0  0  0  0  0  0
   35.6936   42.1064   -8.1006 H   0  0  0  0  0  0  0  0  0  0  0  0
   34.2945   42.9204   -9.7658 O   0  0  0  0  0  0  0  0  0  0  0  0
   33.5915   43.8158  -10.6323 C   0  0  0  0  0  0  0  0  0  0  0  0
   33.2221   43.0563  -11.8796 C   0  0  0  0  0  0  0  0  0  0  0  0
   33.1662   43.6987  -13.1241 C   0  0  0  0  0  0  0  0  0  0  0  0
   32.8408   42.9795  -14.2772 C   0  0  0  0  0  0  0  0  0  0  0  0
   32.5717   41.6136  -14.2011 C   0  0  0  0  0  0  0  0  0  0  0  0
   32.6307   40.9644  -12.9714 C   0  0  0  0  0  0  0  0  0  0  0  0
   32.9586   41.6789  -11.8151 C   0  0  0  0  0  0  0  0  0  0  0  0
   36.0074   42.0736   -1.3224 C   0  0  0  0  0  0  0  0  0  0  0  0
   36.6893   42.9561   -0.2557 C   0  0  0  0  0  0  0  0  0  0  0  0
   37.0857   42.0790    0.9409 C   0  0  0  0  0  0  0  0  0  0  0  0
   37.9169   43.7122   -0.7614 C   0  0  0  0  0  0  0  0  0  0  0  0
 21 22  1  0
 22 23  1  0
 22 20  1  0
  6 20  1  0
  6  7  1  0
  7  8  1  0
  8  9  1  0
  8 10  1  0
  8 11  1  0
 11 12  1  0
 12 13  1  0
 12 14  1  0
 12 15  1  0
 15 16  1  0
 16 17  1  0
 16 18  1  0
 16 19  1  0
  6  2  1  0
  2  3  1  0
  3  4  2  0
  3  1  1  0
  1 43  1  0
 43 44  1  0
 44 45  1  0
 44 46  1  0
  1 24  1  0
 24 26  1  0
 26 27  2  0
 26 28  1  0
 26 30  1  0
 30 31  1  0
 31 32  1  0
 32 33  2  0
 32 35  1  0
 35 36  1  0
 36 37  1  0
 37 38  2  0
 38 39  1  0
 39 40  2  0
 40 41  1  0
 41 42  2  0
 42 37  1  0
  2  5  1  0
 24 25  1  0
 28 29  1  0
 31 34  1  0
M  END
> <minimizedAffinity>
-8.35132

> <CNNscore>
0.7364280224

> <CNNaffinity>
7.8781428337

> <CNN_VS>
5.8016853333

> <CNNaffinity_variance>
0.5916827321

$$$$



 46 46  0  0  0  0  0  0  0  0999 V2000
   36.8144   42.1470   -3.6270 C   0  0  0  0  0  0  0  0  0  0  0  0
   37.5644   39.7867   -3.8956 N   0  0  0  0  0  0  0  0  0  0  0  0
   37.9485   41.0724   -3.5839 C   0  0  0  0  0  0  0  0  0  0  0  0
   39.0762   41.3553   -3.1904 O   0  0  0  0  0  0  0  0  0  0  0  0
   36.6363   39.6452   -4.1922 H   0  0  0  0  0  0  0  0  0  0  0  0
   38.4404   38.6160   -3.8165 C   0  0  0  0  0  0  0  0  0  0  0  0
   38.7208   37.9950   -5.2162 C   0  0  0  0  0  0  0  0  0  0  0  0
   40.0646   37.2186   -5.3710 C   0  0  0  0  0  0  0  0  0  0  0  0
   40.3769   36.8149   -6.8267 C   0  0  0  0  0  0  0  0  0  0  0  0
   39.9285   35.8880   -4.5714 C   0  0  0  0  0  0  0  0  0  0  0  0
   41.2888   37.9803   -4.7346 C   0  0  0  0  0  0  0  0  0  0  0  0
   42.6908   37.3350   -4.4591 C   0  0  0  0  0  0  0  0  0  0  0  0
   42.6603   36.3496   -3.2657 C   0  0  0  0  0  0  0  0  0  0  0  0
   43.2056   36.5407   -5.6833 C   0  0  0  0  0  0  0  0  0  0  0  0
   43.7430   38.4356   -4.0552 C   0  0  0  0  0  0  0  0  0  0  0  0
   45.2893   38.2141   -3.9990 C   0  0  0  0  0  0  0  0  0  0  0  0
   45.5141   36.7675   -3.4830 C   0  0  0  0  0  0  0  0  0  0  0  0
   45.9882   39.1657   -3.0016 C   0  0  0  0  0  0  0  0  0  0  0  0
   45.9729   38.3282   -5.3651 C   0  0  0  0  0  0  0  0  0  0  0  0
   37.9120   37.5336   -2.8466 C   0  0  0  0  0  0  0  0  0  0  0  0
   39.7049   37.9735   -1.1393 C   0  0  0  0  0  0  0  0  0  0  0  0
   38.2032   37.7434   -1.3464 C   0  0  0  0  0  0  0  0  0  0  0  0
   37.4118   38.9091   -0.7431 C   0  0  0  0  0  0  0  0  0  0  0  0
   35.7572   41.6345   -4.5125 N   0  0  0  0  0  0  0  0  0  0  0  0
   34.8657   41.8252   -4.0552 H   0  0  0  0  0  0  0  0  0  0  0  0
   35.6484   42.2164   -6.0341 P   0  0  0  0  0  0  0  0  0  0  0  0
   34.5200   43.1526   -6.3428 O   0  0  0  0  0  0  0  0  0  0  0  0
   37.0684   42.9444   -6.2563 O   0  0  0  0  0  0  0  0  0  0  0  0
   37.1216   43.7294   -5.6889 H   0  0  0  0  0  0  0  0  0  0  0  0
   35.7166   40.7897   -7.1554 C   0  0  0  0  0  0  0  0  0  0  0  0
   34.7668   40.8975   -8.2491 N   0  0  0  0  0  0  0  0  0  0  0  0
   34.6315   39.9236   -9.1862 C   0  0  0  0  0  0  0  0  0  0  0  0
   35.2036   38.8429   -9.1406 O   0  0  0  0  0  0  0  0  0  0  0  0
   34.2031   41.7021   -8.3131 H   0  0  0  0  0  0  0  0  0  0  0  0
   33.8103   40.3539  -10.1627 O   0  0  0  0  0  0  0  0  0  0  0  0
   33.0824   41.5525   -9.8788 C   0  0  0  0  0  0  0  0  0  0  0  0
   33.1727   42.4449  -11.0890 C   0  0  0  0  0  0  0  0  0  0  0  0
   32.7893   41.9822  -12.3553 C   0  0  0  0  0  0  0  0  0  0  0  0
   32.8597   42.8254  -13.4674 C   0  0  0  0  0  0  0  0  0  0  0  0
   33.3094   44.1377  -13.3271 C   0  0  0  0  0  0  0  0  0  0  0  0
   33.6864   44.6094  -12.0731 C   0  0  0  0  0  0  0  0  0  0  0  0
   33.6151   43.7706  -10.9568 C   0  0  0  0  0  0  0  0  0  0  0  0
   36.2650   42.5864   -2.2512 C   0  0  0  0  0  0  0  0  0  0  0  0
   37.2712   42.9684   -1.1452 C   0  0  0  0  0  0  0  0  0  0  0  0
   37.4485   44.4938   -1.1350 C   0  0  0  0  0  0  0  0  0  0  0  0
   36.8754   42.4927    0.2517 C   0  0  0  0  0  0  0  0  0  0  0  0
 21 22  1  0
 22 23  1  0
 22 20  1  0
  6 20  1  0
  6  7  1  0
  7  8  1  0
  8  9  1  0
  8 10  1  0
  8 11  1  0
 11 12  1  0
 12 13  1  0
 12 14  1  0
 12 15  1  0
 15 16  1  0
 16 17  1  0
 16 18  1  0
 16 19  1  0
  6  2  1  0
  2  3  1  0
  3  4  2  0
  3  1  1  0
  1 43  1  0
 43 44  1  0
 44 45  1  0
 44 46  1  0
  1 24  1  0
 24 26  1  0
 26 27  2  0
 26 28  1  0
 26 30  1  0
 30 31  1  0
 31 32  1  0
 32 33  2  0
 32 35  1  0
 35 36  1  0
 36 37  1  0
 37 38  2  0
 38 39  1  0
 39 40  2  0
 40 41  1  0
 41 42  2  0
 42 37  1  0
  2  5  1  0
 24 25  1  0
 28 29  1  0
 31 34  1  0
M  END
> <minimizedAffinity>
-8.50091

> <CNNscore>
0.7037063837

> <CNNaffinity>
8.0895919800

> <CNN_VS>
5.6926975250

> <CNNaffinity_variance>
0.1414141059

$$$$



 46 46  0  0  0  0  0  0  0  0999 V2000
   37.2725   41.5847   -4.0060 C   0  0  0  0  0  0  0  0  0  0  0  0
   37.9553   39.1923   -4.1318 N   0  0  0  0  0  0  0  0  0  0  0  0
   38.3204   40.4583   -3.7299 C   0  0  0  0  0  0  0  0  0  0  0  0
   39.3473   40.6880   -3.0981 O   0  0  0  0  0  0  0  0  0  0  0  0
   37.1084   39.0945   -4.6241 H   0  0  0  0  0  0  0  0  0  0  0  0
   38.7393   37.9820   -3.8776 C   0  0  0  0  0  0  0  0  0  0  0  0
   39.0883   37.2203   -5.1897 C   0  0  0  0  0  0  0  0  0  0  0  0
   40.4738   36.5049   -5.2257 C   0  0  0  0  0  0  0  0  0  0  0  0
   41.2797   36.6602   -3.9197 C   0  0  0  0  0  0  0  0  0  0  0  0
   41.3210   37.1866   -6.3420 C   0  0  0  0  0  0  0  0  0  0  0  0
   40.3682   34.9859   -5.6321 C   0  0  0  0  0  0  0  0  0  0  0  0
   39.2750   34.3962   -6.5887 C   0  0  0  0  0  0  0  0  0  0  0  0
   37.8389   34.7267   -6.1151 C   0  0  0  0  0  0  0  0  0  0  0  0
   39.4122   34.9525   -8.0262 C   0  0  0  0  0  0  0  0  0  0  0  0
   39.3459   32.8227   -6.6157 C   0  0  0  0  0  0  0  0  0  0  0  0
   38.3558   31.8979   -7.3952 C   0  0  0  0  0  0  0  0  0  0  0  0
   39.0451   31.5387   -8.7388 C   0  0  0  0  0  0  0  0  0  0  0  0
   37.0285   32.6100   -7.7420 C   0  0  0  0  0  0  0  0  0  0  0  0
   38.0465   30.5847   -6.6697 C   0  0  0  0  0  0  0  0  0  0  0  0
   38.0611   37.0267   -2.8681 C   0  0  0  0  0  0  0  0  0  0  0  0
   39.6489   37.7433   -1.0549 C   0  0  0  0  0  0  0  0  0  0  0  0
   38.1920   37.3880   -1.3742 C   0  0  0  0  0  0  0  0  0  0  0  0
   37.2733   38.5419   -0.9575 C   0  0  0  0  0  0  0  0  0  0  0  0
   36.6377   41.2866   -5.2993 N   0  0  0  0  0  0  0  0  0  0  0  0
   36.0308   40.4795   -5.1555 H   0  0  0  0  0  0  0  0  0  0  0  0
   35.7367   42.4398   -6.0231 P   0  0  0  0  0  0  0  0  0  0  0  0
   35.4835   43.7055   -5.2622 O   0  0  0  0  0  0  0  0  0  0  0  0
   36.5460   42.7455   -7.3823 O   0  0  0  0  0  0  0  0  0  0  0  0
   37.3865   43.1794   -7.1675 H   0  0  0  0  0  0  0  0  0  0  0  0
   34.2126   41.6395   -6.6008 C   0  0  0  0  0  0  0  0  0  0  0  0
   33.5349   42.4120   -7.6274 N   0  0  0  0  0  0  0  0  0  0  0  0
   33.7233   42.1749   -8.9515 C   0  0  0  0  0  0  0  0  0  0  0  0
   34.3804   41.2428   -9.3953 O   0  0  0  0  0  0  0  0  0  0  0  0
   32.9194   43.1305   -7.3548 H   0  0  0  0  0  0  0  0  0  0  0  0
   33.1089   43.1342   -9.6693 O   0  0  0  0  0  0  0  0  0  0  0  0
   33.9115   43.7745  -10.6658 C   0  0  0  0  0  0  0  0  0  0  0  0
   33.0255   44.0816  -11.8447 C   0  0  0  0  0  0  0  0  0  0  0  0
   31.6322   43.9628  -11.7489 C   0  0  0  0  0  0  0  0  0  0  0  0
   30.8195   44.2688  -12.8437 C   0  0  0  0  0  0  0  0  0  0  0  0
   31.3874   44.6990  -14.0422 C   0  0  0  0  0  0  0  0  0  0  0  0
   32.7694   44.8268  -14.1461 C   0  0  0  0  0  0  0  0  0  0  0  0
   33.5868   44.5246  -13.0528 C   0  0  0  0  0  0  0  0  0  0  0  0
   36.2360   41.8153   -2.8834 C   0  0  0  0  0  0  0  0  0  0  0  0
   36.5458   42.8716   -1.8018 C   0  0  0  0  0  0  0  0  0  0  0  0
   36.9373   42.1559   -0.5008 C   0  0  0  0  0  0  0  0  0  0  0  0
   37.6446   43.8598   -2.1896 C   0  0  0  0  0  0  0  0  0  0  0  0
 21 22  1  0
 22 23  1  0
 22 20  1  0
  6 20  1  0
  6  7  1  0
  7  8  1  0
  8  9  1  0
  8 10  1  0
  8 11  1  0
 11 12  1  0
 12 13  1  0
 12 14  1  0
 12 15  1  0
 15 16  1  0
 16 17  1  0
 16 18  1  0
 16 19  1  0
  6  2  1  0
  2  3  1  0
  3  4  2  0
  3  1  1  0
  1 43  1  0
 43 44  1  0
 44 45  1  0
 44 46  1  0
  1 24  1  0
 24 26  1  0
 26 27  2  0
 26 28  1  0
 26 30  1  0
 30 31  1  0
 31 32  1  0
 32 33  2  0
 32 35  1  0
 35 36  1  0
 36 37  1  0
 37 38  2  0
 38 39  1  0
 39 40  2  0
 40 41  1  0
 41 42  2  0
 42 37  1  0
  2  5  1  0
 24 25  1  0
 28 29  1  0
 31 34  1  0
M  END
> <minimizedAffinity>
-6.91983

> <CNNscore>
0.6546852589

> <CNNaffinity>
7.9002213478

> <CNN_VS>
5.1721582413

> <CNNaffinity_variance>
0.0358868390

$$$$



 46 46  0  0  0  0  0  0  0  0999 V2000
   36.9168   41.7583   -3.3852 C   0  0  0  0  0  0  0  0  0  0  0  0
   37.8157   39.5187   -4.0029 N   0  0  0  0  0  0  0  0  0  0  0  0
   38.1107   40.7529   -3.4671 C   0  0  0  0  0  0  0  0  0  0  0  0
   39.2044   41.0256   -2.9811 O   0  0  0  0  0  0  0  0  0  0  0  0
   36.9092   39.3796   -4.3609 H   0  0  0  0  0  0  0  0  0  0  0  0
   38.7566   38.3991   -4.0768 C   0  0  0  0  0  0  0  0  0  0  0  0
   40.2127   38.8715   -4.3595 C   0  0  0  0  0  0  0  0  0  0  0  0
   41.3453   38.1090   -3.6055 C   0  0  0  0  0  0  0  0  0  0  0  0
   41.8177   36.8339   -4.3337 C   0  0  0  0  0  0  0  0  0  0  0  0
   40.7602   37.6375   -2.2402 C   0  0  0  0  0  0  0  0  0  0  0  0
   42.5739   39.0306   -3.2524 C   0  0  0  0  0  0  0  0  0  0  0  0
   44.0642   38.5457   -3.2076 C   0  0  0  0  0  0  0  0  0  0  0  0
   44.2624   37.1873   -3.9227 C   0  0  0  0  0  0  0  0  0  0  0  0
   45.0154   39.5559   -3.8927 C   0  0  0  0  0  0  0  0  0  0  0  0
   44.5272   38.2985   -1.7222 C   0  0  0  0  0  0  0  0  0  0  0  0
   44.8829   36.9010   -1.1192 C   0  0  0  0  0  0  0  0  0  0  0  0
   45.1706   37.1265    0.3894 C   0  0  0  0  0  0  0  0  0  0  0  0
   46.1625   36.2962   -1.7401 C   0  0  0  0  0  0  0  0  0  0  0  0
   43.7437   35.8823   -1.2244 C   0  0  0  0  0  0  0  0  0  0  0  0
   38.3332   37.3243   -5.1050 C   0  0  0  0  0  0  0  0  0  0  0  0
   37.9133   35.7398   -3.1983 C   0  0  0  0  0  0  0  0  0  0  0  0
   38.4097   35.8541   -4.6445 C   0  0  0  0  0  0  0  0  0  0  0  0
   37.6095   34.9055   -5.5440 C   0  0  0  0  0  0  0  0  0  0  0  0
   35.9814   41.4184   -4.4687 N   0  0  0  0  0  0  0  0  0  0  0  0
   35.0556   41.3344   -4.0489 H   0  0  0  0  0  0  0  0  0  0  0  0
   35.8401   42.4334   -5.7397 P   0  0  0  0  0  0  0  0  0  0  0  0
   34.9303   43.6144   -5.5901 O   0  0  0  0  0  0  0  0  0  0  0  0
   37.3556   42.9127   -6.0031 O   0  0  0  0  0  0  0  0  0  0  0  0
   37.6511   43.4701   -5.2663 H   0  0  0  0  0  0  0  0  0  0  0  0
   35.4524   41.4157   -7.1927 C   0  0  0  0  0  0  0  0  0  0  0  0
   34.8207   42.1807   -8.2536 N   0  0  0  0  0  0  0  0  0  0  0  0
   33.8709   41.6444   -9.0630 C   0  0  0  0  0  0  0  0  0  0  0  0
   33.3906   40.5291   -8.9123 O   0  0  0  0  0  0  0  0  0  0  0  0
   35.0895   43.1179   -8.3903 H   0  0  0  0  0  0  0  0  0  0  0  0
   33.5830   42.5131  -10.0508 O   0  0  0  0  0  0  0  0  0  0  0  0
   33.1340   41.9312  -11.2784 C   0  0  0  0  0  0  0  0  0  0  0  0
   33.1861   42.9977  -12.3409 C   0  0  0  0  0  0  0  0  0  0  0  0
   32.8150   42.7160  -13.6628 C   0  0  0  0  0  0  0  0  0  0  0  0
   32.8493   43.7185  -14.6358 C   0  0  0  0  0  0  0  0  0  0  0  0
   33.2504   45.0108  -14.2996 C   0  0  0  0  0  0  0  0  0  0  0  0
   33.6147   45.3029  -12.9885 C   0  0  0  0  0  0  0  0  0  0  0  0
   33.5793   44.3042  -12.0107 C   0  0  0  0  0  0  0  0  0  0  0  0
   36.2158   41.8445   -2.0109 C   0  0  0  0  0  0  0  0  0  0  0  0
   36.4938   43.0729   -1.1191 C   0  0  0  0  0  0  0  0  0  0  0  0
   36.8471   42.5941    0.2966 C   0  0  0  0  0  0  0  0  0  0  0  0
   37.6034   43.9852   -1.6396 C   0  0  0  0  0  0  0  0  0  0  0  0
 21 22  1  0
 22 23  1  0
 22 20  1  0
  6 20  1  0
  6  7  1  0
  7  8  1  0
  8  9  1  0
  8 10  1  0
  8 11  1  0
 11 12  1  0
 12 13  1  0
 12 14  1  0
 12 15  1  0
 15 16  1  0
 16 17  1  0
 16 18  1  0
 16 19  1  0
  6  2  1  0
  2  3  1  0
  3  4  2  0
  3  1  1  0
  1 43  1  0
 43 44  1  0
 44 45  1  0
 44 46  1  0
  1 24  1  0
 24 26  1  0
 26 27  2  0
 26 28  1  0
 26 30  1  0
 30 31  1  0
 31 32  1  0
 32 33  2  0
 32 35  1  0
 35 36  1  0
 36 37  1  0
 37 38  2  0
 38 39  1  0
 39 40  2  0
 40 41  1  0
 41 42  2  0
 42 37  1  0
  2  5  1  0
 24 25  1  0
 28 29  1  0
 31 34  1  0
M  END
> <minimizedAffinity>
-8.21162

> <CNNscore>
0.6512050033

> <CNNaffinity>
7.8342099190

> <CNN_VS>
5.1016764641

> <CNNaffinity_variance>
0.1630612612

$$$$



 46 46  0  0  0  0  0  0  0  0999 V2000
   36.6681   42.0078   -2.6527 C   0  0  0  0  0  0  0  0  0  0  0  0
   37.5376   39.6790   -2.4918 N   0  0  0  0  0  0  0  0  0  0  0  0
   37.8293   40.9789   -2.8420 C   0  0  0  0  0  0  0  0  0  0  0  0
   38.9520   41.3438   -3.1781 O   0  0  0  0  0  0  0  0  0  0  0  0
   36.6132   39.4737   -2.2222 H   0  0  0  0  0  0  0  0  0  0  0  0
   38.5068   38.5813   -2.4925 C   0  0  0  0  0  0  0  0  0  0  0  0
   38.1423   37.4748   -3.5251 C   0  0  0  0  0  0  0  0  0  0  0  0
   39.0416   37.3930   -4.7967 C   0  0  0  0  0  0  0  0  0  0  0  0
   40.0300   38.5701   -4.9270 C   0  0  0  0  0  0  0  0  0  0  0  0
   38.1025   37.4757   -6.0375 C   0  0  0  0  0  0  0  0  0  0  0  0
   39.8011   36.0178   -4.9221 C   0  0  0  0  0  0  0  0  0  0  0  0
   40.8273   35.6698   -6.0552 C   0  0  0  0  0  0  0  0  0  0  0  0
   40.1296   35.2700   -7.3779 C   0  0  0  0  0  0  0  0  0  0  0  0
   41.7498   36.8690   -6.3797 C   0  0  0  0  0  0  0  0  0  0  0  0
   41.6975   34.4187   -5.6562 C   0  0  0  0  0  0  0  0  0  0  0  0
   42.9458   33.9108   -6.4479 C   0  0  0  0  0  0  0  0  0  0  0  0
   44.0535   33.6251   -5.3986 C   0  0  0  0  0  0  0  0  0  0  0  0
   43.5045   34.9751   -7.4195 C   0  0  0  0  0  0  0  0  0  0  0  0
   42.6935   32.6108   -7.2181 C   0  0  0  0  0  0  0  0  0  0  0  0
   38.7125   37.9594   -1.0916 C   0  0  0  0  0  0  0  0  0  0  0  0
   39.3622   35.5394   -1.3007 C   0  0  0  0  0  0  0  0  0  0  0  0
   39.8641   36.9438   -0.9448 C   0  0  0  0  0  0  0  0  0  0  0  0
   41.0811   37.2939   -1.8083 C   0  0  0  0  0  0  0  0  0  0  0  0
   35.6565   41.7226   -3.6821 N   0  0  0  0  0  0  0  0  0  0  0  0
   34.8772   42.3606   -3.5203 H   0  0  0  0  0  0  0  0  0  0  0  0
   36.0684   41.8601   -5.2560 P   0  0  0  0  0  0  0  0  0  0  0  0
   36.8545   43.0676   -5.6673 O   0  0  0  0  0  0  0  0  0  0  0  0
   36.9050   40.5129   -5.5405 O   0  0  0  0  0  0  0  0  0  0  0  0
   37.7446   40.5453   -5.0558 H   0  0  0  0  0  0  0  0  0  0  0  0
   34.5494   41.6356   -6.2251 C   0  0  0  0  0  0  0  0  0  0  0  0
   34.5144   42.4808   -7.4059 N   0  0  0  0  0  0  0  0  0  0  0  0
   34.1823   41.9964   -8.6307 C   0  0  0  0  0  0  0  0  0  0  0  0
   33.7863   40.8566   -8.8338 O   0  0  0  0  0  0  0  0  0  0  0  0
   34.7386   43.4352   -7.3157 H   0  0  0  0  0  0  0  0  0  0  0  0
   34.3909   42.9486   -9.5596 O   0  0  0  0  0  0  0  0  0  0  0  0
   33.2487   43.7362   -9.9092 C   0  0  0  0  0  0  0  0  0  0  0  0
   33.1600   43.7786  -11.4124 C   0  0  0  0  0  0  0  0  0  0  0  0
   33.2975   44.9875  -12.1081 C   0  0  0  0  0  0  0  0  0  0  0  0
   33.2322   45.0116  -13.5038 C   0  0  0  0  0  0  0  0  0  0  0  0
   33.0328   43.8311  -14.2186 C   0  0  0  0  0  0  0  0  0  0  0  0
   32.9014   42.6242  -13.5380 C   0  0  0  0  0  0  0  0  0  0  0  0
   32.9689   42.5944  -12.1417 C   0  0  0  0  0  0  0  0  0  0  0  0
   36.0598   42.0672   -1.2335 C   0  0  0  0  0  0  0  0  0  0  0  0
   36.7337   42.9734   -0.1817 C   0  0  0  0  0  0  0  0  0  0  0  0
   37.1497   42.1177    1.0237 C   0  0  0  0  0  0  0  0  0  0  0  0
   37.9471   43.7415   -0.7035 C   0  0  0  0  0  0  0  0  0  0  0  0
 21 22  1  0
 22 23  1  0
 22 20  1  0
  6 20  1  0
  6  7  1  0
  7  8  1  0
  8  9  1  0
  8 10  1  0
  8 11  1  0
 11 12  1  0
 12 13  1  0
 12 14  1  0
 12 15  1  0
 15 16  1  0
 16 17  1  0
 16 18  1  0
 16 19  1  0
  6  2  1  0
  2  3  1  0
  3  4  2  0
  3  1  1  0
  1 43  1  0
 43 44  1  0
 44 45  1  0
 44 46  1  0
  1 24  1  0
 24 26  1  0
 26 27  2  0
 26 28  1  0
 26 30  1  0
 30 31  1  0
 31 32  1  0
 32 33  2  0
 32 35  1  0
 35 36  1  0
 36 37  1  0
 37 38  2  0
 38 39  1  0
 39 40  2  0
 40 41  1  0
 41 42  2  0
 42 37  1  0
  2  5  1  0
 24 25  1  0
 28 29  1  0
 31 34  1  0
M  END
> <minimizedAffinity>
-7.95404

> <CNNscore>
0.5730899572

> <CNNaffinity>
7.5489706993

> <CNN_VS>
4.3262391090

> <CNNaffinity_variance>
0.7894681096

$$$$
