


 25 28  0  0  0  0  0  0  0  0999 V2000
   25.9252   48.8457    1.9172 C   0  0  0  0  0  0  0  0  0  0  0  0
   25.4796   48.0093    2.9290 C   0  0  0  0  0  0  0  0  0  0  0  0
   25.1857   46.7526    2.4699 N   0  0  0  0  0  0  0  0  0  0  0  0
   25.4306   46.8015    1.1798 C   0  0  0  0  0  0  0  0  0  0  0  0
   25.3071   45.8144    0.1827 C   0  0  0  0  0  0  0  0  0  0  0  0
   25.6053   46.1244   -1.0834 C   0  0  0  0  0  0  0  0  0  0  0  0
   26.0606   47.5164   -1.3996 C   0  0  0  0  0  0  0  0  0  0  0  0
   26.1910   48.4422   -0.4885 N   0  0  0  0  0  0  0  0  0  0  0  0
   25.8765   48.0504    0.7827 N   0  0  0  0  0  0  0  0  0  0  0  0
   26.6090   52.3256    3.2375 C   0  0  0  0  0  0  0  0  0  0  0  0
   27.1405   52.9509    2.1092 C   0  0  0  0  0  0  0  0  0  0  0  0
   27.2682   52.2273    0.9297 C   0  0  0  0  0  0  0  0  0  0  0  0
   27.7830   52.8285   -0.1511 F   0  0  0  0  0  0  0  0  0  0  0  0
   26.8781   50.8946    0.8479 C   0  0  0  0  0  0  0  0  0  0  0  0
   26.3358   50.2508    1.9649 C   0  0  0  0  0  0  0  0  0  0  0  0
   26.2120   50.9792    3.1595 C   0  0  0  0  0  0  0  0  0  0  0  0
   25.2950   52.6733    5.4361 C   0  0  0  0  0  0  0  0  0  0  0  0
   26.4468   53.0410    4.5375 C   0  0  0  0  0  0  0  0  0  0  0  0
   27.2473   53.9173    4.8564 O   0  0  0  0  0  0  0  0  0  0  0  0
   26.3531   47.8104   -2.7124 N   0  0  0  0  0  0  0  0  0  0  0  0
   26.7131   48.6998   -2.9330 H   0  0  0  0  0  0  0  0  0  0  0  0
   26.1478   46.8514   -3.7803 C   0  0  0  0  0  0  0  0  0  0  0  0
   24.8437   47.0476   -4.5032 C   0  0  0  0  0  0  0  0  0  0  0  0
   23.7465   47.9496   -3.9882 C   0  0  0  0  0  0  0  0  0  0  0  0
   23.5356   46.4583   -4.0301 C   0  0  0  0  0  0  0  0  0  0  0  0
 17 18  1  0
 18 19  2  0
 18 10  1  0
 10 11  2  0
 11 12  1  0
 12 13  1  0
 12 14  2  0
 14 15  1  0
 15  1  1  0
  1  2  2  0
  2  3  1  0
  3  4  2  0
  4  5  1  0
  5  6  2  0
  6  7  1  0
  7 20  1  0
 20 22  1  0
 22 23  1  0
 23 24  1  0
 24 25  1  0
  7  8  2  0
  8  9  1  0
 15 16  2  0
 16 10  1  0
  9  1  1  0
  9  4  1  0
 25 23  1  0
 20 21  1  0
M  END
> <minimizedAffinity>
-9.43805

> <CNNscore>
0.8893873096

> <CNNaffinity>
7.4118628502

> <CNN_VS>
6.5920166969

> <CNNaffinity_variance>
0.0830895230

$$$$



 25 28  0  0  0  0  0  0  0  0999 V2000
   26.3550   48.7868   -0.3122 C   0  0  0  0  0  0  0  0  0  0  0  0
   26.0033   47.4665   -0.5466 C   0  0  0  0  0  0  0  0  0  0  0  0
   26.0915   47.1348   -1.8726 N   0  0  0  0  0  0  0  0  0  0  0  0
   26.4815   48.2390   -2.4688 C   0  0  0  0  0  0  0  0  0  0  0  0
   26.7363   48.5094   -3.8275 C   0  0  0  0  0  0  0  0  0  0  0  0
   27.1098   49.7412   -4.1892 C   0  0  0  0  0  0  0  0  0  0  0  0
   27.2434   50.7961   -3.1336 C   0  0  0  0  0  0  0  0  0  0  0  0
   27.0215   50.5631   -1.8685 N   0  0  0  0  0  0  0  0  0  0  0  0
   26.6520   49.2806   -1.5731 N   0  0  0  0  0  0  0  0  0  0  0  0
   26.7306   51.6741    2.1050 C   0  0  0  0  0  0  0  0  0  0  0  0
   26.4564   51.0530    3.3238 C   0  0  0  0  0  0  0  0  0  0  0  0
   26.1527   49.6970    3.3408 C   0  0  0  0  0  0  0  0  0  0  0  0
   25.8854   49.1038    4.5118 F   0  0  0  0  0  0  0  0  0  0  0  0
   26.1162   48.9449    2.1712 C   0  0  0  0  0  0  0  0  0  0  0  0
   26.3954   49.5461    0.9396 C   0  0  0  0  0  0  0  0  0  0  0  0
   26.6963   50.9180    0.9203 C   0  0  0  0  0  0  0  0  0  0  0  0
   27.7177   53.6496    0.7618 C   0  0  0  0  0  0  0  0  0  0  0  0
   27.0604   53.1270    2.0124 C   0  0  0  0  0  0  0  0  0  0  0  0
   26.7964   53.8743    2.9517 O   0  0  0  0  0  0  0  0  0  0  0  0
   27.6214   52.0577   -3.5350 N   0  0  0  0  0  0  0  0  0  0  0  0
   28.4840   52.4178   -3.2261 H   0  0  0  0  0  0  0  0  0  0  0  0
   26.7889   52.8726   -4.3982 C   0  0  0  0  0  0  0  0  0  0  0  0
   25.7597   53.6671   -3.6423 C   0  0  0  0  0  0  0  0  0  0  0  0
   25.7142   55.1771   -3.6569 C   0  0  0  0  0  0  0  0  0  0  0  0
   26.0718   54.4484   -2.3876 C   0  0  0  0  0  0  0  0  0  0  0  0
 17 18  1  0
 18 19  2  0
 18 10  1  0
 10 11  2  0
 11 12  1  0
 12 13  1  0
 12 14  2  0
 14 15  1  0
 15  1  1  0
  1  2  2  0
  2  3  1  0
  3  4  2  0
  4  5  1  0
  5  6  2  0
  6  7  1  0
  7 20  1  0
 20 22  1  0
 22 23  1  0
 23 24  1  0
 24 25  1  0
  7  8  2  0
  8  9  1  0
 15 16  2  0
 16 10  1  0
  9  1  1  0
  9  4  1  0
 25 23  1  0
 20 21  1  0
M  END
> <minimizedAffinity>
-8.86168

> <CNNscore>
0.8857746720

> <CNNaffinity>
7.2527766228

> <CNN_VS>
6.4243259430

> <CNNaffinity_variance>
0.0657008588

$$$$



 25 28  0  0  0  0  0  0  0  0999 V2000
   25.9810   48.9312    1.7668 C   0  0  0  0  0  0  0  0  0  0  0  0
   25.6951   48.0051    2.7579 C   0  0  0  0  0  0  0  0  0  0  0  0
   25.3495   46.7843    2.2416 N   0  0  0  0  0  0  0  0  0  0  0  0
   25.4039   46.9443    0.9385 C   0  0  0  0  0  0  0  0  0  0  0  0
   25.1462   46.0400   -0.1103 C   0  0  0  0  0  0  0  0  0  0  0  0
   25.2543   46.4592   -1.3753 C   0  0  0  0  0  0  0  0  0  0  0  0
   25.6457   47.8820   -1.6352 C   0  0  0  0  0  0  0  0  0  0  0  0
   25.8983   48.7324   -0.6775 N   0  0  0  0  0  0  0  0  0  0  0  0
   25.7756   48.2309    0.5881 N   0  0  0  0  0  0  0  0  0  0  0  0
   26.6247   52.3622    3.2278 C   0  0  0  0  0  0  0  0  0  0  0  0
   27.1645   53.0341    2.1306 C   0  0  0  0  0  0  0  0  0  0  0  0
   27.3108   52.3573    0.9257 C   0  0  0  0  0  0  0  0  0  0  0  0
   27.8335   53.0033   -0.1250 F   0  0  0  0  0  0  0  0  0  0  0  0
   26.9313   51.0261    0.7883 C   0  0  0  0  0  0  0  0  0  0  0  0
   26.3810   50.3361    1.8733 C   0  0  0  0  0  0  0  0  0  0  0  0
   26.2383   51.0171    3.0935 C   0  0  0  0  0  0  0  0  0  0  0  0
   25.2912   52.6064    5.4286 C   0  0  0  0  0  0  0  0  0  0  0  0
   26.4426   53.0258    4.5524 C   0  0  0  0  0  0  0  0  0  0  0  0
   27.2267   53.9023    4.9094 O   0  0  0  0  0  0  0  0  0  0  0  0
   25.7416   48.2891   -2.9469 N   0  0  0  0  0  0  0  0  0  0  0  0
   26.4915   47.9615   -3.4941 H   0  0  0  0  0  0  0  0  0  0  0  0
   24.7729   49.1852   -3.5476 C   0  0  0  0  0  0  0  0  0  0  0  0
   24.7728   50.5536   -2.9237 C   0  0  0  0  0  0  0  0  0  0  0  0
   24.6895   51.8260   -3.7342 C   0  0  0  0  0  0  0  0  0  0  0  0
   25.9538   51.4937   -2.9849 C   0  0  0  0  0  0  0  0  0  0  0  0
 17 18  1  0
 18 19  2  0
 18 10  1  0
 10 11  2  0
 11 12  1  0
 12 13  1  0
 12 14  2  0
 14 15  1  0
 15  1  1  0
  1  2  2  0
  2  3  1  0
  3  4  2  0
  4  5  1  0
  5  6  2  0
  6  7  1  0
  7 20  1  0
 20 22  1  0
 22 23  1  0
 23 24  1  0
 24 25  1  0
  7  8  2  0
  8  9  1  0
 15 16  2  0
 16 10  1  0
  9  1  1  0
  9  4  1  0
 25 23  1  0
 20 21  1  0
M  END
> <minimizedAffinity>
-9.59155

> <CNNscore>
0.8794429302

> <CNNaffinity>
7.5543804169

> <CNN_VS>
6.6436462402

> <CNNaffinity_variance>
0.0483696163

$$$$



 25 28  0  0  0  0  0  0  0  0999 V2000
   25.8749   49.0389    2.2296 C   0  0  0  0  0  0  0  0  0  0  0  0
   25.5880   47.9284    3.0082 C   0  0  0  0  0  0  0  0  0  0  0  0
   25.3723   46.8073    2.2514 N   0  0  0  0  0  0  0  0  0  0  0  0
   25.5084   47.2111    1.0083 C   0  0  0  0  0  0  0  0  0  0  0  0
   25.3949   46.5051   -0.2052 C   0  0  0  0  0  0  0  0  0  0  0  0
   25.5624   47.1591   -1.3593 C   0  0  0  0  0  0  0  0  0  0  0  0
   25.8646   48.6262   -1.3223 C   0  0  0  0  0  0  0  0  0  0  0  0
   25.9835   49.2961   -0.2083 N   0  0  0  0  0  0  0  0  0  0  0  0
   25.8076   48.5604    0.9302 N   0  0  0  0  0  0  0  0  0  0  0  0
   26.9406   52.6643    2.0263 C   0  0  0  0  0  0  0  0  0  0  0  0
   26.6982   53.0982    3.3300 C   0  0  0  0  0  0  0  0  0  0  0  0
   26.1900   52.1998    4.2603 C   0  0  0  0  0  0  0  0  0  0  0  0
   25.9538   52.6199    5.5103 F   0  0  0  0  0  0  0  0  0  0  0  0
   25.9177   50.8783    3.9221 C   0  0  0  0  0  0  0  0  0  0  0  0
   26.1605   50.4206    2.6230 C   0  0  0  0  0  0  0  0  0  0  0  0
   26.6684   51.3293    1.6799 C   0  0  0  0  0  0  0  0  0  0  0  0
   27.4228   53.1458   -0.4671 C   0  0  0  0  0  0  0  0  0  0  0  0
   27.4820   53.5757    0.9754 C   0  0  0  0  0  0  0  0  0  0  0  0
   27.9689   54.6575    1.2969 O   0  0  0  0  0  0  0  0  0  0  0  0
   26.0242   49.2764   -2.5253 N   0  0  0  0  0  0  0  0  0  0  0  0
   25.4296   50.0304   -2.7424 H   0  0  0  0  0  0  0  0  0  0  0  0
   27.0406   48.8855   -3.4828 C   0  0  0  0  0  0  0  0  0  0  0  0
   27.8993   50.0362   -3.9304 C   0  0  0  0  0  0  0  0  0  0  0  0
   28.8745   50.7383   -3.0147 C   0  0  0  0  0  0  0  0  0  0  0  0
   27.6533   51.4669   -3.5126 C   0  0  0  0  0  0  0  0  0  0  0  0
 17 18  1  0
 18 19  2  0
 18 10  1  0
 10 11  2  0
 11 12  1  0
 12 13  1  0
 12 14  2  0
 14 15  1  0
 15  1  1  0
  1  2  2  0
  2  3  1  0
  3  4  2  0
  4  5  1  0
  5  6  2  0
  6  7  1  0
  7 20  1  0
 20 22  1  0
 22 23  1  0
 23 24  1  0
 24 25  1  0
  7  8  2  0
  8  9  1  0
 15 16  2  0
 16 10  1  0
  9  1  1  0
  9  4  1  0
 25 23  1  0
 20 21  1  0
M  END
> <minimizedAffinity>
-9.42011

> <CNNscore>
0.8634570241

> <CNNaffinity>
7.4073042870

> <CNN_VS>
6.3958888054

> <CNNaffinity_variance>
0.0040968559

$$$$



 25 28  0  0  0  0  0  0  0  0999 V2000
   26.6705   50.5678    0.4383 C   0  0  0  0  0  0  0  0  0  0  0  0
   27.2989   51.2222    1.4864 C   0  0  0  0  0  0  0  0  0  0  0  0
   27.5696   52.5320    1.1911 N   0  0  0  0  0  0  0  0  0  0  0  0
   27.1285   52.6968   -0.0357 C   0  0  0  0  0  0  0  0  0  0  0  0
   27.1376   53.8306   -0.8714 C   0  0  0  0  0  0  0  0  0  0  0  0
   26.6370   53.7347   -2.1075 C   0  0  0  0  0  0  0  0  0  0  0  0
   26.0829   52.4196   -2.5638 C   0  0  0  0  0  0  0  0  0  0  0  0
   26.0562   51.3603   -1.8013 N   0  0  0  0  0  0  0  0  0  0  0  0
   26.5770   51.5358   -0.5498 N   0  0  0  0  0  0  0  0  0  0  0  0
   25.5682   47.2788   -1.0743 C   0  0  0  0  0  0  0  0  0  0  0  0
   25.3665   46.5023    0.0671 C   0  0  0  0  0  0  0  0  0  0  0  0
   25.5925   47.0638    1.3180 C   0  0  0  0  0  0  0  0  0  0  0  0
   25.4024   46.3149    2.4123 F   0  0  0  0  0  0  0  0  0  0  0  0
   26.0147   48.3818    1.4583 C   0  0  0  0  0  0  0  0  0  0  0  0
   26.2156   49.1800    0.3276 C   0  0  0  0  0  0  0  0  0  0  0  0
   25.9936   48.6118   -0.9377 C   0  0  0  0  0  0  0  0  0  0  0  0
   23.9969   46.9066   -3.0927 C   0  0  0  0  0  0  0  0  0  0  0  0
   25.3485   46.7395   -2.4488 C   0  0  0  0  0  0  0  0  0  0  0  0
   26.2651   46.1671   -3.0341 O   0  0  0  0  0  0  0  0  0  0  0  0
   25.5814   52.3469   -3.8439 N   0  0  0  0  0  0  0  0  0  0  0  0
   24.9139   53.0104   -4.1328 H   0  0  0  0  0  0  0  0  0  0  0  0
   26.0053   51.3238   -4.7799 C   0  0  0  0  0  0  0  0  0  0  0  0
   26.8301   51.8697   -5.9128 C   0  0  0  0  0  0  0  0  0  0  0  0
   28.3179   52.1090   -5.8049 C   0  0  0  0  0  0  0  0  0  0  0  0
   27.3766   53.2779   -5.9381 C   0  0  0  0  0  0  0  0  0  0  0  0
 17 18  1  0
 18 19  2  0
 18 10  1  0
 10 11  2  0
 11 12  1  0
 12 13  1  0
 12 14  2  0
 14 15  1  0
 15  1  1  0
  1  2  2  0
  2  3  1  0
  3  4  2  0
  4  5  1  0
  5  6  2  0
  6  7  1  0
  7 20  1  0
 20 22  1  0
 22 23  1  0
 23 24  1  0
 24 25  1  0
  7  8  2  0
  8  9  1  0
 15 16  2  0
 16 10  1  0
  9  1  1  0
  9  4  1  0
 25 23  1  0
 20 21  1  0
M  END
> <minimizedAffinity>
-8.11204

> <CNNscore>
0.8488536477

> <CNNaffinity>
7.5269470215

> <CNN_VS>
6.3892765045

> <CNNaffinity_variance>
0.5000951886

$$$$



 25 28  0  0  0  0  0  0  0  0999 V2000
   27.0472   51.5509    0.1733 C   0  0  0  0  0  0  0  0  0  0  0  0
   27.4795   52.7540   -0.3630 C   0  0  0  0  0  0  0  0  0  0  0  0
   27.7196   52.6644   -1.7086 N   0  0  0  0  0  0  0  0  0  0  0  0
   27.4545   51.4141   -2.0136 C   0  0  0  0  0  0  0  0  0  0  0  0
   27.5248   50.7334   -3.2448 C   0  0  0  0  0  0  0  0  0  0  0  0
   27.2163   49.4332   -3.2906 C   0  0  0  0  0  0  0  0  0  0  0  0
   26.8065   48.7418   -2.0261 C   0  0  0  0  0  0  0  0  0  0  0  0
   26.7255   49.3570   -0.8777 N   0  0  0  0  0  0  0  0  0  0  0  0
   27.0474   50.6851   -0.9095 N   0  0  0  0  0  0  0  0  0  0  0  0
   26.2790   51.9039    3.8619 C   0  0  0  0  0  0  0  0  0  0  0  0
   25.9755   50.5871    4.2092 C   0  0  0  0  0  0  0  0  0  0  0  0
   26.0265   49.5993    3.2332 C   0  0  0  0  0  0  0  0  0  0  0  0
   25.7303   48.3365    3.5682 F   0  0  0  0  0  0  0  0  0  0  0  0
   26.3734   49.8927    1.9185 C   0  0  0  0  0  0  0  0  0  0  0  0
   26.6888   51.2047    1.5505 C   0  0  0  0  0  0  0  0  0  0  0  0
   26.6315   52.2053    2.5347 C   0  0  0  0  0  0  0  0  0  0  0  0
   25.0983   53.0806    5.8373 C   0  0  0  0  0  0  0  0  0  0  0  0
   26.2408   53.0152    4.8577 C   0  0  0  0  0  0  0  0  0  0  0  0
   27.1339   53.8595    4.8653 O   0  0  0  0  0  0  0  0  0  0  0  0
   26.5023   47.4011   -2.1006 N   0  0  0  0  0  0  0  0  0  0  0  0
   27.1459   46.7890   -2.5252 H   0  0  0  0  0  0  0  0  0  0  0  0
   25.2638   46.8623   -1.5731 C   0  0  0  0  0  0  0  0  0  0  0  0
   25.4776   45.9114   -0.4278 C   0  0  0  0  0  0  0  0  0  0  0  0
   24.6551   45.9528    0.8389 C   0  0  0  0  0  0  0  0  0  0  0  0
   26.1166   46.3173    0.8796 C   0  0  0  0  0  0  0  0  0  0  0  0
 17 18  1  0
 18 19  2  0
 18 10  1  0
 10 11  2  0
 11 12  1  0
 12 13  1  0
 12 14  2  0
 14 15  1  0
 15  1  1  0
  1  2  2  0
  2  3  1  0
  3  4  2  0
  4  5  1  0
  5  6  2  0
  6  7  1  0
  7 20  1  0
 20 22  1  0
 22 23  1  0
 23 24  1  0
 24 25  1  0
  7  8  2  0
  8  9  1  0
 15 16  2  0
 16 10  1  0
  9  1  1  0
  9  4  1  0
 25 23  1  0
 20 21  1  0
M  END
> <minimizedAffinity>
-9.55065

> <CNNscore>
0.8302652836

> <CNNaffinity>
7.4428343773

> <CNN_VS>
6.1795268059

> <CNNaffinity_variance>
0.0825652927

$$$$



 25 28  0  0  0  0  0  0  0  0999 V2000
   27.0922   52.8584    0.4035 C   0  0  0  0  0  0  0  0  0  0  0  0
   27.2873   53.9925    1.1764 C   0  0  0  0  0  0  0  0  0  0  0  0
   27.1370   53.7395    2.5141 N   0  0  0  0  0  0  0  0  0  0  0  0
   26.8367   52.4621    2.5817 C   0  0  0  0  0  0  0  0  0  0  0  0
   26.5641   51.6393    3.6920 C   0  0  0  0  0  0  0  0  0  0  0  0
   26.2601   50.3527    3.4923 C   0  0  0  0  0  0  0  0  0  0  0  0
   26.2180   49.8284    2.0893 C   0  0  0  0  0  0  0  0  0  0  0  0
   26.4771   50.5720    1.0482 N   0  0  0  0  0  0  0  0  0  0  0  0
   26.7877   51.8730    1.3300 N   0  0  0  0  0  0  0  0  0  0  0  0
   26.4790   53.4123   -3.2894 C   0  0  0  0  0  0  0  0  0  0  0  0
   27.2559   52.4004   -3.8545 C   0  0  0  0  0  0  0  0  0  0  0  0
   27.9703   51.5484   -3.0210 C   0  0  0  0  0  0  0  0  0  0  0  0
   28.7191   50.5805   -3.5660 F   0  0  0  0  0  0  0  0  0  0  0  0
   27.9286   51.6809   -1.6369 C   0  0  0  0  0  0  0  0  0  0  0  0
   27.1502   52.6835   -1.0495 C   0  0  0  0  0  0  0  0  0  0  0  0
   26.4325   53.5493   -1.8910 C   0  0  0  0  0  0  0  0  0  0  0  0
   25.7475   55.8366   -3.8079 C   0  0  0  0  0  0  0  0  0  0  0  0
   25.6893   54.3650   -4.1243 C   0  0  0  0  0  0  0  0  0  0  0  0
   25.0034   53.9407   -5.0517 O   0  0  0  0  0  0  0  0  0  0  0  0
   25.8943   48.5021    1.9121 N   0  0  0  0  0  0  0  0  0  0  0  0
   25.2251   48.0912    2.5059 H   0  0  0  0  0  0  0  0  0  0  0  0
   26.5079   47.6913    0.8784 C   0  0  0  0  0  0  0  0  0  0  0  0
   26.0279   46.2660    0.8875 C   0  0  0  0  0  0  0  0  0  0  0  0
   25.4686   45.5797   -0.3367 C   0  0  0  0  0  0  0  0  0  0  0  0
   24.5680   45.8817    0.8328 C   0  0  0  0  0  0  0  0  0  0  0  0
 17 18  1  0
 18 19  2  0
 18 10  1  0
 10 11  2  0
 11 12  1  0
 12 13  1  0
 12 14  2  0
 14 15  1  0
 15  1  1  0
  1  2  2  0
  2  3  1  0
  3  4  2  0
  4  5  1  0
  5  6  2  0
  6  7  1  0
  7 20  1  0
 20 22  1  0
 22 23  1  0
 23 24  1  0
 24 25  1  0
  7  8  2  0
  8  9  1  0
 15 16  2  0
 16 10  1  0
  9  1  1  0
  9  4  1  0
 25 23  1  0
 20 21  1  0
M  END
> <minimizedAffinity>
-9.77180

> <CNNscore>
0.7721535563

> <CNNaffinity>
7.0923619270

> <CNN_VS>
5.4763922691

> <CNNaffinity_variance>
0.0306933466

$$$$



 25 28  0  0  0  0  0  0  0  0999 V2000
   26.4423   49.3061    0.7092 C   0  0  0  0  0  0  0  0  0  0  0  0
   26.2916   49.2775    2.0870 C   0  0  0  0  0  0  0  0  0  0  0  0
   25.7685   48.0901    2.5260 N   0  0  0  0  0  0  0  0  0  0  0  0
   25.5790   47.3837    1.4343 C   0  0  0  0  0  0  0  0  0  0  0  0
   25.0601   46.0862    1.2575 C   0  0  0  0  0  0  0  0  0  0  0  0
   24.9484   45.5905    0.0207 C   0  0  0  0  0  0  0  0  0  0  0  0
   25.3790   46.4356   -1.1391 C   0  0  0  0  0  0  0  0  0  0  0  0
   25.8714   47.6360   -0.9955 N   0  0  0  0  0  0  0  0  0  0  0  0
   25.9633   48.0723    0.2966 N   0  0  0  0  0  0  0  0  0  0  0  0
   27.3353   52.7483   -0.5849 C   0  0  0  0  0  0  0  0  0  0  0  0
   27.9436   52.4380   -1.8016 C   0  0  0  0  0  0  0  0  0  0  0  0
   28.0537   51.1067   -2.1847 C   0  0  0  0  0  0  0  0  0  0  0  0
   28.6422   50.8111   -3.3513 F   0  0  0  0  0  0  0  0  0  0  0  0
   27.5714   50.0769   -1.3837 C   0  0  0  0  0  0  0  0  0  0  0  0
   26.9514   50.3662   -0.1639 C   0  0  0  0  0  0  0  0  0  0  0  0
   26.8450   51.7110    0.2275 C   0  0  0  0  0  0  0  0  0  0  0  0
   26.4233   55.1378   -0.9586 C   0  0  0  0  0  0  0  0  0  0  0  0
   27.1866   54.1553   -0.1093 C   0  0  0  0  0  0  0  0  0  0  0  0
   27.6872   54.4944    0.9607 O   0  0  0  0  0  0  0  0  0  0  0  0
   25.2455   45.9037   -2.4019 N   0  0  0  0  0  0  0  0  0  0  0  0
   24.5297   46.2406   -2.9880 H   0  0  0  0  0  0  0  0  0  0  0  0
   26.1258   44.8628   -2.8959 C   0  0  0  0  0  0  0  0  0  0  0  0
   25.5793   44.1569   -4.1062 C   0  0  0  0  0  0  0  0  0  0  0  0
   25.3871   42.6596   -4.1669 C   0  0  0  0  0  0  0  0  0  0  0  0
   26.4293   43.3191   -5.0324 C   0  0  0  0  0  0  0  0  0  0  0  0
 17 18  1  0
 18 19  2  0
 18 10  1  0
 10 11  2  0
 11 12  1  0
 12 13  1  0
 12 14  2  0
 14 15  1  0
 15  1  1  0
  1  2  2  0
  2  3  1  0
  3  4  2  0
  4  5  1  0
  5  6  2  0
  6  7  1  0
  7 20  1  0
 20 22  1  0
 22 23  1  0
 23 24  1  0
 24 25  1  0
  7  8  2  0
  8  9  1  0
 15 16  2  0
 16 10  1  0
  9  1  1  0
  9  4  1  0
 25 23  1  0
 20 21  1  0
M  END
> <minimizedAffinity>
-8.05457

> <CNNscore>
0.7083458900

> <CNNaffinity>
7.4607295990

> <CNN_VS>
5.2847771645

> <CNNaffinity_variance>
0.3330236971

$$$$



 25 28  0  0  0  0  0  0  0  0999 V2000
   26.9467   50.3638    0.3947 C   0  0  0  0  0  0  0  0  0  0  0  0
   27.2234   50.3647    1.7531 C   0  0  0  0  0  0  0  0  0  0  0  0
   27.3868   51.6317    2.2473 N   0  0  0  0  0  0  0  0  0  0  0  0
   27.2283   52.4197    1.2077 C   0  0  0  0  0  0  0  0  0  0  0  0
   27.2888   53.8228    1.1001 C   0  0  0  0  0  0  0  0  0  0  0  0
   27.1084   54.3943   -0.0951 C   0  0  0  0  0  0  0  0  0  0  0  0
   26.8487   53.5197   -1.2837 C   0  0  0  0  0  0  0  0  0  0  0  0
   26.7791   52.2187   -1.2029 N   0  0  0  0  0  0  0  0  0  0  0  0
   26.9651   51.7066    0.0508 N   0  0  0  0  0  0  0  0  0  0  0  0
   25.9562   46.9442   -0.8883 C   0  0  0  0  0  0  0  0  0  0  0  0
   26.2153   47.0743   -2.2531 C   0  0  0  0  0  0  0  0  0  0  0  0
   26.7117   48.2785   -2.7374 C   0  0  0  0  0  0  0  0  0  0  0  0
   26.9554   48.4024   -4.0489 F   0  0  0  0  0  0  0  0  0  0  0  0
   26.9564   49.3567   -1.8933 C   0  0  0  0  0  0  0  0  0  0  0  0
   26.7109   49.2452   -0.5209 C   0  0  0  0  0  0  0  0  0  0  0  0
   26.2033   48.0306   -0.0309 C   0  0  0  0  0  0  0  0  0  0  0  0
   24.4583   45.7644    0.8568 C   0  0  0  0  0  0  0  0  0  0  0  0
   25.4192   45.6817   -0.3003 C   0  0  0  0  0  0  0  0  0  0  0  0
   25.7668   44.5969   -0.7618 O   0  0  0  0  0  0  0  0  0  0  0  0
   26.6748   54.1341   -2.5034 N   0  0  0  0  0  0  0  0  0  0  0  0
   27.3861   54.7216   -2.8471 H   0  0  0  0  0  0  0  0  0  0  0  0
   25.4770   53.9430   -3.2978 C   0  0  0  0  0  0  0  0  0  0  0  0
   25.7421   53.2395   -4.6004 C   0  0  0  0  0  0  0  0  0  0  0  0
   26.4008   51.8823   -4.6818 C   0  0  0  0  0  0  0  0  0  0  0  0
   27.1206   53.0994   -5.2023 C   0  0  0  0  0  0  0  0  0  0  0  0
 17 18  1  0
 18 19  2  0
 18 10  1  0
 10 11  2  0
 11 12  1  0
 12 13  1  0
 12 14  2  0
 14 15  1  0
 15  1  1  0
  1  2  2  0
  2  3  1  0
  3  4  2  0
  4  5  1  0
  5  6  2  0
  6  7  1  0
  7 20  1  0
 20 22  1  0
 22 23  1  0
 23 24  1  0
 24 25  1  0
  7  8  2  0
  8  9  1  0
 15 16  2  0
 16 10  1  0
  9  1  1  0
  9  4  1  0
 25 23  1  0
 20 21  1  0
M  END
> <minimizedAffinity>
-8.03834

> <CNNscore>
0.6626589298

> <CNNaffinity>
7.1642527580

> <CNN_VS>
4.7474560738

> <CNNaffinity_variance>
0.2086163014

$$$$
