


 35 36  0  0  0  0  0  0  0  0999 V2000
   29.6357    0.7377    4.0532 C   0  0  0  0  0  0  0  0  0  0  0  0
   29.4911   -0.5660    3.2659 C   0  0  0  0  0  0  0  0  0  0  0  0
   30.5873    1.5875    3.3842 O   0  0  0  0  0  0  0  0  0  0  0  0
   31.4435    1.1348    3.3310 H   0  0  0  0  0  0  0  0  0  0  0  0
   28.2856    1.4915    4.1190 C   0  0  0  0  0  0  0  0  0  0  0  0
   27.2493    0.9519    4.4895 O   0  0  0  0  0  0  0  0  0  0  0  0
   28.4302    2.8238    3.7563 N   0  0  0  0  0  0  0  0  0  0  0  0
   29.3315    3.0952    3.4676 H   0  0  0  0  0  0  0  0  0  0  0  0
   27.4534    3.8342    3.7488 C   0  0  0  0  0  0  0  0  0  0  0  0
   27.8947    5.1426    3.5169 C   0  0  0  0  0  0  0  0  0  0  0  0
   26.9886    6.2037    3.4873 C   0  0  0  0  0  0  0  0  0  0  0  0
   25.6270    5.9513    3.6967 C   0  0  0  0  0  0  0  0  0  0  0  0
   25.1530    4.6577    3.9565 C   0  0  0  0  0  0  0  0  0  0  0  0
   26.0902    3.6028    3.9690 C   0  0  0  0  0  0  0  0  0  0  0  0
   23.6979    4.3691    4.2198 C   0  0  0  0  0  0  0  0  0  0  0  0
   23.4649    3.9438    5.4904 F   0  0  0  0  0  0  0  0  0  0  0  0
   22.9004    5.4474    4.0098 F   0  0  0  0  0  0  0  0  0  0  0  0
   23.2025    3.3832    3.4194 F   0  0  0  0  0  0  0  0  0  0  0  0
   24.7163    7.0856    3.6199 N   0  0  0  0  0  0  0  0  0  0  0  0
   24.3690    7.6002    4.6898 O   0  0  0  0  0  0  0  0  0  0  0  0
   24.3879    7.4665    2.4911 O   0  0  0  0  0  0  0  0  0  0  0  0
   30.0915    0.4876    5.5072 C   0  0  0  0  0  0  0  0  0  0  0  0
   29.7926    1.5905    6.3720 O   0  0  0  0  0  0  0  0  0  0  0  0
   28.8647    0.6014   10.3340 C   0  0  0  0  0  0  0  0  0  0  0  0
   28.5420    1.8749    9.8633 C   0  0  0  0  0  0  0  0  0  0  0  0
   28.8343    2.2493    8.5429 C   0  0  0  0  0  0  0  0  0  0  0  0
   29.4490    1.3553    7.6709 C   0  0  0  0  0  0  0  0  0  0  0  0
   29.7831    0.0825    8.1343 C   0  0  0  0  0  0  0  0  0  0  0  0
   29.4926   -0.2917    9.4488 C   0  0  0  0  0  0  0  0  0  0  0  0
   29.9299   -1.8894    9.9572 Cl  0  0  0  0  0  0  0  0  0  0  0  0
   28.8165   -0.5004   13.9508 C   0  0  0  0  0  0  0  0  0  0  0  0
   29.4882   -0.0199   12.6883 C   0  0  0  0  0  0  0  0  0  0  0  0
   30.7029    0.1403   12.6465 O   0  0  0  0  0  0  0  0  0  0  0  0
   28.5938    0.1672   11.6536 N   0  0  0  0  0  0  0  0  0  0  0  0
   27.6505   -0.0254   11.8590 H   0  0  0  0  0  0  0  0  0  0  0  0
 31 32  1  0
 32 33  2  0
 32 34  1  0
 34 24  1  0
 24 25  2  0
 25 26  1  0
 26 27  2  0
 27 23  1  0
 23 22  1  0
 22  1  1  0
  1  2  1  0
  1  3  1  0
  1  5  1  0
  5  6  2  0
  5  7  1  0
  7  9  1  0
  9 10  2  0
 10 11  1  0
 11 12  2  0
 12 19  1  0
 19 20  2  0
 19 21  1  0
 12 13  1  0
 13 15  1  0
 15 16  1  0
 15 17  1  0
 15 18  1  0
 13 14  2  0
 27 28  1  0
 28 29  2  0
 29 30  1  0
 29 24  1  0
 14  9  1  0
 34 35  1  0
  3  4  1  0
  7  8  1  0
M  CHG 1  19   1
M  CHG 1  21  -1
M  END
> <minimizedAffinity>
-11.80625

> <CNNscore>
0.9709810019

> <CNNaffinity>
8.8264493942

> <CNN_VS>
8.5703144073

> <CNNaffinity_variance>
0.4860831499

$$$$



 35 36  0  0  0  0  0  0  0  0999 V2000
   30.1554    0.6015    5.0706 C   0  0  0  0  0  0  0  0  0  0  0  0
   30.8520    1.7351    4.3155 C   0  0  0  0  0  0  0  0  0  0  0  0
   31.0989   -0.4642    5.2926 O   0  0  0  0  0  0  0  0  0  0  0  0
   31.4288   -0.7870    4.4395 H   0  0  0  0  0  0  0  0  0  0  0  0
   29.6523    1.0894    6.4504 C   0  0  0  0  0  0  0  0  0  0  0  0
   28.9890    2.1115    6.5840 O   0  0  0  0  0  0  0  0  0  0  0  0
   30.0100    0.2079    7.4616 N   0  0  0  0  0  0  0  0  0  0  0  0
   30.5597   -0.5612    7.1866 H   0  0  0  0  0  0  0  0  0  0  0  0
   29.6871    0.2740    8.8277 C   0  0  0  0  0  0  0  0  0  0  0  0
   28.3511    0.5383    9.1526 C   0  0  0  0  0  0  0  0  0  0  0  0
   27.9453    0.6145   10.4859 C   0  0  0  0  0  0  0  0  0  0  0  0
   28.8893    0.4283   11.5036 C   0  0  0  0  0  0  0  0  0  0  0  0
   30.2399    0.1869   11.2152 C   0  0  0  0  0  0  0  0  0  0  0  0
   30.6192    0.1036    9.8586 C   0  0  0  0  0  0  0  0  0  0  0  0
   31.2780    0.0192   12.2942 C   0  0  0  0  0  0  0  0  0  0  0  0
   31.0850    0.8569   13.3480 F   0  0  0  0  0  0  0  0  0  0  0  0
   31.3206   -1.2426   12.7930 F   0  0  0  0  0  0  0  0  0  0  0  0
   32.5413    0.2850   11.8566 F   0  0  0  0  0  0  0  0  0  0  0  0
   28.4105    0.4809   12.8784 N   0  0  0  0  0  0  0  0  0  0  0  0
   27.6434    1.4061   13.1707 O   0  0  0  0  0  0  0  0  0  0  0  0
   28.7815   -0.4213   13.6369 O   0  0  0  0  0  0  0  0  0  0  0  0
   28.9302    0.0618    4.3013 C   0  0  0  0  0  0  0  0  0  0  0  0
   28.6223    0.8464    3.1423 O   0  0  0  0  0  0  0  0  0  0  0  0
   26.0262    4.1013    3.5924 C   0  0  0  0  0  0  0  0  0  0  0  0
   27.3788    4.3455    3.3509 C   0  0  0  0  0  0  0  0  0  0  0  0
   28.2844    3.2853    3.1934 C   0  0  0  0  0  0  0  0  0  0  0  0
   27.8517    1.9646    3.2699 C   0  0  0  0  0  0  0  0  0  0  0  0
   26.5029    1.7098    3.5192 C   0  0  0  0  0  0  0  0  0  0  0  0
   25.6000    2.7645    3.6761 C   0  0  0  0  0  0  0  0  0  0  0  0
   23.9383    2.3772    3.9781 Cl  0  0  0  0  0  0  0  0  0  0  0  0
   23.9974    7.2689    3.9763 C   0  0  0  0  0  0  0  0  0  0  0  0
   25.2737    6.4933    3.7632 C   0  0  0  0  0  0  0  0  0  0  0  0
   26.3469    7.0735    3.6419 O   0  0  0  0  0  0  0  0  0  0  0  0
   25.0668    5.1286    3.7584 N   0  0  0  0  0  0  0  0  0  0  0  0
   24.1365    4.8331    3.8862 H   0  0  0  0  0  0  0  0  0  0  0  0
 31 32  1  0
 32 33  2  0
 32 34  1  0
 34 24  1  0
 24 25  2  0
 25 26  1  0
 26 27  2  0
 27 23  1  0
 23 22  1  0
 22  1  1  0
  1  2  1  0
  1  3  1  0
  1  5  1  0
  5  6  2  0
  5  7  1  0
  7  9  1  0
  9 10  2  0
 10 11  1  0
 11 12  2  0
 12 19  1  0
 19 20  2  0
 19 21  1  0
 12 13  1  0
 13 15  1  0
 15 16  1  0
 15 17  1  0
 15 18  1  0
 13 14  2  0
 27 28  1  0
 28 29  2  0
 29 30  1  0
 29 24  1  0
 14  9  1  0
 34 35  1  0
  3  4  1  0
  7  8  1  0
M  CHG 1  19   1
M  CHG 1  21  -1
M  END
> <minimizedAffinity>
-7.87328

> <CNNscore>
0.5792344213

> <CNNaffinity>
7.9177498817

> <CNN_VS>
4.5862331390

> <CNNaffinity_variance>
0.7347462177

$$$$



 35 36  0  0  0  0  0  0  0  0999 V2000
   29.7967    0.3157    4.0331 C   0  0  0  0  0  0  0  0  0  0  0  0
   29.8827   -1.0479    3.3450 C   0  0  0  0  0  0  0  0  0  0  0  0
   30.5285    1.2818    3.2544 O   0  0  0  0  0  0  0  0  0  0  0  0
   31.4550    1.0040    3.1822 H   0  0  0  0  0  0  0  0  0  0  0  0
   28.3269    0.7916    4.1261 C   0  0  0  0  0  0  0  0  0  0  0  0
   27.4246    0.0635    4.5236 O   0  0  0  0  0  0  0  0  0  0  0  0
   28.2001    2.1228    3.7527 N   0  0  0  0  0  0  0  0  0  0  0  0
   29.0243    2.5622    3.4417 H   0  0  0  0  0  0  0  0  0  0  0  0
   27.0446    2.9226    3.7624 C   0  0  0  0  0  0  0  0  0  0  0  0
   25.8134    2.2591    3.8282 C   0  0  0  0  0  0  0  0  0  0  0  0
   24.6179    2.9792    3.8482 C   0  0  0  0  0  0  0  0  0  0  0  0
   24.6571    4.3782    3.7973 C   0  0  0  0  0  0  0  0  0  0  0  0
   25.8704    5.0746    3.7056 C   0  0  0  0  0  0  0  0  0  0  0  0
   27.0635    4.3212    3.6989 C   0  0  0  0  0  0  0  0  0  0  0  0
   25.9336    6.5771    3.6137 C   0  0  0  0  0  0  0  0  0  0  0  0
   25.1585    7.1965    4.5438 F   0  0  0  0  0  0  0  0  0  0  0  0
   27.1931    7.0616    3.7606 F   0  0  0  0  0  0  0  0  0  0  0  0
   25.4943    7.0511    2.4136 F   0  0  0  0  0  0  0  0  0  0  0  0
   23.3853    5.0861    3.8578 N   0  0  0  0  0  0  0  0  0  0  0  0
   23.4260    6.3204    3.7880 O   0  0  0  0  0  0  0  0  0  0  0  0
   22.3628    4.3973    3.9406 O   0  0  0  0  0  0  0  0  0  0  0  0
   30.3561    0.2737    5.4717 C   0  0  0  0  0  0  0  0  0  0  0  0
   29.9417    1.4011    6.2533 O   0  0  0  0  0  0  0  0  0  0  0  0
   28.9287    0.5768   10.2322 C   0  0  0  0  0  0  0  0  0  0  0  0
   28.6574    1.8445    9.7157 C   0  0  0  0  0  0  0  0  0  0  0  0
   28.9796    2.1645    8.3880 C   0  0  0  0  0  0  0  0  0  0  0  0
   29.5734    1.2212    7.5542 C   0  0  0  0  0  0  0  0  0  0  0  0
   29.8562   -0.0464    8.0635 C   0  0  0  0  0  0  0  0  0  0  0  0
   29.5358   -0.3665    9.3854 C   0  0  0  0  0  0  0  0  0  0  0  0
   29.9097   -1.9609    9.9517 Cl  0  0  0  0  0  0  0  0  0  0  0  0
   28.7936   -0.3876   13.8858 C   0  0  0  0  0  0  0  0  0  0  0  0
   29.4968    0.0358   12.6200 C   0  0  0  0  0  0  0  0  0  0  0  0
   30.7143    0.1776   12.5968 O   0  0  0  0  0  0  0  0  0  0  0  0
   28.6257    0.1962   11.5613 N   0  0  0  0  0  0  0  0  0  0  0  0
   27.6758    0.0245   11.7547 H   0  0  0  0  0  0  0  0  0  0  0  0
 31 32  1  0
 32 33  2  0
 32 34  1  0
 34 24  1  0
 24 25  2  0
 25 26  1  0
 26 27  2  0
 27 23  1  0
 23 22  1  0
 22  1  1  0
  1  2  1  0
  1  3  1  0
  1  5  1  0
  5  6  2  0
  5  7  1  0
  7  9  1  0
  9 10  2  0
 10 11  1  0
 11 12  2  0
 12 19  1  0
 19 20  2  0
 19 21  1  0
 12 13  1  0
 13 15  1  0
 15 16  1  0
 15 17  1  0
 15 18  1  0
 13 14  2  0
 27 28  1  0
 28 29  2  0
 29 30  1  0
 29 24  1  0
 14  9  1  0
 34 35  1  0
  3  4  1  0
  7  8  1  0
M  CHG 1  19   1
M  CHG 1  21  -1
M  END
> <minimizedAffinity>
-10.95610

> <CNNscore>
0.5756753683

> <CNNaffinity>
8.4084157944

> <CNN_VS>
4.8405179977

> <CNNaffinity_variance>
0.3260917068

$$$$



 35 36  0  0  0  0  0  0  0  0999 V2000
   29.3514    0.1456    4.4144 C   0  0  0  0  0  0  0  0  0  0  0  0
   28.2426   -0.8914    4.6036 C   0  0  0  0  0  0  0  0  0  0  0  0
   29.9220   -0.0112    3.1010 O   0  0  0  0  0  0  0  0  0  0  0  0
   30.2853   -0.9061    3.0110 H   0  0  0  0  0  0  0  0  0  0  0  0
   28.7836    1.5814    4.5203 C   0  0  0  0  0  0  0  0  0  0  0  0
   29.4729    2.5372    4.8576 O   0  0  0  0  0  0  0  0  0  0  0  0
   27.4474    1.6275    4.1463 N   0  0  0  0  0  0  0  0  0  0  0  0
   27.0353    0.7633    3.9169 H   0  0  0  0  0  0  0  0  0  0  0  0
   26.6082    2.7510    4.0537 C   0  0  0  0  0  0  0  0  0  0  0  0
   25.3055    2.6134    4.5480 C   0  0  0  0  0  0  0  0  0  0  0  0
   24.4101    3.6830    4.4997 C   0  0  0  0  0  0  0  0  0  0  0  0
   24.8235    4.9012    3.9463 C   0  0  0  0  0  0  0  0  0  0  0  0
   26.1120    5.0671    3.4192 C   0  0  0  0  0  0  0  0  0  0  0  0
   26.9995    3.9725    3.4921 C   0  0  0  0  0  0  0  0  0  0  0  0
   26.5655    6.3575    2.7873 C   0  0  0  0  0  0  0  0  0  0  0  0
   27.5208    6.1734    1.8371 F   0  0  0  0  0  0  0  0  0  0  0  0
   25.5505    7.0430    2.2020 F   0  0  0  0  0  0  0  0  0  0  0  0
   27.1210    7.2184    3.6865 F   0  0  0  0  0  0  0  0  0  0  0  0
   23.8652    5.9984    3.9518 N   0  0  0  0  0  0  0  0  0  0  0  0
   24.1746    7.0108    4.5917 O   0  0  0  0  0  0  0  0  0  0  0  0
   22.8329    5.8455    3.2900 O   0  0  0  0  0  0  0  0  0  0  0  0
   30.4575    0.0108    5.4833 C   0  0  0  0  0  0  0  0  0  0  0  0
   30.3388    0.9923    6.5207 O   0  0  0  0  0  0  0  0  0  0  0  0
   29.5854   -0.1430   10.4805 C   0  0  0  0  0  0  0  0  0  0  0  0
   28.5372   -0.1706    9.5597 C   0  0  0  0  0  0  0  0  0  0  0  0
   28.7441    0.2012    8.2226 C   0  0  0  0  0  0  0  0  0  0  0  0
   30.0028    0.6017    7.7836 C   0  0  0  0  0  0  0  0  0  0  0  0
   31.0556    0.6407    8.6983 C   0  0  0  0  0  0  0  0  0  0  0  0
   30.8510    0.2706   10.0300 C   0  0  0  0  0  0  0  0  0  0  0  0
   32.2031    0.3370   11.1117 Cl  0  0  0  0  0  0  0  0  0  0  0  0
   28.8213   -0.5427   14.1620 C   0  0  0  0  0  0  0  0  0  0  0  0
   28.7399    0.1576   12.8283 C   0  0  0  0  0  0  0  0  0  0  0  0
   28.1270    1.2128   12.7108 O   0  0  0  0  0  0  0  0  0  0  0  0
   29.4375   -0.5075   11.8401 N   0  0  0  0  0  0  0  0  0  0  0  0
   29.8881   -1.3384   12.1152 H   0  0  0  0  0  0  0  0  0  0  0  0
 31 32  1  0
 32 33  2  0
 32 34  1  0
 34 24  1  0
 24 25  2  0
 25 26  1  0
 26 27  2  0
 27 23  1  0
 23 22  1  0
 22  1  1  0
  1  2  1  0
  1  3  1  0
  1  5  1  0
  5  6  2  0
  5  7  1  0
  7  9  1  0
  9 10  2  0
 10 11  1  0
 11 12  2  0
 12 19  1  0
 19 20  2  0
 19 21  1  0
 12 13  1  0
 13 15  1  0
 15 16  1  0
 15 17  1  0
 15 18  1  0
 13 14  2  0
 27 28  1  0
 28 29  2  0
 29 30  1  0
 29 24  1  0
 14  9  1  0
 34 35  1  0
  3  4  1  0
  7  8  1  0
M  CHG 1  19   1
M  CHG 1  21  -1
M  END
> <minimizedAffinity>
-6.37043

> <CNNscore>
0.4488405287

> <CNNaffinity>
7.6598238945

> <CNN_VS>
3.4380393028

> <CNNaffinity_variance>
0.1504741460

$$$$



 35 36  0  0  0  0  0  0  0  0999 V2000
   24.1996    7.1606    3.6771 C   0  0  0  0  0  0  0  0  0  0  0  0
   22.9543    6.4578    4.2208 C   0  0  0  0  0  0  0  0  0  0  0  0
   24.1104    7.2302    2.2410 O   0  0  0  0  0  0  0  0  0  0  0  0
   24.0497    6.3331    1.8770 H   0  0  0  0  0  0  0  0  0  0  0  0
   24.2947    8.6066    4.2205 C   0  0  0  0  0  0  0  0  0  0  0  0
   24.6449    9.5498    3.5204 O   0  0  0  0  0  0  0  0  0  0  0  0
   23.8954    8.6769    5.5483 N   0  0  0  0  0  0  0  0  0  0  0  0
   23.6583    7.8203    5.9717 H   0  0  0  0  0  0  0  0  0  0  0  0
   23.7868    9.8155    6.3649 C   0  0  0  0  0  0  0  0  0  0  0  0
   23.8147   11.0608    5.7254 C   0  0  0  0  0  0  0  0  0  0  0  0
   23.7065   12.2411    6.4625 C   0  0  0  0  0  0  0  0  0  0  0  0
   23.5735   12.1724    7.8549 C   0  0  0  0  0  0  0  0  0  0  0  0
   23.5670   10.9441    8.5308 C   0  0  0  0  0  0  0  0  0  0  0  0
   23.6664    9.7669    7.7590 C   0  0  0  0  0  0  0  0  0  0  0  0
   23.4609   10.8488   10.0307 C   0  0  0  0  0  0  0  0  0  0  0  0
   23.9175    9.6644   10.5186 F   0  0  0  0  0  0  0  0  0  0  0  0
   24.1442   11.8316   10.6709 F   0  0  0  0  0  0  0  0  0  0  0  0
   22.1759   10.9438   10.4756 F   0  0  0  0  0  0  0  0  0  0  0  0
   23.4271   13.4295    8.5762 N   0  0  0  0  0  0  0  0  0  0  0  0
   22.2741   13.8221    8.7918 O   0  0  0  0  0  0  0  0  0  0  0  0
   24.4652   13.9891    8.9454 O   0  0  0  0  0  0  0  0  0  0  0  0
   25.4988    6.4322    4.0845 C   0  0  0  0  0  0  0  0  0  0  0  0
   25.2666    5.0702    4.4645 O   0  0  0  0  0  0  0  0  0  0  0  0
   27.7751    1.9016    3.3668 C   0  0  0  0  0  0  0  0  0  0  0  0
   28.2244    3.2107    3.1886 C   0  0  0  0  0  0  0  0  0  0  0  0
   27.4175    4.3028    3.5425 C   0  0  0  0  0  0  0  0  0  0  0  0
   26.1511    4.1038    4.0847 C   0  0  0  0  0  0  0  0  0  0  0  0
   25.6894    2.7989    4.2593 C   0  0  0  0  0  0  0  0  0  0  0  0
   26.4918    1.7105    3.9074 C   0  0  0  0  0  0  0  0  0  0  0  0
   25.8587    0.1167    4.1556 Cl  0  0  0  0  0  0  0  0  0  0  0  0
   29.9490   -1.1837    3.1391 C   0  0  0  0  0  0  0  0  0  0  0  0
   29.2424   -0.0741    3.8775 C   0  0  0  0  0  0  0  0  0  0  0  0
   29.3421    0.0315    5.0949 O   0  0  0  0  0  0  0  0  0  0  0  0
   28.5436    0.7618    3.0300 N   0  0  0  0  0  0  0  0  0  0  0  0
   28.5849    0.5373    2.0723 H   0  0  0  0  0  0  0  0  0  0  0  0
 31 32  1  0
 32 33  2  0
 32 34  1  0
 34 24  1  0
 24 25  2  0
 25 26  1  0
 26 27  2  0
 27 23  1  0
 23 22  1  0
 22  1  1  0
  1  2  1  0
  1  3  1  0
  1  5  1  0
  5  6  2  0
  5  7  1  0
  7  9  1  0
  9 10  2  0
 10 11  1  0
 11 12  2  0
 12 19  1  0
 19 20  2  0
 19 21  1  0
 12 13  1  0
 13 15  1  0
 15 16  1  0
 15 17  1  0
 15 18  1  0
 13 14  2  0
 27 28  1  0
 28 29  2  0
 29 30  1  0
 29 24  1  0
 14  9  1  0
 34 35  1  0
  3  4  1  0
  7  8  1  0
M  CHG 1  19   1
M  CHG 1  21  -1
M  END
> <minimizedAffinity>
2.55509

> <CNNscore>
0.4407272041

> <CNNaffinity>
7.0527286530

> <CNN_VS>
3.1083292961

> <CNNaffinity_variance>
0.0536462776

$$$$



 35 36  0  0  0  0  0  0  0  0999 V2000
   28.5945   -0.1049   13.2364 C   0  0  0  0  0  0  0  0  0  0  0  0
   29.6485    0.8417   13.8137 C   0  0  0  0  0  0  0  0  0  0  0  0
   28.4726   -1.2535   14.0974 O   0  0  0  0  0  0  0  0  0  0  0  0
   29.3287   -1.7057   14.1562 H   0  0  0  0  0  0  0  0  0  0  0  0
   27.2129    0.5890   13.1671 C   0  0  0  0  0  0  0  0  0  0  0  0
   27.0473    1.6689   12.6113 O   0  0  0  0  0  0  0  0  0  0  0  0
   26.2259   -0.1852   13.7619 N   0  0  0  0  0  0  0  0  0  0  0  0
   26.5303   -1.0235   14.1789 H   0  0  0  0  0  0  0  0  0  0  0  0
   24.8474    0.0756   13.8443 C   0  0  0  0  0  0  0  0  0  0  0  0
   24.4209    1.3588   13.4810 C   0  0  0  0  0  0  0  0  0  0  0  0
   23.0679    1.6983   13.5284 C   0  0  0  0  0  0  0  0  0  0  0  0
   22.1338    0.7432   13.9485 C   0  0  0  0  0  0  0  0  0  0  0  0
   22.5277   -0.5430   14.3434 C   0  0  0  0  0  0  0  0  0  0  0  0
   23.9005   -0.8619   14.2742 C   0  0  0  0  0  0  0  0  0  0  0  0
   21.5436   -1.5739   14.8324 C   0  0  0  0  0  0  0  0  0  0  0  0
   22.1468   -2.6949   15.3111 F   0  0  0  0  0  0  0  0  0  0  0  0
   20.7363   -1.1059   15.8182 F   0  0  0  0  0  0  0  0  0  0  0  0
   20.7078   -2.0132   13.8493 F   0  0  0  0  0  0  0  0  0  0  0  0
   20.7303    1.1334   13.9461 N   0  0  0  0  0  0  0  0  0  0  0  0
   20.0517    0.7824   12.9732 O   0  0  0  0  0  0  0  0  0  0  0  0
   20.3189    1.7558   14.9311 O   0  0  0  0  0  0  0  0  0  0  0  0
   28.9496   -0.5615   11.8047 C   0  0  0  0  0  0  0  0  0  0  0  0
   29.9534    0.2635   11.2002 O   0  0  0  0  0  0  0  0  0  0  0  0
   29.5258    1.6054    7.2564 C   0  0  0  0  0  0  0  0  0  0  0  0
   28.7321    2.1753    8.2528 C   0  0  0  0  0  0  0  0  0  0  0  0
   28.8419    1.7565    9.5875 C   0  0  0  0  0  0  0  0  0  0  0  0
   29.7501    0.7653    9.9483 C   0  0  0  0  0  0  0  0  0  0  0  0
   30.5425    0.1835    8.9583 C   0  0  0  0  0  0  0  0  0  0  0  0
   30.4342    0.5996    7.6288 C   0  0  0  0  0  0  0  0  0  0  0  0
   31.4521   -0.1613    6.4509 Cl  0  0  0  0  0  0  0  0  0  0  0  0
   28.6750    2.5536    3.6963 C   0  0  0  0  0  0  0  0  0  0  0  0
   28.3373    2.1400    5.1073 C   0  0  0  0  0  0  0  0  0  0  0  0
   27.1735    1.9510    5.4435 O   0  0  0  0  0  0  0  0  0  0  0  0
   29.4604    1.9873    5.8951 N   0  0  0  0  0  0  0  0  0  0  0  0
   30.3230    2.1661    5.4556 H   0  0  0  0  0  0  0  0  0  0  0  0
 31 32  1  0
 32 33  2  0
 32 34  1  0
 34 24  1  0
 24 25  2  0
 25 26  1  0
 26 27  2  0
 27 23  1  0
 23 22  1  0
 22  1  1  0
  1  2  1  0
  1  3  1  0
  1  5  1  0
  5  6  2  0
  5  7  1  0
  7  9  1  0
  9 10  2  0
 10 11  1  0
 11 12  2  0
 12 19  1  0
 19 20  2  0
 19 21  1  0
 12 13  1  0
 13 15  1  0
 15 16  1  0
 15 17  1  0
 15 18  1  0
 13 14  2  0
 27 28  1  0
 28 29  2  0
 29 30  1  0
 29 24  1  0
 14  9  1  0
 34 35  1  0
  3  4  1  0
  7  8  1  0
M  CHG 1  19   1
M  CHG 1  21  -1
M  END
> <minimizedAffinity>
9.66772

> <CNNscore>
0.3755360842

> <CNNaffinity>
6.4490833282

> <CNN_VS>
2.4218635559

> <CNNaffinity_variance>
0.0445012860

$$$$



 35 36  0  0  0  0  0  0  0  0999 V2000
   29.3889    0.6893    7.4035 C   0  0  0  0  0  0  0  0  0  0  0  0
   28.5640    0.5894    8.6880 C   0  0  0  0  0  0  0  0  0  0  0  0
   28.9670   -0.3440    6.4927 O   0  0  0  0  0  0  0  0  0  0  0  0
   29.0984   -1.2121    6.9052 H   0  0  0  0  0  0  0  0  0  0  0  0
   29.1650    2.0559    6.7125 C   0  0  0  0  0  0  0  0  0  0  0  0
   29.9764    2.9714    6.7888 O   0  0  0  0  0  0  0  0  0  0  0  0
   27.9813    2.0696    5.9871 N   0  0  0  0  0  0  0  0  0  0  0  0
   27.4331    1.2538    6.0437 H   0  0  0  0  0  0  0  0  0  0  0  0
   27.4663    3.1002    5.1823 C   0  0  0  0  0  0  0  0  0  0  0  0
   28.3917    3.8725    4.4699 C   0  0  0  0  0  0  0  0  0  0  0  0
   27.9632    4.9119    3.6428 C   0  0  0  0  0  0  0  0  0  0  0  0
   26.5936    5.1825    3.5322 C   0  0  0  0  0  0  0  0  0  0  0  0
   25.6407    4.4460    4.2500 C   0  0  0  0  0  0  0  0  0  0  0  0
   26.1020    3.3938    5.0694 C   0  0  0  0  0  0  0  0  0  0  0  0
   24.1657    4.7433    4.1733 C   0  0  0  0  0  0  0  0  0  0  0  0
   23.6428    4.5084    2.9400 F   0  0  0  0  0  0  0  0  0  0  0  0
   23.4352    4.0186    5.0586 F   0  0  0  0  0  0  0  0  0  0  0  0
   23.8763    6.0487    4.4383 F   0  0  0  0  0  0  0  0  0  0  0  0
   26.1935    6.2528    2.6286 N   0  0  0  0  0  0  0  0  0  0  0  0
   26.4756    6.1125    1.4324 O   0  0  0  0  0  0  0  0  0  0  0  0
   25.5746    7.2018    3.1217 O   0  0  0  0  0  0  0  0  0  0  0  0
   30.9029    0.5574    7.6771 C   0  0  0  0  0  0  0  0  0  0  0  0
   31.2644    1.0136    8.9865 O   0  0  0  0  0  0  0  0  0  0  0  0
   29.9090   -0.7768   12.5213 C   0  0  0  0  0  0  0  0  0  0  0  0
   29.6601   -1.4129   11.3044 C   0  0  0  0  0  0  0  0  0  0  0  0
   30.0960   -0.8492   10.0956 C   0  0  0  0  0  0  0  0  0  0  0  0
   30.7918    0.3563   10.0842 C   0  0  0  0  0  0  0  0  0  0  0  0
   31.0385    1.0042   11.2949 C   0  0  0  0  0  0  0  0  0  0  0  0
   30.6051    0.4441   12.4994 C   0  0  0  0  0  0  0  0  0  0  0  0
   30.9498    1.2989   13.9667 Cl  0  0  0  0  0  0  0  0  0  0  0  0
   28.2665   -1.7502   15.7849 C   0  0  0  0  0  0  0  0  0  0  0  0
   28.3543   -0.9906   14.4846 C   0  0  0  0  0  0  0  0  0  0  0  0
   27.4861   -0.1842   14.1698 O   0  0  0  0  0  0  0  0  0  0  0  0
   29.4955   -1.2970   13.7709 N   0  0  0  0  0  0  0  0  0  0  0  0
   30.0963   -1.9596   14.1822 H   0  0  0  0  0  0  0  0  0  0  0  0
 31 32  1  0
 32 33  2  0
 32 34  1  0
 34 24  1  0
 24 25  2  0
 25 26  1  0
 26 27  2  0
 27 23  1  0
 23 22  1  0
 22  1  1  0
  1  2  1  0
  1  3  1  0
  1  5  1  0
  5  6  2  0
  5  7  1  0
  7  9  1  0
  9 10  2  0
 10 11  1  0
 11 12  2  0
 12 19  1  0
 19 20  2  0
 19 21  1  0
 12 13  1  0
 13 15  1  0
 15 16  1  0
 15 17  1  0
 15 18  1  0
 13 14  2  0
 27 28  1  0
 28 29  2  0
 29 30  1  0
 29 24  1  0
 14  9  1  0
 34 35  1  0
  3  4  1  0
  7  8  1  0
M  CHG 1  19   1
M  CHG 1  21  -1
M  END
> <minimizedAffinity>
-0.18560

> <CNNscore>
0.3455828726

> <CNNaffinity>
7.3010807037

> <CNN_VS>
2.5231285095

> <CNNaffinity_variance>
0.0403456800

$$$$



 35 36  0  0  0  0  0  0  0  0999 V2000
   24.2389    7.3932    3.6467 C   0  0  0  0  0  0  0  0  0  0  0  0
   23.0388    6.6540    4.2415 C   0  0  0  0  0  0  0  0  0  0  0  0
   24.0603    7.5088    2.2219 O   0  0  0  0  0  0  0  0  0  0  0  0
   23.9890    6.6234    1.8321 H   0  0  0  0  0  0  0  0  0  0  0  0
   24.3483    8.8218    4.2319 C   0  0  0  0  0  0  0  0  0  0  0  0
   24.7393    9.7753    3.5683 O   0  0  0  0  0  0  0  0  0  0  0  0
   23.9111    8.8655    5.5488 N   0  0  0  0  0  0  0  0  0  0  0  0
   23.6432    8.0034    5.9415 H   0  0  0  0  0  0  0  0  0  0  0  0
   23.8023    9.9841    6.3926 C   0  0  0  0  0  0  0  0  0  0  0  0
   23.4418    9.7429    7.7238 C   0  0  0  0  0  0  0  0  0  0  0  0
   23.3177   10.7980    8.6291 C   0  0  0  0  0  0  0  0  0  0  0  0
   23.5530   12.1083    8.1942 C   0  0  0  0  0  0  0  0  0  0  0  0
   23.8911   12.3891    6.8629 C   0  0  0  0  0  0  0  0  0  0  0  0
   24.0208   11.3019    5.9728 C   0  0  0  0  0  0  0  0  0  0  0  0
   24.1136   13.7939    6.3658 C   0  0  0  0  0  0  0  0  0  0  0  0
   25.1613   14.4104    6.9755 F   0  0  0  0  0  0  0  0  0  0  0  0
   24.3435   13.8498    5.0291 F   0  0  0  0  0  0  0  0  0  0  0  0
   23.0437   14.6083    6.5899 F   0  0  0  0  0  0  0  0  0  0  0  0
   23.4469   13.1714    9.1845 N   0  0  0  0  0  0  0  0  0  0  0  0
   24.4838   13.4908    9.7786 O   0  0  0  0  0  0  0  0  0  0  0  0
   22.3367   13.6941    9.3303 O   0  0  0  0  0  0  0  0  0  0  0  0
   25.5701    6.6716    3.9489 C   0  0  0  0  0  0  0  0  0  0  0  0
   25.3714    5.3476    4.4598 O   0  0  0  0  0  0  0  0  0  0  0  0
   27.7899    2.0937    3.4112 C   0  0  0  0  0  0  0  0  0  0  0  0
   28.3118    3.3836    3.3062 C   0  0  0  0  0  0  0  0  0  0  0  0
   27.5373    4.5030    3.6469 C   0  0  0  0  0  0  0  0  0  0  0  0
   26.2309    4.3506    4.1026 C   0  0  0  0  0  0  0  0  0  0  0  0
   25.6971    3.0656    4.2033 C   0  0  0  0  0  0  0  0  0  0  0  0
   26.4672    1.9500    3.8644 C   0  0  0  0  0  0  0  0  0  0  0  0
   25.7440    0.3829    4.0181 Cl  0  0  0  0  0  0  0  0  0  0  0  0
   29.8419   -1.0760    3.2114 C   0  0  0  0  0  0  0  0  0  0  0  0
   29.1547    0.0509    3.9419 C   0  0  0  0  0  0  0  0  0  0  0  0
   29.2135    0.1337    5.1637 O   0  0  0  0  0  0  0  0  0  0  0  0
   28.5227    0.9280    3.0836 N   0  0  0  0  0  0  0  0  0  0  0  0
   28.5902    0.7165    2.1244 H   0  0  0  0  0  0  0  0  0  0  0  0
 31 32  1  0
 32 33  2  0
 32 34  1  0
 34 24  1  0
 24 25  2  0
 25 26  1  0
 26 27  2  0
 27 23  1  0
 23 22  1  0
 22  1  1  0
  1  2  1  0
  1  3  1  0
  1  5  1  0
  5  6  2  0
  5  7  1  0
  7  9  1  0
  9 10  2  0
 10 11  1  0
 11 12  2  0
 12 19  1  0
 19 20  2  0
 19 21  1  0
 12 13  1  0
 13 15  1  0
 15 16  1  0
 15 17  1  0
 15 18  1  0
 13 14  2  0
 27 28  1  0
 28 29  2  0
 29 30  1  0
 29 24  1  0
 14  9  1  0
 34 35  1  0
  3  4  1  0
  7  8  1  0
M  CHG 1  19   1
M  CHG 1  21  -1
M  END
> <minimizedAffinity>
2.67049

> <CNNscore>
0.3342245519

> <CNNaffinity>
6.8838515282

> <CNN_VS>
2.3007521629

> <CNNaffinity_variance>
0.0604774840

$$$$



 35 36  0  0  0  0  0  0  0  0999 V2000
   28.5751    0.1259   13.3156 C   0  0  0  0  0  0  0  0  0  0  0  0
   29.4295    1.3539   13.6358 C   0  0  0  0  0  0  0  0  0  0  0  0
   28.8868   -0.9211   14.2548 O   0  0  0  0  0  0  0  0  0  0  0  0
   29.8283   -1.1450   14.1886 H   0  0  0  0  0  0  0  0  0  0  0  0
   27.0689    0.4553   13.4499 C   0  0  0  0  0  0  0  0  0  0  0  0
   26.5666    1.4516   12.9426 O   0  0  0  0  0  0  0  0  0  0  0  0
   26.3956   -0.5296   14.1599 N   0  0  0  0  0  0  0  0  0  0  0  0
   26.9522   -1.2597   14.5153 H   0  0  0  0  0  0  0  0  0  0  0  0
   25.0203   -0.6166   14.4358 C   0  0  0  0  0  0  0  0  0  0  0  0
   24.5717   -1.7827   15.0677 C   0  0  0  0  0  0  0  0  0  0  0  0
   23.2219   -1.9464   15.3826 C   0  0  0  0  0  0  0  0  0  0  0  0
   22.3120   -0.9329   15.0567 C   0  0  0  0  0  0  0  0  0  0  0  0
   22.7217    0.2369   14.4014 C   0  0  0  0  0  0  0  0  0  0  0  0
   24.0940    0.3802   14.1059 C   0  0  0  0  0  0  0  0  0  0  0  0
   21.7543    1.3236   14.0098 C   0  0  0  0  0  0  0  0  0  0  0  0
   22.3351    2.3073   13.2719 F   0  0  0  0  0  0  0  0  0  0  0  0
   20.7011    0.8578   13.2911 F   0  0  0  0  0  0  0  0  0  0  0  0
   21.2127    1.9606   15.0864 F   0  0  0  0  0  0  0  0  0  0  0  0
   20.9207   -1.1342   15.4385 N   0  0  0  0  0  0  0  0  0  0  0  0
   20.3845   -0.2367   16.0996 O   0  0  0  0  0  0  0  0  0  0  0  0
   20.3746   -2.1702   15.0442 O   0  0  0  0  0  0  0  0  0  0  0  0
   28.8064   -0.3797   11.8750 C   0  0  0  0  0  0  0  0  0  0  0  0
   29.8782    0.3089   11.2187 O   0  0  0  0  0  0  0  0  0  0  0  0
   29.4827    1.6668    7.2771 C   0  0  0  0  0  0  0  0  0  0  0  0
   28.7060    2.2568    8.2750 C   0  0  0  0  0  0  0  0  0  0  0  0
   28.8059    1.8336    9.6091 C   0  0  0  0  0  0  0  0  0  0  0  0
   29.6872    0.8176    9.9676 C   0  0  0  0  0  0  0  0  0  0  0  0
   30.4622    0.2156    8.9760 C   0  0  0  0  0  0  0  0  0  0  0  0
   30.3638    0.6361    7.6472 C   0  0  0  0  0  0  0  0  0  0  0  0
   31.3593   -0.1507    6.4672 Cl  0  0  0  0  0  0  0  0  0  0  0  0
   28.6574    2.5999    3.7070 C   0  0  0  0  0  0  0  0  0  0  0  0
   28.3114    2.1687    5.1106 C   0  0  0  0  0  0  0  0  0  0  0  0
   27.1497    1.9376    5.4270 O   0  0  0  0  0  0  0  0  0  0  0  0
   29.4262    2.0519    5.9163 N   0  0  0  0  0  0  0  0  0  0  0  0
   30.2890    2.2628    5.4917 H   0  0  0  0  0  0  0  0  0  0  0  0
 31 32  1  0
 32 33  2  0
 32 34  1  0
 34 24  1  0
 24 25  2  0
 25 26  1  0
 26 27  2  0
 27 23  1  0
 23 22  1  0
 22  1  1  0
  1  2  1  0
  1  3  1  0
  1  5  1  0
  5  6  2  0
  5  7  1  0
  7  9  1  0
  9 10  2  0
 10 11  1  0
 11 12  2  0
 12 19  1  0
 19 20  2  0
 19 21  1  0
 12 13  1  0
 13 15  1  0
 15 16  1  0
 15 17  1  0
 15 18  1  0
 13 14  2  0
 27 28  1  0
 28 29  2  0
 29 30  1  0
 29 24  1  0
 14  9  1  0
 34 35  1  0
  3  4  1  0
  7  8  1  0
M  CHG 1  19   1
M  CHG 1  21  -1
M  END
> <minimizedAffinity>
15.02283

> <CNNscore>
0.3265952170

> <CNNaffinity>
6.2128901482

> <CNN_VS>
2.0291001797

> <CNNaffinity_variance>
0.1195792183

$$$$
