


 20 19  0  0  0  0  0  0  0  0999 V2000
    4.3180   -9.6799  -13.2241 N   0  0  0  0  0  0  0  0  0  0  0  0
    3.5043   -8.3311  -13.1757 C   0  0  0  0  0  0  0  0  0  0  0  0
    5.1547   -9.5599  -14.5070 C   0  0  0  0  0  0  0  0  0  0  0  0
    3.2606  -10.8057  -13.4645 C   0  0  0  0  0  0  0  0  0  0  0  0
    2.3621  -10.5686  -14.6798 C   0  0  0  0  0  0  0  0  0  0  0  0
    0.9033  -10.9669  -14.4184 C   0  0  0  0  0  0  0  0  0  0  0  0
    0.4896  -12.2632  -15.1204 C   0  0  0  0  0  0  0  0  0  0  0  0
   -0.2349  -11.9695  -16.4369 C   0  0  0  0  0  0  0  0  0  0  0  0
   -1.4796  -11.0942  -16.2644 C   0  0  0  0  0  0  0  0  0  0  0  0
   -2.7293   -9.8351  -18.0535 C   0  0  0  0  0  0  0  0  0  0  0  0
   -1.4887   -9.8648  -17.1737 C   0  0  0  0  0  0  0  0  0  0  0  0
    5.1253   -9.7298  -11.9362 C   0  0  0  0  0  0  0  0  0  0  0  0
    5.5843  -11.0201  -11.2918 N   0  0  0  0  0  0  0  0  0  0  0  0
    6.0949  -12.0557  -12.2967 C   0  0  0  0  0  0  0  0  0  0  0  0
    4.4512  -11.7174  -10.5038 C   0  0  0  0  0  0  0  0  0  0  0  0
    6.6614  -10.7612  -10.2011 C   0  0  0  0  0  0  0  0  0  0  0  0
    6.7723   -9.4514   -9.4432 N   0  0  0  0  0  0  0  0  0  0  0  0
    7.3233   -8.2499  -10.2018 C   0  0  0  0  0  0  0  0  0  0  0  0
    5.5112   -9.0391   -8.6754 C   0  0  0  0  0  0  0  0  0  0  0  0
    7.8402   -9.7263   -8.3055 C   0  0  0  0  0  0  0  0  0  0  0  0
 10 11  1  0
 11  9  1  0
  9  8  1  0
  8  7  1  0
  7  6  1  0
  6  5  1  0
  5  4  1  0
  4  1  1  0
  1  2  1  0
  1  3  1  0
  1 12  1  0
 12 13  1  0
 13 14  1  0
 13 15  1  0
 13 16  1  0
 16 17  1  0
 17 18  1  0
 17 19  1  0
 17 20  1  0
M  CHG 1   1   1
M  CHG 1  13   1
M  CHG 1  17   1
M  END
> <minimizedAffinity>
-3.60994

> <CNNscore>
0.6648664474

> <CNNaffinity>
5.3371047974

> <CNN_VS>
3.5484619141

> <CNNaffinity_variance>
0.1949862987

$$$$



 20 19  0  0  0  0  0  0  0  0999 V2000
    1.4546   -9.4638  -15.9446 N   0  0  0  0  0  0  0  0  0  0  0  0
    1.5502  -11.0325  -16.0606 C   0  0  0  0  0  0  0  0  0  0  0  0
    1.3056   -9.2140  -14.4360 C   0  0  0  0  0  0  0  0  0  0  0  0
    0.0987   -9.0700  -16.6153 C   0  0  0  0  0  0  0  0  0  0  0  0
   -0.9001  -10.2234  -16.7277 C   0  0  0  0  0  0  0  0  0  0  0  0
   -1.9909   -9.9559  -17.7735 C   0  0  0  0  0  0  0  0  0  0  0  0
   -3.1328   -9.0785  -17.2534 C   0  0  0  0  0  0  0  0  0  0  0  0
   -3.2629   -7.7966  -18.0804 C   0  0  0  0  0  0  0  0  0  0  0  0
   -4.7131   -7.3497  -18.2863 C   0  0  0  0  0  0  0  0  0  0  0  0
   -6.2389   -5.5035  -17.5044 C   0  0  0  0  0  0  0  0  0  0  0  0
   -5.3029   -6.6237  -17.0765 C   0  0  0  0  0  0  0  0  0  0  0  0
    2.7339   -8.9184  -16.5600 C   0  0  0  0  0  0  0  0  0  0  0  0
    3.0111   -7.4401  -16.7291 N   0  0  0  0  0  0  0  0  0  0  0  0
    2.3996   -6.5747  -15.6245 C   0  0  0  0  0  0  0  0  0  0  0  0
    2.4505   -6.8869  -18.0598 C   0  0  0  0  0  0  0  0  0  0  0  0
    4.5350   -7.1553  -16.8457 C   0  0  0  0  0  0  0  0  0  0  0  0
    5.5163   -7.4330  -15.7222 N   0  0  0  0  0  0  0  0  0  0  0  0
    5.0004   -8.2186  -14.5225 C   0  0  0  0  0  0  0  0  0  0  0  0
    6.8662   -8.0060  -16.1688 C   0  0  0  0  0  0  0  0  0  0  0  0
    5.8810   -6.0071  -15.1360 C   0  0  0  0  0  0  0  0  0  0  0  0
 10 11  1  0
 11  9  1  0
  9  8  1  0
  8  7  1  0
  7  6  1  0
  6  5  1  0
  5  4  1  0
  4  1  1  0
  1  2  1  0
  1  3  1  0
  1 12  1  0
 12 13  1  0
 13 14  1  0
 13 15  1  0
 13 16  1  0
 16 17  1  0
 17 18  1  0
 17 19  1  0
 17 20  1  0
M  CHG 1   1   1
M  CHG 1  13   1
M  CHG 1  17   1
M  END
> <minimizedAffinity>
-3.71148

> <CNNscore>
0.5108814836

> <CNNaffinity>
4.9530467987

> <CNN_VS>
2.5304198265

> <CNNaffinity_variance>
0.0602498949

$$$$



 20 19  0  0  0  0  0  0  0  0999 V2000
   -2.6940   -6.5279  -18.4645 N   0  0  0  0  0  0  0  0  0  0  0  0
   -2.3901   -7.2871  -19.8117 C   0  0  0  0  0  0  0  0  0  0  0  0
   -1.7512   -5.3154  -18.5038 C   0  0  0  0  0  0  0  0  0  0  0  0
   -2.1900   -7.4696  -17.3231 C   0  0  0  0  0  0  0  0  0  0  0  0
   -0.6838   -7.7361  -17.3535 C   0  0  0  0  0  0  0  0  0  0  0  0
   -0.3459   -9.2201  -17.1570 C   0  0  0  0  0  0  0  0  0  0  0  0
   -1.5725  -10.1357  -17.1978 C   0  0  0  0  0  0  0  0  0  0  0  0
   -1.3960  -11.3347  -16.2621 C   0  0  0  0  0  0  0  0  0  0  0  0
   -0.0085  -11.9768  -16.3507 C   0  0  0  0  0  0  0  0  0  0  0  0
    2.0293  -11.3332  -15.0162 C   0  0  0  0  0  0  0  0  0  0  0  0
    0.7022  -12.0767  -15.0004 C   0  0  0  0  0  0  0  0  0  0  0  0
   -4.1758   -6.1875  -18.4992 C   0  0  0  0  0  0  0  0  0  0  0  0
   -4.9264   -5.6180  -17.3147 N   0  0  0  0  0  0  0  0  0  0  0  0
   -4.5629   -4.1639  -17.0042 C   0  0  0  0  0  0  0  0  0  0  0  0
   -4.6561   -6.4092  -16.0139 C   0  0  0  0  0  0  0  0  0  0  0  0
   -6.4645   -5.7550  -17.4948 C   0  0  0  0  0  0  0  0  0  0  0  0
   -7.1172   -6.9654  -18.1360 N   0  0  0  0  0  0  0  0  0  0  0  0
   -7.9596   -6.7259  -19.3833 C   0  0  0  0  0  0  0  0  0  0  0  0
   -6.1821   -8.1575  -18.3694 C   0  0  0  0  0  0  0  0  0  0  0  0
   -8.1487   -7.4940  -17.0559 C   0  0  0  0  0  0  0  0  0  0  0  0
 10 11  1  0
 11  9  1  0
  9  8  1  0
  8  7  1  0
  7  6  1  0
  6  5  1  0
  5  4  1  0
  4  1  1  0
  1  2  1  0
  1  3  1  0
  1 12  1  0
 12 13  1  0
 13 14  1  0
 13 15  1  0
 13 16  1  0
 16 17  1  0
 17 18  1  0
 17 19  1  0
 17 20  1  0
M  CHG 1   1   1
M  CHG 1  13   1
M  CHG 1  17   1
M  END
> <minimizedAffinity>
-4.27320

> <CNNscore>
0.4668536782

> <CNNaffinity>
4.5927662849

> <CNN_VS>
2.1441497803

> <CNNaffinity_variance>
1.4459691048

$$$$



 20 19  0  0  0  0  0  0  0  0999 V2000
   -5.6771   -6.1464  -17.9711 N   0  0  0  0  0  0  0  0  0  0  0  0
   -5.4292   -7.0169  -16.6810 C   0  0  0  0  0  0  0  0  0  0  0  0
   -5.9205   -4.7327  -17.4207 C   0  0  0  0  0  0  0  0  0  0  0  0
   -7.0306   -6.6496  -18.5696 C   0  0  0  0  0  0  0  0  0  0  0  0
   -8.1962   -6.6315  -17.5787 C   0  0  0  0  0  0  0  0  0  0  0  0
   -8.9530   -7.9659  -17.5378 C   0  0  0  0  0  0  0  0  0  0  0  0
   -8.5846   -8.9117  -18.6842 C   0  0  0  0  0  0  0  0  0  0  0  0
   -9.7812   -9.7758  -19.0913 C   0  0  0  0  0  0  0  0  0  0  0  0
  -11.1300   -9.1838  -18.6724 C   0  0  0  0  0  0  0  0  0  0  0  0
  -11.8844  -11.2247  -19.9425 C   0  0  0  0  0  0  0  0  0  0  0  0
  -12.3286  -10.0049  -19.1494 C   0  0  0  0  0  0  0  0  0  0  0  0
   -4.4269   -6.2943  -18.8243 C   0  0  0  0  0  0  0  0  0  0  0  0
   -3.0695   -5.7698  -18.4086 N   0  0  0  0  0  0  0  0  0  0  0  0
   -2.5263   -6.4242  -17.1359 C   0  0  0  0  0  0  0  0  0  0  0  0
   -3.0892   -4.2494  -18.1278 C   0  0  0  0  0  0  0  0  0  0  0  0
   -2.0312   -5.9001  -19.5584 C   0  0  0  0  0  0  0  0  0  0  0  0
   -0.5691   -5.5275  -19.3983 N   0  0  0  0  0  0  0  0  0  0  0  0
   -0.0040   -4.4878  -20.3587 C   0  0  0  0  0  0  0  0  0  0  0  0
   -0.1405   -5.1893  -17.9658 C   0  0  0  0  0  0  0  0  0  0  0  0
    0.2300   -6.8537  -19.7338 C   0  0  0  0  0  0  0  0  0  0  0  0
 10 11  1  0
 11  9  1  0
  9  8  1  0
  8  7  1  0
  7  6  1  0
  6  5  1  0
  5  4  1  0
  4  1  1  0
  1  2  1  0
  1  3  1  0
  1 12  1  0
 12 13  1  0
 13 14  1  0
 13 15  1  0
 13 16  1  0
 16 17  1  0
 17 18  1  0
 17 19  1  0
 17 20  1  0
M  CHG 1   1   1
M  CHG 1  13   1
M  CHG 1  17   1
M  END
> <minimizedAffinity>
-4.98796

> <CNNscore>
0.4328483343

> <CNNaffinity>
4.4248461723

> <CNN_VS>
1.9152872562

> <CNNaffinity_variance>
2.0107529163

$$$$



 20 19  0  0  0  0  0  0  0  0999 V2000
    0.3019   -6.4766  -17.8617 N   0  0  0  0  0  0  0  0  0  0  0  0
   -1.0426   -5.6770  -17.6706 C   0  0  0  0  0  0  0  0  0  0  0  0
    1.0162   -5.7303  -18.9989 C   0  0  0  0  0  0  0  0  0  0  0  0
   -0.1124   -7.8782  -18.4163 C   0  0  0  0  0  0  0  0  0  0  0  0
   -0.3735   -8.9258  -17.3324 C   0  0  0  0  0  0  0  0  0  0  0  0
   -1.8229   -9.4301  -17.3400 C   0  0  0  0  0  0  0  0  0  0  0  0
   -1.9665  -10.8809  -16.8719 C   0  0  0  0  0  0  0  0  0  0  0  0
   -0.5958  -11.5332  -16.6718 C   0  0  0  0  0  0  0  0  0  0  0  0
   -0.5284  -12.4425  -15.4413 C   0  0  0  0  0  0  0  0  0  0  0  0
    0.9959  -10.7495  -14.3652 C   0  0  0  0  0  0  0  0  0  0  0  0
    0.7280  -12.2290  -14.5961 C   0  0  0  0  0  0  0  0  0  0  0  0
    1.0137   -6.4285  -16.5187 C   0  0  0  0  0  0  0  0  0  0  0  0
    2.4759   -6.7758  -16.3395 N   0  0  0  0  0  0  0  0  0  0  0  0
    3.0384   -7.6468  -17.4655 C   0  0  0  0  0  0  0  0  0  0  0  0
    2.7371   -7.5556  -15.0301 C   0  0  0  0  0  0  0  0  0  0  0  0
    3.3480   -5.5003  -16.1674 C   0  0  0  0  0  0  0  0  0  0  0  0
    4.7028   -5.3297  -16.8290 N   0  0  0  0  0  0  0  0  0  0  0  0
    5.7565   -6.3943  -16.5478 C   0  0  0  0  0  0  0  0  0  0  0  0
    4.6564   -5.0385  -18.3333 C   0  0  0  0  0  0  0  0  0  0  0  0
    5.3007   -4.0038  -16.2008 C   0  0  0  0  0  0  0  0  0  0  0  0
 10 11  1  0
 11  9  1  0
  9  8  1  0
  8  7  1  0
  7  6  1  0
  6  5  1  0
  5  4  1  0
  4  1  1  0
  1  2  1  0
  1  3  1  0
  1 12  1  0
 12 13  1  0
 13 14  1  0
 13 15  1  0
 13 16  1  0
 16 17  1  0
 17 18  1  0
 17 19  1  0
 17 20  1  0
M  CHG 1   1   1
M  CHG 1  13   1
M  CHG 1  17   1
M  END
> <minimizedAffinity>
-3.45766

> <CNNscore>
0.4165598154

> <CNNaffinity>
4.6173300743

> <CNN_VS>
1.9233942032

> <CNNaffinity_variance>
0.3762634695

$$$$



 20 19  0  0  0  0  0  0  0  0999 V2000
    3.6992   -9.6070  -13.6935 N   0  0  0  0  0  0  0  0  0  0  0  0
    2.6479   -8.4353  -13.7676 C   0  0  0  0  0  0  0  0  0  0  0  0
    4.5884   -9.3830  -14.9262 C   0  0  0  0  0  0  0  0  0  0  0  0
    2.8890  -10.9210  -13.9397 C   0  0  0  0  0  0  0  0  0  0  0  0
    1.7683  -10.7790  -14.9714 C   0  0  0  0  0  0  0  0  0  0  0  0
    0.4485  -11.3999  -14.4942 C   0  0  0  0  0  0  0  0  0  0  0  0
   -0.1695  -12.3706  -15.5042 C   0  0  0  0  0  0  0  0  0  0  0  0
   -0.5997  -11.6392  -16.7787 C   0  0  0  0  0  0  0  0  0  0  0  0
   -1.7604  -10.6647  -16.5588 C   0  0  0  0  0  0  0  0  0  0  0  0
   -0.5820   -8.8711  -17.8786 C   0  0  0  0  0  0  0  0  0  0  0  0
   -1.8909   -9.6158  -17.6639 C   0  0  0  0  0  0  0  0  0  0  0  0
    4.4077   -9.4518  -12.3569 C   0  0  0  0  0  0  0  0  0  0  0  0
    4.8880  -10.6243  -11.5290 N   0  0  0  0  0  0  0  0  0  0  0  0
    3.7539  -11.3988  -10.8530 C   0  0  0  0  0  0  0  0  0  0  0  0
    5.8398  -10.1879  -10.3912 C   0  0  0  0  0  0  0  0  0  0  0  0
    5.7671  -11.5932  -12.3688 C   0  0  0  0  0  0  0  0  0  0  0  0
    6.9859  -11.1375  -13.1493 N   0  0  0  0  0  0  0  0  0  0  0  0
    6.7635  -10.6752  -14.5844 C   0  0  0  0  0  0  0  0  0  0  0  0
    7.8829  -10.1313  -12.4193 C   0  0  0  0  0  0  0  0  0  0  0  0
    7.8918  -12.4301  -13.2845 C   0  0  0  0  0  0  0  0  0  0  0  0
 10 11  1  0
 11  9  1  0
  9  8  1  0
  8  7  1  0
  7  6  1  0
  6  5  1  0
  5  4  1  0
  4  1  1  0
  1  2  1  0
  1  3  1  0
  1 12  1  0
 12 13  1  0
 13 14  1  0
 13 15  1  0
 13 16  1  0
 16 17  1  0
 17 18  1  0
 17 19  1  0
 17 20  1  0
M  CHG 1   1   1
M  CHG 1  13   1
M  CHG 1  17   1
M  END
> <minimizedAffinity>
-3.00207

> <CNNscore>
0.4135680497

> <CNNaffinity>
5.0800876617

> <CNN_VS>
2.1009619236

> <CNNaffinity_variance>
0.0284664687

$$$$



 20 19  0  0  0  0  0  0  0  0999 V2000
   -3.7616   -6.1030  -17.0634 N   0  0  0  0  0  0  0  0  0  0  0  0
   -4.5600   -6.7203  -15.8530 C   0  0  0  0  0  0  0  0  0  0  0  0
   -3.0673   -4.8732  -16.4583 C   0  0  0  0  0  0  0  0  0  0  0  0
   -4.8432   -5.5790  -18.0629 C   0  0  0  0  0  0  0  0  0  0  0  0
   -6.2803   -5.7207  -17.5579 C   0  0  0  0  0  0  0  0  0  0  0  0
   -7.1512   -6.5687  -18.4947 C   0  0  0  0  0  0  0  0  0  0  0  0
   -8.5536   -6.8412  -17.9438 C   0  0  0  0  0  0  0  0  0  0  0  0
   -8.8732   -8.3384  -17.9674 C   0  0  0  0  0  0  0  0  0  0  0  0
  -10.3110   -8.6470  -18.3949 C   0  0  0  0  0  0  0  0  0  0  0  0
  -11.8818  -10.3416  -19.3993 C   0  0  0  0  0  0  0  0  0  0  0  0
  -10.4319   -9.9034  -19.2582 C   0  0  0  0  0  0  0  0  0  0  0  0
   -2.8206   -7.1956  -17.5469 C   0  0  0  0  0  0  0  0  0  0  0  0
   -1.6158   -6.9280  -18.4230 N   0  0  0  0  0  0  0  0  0  0  0  0
   -1.9144   -6.0013  -19.6041 C   0  0  0  0  0  0  0  0  0  0  0  0
   -1.0380   -8.2242  -19.0371 C   0  0  0  0  0  0  0  0  0  0  0  0
   -0.4229   -6.3697  -17.5972 C   0  0  0  0  0  0  0  0  0  0  0  0
    1.0167   -6.7824  -17.8413 N   0  0  0  0  0  0  0  0  0  0  0  0
    1.4494   -8.1484  -17.3223 C   0  0  0  0  0  0  0  0  0  0  0  0
    1.5058   -6.6028  -19.2831 C   0  0  0  0  0  0  0  0  0  0  0  0
    1.8848   -5.7492  -17.0113 C   0  0  0  0  0  0  0  0  0  0  0  0
 10 11  1  0
 11  9  1  0
  9  8  1  0
  8  7  1  0
  7  6  1  0
  6  5  1  0
  5  4  1  0
  4  1  1  0
  1  2  1  0
  1  3  1  0
  1 12  1  0
 12 13  1  0
 13 14  1  0
 13 15  1  0
 13 16  1  0
 16 17  1  0
 17 18  1  0
 17 19  1  0
 17 20  1  0
M  CHG 1   1   1
M  CHG 1  13   1
M  CHG 1  17   1
M  END
> <minimizedAffinity>
-4.69947

> <CNNscore>
0.4117652774

> <CNNaffinity>
4.6633458138

> <CNN_VS>
1.9202039242

> <CNNaffinity_variance>
0.9766566157

$$$$



 20 19  0  0  0  0  0  0  0  0999 V2000
   -3.9558   -6.4080  -17.5640 N   0  0  0  0  0  0  0  0  0  0  0  0
   -3.3601   -7.8623  -17.6816 C   0  0  0  0  0  0  0  0  0  0  0  0
   -4.4100   -6.3130  -16.0993 C   0  0  0  0  0  0  0  0  0  0  0  0
   -5.2440   -6.4036  -18.4494 C   0  0  0  0  0  0  0  0  0  0  0  0
   -6.5119   -5.9820  -17.7043 C   0  0  0  0  0  0  0  0  0  0  0  0
   -7.4268   -7.1713  -17.3823 C   0  0  0  0  0  0  0  0  0  0  0  0
   -8.7452   -7.1552  -18.1607 C   0  0  0  0  0  0  0  0  0  0  0  0
   -9.5055   -8.4723  -17.9836 C   0  0  0  0  0  0  0  0  0  0  0  0
   -9.4267   -9.3898  -19.2072 C   0  0  0  0  0  0  0  0  0  0  0  0
  -11.9321   -9.5380  -18.9858 C   0  0  0  0  0  0  0  0  0  0  0  0
  -10.6618  -10.2739  -19.3843 C   0  0  0  0  0  0  0  0  0  0  0  0
   -2.8297   -5.4605  -17.9473 C   0  0  0  0  0  0  0  0  0  0  0  0
   -2.7523   -4.0255  -17.4726 N   0  0  0  0  0  0  0  0  0  0  0  0
   -2.2791   -3.8871  -16.0235 C   0  0  0  0  0  0  0  0  0  0  0  0
   -4.1217   -3.3106  -17.5410 C   0  0  0  0  0  0  0  0  0  0  0  0
   -1.8597   -3.1626  -18.4084 C   0  0  0  0  0  0  0  0  0  0  0  0
   -0.3435   -3.1852  -18.3564 N   0  0  0  0  0  0  0  0  0  0  0  0
    0.3313   -4.5469  -18.2415 C   0  0  0  0  0  0  0  0  0  0  0  0
    0.3537   -2.3570  -19.4418 C   0  0  0  0  0  0  0  0  0  0  0  0
    0.0307   -2.4417  -17.0083 C   0  0  0  0  0  0  0  0  0  0  0  0
 10 11  1  0
 11  9  1  0
  9  8  1  0
  8  7  1  0
  7  6  1  0
  6  5  1  0
  5  4  1  0
  4  1  1  0
  1  2  1  0
  1  3  1  0
  1 12  1  0
 12 13  1  0
 13 14  1  0
 13 15  1  0
 13 16  1  0
 16 17  1  0
 17 18  1  0
 17 19  1  0
 17 20  1  0
M  CHG 1   1   1
M  CHG 1  13   1
M  CHG 1  17   1
M  END
> <minimizedAffinity>
-4.01366

> <CNNscore>
0.4113794267

> <CNNaffinity>
4.6063532829

> <CNN_VS>
1.8949589729

> <CNNaffinity_variance>
1.2286497355

$$$$



 20 19  0  0  0  0  0  0  0  0999 V2000
    2.1573  -10.0311  -15.1386 N   0  0  0  0  0  0  0  0  0  0  0  0
    2.3771  -11.4236  -14.4342 C   0  0  0  0  0  0  0  0  0  0  0  0
    1.4018   -9.2020  -14.0888 C   0  0  0  0  0  0  0  0  0  0  0  0
    1.1653  -10.3024  -16.3158 C   0  0  0  0  0  0  0  0  0  0  0  0
    0.5113  -11.6848  -16.2748 C   0  0  0  0  0  0  0  0  0  0  0  0
   -0.8746  -11.6987  -16.9337 C   0  0  0  0  0  0  0  0  0  0  0  0
   -1.9431  -10.9602  -16.1228 C   0  0  0  0  0  0  0  0  0  0  0  0
   -2.5710   -9.8285  -16.9410 C   0  0  0  0  0  0  0  0  0  0  0  0
   -2.0322   -9.7407  -18.3718 C   0  0  0  0  0  0  0  0  0  0  0  0
   -1.1087   -8.2700  -20.1972 C   0  0  0  0  0  0  0  0  0  0  0  0
   -1.8276   -8.3050  -18.8571 C   0  0  0  0  0  0  0  0  0  0  0  0
    3.5441   -9.5127  -15.4863 C   0  0  0  0  0  0  0  0  0  0  0  0
    3.8820   -8.0405  -15.5814 N   0  0  0  0  0  0  0  0  0  0  0  0
    2.7337   -7.1848  -16.1218 C   0  0  0  0  0  0  0  0  0  0  0  0
    5.0848   -7.7742  -16.5159 C   0  0  0  0  0  0  0  0  0  0  0  0
    4.3679   -7.4776  -14.2161 C   0  0  0  0  0  0  0  0  0  0  0  0
    5.2320   -8.2721  -13.2546 N   0  0  0  0  0  0  0  0  0  0  0  0
    4.5179   -9.1860  -12.2659 C   0  0  0  0  0  0  0  0  0  0  0  0
    6.3959   -9.0289  -13.9046 C   0  0  0  0  0  0  0  0  0  0  0  0
    5.9419   -7.1839  -12.3480 C   0  0  0  0  0  0  0  0  0  0  0  0
 10 11  1  0
 11  9  1  0
  9  8  1  0
  8  7  1  0
  7  6  1  0
  6  5  1  0
  5  4  1  0
  4  1  1  0
  1  2  1  0
  1  3  1  0
  1 12  1  0
 12 13  1  0
 13 14  1  0
 13 15  1  0
 13 16  1  0
 16 17  1  0
 17 18  1  0
 17 19  1  0
 17 20  1  0
M  CHG 1   1   1
M  CHG 1  13   1
M  CHG 1  17   1
M  END
> <minimizedAffinity>
-3.48081

> <CNNscore>
0.4049575329

> <CNNaffinity>
4.9956355095

> <CNN_VS>
2.0230202675

> <CNNaffinity_variance>
0.0268838909

$$$$
