


 42 45  0  0  0  0  0  0  0  0999 V2000
   -2.3294   19.5018   17.1257 C   0  0  0  0  0  0  0  0  0  0  0  0
   -0.9219   19.1473   17.6435 C   0  0  0  0  0  0  0  0  0  0  0  0
   -0.2615   18.3218   16.9950 O   0  0  0  0  0  0  0  0  0  0  0  0
   -0.3951   19.7760   18.7782 N   0  0  0  0  0  0  0  0  0  0  0  0
    0.9803   19.3847   19.1029 C   0  0  0  0  0  0  0  0  0  0  0  0
    0.9828   18.0959   19.9355 C   0  0  0  0  0  0  0  0  0  0  0  0
    0.0767   18.2094   21.1680 C   0  0  0  0  0  0  0  0  0  0  0  0
   -1.3148   18.7621   20.8217 C   0  0  0  0  0  0  0  0  0  0  0  0
   -1.1742   20.0540   20.0048 C   0  0  0  0  0  0  0  0  0  0  0  0
   -2.4382   20.9151   19.9681 C   0  0  0  0  0  0  0  0  0  0  0  0
   -3.0535   21.3401   20.9327 O   0  0  0  0  0  0  0  0  0  0  0  0
   -2.7875   21.3016   18.7257 O   0  0  0  0  0  0  0  0  0  0  0  0
   -2.3163   20.9763   17.9840 H   0  0  0  0  0  0  0  0  0  0  0  0
   -2.1722   19.7150   15.6520 N   0  0  0  0  0  0  0  0  0  0  0  0
   -2.9602   19.2620   15.1892 H   0  0  0  0  0  0  0  0  0  0  0  0
   -2.1154   21.3089   15.1164 S   0  0  0  0  0  0  0  0  0  0  0  0
   -3.0202   21.4441   13.9977 O   0  0  0  0  0  0  0  0  0  0  0  0
   -2.2159   22.1452   16.2904 O   0  0  0  0  0  0  0  0  0  0  0  0
   -0.4472   21.4117   14.5228 C   0  0  0  0  0  0  0  0  0  0  0  0
   -0.2033   21.7255   13.1853 C   0  0  0  0  0  0  0  0  0  0  0  0
    1.1118   21.7616   12.7204 C   0  0  0  0  0  0  0  0  0  0  0  0
    2.1865   21.4912   13.5845 C   0  0  0  0  0  0  0  0  0  0  0  0
    3.5126   21.5023   13.1244 C   0  0  0  0  0  0  0  0  0  0  0  0
    4.5712   21.2245   13.9908 C   0  0  0  0  0  0  0  0  0  0  0  0
    4.3180   20.9366   15.3285 C   0  0  0  0  0  0  0  0  0  0  0  0
    3.0065   20.9266   15.8045 C   0  0  0  0  0  0  0  0  0  0  0  0
    1.9304   21.1973   14.9457 C   0  0  0  0  0  0  0  0  0  0  0  0
    0.6070   21.1675   15.4073 C   0  0  0  0  0  0  0  0  0  0  0  0
   -3.3054   18.3401   17.3603 C   0  0  0  0  0  0  0  0  0  0  0  0
   -2.0230   14.9008   16.2862 C   0  0  0  0  0  0  0  0  0  0  0  0
   -1.4124   14.4468   17.4561 C   0  0  0  0  0  0  0  0  0  0  0  0
   -1.4098   15.2639   18.5777 C   0  0  0  0  0  0  0  0  0  0  0  0
   -0.8341   14.8308   19.7072 F   0  0  0  0  0  0  0  0  0  0  0  0
   -1.9998   16.5254   18.5560 C   0  0  0  0  0  0  0  0  0  0  0  0
   -2.6169   16.9919   17.3886 C   0  0  0  0  0  0  0  0  0  0  0  0
   -2.6181   16.1701   16.2500 C   0  0  0  0  0  0  0  0  0  0  0  0
   -1.7354   12.7664   15.1288 N   0  0  0  0  0  0  0  0  0  0  0  0
   -2.0405   14.0245   15.0850 C   0  0  0  0  0  0  0  0  0  0  0  0
   -2.3939   14.5298   13.8700 N   0  0  0  0  0  0  0  0  0  0  0  0
   -1.7609   12.2248   14.3071 H   0  0  0  0  0  0  0  0  0  0  0  0
   -2.4038   13.9453   13.0778 H   0  0  0  0  0  0  0  0  0  0  0  0
   -2.6393   15.4794   13.7842 H   0  0  0  0  0  0  0  0  0  0  0  0
 37 38  2  0
 38 39  1  0
 38 30  1  0
 30 31  2  0
 31 32  1  0
 32 33  1  0
 32 34  2  0
 34 35  1  0
 35 29  1  0
  1 29  1  0
  1 14  1  0
 14 16  1  0
 16 17  2  0
 16 18  2  0
 16 19  1  0
 19 20  2  0
 20 21  1  0
 21 22  2  0
 22 23  1  0
 23 24  2  0
 24 25  1  0
 25 26  2  0
 26 27  1  0
 27 28  2  0
  1  2  1  0
  2  3  2  0
  2  4  1  0
  4  5  1  0
  5  6  1  0
  6  7  1  0
  7  8  1  0
  8  9  1  0
  9 10  1  0
 10 11  2  0
 10 12  1  0
 35 36  2  0
 36 30  1  0
 28 19  1  0
  9  4  1  0
 27 22  1  0
 37 40  1  0
 39 41  1  0
 39 42  1  0
 14 15  1  0
 12 13  1  0
M  END
> <minimizedAffinity>
-8.70514

> <CNNscore>
0.9192818999

> <CNNaffinity>
7.4531555176

> <CNN_VS>
6.8515510559

> <CNNaffinity_variance>
0.0087894602

$$$$



 42 45  0  0  0  0  0  0  0  0999 V2000
   -1.9429   18.9284   18.0392 C   0  0  0  0  0  0  0  0  0  0  0  0
   -2.2192   20.1338   18.9587 C   0  0  0  0  0  0  0  0  0  0  0  0
   -1.6998   20.1292   20.0848 O   0  0  0  0  0  0  0  0  0  0  0  0
   -2.9892   21.2149   18.5130 N   0  0  0  0  0  0  0  0  0  0  0  0
   -3.1023   22.3149   19.4761 C   0  0  0  0  0  0  0  0  0  0  0  0
   -4.2408   22.0378   20.4667 C   0  0  0  0  0  0  0  0  0  0  0  0
   -5.5590   21.7212   19.7491 C   0  0  0  0  0  0  0  0  0  0  0  0
   -5.3842   20.6694   18.6423 C   0  0  0  0  0  0  0  0  0  0  0  0
   -4.2282   21.0736   17.7168 C   0  0  0  0  0  0  0  0  0  0  0  0
   -4.2286   20.3614   16.3628 C   0  0  0  0  0  0  0  0  0  0  0  0
   -3.5175   20.6236   15.4062 O   0  0  0  0  0  0  0  0  0  0  0  0
   -5.0300   19.2791   16.3269 O   0  0  0  0  0  0  0  0  0  0  0  0
   -5.5766   19.0762   17.0604 H   0  0  0  0  0  0  0  0  0  0  0  0
   -0.4696   18.6797   18.1365 N   0  0  0  0  0  0  0  0  0  0  0  0
   -0.2976   17.7221   17.8301 H   0  0  0  0  0  0  0  0  0  0  0  0
    0.5326   19.6890   17.2377 S   0  0  0  0  0  0  0  0  0  0  0  0
    1.1562   18.9011   16.1991 O   0  0  0  0  0  0  0  0  0  0  0  0
   -0.2325   20.8790   16.9437 O   0  0  0  0  0  0  0  0  0  0  0  0
    1.7571   20.1205   18.4461 C   0  0  0  0  0  0  0  0  0  0  0  0
    1.8057   19.4366   19.6614 C   0  0  0  0  0  0  0  0  0  0  0  0
    2.7460   19.8136   20.6209 C   0  0  0  0  0  0  0  0  0  0  0  0
    3.6424   20.8669   20.3726 C   0  0  0  0  0  0  0  0  0  0  0  0
    4.5783   21.2706   21.3378 C   0  0  0  0  0  0  0  0  0  0  0  0
    5.4584   22.3235   21.0822 C   0  0  0  0  0  0  0  0  0  0  0  0
    5.4174   22.9827   19.8574 C   0  0  0  0  0  0  0  0  0  0  0  0
    4.4976   22.5911   18.8841 C   0  0  0  0  0  0  0  0  0  0  0  0
    3.6014   21.5391   19.1272 C   0  0  0  0  0  0  0  0  0  0  0  0
    2.6573   21.1520   18.1657 C   0  0  0  0  0  0  0  0  0  0  0  0
   -2.6926   17.6828   18.5328 C   0  0  0  0  0  0  0  0  0  0  0  0
   -1.6907   14.5362   16.6038 C   0  0  0  0  0  0  0  0  0  0  0  0
   -0.7762   13.9461   17.4775 C   0  0  0  0  0  0  0  0  0  0  0  0
   -0.4824   14.5792   18.6768 C   0  0  0  0  0  0  0  0  0  0  0  0
    0.3871   14.0139   19.5248 F   0  0  0  0  0  0  0  0  0  0  0  0
   -1.0783   15.7901   19.0214 C   0  0  0  0  0  0  0  0  0  0  0  0
   -1.9986   16.3917   18.1540 C   0  0  0  0  0  0  0  0  0  0  0  0
   -2.2955   15.7565   16.9374 C   0  0  0  0  0  0  0  0  0  0  0  0
   -2.9490   14.2743   14.5239 N   0  0  0  0  0  0  0  0  0  0  0  0
   -2.0194   13.8559   15.3231 C   0  0  0  0  0  0  0  0  0  0  0  0
   -1.3300   12.7459   14.9371 N   0  0  0  0  0  0  0  0  0  0  0  0
   -3.1316   13.7913   13.6857 H   0  0  0  0  0  0  0  0  0  0  0  0
   -1.5516   12.2993   14.0881 H   0  0  0  0  0  0  0  0  0  0  0  0
   -0.6103   12.3904   15.5071 H   0  0  0  0  0  0  0  0  0  0  0  0
 37 38  2  0
 38 39  1  0
 38 30  1  0
 30 31  2  0
 31 32  1  0
 32 33  1  0
 32 34  2  0
 34 35  1  0
 35 29  1  0
  1 29  1  0
  1 14  1  0
 14 16  1  0
 16 17  2  0
 16 18  2  0
 16 19  1  0
 19 20  2  0
 20 21  1  0
 21 22  2  0
 22 23  1  0
 23 24  2  0
 24 25  1  0
 25 26  2  0
 26 27  1  0
 27 28  2  0
  1  2  1  0
  2  3  2  0
  2  4  1  0
  4  5  1  0
  5  6  1  0
  6  7  1  0
  7  8  1  0
  8  9  1  0
  9 10  1  0
 10 11  2  0
 10 12  1  0
 35 36  2  0
 36 30  1  0
 28 19  1  0
  9  4  1  0
 27 22  1  0
 37 40  1  0
 39 41  1  0
 39 42  1  0
 14 15  1  0
 12 13  1  0
M  END
> <minimizedAffinity>
-8.99882

> <CNNscore>
0.8160651326

> <CNNaffinity>
7.3032851219

> <CNN_VS>
5.9599561691

> <CNNaffinity_variance>
0.0068613924

$$$$



 42 45  0  0  0  0  0  0  0  0999 V2000
   -1.4411   19.0436   18.7437 C   0  0  0  0  0  0  0  0  0  0  0  0
   -0.5997   20.3342   18.7851 C   0  0  0  0  0  0  0  0  0  0  0  0
   -0.7667   21.1591   17.8744 O   0  0  0  0  0  0  0  0  0  0  0  0
    0.2832   20.5817   19.8432 N   0  0  0  0  0  0  0  0  0  0  0  0
    0.9573   21.8822   19.7769 C   0  0  0  0  0  0  0  0  0  0  0  0
    2.2037   21.7890   18.8869 C   0  0  0  0  0  0  0  0  0  0  0  0
    3.1308   20.6458   19.3189 C   0  0  0  0  0  0  0  0  0  0  0  0
    2.3732   19.3246   19.5244 C   0  0  0  0  0  0  0  0  0  0  0  0
    1.1638   19.5543   20.4414 C   0  0  0  0  0  0  0  0  0  0  0  0
    0.5926   18.2770   21.0599 C   0  0  0  0  0  0  0  0  0  0  0  0
   -0.2792   18.2116   21.9116 O   0  0  0  0  0  0  0  0  0  0  0  0
    1.0549   17.1498   20.4848 O   0  0  0  0  0  0  0  0  0  0  0  0
    1.7242   17.1981   19.8308 H   0  0  0  0  0  0  0  0  0  0  0  0
   -2.8618   19.4861   18.9104 N   0  0  0  0  0  0  0  0  0  0  0  0
   -2.8710   20.5060   18.8939 H   0  0  0  0  0  0  0  0  0  0  0  0
   -3.9653   18.9488   17.7595 S   0  0  0  0  0  0  0  0  0  0  0  0
   -3.5160   19.3908   16.4592 O   0  0  0  0  0  0  0  0  0  0  0  0
   -4.2239   17.5573   18.0503 O   0  0  0  0  0  0  0  0  0  0  0  0
   -5.4104   19.8717   18.2134 C   0  0  0  0  0  0  0  0  0  0  0  0
   -5.3343   20.8289   19.2257 C   0  0  0  0  0  0  0  0  0  0  0  0
   -6.4874   21.5183   19.6028 C   0  0  0  0  0  0  0  0  0  0  0  0
   -7.7163   21.2613   18.9715 C   0  0  0  0  0  0  0  0  0  0  0  0
   -8.8880   21.9317   19.3564 C   0  0  0  0  0  0  0  0  0  0  0  0
  -10.1043   21.6622   18.7268 C   0  0  0  0  0  0  0  0  0  0  0  0
  -10.1638   20.7230   17.7018 C   0  0  0  0  0  0  0  0  0  0  0  0
   -9.0081   20.0512   17.3022 C   0  0  0  0  0  0  0  0  0  0  0  0
   -7.7786   20.3054   17.9289 C   0  0  0  0  0  0  0  0  0  0  0  0
   -6.6153   19.6199   17.5516 C   0  0  0  0  0  0  0  0  0  0  0  0
   -1.2938   18.3400   17.3872 C   0  0  0  0  0  0  0  0  0  0  0  0
   -1.7394   14.6379   16.5371 C   0  0  0  0  0  0  0  0  0  0  0  0
   -1.3901   14.0255   17.7415 C   0  0  0  0  0  0  0  0  0  0  0  0
   -1.0006   14.8160   18.8133 C   0  0  0  0  0  0  0  0  0  0  0  0
   -0.6732   14.2357   19.9755 F   0  0  0  0  0  0  0  0  0  0  0  0
   -0.9485   16.2039   18.7083 C   0  0  0  0  0  0  0  0  0  0  0  0
   -1.2979   16.8306   17.5055 C   0  0  0  0  0  0  0  0  0  0  0  0
   -1.6885   16.0341   16.4170 C   0  0  0  0  0  0  0  0  0  0  0  0
   -1.6332   12.6496   15.1182 N   0  0  0  0  0  0  0  0  0  0  0  0
   -2.1702   13.7969   15.3889 C   0  0  0  0  0  0  0  0  0  0  0  0
   -3.1743   14.2150   14.5684 N   0  0  0  0  0  0  0  0  0  0  0  0
   -1.9513   12.1270   14.3468 H   0  0  0  0  0  0  0  0  0  0  0  0
   -3.4557   13.6544   13.8096 H   0  0  0  0  0  0  0  0  0  0  0  0
   -3.6184   15.0779   14.7343 H   0  0  0  0  0  0  0  0  0  0  0  0
 37 38  2  0
 38 39  1  0
 38 30  1  0
 30 31  2  0
 31 32  1  0
 32 33  1  0
 32 34  2  0
 34 35  1  0
 35 29  1  0
  1 29  1  0
  1 14  1  0
 14 16  1  0
 16 17  2  0
 16 18  2  0
 16 19  1  0
 19 20  2  0
 20 21  1  0
 21 22  2  0
 22 23  1  0
 23 24  2  0
 24 25  1  0
 25 26  2  0
 26 27  1  0
 27 28  2  0
  1  2  1  0
  2  3  2  0
  2  4  1  0
  4  5  1  0
  5  6  1  0
  6  7  1  0
  7  8  1  0
  8  9  1  0
  9 10  1  0
 10 11  2  0
 10 12  1  0
 35 36  2  0
 36 30  1  0
 28 19  1  0
  9  4  1  0
 27 22  1  0
 37 40  1  0
 39 41  1  0
 39 42  1  0
 14 15  1  0
 12 13  1  0
M  END
> <minimizedAffinity>
-8.84717

> <CNNscore>
0.7954779267

> <CNNaffinity>
7.2517304420

> <CNN_VS>
5.7685914040

> <CNNaffinity_variance>
0.0567044355

$$$$



 42 45  0  0  0  0  0  0  0  0999 V2000
   -2.4547   18.8745   18.7803 C   0  0  0  0  0  0  0  0  0  0  0  0
   -1.1505   19.6234   18.4436 C   0  0  0  0  0  0  0  0  0  0  0  0
   -0.9343   19.8953   17.2531 O   0  0  0  0  0  0  0  0  0  0  0  0
   -0.2704   20.0232   19.4566 N   0  0  0  0  0  0  0  0  0  0  0  0
    0.8887   20.7870   18.9841 C   0  0  0  0  0  0  0  0  0  0  0  0
    2.0014   19.8344   18.5272 C   0  0  0  0  0  0  0  0  0  0  0  0
    2.3525   18.8046   19.6085 C   0  0  0  0  0  0  0  0  0  0  0  0
    1.1057   18.1220   20.1927 C   0  0  0  0  0  0  0  0  0  0  0  0
    0.0833   19.1834   20.6221 C   0  0  0  0  0  0  0  0  0  0  0  0
   -0.9858   18.6711   21.5891 C   0  0  0  0  0  0  0  0  0  0  0  0
   -1.2527   17.5030   21.8214 O   0  0  0  0  0  0  0  0  0  0  0  0
   -1.5731   19.6491   22.3058 O   0  0  0  0  0  0  0  0  0  0  0  0
   -1.3695   20.5464   22.1289 H   0  0  0  0  0  0  0  0  0  0  0  0
   -3.4624   19.9403   19.0812 N   0  0  0  0  0  0  0  0  0  0  0  0
   -2.9544   20.8126   19.2273 H   0  0  0  0  0  0  0  0  0  0  0  0
   -4.6383   20.2262   17.9122 S   0  0  0  0  0  0  0  0  0  0  0  0
   -4.0498   21.0271   16.8632 O   0  0  0  0  0  0  0  0  0  0  0  0
   -5.2742   18.9568   17.6438 O   0  0  0  0  0  0  0  0  0  0  0  0
   -5.7893   21.2239   18.8209 C   0  0  0  0  0  0  0  0  0  0  0  0
   -5.7491   22.6136   18.7028 C   0  0  0  0  0  0  0  0  0  0  0  0
   -6.6317   23.3895   19.4552 C   0  0  0  0  0  0  0  0  0  0  0  0
   -7.5586   22.7858   20.3219 C   0  0  0  0  0  0  0  0  0  0  0  0
   -8.4368   23.5555   21.1009 C   0  0  0  0  0  0  0  0  0  0  0  0
   -9.3478   22.9443   21.9640 C   0  0  0  0  0  0  0  0  0  0  0  0
   -9.3958   21.5567   22.0558 C   0  0  0  0  0  0  0  0  0  0  0  0
   -8.5343   20.7756   21.2847 C   0  0  0  0  0  0  0  0  0  0  0  0
   -7.6080   21.3740   20.4170 C   0  0  0  0  0  0  0  0  0  0  0  0
   -6.7217   20.6003   19.6545 C   0  0  0  0  0  0  0  0  0  0  0  0
   -2.9396   18.0553   17.5759 C   0  0  0  0  0  0  0  0  0  0  0  0
   -1.8790   14.6061   16.3091 C   0  0  0  0  0  0  0  0  0  0  0  0
   -1.2705   14.0620   17.4411 C   0  0  0  0  0  0  0  0  0  0  0  0
   -1.1973   14.8220   18.5998 C   0  0  0  0  0  0  0  0  0  0  0  0
   -0.6233   14.3028   19.6933 F   0  0  0  0  0  0  0  0  0  0  0  0
   -1.7145   16.1142   18.6523 C   0  0  0  0  0  0  0  0  0  0  0  0
   -2.3288   16.6709   17.5235 C   0  0  0  0  0  0  0  0  0  0  0  0
   -2.4012   15.9070   16.3476 C   0  0  0  0  0  0  0  0  0  0  0  0
   -1.7202   12.5215   15.0413 N   0  0  0  0  0  0  0  0  0  0  0  0
   -1.9721   13.7918   15.0684 C   0  0  0  0  0  0  0  0  0  0  0  0
   -2.3416   14.3708   13.8917 N   0  0  0  0  0  0  0  0  0  0  0  0
   -1.7950   12.0227   14.1958 H   0  0  0  0  0  0  0  0  0  0  0  0
   -2.4017   13.8271   13.0731 H   0  0  0  0  0  0  0  0  0  0  0  0
   -2.5486   15.3328   13.8600 H   0  0  0  0  0  0  0  0  0  0  0  0
 37 38  2  0
 38 39  1  0
 38 30  1  0
 30 31  2  0
 31 32  1  0
 32 33  1  0
 32 34  2  0
 34 35  1  0
 35 29  1  0
  1 29  1  0
  1 14  1  0
 14 16  1  0
 16 17  2  0
 16 18  2  0
 16 19  1  0
 19 20  2  0
 20 21  1  0
 21 22  2  0
 22 23  1  0
 23 24  2  0
 24 25  1  0
 25 26  2  0
 26 27  1  0
 27 28  2  0
  1  2  1  0
  2  3  2  0
  2  4  1  0
  4  5  1  0
  5  6  1  0
  6  7  1  0
  7  8  1  0
  8  9  1  0
  9 10  1  0
 10 11  2  0
 10 12  1  0
 35 36  2  0
 36 30  1  0
 28 19  1  0
  9  4  1  0
 27 22  1  0
 37 40  1  0
 39 41  1  0
 39 42  1  0
 14 15  1  0
 12 13  1  0
M  END
> <minimizedAffinity>
-8.30383

> <CNNscore>
0.7533599734

> <CNNaffinity>
6.9857277870

> <CNN_VS>
5.2627677917

> <CNNaffinity_variance>
0.0153904697

$$$$



 42 45  0  0  0  0  0  0  0  0999 V2000
   -2.5436   20.4473   16.8362 C   0  0  0  0  0  0  0  0  0  0  0  0
   -1.5565   21.0019   15.7907 C   0  0  0  0  0  0  0  0  0  0  0  0
   -1.8802   20.9243   14.5961 O   0  0  0  0  0  0  0  0  0  0  0  0
   -0.3615   21.6150   16.1862 N   0  0  0  0  0  0  0  0  0  0  0  0
    0.4363   22.1546   15.0805 C   0  0  0  0  0  0  0  0  0  0  0  0
    1.3157   21.0533   14.4738 C   0  0  0  0  0  0  0  0  0  0  0  0
    2.1584   20.3419   15.5400 C   0  0  0  0  0  0  0  0  0  0  0  0
    1.3227   19.9158   16.7574 C   0  0  0  0  0  0  0  0  0  0  0  0
    0.5060   21.1090   17.2726 C   0  0  0  0  0  0  0  0  0  0  0  0
   -0.0194   20.9417   18.6996 C   0  0  0  0  0  0  0  0  0  0  0  0
   -0.7239   21.7301   19.3093 O   0  0  0  0  0  0  0  0  0  0  0  0
    0.2614   19.7384   19.2365 O   0  0  0  0  0  0  0  0  0  0  0  0
    0.8021   19.1319   18.7699 H   0  0  0  0  0  0  0  0  0  0  0  0
   -3.5895   21.5061   17.0008 N   0  0  0  0  0  0  0  0  0  0  0  0
   -4.2880   21.3656   16.2709 H   0  0  0  0  0  0  0  0  0  0  0  0
   -4.3976   21.5534   18.4758 S   0  0  0  0  0  0  0  0  0  0  0  0
   -3.7409   20.6396   19.3824 O   0  0  0  0  0  0  0  0  0  0  0  0
   -4.5913   22.9484   18.7985 O   0  0  0  0  0  0  0  0  0  0  0  0
   -5.9754   20.8809   18.0238 C   0  0  0  0  0  0  0  0  0  0  0  0
   -6.2727   19.5492   18.3154 C   0  0  0  0  0  0  0  0  0  0  0  0
   -7.5007   19.0199   17.9169 C   0  0  0  0  0  0  0  0  0  0  0  0
   -8.4369   19.8139   17.2328 C   0  0  0  0  0  0  0  0  0  0  0  0
   -9.6665   19.2876   16.8068 C   0  0  0  0  0  0  0  0  0  0  0  0
  -10.5850   20.0844   16.1214 C   0  0  0  0  0  0  0  0  0  0  0  0
  -10.2881   21.4180   15.8572 C   0  0  0  0  0  0  0  0  0  0  0  0
   -9.0730   21.9595   16.2782 C   0  0  0  0  0  0  0  0  0  0  0  0
   -8.1358   21.1708   16.9626 C   0  0  0  0  0  0  0  0  0  0  0  0
   -6.9022   21.6975   17.3702 C   0  0  0  0  0  0  0  0  0  0  0  0
   -3.2111   19.1616   16.3278 C   0  0  0  0  0  0  0  0  0  0  0  0
   -2.0337   15.5574   16.8274 C   0  0  0  0  0  0  0  0  0  0  0  0
   -1.6694   15.5614   18.1747 C   0  0  0  0  0  0  0  0  0  0  0  0
   -1.7957   16.7344   18.9052 C   0  0  0  0  0  0  0  0  0  0  0  0
   -1.4571   16.7432   20.2014 F   0  0  0  0  0  0  0  0  0  0  0  0
   -2.2739   17.9042   18.3197 C   0  0  0  0  0  0  0  0  0  0  0  0
   -2.6441   17.9128   16.9691 C   0  0  0  0  0  0  0  0  0  0  0  0
   -2.5138   16.7292   16.2250 C   0  0  0  0  0  0  0  0  0  0  0  0
   -2.6397   14.0503   15.0000 N   0  0  0  0  0  0  0  0  0  0  0  0
   -1.9129   14.3002   16.0427 C   0  0  0  0  0  0  0  0  0  0  0  0
   -1.0052   13.3496   16.4019 N   0  0  0  0  0  0  0  0  0  0  0  0
   -2.5247   13.2035   14.5112 H   0  0  0  0  0  0  0  0  0  0  0  0
   -0.9292   12.5190   15.8789 H   0  0  0  0  0  0  0  0  0  0  0  0
   -0.4252   13.4935   17.1843 H   0  0  0  0  0  0  0  0  0  0  0  0
 37 38  2  0
 38 39  1  0
 38 30  1  0
 30 31  2  0
 31 32  1  0
 32 33  1  0
 32 34  2  0
 34 35  1  0
 35 29  1  0
  1 29  1  0
  1 14  1  0
 14 16  1  0
 16 17  2  0
 16 18  2  0
 16 19  1  0
 19 20  2  0
 20 21  1  0
 21 22  2  0
 22 23  1  0
 23 24  2  0
 24 25  1  0
 25 26  2  0
 26 27  1  0
 27 28  2  0
  1  2  1  0
  2  3  2  0
  2  4  1  0
  4  5  1  0
  5  6  1  0
  6  7  1  0
  7  8  1  0
  8  9  1  0
  9 10  1  0
 10 11  2  0
 10 12  1  0
 35 36  2  0
 36 30  1  0
 28 19  1  0
  9  4  1  0
 27 22  1  0
 37 40  1  0
 39 41  1  0
 39 42  1  0
 14 15  1  0
 12 13  1  0
M  END
> <minimizedAffinity>
-7.45619

> <CNNscore>
0.7296124697

> <CNNaffinity>
6.8416366577

> <CNN_VS>
4.9917435646

> <CNNaffinity_variance>
0.0367088653

$$$$



 42 45  0  0  0  0  0  0  0  0999 V2000
   -0.5480   20.8212   16.8236 C   0  0  0  0  0  0  0  0  0  0  0  0
    0.5879   20.0740   17.5490 C   0  0  0  0  0  0  0  0  0  0  0  0
    0.8555   18.9246   17.1679 O   0  0  0  0  0  0  0  0  0  0  0  0
    1.3200   20.6956   18.5678 N   0  0  0  0  0  0  0  0  0  0  0  0
    2.4125   19.8820   19.1105 C   0  0  0  0  0  0  0  0  0  0  0  0
    1.8822   18.9401   20.1996 C   0  0  0  0  0  0  0  0  0  0  0  0
    1.0956   19.6972   21.2772 C   0  0  0  0  0  0  0  0  0  0  0  0
    0.0546   20.6550   20.6766 C   0  0  0  0  0  0  0  0  0  0  0  0
    0.7167   21.5466   19.6169 C   0  0  0  0  0  0  0  0  0  0  0  0
   -0.0833   22.8017   19.2628 C   0  0  0  0  0  0  0  0  0  0  0  0
   -1.2722   22.9851   19.4690 O   0  0  0  0  0  0  0  0  0  0  0  0
    0.6780   23.8059   18.7864 O   0  0  0  0  0  0  0  0  0  0  0  0
    1.5909   23.6669   18.6275 H   0  0  0  0  0  0  0  0  0  0  0  0
   -0.2814   20.6338   15.3621 N   0  0  0  0  0  0  0  0  0  0  0  0
   -1.0449   20.0768   14.9784 H   0  0  0  0  0  0  0  0  0  0  0  0
   -0.1495   22.0274   14.4287 S   0  0  0  0  0  0  0  0  0  0  0  0
   -1.0014   21.8802   13.2708 O   0  0  0  0  0  0  0  0  0  0  0  0
   -0.2715   23.1467   15.3342 O   0  0  0  0  0  0  0  0  0  0  0  0
    1.5448   21.9346   13.9120 C   0  0  0  0  0  0  0  0  0  0  0  0
    1.9149   22.4108   12.6538 C   0  0  0  0  0  0  0  0  0  0  0  0
    3.2429   22.2935   12.2420 C   0  0  0  0  0  0  0  0  0  0  0  0
    4.2058   21.7077   13.0812 C   0  0  0  0  0  0  0  0  0  0  0  0
    5.5403   21.5635   12.6703 C   0  0  0  0  0  0  0  0  0  0  0  0
    6.4860   20.9729   13.5101 C   0  0  0  0  0  0  0  0  0  0  0  0
    6.1110   20.5235   14.7725 C   0  0  0  0  0  0  0  0  0  0  0  0
    4.7902   20.6638   15.1998 C   0  0  0  0  0  0  0  0  0  0  0  0
    3.8256   21.2492   14.3657 C   0  0  0  0  0  0  0  0  0  0  0  0
    2.4906   21.3746   14.7751 C   0  0  0  0  0  0  0  0  0  0  0  0
   -1.9118   20.2043   17.1649 C   0  0  0  0  0  0  0  0  0  0  0  0
   -1.7134   16.4028   17.5338 C   0  0  0  0  0  0  0  0  0  0  0  0
   -1.6625   16.2539   18.9205 C   0  0  0  0  0  0  0  0  0  0  0  0
   -1.6792   17.3861   19.7226 C   0  0  0  0  0  0  0  0  0  0  0  0
   -1.6404   17.2506   21.0549 F   0  0  0  0  0  0  0  0  0  0  0  0
   -1.7418   18.6636   19.1710 C   0  0  0  0  0  0  0  0  0  0  0  0
   -1.7948   18.8262   17.7810 C   0  0  0  0  0  0  0  0  0  0  0  0
   -1.7737   17.6834   16.9655 C   0  0  0  0  0  0  0  0  0  0  0  0
   -2.4705   15.0701   15.6289 N   0  0  0  0  0  0  0  0  0  0  0  0
   -1.7089   15.1929   16.6695 C   0  0  0  0  0  0  0  0  0  0  0  0
   -0.8766   14.1510   16.9489 N   0  0  0  0  0  0  0  0  0  0  0  0
   -2.4333   14.2498   15.0857 H   0  0  0  0  0  0  0  0  0  0  0  0
   -0.8775   13.3522   16.3735 H   0  0  0  0  0  0  0  0  0  0  0  0
   -0.2742   14.1969   17.7262 H   0  0  0  0  0  0  0  0  0  0  0  0
 37 38  2  0
 38 39  1  0
 38 30  1  0
 30 31  2  0
 31 32  1  0
 32 33  1  0
 32 34  2  0
 34 35  1  0
 35 29  1  0
  1 29  1  0
  1 14  1  0
 14 16  1  0
 16 17  2  0
 16 18  2  0
 16 19  1  0
 19 20  2  0
 20 21  1  0
 21 22  2  0
 22 23  1  0
 23 24  2  0
 24 25  1  0
 25 26  2  0
 26 27  1  0
 27 28  2  0
  1  2  1  0
  2  3  2  0
  2  4  1  0
  4  5  1  0
  5  6  1  0
  6  7  1  0
  7  8  1  0
  8  9  1  0
  9 10  1  0
 10 11  2  0
 10 12  1  0
 35 36  2  0
 36 30  1  0
 28 19  1  0
  9  4  1  0
 27 22  1  0
 37 40  1  0
 39 41  1  0
 39 42  1  0
 14 15  1  0
 12 13  1  0
M  END
> <minimizedAffinity>
-7.56711

> <CNNscore>
0.7177337408

> <CNNaffinity>
6.8778328896

> <CNN_VS>
4.9364528656

> <CNNaffinity_variance>
0.0372585915

$$$$



 42 45  0  0  0  0  0  0  0  0999 V2000
   -3.8625   19.7898   17.5933 C   0  0  0  0  0  0  0  0  0  0  0  0
   -4.1982   20.8983   18.6100 C   0  0  0  0  0  0  0  0  0  0  0  0
   -3.3802   21.1141   19.5168 O   0  0  0  0  0  0  0  0  0  0  0  0
   -5.3633   21.6637   18.4788 N   0  0  0  0  0  0  0  0  0  0  0  0
   -5.5062   22.7246   19.4809 C   0  0  0  0  0  0  0  0  0  0  0  0
   -6.1360   22.1629   20.7623 C   0  0  0  0  0  0  0  0  0  0  0  0
   -7.4456   21.4171   20.4766 C   0  0  0  0  0  0  0  0  0  0  0  0
   -7.3068   20.4133   19.3212 C   0  0  0  0  0  0  0  0  0  0  0  0
   -6.6804   21.1048   18.1023 C   0  0  0  0  0  0  0  0  0  0  0  0
   -6.8810   20.3562   16.7832 C   0  0  0  0  0  0  0  0  0  0  0  0
   -7.5928   19.3810   16.6047 O   0  0  0  0  0  0  0  0  0  0  0  0
   -6.2783   20.9484   15.7339 O   0  0  0  0  0  0  0  0  0  0  0  0
   -5.7315   21.6972   15.8691 H   0  0  0  0  0  0  0  0  0  0  0  0
   -2.4048   19.9511   17.2916 N   0  0  0  0  0  0  0  0  0  0  0  0
   -2.0467   19.0402   17.0047 H   0  0  0  0  0  0  0  0  0  0  0  0
   -1.9946   21.0592   16.0938 S   0  0  0  0  0  0  0  0  0  0  0  0
   -2.5781   20.6173   14.8479 O   0  0  0  0  0  0  0  0  0  0  0  0
   -2.2508   22.3729   16.6382 O   0  0  0  0  0  0  0  0  0  0  0  0
   -0.2360   20.8425   16.0144 C   0  0  0  0  0  0  0  0  0  0  0  0
    0.4361   20.2209   17.0675 C   0  0  0  0  0  0  0  0  0  0  0  0
    1.8246   20.0944   17.0125 C   0  0  0  0  0  0  0  0  0  0  0  0
    2.5467   20.5806   15.9093 C   0  0  0  0  0  0  0  0  0  0  0  0
    3.9456   20.4797   15.8518 C   0  0  0  0  0  0  0  0  0  0  0  0
    4.6524   20.9734   14.7540 C   0  0  0  0  0  0  0  0  0  0  0  0
    3.9698   21.5697   13.6982 C   0  0  0  0  0  0  0  0  0  0  0  0
    2.5789   21.6735   13.7358 C   0  0  0  0  0  0  0  0  0  0  0  0
    1.8536   21.1884   14.8347 C   0  0  0  0  0  0  0  0  0  0  0  0
    0.4580   21.3078   14.8941 C   0  0  0  0  0  0  0  0  0  0  0  0
   -4.0946   18.4008   18.2046 C   0  0  0  0  0  0  0  0  0  0  0  0
   -1.8385   15.5537   17.0085 C   0  0  0  0  0  0  0  0  0  0  0  0
   -0.7134   15.7237   17.8166 C   0  0  0  0  0  0  0  0  0  0  0  0
   -0.6902   16.7667   18.7316 C   0  0  0  0  0  0  0  0  0  0  0  0
    0.3824   16.9302   19.5174 F   0  0  0  0  0  0  0  0  0  0  0  0
   -1.7635   17.6457   18.8552 C   0  0  0  0  0  0  0  0  0  0  0  0
   -2.8988   17.4849   18.0511 C   0  0  0  0  0  0  0  0  0  0  0  0
   -2.9247   16.4334   17.1207 C   0  0  0  0  0  0  0  0  0  0  0  0
   -2.6730   14.4095   15.0154 N   0  0  0  0  0  0  0  0  0  0  0  0
   -1.8746   14.4301   16.0352 C   0  0  0  0  0  0  0  0  0  0  0  0
   -1.0420   13.3622   16.1861 N   0  0  0  0  0  0  0  0  0  0  0  0
   -2.6619   13.6437   14.3969 H   0  0  0  0  0  0  0  0  0  0  0  0
   -1.0699   12.6209   15.5389 H   0  0  0  0  0  0  0  0  0  0  0  0
   -0.4125   13.3319   16.9425 H   0  0  0  0  0  0  0  0  0  0  0  0
 37 38  2  0
 38 39  1  0
 38 30  1  0
 30 31  2  0
 31 32  1  0
 32 33  1  0
 32 34  2  0
 34 35  1  0
 35 29  1  0
  1 29  1  0
  1 14  1  0
 14 16  1  0
 16 17  2  0
 16 18  2  0
 16 19  1  0
 19 20  2  0
 20 21  1  0
 21 22  2  0
 22 23  1  0
 23 24  2  0
 24 25  1  0
 25 26  2  0
 26 27  1  0
 27 28  2  0
  1  2  1  0
  2  3  2  0
  2  4  1  0
  4  5  1  0
  5  6  1  0
  6  7  1  0
  7  8  1  0
  8  9  1  0
  9 10  1  0
 10 11  2  0
 10 12  1  0
 35 36  2  0
 36 30  1  0
 28 19  1  0
  9  4  1  0
 27 22  1  0
 37 40  1  0
 39 41  1  0
 39 42  1  0
 14 15  1  0
 12 13  1  0
M  END
> <minimizedAffinity>
-7.98742

> <CNNscore>
0.4648065567

> <CNNaffinity>
6.5692467690

> <CNN_VS>
3.0534288883

> <CNNaffinity_variance>
0.0475678854

$$$$



 42 45  0  0  0  0  0  0  0  0999 V2000
   -0.7967   18.8822   17.8982 C   0  0  0  0  0  0  0  0  0  0  0  0
   -1.4823   20.2596   17.8105 C   0  0  0  0  0  0  0  0  0  0  0  0
   -2.6747   20.3308   18.1436 O   0  0  0  0  0  0  0  0  0  0  0  0
   -0.7643   21.3949   17.4156 N   0  0  0  0  0  0  0  0  0  0  0  0
   -1.5360   22.6412   17.4505 C   0  0  0  0  0  0  0  0  0  0  0  0
   -2.3303   22.8102   16.1486 C   0  0  0  0  0  0  0  0  0  0  0  0
   -1.4328   22.6863   14.9109 C   0  0  0  0  0  0  0  0  0  0  0  0
   -0.5260   21.4469   14.9680 C   0  0  0  0  0  0  0  0  0  0  0  0
    0.2186   21.4070   16.3097 C   0  0  0  0  0  0  0  0  0  0  0  0
    1.4433   20.4902   16.3218 C   0  0  0  0  0  0  0  0  0  0  0  0
    2.4726   20.6648   16.9539 O   0  0  0  0  0  0  0  0  0  0  0  0
    1.2599   19.3419   15.6416 O   0  0  0  0  0  0  0  0  0  0  0  0
    0.4703   19.2061   15.1558 H   0  0  0  0  0  0  0  0  0  0  0  0
    0.3820   19.0782   18.8005 N   0  0  0  0  0  0  0  0  0  0  0  0
    0.8737   19.9154   18.4880 H   0  0  0  0  0  0  0  0  0  0  0  0
    0.0607   19.2599   20.4420 S   0  0  0  0  0  0  0  0  0  0  0  0
   -1.0341   20.1915   20.5896 O   0  0  0  0  0  0  0  0  0  0  0  0
    0.0188   17.9305   21.0066 O   0  0  0  0  0  0  0  0  0  0  0  0
    1.5552   20.0354   20.9999 C   0  0  0  0  0  0  0  0  0  0  0  0
    2.6703   20.0788   20.1623 C   0  0  0  0  0  0  0  0  0  0  0  0
    3.8532   20.6538   20.6282 C   0  0  0  0  0  0  0  0  0  0  0  0
    3.9286   21.1908   21.9246 C   0  0  0  0  0  0  0  0  0  0  0  0
    5.1188   21.7519   22.4133 C   0  0  0  0  0  0  0  0  0  0  0  0
    5.1833   22.2753   23.7058 C   0  0  0  0  0  0  0  0  0  0  0  0
    4.0581   22.2486   24.5240 C   0  0  0  0  0  0  0  0  0  0  0  0
    2.8649   21.6999   24.0528 C   0  0  0  0  0  0  0  0  0  0  0  0
    2.7847   21.1637   22.7586 C   0  0  0  0  0  0  0  0  0  0  0  0
    1.5979   20.5889   22.2824 C   0  0  0  0  0  0  0  0  0  0  0  0
   -1.7376   17.8437   18.5252 C   0  0  0  0  0  0  0  0  0  0  0  0
   -1.5520   14.4645   16.7438 C   0  0  0  0  0  0  0  0  0  0  0  0
   -0.7045   13.7446   17.5871 C   0  0  0  0  0  0  0  0  0  0  0  0
   -0.1903   14.3641   18.7173 C   0  0  0  0  0  0  0  0  0  0  0  0
    0.6161   13.6763   19.5366 F   0  0  0  0  0  0  0  0  0  0  0  0
   -0.5003   15.6874   19.0222 C   0  0  0  0  0  0  0  0  0  0  0  0
   -1.3507   16.4201   18.1847 C   0  0  0  0  0  0  0  0  0  0  0  0
   -1.8698   15.7984   17.0376 C   0  0  0  0  0  0  0  0  0  0  0  0
   -1.6815   12.6663   15.0922 N   0  0  0  0  0  0  0  0  0  0  0  0
   -2.1165   13.8020   15.5382 C   0  0  0  0  0  0  0  0  0  0  0  0
   -3.1406   14.3812   14.8510 N   0  0  0  0  0  0  0  0  0  0  0  0
   -2.0862   12.2651   14.2894 H   0  0  0  0  0  0  0  0  0  0  0  0
   -3.5107   13.9384   14.0534 H   0  0  0  0  0  0  0  0  0  0  0  0
   -3.5104   15.2425   15.1521 H   0  0  0  0  0  0  0  0  0  0  0  0
 37 38  2  0
 38 39  1  0
 38 30  1  0
 30 31  2  0
 31 32  1  0
 32 33  1  0
 32 34  2  0
 34 35  1  0
 35 29  1  0
  1 29  1  0
  1 14  1  0
 14 16  1  0
 16 17  2  0
 16 18  2  0
 16 19  1  0
 19 20  2  0
 20 21  1  0
 21 22  2  0
 22 23  1  0
 23 24  2  0
 24 25  1  0
 25 26  2  0
 26 27  1  0
 27 28  2  0
  1  2  1  0
  2  3  2  0
  2  4  1  0
  4  5  1  0
  5  6  1  0
  6  7  1  0
  7  8  1  0
  8  9  1  0
  9 10  1  0
 10 11  2  0
 10 12  1  0
 35 36  2  0
 36 30  1  0
 28 19  1  0
  9  4  1  0
 27 22  1  0
 37 40  1  0
 39 41  1  0
 39 42  1  0
 14 15  1  0
 12 13  1  0
M  END
> <minimizedAffinity>
-8.60292

> <CNNscore>
0.4117661715

> <CNNaffinity>
6.7814178467

> <CNN_VS>
2.7923583984

> <CNNaffinity_variance>
0.1095591187

$$$$



 42 45  0  0  0  0  0  0  0  0999 V2000
   -0.8644   20.5368   20.0602 C   0  0  0  0  0  0  0  0  0  0  0  0
    0.0244   21.0435   21.2127 C   0  0  0  0  0  0  0  0  0  0  0  0
   -0.2541   22.1436   21.7128 O   0  0  0  0  0  0  0  0  0  0  0  0
    1.0764   20.2616   21.7050 N   0  0  0  0  0  0  0  0  0  0  0  0
    1.7833   20.8489   22.8476 C   0  0  0  0  0  0  0  0  0  0  0  0
    2.8643   21.8223   22.3595 C   0  0  0  0  0  0  0  0  0  0  0  0
    3.8017   21.1694   21.3358 C   0  0  0  0  0  0  0  0  0  0  0  0
    3.0342   20.4337   20.2260 C   0  0  0  0  0  0  0  0  0  0  0  0
    1.9997   19.4856   20.8481 C   0  0  0  0  0  0  0  0  0  0  0  0
    1.4845   18.4052   19.8953 C   0  0  0  0  0  0  0  0  0  0  0  0
    1.5775   18.4083   18.6784 O   0  0  0  0  0  0  0  0  0  0  0  0
    0.9956   17.3211   20.5284 O   0  0  0  0  0  0  0  0  0  0  0  0
    0.9235   17.3170   21.4626 H   0  0  0  0  0  0  0  0  0  0  0  0
    0.0351   20.4577   18.8657 N   0  0  0  0  0  0  0  0  0  0  0  0
   -0.1873   19.5951   18.3688 H   0  0  0  0  0  0  0  0  0  0  0  0
   -0.0588   21.7210   17.7585 S   0  0  0  0  0  0  0  0  0  0  0  0
   -1.1906   21.4820   16.8923 O   0  0  0  0  0  0  0  0  0  0  0  0
    0.0859   22.9453   18.5122 O   0  0  0  0  0  0  0  0  0  0  0  0
    1.4350   21.4779   16.8337 C   0  0  0  0  0  0  0  0  0  0  0  0
    1.4323   20.6434   15.7155 C   0  0  0  0  0  0  0  0  0  0  0  0
    2.6231   20.4266   15.0213 C   0  0  0  0  0  0  0  0  0  0  0  0
    3.8170   21.0423   15.4339 C   0  0  0  0  0  0  0  0  0  0  0  0
    5.0261   20.8151   14.7579 C   0  0  0  0  0  0  0  0  0  0  0  0
    6.2070   21.4266   15.1821 C   0  0  0  0  0  0  0  0  0  0  0  0
    6.1934   22.2763   16.2840 C   0  0  0  0  0  0  0  0  0  0  0  0
    4.9997   22.5182   16.9646 C   0  0  0  0  0  0  0  0  0  0  0  0
    3.8050   21.9065   16.5555 C   0  0  0  0  0  0  0  0  0  0  0  0
    2.6040   22.1238   17.2454 C   0  0  0  0  0  0  0  0  0  0  0  0
   -1.4094   19.1349   20.3677 C   0  0  0  0  0  0  0  0  0  0  0  0
   -2.5183   16.7536   17.5881 C   0  0  0  0  0  0  0  0  0  0  0  0
   -3.5702   17.4638   17.0079 C   0  0  0  0  0  0  0  0  0  0  0  0
   -3.9195   18.7010   17.5305 C   0  0  0  0  0  0  0  0  0  0  0  0
   -4.9218   19.3929   16.9727 F   0  0  0  0  0  0  0  0  0  0  0  0
   -3.2444   19.2429   18.6217 C   0  0  0  0  0  0  0  0  0  0  0  0
   -2.1861   18.5406   19.2119 C   0  0  0  0  0  0  0  0  0  0  0  0
   -1.8323   17.2864   18.6890 C   0  0  0  0  0  0  0  0  0  0  0  0
   -2.7576   14.8811   16.0342 N   0  0  0  0  0  0  0  0  0  0  0  0
   -2.1310   15.4332   17.0244 C   0  0  0  0  0  0  0  0  0  0  0  0
   -1.0726   14.7483   17.5412 N   0  0  0  0  0  0  0  0  0  0  0  0
   -2.4652   14.0048   15.6939 H   0  0  0  0  0  0  0  0  0  0  0  0
   -0.8203   13.8745   17.1643 H   0  0  0  0  0  0  0  0  0  0  0  0
   -0.5601   15.1272   18.2916 H   0  0  0  0  0  0  0  0  0  0  0  0
 37 38  2  0
 38 39  1  0
 38 30  1  0
 30 31  2  0
 31 32  1  0
 32 33  1  0
 32 34  2  0
 34 35  1  0
 35 29  1  0
  1 29  1  0
  1 14  1  0
 14 16  1  0
 16 17  2  0
 16 18  2  0
 16 19  1  0
 19 20  2  0
 20 21  1  0
 21 22  2  0
 22 23  1  0
 23 24  2  0
 24 25  1  0
 25 26  2  0
 26 27  1  0
 27 28  2  0
  1  2  1  0
  2  3  2  0
  2  4  1  0
  4  5  1  0
  5  6  1  0
  6  7  1  0
  7  8  1  0
  8  9  1  0
  9 10  1  0
 10 11  2  0
 10 12  1  0
 35 36  2  0
 36 30  1  0
 28 19  1  0
  9  4  1  0
 27 22  1  0
 37 40  1  0
 39 41  1  0
 39 42  1  0
 14 15  1  0
 12 13  1  0
M  END
> <minimizedAffinity>
-7.65864

> <CNNscore>
0.3049685657

> <CNNaffinity>
6.4150123596

> <CNN_VS>
1.9563771486

> <CNNaffinity_variance>
0.1809597760

$$$$
