


 24 25  0  0  0  0  0  0  0  0999 V2000
   -3.5796  -11.9814  -31.2384 C   0  0  0  0  0  0  0  0  0  0  0  0
   -2.6732  -11.2880  -32.0511 C   0  0  0  0  0  0  0  0  0  0  0  0
   -2.6816   -9.8923  -32.0861 C   0  0  0  0  0  0  0  0  0  0  0  0
   -3.6044   -9.1687  -31.3291 C   0  0  0  0  0  0  0  0  0  0  0  0
   -4.4983   -9.8511  -30.5063 C   0  0  0  0  0  0  0  0  0  0  0  0
   -4.4895  -11.2498  -30.4664 C   0  0  0  0  0  0  0  0  0  0  0  0
   -3.5741  -13.4908  -31.2017 C   0  0  0  0  0  0  0  0  0  0  0  0
   -2.4104  -14.1327  -31.9778 C   0  0  0  0  0  0  0  0  0  0  0  0
   -1.4417  -13.0656  -32.3606 N   0  0  0  0  0  0  0  0  0  0  0  0
   -1.9061  -12.3842  -32.9609 H   0  0  0  0  0  0  0  0  0  0  0  0
   -0.6576  -13.4823  -32.8624 H   0  0  0  0  0  0  0  0  0  0  0  0
   -4.6997  -15.0119  -34.9362 C   0  0  0  0  0  0  0  0  0  0  0  0
   -4.1040  -14.3870  -33.7797 N   0  0  0  0  0  0  0  0  0  0  0  0
   -2.9013  -14.8302  -33.2753 C   0  0  0  0  0  0  0  0  0  0  0  0
   -2.2520  -15.7324  -33.8076 O   0  0  0  0  0  0  0  0  0  0  0  0
   -4.5640  -13.6329  -33.3450 H   0  0  0  0  0  0  0  0  0  0  0  0
   -3.5114   -7.8094  -31.4492 O   0  0  0  0  0  0  0  0  0  0  0  0
   -2.2181   -7.2596  -31.7209 C   0  0  0  0  0  0  0  0  0  0  0  0
   -1.9959   -5.9060  -31.0787 C   0  0  0  0  0  0  0  0  0  0  0  0
   -0.7498   -5.6050  -30.5058 C   0  0  0  0  0  0  0  0  0  0  0  0
   -0.5359   -4.3800  -29.8701 C   0  0  0  0  0  0  0  0  0  0  0  0
   -1.5671   -3.4451  -29.7916 C   0  0  0  0  0  0  0  0  0  0  0  0
   -2.8129   -3.7364  -30.3441 C   0  0  0  0  0  0  0  0  0  0  0  0
   -3.0281   -4.9616  -30.9793 C   0  0  0  0  0  0  0  0  0  0  0  0
 12 13  1  0
 13 14  1  0
 14 15  2  0
 14  8  1  0
  8  9  1  0
  8  7  1  0
  7  1  1  0
  1  2  2  0
  2  3  1  0
  3  4  2  0
  4 17  1  0
 17 18  1  0
 18 19  1  0
 19 20  2  0
 20 21  1  0
 21 22  2  0
 22 23  1  0
 23 24  2  0
  4  5  1  0
  5  6  2  0
  6  1  1  0
 24 19  1  0
 13 16  1  0
  9 10  1  0
  9 11  1  0
M  END
> <minimizedAffinity>
-7.38465

> <CNNscore>
0.8854165077

> <CNNaffinity>
5.2482542992

> <CNN_VS>
4.6468911171

> <CNNaffinity_variance>
0.0983976349

$$$$



 24 25  0  0  0  0  0  0  0  0999 V2000
   -9.0527   -2.8581  -31.1182 C   0  0  0  0  0  0  0  0  0  0  0  0
   -8.4474   -3.8518  -30.3378 C   0  0  0  0  0  0  0  0  0  0  0  0
   -7.0587   -3.8916  -30.1988 C   0  0  0  0  0  0  0  0  0  0  0  0
   -6.2530   -2.9561  -30.8499 C   0  0  0  0  0  0  0  0  0  0  0  0
   -6.8489   -1.9553  -31.6146 C   0  0  0  0  0  0  0  0  0  0  0  0
   -8.2408   -1.9108  -31.7526 C   0  0  0  0  0  0  0  0  0  0  0  0
  -10.5541   -2.8155  -31.2723 C   0  0  0  0  0  0  0  0  0  0  0  0
  -11.2432   -1.7463  -30.4059 C   0  0  0  0  0  0  0  0  0  0  0  0
  -10.5612   -0.4383  -30.6241 N   0  0  0  0  0  0  0  0  0  0  0  0
   -9.5833   -0.5138  -30.3439 H   0  0  0  0  0  0  0  0  0  0  0  0
  -11.0201    0.2817  -30.0661 H   0  0  0  0  0  0  0  0  0  0  0  0
  -10.6409   -1.2647  -26.6414 C   0  0  0  0  0  0  0  0  0  0  0  0
  -10.8254   -1.0494  -28.0565 N   0  0  0  0  0  0  0  0  0  0  0  0
  -11.1594   -2.0907  -28.8941 C   0  0  0  0  0  0  0  0  0  0  0  0
  -11.3699   -3.2323  -28.4802 O   0  0  0  0  0  0  0  0  0  0  0  0
  -10.7108   -0.1452  -28.4286 H   0  0  0  0  0  0  0  0  0  0  0  0
   -4.9100   -3.1007  -30.6349 O   0  0  0  0  0  0  0  0  0  0  0  0
   -4.4057   -4.4329  -30.4941 C   0  0  0  0  0  0  0  0  0  0  0  0
   -2.8974   -4.4920  -30.3678 C   0  0  0  0  0  0  0  0  0  0  0  0
   -2.1785   -3.3218  -30.0754 C   0  0  0  0  0  0  0  0  0  0  0  0
   -0.7843   -3.3439  -29.9971 C   0  0  0  0  0  0  0  0  0  0  0  0
   -0.0916   -4.5332  -30.2188 C   0  0  0  0  0  0  0  0  0  0  0  0
   -0.7920   -5.6991  -30.5233 C   0  0  0  0  0  0  0  0  0  0  0  0
   -2.1864   -5.6778  -30.6026 C   0  0  0  0  0  0  0  0  0  0  0  0
 12 13  1  0
 13 14  1  0
 14 15  2  0
 14  8  1  0
  8  9  1  0
  8  7  1  0
  7  1  1  0
  1  2  2  0
  2  3  1  0
  3  4  2  0
  4 17  1  0
 17 18  1  0
 18 19  1  0
 19 20  2  0
 20 21  1  0
 21 22  2  0
 22 23  1  0
 23 24  2  0
  4  5  1  0
  5  6  2  0
  6  1  1  0
 24 19  1  0
 13 16  1  0
  9 10  1  0
  9 11  1  0
M  END
> <minimizedAffinity>
-7.51591

> <CNNscore>
0.8826597333

> <CNNaffinity>
4.9418997765

> <CNN_VS>
4.3620157242

> <CNNaffinity_variance>
0.3817132413

$$$$



 24 25  0  0  0  0  0  0  0  0999 V2000
   -9.2055   -2.8662  -31.0576 C   0  0  0  0  0  0  0  0  0  0  0  0
   -8.3172   -2.0317  -31.7485 C   0  0  0  0  0  0  0  0  0  0  0  0
   -6.9385   -2.1787  -31.5845 C   0  0  0  0  0  0  0  0  0  0  0  0
   -6.4258   -3.1440  -30.7164 C   0  0  0  0  0  0  0  0  0  0  0  0
   -7.3027   -3.9882  -30.0382 C   0  0  0  0  0  0  0  0  0  0  0  0
   -8.6849   -3.8454  -30.2036 C   0  0  0  0  0  0  0  0  0  0  0  0
  -10.6967   -2.7065  -31.2312 C   0  0  0  0  0  0  0  0  0  0  0  0
  -11.3167   -1.6083  -30.3491 C   0  0  0  0  0  0  0  0  0  0  0  0
  -10.5335   -0.3516  -30.5250 N   0  0  0  0  0  0  0  0  0  0  0  0
   -9.5691   -0.5083  -30.2323 H   0  0  0  0  0  0  0  0  0  0  0  0
  -10.9455    0.3882  -29.9563 H   0  0  0  0  0  0  0  0  0  0  0  0
  -10.6231   -1.3135  -26.5811 C   0  0  0  0  0  0  0  0  0  0  0  0
  -10.7758   -1.0408  -27.9900 N   0  0  0  0  0  0  0  0  0  0  0  0
  -11.2844   -1.9935  -28.8452 C   0  0  0  0  0  0  0  0  0  0  0  0
  -11.6818   -3.0918  -28.4521 O   0  0  0  0  0  0  0  0  0  0  0  0
  -10.5127   -0.1611  -28.3451 H   0  0  0  0  0  0  0  0  0  0  0  0
   -5.0608   -3.1887  -30.6429 O   0  0  0  0  0  0  0  0  0  0  0  0
   -4.4506   -4.4766  -30.5086 C   0  0  0  0  0  0  0  0  0  0  0  0
   -2.9383   -4.4193  -30.4486 C   0  0  0  0  0  0  0  0  0  0  0  0
   -2.1898   -5.5880  -30.6624 C   0  0  0  0  0  0  0  0  0  0  0  0
   -0.7966   -5.5680  -30.5692 C   0  0  0  0  0  0  0  0  0  0  0  0
   -0.1353   -4.3822  -30.2526 C   0  0  0  0  0  0  0  0  0  0  0  0
   -0.8668   -3.2180  -30.0246 C   0  0  0  0  0  0  0  0  0  0  0  0
   -2.2603   -3.2373  -30.1168 C   0  0  0  0  0  0  0  0  0  0  0  0
 12 13  1  0
 13 14  1  0
 14 15  2  0
 14  8  1  0
  8  9  1  0
  8  7  1  0
  7  1  1  0
  1  2  2  0
  2  3  1  0
  3  4  2  0
  4 17  1  0
 17 18  1  0
 18 19  1  0
 19 20  2  0
 20 21  1  0
 21 22  2  0
 22 23  1  0
 23 24  2  0
  4  5  1  0
  5  6  2  0
  6  1  1  0
 24 19  1  0
 13 16  1  0
  9 10  1  0
  9 11  1  0
M  END
> <minimizedAffinity>
-7.50583

> <CNNscore>
0.8764791489

> <CNNaffinity>
4.8687167168

> <CNN_VS>
4.2673287392

> <CNNaffinity_variance>
0.4230034351

$$$$



 24 25  0  0  0  0  0  0  0  0999 V2000
   -3.6562  -11.3912  -31.2939 C   0  0  0  0  0  0  0  0  0  0  0  0
   -4.5356  -10.4307  -30.7771 C   0  0  0  0  0  0  0  0  0  0  0  0
   -4.2856   -9.0703  -30.9671 C   0  0  0  0  0  0  0  0  0  0  0  0
   -3.1479   -8.6469  -31.6559 C   0  0  0  0  0  0  0  0  0  0  0  0
   -2.2773   -9.5967  -32.1866 C   0  0  0  0  0  0  0  0  0  0  0  0
   -2.5274  -10.9610  -32.0009 C   0  0  0  0  0  0  0  0  0  0  0  0
   -3.9231  -12.8627  -31.0867 C   0  0  0  0  0  0  0  0  0  0  0  0
   -5.2528  -13.1643  -30.3728 C   0  0  0  0  0  0  0  0  0  0  0  0
   -4.9733  -14.0004  -29.1700 N   0  0  0  0  0  0  0  0  0  0  0  0
   -4.5442  -14.8794  -29.4592 H   0  0  0  0  0  0  0  0  0  0  0  0
   -5.8467  -14.1935  -28.6798 H   0  0  0  0  0  0  0  0  0  0  0  0
   -6.4568  -15.5089  -33.1691 C   0  0  0  0  0  0  0  0  0  0  0  0
   -5.6522  -14.7894  -32.2111 N   0  0  0  0  0  0  0  0  0  0  0  0
   -6.2324  -13.9458  -31.2897 C   0  0  0  0  0  0  0  0  0  0  0  0
   -7.4533  -13.8042  -31.1980 O   0  0  0  0  0  0  0  0  0  0  0  0
   -4.6743  -14.9032  -32.2163 H   0  0  0  0  0  0  0  0  0  0  0  0
   -3.0157   -7.2909  -31.7753 O   0  0  0  0  0  0  0  0  0  0  0  0
   -3.4397   -6.4882  -30.6686 C   0  0  0  0  0  0  0  0  0  0  0  0
   -2.5524   -5.2847  -30.4271 C   0  0  0  0  0  0  0  0  0  0  0  0
   -3.1318   -4.0164  -30.2615 C   0  0  0  0  0  0  0  0  0  0  0  0
   -2.3314   -2.8863  -30.0809 C   0  0  0  0  0  0  0  0  0  0  0  0
   -0.9427   -3.0088  -30.0725 C   0  0  0  0  0  0  0  0  0  0  0  0
   -0.3542   -4.2597  -30.2493 C   0  0  0  0  0  0  0  0  0  0  0  0
   -1.1538   -5.3904  -30.4308 C   0  0  0  0  0  0  0  0  0  0  0  0
 12 13  1  0
 13 14  1  0
 14 15  2  0
 14  8  1  0
  8  9  1  0
  8  7  1  0
  7  1  1  0
  1  2  2  0
  2  3  1  0
  3  4  2  0
  4 17  1  0
 17 18  1  0
 18 19  1  0
 19 20  2  0
 20 21  1  0
 21 22  2  0
 22 23  1  0
 23 24  2  0
  4  5  1  0
  5  6  2  0
  6  1  1  0
 24 19  1  0
 13 16  1  0
  9 10  1  0
  9 11  1  0
M  END
> <minimizedAffinity>
-6.98929

> <CNNscore>
0.8633302450

> <CNNaffinity>
4.8142590523

> <CNN_VS>
4.1562952995

> <CNNaffinity_variance>
0.4023924768

$$$$



 24 25  0  0  0  0  0  0  0  0999 V2000
   -3.7589  -11.6622  -31.9087 C   0  0  0  0  0  0  0  0  0  0  0  0
   -2.5828  -10.9416  -32.1540 C   0  0  0  0  0  0  0  0  0  0  0  0
   -2.5233   -9.5737  -31.8808 C   0  0  0  0  0  0  0  0  0  0  0  0
   -3.6385   -8.9009  -31.3789 C   0  0  0  0  0  0  0  0  0  0  0  0
   -4.8066   -9.6142  -31.1173 C   0  0  0  0  0  0  0  0  0  0  0  0
   -4.8677  -10.9860  -31.3867 C   0  0  0  0  0  0  0  0  0  0  0  0
   -3.8260  -13.1408  -32.2066 C   0  0  0  0  0  0  0  0  0  0  0  0
   -3.4110  -14.0377  -31.0268 C   0  0  0  0  0  0  0  0  0  0  0  0
   -2.7038  -15.2371  -31.5606 N   0  0  0  0  0  0  0  0  0  0  0  0
   -3.3331  -15.7595  -32.1702 H   0  0  0  0  0  0  0  0  0  0  0  0
   -2.4100  -15.8315  -30.7856 H   0  0  0  0  0  0  0  0  0  0  0  0
   -5.4514  -15.3855  -28.0627 C   0  0  0  0  0  0  0  0  0  0  0  0
   -4.4027  -14.8493  -28.8966 N   0  0  0  0  0  0  0  0  0  0  0  0
   -4.6416  -14.5223  -30.2132 C   0  0  0  0  0  0  0  0  0  0  0  0
   -5.7580  -14.6159  -30.7268 O   0  0  0  0  0  0  0  0  0  0  0  0
   -3.5035  -14.7152  -28.5189 H   0  0  0  0  0  0  0  0  0  0  0  0
   -3.4541   -7.5646  -31.1529 O   0  0  0  0  0  0  0  0  0  0  0  0
   -2.2178   -6.9881  -31.5866 C   0  0  0  0  0  0  0  0  0  0  0  0
   -1.9153   -5.6568  -30.9308 C   0  0  0  0  0  0  0  0  0  0  0  0
   -2.9342   -4.6996  -30.7995 C   0  0  0  0  0  0  0  0  0  0  0  0
   -2.6680   -3.4492  -30.2375 C   0  0  0  0  0  0  0  0  0  0  0  0
   -1.3788   -3.1371  -29.8084 C   0  0  0  0  0  0  0  0  0  0  0  0
   -0.3551   -4.0729  -29.9452 C   0  0  0  0  0  0  0  0  0  0  0  0
   -0.6202   -5.3235  -30.5079 C   0  0  0  0  0  0  0  0  0  0  0  0
 12 13  1  0
 13 14  1  0
 14 15  2  0
 14  8  1  0
  8  9  1  0
  8  7  1  0
  7  1  1  0
  1  2  2  0
  2  3  1  0
  3  4  2  0
  4 17  1  0
 17 18  1  0
 18 19  1  0
 19 20  2  0
 20 21  1  0
 21 22  2  0
 22 23  1  0
 23 24  2  0
  4  5  1  0
  5  6  2  0
  6  1  1  0
 24 19  1  0
 13 16  1  0
  9 10  1  0
  9 11  1  0
M  END
> <minimizedAffinity>
-7.12045

> <CNNscore>
0.8300765157

> <CNNaffinity>
4.8859448433

> <CNN_VS>
4.0557079315

> <CNNaffinity_variance>
0.2871252298

$$$$



 24 25  0  0  0  0  0  0  0  0999 V2000
   -3.6955  -11.6741  -31.1061 C   0  0  0  0  0  0  0  0  0  0  0  0
   -2.6350  -11.2328  -31.9083 C   0  0  0  0  0  0  0  0  0  0  0  0
   -2.4325   -9.8680  -32.1221 C   0  0  0  0  0  0  0  0  0  0  0  0
   -3.2934   -8.9255  -31.5576 C   0  0  0  0  0  0  0  0  0  0  0  0
   -4.3405   -9.3563  -30.7455 C   0  0  0  0  0  0  0  0  0  0  0  0
   -4.5436  -10.7233  -30.5264 C   0  0  0  0  0  0  0  0  0  0  0  0
   -3.9180  -13.1496  -30.8763 C   0  0  0  0  0  0  0  0  0  0  0  0
   -4.8320  -13.8159  -31.9199 C   0  0  0  0  0  0  0  0  0  0  0  0
   -4.2505  -13.5995  -33.2759 N   0  0  0  0  0  0  0  0  0  0  0  0
   -4.2000  -12.5991  -33.4684 H   0  0  0  0  0  0  0  0  0  0  0  0
   -4.8405  -14.0509  -33.9748 H   0  0  0  0  0  0  0  0  0  0  0  0
   -7.9055  -11.8329  -33.0977 C   0  0  0  0  0  0  0  0  0  0  0  0
   -6.6317  -12.5077  -33.0288 N   0  0  0  0  0  0  0  0  0  0  0  0
   -6.2612  -13.2090  -31.9026 C   0  0  0  0  0  0  0  0  0  0  0  0
   -7.0069  -13.3428  -30.9305 O   0  0  0  0  0  0  0  0  0  0  0  0
   -6.0186  -12.4663  -33.7980 H   0  0  0  0  0  0  0  0  0  0  0  0
   -2.9896   -7.6224  -31.8409 O   0  0  0  0  0  0  0  0  0  0  0  0
   -3.5216   -6.6183  -30.9704 C   0  0  0  0  0  0  0  0  0  0  0  0
   -2.5436   -5.4990  -30.6791 C   0  0  0  0  0  0  0  0  0  0  0  0
   -1.1640   -5.7350  -30.7919 C   0  0  0  0  0  0  0  0  0  0  0  0
   -0.2428   -4.7309  -30.4865 C   0  0  0  0  0  0  0  0  0  0  0  0
   -0.6887   -3.4820  -30.0563 C   0  0  0  0  0  0  0  0  0  0  0  0
   -2.0549   -3.2385  -29.9271 C   0  0  0  0  0  0  0  0  0  0  0  0
   -2.9770   -4.2425  -30.2315 C   0  0  0  0  0  0  0  0  0  0  0  0
 12 13  1  0
 13 14  1  0
 14 15  2  0
 14  8  1  0
  8  9  1  0
  8  7  1  0
  7  1  1  0
  1  2  2  0
  2  3  1  0
  3  4  2  0
  4 17  1  0
 17 18  1  0
 18 19  1  0
 19 20  2  0
 20 21  1  0
 21 22  2  0
 22 23  1  0
 23 24  2  0
  4  5  1  0
  5  6  2  0
  6  1  1  0
 24 19  1  0
 13 16  1  0
  9 10  1  0
  9 11  1  0
M  END
> <minimizedAffinity>
-6.79740

> <CNNscore>
0.8189958930

> <CNNaffinity>
4.6862621307

> <CNN_VS>
3.8380293846

> <CNNaffinity_variance>
0.3360258043

$$$$



 24 25  0  0  0  0  0  0  0  0999 V2000
   -9.0053   -2.5646  -30.5875 C   0  0  0  0  0  0  0  0  0  0  0  0
   -7.8956   -1.9533  -31.1855 C   0  0  0  0  0  0  0  0  0  0  0  0
   -6.6443   -2.5717  -31.1489 C   0  0  0  0  0  0  0  0  0  0  0  0
   -6.4762   -3.7961  -30.5001 C   0  0  0  0  0  0  0  0  0  0  0  0
   -7.5787   -4.4177  -29.9172 C   0  0  0  0  0  0  0  0  0  0  0  0
   -8.8347   -3.8019  -29.9556 C   0  0  0  0  0  0  0  0  0  0  0  0
  -10.3584   -1.8959  -30.6232 C   0  0  0  0  0  0  0  0  0  0  0  0
  -10.9537   -1.7600  -32.0359 C   0  0  0  0  0  0  0  0  0  0  0  0
  -10.6201   -2.9853  -32.8177 N   0  0  0  0  0  0  0  0  0  0  0  0
   -9.6068   -3.0764  -32.8910 H   0  0  0  0  0  0  0  0  0  0  0  0
  -11.0234   -2.9130  -33.7517 H   0  0  0  0  0  0  0  0  0  0  0  0
   -9.2511    0.2711  -34.8184 C   0  0  0  0  0  0  0  0  0  0  0  0
   -9.8856   -0.7752  -34.0532 N   0  0  0  0  0  0  0  0  0  0  0  0
  -10.3730   -0.5319  -32.7880 C   0  0  0  0  0  0  0  0  0  0  0  0
  -10.3445    0.5865  -32.2710 O   0  0  0  0  0  0  0  0  0  0  0  0
   -9.9713   -1.6760  -34.4411 H   0  0  0  0  0  0  0  0  0  0  0  0
   -5.2045   -4.2982  -30.5338 O   0  0  0  0  0  0  0  0  0  0  0  0
   -4.1248   -3.3624  -30.4484 C   0  0  0  0  0  0  0  0  0  0  0  0
   -2.7615   -4.0219  -30.4199 C   0  0  0  0  0  0  0  0  0  0  0  0
   -1.6656   -3.3288  -29.8811 C   0  0  0  0  0  0  0  0  0  0  0  0
   -0.3912   -3.8998  -29.8836 C   0  0  0  0  0  0  0  0  0  0  0  0
   -0.1951   -5.1663  -30.4324 C   0  0  0  0  0  0  0  0  0  0  0  0
   -1.2716   -5.8596  -30.9827 C   0  0  0  0  0  0  0  0  0  0  0  0
   -2.5465   -5.2889  -30.9814 C   0  0  0  0  0  0  0  0  0  0  0  0
 12 13  1  0
 13 14  1  0
 14 15  2  0
 14  8  1  0
  8  9  1  0
  8  7  1  0
  7  1  1  0
  1  2  2  0
  2  3  1  0
  3  4  2  0
  4 17  1  0
 17 18  1  0
 18 19  1  0
 19 20  2  0
 20 21  1  0
 21 22  2  0
 22 23  1  0
 23 24  2  0
  4  5  1  0
  5  6  2  0
  6  1  1  0
 24 19  1  0
 13 16  1  0
  9 10  1  0
  9 11  1  0
M  END
> <minimizedAffinity>
-7.04902

> <CNNscore>
0.7684932947

> <CNNaffinity>
4.6974987984

> <CNN_VS>
3.6099963188

> <CNNaffinity_variance>
0.2938783467

$$$$



 24 25  0  0  0  0  0  0  0  0999 V2000
   -4.2135  -12.6404  -31.9848 C   0  0  0  0  0  0  0  0  0  0  0  0
   -2.9587  -12.0928  -31.6873 C   0  0  0  0  0  0  0  0  0  0  0  0
   -2.8496  -10.7658  -31.2671 C   0  0  0  0  0  0  0  0  0  0  0  0
   -3.9843   -9.9605  -31.1566 C   0  0  0  0  0  0  0  0  0  0  0  0
   -5.2371  -10.5029  -31.4353 C   0  0  0  0  0  0  0  0  0  0  0  0
   -5.3498  -11.8337  -31.8530 C   0  0  0  0  0  0  0  0  0  0  0  0
   -4.3332  -14.0742  -32.4424 C   0  0  0  0  0  0  0  0  0  0  0  0
   -5.7829  -14.5800  -32.5472 C   0  0  0  0  0  0  0  0  0  0  0  0
   -5.8689  -15.9267  -31.9126 N   0  0  0  0  0  0  0  0  0  0  0  0
   -5.2541  -16.5746  -32.4052 H   0  0  0  0  0  0  0  0  0  0  0  0
   -6.8298  -16.2653  -31.9623 H   0  0  0  0  0  0  0  0  0  0  0  0
   -6.3206  -16.1464  -36.0146 C   0  0  0  0  0  0  0  0  0  0  0  0
   -6.0101  -15.9306  -34.6219 N   0  0  0  0  0  0  0  0  0  0  0  0
   -6.2401  -14.7104  -34.0254 C   0  0  0  0  0  0  0  0  0  0  0  0
   -6.7659  -13.7696  -34.6231 O   0  0  0  0  0  0  0  0  0  0  0  0
   -5.6285  -16.6661  -34.0903 H   0  0  0  0  0  0  0  0  0  0  0  0
   -3.7463   -8.6810  -30.7360 O   0  0  0  0  0  0  0  0  0  0  0  0
   -3.1515   -7.7793  -31.6751 C   0  0  0  0  0  0  0  0  0  0  0  0
   -2.7735   -6.4446  -31.0668 C   0  0  0  0  0  0  0  0  0  0  0  0
   -3.7796   -5.5245  -30.7308 C   0  0  0  0  0  0  0  0  0  0  0  0
   -3.4524   -4.2711  -30.2091 C   0  0  0  0  0  0  0  0  0  0  0  0
   -2.1161   -3.9188  -30.0254 C   0  0  0  0  0  0  0  0  0  0  0  0
   -1.1071   -4.8173  -30.3675 C   0  0  0  0  0  0  0  0  0  0  0  0
   -1.4333   -6.0709  -30.8901 C   0  0  0  0  0  0  0  0  0  0  0  0
 12 13  1  0
 13 14  1  0
 14 15  2  0
 14  8  1  0
  8  9  1  0
  8  7  1  0
  7  1  1  0
  1  2  2  0
  2  3  1  0
  3  4  2  0
  4 17  1  0
 17 18  1  0
 18 19  1  0
 19 20  2  0
 20 21  1  0
 21 22  2  0
 22 23  1  0
 23 24  2  0
  4  5  1  0
  5  6  2  0
  6  1  1  0
 24 19  1  0
 13 16  1  0
  9 10  1  0
  9 11  1  0
M  END
> <minimizedAffinity>
-5.87773

> <CNNscore>
0.7600452900

> <CNNaffinity>
4.3001666069

> <CNN_VS>
3.2683212757

> <CNNaffinity_variance>
0.3267020881

$$$$



 24 25  0  0  0  0  0  0  0  0999 V2000
   -8.9007   -2.9289  -31.8362 C   0  0  0  0  0  0  0  0  0  0  0  0
   -8.5414   -4.0775  -31.1189 C   0  0  0  0  0  0  0  0  0  0  0  0
   -7.2600   -4.1998  -30.5783 C   0  0  0  0  0  0  0  0  0  0  0  0
   -6.3131   -3.1907  -30.7610 C   0  0  0  0  0  0  0  0  0  0  0  0
   -6.6684   -2.0385  -31.4594 C   0  0  0  0  0  0  0  0  0  0  0  0
   -7.9532   -1.9116  -31.9991 C   0  0  0  0  0  0  0  0  0  0  0  0
  -10.2850   -2.7963  -32.4242 C   0  0  0  0  0  0  0  0  0  0  0  0
  -10.3243   -2.0620  -33.7762 C   0  0  0  0  0  0  0  0  0  0  0  0
  -11.6042   -1.3032  -33.8738 N   0  0  0  0  0  0  0  0  0  0  0  0
  -12.3891   -1.9528  -33.8252 H   0  0  0  0  0  0  0  0  0  0  0  0
  -11.6342   -0.7995  -34.7602 H   0  0  0  0  0  0  0  0  0  0  0  0
  -10.6746   -3.3902  -37.3649 C   0  0  0  0  0  0  0  0  0  0  0  0
  -10.6233   -2.5448  -36.1964 N   0  0  0  0  0  0  0  0  0  0  0  0
  -10.2556   -3.0527  -34.9699 C   0  0  0  0  0  0  0  0  0  0  0  0
   -9.9027   -4.2235  -34.8167 O   0  0  0  0  0  0  0  0  0  0  0  0
  -10.8546   -1.5913  -36.2770 H   0  0  0  0  0  0  0  0  0  0  0  0
   -5.0962   -3.4285  -30.1837 O   0  0  0  0  0  0  0  0  0  0  0  0
   -4.4171   -4.6335  -30.5521 C   0  0  0  0  0  0  0  0  0  0  0  0
   -2.9120   -4.5397  -30.4110 C   0  0  0  0  0  0  0  0  0  0  0  0
   -2.3181   -3.3031  -30.1113 C   0  0  0  0  0  0  0  0  0  0  0  0
   -0.9297   -3.1841  -30.0193 C   0  0  0  0  0  0  0  0  0  0  0  0
   -0.1180   -4.2970  -30.2343 C   0  0  0  0  0  0  0  0  0  0  0  0
   -0.6938   -5.5273  -30.5458 C   0  0  0  0  0  0  0  0  0  0  0  0
   -2.0823   -5.6472  -30.6390 C   0  0  0  0  0  0  0  0  0  0  0  0
 12 13  1  0
 13 14  1  0
 14 15  2  0
 14  8  1  0
  8  9  1  0
  8  7  1  0
  7  1  1  0
  1  2  2  0
  2  3  1  0
  3  4  2  0
  4 17  1  0
 17 18  1  0
 18 19  1  0
 19 20  2  0
 20 21  1  0
 21 22  2  0
 22 23  1  0
 23 24  2  0
  4  5  1  0
  5  6  2  0
  6  1  1  0
 24 19  1  0
 13 16  1  0
  9 10  1  0
  9 11  1  0
M  END
> <minimizedAffinity>
-6.72287

> <CNNscore>
0.7430457473

> <CNNaffinity>
4.5616593361

> <CNN_VS>
3.3895215988

> <CNNaffinity_variance>
0.4299403429

$$$$
