


 19 20  0  0  0  0  0  0  0  0999 V2000
   61.3734   29.1802  105.9391 C   0  0  0  0  0  0  0  0  0  0  0  0
   61.6358   29.9431  107.0796 C   0  0  0  0  0  0  0  0  0  0  0  0
   61.8076   29.3366  108.3327 C   0  0  0  0  0  0  0  0  0  0  0  0
   61.7014   27.9278  108.3233 C   0  0  0  0  0  0  0  0  0  0  0  0
   62.0142   26.9559  109.7175 Cl  0  0  0  0  0  0  0  0  0  0  0  0
   61.4226   27.1579  107.2427 N   0  0  0  0  0  0  0  0  0  0  0  0
   61.2480   27.8017  106.0723 C   0  0  0  0  0  0  0  0  0  0  0  0
   60.8330   26.7198  104.5645 Br  0  0  0  0  0  0  0  0  0  0  0  0
   62.0625   30.1073  109.4743 N   0  0  0  0  0  0  0  0  0  0  0  0
   63.2539   30.9556  109.5105 C   0  0  0  0  0  0  0  0  0  0  0  0
   63.6729   31.3322  110.9285 C   0  0  0  0  0  0  0  0  0  0  0  0
   62.9503   32.5734  111.4476 C   0  0  0  0  0  0  0  0  0  0  0  0
   61.5459   32.3807  111.7905 N   0  0  0  0  0  0  0  0  0  0  0  0
   60.7231   31.8969  110.6755 C   0  0  0  0  0  0  0  0  0  0  0  0
   60.9131   30.4003  110.3528 C   0  0  0  0  0  0  0  0  0  0  0  0
   61.1667   33.2736  112.1058 H   0  0  0  0  0  0  0  0  0  0  0  0
   61.1666   29.8153  104.7442 O   0  0  0  0  0  0  0  0  0  0  0  0
   58.8101   30.0124  104.4186 C   0  0  0  0  0  0  0  0  0  0  0  0
   60.0734   30.7372  104.8443 C   0  0  0  0  0  0  0  0  0  0  0  0
 18 19  1  0
 19 17  1  0
 17  1  1  0
  1  2  2  0
  2  3  1  0
  3  9  1  0
  9 10  1  0
 10 11  1  0
 11 12  1  0
 12 13  1  0
 13 14  1  0
 14 15  1  0
  3  4  2  0
  4  5  1  0
  4  6  1  0
  6  7  2  0
  7  8  1  0
  7  1  1  0
 15  9  1  0
 13 16  1  0
M  END
> <minimizedAffinity>
-3.74352

> <CNNscore>
0.5830971599

> <CNNaffinity>
4.6411080360

> <CNN_VS>
2.7062168121

> <CNNaffinity_variance>
0.1630792022

$$$$



 19 20  0  0  0  0  0  0  0  0999 V2000
   61.2543   28.3574  105.8071 C   0  0  0  0  0  0  0  0  0  0  0  0
   62.0636   29.3553  106.3556 C   0  0  0  0  0  0  0  0  0  0  0  0
   62.4307   30.4830  105.6066 C   0  0  0  0  0  0  0  0  0  0  0  0
   61.9110   30.5108  104.2931 C   0  0  0  0  0  0  0  0  0  0  0  0
   62.1114   31.8625  103.2353 Cl  0  0  0  0  0  0  0  0  0  0  0  0
   61.1455   29.5500  103.7196 N   0  0  0  0  0  0  0  0  0  0  0  0
   60.8446   28.4823  104.4840 C   0  0  0  0  0  0  0  0  0  0  0  0
   59.7912   27.1260  103.6674 Br  0  0  0  0  0  0  0  0  0  0  0  0
   63.2491   31.4765  106.1593 N   0  0  0  0  0  0  0  0  0  0  0  0
   64.6529   31.5506  105.7545 C   0  0  0  0  0  0  0  0  0  0  0  0
   65.5211   32.3079  106.7548 C   0  0  0  0  0  0  0  0  0  0  0  0
   65.5220   33.8158  106.5130 C   0  0  0  0  0  0  0  0  0  0  0  0
   64.2923   34.5080  106.8815 N   0  0  0  0  0  0  0  0  0  0  0  0
   63.0990   34.0095  106.1873 C   0  0  0  0  0  0  0  0  0  0  0  0
   62.5732   32.6616  106.7227 C   0  0  0  0  0  0  0  0  0  0  0  0
   64.4023   35.4978  106.6609 H   0  0  0  0  0  0  0  0  0  0  0  0
   60.9577   27.2512  106.5569 O   0  0  0  0  0  0  0  0  0  0  0  0
   61.5041   26.9468  108.8605 C   0  0  0  0  0  0  0  0  0  0  0  0
   62.0406   26.9346  107.4411 C   0  0  0  0  0  0  0  0  0  0  0  0
 18 19  1  0
 19 17  1  0
 17  1  1  0
  1  2  2  0
  2  3  1  0
  3  9  1  0
  9 10  1  0
 10 11  1  0
 11 12  1  0
 12 13  1  0
 13 14  1  0
 14 15  1  0
  3  4  2  0
  4  5  1  0
  4  6  1  0
  6  7  2  0
  7  8  1  0
  7  1  1  0
 15  9  1  0
 13 16  1  0
M  END
> <minimizedAffinity>
-4.17358

> <CNNscore>
0.5159060359

> <CNNaffinity>
4.0156359673

> <CNN_VS>
2.0716907978

> <CNNaffinity_variance>
0.5593256950

$$$$



 19 20  0  0  0  0  0  0  0  0999 V2000
   61.3312   28.4077  105.9361 C   0  0  0  0  0  0  0  0  0  0  0  0
   62.1924   29.3779  106.4542 C   0  0  0  0  0  0  0  0  0  0  0  0
   62.6130   30.4644  105.6729 C   0  0  0  0  0  0  0  0  0  0  0  0
   62.0897   30.4822  104.3608 C   0  0  0  0  0  0  0  0  0  0  0  0
   62.3539   31.7920  103.2650 Cl  0  0  0  0  0  0  0  0  0  0  0  0
   61.2739   29.5460  103.8165 N   0  0  0  0  0  0  0  0  0  0  0  0
   60.9226   28.5166  104.6113 C   0  0  0  0  0  0  0  0  0  0  0  0
   59.7982   27.1935  103.8360 Br  0  0  0  0  0  0  0  0  0  0  0  0
   63.4832   31.4299  106.1953 N   0  0  0  0  0  0  0  0  0  0  0  0
   62.9367   32.7032  106.6643 C   0  0  0  0  0  0  0  0  0  0  0  0
   63.9836   33.8111  106.7315 C   0  0  0  0  0  0  0  0  0  0  0  0
   64.7504   33.8194  108.0522 C   0  0  0  0  0  0  0  0  0  0  0  0
   65.7157   32.7392  108.2206 N   0  0  0  0  0  0  0  0  0  0  0  0
   65.1281   31.3975  108.1273 C   0  0  0  0  0  0  0  0  0  0  0  0
   64.7903   30.9539  106.6889 C   0  0  0  0  0  0  0  0  0  0  0  0
   66.1501   32.8366  109.1383 H   0  0  0  0  0  0  0  0  0  0  0  0
   60.9820   27.3393  106.7174 O   0  0  0  0  0  0  0  0  0  0  0  0
   61.6935   26.9799  108.9674 C   0  0  0  0  0  0  0  0  0  0  0  0
   62.0969   26.9043  107.5065 C   0  0  0  0  0  0  0  0  0  0  0  0
 18 19  1  0
 19 17  1  0
 17  1  1  0
  1  2  2  0
  2  3  1  0
  3  9  1  0
  9 10  1  0
 10 11  1  0
 11 12  1  0
 12 13  1  0
 13 14  1  0
 14 15  1  0
  3  4  2  0
  4  5  1  0
  4  6  1  0
  6  7  2  0
  7  8  1  0
  7  1  1  0
 15  9  1  0
 13 16  1  0
M  END
> <minimizedAffinity>
-4.24139

> <CNNscore>
0.4980307519

> <CNNaffinity>
4.0521264076

> <CNN_VS>
2.0180835724

> <CNNaffinity_variance>
0.6887122989

$$$$



 19 20  0  0  0  0  0  0  0  0999 V2000
   59.3585   27.8463  105.3035 C   0  0  0  0  0  0  0  0  0  0  0  0
   58.4940   28.2240  106.3338 C   0  0  0  0  0  0  0  0  0  0  0  0
   58.9043   28.1843  107.6745 C   0  0  0  0  0  0  0  0  0  0  0  0
   60.2339   27.7484  107.8696 C   0  0  0  0  0  0  0  0  0  0  0  0
   61.0031   27.7519  109.4170 Cl  0  0  0  0  0  0  0  0  0  0  0  0
   61.0915   27.3501  106.8979 N   0  0  0  0  0  0  0  0  0  0  0  0
   60.6309   27.3918  105.6326 C   0  0  0  0  0  0  0  0  0  0  0  0
   61.8288   26.8091  104.2757 Br  0  0  0  0  0  0  0  0  0  0  0  0
   58.0303   28.5565  108.7040 N   0  0  0  0  0  0  0  0  0  0  0  0
   58.3257   29.7529  109.4925 C   0  0  0  0  0  0  0  0  0  0  0  0
   57.6151   29.7658  110.8426 C   0  0  0  0  0  0  0  0  0  0  0  0
   56.2039   30.3439  110.7616 C   0  0  0  0  0  0  0  0  0  0  0  0
   55.2140   29.4868  110.1193 N   0  0  0  0  0  0  0  0  0  0  0  0
   55.5551   29.1147  108.7411 C   0  0  0  0  0  0  0  0  0  0  0  0
   56.6514   28.0349  108.6309 C   0  0  0  0  0  0  0  0  0  0  0  0
   54.3213   29.9802  110.1072 H   0  0  0  0  0  0  0  0  0  0  0  0
   58.9031   27.8559  104.0127 O   0  0  0  0  0  0  0  0  0  0  0  0
   58.1929   26.3500  102.3022 C   0  0  0  0  0  0  0  0  0  0  0  0
   59.2594   26.6402  103.3419 C   0  0  0  0  0  0  0  0  0  0  0  0
 18 19  1  0
 19 17  1  0
 17  1  1  0
  1  2  2  0
  2  3  1  0
  3  9  1  0
  9 10  1  0
 10 11  1  0
 11 12  1  0
 12 13  1  0
 13 14  1  0
 14 15  1  0
  3  4  2  0
  4  5  1  0
  4  6  1  0
  6  7  2  0
  7  8  1  0
  7  1  1  0
 15  9  1  0
 13 16  1  0
M  END
> <minimizedAffinity>
-4.56528

> <CNNscore>
0.4751299322

> <CNNaffinity>
5.1350054741

> <CNN_VS>
2.4397947788

> <CNNaffinity_variance>
0.3030065596

$$$$



 19 20  0  0  0  0  0  0  0  0999 V2000
   59.4260   27.9684  106.9916 C   0  0  0  0  0  0  0  0  0  0  0  0
   58.2485   28.6827  107.2257 C   0  0  0  0  0  0  0  0  0  0  0  0
   58.0148   29.3095  108.4586 C   0  0  0  0  0  0  0  0  0  0  0  0
   59.0561   29.1585  109.4014 C   0  0  0  0  0  0  0  0  0  0  0  0
   59.0549   29.9572  110.9338 Cl  0  0  0  0  0  0  0  0  0  0  0  0
   60.1989   28.4523  109.2187 N   0  0  0  0  0  0  0  0  0  0  0  0
   60.3548   27.8565  108.0205 C   0  0  0  0  0  0  0  0  0  0  0  0
   61.9478   26.8470  107.7776 Br  0  0  0  0  0  0  0  0  0  0  0  0
   56.8286   30.0177  108.6904 N   0  0  0  0  0  0  0  0  0  0  0  0
   55.7616   29.3866  109.4671 C   0  0  0  0  0  0  0  0  0  0  0  0
   54.3958   30.0234  109.2285 C   0  0  0  0  0  0  0  0  0  0  0  0
   54.1411   31.2295  110.1300 C   0  0  0  0  0  0  0  0  0  0  0  0
   54.8901   32.4335  109.7887 N   0  0  0  0  0  0  0  0  0  0  0  0
   56.3463   32.2496  109.7973 C   0  0  0  0  0  0  0  0  0  0  0  0
   56.8943   31.4876  108.5730 C   0  0  0  0  0  0  0  0  0  0  0  0
   54.6541   33.1608  110.4638 H   0  0  0  0  0  0  0  0  0  0  0  0
   59.5939   27.3332  105.7907 O   0  0  0  0  0  0  0  0  0  0  0  0
   61.0841   27.5936  103.9442 C   0  0  0  0  0  0  0  0  0  0  0  0
   60.0093   28.2622  104.7812 C   0  0  0  0  0  0  0  0  0  0  0  0
 18 19  1  0
 19 17  1  0
 17  1  1  0
  1  2  2  0
  2  3  1  0
  3  9  1  0
  9 10  1  0
 10 11  1  0
 11 12  1  0
 12 13  1  0
 13 14  1  0
 14 15  1  0
  3  4  2  0
  4  5  1  0
  4  6  1  0
  6  7  2  0
  7  8  1  0
  7  1  1  0
 15  9  1  0
 13 16  1  0
M  END
> <minimizedAffinity>
-4.29587

> <CNNscore>
0.4715923369

> <CNNaffinity>
4.8662304878

> <CNN_VS>
2.2948770523

> <CNNaffinity_variance>
0.0175784137

$$$$



 19 20  0  0  0  0  0  0  0  0999 V2000
   61.1911   28.4560  105.8936 C   0  0  0  0  0  0  0  0  0  0  0  0
   61.5316   29.4831  105.0100 C   0  0  0  0  0  0  0  0  0  0  0  0
   62.5323   30.4122  105.3308 C   0  0  0  0  0  0  0  0  0  0  0  0
   63.1444   30.2063  106.5873 C   0  0  0  0  0  0  0  0  0  0  0  0
   64.4943   31.1360  107.1349 Cl  0  0  0  0  0  0  0  0  0  0  0  0
   62.8228   29.2381  107.4802 N   0  0  0  0  0  0  0  0  0  0  0  0
   61.8396   28.3898  107.1220 C   0  0  0  0  0  0  0  0  0  0  0  0
   61.3753   27.0487  108.3877 Br  0  0  0  0  0  0  0  0  0  0  0  0
   62.8638   31.4449  104.4443 N   0  0  0  0  0  0  0  0  0  0  0  0
   64.0982   31.3471  103.6653 C   0  0  0  0  0  0  0  0  0  0  0  0
   64.5819   32.6976  103.1455 C   0  0  0  0  0  0  0  0  0  0  0  0
   63.9421   33.0809  101.8129 C   0  0  0  0  0  0  0  0  0  0  0  0
   62.5414   33.4809  101.8848 N   0  0  0  0  0  0  0  0  0  0  0  0
   61.6589   32.4545  102.4522 C   0  0  0  0  0  0  0  0  0  0  0  0
   61.7602   32.3108  103.9849 C   0  0  0  0  0  0  0  0  0  0  0  0
   62.2197   33.6952  100.9409 H   0  0  0  0  0  0  0  0  0  0  0  0
   60.1772   27.5984  105.5615 O   0  0  0  0  0  0  0  0  0  0  0  0
   59.4486   26.8595  103.4118 C   0  0  0  0  0  0  0  0  0  0  0  0
   60.5537   26.7774  104.4485 C   0  0  0  0  0  0  0  0  0  0  0  0
 18 19  1  0
 19 17  1  0
 17  1  1  0
  1  2  2  0
  2  3  1  0
  3  9  1  0
  9 10  1  0
 10 11  1  0
 11 12  1  0
 12 13  1  0
 13 14  1  0
 14 15  1  0
  3  4  2  0
  4  5  1  0
  4  6  1  0
  6  7  2  0
  7  8  1  0
  7  1  1  0
 15  9  1  0
 13 16  1  0
M  END
> <minimizedAffinity>
-4.35738

> <CNNscore>
0.4321242869

> <CNNaffinity>
4.5248723030

> <CNN_VS>
1.9553072453

> <CNNaffinity_variance>
0.3421025276

$$$$



 19 20  0  0  0  0  0  0  0  0999 V2000
   57.4798   28.9120  109.9521 C   0  0  0  0  0  0  0  0  0  0  0  0
   58.6687   29.2824  110.5852 C   0  0  0  0  0  0  0  0  0  0  0  0
   59.9129   29.0582  109.9776 C   0  0  0  0  0  0  0  0  0  0  0  0
   59.8441   28.4507  108.7040 C   0  0  0  0  0  0  0  0  0  0  0  0
   61.2341   28.2057  107.7070 Cl  0  0  0  0  0  0  0  0  0  0  0  0
   58.7123   28.0548  108.0712 N   0  0  0  0  0  0  0  0  0  0  0  0
   57.5508   28.2792  108.7159 C   0  0  0  0  0  0  0  0  0  0  0  0
   55.9680   27.7001  107.8353 Br  0  0  0  0  0  0  0  0  0  0  0  0
   61.1022   29.4244  110.6209 N   0  0  0  0  0  0  0  0  0  0  0  0
   61.6774   30.7438  110.3591 C   0  0  0  0  0  0  0  0  0  0  0  0
   63.1618   30.8242  110.7026 C   0  0  0  0  0  0  0  0  0  0  0  0
   63.4107   31.1666  112.1699 C   0  0  0  0  0  0  0  0  0  0  0  0
   63.1318   30.0936  113.1175 N   0  0  0  0  0  0  0  0  0  0  0  0
   61.7499   29.6016  113.0680 C   0  0  0  0  0  0  0  0  0  0  0  0
   61.4446   28.6951  111.8577 C   0  0  0  0  0  0  0  0  0  0  0  0
   63.3159   30.4404  114.0589 H   0  0  0  0  0  0  0  0  0  0  0  0
   56.2898   29.1067  110.5999 O   0  0  0  0  0  0  0  0  0  0  0  0
   56.8003   31.2511  109.6838 C   0  0  0  0  0  0  0  0  0  0  0  0
   55.6957   30.3496  110.2033 C   0  0  0  0  0  0  0  0  0  0  0  0
 18 19  1  0
 19 17  1  0
 17  1  1  0
  1  2  2  0
  2  3  1  0
  3  9  1  0
  9 10  1  0
 10 11  1  0
 11 12  1  0
 12 13  1  0
 13 14  1  0
 14 15  1  0
  3  4  2  0
  4  5  1  0
  4  6  1  0
  6  7  2  0
  7  8  1  0
  7  1  1  0
 15  9  1  0
 13 16  1  0
M  END
> <minimizedAffinity>
-4.02401

> <CNNscore>
0.4304248691

> <CNNaffinity>
4.2952713966

> <CNN_VS>
1.8487915993

> <CNNaffinity_variance>
0.3902368546

$$$$



 19 20  0  0  0  0  0  0  0  0999 V2000
   59.3978   28.3312  106.8762 C   0  0  0  0  0  0  0  0  0  0  0  0
   60.0063   28.6084  108.1028 C   0  0  0  0  0  0  0  0  0  0  0  0
   61.3218   29.0909  108.1659 C   0  0  0  0  0  0  0  0  0  0  0  0
   61.9430   29.2702  106.9098 C   0  0  0  0  0  0  0  0  0  0  0  0
   63.5064   29.9845  106.7317 Cl  0  0  0  0  0  0  0  0  0  0  0  0
   61.3937   28.9879  105.7028 N   0  0  0  0  0  0  0  0  0  0  0  0
   60.1350   28.5080  105.7103 C   0  0  0  0  0  0  0  0  0  0  0  0
   59.3778   28.0905  104.0167 Br  0  0  0  0  0  0  0  0  0  0  0  0
   61.9295   29.3594  109.3992 N   0  0  0  0  0  0  0  0  0  0  0  0
   62.1852   30.7483  109.7808 C   0  0  0  0  0  0  0  0  0  0  0  0
   63.2576   30.8814  110.8579 C   0  0  0  0  0  0  0  0  0  0  0  0
   62.6945   30.7486  112.2713 C   0  0  0  0  0  0  0  0  0  0  0  0
   62.3046   29.3992  112.6639 N   0  0  0  0  0  0  0  0  0  0  0  0
   61.2918   28.7955  111.7897 C   0  0  0  0  0  0  0  0  0  0  0  0
   61.8381   28.3085  110.4317 C   0  0  0  0  0  0  0  0  0  0  0  0
   61.9300   29.4360  113.6119 H   0  0  0  0  0  0  0  0  0  0  0  0
   58.1289   27.8181  106.8613 O   0  0  0  0  0  0  0  0  0  0  0  0
   56.0266   27.6523  107.9798 C   0  0  0  0  0  0  0  0  0  0  0  0
   57.4962   27.9972  108.1350 C   0  0  0  0  0  0  0  0  0  0  0  0
 18 19  1  0
 19 17  1  0
 17  1  1  0
  1  2  2  0
  2  3  1  0
  3  9  1  0
  9 10  1  0
 10 11  1  0
 11 12  1  0
 12 13  1  0
 13 14  1  0
 14 15  1  0
  3  4  2  0
  4  5  1  0
  4  6  1  0
  6  7  2  0
  7  8  1  0
  7  1  1  0
 15  9  1  0
 13 16  1  0
M  END
> <minimizedAffinity>
-4.53490

> <CNNscore>
0.3717454076

> <CNNaffinity>
4.3470721245

> <CNN_VS>
1.6160041094

> <CNNaffinity_variance>
0.3316764534

$$$$



 19 20  0  0  0  0  0  0  0  0999 V2000
   59.6640   28.0047  107.7083 C   0  0  0  0  0  0  0  0  0  0  0  0
   58.7651   28.7199  108.5034 C   0  0  0  0  0  0  0  0  0  0  0  0
   59.1086   29.1217  109.8027 C   0  0  0  0  0  0  0  0  0  0  0  0
   60.4106   28.7515  110.2074 C   0  0  0  0  0  0  0  0  0  0  0  0
   61.1038   29.2564  111.7076 Cl  0  0  0  0  0  0  0  0  0  0  0  0
   61.2989   28.0366  109.4739 N   0  0  0  0  0  0  0  0  0  0  0  0
   60.9016   27.6627  108.2422 C   0  0  0  0  0  0  0  0  0  0  0  0
   62.1417   26.6394  107.2267 Br  0  0  0  0  0  0  0  0  0  0  0  0
   58.2001   29.8315  110.5983 N   0  0  0  0  0  0  0  0  0  0  0  0
   58.3112   31.2878  110.6812 C   0  0  0  0  0  0  0  0  0  0  0  0
   57.6256   31.8674  111.9149 C   0  0  0  0  0  0  0  0  0  0  0  0
   56.1393   32.1382  111.6919 C   0  0  0  0  0  0  0  0  0  0  0  0
   55.2904   30.9536  111.6348 N   0  0  0  0  0  0  0  0  0  0  0  0
   55.6683   30.0020  110.5832 C   0  0  0  0  0  0  0  0  0  0  0  0
   56.9213   29.1635  110.9101 C   0  0  0  0  0  0  0  0  0  0  0  0
   54.3303   31.2542  111.4663 H   0  0  0  0  0  0  0  0  0  0  0  0
   59.2720   27.5920  106.4634 O   0  0  0  0  0  0  0  0  0  0  0  0
   59.9945   27.9791  104.2215 C   0  0  0  0  0  0  0  0  0  0  0  0
   59.4876   28.6278  105.4962 C   0  0  0  0  0  0  0  0  0  0  0  0
 18 19  1  0
 19 17  1  0
 17  1  1  0
  1  2  2  0
  2  3  1  0
  3  9  1  0
  9 10  1  0
 10 11  1  0
 11 12  1  0
 12 13  1  0
 13 14  1  0
 14 15  1  0
  3  4  2  0
  4  5  1  0
  4  6  1  0
  6  7  2  0
  7  8  1  0
  7  1  1  0
 15  9  1  0
 13 16  1  0
M  END
> <minimizedAffinity>
-4.34372

> <CNNscore>
0.3335475326

> <CNNaffinity>
4.5475373268

> <CNN_VS>
1.5168198347

> <CNNaffinity_variance>
0.1416532397

$$$$
