


 42 45  0  0  0  0  0  0  0  0999 V2000
   -0.2824   19.4777   17.9954 C   0  0  0  0  0  0  0  0  0  0  0  0
    1.8134   21.0187   15.0968 C   0  0  0  0  0  0  0  0  0  0  0  0
    1.4327   21.1669   13.6124 C   0  0  0  0  0  0  0  0  0  0  0  0
    0.2266   22.0728   13.3936 C   0  0  0  0  0  0  0  0  0  0  0  0
   -0.9526   21.5826   14.2175 C   0  0  0  0  0  0  0  0  0  0  0  0
   -0.5890   21.4492   15.6904 C   0  0  0  0  0  0  0  0  0  0  0  0
    0.6279   20.6572   15.9157 N   0  0  0  0  0  0  0  0  0  0  0  0
    0.8835   19.9871   17.1153 C   0  0  0  0  0  0  0  0  0  0  0  0
    2.0533   19.7462   17.4508 O   0  0  0  0  0  0  0  0  0  0  0  0
    2.5409   22.2780   15.6665 C   0  0  0  0  0  0  0  0  0  0  0  0
    4.5243   20.8866   15.1118 C   0  0  0  0  0  0  0  0  0  0  0  0
    4.0846   22.2937   15.5300 N   0  0  0  0  0  0  0  0  0  0  0  0
    4.7838   22.6457   16.8294 C   0  0  0  0  0  0  0  0  0  0  0  0
    4.5216   23.2670   14.4347 C   0  0  0  0  0  0  0  0  0  0  0  0
   -0.9600   20.7016   18.4661 N   0  0  0  0  0  0  0  0  0  0  0  0
   -1.2557   21.2090   17.6321 H   0  0  0  0  0  0  0  0  0  0  0  0
   -2.2899   20.6120   19.4629 S   0  0  0  0  0  0  0  0  0  0  0  0
   -2.3772   21.8779   20.1526 O   0  0  0  0  0  0  0  0  0  0  0  0
   -2.2027   19.3475   20.1520 O   0  0  0  0  0  0  0  0  0  0  0  0
   -3.6316   20.5100   18.3068 C   0  0  0  0  0  0  0  0  0  0  0  0
   -4.5504   19.4632   18.3972 C   0  0  0  0  0  0  0  0  0  0  0  0
   -5.6160   19.4078   17.4982 C   0  0  0  0  0  0  0  0  0  0  0  0
   -5.7726   20.3950   16.5113 C   0  0  0  0  0  0  0  0  0  0  0  0
   -6.8472   20.3536   15.6108 C   0  0  0  0  0  0  0  0  0  0  0  0
   -6.9887   21.3345   14.6274 C   0  0  0  0  0  0  0  0  0  0  0  0
   -6.0603   22.3658   14.5320 C   0  0  0  0  0  0  0  0  0  0  0  0
   -4.9847   22.4224   15.4200 C   0  0  0  0  0  0  0  0  0  0  0  0
   -4.8272   21.4473   16.4161 C   0  0  0  0  0  0  0  0  0  0  0  0
   -3.7549   21.4917   17.3191 C   0  0  0  0  0  0  0  0  0  0  0  0
   -1.2821   18.6642   17.1611 C   0  0  0  0  0  0  0  0  0  0  0  0
   -1.1767   17.1709   17.3695 C   0  0  0  0  0  0  0  0  0  0  0  0
   -0.5587   16.6562   18.5173 C   0  0  0  0  0  0  0  0  0  0  0  0
   -0.4528   15.2772   18.7105 C   0  0  0  0  0  0  0  0  0  0  0  0
   -0.9686   14.3936   17.7619 C   0  0  0  0  0  0  0  0  0  0  0  0
   -1.5843   14.8970   16.6145 C   0  0  0  0  0  0  0  0  0  0  0  0
   -1.6775   16.2788   16.4108 C   0  0  0  0  0  0  0  0  0  0  0  0
   -2.1702   13.9662   15.6170 C   0  0  0  0  0  0  0  0  0  0  0  0
   -3.2160   14.2855   14.9217 N   0  0  0  0  0  0  0  0  0  0  0  0
   -1.6314   12.7438   15.4067 N   0  0  0  0  0  0  0  0  0  0  0  0
   -3.6387   15.1661   15.0445 H   0  0  0  0  0  0  0  0  0  0  0  0
   -0.8363   12.4623   15.9145 H   0  0  0  0  0  0  0  0  0  0  0  0
   -2.0342   12.1354   14.7458 H   0  0  0  0  0  0  0  0  0  0  0  0
 11 12  1  0
 12 13  1  0
 12 14  1  0
 12 10  1  0
  2 10  1  0
  2  3  1  0
  3  4  1  0
  4  5  1  0
  5  6  1  0
  6  7  1  0
  7  8  1  0
  8  9  2  0
  8  1  1  0
  1 30  1  0
 30 31  1  0
 31 32  2  0
 32 33  1  0
 33 34  2  0
 34 35  1  0
 35 37  1  0
 37 38  2  0
 37 39  1  0
 35 36  2  0
  1 15  1  0
 15 17  1  0
 17 18  2  0
 17 19  2  0
 17 20  1  0
 20 21  2  0
 21 22  1  0
 22 23  2  0
 23 24  1  0
 24 25  2  0
 25 26  1  0
 26 27  2  0
 27 28  1  0
 28 29  2  0
  7  2  1  0
 36 31  1  0
 29 20  1  0
 28 23  1  0
 38 40  1  0
 39 41  1  0
 39 42  1  0
 15 16  1  0
M  CHG 1  12   1
M  END
> <minimizedAffinity>
-7.20020

> <CNNscore>
0.8620448709

> <CNNaffinity>
7.6405968666

> <CNN_VS>
6.5865373611

> <CNNaffinity_variance>
0.1583992988

$$$$



 42 45  0  0  0  0  0  0  0  0999 V2000
   -1.9749   18.6470   17.0004 C   0  0  0  0  0  0  0  0  0  0  0  0
   -5.1928   20.8377   16.8792 C   0  0  0  0  0  0  0  0  0  0  0  0
   -5.3064   22.3681   16.7559 C   0  0  0  0  0  0  0  0  0  0  0  0
   -4.7370   22.9051   15.4480 C   0  0  0  0  0  0  0  0  0  0  0  0
   -3.2991   22.4445   15.2750 C   0  0  0  0  0  0  0  0  0  0  0  0
   -3.1804   20.9298   15.3789 C   0  0  0  0  0  0  0  0  0  0  0  0
   -3.8088   20.3827   16.5891 N   0  0  0  0  0  0  0  0  0  0  0  0
   -3.4241   19.1650   17.1572 C   0  0  0  0  0  0  0  0  0  0  0  0
   -4.2331   18.5204   17.8421 O   0  0  0  0  0  0  0  0  0  0  0  0
   -6.2408   20.0779   16.0051 C   0  0  0  0  0  0  0  0  0  0  0  0
   -8.3457   18.7692   15.8198 C   0  0  0  0  0  0  0  0  0  0  0  0
   -7.6216   19.8251   16.6618 N   0  0  0  0  0  0  0  0  0  0  0  0
   -8.4846   21.0718   16.7091 C   0  0  0  0  0  0  0  0  0  0  0  0
   -7.4549   19.2652   18.0749 C   0  0  0  0  0  0  0  0  0  0  0  0
   -1.1534   19.8654   16.8624 N   0  0  0  0  0  0  0  0  0  0  0  0
   -1.6838   20.6236   17.2916 H   0  0  0  0  0  0  0  0  0  0  0  0
    0.3810   19.9382   17.5033 S   0  0  0  0  0  0  0  0  0  0  0  0
    0.7897   18.5762   17.7562 O   0  0  0  0  0  0  0  0  0  0  0  0
    0.3501   20.9515   18.5298 O   0  0  0  0  0  0  0  0  0  0  0  0
    1.3356   20.5670   16.1467 C   0  0  0  0  0  0  0  0  0  0  0  0
    0.7020   21.2485   15.1064 C   0  0  0  0  0  0  0  0  0  0  0  0
    1.4665   21.7608   14.0576 C   0  0  0  0  0  0  0  0  0  0  0  0
    2.8619   21.6006   14.0437 C   0  0  0  0  0  0  0  0  0  0  0  0
    3.6395   22.1223   12.9993 C   0  0  0  0  0  0  0  0  0  0  0  0
    5.0248   21.9495   12.9899 C   0  0  0  0  0  0  0  0  0  0  0  0
    5.6483   21.2550   14.0211 C   0  0  0  0  0  0  0  0  0  0  0  0
    4.8899   20.7291   15.0683 C   0  0  0  0  0  0  0  0  0  0  0  0
    3.4971   20.8945   15.0963 C   0  0  0  0  0  0  0  0  0  0  0  0
    2.7206   20.3765   16.1432 C   0  0  0  0  0  0  0  0  0  0  0  0
   -1.5215   17.9009   18.2635 C   0  0  0  0  0  0  0  0  0  0  0  0
   -1.3308   16.4156   18.0584 C   0  0  0  0  0  0  0  0  0  0  0  0
   -0.6897   15.6407   19.0344 C   0  0  0  0  0  0  0  0  0  0  0  0
   -0.5052   14.2694   18.8459 C   0  0  0  0  0  0  0  0  0  0  0  0
   -0.9644   13.6526   17.6817 C   0  0  0  0  0  0  0  0  0  0  0  0
   -1.6026   14.4167   16.7029 C   0  0  0  0  0  0  0  0  0  0  0  0
   -1.7745   15.7943   16.8824 C   0  0  0  0  0  0  0  0  0  0  0  0
   -2.1287   13.7642   15.4774 C   0  0  0  0  0  0  0  0  0  0  0  0
   -3.0422   14.3238   14.7482 N   0  0  0  0  0  0  0  0  0  0  0  0
   -1.6733   12.5528   15.0848 N   0  0  0  0  0  0  0  0  0  0  0  0
   -3.4006   15.2057   14.9992 H   0  0  0  0  0  0  0  0  0  0  0  0
   -0.9794   12.0936   15.6109 H   0  0  0  0  0  0  0  0  0  0  0  0
   -2.0357   12.1302   14.2728 H   0  0  0  0  0  0  0  0  0  0  0  0
 11 12  1  0
 12 13  1  0
 12 14  1  0
 12 10  1  0
  2 10  1  0
  2  3  1  0
  3  4  1  0
  4  5  1  0
  5  6  1  0
  6  7  1  0
  7  8  1  0
  8  9  2  0
  8  1  1  0
  1 30  1  0
 30 31  1  0
 31 32  2  0
 32 33  1  0
 33 34  2  0
 34 35  1  0
 35 37  1  0
 37 38  2  0
 37 39  1  0
 35 36  2  0
  1 15  1  0
 15 17  1  0
 17 18  2  0
 17 19  2  0
 17 20  1  0
 20 21  2  0
 21 22  1  0
 22 23  2  0
 23 24  1  0
 24 25  2  0
 25 26  1  0
 26 27  2  0
 27 28  1  0
 28 29  2  0
  7  2  1  0
 36 31  1  0
 29 20  1  0
 28 23  1  0
 38 40  1  0
 39 41  1  0
 39 42  1  0
 15 16  1  0
M  CHG 1  12   1
M  END
> <minimizedAffinity>
-9.01605

> <CNNscore>
0.8290659189

> <CNNaffinity>
7.3308854103

> <CNN_VS>
6.0777873993

> <CNNaffinity_variance>
0.2854495347

$$$$



 42 45  0  0  0  0  0  0  0  0999 V2000
   -1.9866   18.8930   17.2348 C   0  0  0  0  0  0  0  0  0  0  0  0
   -5.0846   21.2520   17.3152 C   0  0  0  0  0  0  0  0  0  0  0  0
   -5.9896   21.6053   18.5095 C   0  0  0  0  0  0  0  0  0  0  0  0
   -5.2477   22.3308   19.6259 C   0  0  0  0  0  0  0  0  0  0  0  0
   -4.0440   21.5162   20.0699 C   0  0  0  0  0  0  0  0  0  0  0  0
   -3.1345   21.1766   18.8966 C   0  0  0  0  0  0  0  0  0  0  0  0
   -3.8501   20.5621   17.7700 N   0  0  0  0  0  0  0  0  0  0  0  0
   -3.2219   19.7343   16.8354 C   0  0  0  0  0  0  0  0  0  0  0  0
   -3.6909   19.6269   15.6919 O   0  0  0  0  0  0  0  0  0  0  0  0
   -4.7536   22.4863   16.4171 C   0  0  0  0  0  0  0  0  0  0  0  0
   -4.5891   22.5798   13.9389 C   0  0  0  0  0  0  0  0  0  0  0  0
   -5.5761   22.6191   15.1104 N   0  0  0  0  0  0  0  0  0  0  0  0
   -6.3525   23.9202   15.0368 C   0  0  0  0  0  0  0  0  0  0  0  0
   -6.5379   21.4407   14.9537 C   0  0  0  0  0  0  0  0  0  0  0  0
   -1.0121   19.8764   17.7465 N   0  0  0  0  0  0  0  0  0  0  0  0
   -0.8236   19.6213   18.7160 H   0  0  0  0  0  0  0  0  0  0  0  0
    0.4684   20.0736   17.0118 S   0  0  0  0  0  0  0  0  0  0  0  0
    0.3848   21.2844   16.2290 O   0  0  0  0  0  0  0  0  0  0  0  0
    0.8190   18.7947   16.4437 O   0  0  0  0  0  0  0  0  0  0  0  0
    1.5456   20.3705   18.3897 C   0  0  0  0  0  0  0  0  0  0  0  0
    1.3475   19.6841   19.5888 C   0  0  0  0  0  0  0  0  0  0  0  0
    2.2167   19.9070   20.6572 C   0  0  0  0  0  0  0  0  0  0  0  0
    3.2867   20.8087   20.5339 C   0  0  0  0  0  0  0  0  0  0  0  0
    4.1722   21.0303   21.5988 C   0  0  0  0  0  0  0  0  0  0  0  0
    5.2270   21.9357   21.4694 C   0  0  0  0  0  0  0  0  0  0  0  0
    5.4092   22.6290   20.2774 C   0  0  0  0  0  0  0  0  0  0  0  0
    4.5373   22.4207   19.2074 C   0  0  0  0  0  0  0  0  0  0  0  0
    3.4731   21.5134   19.3178 C   0  0  0  0  0  0  0  0  0  0  0  0
    2.5906   21.2888   18.2511 C   0  0  0  0  0  0  0  0  0  0  0  0
   -2.3319   17.9207   18.3719 C   0  0  0  0  0  0  0  0  0  0  0  0
   -1.8513   16.5078   18.1324 C   0  0  0  0  0  0  0  0  0  0  0  0
   -1.0465   15.8614   19.0804 C   0  0  0  0  0  0  0  0  0  0  0  0
   -0.5945   14.5587   18.8600 C   0  0  0  0  0  0  0  0  0  0  0  0
   -0.9455   13.8819   17.6915 C   0  0  0  0  0  0  0  0  0  0  0  0
   -1.7453   14.5183   16.7405 C   0  0  0  0  0  0  0  0  0  0  0  0
   -2.1865   15.8299   16.9518 C   0  0  0  0  0  0  0  0  0  0  0  0
   -2.1561   13.7940   15.5111 C   0  0  0  0  0  0  0  0  0  0  0  0
   -1.6251   12.6588   15.1817 N   0  0  0  0  0  0  0  0  0  0  0  0
   -3.0988   14.3038   14.6864 N   0  0  0  0  0  0  0  0  0  0  0  0
   -0.9351   12.2533   15.7550 H   0  0  0  0  0  0  0  0  0  0  0  0
   -3.5270   15.1641   14.9004 H   0  0  0  0  0  0  0  0  0  0  0  0
   -3.3569   13.8146   13.8719 H   0  0  0  0  0  0  0  0  0  0  0  0
 11 12  1  0
 12 13  1  0
 12 14  1  0
 12 10  1  0
  2 10  1  0
  2  3  1  0
  3  4  1  0
  4  5  1  0
  5  6  1  0
  6  7  1  0
  7  8  1  0
  8  9  2  0
  8  1  1  0
  1 30  1  0
 30 31  1  0
 31 32  2  0
 32 33  1  0
 33 34  2  0
 34 35  1  0
 35 37  1  0
 37 38  2  0
 37 39  1  0
 35 36  2  0
  1 15  1  0
 15 17  1  0
 17 18  2  0
 17 19  2  0
 17 20  1  0
 20 21  2  0
 21 22  1  0
 22 23  2  0
 23 24  1  0
 24 25  2  0
 25 26  1  0
 26 27  2  0
 27 28  1  0
 28 29  2  0
  7  2  1  0
 36 31  1  0
 29 20  1  0
 28 23  1  0
 38 40  1  0
 39 41  1  0
 39 42  1  0
 15 16  1  0
M  CHG 1  12   1
M  END
> <minimizedAffinity>
-8.15439

> <CNNscore>
0.7894876599

> <CNNaffinity>
7.3374295235

> <CNN_VS>
5.7928099632

> <CNNaffinity_variance>
0.0130890794

$$$$



 42 45  0  0  0  0  0  0  0  0999 V2000
   -0.8605   19.8023   17.8911 C   0  0  0  0  0  0  0  0  0  0  0  0
    1.3816   21.1630   15.0119 C   0  0  0  0  0  0  0  0  0  0  0  0
    1.0809   21.2083   13.5026 C   0  0  0  0  0  0  0  0  0  0  0  0
   -0.1157   22.0874   13.1589 C   0  0  0  0  0  0  0  0  0  0  0  0
   -1.3354   21.6438   13.9496 C   0  0  0  0  0  0  0  0  0  0  0  0
   -1.0514   21.6123   15.4455 C   0  0  0  0  0  0  0  0  0  0  0  0
    0.1553   20.8473   15.7885 N   0  0  0  0  0  0  0  0  0  0  0  0
    0.3488   20.2611   17.0424 C   0  0  0  0  0  0  0  0  0  0  0  0
    1.4998   20.0530   17.4556 O   0  0  0  0  0  0  0  0  0  0  0  0
    2.0714   22.4635   15.5337 C   0  0  0  0  0  0  0  0  0  0  0  0
    4.2574   23.4892   14.9447 C   0  0  0  0  0  0  0  0  0  0  0  0
    3.6007   22.3769   15.7691 N   0  0  0  0  0  0  0  0  0  0  0  0
    4.1865   21.0482   15.3301 C   0  0  0  0  0  0  0  0  0  0  0  0
    3.9369   22.6222   17.2405 C   0  0  0  0  0  0  0  0  0  0  0  0
   -1.6186   21.0389   18.1640 N   0  0  0  0  0  0  0  0  0  0  0  0
   -2.3489   21.0947   17.4541 H   0  0  0  0  0  0  0  0  0  0  0  0
   -2.3657   21.2763   19.6323 S   0  0  0  0  0  0  0  0  0  0  0  0
   -2.2885   22.6909   19.9130 O   0  0  0  0  0  0  0  0  0  0  0  0
   -1.8459   20.2697   20.5256 O   0  0  0  0  0  0  0  0  0  0  0  0
   -4.0547   20.8671   19.2756 C   0  0  0  0  0  0  0  0  0  0  0  0
   -4.3492   19.9237   18.2901 C   0  0  0  0  0  0  0  0  0  0  0  0
   -5.6804   19.5914   18.0362 C   0  0  0  0  0  0  0  0  0  0  0  0
   -6.7201   20.1925   18.7645 C   0  0  0  0  0  0  0  0  0  0  0  0
   -8.0604   19.8560   18.5240 C   0  0  0  0  0  0  0  0  0  0  0  0
   -9.0872   20.4662   19.2468 C   0  0  0  0  0  0  0  0  0  0  0  0
   -8.7879   21.4178   20.2161 C   0  0  0  0  0  0  0  0  0  0  0  0
   -7.4596   21.7648   20.4684 C   0  0  0  0  0  0  0  0  0  0  0  0
   -6.4143   21.1609   19.7540 C   0  0  0  0  0  0  0  0  0  0  0  0
   -5.0740   21.4945   19.9981 C   0  0  0  0  0  0  0  0  0  0  0  0
   -1.7616   18.8519   17.0896 C   0  0  0  0  0  0  0  0  0  0  0  0
   -1.5574   17.3920   17.4237 C   0  0  0  0  0  0  0  0  0  0  0  0
   -1.1201   17.0102   18.6993 C   0  0  0  0  0  0  0  0  0  0  0  0
   -0.9234   15.6630   19.0100 C   0  0  0  0  0  0  0  0  0  0  0  0
   -1.1667   14.6785   18.0519 C   0  0  0  0  0  0  0  0  0  0  0  0
   -1.6008   15.0494   16.7778 C   0  0  0  0  0  0  0  0  0  0  0  0
   -1.7834   16.4002   16.4589 C   0  0  0  0  0  0  0  0  0  0  0  0
   -1.8990   14.0080   15.7625 C   0  0  0  0  0  0  0  0  0  0  0  0
   -1.1597   12.9513   15.6353 N   0  0  0  0  0  0  0  0  0  0  0  0
   -2.9549   14.1340   14.9270 N   0  0  0  0  0  0  0  0  0  0  0  0
   -0.3813   12.8214   16.2240 H   0  0  0  0  0  0  0  0  0  0  0  0
   -3.5417   14.9219   14.9907 H   0  0  0  0  0  0  0  0  0  0  0  0
   -3.1368   13.4377   14.2552 H   0  0  0  0  0  0  0  0  0  0  0  0
 11 12  1  0
 12 13  1  0
 12 14  1  0
 12 10  1  0
  2 10  1  0
  2  3  1  0
  3  4  1  0
  4  5  1  0
  5  6  1  0
  6  7  1  0
  7  8  1  0
  8  9  2  0
  8  1  1  0
  1 30  1  0
 30 31  1  0
 31 32  2  0
 32 33  1  0
 33 34  2  0
 34 35  1  0
 35 37  1  0
 37 38  2  0
 37 39  1  0
 35 36  2  0
  1 15  1  0
 15 17  1  0
 17 18  2  0
 17 19  2  0
 17 20  1  0
 20 21  2  0
 21 22  1  0
 22 23  2  0
 23 24  1  0
 24 25  2  0
 25 26  1  0
 26 27  2  0
 27 28  1  0
 28 29  2  0
  7  2  1  0
 36 31  1  0
 29 20  1  0
 28 23  1  0
 38 40  1  0
 39 41  1  0
 39 42  1  0
 15 16  1  0
M  CHG 1  12   1
M  END
> <minimizedAffinity>
-7.42594

> <CNNscore>
0.7628552914

> <CNNaffinity>
7.3215389252

> <CNN_VS>
5.5852746964

> <CNNaffinity_variance>
0.0217099804

$$$$



 42 45  0  0  0  0  0  0  0  0999 V2000
   -3.0763   19.1612   16.2262 C   0  0  0  0  0  0  0  0  0  0  0  0
   -6.3896   21.1926   16.4804 C   0  0  0  0  0  0  0  0  0  0  0  0
   -7.8116   20.6754   16.7643 C   0  0  0  0  0  0  0  0  0  0  0  0
   -7.9493   20.0338   18.1400 C   0  0  0  0  0  0  0  0  0  0  0  0
   -6.9187   18.9296   18.3081 C   0  0  0  0  0  0  0  0  0  0  0  0
   -5.5071   19.4371   18.0452 C   0  0  0  0  0  0  0  0  0  0  0  0
   -5.3765   20.1437   16.7636 N   0  0  0  0  0  0  0  0  0  0  0  0
   -4.1623   20.2532   16.0800 C   0  0  0  0  0  0  0  0  0  0  0  0
   -3.9740   21.2027   15.3042 O   0  0  0  0  0  0  0  0  0  0  0  0
   -6.0643   22.5217   17.2336 C   0  0  0  0  0  0  0  0  0  0  0  0
   -5.5217   21.6097   19.4811 C   0  0  0  0  0  0  0  0  0  0  0  0
   -6.4538   22.5687   18.7329 N   0  0  0  0  0  0  0  0  0  0  0  0
   -7.8855   22.1325   18.9800 C   0  0  0  0  0  0  0  0  0  0  0  0
   -6.2412   23.9711   19.3040 C   0  0  0  0  0  0  0  0  0  0  0  0
   -1.8086   19.8475   15.9091 N   0  0  0  0  0  0  0  0  0  0  0  0
   -1.9887   20.4258   15.0884 H   0  0  0  0  0  0  0  0  0  0  0  0
   -1.0665   20.8308   17.0284 S   0  0  0  0  0  0  0  0  0  0  0  0
   -1.0913   20.1203   18.2856 O   0  0  0  0  0  0  0  0  0  0  0  0
   -1.6334   22.1466   16.8596 O   0  0  0  0  0  0  0  0  0  0  0  0
    0.6085   20.8813   16.4461 C   0  0  0  0  0  0  0  0  0  0  0  0
    1.6497   20.4828   17.2859 C   0  0  0  0  0  0  0  0  0  0  0  0
    2.9605   20.5027   16.8082 C   0  0  0  0  0  0  0  0  0  0  0  0
    3.2378   20.9140   15.4941 C   0  0  0  0  0  0  0  0  0  0  0  0
    4.5511   20.9262   15.0019 C   0  0  0  0  0  0  0  0  0  0  0  0
    4.8174   21.3458   13.6972 C   0  0  0  0  0  0  0  0  0  0  0  0
    3.7771   21.7575   12.8708 C   0  0  0  0  0  0  0  0  0  0  0  0
    2.4640   21.7519   13.3444 C   0  0  0  0  0  0  0  0  0  0  0  0
    2.1767   21.3315   14.6515 C   0  0  0  0  0  0  0  0  0  0  0  0
    0.8627   21.3154   15.1417 C   0  0  0  0  0  0  0  0  0  0  0  0
   -3.0011   18.6554   17.6740 C   0  0  0  0  0  0  0  0  0  0  0  0
   -2.4298   17.2620   17.8037 C   0  0  0  0  0  0  0  0  0  0  0  0
   -1.8649   16.8362   19.0135 C   0  0  0  0  0  0  0  0  0  0  0  0
   -1.3297   15.5522   19.1356 C   0  0  0  0  0  0  0  0  0  0  0  0
   -1.3572   14.6740   18.0519 C   0  0  0  0  0  0  0  0  0  0  0  0
   -1.9162   15.0899   16.8420 C   0  0  0  0  0  0  0  0  0  0  0  0
   -2.4389   16.3820   16.7123 C   0  0  0  0  0  0  0  0  0  0  0  0
   -1.9848   14.1509   15.6939 C   0  0  0  0  0  0  0  0  0  0  0  0
   -2.8805   14.2764   14.7659 N   0  0  0  0  0  0  0  0  0  0  0  0
   -1.1130   13.1229   15.5838 N   0  0  0  0  0  0  0  0  0  0  0  0
   -3.5340   15.0114   14.8087 H   0  0  0  0  0  0  0  0  0  0  0  0
   -0.4171   12.9922   16.2677 H   0  0  0  0  0  0  0  0  0  0  0  0
   -1.1743   12.5052   14.8196 H   0  0  0  0  0  0  0  0  0  0  0  0
 11 12  1  0
 12 13  1  0
 12 14  1  0
 12 10  1  0
  2 10  1  0
  2  3  1  0
  3  4  1  0
  4  5  1  0
  5  6  1  0
  6  7  1  0
  7  8  1  0
  8  9  2  0
  8  1  1  0
  1 30  1  0
 30 31  1  0
 31 32  2  0
 32 33  1  0
 33 34  2  0
 34 35  1  0
 35 37  1  0
 37 38  2  0
 37 39  1  0
 35 36  2  0
  1 15  1  0
 15 17  1  0
 17 18  2  0
 17 19  2  0
 17 20  1  0
 20 21  2  0
 21 22  1  0
 22 23  2  0
 23 24  1  0
 24 25  2  0
 25 26  1  0
 26 27  2  0
 27 28  1  0
 28 29  2  0
  7  2  1  0
 36 31  1  0
 29 20  1  0
 28 23  1  0
 38 40  1  0
 39 41  1  0
 39 42  1  0
 15 16  1  0
M  CHG 1  12   1
M  END
> <minimizedAffinity>
-8.52412

> <CNNscore>
0.7222210765

> <CNNaffinity>
7.0200409889

> <CNN_VS>
5.0700216293

> <CNNaffinity_variance>
0.2193234712

$$$$



 42 45  0  0  0  0  0  0  0  0999 V2000
   -1.1605   20.2134   18.0244 C   0  0  0  0  0  0  0  0  0  0  0  0
    2.5223   21.4777   18.1116 C   0  0  0  0  0  0  0  0  0  0  0  0
    3.4314   21.6980   19.3345 C   0  0  0  0  0  0  0  0  0  0  0  0
    3.7191   20.4136   20.1029 C   0  0  0  0  0  0  0  0  0  0  0  0
    2.4167   19.7385   20.5003 C   0  0  0  0  0  0  0  0  0  0  0  0
    1.5184   19.5017   19.2936 C   0  0  0  0  0  0  0  0  0  0  0  0
    1.3065   20.7101   18.4850 N   0  0  0  0  0  0  0  0  0  0  0  0
    0.1856   20.8880   17.6693 C   0  0  0  0  0  0  0  0  0  0  0  0
    0.2520   21.6388   16.6840 O   0  0  0  0  0  0  0  0  0  0  0  0
    3.2698   20.8179   16.9093 C   0  0  0  0  0  0  0  0  0  0  0  0
    3.2620   23.1877   16.1599 C   0  0  0  0  0  0  0  0  0  0  0  0
    3.7120   21.7747   15.7733 N   0  0  0  0  0  0  0  0  0  0  0  0
    3.0875   21.4242   14.4360 C   0  0  0  0  0  0  0  0  0  0  0  0
    5.2351   21.7876   15.6382 C   0  0  0  0  0  0  0  0  0  0  0  0
   -2.1481   21.3101   17.9998 N   0  0  0  0  0  0  0  0  0  0  0  0
   -2.5848   21.2871   17.0783 H   0  0  0  0  0  0  0  0  0  0  0  0
   -3.3867   21.3691   19.1101 S   0  0  0  0  0  0  0  0  0  0  0  0
   -3.5571   22.7580   19.4677 O   0  0  0  0  0  0  0  0  0  0  0  0
   -3.1182   20.3363   20.0809 O   0  0  0  0  0  0  0  0  0  0  0  0
   -4.7893   20.8616   18.1497 C   0  0  0  0  0  0  0  0  0  0  0  0
   -4.6661   20.7006   16.7688 C   0  0  0  0  0  0  0  0  0  0  0  0
   -5.7694   20.2763   16.0276 C   0  0  0  0  0  0  0  0  0  0  0  0
   -6.9953   20.0069   16.6583 C   0  0  0  0  0  0  0  0  0  0  0  0
   -8.1064   19.5690   15.9228 C   0  0  0  0  0  0  0  0  0  0  0  0
   -9.3231   19.3130   16.5578 C   0  0  0  0  0  0  0  0  0  0  0  0
   -9.4440   19.4914   17.9318 C   0  0  0  0  0  0  0  0  0  0  0  0
   -8.3485   19.9268   18.6794 C   0  0  0  0  0  0  0  0  0  0  0  0
   -7.1173   20.1868   18.0594 C   0  0  0  0  0  0  0  0  0  0  0  0
   -6.0053   20.6205   18.7961 C   0  0  0  0  0  0  0  0  0  0  0  0
   -1.5556   19.1853   16.9547 C   0  0  0  0  0  0  0  0  0  0  0  0
   -1.5502   17.7574   17.4504 C   0  0  0  0  0  0  0  0  0  0  0  0
   -1.4014   17.4808   18.8162 C   0  0  0  0  0  0  0  0  0  0  0  0
   -1.3888   16.1628   19.2778 C   0  0  0  0  0  0  0  0  0  0  0  0
   -1.5306   15.1034   18.3811 C   0  0  0  0  0  0  0  0  0  0  0  0
   -1.6774   15.3691   17.0183 C   0  0  0  0  0  0  0  0  0  0  0  0
   -1.6744   16.6888   16.5513 C   0  0  0  0  0  0  0  0  0  0  0  0
   -1.8669   14.2511   16.0599 C   0  0  0  0  0  0  0  0  0  0  0  0
   -1.1315   13.1851   16.1052 N   0  0  0  0  0  0  0  0  0  0  0  0
   -2.8150   14.3138   15.0976 N   0  0  0  0  0  0  0  0  0  0  0  0
   -0.4299   13.0998   16.7906 H   0  0  0  0  0  0  0  0  0  0  0  0
   -3.3949   15.1063   15.0288 H   0  0  0  0  0  0  0  0  0  0  0  0
   -2.9252   13.5668   14.4658 H   0  0  0  0  0  0  0  0  0  0  0  0
 11 12  1  0
 12 13  1  0
 12 14  1  0
 12 10  1  0
  2 10  1  0
  2  3  1  0
  3  4  1  0
  4  5  1  0
  5  6  1  0
  6  7  1  0
  7  8  1  0
  8  9  2  0
  8  1  1  0
  1 30  1  0
 30 31  1  0
 31 32  2  0
 32 33  1  0
 33 34  2  0
 34 35  1  0
 35 37  1  0
 37 38  2  0
 37 39  1  0
 35 36  2  0
  1 15  1  0
 15 17  1  0
 17 18  2  0
 17 19  2  0
 17 20  1  0
 20 21  2  0
 21 22  1  0
 22 23  2  0
 23 24  1  0
 24 25  2  0
 25 26  1  0
 26 27  2  0
 27 28  1  0
 28 29  2  0
  7  2  1  0
 36 31  1  0
 29 20  1  0
 28 23  1  0
 38 40  1  0
 39 41  1  0
 39 42  1  0
 15 16  1  0
M  CHG 1  12   1
M  END
> <minimizedAffinity>
-7.15859

> <CNNscore>
0.7199645638

> <CNNaffinity>
7.3795228004

> <CNN_VS>
5.3129949570

> <CNNaffinity_variance>
0.0663265511

$$$$



 42 45  0  0  0  0  0  0  0  0999 V2000
   -0.0266   18.7855   18.2211 C   0  0  0  0  0  0  0  0  0  0  0  0
    0.2120   21.3343   15.2859 C   0  0  0  0  0  0  0  0  0  0  0  0
   -0.8292   21.6380   14.1932 C   0  0  0  0  0  0  0  0  0  0  0  0
   -2.1296   22.2056   14.7497 C   0  0  0  0  0  0  0  0  0  0  0  0
   -2.6977   21.2731   15.8068 C   0  0  0  0  0  0  0  0  0  0  0  0
   -1.6793   20.9807   16.9006 C   0  0  0  0  0  0  0  0  0  0  0  0
   -0.3849   20.5225   16.3774 N   0  0  0  0  0  0  0  0  0  0  0  0
    0.5008   19.7426   17.1261 C   0  0  0  0  0  0  0  0  0  0  0  0
    1.7150   19.7728   16.8736 O   0  0  0  0  0  0  0  0  0  0  0  0
    0.9040   22.6200   15.8405 C   0  0  0  0  0  0  0  0  0  0  0  0
    2.2433   24.2730   14.5554 C   0  0  0  0  0  0  0  0  0  0  0  0
    2.3176   22.9273   15.2848 N   0  0  0  0  0  0  0  0  0  0  0  0
    2.8014   21.8779   14.3020 C   0  0  0  0  0  0  0  0  0  0  0  0
    3.3289   23.0657   16.4234 C   0  0  0  0  0  0  0  0  0  0  0  0
   -0.3536   19.6636   19.3616 N   0  0  0  0  0  0  0  0  0  0  0  0
   -1.3618   19.8152   19.3318 H   0  0  0  0  0  0  0  0  0  0  0  0
    0.0118   19.2101   20.9209 S   0  0  0  0  0  0  0  0  0  0  0  0
    0.1789   17.7756   20.9072 O   0  0  0  0  0  0  0  0  0  0  0  0
   -0.9358   19.8814   21.7769 O   0  0  0  0  0  0  0  0  0  0  0  0
    1.6004   19.9570   21.1770 C   0  0  0  0  0  0  0  0  0  0  0  0
    2.6190   19.7645   20.2424 C   0  0  0  0  0  0  0  0  0  0  0  0
    3.8562   20.3779   20.4417 C   0  0  0  0  0  0  0  0  0  0  0  0
    4.0813   21.1871   21.5675 C   0  0  0  0  0  0  0  0  0  0  0  0
    5.3181   21.8170   21.7700 C   0  0  0  0  0  0  0  0  0  0  0  0
    5.5349   22.6117   22.8972 C   0  0  0  0  0  0  0  0  0  0  0  0
    4.5212   22.7861   23.8333 C   0  0  0  0  0  0  0  0  0  0  0  0
    3.2841   22.1667   23.6477 C   0  0  0  0  0  0  0  0  0  0  0  0
    3.0468   21.3663   22.5203 C   0  0  0  0  0  0  0  0  0  0  0  0
    1.8083   20.7404   22.3161 C   0  0  0  0  0  0  0  0  0  0  0  0
   -1.3166   18.0896   17.7637 C   0  0  0  0  0  0  0  0  0  0  0  0
   -1.2043   16.5840   17.6925 C   0  0  0  0  0  0  0  0  0  0  0  0
   -0.5957   15.8675   18.7320 C   0  0  0  0  0  0  0  0  0  0  0  0
   -0.4835   14.4771   18.6670 C   0  0  0  0  0  0  0  0  0  0  0  0
   -0.9835   13.7830   17.5648 C   0  0  0  0  0  0  0  0  0  0  0  0
   -1.5898   14.4883   16.5236 C   0  0  0  0  0  0  0  0  0  0  0  0
   -1.6891   15.8836   16.5789 C   0  0  0  0  0  0  0  0  0  0  0  0
   -2.1590   13.7567   15.3637 C   0  0  0  0  0  0  0  0  0  0  0  0
   -3.1164   14.2570   14.6480 N   0  0  0  0  0  0  0  0  0  0  0  0
   -1.6980   12.5327   15.0198 N   0  0  0  0  0  0  0  0  0  0  0  0
   -3.4805   15.1456   14.8649 H   0  0  0  0  0  0  0  0  0  0  0  0
   -0.9714   12.1170   15.5378 H   0  0  0  0  0  0  0  0  0  0  0  0
   -2.0891   12.0574   14.2515 H   0  0  0  0  0  0  0  0  0  0  0  0
 11 12  1  0
 12 13  1  0
 12 14  1  0
 12 10  1  0
  2 10  1  0
  2  3  1  0
  3  4  1  0
  4  5  1  0
  5  6  1  0
  6  7  1  0
  7  8  1  0
  8  9  2  0
  8  1  1  0
  1 30  1  0
 30 31  1  0
 31 32  2  0
 32 33  1  0
 33 34  2  0
 34 35  1  0
 35 37  1  0
 37 38  2  0
 37 39  1  0
 35 36  2  0
  1 15  1  0
 15 17  1  0
 17 18  2  0
 17 19  2  0
 17 20  1  0
 20 21  2  0
 21 22  1  0
 22 23  2  0
 23 24  1  0
 24 25  2  0
 25 26  1  0
 26 27  2  0
 27 28  1  0
 28 29  2  0
  7  2  1  0
 36 31  1  0
 29 20  1  0
 28 23  1  0
 38 40  1  0
 39 41  1  0
 39 42  1  0
 15 16  1  0
M  CHG 1  12   1
M  END
> <minimizedAffinity>
-8.32072

> <CNNscore>
0.7183585763

> <CNNaffinity>
7.2258467674

> <CNN_VS>
5.1907491684

> <CNNaffinity_variance>
0.0975985602

$$$$



 42 45  0  0  0  0  0  0  0  0999 V2000
   -1.3115   18.8152   16.7276 C   0  0  0  0  0  0  0  0  0  0  0  0
   -4.1587   21.4723   16.7699 C   0  0  0  0  0  0  0  0  0  0  0  0
   -5.6754   21.2544   16.6200 C   0  0  0  0  0  0  0  0  0  0  0  0
   -6.2707   20.4116   17.7417 C   0  0  0  0  0  0  0  0  0  0  0  0
   -5.5328   19.0874   17.8495 C   0  0  0  0  0  0  0  0  0  0  0  0
   -4.0332   19.2944   18.0149 C   0  0  0  0  0  0  0  0  0  0  0  0
   -3.4568   20.1829   16.9965 N   0  0  0  0  0  0  0  0  0  0  0  0
   -2.1098   20.1364   16.6263 C   0  0  0  0  0  0  0  0  0  0  0  0
   -1.5631   21.1467   16.1579 O   0  0  0  0  0  0  0  0  0  0  0  0
   -3.8010   22.5207   17.8710 C   0  0  0  0  0  0  0  0  0  0  0  0
   -3.6606   23.2559   20.2411 C   0  0  0  0  0  0  0  0  0  0  0  0
   -4.1255   22.1141   19.3308 N   0  0  0  0  0  0  0  0  0  0  0  0
   -3.4137   20.8441   19.7570 C   0  0  0  0  0  0  0  0  0  0  0  0
   -5.6329   21.9443   19.5235 C   0  0  0  0  0  0  0  0  0  0  0  0
    0.1045   19.2315   16.7335 N   0  0  0  0  0  0  0  0  0  0  0  0
    0.1656   20.0621   16.1446 H   0  0  0  0  0  0  0  0  0  0  0  0
    0.8797   19.6029   18.1588 S   0  0  0  0  0  0  0  0  0  0  0  0
    1.3452   18.3540   18.7153 O   0  0  0  0  0  0  0  0  0  0  0  0
    0.0124   20.5062   18.8752 O   0  0  0  0  0  0  0  0  0  0  0  0
    2.2876   20.5275   17.6020 C   0  0  0  0  0  0  0  0  0  0  0  0
    2.9824   21.3437   18.4960 C   0  0  0  0  0  0  0  0  0  0  0  0
    4.1034   22.0462   18.0526 C   0  0  0  0  0  0  0  0  0  0  0  0
    4.5381   21.9349   16.7215 C   0  0  0  0  0  0  0  0  0  0  0  0
    5.6706   22.6284   16.2701 C   0  0  0  0  0  0  0  0  0  0  0  0
    6.0891   22.5186   14.9427 C   0  0  0  0  0  0  0  0  0  0  0  0
    5.3826   21.7167   14.0526 C   0  0  0  0  0  0  0  0  0  0  0  0
    4.2531   21.0195   14.4848 C   0  0  0  0  0  0  0  0  0  0  0  0
    3.8188   21.1156   15.8152 C   0  0  0  0  0  0  0  0  0  0  0  0
    2.6888   20.4183   16.2672 C   0  0  0  0  0  0  0  0  0  0  0  0
   -1.6080   18.0976   18.0523 C   0  0  0  0  0  0  0  0  0  0  0  0
   -1.5031   16.5922   17.9666 C   0  0  0  0  0  0  0  0  0  0  0  0
   -1.0503   15.8485   19.0648 C   0  0  0  0  0  0  0  0  0  0  0  0
   -0.9452   14.4582   18.9876 C   0  0  0  0  0  0  0  0  0  0  0  0
   -1.2968   13.7915   17.8136 C   0  0  0  0  0  0  0  0  0  0  0  0
   -1.7472   14.5240   16.7137 C   0  0  0  0  0  0  0  0  0  0  0  0
   -1.8383   15.9192   16.7833 C   0  0  0  0  0  0  0  0  0  0  0  0
   -2.1599   13.8218   15.4724 C   0  0  0  0  0  0  0  0  0  0  0  0
   -3.0417   14.3258   14.6676 N   0  0  0  0  0  0  0  0  0  0  0  0
   -1.6304   12.6216   15.1439 N   0  0  0  0  0  0  0  0  0  0  0  0
   -3.4516   15.1977   14.8701 H   0  0  0  0  0  0  0  0  0  0  0  0
   -0.9572   12.2040   15.7285 H   0  0  0  0  0  0  0  0  0  0  0  0
   -1.9179   12.1654   14.3202 H   0  0  0  0  0  0  0  0  0  0  0  0
 11 12  1  0
 12 13  1  0
 12 14  1  0
 12 10  1  0
  2 10  1  0
  2  3  1  0
  3  4  1  0
  4  5  1  0
  5  6  1  0
  6  7  1  0
  7  8  1  0
  8  9  2  0
  8  1  1  0
  1 30  1  0
 30 31  1  0
 31 32  2  0
 32 33  1  0
 33 34  2  0
 34 35  1  0
 35 37  1  0
 37 38  2  0
 37 39  1  0
 35 36  2  0
  1 15  1  0
 15 17  1  0
 17 18  2  0
 17 19  2  0
 17 20  1  0
 20 21  2  0
 21 22  1  0
 22 23  2  0
 23 24  1  0
 24 25  2  0
 25 26  1  0
 26 27  2  0
 27 28  1  0
 28 29  2  0
  7  2  1  0
 36 31  1  0
 29 20  1  0
 28 23  1  0
 38 40  1  0
 39 41  1  0
 39 42  1  0
 15 16  1  0
M  CHG 1  12   1
M  END
> <minimizedAffinity>
-8.38427

> <CNNscore>
0.7164079547

> <CNNaffinity>
7.3920063972

> <CNN_VS>
5.2956919670

> <CNNaffinity_variance>
0.0291151684

$$$$



 42 45  0  0  0  0  0  0  0  0999 V2000
   -1.6240   19.1948   18.6361 C   0  0  0  0  0  0  0  0  0  0  0  0
    1.3017   21.4261   19.9130 C   0  0  0  0  0  0  0  0  0  0  0  0
    2.4852   21.0311   20.8150 C   0  0  0  0  0  0  0  0  0  0  0  0
    3.3917   19.9809   20.1839 C   0  0  0  0  0  0  0  0  0  0  0  0
    2.5783   18.7626   19.7789 C   0  0  0  0  0  0  0  0  0  0  0  0
    1.4150   19.1427   18.8726 C   0  0  0  0  0  0  0  0  0  0  0  0
    0.5833   20.2222   19.4220 N   0  0  0  0  0  0  0  0  0  0  0  0
   -0.7564   20.4013   19.0661 C   0  0  0  0  0  0  0  0  0  0  0  0
   -1.2724   21.5263   19.1502 O   0  0  0  0  0  0  0  0  0  0  0  0
    1.7208   22.3632   18.7358 C   0  0  0  0  0  0  0  0  0  0  0  0
    2.7088   22.5880   16.4663 C   0  0  0  0  0  0  0  0  0  0  0  0
    1.8114   21.7022   17.3371 N   0  0  0  0  0  0  0  0  0  0  0  0
    0.4601   21.5789   16.6589 C   0  0  0  0  0  0  0  0  0  0  0  0
    2.4635   20.3223   17.4313 C   0  0  0  0  0  0  0  0  0  0  0  0
   -2.9073   19.7875   18.2114 N   0  0  0  0  0  0  0  0  0  0  0  0
   -2.6772   20.6128   17.6580 H   0  0  0  0  0  0  0  0  0  0  0  0
   -4.0005   18.9067   17.3172 S   0  0  0  0  0  0  0  0  0  0  0  0
   -4.1709   17.6441   17.9973 O   0  0  0  0  0  0  0  0  0  0  0  0
   -3.5802   19.0059   15.9406 O   0  0  0  0  0  0  0  0  0  0  0  0
   -5.4936   19.8473   17.4992 C   0  0  0  0  0  0  0  0  0  0  0  0
   -6.1208   20.3825   16.3730 C   0  0  0  0  0  0  0  0  0  0  0  0
   -7.3084   21.0988   16.5261 C   0  0  0  0  0  0  0  0  0  0  0  0
   -7.8766   21.2801   17.7978 C   0  0  0  0  0  0  0  0  0  0  0  0
   -9.0761   21.9888   17.9598 C   0  0  0  0  0  0  0  0  0  0  0  0
   -9.6278   22.1716   19.2292 C   0  0  0  0  0  0  0  0  0  0  0  0
   -8.9891   21.6500   20.3492 C   0  0  0  0  0  0  0  0  0  0  0  0
   -7.7945   20.9421   20.2064 C   0  0  0  0  0  0  0  0  0  0  0  0
   -7.2261   20.7462   18.9389 C   0  0  0  0  0  0  0  0  0  0  0  0
   -6.0289   20.0336   18.7772 C   0  0  0  0  0  0  0  0  0  0  0  0
   -1.0023   18.4769   17.4296 C   0  0  0  0  0  0  0  0  0  0  0  0
   -1.0084   16.9700   17.5477 C   0  0  0  0  0  0  0  0  0  0  0  0
   -0.4750   16.3448   18.6829 C   0  0  0  0  0  0  0  0  0  0  0  0
   -0.4723   14.9527   18.7930 C   0  0  0  0  0  0  0  0  0  0  0  0
   -1.0079   14.1665   17.7725 C   0  0  0  0  0  0  0  0  0  0  0  0
   -1.5398   14.7803   16.6369 C   0  0  0  0  0  0  0  0  0  0  0  0
   -1.5293   16.1750   16.5170 C   0  0  0  0  0  0  0  0  0  0  0  0
   -2.1465   13.9550   15.5621 C   0  0  0  0  0  0  0  0  0  0  0  0
   -3.1189   14.4003   14.8303 N   0  0  0  0  0  0  0  0  0  0  0  0
   -1.7054   12.7006   15.3161 N   0  0  0  0  0  0  0  0  0  0  0  0
   -3.4695   15.3085   14.9771 H   0  0  0  0  0  0  0  0  0  0  0  0
   -0.9683   12.3245   15.8496 H   0  0  0  0  0  0  0  0  0  0  0  0
   -2.1212   12.1634   14.6035 H   0  0  0  0  0  0  0  0  0  0  0  0
 11 12  1  0
 12 13  1  0
 12 14  1  0
 12 10  1  0
  2 10  1  0
  2  3  1  0
  3  4  1  0
  4  5  1  0
  5  6  1  0
  6  7  1  0
  7  8  1  0
  8  9  2  0
  8  1  1  0
  1 30  1  0
 30 31  1  0
 31 32  2  0
 32 33  1  0
 33 34  2  0
 34 35  1  0
 35 37  1  0
 37 38  2  0
 37 39  1  0
 35 36  2  0
  1 15  1  0
 15 17  1  0
 17 18  2  0
 17 19  2  0
 17 20  1  0
 20 21  2  0
 21 22  1  0
 22 23  2  0
 23 24  1  0
 24 25  2  0
 25 26  1  0
 26 27  2  0
 27 28  1  0
 28 29  2  0
  7  2  1  0
 36 31  1  0
 29 20  1  0
 28 23  1  0
 38 40  1  0
 39 41  1  0
 39 42  1  0
 15 16  1  0
M  CHG 1  12   1
M  END
> <minimizedAffinity>
-8.01422

> <CNNscore>
0.6986177564

> <CNNaffinity>
7.4191346169

> <CNN_VS>
5.1831393242

> <CNNaffinity_variance>
0.0045297802

$$$$
