


 19 21  0  0  0  0  0  0  0  0999 V2000
   73.4221   47.2234    4.5505 N   0  0  0  0  0  0  0  0  0  0  0  0
   73.3858   47.8492    5.7941 C   0  0  0  0  0  0  0  0  0  0  0  0
   74.4088   48.6968    6.1831 C   0  0  0  0  0  0  0  0  0  0  0  0
   74.3240   49.3182    7.4240 C   0  0  0  0  0  0  0  0  0  0  0  0
   73.2136   49.0806    8.2403 C   0  0  0  0  0  0  0  0  0  0  0  0
   73.0781   49.6856    9.5045 C   0  0  0  0  0  0  0  0  0  0  0  0
   71.9551   49.4323   10.3004 C   0  0  0  0  0  0  0  0  0  0  0  0
   70.9743   48.5626    9.8189 C   0  0  0  0  0  0  0  0  0  0  0  0
   71.1152   47.9661    8.5598 C   0  0  0  0  0  0  0  0  0  0  0  0
   72.2193   48.2075    7.7554 C   0  0  0  0  0  0  0  0  0  0  0  0
   72.3061   47.6070    6.5551 N   0  0  0  0  0  0  0  0  0  0  0  0
   74.1897   47.3649    3.9505 H   0  0  0  0  0  0  0  0  0  0  0  0
   72.6802   46.6396    4.2714 H   0  0  0  0  0  0  0  0  0  0  0  0
   71.8075   50.0477   11.6147 C   0  0  0  0  0  0  0  0  0  0  0  0
   72.7075   49.8130   12.6406 C   0  0  0  0  0  0  0  0  0  0  0  0
   72.3064   50.6673   14.0738 S   0  0  0  0  0  0  0  0  0  0  0  0
   70.9515   51.3562   13.3329 C   0  0  0  0  0  0  0  0  0  0  0  0
   70.1155   52.2058   13.9511 F   0  0  0  0  0  0  0  0  0  0  0  0
   70.7853   50.9633   12.0304 C   0  0  0  0  0  0  0  0  0  0  0  0
  1  2  1  0
  2  3  2  0
  3  4  1  0
  4  5  2  0
  5  6  1  0
  6  7  2  0
  7 14  1  0
 14 15  2  0
 15 16  1  0
 16 17  1  0
 17 18  1  0
 17 19  2  0
  7  8  1  0
  8  9  2  0
  9 10  1  0
 10 11  2  0
 11  2  1  0
 10  5  1  0
 19 14  1  0
  1 12  1  0
  1 13  1  0
M  END
> <minimizedAffinity>
-6.94855

> <CNNscore>
0.6400365829

> <CNNaffinity>
4.4842662811

> <CNN_VS>
2.8700945377

> <CNNaffinity_variance>
0.7747266293

$$$$



 19 21  0  0  0  0  0  0  0  0999 V2000
   74.3645   47.6772    4.4223 N   0  0  0  0  0  0  0  0  0  0  0  0
   73.8575   48.3059    5.5568 C   0  0  0  0  0  0  0  0  0  0  0  0
   74.6955   48.6421    6.6062 C   0  0  0  0  0  0  0  0  0  0  0  0
   74.1531   49.2876    7.7117 C   0  0  0  0  0  0  0  0  0  0  0  0
   72.7872   49.5865    7.7349 C   0  0  0  0  0  0  0  0  0  0  0  0
   72.1884   50.2403    8.8289 C   0  0  0  0  0  0  0  0  0  0  0  0
   70.8191   50.5297    8.8252 C   0  0  0  0  0  0  0  0  0  0  0  0
   70.0568   50.1518    7.7179 C   0  0  0  0  0  0  0  0  0  0  0  0
   70.6597   49.5035    6.6329 C   0  0  0  0  0  0  0  0  0  0  0  0
   72.0157   49.2112    6.6169 C   0  0  0  0  0  0  0  0  0  0  0  0
   72.5440   48.5852    5.5502 N   0  0  0  0  0  0  0  0  0  0  0  0
   75.3208   47.4486    4.3721 H   0  0  0  0  0  0  0  0  0  0  0  0
   73.7666   47.4613    3.6705 H   0  0  0  0  0  0  0  0  0  0  0  0
   70.1867   51.2001    9.9559 C   0  0  0  0  0  0  0  0  0  0  0  0
   69.2236   52.1801    9.7835 C   0  0  0  0  0  0  0  0  0  0  0  0
   68.6382   52.7946   11.2749 S   0  0  0  0  0  0  0  0  0  0  0  0
   69.6486   51.7559   12.1464 C   0  0  0  0  0  0  0  0  0  0  0  0
   69.6957   51.7143   13.4877 F   0  0  0  0  0  0  0  0  0  0  0  0
   70.4213   50.9528   11.3487 C   0  0  0  0  0  0  0  0  0  0  0  0
  1  2  1  0
  2  3  2  0
  3  4  1  0
  4  5  2  0
  5  6  1  0
  6  7  2  0
  7 14  1  0
 14 15  2  0
 15 16  1  0
 16 17  1  0
 17 18  1  0
 17 19  2  0
  7  8  1  0
  8  9  2  0
  9 10  1  0
 10 11  2  0
 11  2  1  0
 10  5  1  0
 19 14  1  0
  1 12  1  0
  1 13  1  0
M  END
> <minimizedAffinity>
-6.79269

> <CNNscore>
0.5984507203

> <CNNaffinity>
4.0906910896

> <CNN_VS>
2.4480769634

> <CNNaffinity_variance>
1.1345103979

$$$$



 19 21  0  0  0  0  0  0  0  0999 V2000
   73.3028   47.7835   13.3199 N   0  0  0  0  0  0  0  0  0  0  0  0
   72.5487   48.9306   13.0859 C   0  0  0  0  0  0  0  0  0  0  0  0
   72.5702   49.9805   13.9879 C   0  0  0  0  0  0  0  0  0  0  0  0
   71.8194   51.1164   13.7067 C   0  0  0  0  0  0  0  0  0  0  0  0
   71.0723   51.1748   12.5260 C   0  0  0  0  0  0  0  0  0  0  0  0
   70.2966   52.3018   12.1929 C   0  0  0  0  0  0  0  0  0  0  0  0
   69.5599   52.3351   11.0033 C   0  0  0  0  0  0  0  0  0  0  0  0
   69.6040   51.2259   10.1560 C   0  0  0  0  0  0  0  0  0  0  0  0
   70.3792   50.1094   10.4932 C   0  0  0  0  0  0  0  0  0  0  0  0
   71.1185   50.0594   11.6659 C   0  0  0  0  0  0  0  0  0  0  0  0
   71.8447   48.9617   11.9427 N   0  0  0  0  0  0  0  0  0  0  0  0
   73.8387   47.7059   14.1421 H   0  0  0  0  0  0  0  0  0  0  0  0
   73.3001   47.0501   12.6631 H   0  0  0  0  0  0  0  0  0  0  0  0
   68.7472   53.4942   10.6514 C   0  0  0  0  0  0  0  0  0  0  0  0
   67.5649   53.7889   11.3092 C   0  0  0  0  0  0  0  0  0  0  0  0
   66.8147   55.2096   10.7060 S   0  0  0  0  0  0  0  0  0  0  0  0
   68.0598   55.4404    9.5853 C   0  0  0  0  0  0  0  0  0  0  0  0
   68.1006   56.4640    8.7173 F   0  0  0  0  0  0  0  0  0  0  0  0
   69.0325   54.4767    9.6468 C   0  0  0  0  0  0  0  0  0  0  0  0
  1  2  1  0
  2  3  2  0
  3  4  1  0
  4  5  2  0
  5  6  1  0
  6  7  2  0
  7 14  1  0
 14 15  2  0
 15 16  1  0
 16 17  1  0
 17 18  1  0
 17 19  2  0
  7  8  1  0
  8  9  2  0
  9 10  1  0
 10 11  2  0
 11  2  1  0
 10  5  1  0
 19 14  1  0
  1 12  1  0
  1 13  1  0
M  END
> <minimizedAffinity>
-7.79405

> <CNNscore>
0.5957503319

> <CNNaffinity>
4.2885465622

> <CNN_VS>
2.5549030304

> <CNNaffinity_variance>
0.9522870183

$$$$



 19 21  0  0  0  0  0  0  0  0999 V2000
   66.4471   48.7757    6.0018 N   0  0  0  0  0  0  0  0  0  0  0  0
   67.0318   49.0658    7.2319 C   0  0  0  0  0  0  0  0  0  0  0  0
   66.2876   48.9934    8.3969 C   0  0  0  0  0  0  0  0  0  0  0  0
   66.9145   49.2705    9.6066 C   0  0  0  0  0  0  0  0  0  0  0  0
   68.2721   49.6056    9.6194 C   0  0  0  0  0  0  0  0  0  0  0  0
   68.9549   49.8934   10.8168 C   0  0  0  0  0  0  0  0  0  0  0  0
   70.3148   50.2238   10.8014 C   0  0  0  0  0  0  0  0  0  0  0  0
   70.9801   50.2687    9.5744 C   0  0  0  0  0  0  0  0  0  0  0  0
   70.2949   49.9795    8.3879 C   0  0  0  0  0  0  0  0  0  0  0  0
   68.9481   49.6469    8.3835 C   0  0  0  0  0  0  0  0  0  0  0  0
   68.3374   49.3799    7.2153 N   0  0  0  0  0  0  0  0  0  0  0  0
   65.4927   48.5389    5.9540 H   0  0  0  0  0  0  0  0  0  0  0  0
   66.9881   48.8075    5.1799 H   0  0  0  0  0  0  0  0  0  0  0  0
   71.0306   50.5309   12.0347 C   0  0  0  0  0  0  0  0  0  0  0  0
   70.6564   51.5784   12.8595 C   0  0  0  0  0  0  0  0  0  0  0  0
   71.6580   51.7118   14.2465 S   0  0  0  0  0  0  0  0  0  0  0  0
   72.5766   50.3773   13.7619 C   0  0  0  0  0  0  0  0  0  0  0  0
   73.6182   49.8968   14.4599 F   0  0  0  0  0  0  0  0  0  0  0  0
   72.1543   49.8266   12.5800 C   0  0  0  0  0  0  0  0  0  0  0  0
  1  2  1  0
  2  3  2  0
  3  4  1  0
  4  5  2  0
  5  6  1  0
  6  7  2  0
  7 14  1  0
 14 15  2  0
 15 16  1  0
 16 17  1  0
 17 18  1  0
 17 19  2  0
  7  8  1  0
  8  9  2  0
  9 10  1  0
 10 11  2  0
 11  2  1  0
 10  5  1  0
 19 14  1  0
  1 12  1  0
  1 13  1  0
M  END
> <minimizedAffinity>
-7.66814

> <CNNscore>
0.5638195276

> <CNNaffinity>
4.6705155373

> <CNN_VS>
2.6333279610

> <CNNaffinity_variance>
1.1125999689

$$$$



 19 21  0  0  0  0  0  0  0  0999 V2000
   70.9389   49.4291    5.7692 N   0  0  0  0  0  0  0  0  0  0  0  0
   71.9059   49.1608    6.7348 C   0  0  0  0  0  0  0  0  0  0  0  0
   72.0564   49.9967    7.8280 C   0  0  0  0  0  0  0  0  0  0  0  0
   73.0195   49.6818    8.7801 C   0  0  0  0  0  0  0  0  0  0  0  0
   73.8018   48.5342    8.6169 C   0  0  0  0  0  0  0  0  0  0  0  0
   74.7891   48.1692    9.5522 C   0  0  0  0  0  0  0  0  0  0  0  0
   75.5566   47.0138    9.3658 C   0  0  0  0  0  0  0  0  0  0  0  0
   75.3285   46.2331    8.2306 C   0  0  0  0  0  0  0  0  0  0  0  0
   74.3435   46.6015    7.3058 C   0  0  0  0  0  0  0  0  0  0  0  0
   73.5707   47.7411    7.4752 C   0  0  0  0  0  0  0  0  0  0  0  0
   72.6394   48.0503    6.5555 N   0  0  0  0  0  0  0  0  0  0  0  0
   70.3718   50.2299    5.8496 H   0  0  0  0  0  0  0  0  0  0  0  0
   70.8225   48.8181    5.0061 H   0  0  0  0  0  0  0  0  0  0  0  0
   76.5871   46.6298   10.3242 C   0  0  0  0  0  0  0  0  0  0  0  0
   77.8026   47.2889   10.3989 C   0  0  0  0  0  0  0  0  0  0  0  0
   78.8252   46.6439   11.6167 S   0  0  0  0  0  0  0  0  0  0  0  0
   77.6554   45.5032   12.0523 C   0  0  0  0  0  0  0  0  0  0  0  0
   77.8241   44.5995   13.0310 F   0  0  0  0  0  0  0  0  0  0  0  0
   76.5085   45.5885   11.3068 C   0  0  0  0  0  0  0  0  0  0  0  0
  1  2  1  0
  2  3  2  0
  3  4  1  0
  4  5  2  0
  5  6  1  0
  6  7  2  0
  7 14  1  0
 14 15  2  0
 15 16  1  0
 16 17  1  0
 17 18  1  0
 17 19  2  0
  7  8  1  0
  8  9  2  0
  9 10  1  0
 10 11  2  0
 11  2  1  0
 10  5  1  0
 19 14  1  0
  1 12  1  0
  1 13  1  0
M  END
> <minimizedAffinity>
-5.54198

> <CNNscore>
0.4793669581

> <CNNaffinity>
4.0461006165

> <CNN_VS>
1.9395669699

> <CNNaffinity_variance>
0.4119288921

$$$$



 19 21  0  0  0  0  0  0  0  0999 V2000
   64.4437   47.9367    7.1217 N   0  0  0  0  0  0  0  0  0  0  0  0
   65.6259   48.1128    7.8364 C   0  0  0  0  0  0  0  0  0  0  0  0
   66.7032   47.2684    7.6295 C   0  0  0  0  0  0  0  0  0  0  0  0
   67.8723   47.4911    8.3482 C   0  0  0  0  0  0  0  0  0  0  0  0
   67.9352   48.5581    9.2501 C   0  0  0  0  0  0  0  0  0  0  0  0
   69.0952   48.8283   10.0012 C   0  0  0  0  0  0  0  0  0  0  0  0
   69.1320   49.9044   10.8954 C   0  0  0  0  0  0  0  0  0  0  0  0
   67.9934   50.7012   11.0330 C   0  0  0  0  0  0  0  0  0  0  0  0
   66.8441   50.4273   10.2812 C   0  0  0  0  0  0  0  0  0  0  0  0
   66.7898   49.3675    9.3877 C   0  0  0  0  0  0  0  0  0  0  0  0
   65.6601   49.1474    8.6918 N   0  0  0  0  0  0  0  0  0  0  0  0
   64.3622   47.1943    6.4803 H   0  0  0  0  0  0  0  0  0  0  0  0
   63.6895   48.5547    7.2578 H   0  0  0  0  0  0  0  0  0  0  0  0
   70.3256   50.1895   11.6840 C   0  0  0  0  0  0  0  0  0  0  0  0
   71.4465   49.3776   11.6391 C   0  0  0  0  0  0  0  0  0  0  0  0
   72.7093   49.9456   12.6527 S   0  0  0  0  0  0  0  0  0  0  0  0
   71.7781   51.2704   13.1396 C   0  0  0  0  0  0  0  0  0  0  0  0
   72.2053   52.2034   14.0056 F   0  0  0  0  0  0  0  0  0  0  0  0
   70.5356   51.3036   12.5619 C   0  0  0  0  0  0  0  0  0  0  0  0
  1  2  1  0
  2  3  2  0
  3  4  1  0
  4  5  2  0
  5  6  1  0
  6  7  2  0
  7 14  1  0
 14 15  2  0
 15 16  1  0
 16 17  1  0
 17 18  1  0
 17 19  2  0
  7  8  1  0
  8  9  2  0
  9 10  1  0
 10 11  2  0
 11  2  1  0
 10  5  1  0
 19 14  1  0
  1 12  1  0
  1 13  1  0
M  END
> <minimizedAffinity>
-7.27284

> <CNNscore>
0.4640223384

> <CNNaffinity>
4.5818791389

> <CNN_VS>
2.1260943413

> <CNNaffinity_variance>
0.5948472619

$$$$



 19 21  0  0  0  0  0  0  0  0999 V2000
   68.7852   50.4832    7.8730 N   0  0  0  0  0  0  0  0  0  0  0  0
   69.8780   49.7130    8.2627 C   0  0  0  0  0  0  0  0  0  0  0  0
   69.7613   48.8039    9.3002 C   0  0  0  0  0  0  0  0  0  0  0  0
   70.8704   48.0394    9.6444 C   0  0  0  0  0  0  0  0  0  0  0  0
   72.0656   48.1995    8.9362 C   0  0  0  0  0  0  0  0  0  0  0  0
   73.2170   47.4494    9.2432 C   0  0  0  0  0  0  0  0  0  0  0  0
   74.3999   47.6278    8.5167 C   0  0  0  0  0  0  0  0  0  0  0  0
   74.4179   48.5691    7.4852 C   0  0  0  0  0  0  0  0  0  0  0  0
   73.2683   49.3101    7.1846 C   0  0  0  0  0  0  0  0  0  0  0  0
   72.0859   49.1448    7.8912 C   0  0  0  0  0  0  0  0  0  0  0  0
   71.0112   49.8837    7.5626 N   0  0  0  0  0  0  0  0  0  0  0  0
   67.9285   50.3994    8.3507 H   0  0  0  0  0  0  0  0  0  0  0  0
   68.8694   51.1115    7.1197 H   0  0  0  0  0  0  0  0  0  0  0  0
   75.6009   46.8616    8.8304 C   0  0  0  0  0  0  0  0  0  0  0  0
   76.4265   47.1925    9.8918 C   0  0  0  0  0  0  0  0  0  0  0  0
   77.7604   46.1237   10.0437 S   0  0  0  0  0  0  0  0  0  0  0  0
   77.2382   45.2177    8.7149 C   0  0  0  0  0  0  0  0  0  0  0  0
   77.8845   44.1363    8.2502 F   0  0  0  0  0  0  0  0  0  0  0  0
   76.0829   45.6940    8.1520 C   0  0  0  0  0  0  0  0  0  0  0  0
  1  2  1  0
  2  3  2  0
  3  4  1  0
  4  5  2  0
  5  6  1  0
  6  7  2  0
  7 14  1  0
 14 15  2  0
 15 16  1  0
 16 17  1  0
 17 18  1  0
 17 19  2  0
  7  8  1  0
  8  9  2  0
  9 10  1  0
 10 11  2  0
 11  2  1  0
 10  5  1  0
 19 14  1  0
  1 12  1  0
  1 13  1  0
M  END
> <minimizedAffinity>
-5.06359

> <CNNscore>
0.4617463946

> <CNNaffinity>
4.4160151482

> <CNN_VS>
2.0390791893

> <CNNaffinity_variance>
0.5806598067

$$$$



 19 21  0  0  0  0  0  0  0  0999 V2000
   67.2250   48.6423    5.9512 N   0  0  0  0  0  0  0  0  0  0  0  0
   66.5550   48.6546    7.1720 C   0  0  0  0  0  0  0  0  0  0  0  0
   66.6031   49.7724    7.9873 C   0  0  0  0  0  0  0  0  0  0  0  0
   65.9032   49.7518    9.1885 C   0  0  0  0  0  0  0  0  0  0  0  0
   65.1673   48.6154    9.5389 C   0  0  0  0  0  0  0  0  0  0  0  0
   64.4398   48.5436   10.7424 C   0  0  0  0  0  0  0  0  0  0  0  0
   63.7096   47.3948   11.0677 C   0  0  0  0  0  0  0  0  0  0  0  0
   63.7215   46.3184   10.1780 C   0  0  0  0  0  0  0  0  0  0  0  0
   64.4458   46.3979    8.9822 C   0  0  0  0  0  0  0  0  0  0  0  0
   65.1727   47.5291    8.6411 C   0  0  0  0  0  0  0  0  0  0  0  0
   65.8527   47.5525    7.4809 N   0  0  0  0  0  0  0  0  0  0  0  0
   67.7556   49.4234    5.6729 H   0  0  0  0  0  0  0  0  0  0  0  0
   67.1680   47.8523    5.3664 H   0  0  0  0  0  0  0  0  0  0  0  0
   62.9582   47.3064   12.3148 C   0  0  0  0  0  0  0  0  0  0  0  0
   61.9771   46.3498   12.5147 C   0  0  0  0  0  0  0  0  0  0  0  0
   61.2589   46.4612   14.0692 S   0  0  0  0  0  0  0  0  0  0  0  0
   62.2542   47.7647   14.4807 C   0  0  0  0  0  0  0  0  0  0  0  0
   62.2099   48.3902   15.6681 F   0  0  0  0  0  0  0  0  0  0  0  0
   63.1186   48.1261   13.4804 C   0  0  0  0  0  0  0  0  0  0  0  0
  1  2  1  0
  2  3  2  0
  3  4  1  0
  4  5  2  0
  5  6  1  0
  6  7  2  0
  7 14  1  0
 14 15  2  0
 15 16  1  0
 16 17  1  0
 17 18  1  0
 17 19  2  0
  7  8  1  0
  8  9  2  0
  9 10  1  0
 10 11  2  0
 11  2  1  0
 10  5  1  0
 19 14  1  0
  1 12  1  0
  1 13  1  0
M  END
> <minimizedAffinity>
-5.78866

> <CNNscore>
0.4603791535

> <CNNaffinity>
4.0708618164

> <CNN_VS>
1.8741399050

> <CNNaffinity_variance>
0.6831786036

$$$$



 19 21  0  0  0  0  0  0  0  0999 V2000
   67.5394   48.4653    5.9762 N   0  0  0  0  0  0  0  0  0  0  0  0
   66.7573   48.4179    7.1275 C   0  0  0  0  0  0  0  0  0  0  0  0
   66.5376   49.5629    7.8739 C   0  0  0  0  0  0  0  0  0  0  0  0
   65.7336   49.4770    9.0050 C   0  0  0  0  0  0  0  0  0  0  0  0
   65.1645   48.2486    9.3554 C   0  0  0  0  0  0  0  0  0  0  0  0
   64.3417   48.1078   10.4894 C   0  0  0  0  0  0  0  0  0  0  0  0
   63.7827   46.8670   10.8161 C   0  0  0  0  0  0  0  0  0  0  0  0
   64.0619   45.7696    9.9988 C   0  0  0  0  0  0  0  0  0  0  0  0
   64.8795   45.9178    8.8716 C   0  0  0  0  0  0  0  0  0  0  0  0
   65.4398   47.1401    8.5300 C   0  0  0  0  0  0  0  0  0  0  0  0
   66.2196   47.2271    7.4377 N   0  0  0  0  0  0  0  0  0  0  0  0
   67.9587   49.3123    5.7004 H   0  0  0  0  0  0  0  0  0  0  0  0
   67.6730   47.6518    5.4380 H   0  0  0  0  0  0  0  0  0  0  0  0
   62.9349   46.7076   11.9924 C   0  0  0  0  0  0  0  0  0  0  0  0
   63.3362   47.1284   13.2491 C   0  0  0  0  0  0  0  0  0  0  0  0
   62.1477   46.8321   14.4510 S   0  0  0  0  0  0  0  0  0  0  0  0
   61.0994   46.1600   13.3070 C   0  0  0  0  0  0  0  0  0  0  0  0
   59.8800   45.6826   13.6036 F   0  0  0  0  0  0  0  0  0  0  0  0
   61.6151   46.1487   12.0372 C   0  0  0  0  0  0  0  0  0  0  0  0
  1  2  1  0
  2  3  2  0
  3  4  1  0
  4  5  2  0
  5  6  1  0
  6  7  2  0
  7 14  1  0
 14 15  2  0
 15 16  1  0
 16 17  1  0
 17 18  1  0
 17 19  2  0
  7  8  1  0
  8  9  2  0
  9 10  1  0
 10 11  2  0
 11  2  1  0
 10  5  1  0
 19 14  1  0
  1 12  1  0
  1 13  1  0
M  END
> <minimizedAffinity>
-5.90575

> <CNNscore>
0.4426106215

> <CNNaffinity>
4.2348332405

> <CNN_VS>
1.8743821383

> <CNNaffinity_variance>
0.5819386840

$$$$
