


 30 32  0  0  0  0  0  0  0  0999 V2000
   12.4845   53.2794   89.5525 C   0  0  0  0  0  0  0  0  0  0  0  0
   12.9204   52.1952   89.9338 O   0  0  0  0  0  0  0  0  0  0  0  0
   11.9134   53.4681   88.3106 N   0  0  0  0  0  0  0  0  0  0  0  0
   11.8162   54.3807   87.9543 H   0  0  0  0  0  0  0  0  0  0  0  0
   12.3680   53.6721   92.7508 C   0  0  0  0  0  0  0  0  0  0  0  0
   11.2062   53.3186   92.5495 O   0  0  0  0  0  0  0  0  0  0  0  0
   13.0999   54.2647   91.7443 N   0  0  0  0  0  0  0  0  0  0  0  0
   14.4856   54.7098   91.8277 C   0  0  0  0  0  0  0  0  0  0  0  0
   14.8355   55.2054   90.4207 C   0  0  0  0  0  0  0  0  0  0  0  0
   15.7435   56.2925   90.4443 O   0  0  0  0  0  0  0  0  0  0  0  0
   13.4760   55.6086   89.8438 C   0  0  0  0  0  0  0  0  0  0  0  0
   12.5276   54.5577   90.4201 C   0  0  0  0  0  0  0  0  0  0  0  0
   15.3640   57.0195   90.9622 H   0  0  0  0  0  0  0  0  0  0  0  0
   13.0960   53.4495   94.0755 C   0  0  0  0  0  0  0  0  0  0  0  0
   12.7458   55.7053   95.0873 C   0  0  0  0  0  0  0  0  0  0  0  0
   12.5507   54.1918   95.3213 C   0  0  0  0  0  0  0  0  0  0  0  0
   11.0464   53.9317   95.5185 C   0  0  0  0  0  0  0  0  0  0  0  0
   13.3211   53.8135   96.5977 C   0  0  0  0  0  0  0  0  0  0  0  0
   11.4570   52.3458   87.5273 C   0  0  0  0  0  0  0  0  0  0  0  0
   12.3031   52.1961   86.2861 C   0  0  0  0  0  0  0  0  0  0  0  0
   12.2416   51.0322   85.5106 C   0  0  0  0  0  0  0  0  0  0  0  0
   13.0750   50.8788   84.3960 C   0  0  0  0  0  0  0  0  0  0  0  0
   13.9936   51.8776   84.0358 C   0  0  0  0  0  0  0  0  0  0  0  0
   14.0523   53.0395   84.8190 C   0  0  0  0  0  0  0  0  0  0  0  0
   13.2197   53.1954   85.9316 C   0  0  0  0  0  0  0  0  0  0  0  0
   14.8789   51.7145   82.8879 C   0  0  0  0  0  0  0  0  0  0  0  0
   16.2104   51.9705   82.6214 C   0  0  0  0  0  0  0  0  0  0  0  0
   16.5193   51.6157   81.3289 N   0  0  0  0  0  0  0  0  0  0  0  0
   15.3798   51.1616   80.8605 C   0  0  0  0  0  0  0  0  0  0  0  0
   14.3404   51.1808   81.7411 O   0  0  0  0  0  0  0  0  0  0  0  0
 15 16  1  0
 16 17  1  0
 16 18  1  0
 16 14  1  0
 14  5  1  0
  5  6  2  0
  5  7  1  0
  7  8  1  0
  8  9  1  0
  9 10  1  0
  9 11  1  0
 11 12  1  0
 12  1  1  0
  1  2  2  0
  1  3  1  0
  3 19  1  0
 19 20  1  0
 20 21  2  0
 21 22  1  0
 22 23  2  0
 23 26  1  0
 26 27  2  0
 27 28  1  0
 28 29  2  0
 29 30  1  0
 23 24  1  0
 24 25  2  0
 12  7  1  0
 25 20  1  0
 30 26  1  0
 10 13  1  0
  3  4  1  0
M  END
> <minimizedAffinity>
-8.21699

> <CNNscore>
0.9713179469

> <CNNaffinity>
6.3162078857

> <CNN_VS>
6.1350460052

> <CNNaffinity_variance>
0.3311890662

$$$$



 30 32  0  0  0  0  0  0  0  0999 V2000
   12.5855   52.9939   89.9501 C   0  0  0  0  0  0  0  0  0  0  0  0
   12.9839   52.0372   90.6111 O   0  0  0  0  0  0  0  0  0  0  0  0
   12.1598   52.8820   88.6423 N   0  0  0  0  0  0  0  0  0  0  0  0
   12.0965   53.6887   88.0814 H   0  0  0  0  0  0  0  0  0  0  0  0
   12.1465   54.0832   92.9530 C   0  0  0  0  0  0  0  0  0  0  0  0
   11.0174   53.6458   92.7310 O   0  0  0  0  0  0  0  0  0  0  0  0
   12.9621   54.4669   91.9102 N   0  0  0  0  0  0  0  0  0  0  0  0
   14.3237   54.9765   92.0177 C   0  0  0  0  0  0  0  0  0  0  0  0
   14.8007   55.1607   90.5734 C   0  0  0  0  0  0  0  0  0  0  0  0
   15.6801   56.2626   90.4343 O   0  0  0  0  0  0  0  0  0  0  0  0
   13.4970   55.3687   89.7983 C   0  0  0  0  0  0  0  0  0  0  0  0
   12.5174   54.4339   90.5074 C   0  0  0  0  0  0  0  0  0  0  0  0
   15.2370   57.0702   90.7380 H   0  0  0  0  0  0  0  0  0  0  0  0
   12.7446   54.1914   94.3548 C   0  0  0  0  0  0  0  0  0  0  0  0
   12.3428   54.5561   96.7921 C   0  0  0  0  0  0  0  0  0  0  0  0
   11.9972   55.0792   95.3813 C   0  0  0  0  0  0  0  0  0  0  0  0
   12.4528   56.5469   95.2941 C   0  0  0  0  0  0  0  0  0  0  0  0
   10.4709   54.9917   95.2118 C   0  0  0  0  0  0  0  0  0  0  0  0
   11.8063   51.5987   88.0859 C   0  0  0  0  0  0  0  0  0  0  0  0
   11.0118   51.7809   86.8152 C   0  0  0  0  0  0  0  0  0  0  0  0
   11.4242   51.1838   85.6181 C   0  0  0  0  0  0  0  0  0  0  0  0
   10.7138   51.4090   84.4327 C   0  0  0  0  0  0  0  0  0  0  0  0
    9.5832   52.2410   84.4131 C   0  0  0  0  0  0  0  0  0  0  0  0
    9.1776   52.8387   85.6153 C   0  0  0  0  0  0  0  0  0  0  0  0
    9.8846   52.6137   86.8006 C   0  0  0  0  0  0  0  0  0  0  0  0
    8.8513   52.4959   83.1772 C   0  0  0  0  0  0  0  0  0  0  0  0
    8.7682   51.8959   81.9352 C   0  0  0  0  0  0  0  0  0  0  0  0
    7.8987   52.5873   81.1240 N   0  0  0  0  0  0  0  0  0  0  0  0
    7.4882   53.5706   81.8913 C   0  0  0  0  0  0  0  0  0  0  0  0
    8.0110   53.5835   83.1492 O   0  0  0  0  0  0  0  0  0  0  0  0
 15 16  1  0
 16 17  1  0
 16 18  1  0
 16 14  1  0
 14  5  1  0
  5  6  2  0
  5  7  1  0
  7  8  1  0
  8  9  1  0
  9 10  1  0
  9 11  1  0
 11 12  1  0
 12  1  1  0
  1  2  2  0
  1  3  1  0
  3 19  1  0
 19 20  1  0
 20 21  2  0
 21 22  1  0
 22 23  2  0
 23 26  1  0
 26 27  2  0
 27 28  1  0
 28 29  2  0
 29 30  1  0
 23 24  1  0
 24 25  2  0
 12  7  1  0
 25 20  1  0
 30 26  1  0
 10 13  1  0
  3  4  1  0
M  END
> <minimizedAffinity>
-7.06546

> <CNNscore>
0.7449499369

> <CNNaffinity>
5.6409773827

> <CNN_VS>
4.2022457123

> <CNNaffinity_variance>
0.3252204359

$$$$



 30 32  0  0  0  0  0  0  0  0999 V2000
   13.8472   54.9144   90.9761 C   0  0  0  0  0  0  0  0  0  0  0  0
   14.9494   55.4269   91.1586 O   0  0  0  0  0  0  0  0  0  0  0  0
   13.3405   54.6420   89.7219 N   0  0  0  0  0  0  0  0  0  0  0  0
   12.3762   54.4764   89.6131 H   0  0  0  0  0  0  0  0  0  0  0  0
   11.0026   53.3962   90.9551 C   0  0  0  0  0  0  0  0  0  0  0  0
   10.6612   54.4694   90.4581 O   0  0  0  0  0  0  0  0  0  0  0  0
   12.1130   53.3276   91.7688 N   0  0  0  0  0  0  0  0  0  0  0  0
   12.6492   52.1298   92.4036 C   0  0  0  0  0  0  0  0  0  0  0  0
   13.9276   52.5871   93.1134 C   0  0  0  0  0  0  0  0  0  0  0  0
   14.1612   51.8717   94.3136 O   0  0  0  0  0  0  0  0  0  0  0  0
   13.6699   54.0733   93.3750 C   0  0  0  0  0  0  0  0  0  0  0  0
   12.9003   54.5174   92.1313 C   0  0  0  0  0  0  0  0  0  0  0  0
   13.4014   51.9788   94.9069 H   0  0  0  0  0  0  0  0  0  0  0  0
   10.2794   52.0777   90.6850 C   0  0  0  0  0  0  0  0  0  0  0  0
    7.9905   52.9766   91.1184 C   0  0  0  0  0  0  0  0  0  0  0  0
    8.8386   52.1584   90.1211 C   0  0  0  0  0  0  0  0  0  0  0  0
    8.8048   52.8823   88.7631 C   0  0  0  0  0  0  0  0  0  0  0  0
    8.1945   50.7676   89.9913 C   0  0  0  0  0  0  0  0  0  0  0  0
   14.2051   54.5968   88.5678 C   0  0  0  0  0  0  0  0  0  0  0  0
   13.5633   53.7896   87.4653 C   0  0  0  0  0  0  0  0  0  0  0  0
   12.5123   52.9066   87.7396 C   0  0  0  0  0  0  0  0  0  0  0  0
   11.9651   52.1180   86.7201 C   0  0  0  0  0  0  0  0  0  0  0  0
   12.4595   52.1859   85.4078 C   0  0  0  0  0  0  0  0  0  0  0  0
   13.5148   53.0703   85.1407 C   0  0  0  0  0  0  0  0  0  0  0  0
   14.0615   53.8599   86.1571 C   0  0  0  0  0  0  0  0  0  0  0  0
   11.9074   51.3519   84.3461 C   0  0  0  0  0  0  0  0  0  0  0  0
   11.8676   49.9982   84.0711 C   0  0  0  0  0  0  0  0  0  0  0  0
   11.1999   49.7663   82.8911 N   0  0  0  0  0  0  0  0  0  0  0  0
   10.8608   50.9714   82.4949 C   0  0  0  0  0  0  0  0  0  0  0  0
   11.2446   51.9844   83.3211 O   0  0  0  0  0  0  0  0  0  0  0  0
 15 16  1  0
 16 17  1  0
 16 18  1  0
 16 14  1  0
 14  5  1  0
  5  6  2  0
  5  7  1  0
  7  8  1  0
  8  9  1  0
  9 10  1  0
  9 11  1  0
 11 12  1  0
 12  1  1  0
  1  2  2  0
  1  3  1  0
  3 19  1  0
 19 20  1  0
 20 21  2  0
 21 22  1  0
 22 23  2  0
 23 26  1  0
 26 27  2  0
 27 28  1  0
 28 29  2  0
 29 30  1  0
 23 24  1  0
 24 25  2  0
 12  7  1  0
 25 20  1  0
 30 26  1  0
 10 13  1  0
  3  4  1  0
M  END
> <minimizedAffinity>
-6.00584

> <CNNscore>
0.6882312894

> <CNNaffinity>
5.8254332542

> <CNN_VS>
4.0092453957

> <CNNaffinity_variance>
0.0986129940

$$$$



 30 32  0  0  0  0  0  0  0  0999 V2000
   13.4354   53.8552   89.0712 C   0  0  0  0  0  0  0  0  0  0  0  0
   14.4034   54.5293   89.4169 O   0  0  0  0  0  0  0  0  0  0  0  0
   12.9823   53.7985   87.7691 N   0  0  0  0  0  0  0  0  0  0  0  0
   12.0750   53.4636   87.5848 H   0  0  0  0  0  0  0  0  0  0  0  0
   13.3315   53.8417   92.2940 C   0  0  0  0  0  0  0  0  0  0  0  0
   14.4538   53.3641   92.1272 O   0  0  0  0  0  0  0  0  0  0  0  0
   12.3734   53.7289   91.3095 N   0  0  0  0  0  0  0  0  0  0  0  0
   11.0176   54.2626   91.3549 C   0  0  0  0  0  0  0  0  0  0  0  0
   10.4110   53.9401   89.9855 C   0  0  0  0  0  0  0  0  0  0  0  0
    9.0219   53.6727   90.0626 O   0  0  0  0  0  0  0  0  0  0  0  0
   11.2049   52.7124   89.5316 C   0  0  0  0  0  0  0  0  0  0  0  0
   12.6125   52.9944   90.0563 C   0  0  0  0  0  0  0  0  0  0  0  0
    8.8684   52.9329   90.6708 H   0  0  0  0  0  0  0  0  0  0  0  0
   12.9272   54.6194   93.5454 C   0  0  0  0  0  0  0  0  0  0  0  0
   11.3224   53.0920   94.6973 C   0  0  0  0  0  0  0  0  0  0  0  0
   12.6835   53.8061   94.8414 C   0  0  0  0  0  0  0  0  0  0  0  0
   13.7655   52.7300   95.0432 C   0  0  0  0  0  0  0  0  0  0  0  0
   12.6062   54.7126   96.0817 C   0  0  0  0  0  0  0  0  0  0  0  0
   13.8203   54.2233   86.6743 C   0  0  0  0  0  0  0  0  0  0  0  0
   13.6791   53.2739   85.5091 C   0  0  0  0  0  0  0  0  0  0  0  0
   12.5000   52.5447   85.3151 C   0  0  0  0  0  0  0  0  0  0  0  0
   12.4022   51.6219   84.2665 C   0  0  0  0  0  0  0  0  0  0  0  0
   13.4801   51.3995   83.3948 C   0  0  0  0  0  0  0  0  0  0  0  0
   14.6595   52.1309   83.5971 C   0  0  0  0  0  0  0  0  0  0  0  0
   14.7587   53.0542   84.6426 C   0  0  0  0  0  0  0  0  0  0  0  0
   13.3912   50.4245   82.3135 C   0  0  0  0  0  0  0  0  0  0  0  0
   14.0564   50.2051   81.1223 C   0  0  0  0  0  0  0  0  0  0  0  0
   13.5348   49.1095   80.4746 N   0  0  0  0  0  0  0  0  0  0  0  0
   12.5832   48.7056   81.2842 C   0  0  0  0  0  0  0  0  0  0  0  0
   12.4357   49.4419   82.4208 O   0  0  0  0  0  0  0  0  0  0  0  0
 15 16  1  0
 16 17  1  0
 16 18  1  0
 16 14  1  0
 14  5  1  0
  5  6  2  0
  5  7  1  0
  7  8  1  0
  8  9  1  0
  9 10  1  0
  9 11  1  0
 11 12  1  0
 12  1  1  0
  1  2  2  0
  1  3  1  0
  3 19  1  0
 19 20  1  0
 20 21  2  0
 21 22  1  0
 22 23  2  0
 23 26  1  0
 26 27  2  0
 27 28  1  0
 28 29  2  0
 29 30  1  0
 23 24  1  0
 24 25  2  0
 12  7  1  0
 25 20  1  0
 30 26  1  0
 10 13  1  0
  3  4  1  0
M  END
> <minimizedAffinity>
-7.16444

> <CNNscore>
0.6429022551

> <CNNaffinity>
5.7958545685

> <CNN_VS>
3.7261679173

> <CNNaffinity_variance>
0.1472911686

$$$$



 30 32  0  0  0  0  0  0  0  0999 V2000
   13.8712   54.3361   91.7302 C   0  0  0  0  0  0  0  0  0  0  0  0
   14.5946   55.3005   91.9702 O   0  0  0  0  0  0  0  0  0  0  0  0
   13.4319   54.0202   90.4609 N   0  0  0  0  0  0  0  0  0  0  0  0
   12.6662   53.4115   90.3494 H   0  0  0  0  0  0  0  0  0  0  0  0
   12.3679   54.8963   94.5273 C   0  0  0  0  0  0  0  0  0  0  0  0
   13.4843   55.3323   94.8085 O   0  0  0  0  0  0  0  0  0  0  0  0
   12.2198   53.9461   93.5399 N   0  0  0  0  0  0  0  0  0  0  0  0
   10.9660   53.3590   93.0837 C   0  0  0  0  0  0  0  0  0  0  0  0
   11.3510   52.4380   91.9213 C   0  0  0  0  0  0  0  0  0  0  0  0
   10.5241   51.2901   91.8485 O   0  0  0  0  0  0  0  0  0  0  0  0
   12.8061   52.0756   92.2293 C   0  0  0  0  0  0  0  0  0  0  0  0
   13.3681   53.3667   92.8238 C   0  0  0  0  0  0  0  0  0  0  0  0
   10.5759   50.8008   92.6845 H   0  0  0  0  0  0  0  0  0  0  0  0
   11.0827   55.3878   95.1913 C   0  0  0  0  0  0  0  0  0  0  0  0
   11.7012   56.0388   97.5212 C   0  0  0  0  0  0  0  0  0  0  0  0
   11.1985   56.5852   96.1676 C   0  0  0  0  0  0  0  0  0  0  0  0
   12.2178   57.6241   95.6667 C   0  0  0  0  0  0  0  0  0  0  0  0
    9.8379   57.2596   96.4126 C   0  0  0  0  0  0  0  0  0  0  0  0
   14.0798   54.5700   89.2949 C   0  0  0  0  0  0  0  0  0  0  0  0
   13.5283   53.9340   88.0418 C   0  0  0  0  0  0  0  0  0  0  0  0
   12.4690   53.0211   88.1057 C   0  0  0  0  0  0  0  0  0  0  0  0
   12.0056   52.3912   86.9442 C   0  0  0  0  0  0  0  0  0  0  0  0
   12.5937   52.6507   85.6960 C   0  0  0  0  0  0  0  0  0  0  0  0
   13.6567   53.5638   85.6398 C   0  0  0  0  0  0  0  0  0  0  0  0
   14.1199   54.1952   86.7983 C   0  0  0  0  0  0  0  0  0  0  0  0
   12.1289   51.9820   84.4858 C   0  0  0  0  0  0  0  0  0  0  0  0
   10.9421   51.9265   83.7800 C   0  0  0  0  0  0  0  0  0  0  0  0
   11.0731   51.1083   82.6820 N   0  0  0  0  0  0  0  0  0  0  0  0
   12.3189   50.7004   82.7571 C   0  0  0  0  0  0  0  0  0  0  0  0
   13.0274   51.1877   83.8138 O   0  0  0  0  0  0  0  0  0  0  0  0
 15 16  1  0
 16 17  1  0
 16 18  1  0
 16 14  1  0
 14  5  1  0
  5  6  2  0
  5  7  1  0
  7  8  1  0
  8  9  1  0
  9 10  1  0
  9 11  1  0
 11 12  1  0
 12  1  1  0
  1  2  2  0
  1  3  1  0
  3 19  1  0
 19 20  1  0
 20 21  2  0
 21 22  1  0
 22 23  2  0
 23 26  1  0
 26 27  2  0
 27 28  1  0
 28 29  2  0
 29 30  1  0
 23 24  1  0
 24 25  2  0
 12  7  1  0
 25 20  1  0
 30 26  1  0
 10 13  1  0
  3  4  1  0
M  END
> <minimizedAffinity>
-7.21860

> <CNNscore>
0.5380126238

> <CNNaffinity>
5.5032448769

> <CNN_VS>
2.9608151913

> <CNNaffinity_variance>
0.5519871116

$$$$



 30 32  0  0  0  0  0  0  0  0999 V2000
   10.6779   49.2310   89.2626 C   0  0  0  0  0  0  0  0  0  0  0  0
   11.1675   48.1097   89.1449 O   0  0  0  0  0  0  0  0  0  0  0  0
   10.3251   50.0168   88.1846 N   0  0  0  0  0  0  0  0  0  0  0  0
   10.1825   50.9824   88.3134 H   0  0  0  0  0  0  0  0  0  0  0  0
   12.2572   51.5517   90.8493 C   0  0  0  0  0  0  0  0  0  0  0  0
   13.0767   50.6397   90.9594 O   0  0  0  0  0  0  0  0  0  0  0  0
   10.9221   51.2686   90.6562 N   0  0  0  0  0  0  0  0  0  0  0  0
    9.8470   52.2381   90.4849 C   0  0  0  0  0  0  0  0  0  0  0  0
    8.5902   51.4037   90.2172 C   0  0  0  0  0  0  0  0  0  0  0  0
    7.4233   52.0030   90.7518 O   0  0  0  0  0  0  0  0  0  0  0  0
    8.9071   50.0672   90.8930 C   0  0  0  0  0  0  0  0  0  0  0  0
   10.4030   49.8913   90.6326 C   0  0  0  0  0  0  0  0  0  0  0  0
    7.5339   52.1306   91.7070 H   0  0  0  0  0  0  0  0  0  0  0  0
   12.6393   53.0309   90.8671 C   0  0  0  0  0  0  0  0  0  0  0  0
   13.9577   54.8757   91.9128 C   0  0  0  0  0  0  0  0  0  0  0  0
   13.0962   53.6320   92.2200 C   0  0  0  0  0  0  0  0  0  0  0  0
   11.8952   54.0844   93.0698 C   0  0  0  0  0  0  0  0  0  0  0  0
   13.9657   52.6478   93.0209 C   0  0  0  0  0  0  0  0  0  0  0  0
   10.1622   49.4422   86.8713 C   0  0  0  0  0  0  0  0  0  0  0  0
   11.2986   49.8642   85.9716 C   0  0  0  0  0  0  0  0  0  0  0  0
   11.7797   51.1787   85.9901 C   0  0  0  0  0  0  0  0  0  0  0  0
   12.7928   51.5747   85.1084 C   0  0  0  0  0  0  0  0  0  0  0  0
   13.3416   50.6721   84.1837 C   0  0  0  0  0  0  0  0  0  0  0  0
   12.8525   49.3577   84.1683 C   0  0  0  0  0  0  0  0  0  0  0  0
   11.8420   48.9597   85.0490 C   0  0  0  0  0  0  0  0  0  0  0  0
   14.3826   51.0844   83.2487 C   0  0  0  0  0  0  0  0  0  0  0  0
   15.4180   51.9995   83.2618 C   0  0  0  0  0  0  0  0  0  0  0  0
   16.1011   51.9703   82.0683 N   0  0  0  0  0  0  0  0  0  0  0  0
   15.4659   51.0500   81.3800 C   0  0  0  0  0  0  0  0  0  0  0  0
   14.4195   50.4613   82.0238 O   0  0  0  0  0  0  0  0  0  0  0  0
 15 16  1  0
 16 17  1  0
 16 18  1  0
 16 14  1  0
 14  5  1  0
  5  6  2  0
  5  7  1  0
  7  8  1  0
  8  9  1  0
  9 10  1  0
  9 11  1  0
 11 12  1  0
 12  1  1  0
  1  2  2  0
  1  3  1  0
  3 19  1  0
 19 20  1  0
 20 21  2  0
 21 22  1  0
 22 23  2  0
 23 26  1  0
 26 27  2  0
 27 28  1  0
 28 29  2  0
 29 30  1  0
 23 24  1  0
 24 25  2  0
 12  7  1  0
 25 20  1  0
 30 26  1  0
 10 13  1  0
  3  4  1  0
M  END
> <minimizedAffinity>
-5.45339

> <CNNscore>
0.3260283172

> <CNNaffinity>
4.8474259377

> <CNN_VS>
1.5803980827

> <CNNaffinity_variance>
0.7590267062

$$$$



 30 32  0  0  0  0  0  0  0  0999 V2000
    9.5716   52.7126   84.3818 C   0  0  0  0  0  0  0  0  0  0  0  0
    8.9100   53.6001   84.9162 O   0  0  0  0  0  0  0  0  0  0  0  0
   10.2595   51.7518   85.0943 N   0  0  0  0  0  0  0  0  0  0  0  0
   10.9671   51.2313   84.6498 H   0  0  0  0  0  0  0  0  0  0  0  0
   11.1354   50.5358   82.5894 C   0  0  0  0  0  0  0  0  0  0  0  0
   12.1001   51.1357   83.0636 O   0  0  0  0  0  0  0  0  0  0  0  0
    9.9130   51.1624   82.4755 N   0  0  0  0  0  0  0  0  0  0  0  0
    8.6828   50.5743   81.9602 C   0  0  0  0  0  0  0  0  0  0  0  0
    7.6132   51.6570   82.1366 C   0  0  0  0  0  0  0  0  0  0  0  0
    6.6422   51.6264   81.1056 O   0  0  0  0  0  0  0  0  0  0  0  0
    8.4238   52.9556   82.1198 C   0  0  0  0  0  0  0  0  0  0  0  0
    9.7111   52.5719   82.8490 C   0  0  0  0  0  0  0  0  0  0  0  0
    7.0793   51.7353   80.2465 H   0  0  0  0  0  0  0  0  0  0  0  0
   11.1910   49.0754   82.1439 C   0  0  0  0  0  0  0  0  0  0  0  0
   11.2245   49.1386   79.6479 C   0  0  0  0  0  0  0  0  0  0  0  0
   12.0452   48.7440   80.8945 C   0  0  0  0  0  0  0  0  0  0  0  0
   13.3547   49.5529   80.8766 C   0  0  0  0  0  0  0  0  0  0  0  0
   12.3547   47.2407   80.7932 C   0  0  0  0  0  0  0  0  0  0  0  0
    9.9555   51.4998   86.4820 C   0  0  0  0  0  0  0  0  0  0  0  0
   10.9608   52.1910   87.3711 C   0  0  0  0  0  0  0  0  0  0  0  0
   10.7177   52.3527   88.7402 C   0  0  0  0  0  0  0  0  0  0  0  0
   11.6287   53.0488   89.5441 C   0  0  0  0  0  0  0  0  0  0  0  0
   12.7964   53.6062   88.9992 C   0  0  0  0  0  0  0  0  0  0  0  0
   13.0320   53.4434   87.6263 C   0  0  0  0  0  0  0  0  0  0  0  0
   12.1243   52.7472   86.8221 C   0  0  0  0  0  0  0  0  0  0  0  0
   13.7388   54.3502   89.8277 C   0  0  0  0  0  0  0  0  0  0  0  0
   14.6177   55.3978   89.6289 C   0  0  0  0  0  0  0  0  0  0  0  0
   15.2813   55.6973   90.7959 N   0  0  0  0  0  0  0  0  0  0  0  0
   14.7889   54.8329   91.6529 C   0  0  0  0  0  0  0  0  0  0  0  0
   13.8466   53.9875   91.1494 O   0  0  0  0  0  0  0  0  0  0  0  0
 15 16  1  0
 16 17  1  0
 16 18  1  0
 16 14  1  0
 14  5  1  0
  5  6  2  0
  5  7  1  0
  7  8  1  0
  8  9  1  0
  9 10  1  0
  9 11  1  0
 11 12  1  0
 12  1  1  0
  1  2  2  0
  1  3  1  0
  3 19  1  0
 19 20  1  0
 20 21  2  0
 21 22  1  0
 22 23  2  0
 23 26  1  0
 26 27  2  0
 27 28  1  0
 28 29  2  0
 29 30  1  0
 23 24  1  0
 24 25  2  0
 12  7  1  0
 25 20  1  0
 30 26  1  0
 10 13  1  0
  3  4  1  0
M  END
> <minimizedAffinity>
-7.19205

> <CNNscore>
0.3050110042

> <CNNaffinity>
5.4921822548

> <CNN_VS>
1.6751760244

> <CNNaffinity_variance>
0.7797454000

$$$$



 30 32  0  0  0  0  0  0  0  0999 V2000
   13.6951   54.3706   91.1227 C   0  0  0  0  0  0  0  0  0  0  0  0
   14.8848   54.3574   91.4316 O   0  0  0  0  0  0  0  0  0  0  0  0
   13.2512   54.6305   89.8423 N   0  0  0  0  0  0  0  0  0  0  0  0
   12.3105   54.8812   89.6959 H   0  0  0  0  0  0  0  0  0  0  0  0
   11.6124   51.9206   91.3603 C   0  0  0  0  0  0  0  0  0  0  0  0
   11.1745   52.4585   90.3433 O   0  0  0  0  0  0  0  0  0  0  0  0
   12.3310   52.6526   92.2809 N   0  0  0  0  0  0  0  0  0  0  0  0
   12.9291   52.1492   93.5113 C   0  0  0  0  0  0  0  0  0  0  0  0
   13.6819   53.3412   94.1112 C   0  0  0  0  0  0  0  0  0  0  0  0
   13.6710   53.3261   95.5276 O   0  0  0  0  0  0  0  0  0  0  0  0
   12.9302   54.5495   93.5468 C   0  0  0  0  0  0  0  0  0  0  0  0
   12.5584   54.0996   92.1342 C   0  0  0  0  0  0  0  0  0  0  0  0
   12.7540   53.3256   95.8439 H   0  0  0  0  0  0  0  0  0  0  0  0
   11.4465   50.4318   91.6609 C   0  0  0  0  0  0  0  0  0  0  0  0
   11.4390   48.0177   91.0229 C   0  0  0  0  0  0  0  0  0  0  0  0
   11.4840   49.4543   90.4594 C   0  0  0  0  0  0  0  0  0  0  0  0
   10.2630   49.6428   89.5414 C   0  0  0  0  0  0  0  0  0  0  0  0
   12.7809   49.5959   89.6447 C   0  0  0  0  0  0  0  0  0  0  0  0
   14.1473   54.5396   88.7153 C   0  0  0  0  0  0  0  0  0  0  0  0
   13.5113   53.7383   87.6051 C   0  0  0  0  0  0  0  0  0  0  0  0
   13.9225   53.8987   86.2767 C   0  0  0  0  0  0  0  0  0  0  0  0
   13.2843   53.1953   85.2477 C   0  0  0  0  0  0  0  0  0  0  0  0
   12.2172   52.3244   85.5196 C   0  0  0  0  0  0  0  0  0  0  0  0
   11.8083   52.1710   86.8523 C   0  0  0  0  0  0  0  0  0  0  0  0
   12.4453   52.8712   87.8815 C   0  0  0  0  0  0  0  0  0  0  0  0
   11.5351   51.6048   84.4497 C   0  0  0  0  0  0  0  0  0  0  0  0
   11.3834   50.2795   84.0891 C   0  0  0  0  0  0  0  0  0  0  0  0
   10.6189   50.1750   82.9504 N   0  0  0  0  0  0  0  0  0  0  0  0
   10.3356   51.4243   82.6621 C   0  0  0  0  0  0  0  0  0  0  0  0
   10.8456   52.3494   83.5223 O   0  0  0  0  0  0  0  0  0  0  0  0
 15 16  1  0
 16 17  1  0
 16 18  1  0
 16 14  1  0
 14  5  1  0
  5  6  2  0
  5  7  1  0
  7  8  1  0
  8  9  1  0
  9 10  1  0
  9 11  1  0
 11 12  1  0
 12  1  1  0
  1  2  2  0
  1  3  1  0
  3 19  1  0
 19 20  1  0
 20 21  2  0
 21 22  1  0
 22 23  2  0
 23 26  1  0
 26 27  2  0
 27 28  1  0
 28 29  2  0
 29 30  1  0
 23 24  1  0
 24 25  2  0
 12  7  1  0
 25 20  1  0
 30 26  1  0
 10 13  1  0
  3  4  1  0
M  END
> <minimizedAffinity>
-5.67351

> <CNNscore>
0.2803881764

> <CNNaffinity>
4.9981474876

> <CNN_VS>
1.4014214277

> <CNNaffinity_variance>
0.2268454283

$$$$



 30 32  0  0  0  0  0  0  0  0999 V2000
   10.2556   51.3692   82.9657 C   0  0  0  0  0  0  0  0  0  0  0  0
   10.3172   50.1560   82.7776 O   0  0  0  0  0  0  0  0  0  0  0  0
   10.8911   52.0032   84.0136 N   0  0  0  0  0  0  0  0  0  0  0  0
   10.6131   52.9115   84.2723 H   0  0  0  0  0  0  0  0  0  0  0  0
   10.1114   51.5951   79.7524 C   0  0  0  0  0  0  0  0  0  0  0  0
   11.2547   52.0146   79.9321 O   0  0  0  0  0  0  0  0  0  0  0  0
    9.1715   51.6832   80.7566 N   0  0  0  0  0  0  0  0  0  0  0  0
    7.7941   51.2094   80.6980 C   0  0  0  0  0  0  0  0  0  0  0  0
    7.2188   51.4674   82.0944 C   0  0  0  0  0  0  0  0  0  0  0  0
    5.8414   51.7958   82.0559 O   0  0  0  0  0  0  0  0  0  0  0  0
    8.0691   52.6297   82.6137 C   0  0  0  0  0  0  0  0  0  0  0  0
    9.4569   52.3248   82.0504 C   0  0  0  0  0  0  0  0  0  0  0  0
    5.7111   52.5790   81.4987 H   0  0  0  0  0  0  0  0  0  0  0  0
    9.6591   50.9171   78.4601 C   0  0  0  0  0  0  0  0  0  0  0  0
    8.3237   51.0285   76.3531 C   0  0  0  0  0  0  0  0  0  0  0  0
    9.2637   51.8340   77.2755 C   0  0  0  0  0  0  0  0  0  0  0  0
    8.5013   53.0810   77.7583 C   0  0  0  0  0  0  0  0  0  0  0  0
   10.4866   52.2553   76.4429 C   0  0  0  0  0  0  0  0  0  0  0  0
   11.9577   51.3527   84.7353 C   0  0  0  0  0  0  0  0  0  0  0  0
   12.4180   52.2202   85.8817 C   0  0  0  0  0  0  0  0  0  0  0  0
   13.3662   53.2307   85.6826 C   0  0  0  0  0  0  0  0  0  0  0  0
   13.8311   53.9889   86.7640 C   0  0  0  0  0  0  0  0  0  0  0  0
   13.3682   53.7504   88.0678 C   0  0  0  0  0  0  0  0  0  0  0  0
   12.4209   52.7343   88.2606 C   0  0  0  0  0  0  0  0  0  0  0  0
   11.9540   51.9771   87.1818 C   0  0  0  0  0  0  0  0  0  0  0  0
   13.8643   54.5232   89.2012 C   0  0  0  0  0  0  0  0  0  0  0  0
   13.2993   55.3226   90.1766 C   0  0  0  0  0  0  0  0  0  0  0  0
   14.2710   55.8205   91.0131 N   0  0  0  0  0  0  0  0  0  0  0  0
   15.3787   55.3128   90.5240 C   0  0  0  0  0  0  0  0  0  0  0  0
   15.2192   54.5123   89.4333 O   0  0  0  0  0  0  0  0  0  0  0  0
 15 16  1  0
 16 17  1  0
 16 18  1  0
 16 14  1  0
 14  5  1  0
  5  6  2  0
  5  7  1  0
  7  8  1  0
  8  9  1  0
  9 10  1  0
  9 11  1  0
 11 12  1  0
 12  1  1  0
  1  2  2  0
  1  3  1  0
  3 19  1  0
 19 20  1  0
 20 21  2  0
 21 22  1  0
 22 23  2  0
 23 26  1  0
 26 27  2  0
 27 28  1  0
 28 29  2  0
 29 30  1  0
 23 24  1  0
 24 25  2  0
 12  7  1  0
 25 20  1  0
 30 26  1  0
 10 13  1  0
  3  4  1  0
M  END
> <minimizedAffinity>
-7.71720

> <CNNscore>
0.2770636082

> <CNNaffinity>
5.1364846230

> <CNN_VS>
1.4231330156

> <CNNaffinity_variance>
0.6436729431

$$$$
