


 26 27  0  0  0  0  0  0  0  0999 V2000
  -40.7248  -60.0840  -49.1144 C   0  0  0  0  0  0  0  0  0  0  0  0
  -39.3730  -59.3583  -48.9019 C   0  0  0  0  0  0  0  0  0  0  0  0
  -38.2116  -60.1968  -49.4674 C   0  0  0  0  0  0  0  0  0  0  0  0
  -38.4276  -60.5854  -50.9345 C   0  0  0  0  0  0  0  0  0  0  0  0
  -38.4394  -59.3751  -51.7068 O   0  0  0  0  0  0  0  0  0  0  0  0
  -39.7658  -61.2893  -51.1329 C   0  0  0  0  0  0  0  0  0  0  0  0
  -40.9354  -60.4616  -50.5991 C   0  0  0  0  0  0  0  0  0  0  0  0
  -37.5950  -58.9113  -51.5940 H   0  0  0  0  0  0  0  0  0  0  0  0
  -37.2930  -61.4895  -51.4353 C   0  0  0  0  0  0  0  0  0  0  0  0
  -36.1049  -61.2980  -51.2157 O   0  0  0  0  0  0  0  0  0  0  0  0
  -37.6931  -62.5279  -52.1904 O   0  0  0  0  0  0  0  0  0  0  0  0
  -38.6057  -62.6653  -52.3523 H   0  0  0  0  0  0  0  0  0  0  0  0
  -42.5959  -59.7368  -47.6823 C   0  0  0  0  0  0  0  0  0  0  0  0
  -41.7695  -59.1847  -48.7001 O   0  0  0  0  0  0  0  0  0  0  0  0
  -42.1080  -61.2857  -50.7341 O   0  0  0  0  0  0  0  0  0  0  0  0
  -42.0185  -62.1743  -51.8419 C   0  0  0  0  0  0  0  0  0  0  0  0
  -39.1677  -59.0316  -47.4031 C   0  0  0  0  0  0  0  0  0  0  0  0
  -38.6235  -60.1707  -46.5368 C   0  0  0  0  0  0  0  0  0  0  0  0
  -39.6070  -60.6648  -45.4777 C   0  0  0  0  0  0  0  0  0  0  0  0
  -38.9938  -60.4823  -44.1999 O   0  0  0  0  0  0  0  0  0  0  0  0
  -37.7699  -61.0633  -44.0108 C   0  0  0  0  0  0  0  0  0  0  0  0
  -37.4655  -62.0542  -43.0763 C   0  0  0  0  0  0  0  0  0  0  0  0
  -36.1651  -62.5617  -42.9890 C   0  0  0  0  0  0  0  0  0  0  0  0
  -35.1653  -62.0821  -43.8336 C   0  0  0  0  0  0  0  0  0  0  0  0
  -35.4635  -61.0931  -44.7675 C   0  0  0  0  0  0  0  0  0  0  0  0
  -36.7616  -60.5872  -44.8535 C   0  0  0  0  0  0  0  0  0  0  0  0
 13 14  1  0
  1 14  1  0
  1  2  1  0
  2 17  1  0
 17 18  1  0
 18 19  1  0
 19 20  1  0
 20 21  1  0
 21 22  2  0
 22 23  1  0
 23 24  2  0
 24 25  1  0
 25 26  2  0
  2  3  1  0
  3  4  1  0
  4  5  1  0
  4  9  1  0
  9 10  2  0
  9 11  1  0
  4  6  1  0
  6  7  1  0
  7 15  1  0
 15 16  1  0
  7  1  1  0
 26 21  1  0
  5  8  1  0
 11 12  1  0
M  END
> <minimizedAffinity>
-8.88486

> <CNNscore>
0.9012813568

> <CNNaffinity>
5.8165574074

> <CNN_VS>
5.2423548698

> <CNNaffinity_variance>
0.0217484031

$$$$



 26 27  0  0  0  0  0  0  0  0999 V2000
  -39.9309  -60.1555  -47.5295 C   0  0  0  0  0  0  0  0  0  0  0  0
  -38.4653  -59.6551  -47.5560 C   0  0  0  0  0  0  0  0  0  0  0  0
  -37.6644  -60.3778  -48.6552 C   0  0  0  0  0  0  0  0  0  0  0  0
  -38.3296  -60.2723  -50.0323 C   0  0  0  0  0  0  0  0  0  0  0  0
  -38.3332  -58.8863  -50.4075 O   0  0  0  0  0  0  0  0  0  0  0  0
  -39.7748  -60.7575  -49.9913 C   0  0  0  0  0  0  0  0  0  0  0  0
  -40.5938  -60.0346  -48.9214 C   0  0  0  0  0  0  0  0  0  0  0  0
  -37.4211  -58.5577  -50.4394 H   0  0  0  0  0  0  0  0  0  0  0  0
  -37.5485  -61.0746  -51.0819 C   0  0  0  0  0  0  0  0  0  0  0  0
  -36.3295  -61.1722  -51.1147 O   0  0  0  0  0  0  0  0  0  0  0  0
  -38.3098  -61.6598  -52.0234 O   0  0  0  0  0  0  0  0  0  0  0  0
  -39.2426  -61.5787  -51.9887 H   0  0  0  0  0  0  0  0  0  0  0  0
  -41.3830  -60.1094  -45.6422 C   0  0  0  0  0  0  0  0  0  0  0  0
  -40.6509  -59.3390  -46.5879 O   0  0  0  0  0  0  0  0  0  0  0  0
  -41.8864  -60.6682  -48.9058 O   0  0  0  0  0  0  0  0  0  0  0  0
  -42.9417  -59.7364  -48.6991 C   0  0  0  0  0  0  0  0  0  0  0  0
  -37.8126  -59.8281  -46.1634 C   0  0  0  0  0  0  0  0  0  0  0  0
  -36.5638  -60.7125  -46.1131 C   0  0  0  0  0  0  0  0  0  0  0  0
  -35.9355  -60.8150  -44.7247 C   0  0  0  0  0  0  0  0  0  0  0  0
  -36.4314  -62.0074  -44.1129 O   0  0  0  0  0  0  0  0  0  0  0  0
  -37.3315  -61.8537  -43.0944 C   0  0  0  0  0  0  0  0  0  0  0  0
  -37.0396  -61.8692  -41.7297 C   0  0  0  0  0  0  0  0  0  0  0  0
  -38.0624  -61.7000  -40.7908 C   0  0  0  0  0  0  0  0  0  0  0  0
  -39.3785  -61.5147  -41.2108 C   0  0  0  0  0  0  0  0  0  0  0  0
  -39.6753  -61.4988  -42.5712 C   0  0  0  0  0  0  0  0  0  0  0  0
  -38.6537  -61.6681  -43.5074 C   0  0  0  0  0  0  0  0  0  0  0  0
 13 14  1  0
  1 14  1  0
  1  2  1  0
  2 17  1  0
 17 18  1  0
 18 19  1  0
 19 20  1  0
 20 21  1  0
 21 22  2  0
 22 23  1  0
 23 24  2  0
 24 25  1  0
 25 26  2  0
  2  3  1  0
  3  4  1  0
  4  5  1  0
  4  9  1  0
  9 10  2  0
  9 11  1  0
  4  6  1  0
  6  7  1  0
  7 15  1  0
 15 16  1  0
  7  1  1  0
 26 21  1  0
  5  8  1  0
 11 12  1  0
M  END
> <minimizedAffinity>
-7.78657

> <CNNscore>
0.6711341739

> <CNNaffinity>
5.4032530785

> <CNN_VS>
3.6263077259

> <CNNaffinity_variance>
0.0804464445

$$$$



 26 27  0  0  0  0  0  0  0  0999 V2000
  -41.0854  -60.2901  -49.4049 C   0  0  0  0  0  0  0  0  0  0  0  0
  -39.7354  -59.6982  -48.9289 C   0  0  0  0  0  0  0  0  0  0  0  0
  -38.5557  -60.4970  -49.5137 C   0  0  0  0  0  0  0  0  0  0  0  0
  -38.6233  -60.6110  -51.0410 C   0  0  0  0  0  0  0  0  0  0  0  0
  -38.4962  -59.2868  -51.5811 O   0  0  0  0  0  0  0  0  0  0  0  0
  -39.9604  -61.1847  -51.4980 C   0  0  0  0  0  0  0  0  0  0  0  0
  -41.1451  -60.3905  -50.9469 C   0  0  0  0  0  0  0  0  0  0  0  0
  -37.6502  -58.9033  -51.3014 H   0  0  0  0  0  0  0  0  0  0  0  0
  -37.4803  -61.4838  -51.5771 C   0  0  0  0  0  0  0  0  0  0  0  0
  -36.3003  -61.3340  -51.2915 O   0  0  0  0  0  0  0  0  0  0  0  0
  -37.8613  -62.4403  -52.4423 O   0  0  0  0  0  0  0  0  0  0  0  0
  -38.7679  -62.5463  -52.6540 H   0  0  0  0  0  0  0  0  0  0  0  0
  -42.8489  -59.9486  -47.8410 C   0  0  0  0  0  0  0  0  0  0  0  0
  -42.1296  -59.4127  -48.9452 O   0  0  0  0  0  0  0  0  0  0  0  0
  -42.3300  -61.1038  -51.3464 O   0  0  0  0  0  0  0  0  0  0  0  0
  -42.0372  -62.1951  -52.2113 C   0  0  0  0  0  0  0  0  0  0  0  0
  -39.6847  -59.6499  -47.3828 C   0  0  0  0  0  0  0  0  0  0  0  0
  -38.3505  -59.2171  -46.7688 C   0  0  0  0  0  0  0  0  0  0  0  0
  -37.7296  -60.2612  -45.8429 C   0  0  0  0  0  0  0  0  0  0  0  0
  -38.7562  -60.7237  -44.9631 O   0  0  0  0  0  0  0  0  0  0  0  0
  -38.3727  -61.0957  -43.7038 C   0  0  0  0  0  0  0  0  0  0  0  0
  -37.0938  -61.5016  -43.3199 C   0  0  0  0  0  0  0  0  0  0  0  0
  -36.8391  -61.8573  -41.9914 C   0  0  0  0  0  0  0  0  0  0  0  0
  -37.8592  -61.8089  -41.0428 C   0  0  0  0  0  0  0  0  0  0  0  0
  -39.1372  -61.4050  -41.4206 C   0  0  0  0  0  0  0  0  0  0  0  0
  -39.3903  -61.0504  -42.7468 C   0  0  0  0  0  0  0  0  0  0  0  0
 13 14  1  0
  1 14  1  0
  1  2  1  0
  2 17  1  0
 17 18  1  0
 18 19  1  0
 19 20  1  0
 20 21  1  0
 21 22  2  0
 22 23  1  0
 23 24  2  0
 24 25  1  0
 25 26  2  0
  2  3  1  0
  3  4  1  0
  4  5  1  0
  4  9  1  0
  9 10  2  0
  9 11  1  0
  4  6  1  0
  6  7  1  0
  7 15  1  0
 15 16  1  0
  7  1  1  0
 26 21  1  0
  5  8  1  0
 11 12  1  0
M  END
> <minimizedAffinity>
-8.41097

> <CNNscore>
0.5934475660

> <CNNaffinity>
4.9606685638

> <CNN_VS>
2.9438967705

> <CNNaffinity_variance>
0.2185035199

$$$$



 26 27  0  0  0  0  0  0  0  0999 V2000
  -40.8665  -59.4174  -47.5189 C   0  0  0  0  0  0  0  0  0  0  0  0
  -42.1254  -59.9821  -48.2227 C   0  0  0  0  0  0  0  0  0  0  0  0
  -41.9892  -59.8689  -49.7526 C   0  0  0  0  0  0  0  0  0  0  0  0
  -40.7022  -60.5158  -50.2772 C   0  0  0  0  0  0  0  0  0  0  0  0
  -40.7799  -61.9227  -50.0013 O   0  0  0  0  0  0  0  0  0  0  0  0
  -39.4710  -59.9597  -49.5696 C   0  0  0  0  0  0  0  0  0  0  0  0
  -39.5763  -60.0846  -48.0493 C   0  0  0  0  0  0  0  0  0  0  0  0
  -41.5582  -62.2964  -50.4434 H   0  0  0  0  0  0  0  0  0  0  0  0
  -40.5614  -60.3082  -51.7913 C   0  0  0  0  0  0  0  0  0  0  0  0
  -39.5607  -60.5825  -52.4392 O   0  0  0  0  0  0  0  0  0  0  0  0
  -41.6324  -59.7518  -52.3846 O   0  0  0  0  0  0  0  0  0  0  0  0
  -42.3938  -59.5457  -51.8788 H   0  0  0  0  0  0  0  0  0  0  0  0
  -40.9538  -61.0799  -45.8157 C   0  0  0  0  0  0  0  0  0  0  0  0
  -40.9980  -59.6891  -46.1116 O   0  0  0  0  0  0  0  0  0  0  0  0
  -38.4210  -59.4173  -47.5085 O   0  0  0  0  0  0  0  0  0  0  0  0
  -37.6380  -60.2749  -46.6862 C   0  0  0  0  0  0  0  0  0  0  0  0
  -43.3970  -59.2671  -47.7059 C   0  0  0  0  0  0  0  0  0  0  0  0
  -44.2061  -60.0202  -46.6464 C   0  0  0  0  0  0  0  0  0  0  0  0
  -45.7076  -59.7465  -46.7065 C   0  0  0  0  0  0  0  0  0  0  0  0
  -46.2202  -60.4019  -47.8682 O   0  0  0  0  0  0  0  0  0  0  0  0
  -47.1889  -59.7436  -48.5751 C   0  0  0  0  0  0  0  0  0  0  0  0
  -48.5401  -59.6595  -48.2365 C   0  0  0  0  0  0  0  0  0  0  0  0
  -49.4263  -58.9508  -49.0541 C   0  0  0  0  0  0  0  0  0  0  0  0
  -48.9668  -58.3241  -50.2113 C   0  0  0  0  0  0  0  0  0  0  0  0
  -47.6195  -58.4052  -50.5540 C   0  0  0  0  0  0  0  0  0  0  0  0
  -46.7360  -59.1131  -49.7373 C   0  0  0  0  0  0  0  0  0  0  0  0
 13 14  1  0
  1 14  1  0
  1  2  1  0
  2 17  1  0
 17 18  1  0
 18 19  1  0
 19 20  1  0
 20 21  1  0
 21 22  2  0
 22 23  1  0
 23 24  2  0
 24 25  1  0
 25 26  2  0
  2  3  1  0
  3  4  1  0
  4  5  1  0
  4  9  1  0
  9 10  2  0
  9 11  1  0
  4  6  1  0
  6  7  1  0
  7 15  1  0
 15 16  1  0
  7  1  1  0
 26 21  1  0
  5  8  1  0
 11 12  1  0
M  END
> <minimizedAffinity>
-6.98971

> <CNNscore>
0.5284413099

> <CNNaffinity>
5.0217666626

> <CNN_VS>
2.6537089348

> <CNNaffinity_variance>
0.2204025537

$$$$



 26 27  0  0  0  0  0  0  0  0999 V2000
  -40.0881  -59.9582  -49.4385 C   0  0  0  0  0  0  0  0  0  0  0  0
  -40.0753  -59.9161  -47.8902 C   0  0  0  0  0  0  0  0  0  0  0  0
  -41.3608  -59.2590  -47.3541 C   0  0  0  0  0  0  0  0  0  0  0  0
  -42.6308  -59.9237  -47.8975 C   0  0  0  0  0  0  0  0  0  0  0  0
  -42.6569  -61.2738  -47.4095 O   0  0  0  0  0  0  0  0  0  0  0  0
  -42.6271  -59.9690  -49.4218 C   0  0  0  0  0  0  0  0  0  0  0  0
  -41.3688  -60.6398  -49.9740 C   0  0  0  0  0  0  0  0  0  0  0  0
  -42.6597  -61.2671  -46.4396 H   0  0  0  0  0  0  0  0  0  0  0  0
  -43.8867  -59.1890  -47.4090 C   0  0  0  0  0  0  0  0  0  0  0  0
  -43.8753  -58.1760  -46.7233 O   0  0  0  0  0  0  0  0  0  0  0  0
  -45.0489  -59.7657  -47.7628 O   0  0  0  0  0  0  0  0  0  0  0  0
  -45.0461  -60.5415  -48.2883 H   0  0  0  0  0  0  0  0  0  0  0  0
  -38.0551  -59.9518  -50.6792 C   0  0  0  0  0  0  0  0  0  0  0  0
  -38.9368  -60.7116  -49.8613 O   0  0  0  0  0  0  0  0  0  0  0  0
  -41.4344  -60.5046  -51.4057 O   0  0  0  0  0  0  0  0  0  0  0  0
  -41.5959  -61.7581  -52.0593 C   0  0  0  0  0  0  0  0  0  0  0  0
  -38.8059  -59.1907  -47.3824 C   0  0  0  0  0  0  0  0  0  0  0  0
  -38.1932  -59.7369  -46.0899 C   0  0  0  0  0  0  0  0  0  0  0  0
  -39.1949  -60.4535  -45.1866 C   0  0  0  0  0  0  0  0  0  0  0  0
  -38.6019  -60.5714  -43.8918 O   0  0  0  0  0  0  0  0  0  0  0  0
  -37.3951  -61.2114  -43.8183 C   0  0  0  0  0  0  0  0  0  0  0  0
  -37.0476  -62.2091  -42.9065 C   0  0  0  0  0  0  0  0  0  0  0  0
  -35.7714  -62.7802  -42.9429 C   0  0  0  0  0  0  0  0  0  0  0  0
  -34.8390  -62.3577  -43.8889 C   0  0  0  0  0  0  0  0  0  0  0  0
  -35.1804  -61.3622  -44.8008 C   0  0  0  0  0  0  0  0  0  0  0  0
  -36.4544  -60.7927  -44.7633 C   0  0  0  0  0  0  0  0  0  0  0  0
 13 14  1  0
  1 14  1  0
  1  2  1  0
  2 17  1  0
 17 18  1  0
 18 19  1  0
 19 20  1  0
 20 21  1  0
 21 22  2  0
 22 23  1  0
 23 24  2  0
 24 25  1  0
 25 26  2  0
  2  3  1  0
  3  4  1  0
  4  5  1  0
  4  9  1  0
  9 10  2  0
  9 11  1  0
  4  6  1  0
  6  7  1  0
  7 15  1  0
 15 16  1  0
  7  1  1  0
 26 21  1  0
  5  8  1  0
 11 12  1  0
M  END
> <minimizedAffinity>
-6.82813

> <CNNscore>
0.2485746741

> <CNNaffinity>
4.5769000053

> <CNN_VS>
1.1377013922

> <CNNaffinity_variance>
0.2683442831

$$$$



 26 27  0  0  0  0  0  0  0  0999 V2000
  -42.9942  -59.6109  -46.1310 C   0  0  0  0  0  0  0  0  0  0  0  0
  -41.7515  -60.2743  -46.7750 C   0  0  0  0  0  0  0  0  0  0  0  0
  -41.3783  -61.5684  -46.0280 C   0  0  0  0  0  0  0  0  0  0  0  0
  -42.5555  -62.5442  -45.9191 C   0  0  0  0  0  0  0  0  0  0  0  0
  -42.9030  -62.9553  -47.2502 O   0  0  0  0  0  0  0  0  0  0  0  0
  -43.7759  -61.8769  -45.2938 C   0  0  0  0  0  0  0  0  0  0  0  0
  -44.1775  -60.6018  -46.0361 C   0  0  0  0  0  0  0  0  0  0  0  0
  -42.1383  -63.3831  -47.6664 H   0  0  0  0  0  0  0  0  0  0  0  0
  -42.1689  -63.7808  -45.0965 C   0  0  0  0  0  0  0  0  0  0  0  0
  -41.9121  -64.8782  -45.5723 O   0  0  0  0  0  0  0  0  0  0  0  0
  -42.1623  -63.5911  -43.7652 O   0  0  0  0  0  0  0  0  0  0  0  0
  -42.3605  -62.7464  -43.4113 H   0  0  0  0  0  0  0  0  0  0  0  0
  -44.7811  -58.3843  -47.1185 C   0  0  0  0  0  0  0  0  0  0  0  0
  -43.3717  -58.4985  -46.9627 O   0  0  0  0  0  0  0  0  0  0  0  0
  -45.2502  -60.0138  -45.2771 O   0  0  0  0  0  0  0  0  0  0  0  0
  -46.3677  -60.8863  -45.1568 C   0  0  0  0  0  0  0  0  0  0  0  0
  -40.5700  -59.2757  -46.8175 C   0  0  0  0  0  0  0  0  0  0  0  0
  -39.5142  -59.5312  -47.8966 C   0  0  0  0  0  0  0  0  0  0  0  0
  -38.2320  -60.1701  -47.3668 C   0  0  0  0  0  0  0  0  0  0  0  0
  -37.9927  -59.6404  -46.0614 O   0  0  0  0  0  0  0  0  0  0  0  0
  -37.2910  -60.4288  -45.1912 C   0  0  0  0  0  0  0  0  0  0  0  0
  -35.9225  -60.6970  -45.2450 C   0  0  0  0  0  0  0  0  0  0  0  0
  -35.3310  -61.5260  -44.2863 C   0  0  0  0  0  0  0  0  0  0  0  0
  -36.1031  -62.0894  -43.2717 C   0  0  0  0  0  0  0  0  0  0  0  0
  -37.4691  -61.8254  -43.2136 C   0  0  0  0  0  0  0  0  0  0  0  0
  -38.0584  -60.9980  -44.1711 C   0  0  0  0  0  0  0  0  0  0  0  0
 13 14  1  0
  1 14  1  0
  1  2  1  0
  2 17  1  0
 17 18  1  0
 18 19  1  0
 19 20  1  0
 20 21  1  0
 21 22  2  0
 22 23  1  0
 23 24  2  0
 24 25  1  0
 25 26  2  0
  2  3  1  0
  3  4  1  0
  4  5  1  0
  4  9  1  0
  9 10  2  0
  9 11  1  0
  4  6  1  0
  6  7  1  0
  7 15  1  0
 15 16  1  0
  7  1  1  0
 26 21  1  0
  5  8  1  0
 11 12  1  0
M  END
> <minimizedAffinity>
-7.12125

> <CNNscore>
0.2346560657

> <CNNaffinity>
3.8759963512

> <CNN_VS>
0.9095260501

> <CNNaffinity_variance>
0.8163831830

$$$$



 26 27  0  0  0  0  0  0  0  0999 V2000
  -41.8073  -59.7346  -39.4444 C   0  0  0  0  0  0  0  0  0  0  0  0
  -40.3301  -59.2809  -39.3386 C   0  0  0  0  0  0  0  0  0  0  0  0
  -40.2449  -57.7673  -39.0670 C   0  0  0  0  0  0  0  0  0  0  0  0
  -41.0624  -57.3436  -37.8414 C   0  0  0  0  0  0  0  0  0  0  0  0
  -40.4785  -57.9740  -36.6911 O   0  0  0  0  0  0  0  0  0  0  0  0
  -42.5117  -57.8049  -37.9521 C   0  0  0  0  0  0  0  0  0  0  0  0
  -42.6187  -59.3103  -38.1982 C   0  0  0  0  0  0  0  0  0  0  0  0
  -39.5543  -57.6930  -36.6026 H   0  0  0  0  0  0  0  0  0  0  0  0
  -41.0214  -55.8208  -37.6543 C   0  0  0  0  0  0  0  0  0  0  0  0
  -39.9984  -55.1679  -37.5005 O   0  0  0  0  0  0  0  0  0  0  0  0
  -42.2265  -55.2242  -37.6331 O   0  0  0  0  0  0  0  0  0  0  0  0
  -43.0037  -55.7338  -37.7520 H   0  0  0  0  0  0  0  0  0  0  0  0
  -41.4284  -61.8095  -38.3381 C   0  0  0  0  0  0  0  0  0  0  0  0
  -41.8135  -61.1701  -39.5491 O   0  0  0  0  0  0  0  0  0  0  0  0
  -44.0161  -59.5872  -38.4051 O   0  0  0  0  0  0  0  0  0  0  0  0
  -44.8162  -58.4130  -38.3275 C   0  0  0  0  0  0  0  0  0  0  0  0
  -39.5524  -59.6788  -40.6161 C   0  0  0  0  0  0  0  0  0  0  0  0
  -38.5216  -60.7991  -40.4522 C   0  0  0  0  0  0  0  0  0  0  0  0
  -38.6062  -61.8783  -41.5298 C   0  0  0  0  0  0  0  0  0  0  0  0
  -37.2978  -62.0426  -42.0804 O   0  0  0  0  0  0  0  0  0  0  0  0
  -37.0707  -61.4954  -43.3134 C   0  0  0  0  0  0  0  0  0  0  0  0
  -38.0327  -60.9325  -44.1532 C   0  0  0  0  0  0  0  0  0  0  0  0
  -37.6603  -60.4070  -45.3947 C   0  0  0  0  0  0  0  0  0  0  0  0
  -36.3276  -60.4416  -45.8015 C   0  0  0  0  0  0  0  0  0  0  0  0
  -35.3637  -61.0025  -44.9676 C   0  0  0  0  0  0  0  0  0  0  0  0
  -35.7365  -61.5269  -43.7288 C   0  0  0  0  0  0  0  0  0  0  0  0
 13 14  1  0
  1 14  1  0
  1  2  1  0
  2 17  1  0
 17 18  1  0
 18 19  1  0
 19 20  1  0
 20 21  1  0
 21 22  2  0
 22 23  1  0
 23 24  2  0
 24 25  1  0
 25 26  2  0
  2  3  1  0
  3  4  1  0
  4  5  1  0
  4  9  1  0
  9 10  2  0
  9 11  1  0
  4  6  1  0
  6  7  1  0
  7 15  1  0
 15 16  1  0
  7  1  1  0
 26 21  1  0
  5  8  1  0
 11 12  1  0
M  END
> <minimizedAffinity>
-4.89376

> <CNNscore>
0.2161257118

> <CNNaffinity>
3.8020694256

> <CNN_VS>
0.8217249513

> <CNNaffinity_variance>
1.1883188486

$$$$



 26 27  0  0  0  0  0  0  0  0999 V2000
  -38.6531  -60.7148  -41.1516 C   0  0  0  0  0  0  0  0  0  0  0  0
  -40.1957  -60.7758  -41.0267 C   0  0  0  0  0  0  0  0  0  0  0  0
  -40.8643  -60.3904  -42.3595 C   0  0  0  0  0  0  0  0  0  0  0  0
  -40.3524  -61.2277  -43.5372 C   0  0  0  0  0  0  0  0  0  0  0  0
  -40.7316  -62.5916  -43.2973 O   0  0  0  0  0  0  0  0  0  0  0  0
  -38.8322  -61.1684  -43.6434 C   0  0  0  0  0  0  0  0  0  0  0  0
  -38.1485  -61.5710  -42.3363 C   0  0  0  0  0  0  0  0  0  0  0  0
  -41.6972  -62.6510  -43.2263 H   0  0  0  0  0  0  0  0  0  0  0  0
  -40.9778  -60.7575  -44.8575 C   0  0  0  0  0  0  0  0  0  0  0  0
  -40.5705  -61.0694  -45.9681 O   0  0  0  0  0  0  0  0  0  0  0  0
  -42.0210  -59.9202  -44.7189 O   0  0  0  0  0  0  0  0  0  0  0  0
  -42.3248  -59.6879  -43.8635 H   0  0  0  0  0  0  0  0  0  0  0  0
  -38.6462  -62.4869  -39.5603 C   0  0  0  0  0  0  0  0  0  0  0  0
  -38.0983  -61.2259  -39.9258 O   0  0  0  0  0  0  0  0  0  0  0  0
  -36.7393  -61.3528  -42.5341 O   0  0  0  0  0  0  0  0  0  0  0  0
  -36.3880  -61.3102  -43.9123 C   0  0  0  0  0  0  0  0  0  0  0  0
  -40.6771  -59.8767  -39.8627 C   0  0  0  0  0  0  0  0  0  0  0  0
  -41.7475  -58.8398  -40.2145 C   0  0  0  0  0  0  0  0  0  0  0  0
  -41.8092  -57.6625  -39.2433 C   0  0  0  0  0  0  0  0  0  0  0  0
  -40.8268  -57.8862  -38.2300 O   0  0  0  0  0  0  0  0  0  0  0  0
  -39.9404  -56.8722  -37.9909 C   0  0  0  0  0  0  0  0  0  0  0  0
  -39.3475  -56.5705  -36.7640 C   0  0  0  0  0  0  0  0  0  0  0  0
  -38.4545  -55.4990  -36.6602 C   0  0  0  0  0  0  0  0  0  0  0  0
  -38.1508  -54.7261  -37.7796 C   0  0  0  0  0  0  0  0  0  0  0  0
  -38.7399  -55.0225  -39.0061 C   0  0  0  0  0  0  0  0  0  0  0  0
  -39.6312  -56.0920  -39.1085 C   0  0  0  0  0  0  0  0  0  0  0  0
 13 14  1  0
  1 14  1  0
  1  2  1  0
  2 17  1  0
 17 18  1  0
 18 19  1  0
 19 20  1  0
 20 21  1  0
 21 22  2  0
 22 23  1  0
 23 24  2  0
 24 25  1  0
 25 26  2  0
  2  3  1  0
  3  4  1  0
  4  5  1  0
  4  9  1  0
  9 10  2  0
  9 11  1  0
  4  6  1  0
  6  7  1  0
  7 15  1  0
 15 16  1  0
  7  1  1  0
 26 21  1  0
  5  8  1  0
 11 12  1  0
M  END
> <minimizedAffinity>
-4.85336

> <CNNscore>
0.2099049091

> <CNNaffinity>
4.0767984390

> <CNN_VS>
0.8557400107

> <CNNaffinity_variance>
0.3207018077

$$$$



 26 27  0  0  0  0  0  0  0  0999 V2000
  -38.9497  -60.3518  -41.5567 C   0  0  0  0  0  0  0  0  0  0  0  0
  -40.4799  -60.5509  -41.4229 C   0  0  0  0  0  0  0  0  0  0  0  0
  -41.1734  -60.3624  -42.7850 C   0  0  0  0  0  0  0  0  0  0  0  0
  -40.5741  -61.2551  -43.8777 C   0  0  0  0  0  0  0  0  0  0  0  0
  -40.8203  -62.6201  -43.5066 O   0  0  0  0  0  0  0  0  0  0  0  0
  -39.0662  -61.0582  -43.9927 C   0  0  0  0  0  0  0  0  0  0  0  0
  -38.3557  -61.2646  -42.6545 C   0  0  0  0  0  0  0  0  0  0  0  0
  -41.7760  -62.7664  -43.4280 H   0  0  0  0  0  0  0  0  0  0  0  0
  -41.2329  -60.9774  -45.2358 C   0  0  0  0  0  0  0  0  0  0  0  0
  -41.3392  -59.8687  -45.7416 O   0  0  0  0  0  0  0  0  0  0  0  0
  -41.7393  -62.0627  -45.8476 O   0  0  0  0  0  0  0  0  0  0  0  0
  -41.6522  -62.9073  -45.4512 H   0  0  0  0  0  0  0  0  0  0  0  0
  -38.3931  -62.0822  -40.0177 C   0  0  0  0  0  0  0  0  0  0  0  0
  -38.3565  -60.6861  -40.2887 O   0  0  0  0  0  0  0  0  0  0  0  0
  -36.9732  -60.9299  -42.8757 O   0  0  0  0  0  0  0  0  0  0  0  0
  -36.1619  -62.0837  -43.0636 C   0  0  0  0  0  0  0  0  0  0  0  0
  -41.0548  -59.5953  -40.3498 C   0  0  0  0  0  0  0  0  0  0  0  0
  -41.9032  -60.2485  -39.2552 C   0  0  0  0  0  0  0  0  0  0  0  0
  -42.0675  -61.7581  -39.4200 C   0  0  0  0  0  0  0  0  0  0  0  0
  -42.1175  -62.3326  -38.1126 O   0  0  0  0  0  0  0  0  0  0  0  0
  -41.0045  -63.0049  -37.6877 C   0  0  0  0  0  0  0  0  0  0  0  0
  -40.0677  -62.5425  -36.7623 C   0  0  0  0  0  0  0  0  0  0  0  0
  -38.9699  -63.3375  -36.4172 C   0  0  0  0  0  0  0  0  0  0  0  0
  -38.8040  -64.5954  -36.9942 C   0  0  0  0  0  0  0  0  0  0  0  0
  -39.7356  -65.0615  -37.9184 C   0  0  0  0  0  0  0  0  0  0  0  0
  -40.8307  -64.2671  -38.2622 C   0  0  0  0  0  0  0  0  0  0  0  0
 13 14  1  0
  1 14  1  0
  1  2  1  0
  2 17  1  0
 17 18  1  0
 18 19  1  0
 19 20  1  0
 20 21  1  0
 21 22  2  0
 22 23  1  0
 23 24  2  0
 24 25  1  0
 25 26  2  0
  2  3  1  0
  3  4  1  0
  4  5  1  0
  4  9  1  0
  9 10  2  0
  9 11  1  0
  4  6  1  0
  6  7  1  0
  7 15  1  0
 15 16  1  0
  7  1  1  0
 26 21  1  0
  5  8  1  0
 11 12  1  0
M  END
> <minimizedAffinity>
-4.78272

> <CNNscore>
0.2063612640

> <CNNaffinity>
3.5826675892

> <CNN_VS>
0.7393237948

> <CNNaffinity_variance>
0.8556612134

$$$$
