


 23 23  0  0  0  0  0  0  0  0999 V2000
   -1.9341   -5.1025   -3.8380 N   0  0  0  0  0  0  0  0  0  0  0  0
   -1.5192   -6.1118   -5.1561 S   0  0  0  0  0  0  0  0  0  0  0  0
   -1.2756   -7.4323   -4.6096 O   0  0  0  0  0  0  0  0  0  0  0  0
   -0.5055   -5.4297   -5.9277 O   0  0  0  0  0  0  0  0  0  0  0  0
   -5.4002   -6.3037   -7.5492 C   0  0  0  0  0  0  0  0  0  0  0  0
   -4.2044   -5.9649   -8.1873 C   0  0  0  0  0  0  0  0  0  0  0  0
   -3.0112   -5.9027   -7.4598 C   0  0  0  0  0  0  0  0  0  0  0  0
   -3.0225   -6.1721   -6.0895 C   0  0  0  0  0  0  0  0  0  0  0  0
   -4.2085   -6.5263   -5.4440 C   0  0  0  0  0  0  0  0  0  0  0  0
   -5.3935   -6.5856   -6.1787 C   0  0  0  0  0  0  0  0  0  0  0  0
   -6.6527   -6.7457   -9.5222 C   0  0  0  0  0  0  0  0  0  0  0  0
   -6.6283   -6.4006   -8.1427 O   0  0  0  0  0  0  0  0  0  0  0  0
   -2.3778   -5.8320   -2.6005 C   0  0  0  0  0  0  0  0  0  0  0  0
   -2.6112   -4.8321   -1.4649 C   0  0  0  0  0  0  0  0  0  0  0  0
   -3.3526   -5.4458   -0.4134 O   0  0  0  0  0  0  0  0  0  0  0  0
   -4.2122   -5.7401   -0.7530 H   0  0  0  0  0  0  0  0  0  0  0  0
   -2.8482   -3.9827   -4.2168 C   0  0  0  0  0  0  0  0  0  0  0  0
   -2.1743   -2.6383   -4.4283 C   0  0  0  0  0  0  0  0  0  0  0  0
   -1.3335   -2.1835   -3.6527 O   0  0  0  0  0  0  0  0  0  0  0  0
   -2.5800   -1.9623   -5.5606 N   0  0  0  0  0  0  0  0  0  0  0  0
   -2.0472   -0.6523   -5.6788 O   0  0  0  0  0  0  0  0  0  0  0  0
   -3.1868   -2.3550   -6.2290 H   0  0  0  0  0  0  0  0  0  0  0  0
   -1.4765   -0.4653   -4.9171 H   0  0  0  0  0  0  0  0  0  0  0  0
 11 12  1  0
 12  5  1  0
  5  6  2  0
  6  7  1  0
  7  8  2  0
  8  2  1  0
  2  3  2  0
  2  4  2  0
  2  1  1  0
  1 13  1  0
 13 14  1  0
 14 15  1  0
  1 17  1  0
 17 18  1  0
 18 19  2  0
 18 20  1  0
 20 21  1  0
  8  9  1  0
  9 10  2  0
 10  5  1  0
 15 16  1  0
 20 22  1  0
 21 23  1  0
M  END
> <minimizedAffinity>
-7.50497

> <CNNscore>
0.9348102808

> <CNNaffinity>
6.9496760368

> <CNN_VS>
6.4966287613

> <CNNaffinity_variance>
1.1690335274

$$$$



 23 23  0  0  0  0  0  0  0  0999 V2000
   -2.1525   -5.7618   -5.6907 N   0  0  0  0  0  0  0  0  0  0  0  0
   -3.6307   -6.4004   -5.1117 S   0  0  0  0  0  0  0  0  0  0  0  0
   -4.2797   -5.3399   -4.3664 O   0  0  0  0  0  0  0  0  0  0  0  0
   -3.3445   -7.6745   -4.4927 O   0  0  0  0  0  0  0  0  0  0  0  0
   -5.9790   -7.0614   -8.9685 C   0  0  0  0  0  0  0  0  0  0  0  0
   -6.6568   -6.7784   -7.7800 C   0  0  0  0  0  0  0  0  0  0  0  0
   -5.9436   -6.5762   -6.5937 C   0  0  0  0  0  0  0  0  0  0  0  0
   -4.5501   -6.6675   -6.6011 C   0  0  0  0  0  0  0  0  0  0  0  0
   -3.8611   -6.9348   -7.7854 C   0  0  0  0  0  0  0  0  0  0  0  0
   -4.5818   -7.1350   -8.9635 C   0  0  0  0  0  0  0  0  0  0  0  0
   -7.7585   -8.0342  -10.2111 C   0  0  0  0  0  0  0  0  0  0  0  0
   -6.5546   -7.2774  -10.1899 O   0  0  0  0  0  0  0  0  0  0  0  0
   -0.9753   -5.9707   -4.7791 C   0  0  0  0  0  0  0  0  0  0  0  0
   -1.4252   -6.6988   -3.5097 C   0  0  0  0  0  0  0  0  0  0  0  0
   -0.6920   -7.9109   -3.3514 O   0  0  0  0  0  0  0  0  0  0  0  0
   -0.8506   -8.4869   -4.1156 H   0  0  0  0  0  0  0  0  0  0  0  0
   -2.2694   -4.3556   -6.1829 C   0  0  0  0  0  0  0  0  0  0  0  0
   -2.1593   -3.2827   -5.1137 C   0  0  0  0  0  0  0  0  0  0  0  0
   -1.5742   -3.4620   -4.0455 O   0  0  0  0  0  0  0  0  0  0  0  0
   -2.7697   -2.0871   -5.4324 N   0  0  0  0  0  0  0  0  0  0  0  0
   -2.7787   -1.1385   -4.3769 O   0  0  0  0  0  0  0  0  0  0  0  0
   -3.1650   -1.9075   -6.3160 H   0  0  0  0  0  0  0  0  0  0  0  0
   -2.3397   -1.5163   -3.5988 H   0  0  0  0  0  0  0  0  0  0  0  0
 11 12  1  0
 12  5  1  0
  5  6  2  0
  6  7  1  0
  7  8  2  0
  8  2  1  0
  2  3  2  0
  2  4  2  0
  2  1  1  0
  1 13  1  0
 13 14  1  0
 14 15  1  0
  1 17  1  0
 17 18  1  0
 18 19  2  0
 18 20  1  0
 20 21  1  0
  8  9  1  0
  9 10  2  0
 10  5  1  0
 15 16  1  0
 20 22  1  0
 21 23  1  0
M  END
> <minimizedAffinity>
-7.44032

> <CNNscore>
0.9233499765

> <CNNaffinity>
6.7821578979

> <CNN_VS>
6.2623052597

> <CNNaffinity_variance>
0.8236231804

$$$$



 23 23  0  0  0  0  0  0  0  0999 V2000
   -2.3115   -5.2875   -3.8407 N   0  0  0  0  0  0  0  0  0  0  0  0
   -1.6690   -6.0932   -5.2068 S   0  0  0  0  0  0  0  0  0  0  0  0
   -1.3340   -7.4372   -4.7788 O   0  0  0  0  0  0  0  0  0  0  0  0
   -0.6691   -5.2306   -5.7937 O   0  0  0  0  0  0  0  0  0  0  0  0
   -5.2692   -6.3905   -7.9954 C   0  0  0  0  0  0  0  0  0  0  0  0
   -4.0533   -5.8994   -8.4775 C   0  0  0  0  0  0  0  0  0  0  0  0
   -2.9460   -5.8041   -7.6281 C   0  0  0  0  0  0  0  0  0  0  0  0
   -3.0642   -6.1939   -6.2922 C   0  0  0  0  0  0  0  0  0  0  0  0
   -4.2696   -6.7000   -5.8030 C   0  0  0  0  0  0  0  0  0  0  0  0
   -5.3684   -6.7912   -6.6585 C   0  0  0  0  0  0  0  0  0  0  0  0
   -7.5143   -7.1720   -8.0694 C   0  0  0  0  0  0  0  0  0  0  0  0
   -6.4208   -6.5350   -8.7183 O   0  0  0  0  0  0  0  0  0  0  0  0
   -3.1469   -4.0782   -4.1571 C   0  0  0  0  0  0  0  0  0  0  0  0
   -2.4265   -3.2057   -5.1884 C   0  0  0  0  0  0  0  0  0  0  0  0
   -2.9693   -1.8877   -5.1832 O   0  0  0  0  0  0  0  0  0  0  0  0
   -3.9120   -1.9254   -5.4089 H   0  0  0  0  0  0  0  0  0  0  0  0
   -1.2969   -5.0350   -2.7730 C   0  0  0  0  0  0  0  0  0  0  0  0
   -0.7546   -3.6176   -2.7154 C   0  0  0  0  0  0  0  0  0  0  0  0
   -1.2326   -2.7488   -1.9859 O   0  0  0  0  0  0  0  0  0  0  0  0
    0.3187   -3.3772   -3.5485 N   0  0  0  0  0  0  0  0  0  0  0  0
    0.7321   -2.0202   -3.5885 O   0  0  0  0  0  0  0  0  0  0  0  0
    0.7598   -4.0861   -4.0702 H   0  0  0  0  0  0  0  0  0  0  0  0
    0.1661   -1.4923   -3.0038 H   0  0  0  0  0  0  0  0  0  0  0  0
 11 12  1  0
 12  5  1  0
  5  6  2  0
  6  7  1  0
  7  8  2  0
  8  2  1  0
  2  3  2  0
  2  4  2  0
  2  1  1  0
  1 13  1  0
 13 14  1  0
 14 15  1  0
  1 17  1  0
 17 18  1  0
 18 19  2  0
 18 20  1  0
 20 21  1  0
  8  9  1  0
  9 10  2  0
 10  5  1  0
 15 16  1  0
 20 22  1  0
 21 23  1  0
M  END
> <minimizedAffinity>
-7.07123

> <CNNscore>
0.7827757597

> <CNNaffinity>
5.9133448601

> <CNN_VS>
4.6288228035

> <CNNaffinity_variance>
0.1476721913

$$$$



 23 23  0  0  0  0  0  0  0  0999 V2000
   -1.3562   -3.7091   -3.8577 N   0  0  0  0  0  0  0  0  0  0  0  0
   -2.3875   -5.0464   -3.5819 S   0  0  0  0  0  0  0  0  0  0  0  0
   -3.4483   -4.5821   -2.7098 O   0  0  0  0  0  0  0  0  0  0  0  0
   -1.5580   -6.1691   -3.2083 O   0  0  0  0  0  0  0  0  0  0  0  0
   -4.1688   -5.7671   -7.7212 C   0  0  0  0  0  0  0  0  0  0  0  0
   -4.9337   -6.0206   -6.5799 C   0  0  0  0  0  0  0  0  0  0  0  0
   -4.3937   -5.8034   -5.3079 C   0  0  0  0  0  0  0  0  0  0  0  0
   -3.0820   -5.3403   -5.1838 C   0  0  0  0  0  0  0  0  0  0  0  0
   -2.3133   -5.0692   -6.3170 C   0  0  0  0  0  0  0  0  0  0  0  0
   -2.8612   -5.2891   -7.5815 C   0  0  0  0  0  0  0  0  0  0  0  0
   -5.5509   -6.9425   -9.2590 C   0  0  0  0  0  0  0  0  0  0  0  0
   -4.5764   -5.9358   -9.0156 O   0  0  0  0  0  0  0  0  0  0  0  0
    0.0598   -3.8975   -3.3890 C   0  0  0  0  0  0  0  0  0  0  0  0
    0.1951   -3.4174   -1.9416 C   0  0  0  0  0  0  0  0  0  0  0  0
    0.0713   -4.5180   -1.0443 O   0  0  0  0  0  0  0  0  0  0  0  0
   -0.7992   -4.9309   -1.1571 H   0  0  0  0  0  0  0  0  0  0  0  0
   -1.9483   -2.4075   -3.4234 C   0  0  0  0  0  0  0  0  0  0  0  0
   -1.9928   -1.3270   -4.4896 C   0  0  0  0  0  0  0  0  0  0  0  0
   -2.2185   -1.5680   -5.6756 O   0  0  0  0  0  0  0  0  0  0  0  0
   -1.7581   -0.0492   -4.0250 N   0  0  0  0  0  0  0  0  0  0  0  0
   -1.6680    0.9337   -5.0448 O   0  0  0  0  0  0  0  0  0  0  0  0
   -1.6614    0.1624   -3.0684 H   0  0  0  0  0  0  0  0  0  0  0  0
   -1.7920    0.5139   -5.9104 H   0  0  0  0  0  0  0  0  0  0  0  0
 11 12  1  0
 12  5  1  0
  5  6  2  0
  6  7  1  0
  7  8  2  0
  8  2  1  0
  2  3  2  0
  2  4  2  0
  2  1  1  0
  1 13  1  0
 13 14  1  0
 14 15  1  0
  1 17  1  0
 17 18  1  0
 18 19  2  0
 18 20  1  0
 20 21  1  0
  8  9  1  0
  9 10  2  0
 10  5  1  0
 15 16  1  0
 20 22  1  0
 21 23  1  0
M  END
> <minimizedAffinity>
-6.28894

> <CNNscore>
0.7101777792

> <CNNaffinity>
5.6254115105

> <CNN_VS>
3.9950423241

> <CNNaffinity_variance>
0.5664690733

$$$$



 23 23  0  0  0  0  0  0  0  0999 V2000
  -10.2945   -9.1467   -9.3474 N   0  0  0  0  0  0  0  0  0  0  0  0
   -9.1086   -8.7774  -10.5244 S   0  0  0  0  0  0  0  0  0  0  0  0
   -9.7087   -7.8234  -11.4360 O   0  0  0  0  0  0  0  0  0  0  0  0
   -8.5680  -10.0272  -11.0084 O   0  0  0  0  0  0  0  0  0  0  0  0
   -5.9459   -6.5691   -8.0857 C   0  0  0  0  0  0  0  0  0  0  0  0
   -5.6391   -7.0325   -9.3675 C   0  0  0  0  0  0  0  0  0  0  0  0
   -6.6031   -7.7115  -10.1201 C   0  0  0  0  0  0  0  0  0  0  0  0
   -7.8720   -7.9323   -9.5802 C   0  0  0  0  0  0  0  0  0  0  0  0
   -8.1948   -7.4609   -8.3066 C   0  0  0  0  0  0  0  0  0  0  0  0
   -7.2261   -6.7846   -7.5638 C   0  0  0  0  0  0  0  0  0  0  0  0
   -5.1204   -6.2584   -5.8769 C   0  0  0  0  0  0  0  0  0  0  0  0
   -5.0989   -5.8936   -7.2513 O   0  0  0  0  0  0  0  0  0  0  0  0
  -11.3625   -8.1020   -9.1790 C   0  0  0  0  0  0  0  0  0  0  0  0
  -12.7012   -8.6420   -9.6889 C   0  0  0  0  0  0  0  0  0  0  0  0
  -13.5953   -7.5654   -9.9593 O   0  0  0  0  0  0  0  0  0  0  0  0
  -13.7507   -7.0618   -9.1450 H   0  0  0  0  0  0  0  0  0  0  0  0
   -9.7147   -9.6058   -8.0489 C   0  0  0  0  0  0  0  0  0  0  0  0
  -10.7276   -9.9351   -6.9663 C   0  0  0  0  0  0  0  0  0  0  0  0
  -10.8462   -9.2689   -5.9379 O   0  0  0  0  0  0  0  0  0  0  0  0
  -11.5068  -11.0440   -7.2245 N   0  0  0  0  0  0  0  0  0  0  0  0
  -12.3546  -11.4226   -6.1512 O   0  0  0  0  0  0  0  0  0  0  0  0
  -11.4772  -11.5308   -8.0798 H   0  0  0  0  0  0  0  0  0  0  0  0
  -12.2271  -10.8127   -5.4078 H   0  0  0  0  0  0  0  0  0  0  0  0
 11 12  1  0
 12  5  1  0
  5  6  2  0
  6  7  1  0
  7  8  2  0
  8  2  1  0
  2  3  2  0
  2  4  2  0
  2  1  1  0
  1 13  1  0
 13 14  1  0
 14 15  1  0
  1 17  1  0
 17 18  1  0
 18 19  2  0
 18 20  1  0
 20 21  1  0
  8  9  1  0
  9 10  2  0
 10  5  1  0
 15 16  1  0
 20 22  1  0
 21 23  1  0
M  END
> <minimizedAffinity>
-7.05547

> <CNNscore>
0.6677572727

> <CNNaffinity>
4.4340386391

> <CNN_VS>
2.9608614445

> <CNNaffinity_variance>
0.4258454740

$$$$



 23 23  0  0  0  0  0  0  0  0999 V2000
   -9.5506   -8.2775   -8.8384 N   0  0  0  0  0  0  0  0  0  0  0  0
   -8.1691   -8.5031   -9.8225 S   0  0  0  0  0  0  0  0  0  0  0  0
   -8.4384   -7.8328  -11.0793 O   0  0  0  0  0  0  0  0  0  0  0  0
   -7.8320   -9.9080   -9.7883 O   0  0  0  0  0  0  0  0  0  0  0  0
   -4.9875   -6.1036   -7.5986 C   0  0  0  0  0  0  0  0  0  0  0  0
   -4.8169   -6.3990   -8.9534 C   0  0  0  0  0  0  0  0  0  0  0  0
   -5.7872   -7.1354   -9.6412 C   0  0  0  0  0  0  0  0  0  0  0  0
   -6.9242   -7.5821   -8.9642 C   0  0  0  0  0  0  0  0  0  0  0  0
   -7.1127   -7.2804   -7.6144 C   0  0  0  0  0  0  0  0  0  0  0  0
   -6.1388   -6.5451   -6.9374 C   0  0  0  0  0  0  0  0  0  0  0  0
   -4.1110   -5.6965   -5.4254 C   0  0  0  0  0  0  0  0  0  0  0  0
   -4.1194   -5.3948   -6.8152 O   0  0  0  0  0  0  0  0  0  0  0  0
   -9.7621   -9.3395   -7.7954 C   0  0  0  0  0  0  0  0  0  0  0  0
  -10.4085   -8.7236   -6.5518 C   0  0  0  0  0  0  0  0  0  0  0  0
  -10.2456   -7.3075   -6.5626 O   0  0  0  0  0  0  0  0  0  0  0  0
   -9.3002   -7.0908   -6.5640 H   0  0  0  0  0  0  0  0  0  0  0  0
  -10.7872   -7.9688   -9.6186 C   0  0  0  0  0  0  0  0  0  0  0  0
  -11.8903   -9.0083   -9.5243 C   0  0  0  0  0  0  0  0  0  0  0  0
  -11.7744  -10.1478   -9.9754 O   0  0  0  0  0  0  0  0  0  0  0  0
  -13.0379   -8.5748   -8.8929 N   0  0  0  0  0  0  0  0  0  0  0  0
  -14.1090   -9.5052   -8.9285 O   0  0  0  0  0  0  0  0  0  0  0  0
  -13.1078   -7.6956   -8.4553 H   0  0  0  0  0  0  0  0  0  0  0  0
  -13.8293  -10.3020   -9.4058 H   0  0  0  0  0  0  0  0  0  0  0  0
 11 12  1  0
 12  5  1  0
  5  6  2  0
  6  7  1  0
  7  8  2  0
  8  2  1  0
  2  3  2  0
  2  4  2  0
  2  1  1  0
  1 13  1  0
 13 14  1  0
 14 15  1  0
  1 17  1  0
 17 18  1  0
 18 19  2  0
 18 20  1  0
 20 21  1  0
  8  9  1  0
  9 10  2  0
 10  5  1  0
 15 16  1  0
 20 22  1  0
 21 23  1  0
M  END
> <minimizedAffinity>
-7.72462

> <CNNscore>
0.6221914291

> <CNNaffinity>
4.7763829231

> <CNN_VS>
2.9718244076

> <CNNaffinity_variance>
0.1643164158

$$$$



 23 23  0  0  0  0  0  0  0  0999 V2000
   -2.1185   -5.6515   -4.8219 N   0  0  0  0  0  0  0  0  0  0  0  0
   -2.2471   -4.8799   -6.3437 S   0  0  0  0  0  0  0  0  0  0  0  0
   -1.1158   -5.3246   -7.1337 O   0  0  0  0  0  0  0  0  0  0  0  0
   -2.4772   -3.4736   -6.1035 O   0  0  0  0  0  0  0  0  0  0  0  0
   -6.0176   -6.7773   -8.0785 C   0  0  0  0  0  0  0  0  0  0  0  0
   -5.0042   -6.3350   -8.9325 C   0  0  0  0  0  0  0  0  0  0  0  0
   -3.8463   -5.7510   -8.4079 C   0  0  0  0  0  0  0  0  0  0  0  0
   -3.7120   -5.6038   -7.0256 C   0  0  0  0  0  0  0  0  0  0  0  0
   -4.7111   -6.0555   -6.1618 C   0  0  0  0  0  0  0  0  0  0  0  0
   -5.8624   -6.6367   -6.6951 C   0  0  0  0  0  0  0  0  0  0  0  0
   -7.1998   -8.0341   -9.7155 C   0  0  0  0  0  0  0  0  0  0  0  0
   -7.1922   -7.3634   -8.4614 O   0  0  0  0  0  0  0  0  0  0  0  0
   -1.8536   -4.7268   -3.6664 C   0  0  0  0  0  0  0  0  0  0  0  0
   -3.1607   -4.4375   -2.9236 C   0  0  0  0  0  0  0  0  0  0  0  0
   -4.0471   -3.6957   -3.7577 O   0  0  0  0  0  0  0  0  0  0  0  0
   -3.6326   -2.8533   -4.0016 H   0  0  0  0  0  0  0  0  0  0  0  0
   -1.2152   -6.8419   -4.8379 C   0  0  0  0  0  0  0  0  0  0  0  0
   -1.7926   -8.1030   -4.2194 C   0  0  0  0  0  0  0  0  0  0  0  0
   -2.8512   -8.6066   -4.5951 O   0  0  0  0  0  0  0  0  0  0  0  0
   -1.0371   -8.6420   -3.1985 N   0  0  0  0  0  0  0  0  0  0  0  0
   -1.6488   -9.7392   -2.5382 O   0  0  0  0  0  0  0  0  0  0  0  0
   -0.1499   -8.2953   -2.9496 H   0  0  0  0  0  0  0  0  0  0  0  0
   -2.5147   -9.9154   -2.9383 H   0  0  0  0  0  0  0  0  0  0  0  0
 11 12  1  0
 12  5  1  0
  5  6  2  0
  6  7  1  0
  7  8  2  0
  8  2  1  0
  2  3  2  0
  2  4  2  0
  2  1  1  0
  1 13  1  0
 13 14  1  0
 14 15  1  0
  1 17  1  0
 17 18  1  0
 18 19  2  0
 18 20  1  0
 20 21  1  0
  8  9  1  0
  9 10  2  0
 10  5  1  0
 15 16  1  0
 20 22  1  0
 21 23  1  0
M  END
> <minimizedAffinity>
-7.36392

> <CNNscore>
0.6056541800

> <CNNaffinity>
5.4485688210

> <CNN_VS>
3.2999484539

> <CNNaffinity_variance>
0.0501838624

$$$$



 23 23  0  0  0  0  0  0  0  0999 V2000
  -10.9597   -9.3862   -9.0490 N   0  0  0  0  0  0  0  0  0  0  0  0
   -9.9796   -8.9765  -10.3905 S   0  0  0  0  0  0  0  0  0  0  0  0
  -10.7213   -8.0027  -11.1670 O   0  0  0  0  0  0  0  0  0  0  0  0
   -9.5203  -10.2088  -10.9896 O   0  0  0  0  0  0  0  0  0  0  0  0
   -6.4713   -6.8098   -8.4351 C   0  0  0  0  0  0  0  0  0  0  0  0
   -6.3273   -7.3575   -9.7123 C   0  0  0  0  0  0  0  0  0  0  0  0
   -7.3979   -8.0243  -10.3172 C   0  0  0  0  0  0  0  0  0  0  0  0
   -8.6097   -8.1481   -9.6341 C   0  0  0  0  0  0  0  0  0  0  0  0
   -8.7701   -7.5920   -8.3638 C   0  0  0  0  0  0  0  0  0  0  0  0
   -7.6960   -6.9287   -7.7690 C   0  0  0  0  0  0  0  0  0  0  0  0
   -5.4144   -6.4051   -6.3432 C   0  0  0  0  0  0  0  0  0  0  0  0
   -5.5081   -6.1358   -7.7365 O   0  0  0  0  0  0  0  0  0  0  0  0
  -10.2226  -10.0098   -7.8965 C   0  0  0  0  0  0  0  0  0  0  0  0
  -10.9699   -9.7290   -6.5902 C   0  0  0  0  0  0  0  0  0  0  0  0
  -11.5648  -10.9265   -6.0963 O   0  0  0  0  0  0  0  0  0  0  0  0
  -12.1947  -11.2681   -6.7502 H   0  0  0  0  0  0  0  0  0  0  0  0
  -12.1956  -10.1360   -9.4279 C   0  0  0  0  0  0  0  0  0  0  0  0
  -13.2876   -9.3022  -10.0750 C   0  0  0  0  0  0  0  0  0  0  0  0
  -14.0439   -9.7467  -10.9387 O   0  0  0  0  0  0  0  0  0  0  0  0
  -13.3661   -8.0022   -9.6195 N   0  0  0  0  0  0  0  0  0  0  0  0
  -14.2970   -7.1941  -10.3227 O   0  0  0  0  0  0  0  0  0  0  0  0
  -12.8231   -7.6643   -8.8710 H   0  0  0  0  0  0  0  0  0  0  0  0
  -14.7219   -7.7206  -11.0178 H   0  0  0  0  0  0  0  0  0  0  0  0
 11 12  1  0
 12  5  1  0
  5  6  2  0
  6  7  1  0
  7  8  2  0
  8  2  1  0
  2  3  2  0
  2  4  2  0
  2  1  1  0
  1 13  1  0
 13 14  1  0
 14 15  1  0
  1 17  1  0
 17 18  1  0
 18 19  2  0
 18 20  1  0
 20 21  1  0
  8  9  1  0
  9 10  2  0
 10  5  1  0
 15 16  1  0
 20 22  1  0
 21 23  1  0
M  END
> <minimizedAffinity>
-7.21747

> <CNNscore>
0.5849550962

> <CNNaffinity>
4.6700310707

> <CNN_VS>
2.7317583561

> <CNNaffinity_variance>
0.1124643758

$$$$



 23 23  0  0  0  0  0  0  0  0999 V2000
   -2.9615   -5.9855   -4.7401 N   0  0  0  0  0  0  0  0  0  0  0  0
   -1.7604   -6.7278   -3.7735 S   0  0  0  0  0  0  0  0  0  0  0  0
   -0.6051   -6.9294   -4.6257 O   0  0  0  0  0  0  0  0  0  0  0  0
   -2.3772   -7.8385   -3.0850 O   0  0  0  0  0  0  0  0  0  0  0  0
   -0.7070   -3.4809   -0.7446 C   0  0  0  0  0  0  0  0  0  0  0  0
   -1.9430   -4.1281   -0.6705 C   0  0  0  0  0  0  0  0  0  0  0  0
   -2.2733   -5.1232   -1.5965 C   0  0  0  0  0  0  0  0  0  0  0  0
   -1.3645   -5.4607   -2.6019 C   0  0  0  0  0  0  0  0  0  0  0  0
   -0.1207   -4.8315   -2.6768 C   0  0  0  0  0  0  0  0  0  0  0  0
    0.1992   -3.8401   -1.7483 C   0  0  0  0  0  0  0  0  0  0  0  0
    0.8050   -2.8312    0.9725 C   0  0  0  0  0  0  0  0  0  0  0  0
   -0.2635   -2.4972    0.0954 O   0  0  0  0  0  0  0  0  0  0  0  0
   -4.0430   -6.9113   -5.2235 C   0  0  0  0  0  0  0  0  0  0  0  0
   -5.1050   -6.1147   -5.9859 C   0  0  0  0  0  0  0  0  0  0  0  0
   -6.2815   -6.9011   -6.1571 O   0  0  0  0  0  0  0  0  0  0  0  0
   -6.0657   -7.6998   -6.6635 H   0  0  0  0  0  0  0  0  0  0  0  0
   -2.3982   -5.1263   -5.8254 C   0  0  0  0  0  0  0  0  0  0  0  0
   -2.3372   -3.6416   -5.5118 C   0  0  0  0  0  0  0  0  0  0  0  0
   -1.4504   -2.9042   -5.9421 O   0  0  0  0  0  0  0  0  0  0  0  0
   -3.3556   -3.1814   -4.7027 N   0  0  0  0  0  0  0  0  0  0  0  0
   -3.2164   -1.8260   -4.3056 O   0  0  0  0  0  0  0  0  0  0  0  0
   -4.1136   -3.7448   -4.4247 H   0  0  0  0  0  0  0  0  0  0  0  0
   -2.4042   -1.4588   -4.6881 H   0  0  0  0  0  0  0  0  0  0  0  0
 11 12  1  0
 12  5  1  0
  5  6  2  0
  6  7  1  0
  7  8  2  0
  8  2  1  0
  2  3  2  0
  2  4  2  0
  2  1  1  0
  1 13  1  0
 13 14  1  0
 14 15  1  0
  1 17  1  0
 17 18  1  0
 18 19  2  0
 18 20  1  0
 20 21  1  0
  8  9  1  0
  9 10  2  0
 10  5  1  0
 15 16  1  0
 20 22  1  0
 21 23  1  0
M  END
> <minimizedAffinity>
-5.19347

> <CNNscore>
0.5734736919

> <CNNaffinity>
5.3538870811

> <CNN_VS>
3.0703134537

> <CNNaffinity_variance>
0.3378616273

$$$$
