


 31 34  0  0  0  0  0  0  0  0999 V2000
   23.3465    6.6182   16.4899 C   0  0  0  0  0  0  0  0  0  0  0  0
   21.5467    4.5177   11.1194 C   0  0  0  0  0  0  0  0  0  0  0  0
   22.8963    4.7526   10.7553 C   0  0  0  0  0  0  0  0  0  0  0  0
   23.8071    5.2895   11.6740 C   0  0  0  0  0  0  0  0  0  0  0  0
   23.3325    5.5794   12.9381 C   0  0  0  0  0  0  0  0  0  0  0  0
   22.0173    5.3518   13.2956 C   0  0  0  0  0  0  0  0  0  0  0  0
   21.0962    4.8204   12.4136 C   0  0  0  0  0  0  0  0  0  0  0  0
   21.8693    5.7541   14.6915 C   0  0  0  0  0  0  0  0  0  0  0  0
   20.8437    5.6298   15.3317 O   0  0  0  0  0  0  0  0  0  0  0  0
   23.0819    6.2469   15.0950 N   0  0  0  0  0  0  0  0  0  0  0  0
   24.0194    6.1305   14.1046 C   0  0  0  0  0  0  0  0  0  0  0  0
   25.2017    6.4115   14.1134 O   0  0  0  0  0  0  0  0  0  0  0  0
   20.5789    4.1138    8.9552 O   0  0  0  0  0  0  0  0  0  0  0  0
   20.5688    3.9483   10.1600 C   0  0  0  0  0  0  0  0  0  0  0  0
   19.6283    3.1989   10.7589 O   0  0  0  0  0  0  0  0  0  0  0  0
   19.6414    3.0860   11.6890 H   0  0  0  0  0  0  0  0  0  0  0  0
   24.5172    5.7608   16.9579 C   0  0  0  0  0  0  0  0  0  0  0  0
   24.5053    4.5586   17.1761 O   0  0  0  0  0  0  0  0  0  0  0  0
   25.6536    6.4670   17.1265 O   0  0  0  0  0  0  0  0  0  0  0  0
   25.6615    7.3889   16.9588 H   0  0  0  0  0  0  0  0  0  0  0  0
   23.6348    8.1134   16.6916 C   0  0  0  0  0  0  0  0  0  0  0  0
   22.6453    9.0180   15.9768 C   0  0  0  0  0  0  0  0  0  0  0  0
   23.0713    9.6113   14.7733 C   0  0  0  0  0  0  0  0  0  0  0  0
   22.2212   10.4324   14.0430 C   0  0  0  0  0  0  0  0  0  0  0  0
   20.9301   10.6723   14.5011 C   0  0  0  0  0  0  0  0  0  0  0  0
   20.4695   10.0981   15.6944 C   0  0  0  0  0  0  0  0  0  0  0  0
   19.1589   10.3564   16.1297 C   0  0  0  0  0  0  0  0  0  0  0  0
   18.6700    9.8010   17.3098 C   0  0  0  0  0  0  0  0  0  0  0  0
   19.4883    8.9798   18.0713 C   0  0  0  0  0  0  0  0  0  0  0  0
   20.7947    8.7134   17.6521 C   0  0  0  0  0  0  0  0  0  0  0  0
   21.3238    9.2591   16.4568 C   0  0  0  0  0  0  0  0  0  0  0  0
 13 14  2  0
 14 15  1  0
 14  2  1  0
  2  3  2  0
  3  4  1  0
  4  5  2  0
  5  6  1  0
  6  7  2  0
  6  8  1  0
  8  9  2  0
  8 10  1  0
 10  1  1  0
  1 21  1  0
 21 22  1  0
 22 23  2  0
 23 24  1  0
 24 25  2  0
 25 26  1  0
 26 27  2  0
 27 28  1  0
 28 29  2  0
 29 30  1  0
 30 31  2  0
  1 17  1  0
 17 18  2  0
 17 19  1  0
 10 11  1  0
 11 12  2  0
  7  2  1  0
 31 22  1  0
 11  5  1  0
 31 26  1  0
 15 16  1  0
 19 20  1  0
M  END
> <minimizedAffinity>
-7.66553

> <CNNscore>
0.8642814159

> <CNNaffinity>
4.6692576408

> <CNN_VS>
4.0355525017

> <CNNaffinity_variance>
0.1842271537

$$$$



 31 34  0  0  0  0  0  0  0  0999 V2000
   23.1103    6.3420   16.5602 C   0  0  0  0  0  0  0  0  0  0  0  0
   21.5738    4.6318   10.9737 C   0  0  0  0  0  0  0  0  0  0  0  0
   22.9210    4.9574   10.6767 C   0  0  0  0  0  0  0  0  0  0  0  0
   23.7773    5.4537   11.6677 C   0  0  0  0  0  0  0  0  0  0  0  0
   23.2520    5.6124   12.9350 C   0  0  0  0  0  0  0  0  0  0  0  0
   21.9389    5.2963   13.2273 C   0  0  0  0  0  0  0  0  0  0  0  0
   21.0709    4.8017   12.2729 C   0  0  0  0  0  0  0  0  0  0  0  0
   21.7302    5.5701   14.6463 C   0  0  0  0  0  0  0  0  0  0  0  0
   20.6931    5.3454   15.2387 O   0  0  0  0  0  0  0  0  0  0  0  0
   22.9055    6.0803   15.1308 N   0  0  0  0  0  0  0  0  0  0  0  0
   23.8767    6.0916   14.1665 C   0  0  0  0  0  0  0  0  0  0  0  0
   25.0434    6.4235   14.2390 O   0  0  0  0  0  0  0  0  0  0  0  0
   20.8304    4.1621    8.7354 O   0  0  0  0  0  0  0  0  0  0  0  0
   20.6532    4.1037    9.9372 C   0  0  0  0  0  0  0  0  0  0  0  0
   19.5576    3.5275   10.4592 O   0  0  0  0  0  0  0  0  0  0  0  0
   19.4433    3.4946   11.3886 H   0  0  0  0  0  0  0  0  0  0  0  0
   24.4145    5.6549   16.9497 C   0  0  0  0  0  0  0  0  0  0  0  0
   24.5800    4.4641   17.1680 O   0  0  0  0  0  0  0  0  0  0  0  0
   25.4532    6.5099   17.0433 O   0  0  0  0  0  0  0  0  0  0  0  0
   25.3251    7.4228   16.8757 H   0  0  0  0  0  0  0  0  0  0  0  0
   23.1368    7.8345   16.9219 C   0  0  0  0  0  0  0  0  0  0  0  0
   21.7703    8.4949   16.8489 C   0  0  0  0  0  0  0  0  0  0  0  0
   20.8164    8.1042   17.8078 C   0  0  0  0  0  0  0  0  0  0  0  0
   19.5504    8.6760   17.8283 C   0  0  0  0  0  0  0  0  0  0  0  0
   19.2168    9.6499   16.8930 C   0  0  0  0  0  0  0  0  0  0  0  0
   20.1405   10.0657   15.9235 C   0  0  0  0  0  0  0  0  0  0  0  0
   19.7753   11.0540   14.9941 C   0  0  0  0  0  0  0  0  0  0  0  0
   20.6691   11.4902   14.0191 C   0  0  0  0  0  0  0  0  0  0  0  0
   21.9415   10.9411   13.9607 C   0  0  0  0  0  0  0  0  0  0  0  0
   22.3200    9.9567   14.8779 C   0  0  0  0  0  0  0  0  0  0  0  0
   21.4379    9.4912   15.8837 C   0  0  0  0  0  0  0  0  0  0  0  0
 13 14  2  0
 14 15  1  0
 14  2  1  0
  2  3  2  0
  3  4  1  0
  4  5  2  0
  5  6  1  0
  6  7  2  0
  6  8  1  0
  8  9  2  0
  8 10  1  0
 10  1  1  0
  1 21  1  0
 21 22  1  0
 22 23  2  0
 23 24  1  0
 24 25  2  0
 25 26  1  0
 26 27  2  0
 27 28  1  0
 28 29  2  0
 29 30  1  0
 30 31  2  0
  1 17  1  0
 17 18  2  0
 17 19  1  0
 10 11  1  0
 11 12  2  0
  7  2  1  0
 31 22  1  0
 11  5  1  0
 31 26  1  0
 15 16  1  0
 19 20  1  0
M  END
> <minimizedAffinity>
-7.35732

> <CNNscore>
0.8203671575

> <CNNaffinity>
4.7281117439

> <CNN_VS>
3.8787875175

> <CNNaffinity_variance>
0.1038368568

$$$$



 31 34  0  0  0  0  0  0  0  0999 V2000
   23.2763    6.6706   16.2560 C   0  0  0  0  0  0  0  0  0  0  0  0
   22.1605    5.4536   10.4450 C   0  0  0  0  0  0  0  0  0  0  0  0
   20.8884    5.0674   10.9365 C   0  0  0  0  0  0  0  0  0  0  0  0
   20.5949    5.1320   12.3046 C   0  0  0  0  0  0  0  0  0  0  0  0
   21.5944    5.5823   13.1444 C   0  0  0  0  0  0  0  0  0  0  0  0
   22.8356    5.9590   12.6680 C   0  0  0  0  0  0  0  0  0  0  0  0
   23.1543    5.9099   11.3245 C   0  0  0  0  0  0  0  0  0  0  0  0
   23.6300    6.3905   13.8147 C   0  0  0  0  0  0  0  0  0  0  0  0
   24.7568    6.8389   13.7336 O   0  0  0  0  0  0  0  0  0  0  0  0
   22.8530    6.2106   14.9283 N   0  0  0  0  0  0  0  0  0  0  0  0
   21.6011    5.7697   14.5940 C   0  0  0  0  0  0  0  0  0  0  0  0
   20.6377    5.5491   15.3011 O   0  0  0  0  0  0  0  0  0  0  0  0
   22.0307    4.5976    8.2013 O   0  0  0  0  0  0  0  0  0  0  0  0
   22.4883    5.3932    8.9993 C   0  0  0  0  0  0  0  0  0  0  0  0
   23.3718    6.3340    8.6265 O   0  0  0  0  0  0  0  0  0  0  0  0
   23.7103    6.9360    9.2597 H   0  0  0  0  0  0  0  0  0  0  0  0
   24.4843    5.8270   16.6482 C   0  0  0  0  0  0  0  0  0  0  0  0
   24.4796    4.6561   16.9975 O   0  0  0  0  0  0  0  0  0  0  0  0
   25.6470    6.5066   16.5778 O   0  0  0  0  0  0  0  0  0  0  0  0
   25.6494    7.4044   16.3099 H   0  0  0  0  0  0  0  0  0  0  0  0
   23.5992    8.1708   16.3209 C   0  0  0  0  0  0  0  0  0  0  0  0
   22.4788    9.0501   15.7914 C   0  0  0  0  0  0  0  0  0  0  0  0
   22.7368    9.7805   14.6159 C   0  0  0  0  0  0  0  0  0  0  0  0
   21.7595   10.5897   14.0501 C   0  0  0  0  0  0  0  0  0  0  0  0
   20.5068   10.6806   14.6475 C   0  0  0  0  0  0  0  0  0  0  0  0
   20.2121    9.9673   15.8180 C   0  0  0  0  0  0  0  0  0  0  0  0
   18.9363   10.0770   16.3964 C   0  0  0  0  0  0  0  0  0  0  0  0
   18.6108    9.3811   17.5582 C   0  0  0  0  0  0  0  0  0  0  0  0
   19.5597    8.5664   18.1578 C   0  0  0  0  0  0  0  0  0  0  0  0
   20.8335    8.4470   17.5951 C   0  0  0  0  0  0  0  0  0  0  0  0
   21.1982    9.1378   16.4135 C   0  0  0  0  0  0  0  0  0  0  0  0
 13 14  2  0
 14 15  1  0
 14  2  1  0
  2  3  2  0
  3  4  1  0
  4  5  2  0
  5  6  1  0
  6  7  2  0
  6  8  1  0
  8  9  2  0
  8 10  1  0
 10  1  1  0
  1 21  1  0
 21 22  1  0
 22 23  2  0
 23 24  1  0
 24 25  2  0
 25 26  1  0
 26 27  2  0
 27 28  1  0
 28 29  2  0
 29 30  1  0
 30 31  2  0
  1 17  1  0
 17 18  2  0
 17 19  1  0
 10 11  1  0
 11 12  2  0
  7  2  1  0
 31 22  1  0
 11  5  1  0
 31 26  1  0
 15 16  1  0
 19 20  1  0
M  END
> <minimizedAffinity>
-7.01833

> <CNNscore>
0.6729163527

> <CNNaffinity>
4.3791213036

> <CNN_VS>
2.9467823505

> <CNNaffinity_variance>
0.2024013847

$$$$



 31 34  0  0  0  0  0  0  0  0999 V2000
   24.2868    6.6021   15.8454 C   0  0  0  0  0  0  0  0  0  0  0  0
   20.0839   10.3379   18.0532 C   0  0  0  0  0  0  0  0  0  0  0  0
   19.2356    9.2121   17.9052 C   0  0  0  0  0  0  0  0  0  0  0  0
   19.7224    8.0072   17.3825 C   0  0  0  0  0  0  0  0  0  0  0  0
   21.0541    7.9687   17.0189 C   0  0  0  0  0  0  0  0  0  0  0  0
   21.8833    9.0648   17.1617 C   0  0  0  0  0  0  0  0  0  0  0  0
   21.4340   10.2655   17.6770 C   0  0  0  0  0  0  0  0  0  0  0  0
   23.2107    8.6704   16.6983 C   0  0  0  0  0  0  0  0  0  0  0  0
   24.1898    9.3892   16.7427 O   0  0  0  0  0  0  0  0  0  0  0  0
   23.1107    7.3780   16.2558 N   0  0  0  0  0  0  0  0  0  0  0  0
   21.8526    6.8792   16.4605 C   0  0  0  0  0  0  0  0  0  0  0  0
   21.4094    5.7688   16.2430 O   0  0  0  0  0  0  0  0  0  0  0  0
   18.5504   12.1752   18.2901 O   0  0  0  0  0  0  0  0  0  0  0  0
   19.5860   11.6213   18.6063 C   0  0  0  0  0  0  0  0  0  0  0  0
   20.4103   12.1450   19.5287 O   0  0  0  0  0  0  0  0  0  0  0  0
   21.2028   11.6996   19.7557 H   0  0  0  0  0  0  0  0  0  0  0  0
   24.8064    5.8988   17.0944 C   0  0  0  0  0  0  0  0  0  0  0  0
   24.5467    4.7615   17.4580 O   0  0  0  0  0  0  0  0  0  0  0  0
   25.6355    6.6698   17.8271 O   0  0  0  0  0  0  0  0  0  0  0  0
   25.8339    7.5418   17.5473 H   0  0  0  0  0  0  0  0  0  0  0  0
   24.0072    5.5991   14.7163 C   0  0  0  0  0  0  0  0  0  0  0  0
   23.7064    6.2632   13.3833 C   0  0  0  0  0  0  0  0  0  0  0  0
   23.9753    7.6410   13.2772 C   0  0  0  0  0  0  0  0  0  0  0  0
   23.7526    8.3215   12.0866 C   0  0  0  0  0  0  0  0  0  0  0  0
   23.2603    7.6364   10.9808 C   0  0  0  0  0  0  0  0  0  0  0  0
   22.9818    6.2639   11.0476 C   0  0  0  0  0  0  0  0  0  0  0  0
   22.4884    5.5987    9.9127 C   0  0  0  0  0  0  0  0  0  0  0  0
   22.2025    4.2359    9.9451 C   0  0  0  0  0  0  0  0  0  0  0  0
   22.4057    3.5205   11.1159 C   0  0  0  0  0  0  0  0  0  0  0  0
   22.8956    4.1679   12.2537 C   0  0  0  0  0  0  0  0  0  0  0  0
   23.1992    5.5514   12.2559 C   0  0  0  0  0  0  0  0  0  0  0  0
 13 14  2  0
 14 15  1  0
 14  2  1  0
  2  3  2  0
  3  4  1  0
  4  5  2  0
  5  6  1  0
  6  7  2  0
  6  8  1  0
  8  9  2  0
  8 10  1  0
 10  1  1  0
  1 21  1  0
 21 22  1  0
 22 23  2  0
 23 24  1  0
 24 25  2  0
 25 26  1  0
 26 27  2  0
 27 28  1  0
 28 29  2  0
 29 30  1  0
 30 31  2  0
  1 17  1  0
 17 18  2  0
 17 19  1  0
 10 11  1  0
 11 12  2  0
  7  2  1  0
 31 22  1  0
 11  5  1  0
 31 26  1  0
 15 16  1  0
 19 20  1  0
M  END
> <minimizedAffinity>
-7.06732

> <CNNscore>
0.6616756916

> <CNNaffinity>
4.3334431648

> <CNN_VS>
2.8673338890

> <CNNaffinity_variance>
0.7789730430

$$$$



 31 34  0  0  0  0  0  0  0  0999 V2000
   24.2535    6.6171   15.8251 C   0  0  0  0  0  0  0  0  0  0  0  0
   19.2679    9.2871   17.9486 C   0  0  0  0  0  0  0  0  0  0  0  0
   20.0680   10.4562   17.9017 C   0  0  0  0  0  0  0  0  0  0  0  0
   21.4017   10.3996   17.4775 C   0  0  0  0  0  0  0  0  0  0  0  0
   21.8968    9.1629   17.1134 C   0  0  0  0  0  0  0  0  0  0  0  0
   21.1192    8.0216   17.1585 C   0  0  0  0  0  0  0  0  0  0  0  0
   19.8001    8.0453   17.5689 C   0  0  0  0  0  0  0  0  0  0  0  0
   21.9477    6.9112   16.6971 C   0  0  0  0  0  0  0  0  0  0  0  0
   21.5472    5.7717   16.5622 O   0  0  0  0  0  0  0  0  0  0  0  0
   23.1927    7.4221   16.4418 N   0  0  0  0  0  0  0  0  0  0  0  0
   23.2206    8.7779   16.6280 C   0  0  0  0  0  0  0  0  0  0  0  0
   24.1252    9.5703   16.4530 O   0  0  0  0  0  0  0  0  0  0  0  0
   17.4254    9.9655   19.3372 O   0  0  0  0  0  0  0  0  0  0  0  0
   17.8533    9.3285   18.3937 C   0  0  0  0  0  0  0  0  0  0  0  0
   17.0461    8.5707   17.6328 O   0  0  0  0  0  0  0  0  0  0  0  0
   17.3992    8.0888   16.9110 H   0  0  0  0  0  0  0  0  0  0  0  0
   24.9432    5.8603   16.9549 C   0  0  0  0  0  0  0  0  0  0  0  0
   25.8267    6.2800   17.6871 O   0  0  0  0  0  0  0  0  0  0  0  0
   24.4793    4.6033   17.1073 O   0  0  0  0  0  0  0  0  0  0  0  0
   23.8017    4.2825   16.5452 H   0  0  0  0  0  0  0  0  0  0  0  0
   23.7524    5.6574   14.7356 C   0  0  0  0  0  0  0  0  0  0  0  0
   23.5793    6.3237   13.3811 C   0  0  0  0  0  0  0  0  0  0  0  0
   23.9208    7.6862   13.2874 C   0  0  0  0  0  0  0  0  0  0  0  0
   23.8162    8.3662   12.0805 C   0  0  0  0  0  0  0  0  0  0  0  0
   23.3716    7.6959   10.9459 C   0  0  0  0  0  0  0  0  0  0  0  0
   23.0235    6.3387   10.9997 C   0  0  0  0  0  0  0  0  0  0  0  0
   22.5807    5.6880    9.8359 C   0  0  0  0  0  0  0  0  0  0  0  0
   22.2282    4.3406    9.8548 C   0  0  0  0  0  0  0  0  0  0  0  0
   22.3131    3.6265   11.0408 C   0  0  0  0  0  0  0  0  0  0  0  0
   22.7514    4.2595   12.2073 C   0  0  0  0  0  0  0  0  0  0  0  0
   23.1200    5.6271   12.2241 C   0  0  0  0  0  0  0  0  0  0  0  0
 13 14  2  0
 14 15  1  0
 14  2  1  0
  2  3  2  0
  3  4  1  0
  4  5  2  0
  5  6  1  0
  6  7  2  0
  6  8  1  0
  8  9  2  0
  8 10  1  0
 10  1  1  0
  1 21  1  0
 21 22  1  0
 22 23  2  0
 23 24  1  0
 24 25  2  0
 25 26  1  0
 26 27  2  0
 27 28  1  0
 28 29  2  0
 29 30  1  0
 30 31  2  0
  1 17  1  0
 17 18  2  0
 17 19  1  0
 10 11  1  0
 11 12  2  0
  7  2  1  0
 31 22  1  0
 11  5  1  0
 31 26  1  0
 15 16  1  0
 19 20  1  0
M  END
> <minimizedAffinity>
-7.13642

> <CNNscore>
0.6564958692

> <CNNaffinity>
4.3796691895

> <CNN_VS>
2.8752348423

> <CNNaffinity_variance>
0.4742567837

$$$$



 31 34  0  0  0  0  0  0  0  0999 V2000
   23.6015    5.9330   13.4565 C   0  0  0  0  0  0  0  0  0  0  0  0
   19.7183    4.0362    9.2355 C   0  0  0  0  0  0  0  0  0  0  0  0
   20.7642    4.3860    8.3451 C   0  0  0  0  0  0  0  0  0  0  0  0
   21.9640    4.9294    8.8216 C   0  0  0  0  0  0  0  0  0  0  0  0
   22.0781    5.1095   10.1860 C   0  0  0  0  0  0  0  0  0  0  0  0
   21.0599    4.7698   11.0562 C   0  0  0  0  0  0  0  0  0  0  0  0
   19.8665    4.2289   10.6176 C   0  0  0  0  0  0  0  0  0  0  0  0
   21.5208    5.0767   12.4074 C   0  0  0  0  0  0  0  0  0  0  0  0
   20.8826    4.8432   13.4150 O   0  0  0  0  0  0  0  0  0  0  0  0
   22.7689    5.6280   12.2872 N   0  0  0  0  0  0  0  0  0  0  0  0
   23.1842    5.6367   10.9830 C   0  0  0  0  0  0  0  0  0  0  0  0
   24.2406    5.9984   10.5036 O   0  0  0  0  0  0  0  0  0  0  0  0
   18.0521    3.4690    7.5967 O   0  0  0  0  0  0  0  0  0  0  0  0
   18.4415    3.4582    8.7488 C   0  0  0  0  0  0  0  0  0  0  0  0
   17.7181    2.8946    9.7304 O   0  0  0  0  0  0  0  0  0  0  0  0
   18.0392    2.8987   10.6106 H   0  0  0  0  0  0  0  0  0  0  0  0
   24.7360    4.9143   13.4653 C   0  0  0  0  0  0  0  0  0  0  0  0
   25.9305    5.1469   13.5746 O   0  0  0  0  0  0  0  0  0  0  0  0
   24.3040    3.6432   13.3368 O   0  0  0  0  0  0  0  0  0  0  0  0
   23.3877    3.4660   13.2530 H   0  0  0  0  0  0  0  0  0  0  0  0
   24.1428    7.3703   13.4769 C   0  0  0  0  0  0  0  0  0  0  0  0
   23.6656    8.1752   14.6740 C   0  0  0  0  0  0  0  0  0  0  0  0
   22.6805    9.1530   14.4388 C   0  0  0  0  0  0  0  0  0  0  0  0
   22.1705    9.9167   15.4813 C   0  0  0  0  0  0  0  0  0  0  0  0
   22.6340    9.7145   16.7770 C   0  0  0  0  0  0  0  0  0  0  0  0
   23.6134    8.7492   17.0505 C   0  0  0  0  0  0  0  0  0  0  0  0
   24.0592    8.5658   18.3702 C   0  0  0  0  0  0  0  0  0  0  0  0
   25.0299    7.6150   18.6761 C   0  0  0  0  0  0  0  0  0  0  0  0
   25.5689    6.8353   17.6635 C   0  0  0  0  0  0  0  0  0  0  0  0
   25.1363    7.0059   16.3454 C   0  0  0  0  0  0  0  0  0  0  0  0
   24.1495    7.9611   15.9986 C   0  0  0  0  0  0  0  0  0  0  0  0
 13 14  2  0
 14 15  1  0
 14  2  1  0
  2  3  2  0
  3  4  1  0
  4  5  2  0
  5  6  1  0
  6  7  2  0
  6  8  1  0
  8  9  2  0
  8 10  1  0
 10  1  1  0
  1 21  1  0
 21 22  1  0
 22 23  2  0
 23 24  1  0
 24 25  2  0
 25 26  1  0
 26 27  2  0
 27 28  1  0
 28 29  2  0
 29 30  1  0
 30 31  2  0
  1 17  1  0
 17 18  2  0
 17 19  1  0
 10 11  1  0
 11 12  2  0
  7  2  1  0
 31 22  1  0
 11  5  1  0
 31 26  1  0
 15 16  1  0
 19 20  1  0
M  END
> <minimizedAffinity>
-8.49453

> <CNNscore>
0.5002537370

> <CNNaffinity>
4.9684824944

> <CNN_VS>
2.4855020046

> <CNNaffinity_variance>
0.0745437965

$$$$



 31 34  0  0  0  0  0  0  0  0999 V2000
   23.6136    5.7300   14.0423 C   0  0  0  0  0  0  0  0  0  0  0  0
   22.3631    5.5858    8.1339 C   0  0  0  0  0  0  0  0  0  0  0  0
   22.9362    6.8822    8.1447 C   0  0  0  0  0  0  0  0  0  0  0  0
   23.4031    7.4534    9.3353 C   0  0  0  0  0  0  0  0  0  0  0  0
   23.2775    6.7028   10.4877 C   0  0  0  0  0  0  0  0  0  0  0  0
   22.7190    5.4390   10.4802 C   0  0  0  0  0  0  0  0  0  0  0  0
   22.2526    4.8472    9.3220 C   0  0  0  0  0  0  0  0  0  0  0  0
   22.7586    4.9368   11.8507 C   0  0  0  0  0  0  0  0  0  0  0  0
   22.3940    3.8253   12.1804 O   0  0  0  0  0  0  0  0  0  0  0  0
   23.2921    5.9329   12.6249 N   0  0  0  0  0  0  0  0  0  0  0  0
   23.6679    7.0062   11.8632 C   0  0  0  0  0  0  0  0  0  0  0  0
   24.2148    8.0409   12.1902 O   0  0  0  0  0  0  0  0  0  0  0  0
   22.2862    5.1881    5.7634 O   0  0  0  0  0  0  0  0  0  0  0  0
   21.8648    4.9647    6.8822 C   0  0  0  0  0  0  0  0  0  0  0  0
   20.8646    4.0937    7.0960 O   0  0  0  0  0  0  0  0  0  0  0  0
   20.5571    3.9382    7.9673 H   0  0  0  0  0  0  0  0  0  0  0  0
   25.1344    5.6975   14.1471 C   0  0  0  0  0  0  0  0  0  0  0  0
   25.8817    4.8341   13.7124 O   0  0  0  0  0  0  0  0  0  0  0  0
   25.6408    6.7645   14.7980 O   0  0  0  0  0  0  0  0  0  0  0  0
   25.0668    7.4260   15.1309 H   0  0  0  0  0  0  0  0  0  0  0  0
   23.0131    6.7927   14.9747 C   0  0  0  0  0  0  0  0  0  0  0  0
   21.5305    7.0285   14.7410 C   0  0  0  0  0  0  0  0  0  0  0  0
   20.6703    5.9273   14.9123 C   0  0  0  0  0  0  0  0  0  0  0  0
   19.2980    6.0612   14.7426 C   0  0  0  0  0  0  0  0  0  0  0  0
   18.7613    7.2982   14.4017 C   0  0  0  0  0  0  0  0  0  0  0  0
   19.5858    8.4182   14.2238 C   0  0  0  0  0  0  0  0  0  0  0  0
   19.0139    9.6554   13.8829 C   0  0  0  0  0  0  0  0  0  0  0  0
   19.8044   10.7874   13.6999 C   0  0  0  0  0  0  0  0  0  0  0  0
   21.1797   10.6955   13.8547 C   0  0  0  0  0  0  0  0  0  0  0  0
   21.7640    9.4718   14.1933 C   0  0  0  0  0  0  0  0  0  0  0  0
   20.9908    8.3012   14.3892 C   0  0  0  0  0  0  0  0  0  0  0  0
 13 14  2  0
 14 15  1  0
 14  2  1  0
  2  3  2  0
  3  4  1  0
  4  5  2  0
  5  6  1  0
  6  7  2  0
  6  8  1  0
  8  9  2  0
  8 10  1  0
 10  1  1  0
  1 21  1  0
 21 22  1  0
 22 23  2  0
 23 24  1  0
 24 25  2  0
 25 26  1  0
 26 27  2  0
 27 28  1  0
 28 29  2  0
 29 30  1  0
 30 31  2  0
  1 17  1  0
 17 18  2  0
 17 19  1  0
 10 11  1  0
 11 12  2  0
  7  2  1  0
 31 22  1  0
 11  5  1  0
 31 26  1  0
 15 16  1  0
 19 20  1  0
M  END
> <minimizedAffinity>
-7.46620

> <CNNscore>
0.4450297356

> <CNNaffinity>
4.3684611320

> <CNN_VS>
1.9440951347

> <CNNaffinity_variance>
0.2706594467

$$$$



 31 34  0  0  0  0  0  0  0  0999 V2000
   17.4237    7.6984   21.2001 C   0  0  0  0  0  0  0  0  0  0  0  0
   22.8836    5.7692   19.4789 C   0  0  0  0  0  0  0  0  0  0  0  0
   22.5858    6.4860   18.2930 C   0  0  0  0  0  0  0  0  0  0  0  0
   21.3618    7.1496   18.1406 C   0  0  0  0  0  0  0  0  0  0  0  0
   20.4660    7.0712   19.1886 C   0  0  0  0  0  0  0  0  0  0  0  0
   20.7534    6.3727   20.3458 C   0  0  0  0  0  0  0  0  0  0  0  0
   21.9526    5.7110   20.5275 C   0  0  0  0  0  0  0  0  0  0  0  0
   19.6037    6.5111   21.2353 C   0  0  0  0  0  0  0  0  0  0  0  0
   19.5561    6.0604   22.3631 O   0  0  0  0  0  0  0  0  0  0  0  0
   18.6626    7.2418   20.5596 N   0  0  0  0  0  0  0  0  0  0  0  0
   19.1322    7.6494   19.3403 C   0  0  0  0  0  0  0  0  0  0  0  0
   18.6057    8.3465   18.4955 O   0  0  0  0  0  0  0  0  0  0  0  0
   25.0009    4.8621   18.7879 O   0  0  0  0  0  0  0  0  0  0  0  0
   24.1752    5.0618   19.6583 C   0  0  0  0  0  0  0  0  0  0  0  0
   24.3675    4.6416   20.9197 O   0  0  0  0  0  0  0  0  0  0  0  0
   23.7167    4.8073   21.5730 H   0  0  0  0  0  0  0  0  0  0  0  0
   17.7921    8.9022   22.0603 C   0  0  0  0  0  0  0  0  0  0  0  0
   17.9435   10.0546   21.6836 O   0  0  0  0  0  0  0  0  0  0  0  0
   17.9503    8.5906   23.3628 O   0  0  0  0  0  0  0  0  0  0  0  0
   17.8339    7.7065   23.6506 H   0  0  0  0  0  0  0  0  0  0  0  0
   16.3018    8.0434   20.2094 C   0  0  0  0  0  0  0  0  0  0  0  0
   14.9719    7.3970   20.5584 C   0  0  0  0  0  0  0  0  0  0  0  0
   14.5084    7.5541   21.8784 C   0  0  0  0  0  0  0  0  0  0  0  0
   13.2905    7.0164   22.2754 C   0  0  0  0  0  0  0  0  0  0  0  0
   12.5135    6.3150   21.3596 C   0  0  0  0  0  0  0  0  0  0  0  0
   12.9411    6.1388   20.0360 C   0  0  0  0  0  0  0  0  0  0  0  0
   12.1325    5.4282   19.1330 C   0  0  0  0  0  0  0  0  0  0  0  0
   12.5273    5.2362   17.8111 C   0  0  0  0  0  0  0  0  0  0  0  0
   13.7388    5.7523   17.3757 C   0  0  0  0  0  0  0  0  0  0  0  0
   14.5548    6.4612   18.2618 C   0  0  0  0  0  0  0  0  0  0  0  0
   14.1840    6.6775   19.6117 C   0  0  0  0  0  0  0  0  0  0  0  0
 13 14  2  0
 14 15  1  0
 14  2  1  0
  2  3  2  0
  3  4  1  0
  4  5  2  0
  5  6  1  0
  6  7  2  0
  6  8  1  0
  8  9  2  0
  8 10  1  0
 10  1  1  0
  1 21  1  0
 21 22  1  0
 22 23  2  0
 23 24  1  0
 24 25  2  0
 25 26  1  0
 26 27  2  0
 27 28  1  0
 28 29  2  0
 29 30  1  0
 30 31  2  0
  1 17  1  0
 17 18  2  0
 17 19  1  0
 10 11  1  0
 11 12  2  0
  7  2  1  0
 31 22  1  0
 11  5  1  0
 31 26  1  0
 15 16  1  0
 19 20  1  0
M  END
> <minimizedAffinity>
-7.33363

> <CNNscore>
0.3889560401

> <CNNaffinity>
3.7784144878

> <CNN_VS>
1.4696371555

> <CNNaffinity_variance>
0.6560377479

$$$$



 31 34  0  0  0  0  0  0  0  0999 V2000
   21.8112    6.8102   12.0378 C   0  0  0  0  0  0  0  0  0  0  0  0
   24.3071    6.2644   17.5120 C   0  0  0  0  0  0  0  0  0  0  0  0
   25.3087    7.1033   16.9623 C   0  0  0  0  0  0  0  0  0  0  0  0
   25.2325    7.5407   15.6339 C   0  0  0  0  0  0  0  0  0  0  0  0
   24.1478    7.1180   14.8910 C   0  0  0  0  0  0  0  0  0  0  0  0
   23.1702    6.2999   15.4241 C   0  0  0  0  0  0  0  0  0  0  0  0
   23.2152    5.8547   16.7313 C   0  0  0  0  0  0  0  0  0  0  0  0
   22.1791    6.0661   14.3776 C   0  0  0  0  0  0  0  0  0  0  0  0
   21.1561    5.4296   14.5372 O   0  0  0  0  0  0  0  0  0  0  0  0
   22.6257    6.7107   13.2545 N   0  0  0  0  0  0  0  0  0  0  0  0
   23.7811    7.4006   13.5046 C   0  0  0  0  0  0  0  0  0  0  0  0
   24.4336    8.1193   12.7736 O   0  0  0  0  0  0  0  0  0  0  0  0
   25.1955    5.0219   19.3696 O   0  0  0  0  0  0  0  0  0  0  0  0
   24.3707    5.7928   18.9172 C   0  0  0  0  0  0  0  0  0  0  0  0
   23.3983    6.3123   19.6849 O   0  0  0  0  0  0  0  0  0  0  0  0
   22.7742    6.9044   19.3135 H   0  0  0  0  0  0  0  0  0  0  0  0
   20.9258    8.0406   12.2019 C   0  0  0  0  0  0  0  0  0  0  0  0
   21.2351    9.2020   11.9820 O   0  0  0  0  0  0  0  0  0  0  0  0
   19.6844    7.7425   12.6363 O   0  0  0  0  0  0  0  0  0  0  0  0
   19.4483    6.8515   12.8046 H   0  0  0  0  0  0  0  0  0  0  0  0
   22.6339    6.8840   10.7428 C   0  0  0  0  0  0  0  0  0  0  0  0
   22.0780    6.0149    9.6274 C   0  0  0  0  0  0  0  0  0  0  0  0
   21.2292    4.9557   10.0011 C   0  0  0  0  0  0  0  0  0  0  0  0
   20.6579    4.1277    9.0429 C   0  0  0  0  0  0  0  0  0  0  0  0
   20.9224    4.3456    7.6950 C   0  0  0  0  0  0  0  0  0  0  0  0
   21.7615    5.3911    7.2841 C   0  0  0  0  0  0  0  0  0  0  0  0
   22.0072    5.5882    5.9149 C   0  0  0  0  0  0  0  0  0  0  0  0
   22.8347    6.6177    5.4733 C   0  0  0  0  0  0  0  0  0  0  0  0
   23.4292    7.4638    6.3978 C   0  0  0  0  0  0  0  0  0  0  0  0
   23.1951    7.2806    7.7635 C   0  0  0  0  0  0  0  0  0  0  0  0
   22.3577    6.2460    8.2478 C   0  0  0  0  0  0  0  0  0  0  0  0
 13 14  2  0
 14 15  1  0
 14  2  1  0
  2  3  2  0
  3  4  1  0
  4  5  2  0
  5  6  1  0
  6  7  2  0
  6  8  1  0
  8  9  2  0
  8 10  1  0
 10  1  1  0
  1 21  1  0
 21 22  1  0
 22 23  2  0
 23 24  1  0
 24 25  2  0
 25 26  1  0
 26 27  2  0
 27 28  1  0
 28 29  2  0
 29 30  1  0
 30 31  2  0
  1 17  1  0
 17 18  2  0
 17 19  1  0
 10 11  1  0
 11 12  2  0
  7  2  1  0
 31 22  1  0
 11  5  1  0
 31 26  1  0
 15 16  1  0
 19 20  1  0
M  END
> <minimizedAffinity>
-7.57929

> <CNNscore>
0.3882531226

> <CNNaffinity>
4.5872135162

> <CNN_VS>
1.7810000181

> <CNNaffinity_variance>
0.1739765406

$$$$
