


 36 40  0  0  0  0  0  0  0  0999 V2000
    6.6593   -6.5974   -0.8038 C   0  0  0  0  0  0  0  0  0  0  0  0
    7.7366   -7.0973   -1.4266 N   0  0  0  0  0  0  0  0  0  0  0  0
    7.5260   -7.7719   -2.5723 C   0  0  0  0  0  0  0  0  0  0  0  0
    6.2841   -7.9563   -3.1325 C   0  0  0  0  0  0  0  0  0  0  0  0
    5.2289   -7.4167   -2.4269 C   0  0  0  0  0  0  0  0  0  0  0  0
    5.4132   -6.7292   -1.2762 N   0  0  0  0  0  0  0  0  0  0  0  0
    3.8323   -7.5031   -2.8995 C   0  0  0  0  0  0  0  0  0  0  0  0
    2.9696   -6.4031   -2.6926 C   0  0  0  0  0  0  0  0  0  0  0  0
    1.6489   -6.4056   -3.1477 C   0  0  0  0  0  0  0  0  0  0  0  0
    1.1616   -7.5123   -3.8283 C   0  0  0  0  0  0  0  0  0  0  0  0
   -0.4579   -7.5184   -4.4065 Cl  0  0  0  0  0  0  0  0  0  0  0  0
    1.9768   -8.6193   -4.0446 C   0  0  0  0  0  0  0  0  0  0  0  0
    3.3029   -8.6290   -3.5707 C   0  0  0  0  0  0  0  0  0  0  0  0
    4.0996   -9.8827   -3.7909 C   0  0  0  0  0  0  0  0  0  0  0  0
    5.3328   -9.9353   -4.1715 N   0  0  0  0  0  0  0  0  0  0  0  0
    6.0722   -8.7035   -4.4043 C   0  0  0  0  0  0  0  0  0  0  0  0
    3.4264  -11.1815   -3.5383 C   0  0  0  0  0  0  0  0  0  0  0  0
    2.7186  -11.8195   -4.5551 C   0  0  0  0  0  0  0  0  0  0  0  0
    2.5777  -11.2506   -5.7610 F   0  0  0  0  0  0  0  0  0  0  0  0
    2.0988  -13.0479   -4.3261 C   0  0  0  0  0  0  0  0  0  0  0  0
    2.1888  -13.6506   -3.0704 C   0  0  0  0  0  0  0  0  0  0  0  0
    2.8981  -13.0185   -2.0482 C   0  0  0  0  0  0  0  0  0  0  0  0
    3.5135  -11.7906   -2.2874 C   0  0  0  0  0  0  0  0  0  0  0  0
    4.1956  -11.2123   -1.2886 F   0  0  0  0  0  0  0  0  0  0  0  0
    6.9318   -5.9002    0.3695 N   0  0  0  0  0  0  0  0  0  0  0  0
    6.6742   -6.3953    1.1805 H   0  0  0  0  0  0  0  0  0  0  0  0
    8.5140   -2.0495    1.1167 C   0  0  0  0  0  0  0  0  0  0  0  0
    8.6812   -3.0600    2.0663 C   0  0  0  0  0  0  0  0  0  0  0  0
    8.1696   -4.3431    1.8314 C   0  0  0  0  0  0  0  0  0  0  0  0
    7.4916   -4.6496    0.6468 C   0  0  0  0  0  0  0  0  0  0  0  0
    7.3242   -3.6182   -0.2928 C   0  0  0  0  0  0  0  0  0  0  0  0
    7.8307   -2.3324   -0.0677 C   0  0  0  0  0  0  0  0  0  0  0  0
    9.0030   -0.1205    2.4726 O   0  0  0  0  0  0  0  0  0  0  0  0
    9.0700   -0.7064    1.4079 C   0  0  0  0  0  0  0  0  0  0  0  0
    9.6875   -0.1558    0.3474 O   0  0  0  0  0  0  0  0  0  0  0  0
    9.7292   -0.6218   -0.4644 H   0  0  0  0  0  0  0  0  0  0  0  0
 33 34  2  0
 34 35  1  0
 34 27  1  0
 27 28  2  0
 28 29  1  0
 29 30  2  0
 30 25  1  0
 25  1  1  0
  1  2  2  0
  2  3  1  0
  3  4  2  0
  4  5  1  0
  5  6  2  0
  5  7  1  0
  7  8  2  0
  8  9  1  0
  9 10  2  0
 10 11  1  0
 10 12  1  0
 12 13  2  0
 13 14  1  0
 14 17  1  0
 17 18  2  0
 18 19  1  0
 18 20  1  0
 20 21  2  0
 21 22  1  0
 22 23  2  0
 23 24  1  0
 14 15  2  0
 15 16  1  0
 30 31  1  0
 31 32  2  0
 32 27  1  0
  6  1  1  0
 13  7  1  0
 23 17  1  0
 16  4  1  0
 35 36  1  0
 25 26  1  0
M  END
> <minimizedAffinity>
-9.31526

> <CNNscore>
0.1431327462

> <CNNaffinity>
6.5228176117

> <CNN_VS>
0.9336287975

> <CNNaffinity_variance>
0.3453360796

$$$$



 36 40  0  0  0  0  0  0  0  0999 V2000
    6.4745   -6.3150   -0.5683 C   0  0  0  0  0  0  0  0  0  0  0  0
    7.6024   -6.7648   -1.1373 N   0  0  0  0  0  0  0  0  0  0  0  0
    7.4772   -7.4640   -2.2807 C   0  0  0  0  0  0  0  0  0  0  0  0
    6.2721   -7.7210   -2.8905 C   0  0  0  0  0  0  0  0  0  0  0  0
    5.1605   -7.2293   -2.2384 C   0  0  0  0  0  0  0  0  0  0  0  0
    5.2586   -6.5186   -1.0912 N   0  0  0  0  0  0  0  0  0  0  0  0
    3.7921   -7.3955   -2.7686 C   0  0  0  0  0  0  0  0  0  0  0  0
    2.8647   -6.3403   -2.6148 C   0  0  0  0  0  0  0  0  0  0  0  0
    1.5669   -6.4185   -3.1255 C   0  0  0  0  0  0  0  0  0  0  0  0
    1.1682   -7.5580   -3.8097 C   0  0  0  0  0  0  0  0  0  0  0  0
   -0.4223   -7.6572   -4.4561 Cl  0  0  0  0  0  0  0  0  0  0  0  0
    2.0489   -8.6228   -3.9748 C   0  0  0  0  0  0  0  0  0  0  0  0
    3.3519   -8.5563   -3.4448 C   0  0  0  0  0  0  0  0  0  0  0  0
    4.2220   -9.7686   -3.6123 C   0  0  0  0  0  0  0  0  0  0  0  0
    5.4715   -9.7606   -3.9394 N   0  0  0  0  0  0  0  0  0  0  0  0
    6.1547   -8.4943   -4.1588 C   0  0  0  0  0  0  0  0  0  0  0  0
    3.6076  -11.0980   -3.3693 C   0  0  0  0  0  0  0  0  0  0  0  0
    3.6585  -11.6789   -2.1037 C   0  0  0  0  0  0  0  0  0  0  0  0
    4.3122  -11.0833   -1.0958 F   0  0  0  0  0  0  0  0  0  0  0  0
    3.0679  -12.9203   -1.8678 C   0  0  0  0  0  0  0  0  0  0  0  0
    2.4146  -13.5894   -2.9039 C   0  0  0  0  0  0  0  0  0  0  0  0
    2.3575  -13.0125   -4.1732 C   0  0  0  0  0  0  0  0  0  0  0  0
    2.9515  -11.7716   -4.3986 C   0  0  0  0  0  0  0  0  0  0  0  0
    2.8721  -11.2385   -5.6261 F   0  0  0  0  0  0  0  0  0  0  0  0
    6.6591   -5.5895    0.6050 N   0  0  0  0  0  0  0  0  0  0  0  0
    5.8598   -5.5765    1.1797 H   0  0  0  0  0  0  0  0  0  0  0  0
    9.9831   -3.5664    2.2626 C   0  0  0  0  0  0  0  0  0  0  0  0
    9.1757   -2.9153    1.3272 C   0  0  0  0  0  0  0  0  0  0  0  0
    8.0666   -3.5685    0.7737 C   0  0  0  0  0  0  0  0  0  0  0  0
    7.7326   -4.8752    1.1450 C   0  0  0  0  0  0  0  0  0  0  0  0
    8.5617   -5.5182    2.0798 C   0  0  0  0  0  0  0  0  0  0  0  0
    9.6729   -4.8750    2.6384 C   0  0  0  0  0  0  0  0  0  0  0  0
   11.6812   -1.8604    2.3298 O   0  0  0  0  0  0  0  0  0  0  0  0
   11.1474   -2.8379    2.8206 C   0  0  0  0  0  0  0  0  0  0  0  0
   11.5922   -3.3693    3.9734 O   0  0  0  0  0  0  0  0  0  0  0  0
   11.1687   -4.1222    4.3364 H   0  0  0  0  0  0  0  0  0  0  0  0
 33 34  2  0
 34 35  1  0
 34 27  1  0
 27 28  2  0
 28 29  1  0
 29 30  2  0
 30 25  1  0
 25  1  1  0
  1  2  2  0
  2  3  1  0
  3  4  2  0
  4  5  1  0
  5  6  2  0
  5  7  1  0
  7  8  2  0
  8  9  1  0
  9 10  2  0
 10 11  1  0
 10 12  1  0
 12 13  2  0
 13 14  1  0
 14 17  1  0
 17 18  2  0
 18 19  1  0
 18 20  1  0
 20 21  2  0
 21 22  1  0
 22 23  2  0
 23 24  1  0
 14 15  2  0
 15 16  1  0
 30 31  1  0
 31 32  2  0
 32 27  1  0
  6  1  1  0
 13  7  1  0
 23 17  1  0
 16  4  1  0
 35 36  1  0
 25 26  1  0
M  END
> <minimizedAffinity>
-8.64581

> <CNNscore>
0.1270772070

> <CNNaffinity>
6.3119411469

> <CNN_VS>
0.8021038771

> <CNNaffinity_variance>
0.3375809193

$$$$



 36 40  0  0  0  0  0  0  0  0999 V2000
    8.8880  -10.3735   -3.5951 C   0  0  0  0  0  0  0  0  0  0  0  0
    9.2080  -11.0342   -4.7173 N   0  0  0  0  0  0  0  0  0  0  0  0
    8.3084  -11.0165   -5.7184 C   0  0  0  0  0  0  0  0  0  0  0  0
    7.1061  -10.3531   -5.6529 C   0  0  0  0  0  0  0  0  0  0  0  0
    6.8507   -9.7041   -4.4629 C   0  0  0  0  0  0  0  0  0  0  0  0
    7.7400   -9.7011   -3.4431 N   0  0  0  0  0  0  0  0  0  0  0  0
    5.6174   -8.9244   -4.2338 C   0  0  0  0  0  0  0  0  0  0  0  0
    5.6918   -7.7294   -3.4830 C   0  0  0  0  0  0  0  0  0  0  0  0
    4.5705   -6.9264   -3.2614 C   0  0  0  0  0  0  0  0  0  0  0  0
    3.3448   -7.3007   -3.7937 C   0  0  0  0  0  0  0  0  0  0  0  0
    1.9619   -6.3104   -3.5400 Cl  0  0  0  0  0  0  0  0  0  0  0  0
    3.2280   -8.4749   -4.5314 C   0  0  0  0  0  0  0  0  0  0  0  0
    4.3517   -9.2974   -4.7409 C   0  0  0  0  0  0  0  0  0  0  0  0
    4.1326  -10.5770   -5.4956 C   0  0  0  0  0  0  0  0  0  0  0  0
    4.9076  -11.0541   -6.4122 N   0  0  0  0  0  0  0  0  0  0  0  0
    6.1246  -10.3426   -6.7741 C   0  0  0  0  0  0  0  0  0  0  0  0
    2.9308  -11.3805   -5.1576 C   0  0  0  0  0  0  0  0  0  0  0  0
    1.7518  -11.2275   -5.8844 C   0  0  0  0  0  0  0  0  0  0  0  0
    1.6555  -10.3137   -6.8609 F   0  0  0  0  0  0  0  0  0  0  0  0
    0.6258  -11.9925   -5.5803 C   0  0  0  0  0  0  0  0  0  0  0  0
    0.6760  -12.9245   -4.5425 C   0  0  0  0  0  0  0  0  0  0  0  0
    1.8542  -13.0847   -3.8121 C   0  0  0  0  0  0  0  0  0  0  0  0
    2.9738  -12.3147   -4.1239 C   0  0  0  0  0  0  0  0  0  0  0  0
    4.0941  -12.4978   -3.4106 F   0  0  0  0  0  0  0  0  0  0  0  0
    9.8555  -10.4134   -2.5954 N   0  0  0  0  0  0  0  0  0  0  0  0
    9.6667   -9.7967   -1.8517 H   0  0  0  0  0  0  0  0  0  0  0  0
   13.4738  -12.5049   -1.9445 C   0  0  0  0  0  0  0  0  0  0  0  0
   12.3576  -13.1915   -2.4280 C   0  0  0  0  0  0  0  0  0  0  0  0
   11.1535  -12.5124   -2.6559 C   0  0  0  0  0  0  0  0  0  0  0  0
   11.0373  -11.1388   -2.4178 C   0  0  0  0  0  0  0  0  0  0  0  0
   12.1672  -10.4663   -1.9224 C   0  0  0  0  0  0  0  0  0  0  0  0
   13.3751  -11.1354   -1.6903 C   0  0  0  0  0  0  0  0  0  0  0  0
   15.7856  -13.0843   -2.2883 O   0  0  0  0  0  0  0  0  0  0  0  0
   14.7266  -13.2639   -1.7161 C   0  0  0  0  0  0  0  0  0  0  0  0
   14.5953  -14.2175   -0.7767 O   0  0  0  0  0  0  0  0  0  0  0  0
   13.7721  -14.3413   -0.3466 H   0  0  0  0  0  0  0  0  0  0  0  0
 33 34  2  0
 34 35  1  0
 34 27  1  0
 27 28  2  0
 28 29  1  0
 29 30  2  0
 30 25  1  0
 25  1  1  0
  1  2  2  0
  2  3  1  0
  3  4  2  0
  4  5  1  0
  5  6  2  0
  5  7  1  0
  7  8  2  0
  8  9  1  0
  9 10  2  0
 10 11  1  0
 10 12  1  0
 12 13  2  0
 13 14  1  0
 14 17  1  0
 17 18  2  0
 18 19  1  0
 18 20  1  0
 20 21  2  0
 21 22  1  0
 22 23  2  0
 23 24  1  0
 14 15  2  0
 15 16  1  0
 30 31  1  0
 31 32  2  0
 32 27  1  0
  6  1  1  0
 13  7  1  0
 23 17  1  0
 16  4  1  0
 35 36  1  0
 25 26  1  0
M  END
> <minimizedAffinity>
-9.71213

> <CNNscore>
0.0967629775

> <CNNaffinity>
6.1213550568

> <CNN_VS>
0.5923205614

> <CNNaffinity_variance>
0.5046924949

$$$$



 36 40  0  0  0  0  0  0  0  0999 V2000
    8.6476  -11.5432   -3.8647 C   0  0  0  0  0  0  0  0  0  0  0  0
    8.7121  -11.9501   -5.1408 N   0  0  0  0  0  0  0  0  0  0  0  0
    7.8054  -11.4398   -5.9950 C   0  0  0  0  0  0  0  0  0  0  0  0
    6.8440  -10.5266   -5.6321 C   0  0  0  0  0  0  0  0  0  0  0  0
    6.8415  -10.1650   -4.3010 C   0  0  0  0  0  0  0  0  0  0  0  0
    7.7450  -10.6582   -3.4228 N   0  0  0  0  0  0  0  0  0  0  0  0
    5.8913   -9.1780   -3.7493 C   0  0  0  0  0  0  0  0  0  0  0  0
    6.3371   -8.2806   -2.7528 C   0  0  0  0  0  0  0  0  0  0  0  0
    5.5003   -7.2992   -2.2162 C   0  0  0  0  0  0  0  0  0  0  0  0
    4.1940   -7.1900   -2.6715 C   0  0  0  0  0  0  0  0  0  0  0  0
    3.1610   -5.9746   -2.0286 Cl  0  0  0  0  0  0  0  0  0  0  0  0
    3.7141   -8.0604   -3.6456 C   0  0  0  0  0  0  0  0  0  0  0  0
    4.5482   -9.0638   -4.1753 C   0  0  0  0  0  0  0  0  0  0  0  0
    3.9397  -10.0011   -5.1784 C   0  0  0  0  0  0  0  0  0  0  0  0
    4.5022  -10.4091   -6.2672 N   0  0  0  0  0  0  0  0  0  0  0  0
    5.8510   -9.9706   -6.5940 C   0  0  0  0  0  0  0  0  0  0  0  0
    2.5784  -10.5229   -4.8981 C   0  0  0  0  0  0  0  0  0  0  0  0
    1.4517   -9.7880   -5.2618 C   0  0  0  0  0  0  0  0  0  0  0  0
    1.5686   -8.5722   -5.8149 F   0  0  0  0  0  0  0  0  0  0  0  0
    0.1712  -10.2827   -5.0149 C   0  0  0  0  0  0  0  0  0  0  0  0
    0.0106  -11.5266   -4.4025 C   0  0  0  0  0  0  0  0  0  0  0  0
    1.1345  -12.2691   -4.0378 C   0  0  0  0  0  0  0  0  0  0  0  0
    2.4100  -11.7653   -4.2886 C   0  0  0  0  0  0  0  0  0  0  0  0
    3.4704  -12.5057   -3.9354 F   0  0  0  0  0  0  0  0  0  0  0  0
    9.6129  -12.0915   -3.0253 N   0  0  0  0  0  0  0  0  0  0  0  0
    9.2437  -12.4106   -2.1703 H   0  0  0  0  0  0  0  0  0  0  0  0
   13.7609  -12.7938   -3.4619 C   0  0  0  0  0  0  0  0  0  0  0  0
   13.3152  -11.5445   -3.0242 C   0  0  0  0  0  0  0  0  0  0  0  0
   11.9450  -11.2975   -2.8672 C   0  0  0  0  0  0  0  0  0  0  0  0
   10.9929  -12.2875   -3.1323 C   0  0  0  0  0  0  0  0  0  0  0  0
   11.4588  -13.5350   -3.5812 C   0  0  0  0  0  0  0  0  0  0  0  0
   12.8257  -13.7921   -3.7422 C   0  0  0  0  0  0  0  0  0  0  0  0
   15.7531  -13.7189   -4.4488 O   0  0  0  0  0  0  0  0  0  0  0  0
   15.2195  -13.0102   -3.6156 C   0  0  0  0  0  0  0  0  0  0  0  0
   15.9466  -12.3256   -2.7146 O   0  0  0  0  0  0  0  0  0  0  0  0
   15.5184  -11.7848   -2.0805 H   0  0  0  0  0  0  0  0  0  0  0  0
 33 34  2  0
 34 35  1  0
 34 27  1  0
 27 28  2  0
 28 29  1  0
 29 30  2  0
 30 25  1  0
 25  1  1  0
  1  2  2  0
  2  3  1  0
  3  4  2  0
  4  5  1  0
  5  6  2  0
  5  7  1  0
  7  8  2  0
  8  9  1  0
  9 10  2  0
 10 11  1  0
 10 12  1  0
 12 13  2  0
 13 14  1  0
 14 17  1  0
 17 18  2  0
 18 19  1  0
 18 20  1  0
 20 21  2  0
 21 22  1  0
 22 23  2  0
 23 24  1  0
 14 15  2  0
 15 16  1  0
 30 31  1  0
 31 32  2  0
 32 27  1  0
  6  1  1  0
 13  7  1  0
 23 17  1  0
 16  4  1  0
 35 36  1  0
 25 26  1  0
M  END
> <minimizedAffinity>
-8.46878

> <CNNscore>
0.0955208093

> <CNNaffinity>
6.2070007324

> <CNN_VS>
0.5928977132

> <CNNaffinity_variance>
0.3772529066

$$$$



 36 40  0  0  0  0  0  0  0  0999 V2000
    8.9190  -10.3392   -3.6189 C   0  0  0  0  0  0  0  0  0  0  0  0
    9.2363  -11.0063   -4.7382 N   0  0  0  0  0  0  0  0  0  0  0  0
    8.3307  -11.0013   -5.7340 C   0  0  0  0  0  0  0  0  0  0  0  0
    7.1249  -10.3444   -5.6662 C   0  0  0  0  0  0  0  0  0  0  0  0
    6.8727   -9.6882   -4.4795 C   0  0  0  0  0  0  0  0  0  0  0  0
    7.7680   -9.6724   -3.4651 N   0  0  0  0  0  0  0  0  0  0  0  0
    5.6363   -8.9139   -4.2488 C   0  0  0  0  0  0  0  0  0  0  0  0
    5.7082   -7.7130   -3.5073 C   0  0  0  0  0  0  0  0  0  0  0  0
    4.5834   -6.9149   -3.2850 C   0  0  0  0  0  0  0  0  0  0  0  0
    3.3569   -7.3002   -3.8072 C   0  0  0  0  0  0  0  0  0  0  0  0
    1.9697   -6.3162   -3.5525 Cl  0  0  0  0  0  0  0  0  0  0  0  0
    3.2426   -8.4805   -4.5355 C   0  0  0  0  0  0  0  0  0  0  0  0
    4.3698   -9.2980   -4.7457 C   0  0  0  0  0  0  0  0  0  0  0  0
    4.1537  -10.5844   -5.4896 C   0  0  0  0  0  0  0  0  0  0  0  0
    4.9261  -11.0638   -6.4072 N   0  0  0  0  0  0  0  0  0  0  0  0
    6.1368  -10.3479   -6.7816 C   0  0  0  0  0  0  0  0  0  0  0  0
    2.9587  -11.3923   -5.1385 C   0  0  0  0  0  0  0  0  0  0  0  0
    3.0085  -12.3073   -4.0887 C   0  0  0  0  0  0  0  0  0  0  0  0
    4.1466  -12.5234   -3.4136 F   0  0  0  0  0  0  0  0  0  0  0  0
    1.8829  -13.0561   -3.7454 C   0  0  0  0  0  0  0  0  0  0  0  0
    0.6917  -12.8883   -4.4533 C   0  0  0  0  0  0  0  0  0  0  0  0
    0.6340  -11.9720   -5.5042 C   0  0  0  0  0  0  0  0  0  0  0  0
    1.7649  -11.2289   -5.8396 C   0  0  0  0  0  0  0  0  0  0  0  0
    1.6761  -10.3497   -6.8477 F   0  0  0  0  0  0  0  0  0  0  0  0
    9.8927  -10.3661   -2.6248 N   0  0  0  0  0  0  0  0  0  0  0  0
    9.7143   -9.7315   -1.8936 H   0  0  0  0  0  0  0  0  0  0  0  0
   13.4939  -12.4787   -1.9478 C   0  0  0  0  0  0  0  0  0  0  0  0
   12.3782  -13.1580   -2.4425 C   0  0  0  0  0  0  0  0  0  0  0  0
   11.1798  -12.4719   -2.6792 C   0  0  0  0  0  0  0  0  0  0  0  0
   11.0689  -11.0983   -2.4388 C   0  0  0  0  0  0  0  0  0  0  0  0
   12.1982  -10.4331   -1.9320 C   0  0  0  0  0  0  0  0  0  0  0  0
   13.4004  -11.1093   -1.6911 C   0  0  0  0  0  0  0  0  0  0  0  0
   15.8154  -13.0448   -2.2451 O   0  0  0  0  0  0  0  0  0  0  0  0
   14.7406  -13.2449   -1.7104 C   0  0  0  0  0  0  0  0  0  0  0  0
   14.5834  -14.2315   -0.8097 O   0  0  0  0  0  0  0  0  0  0  0  0
   13.7483  -14.3707   -0.4082 H   0  0  0  0  0  0  0  0  0  0  0  0
 33 34  2  0
 34 35  1  0
 34 27  1  0
 27 28  2  0
 28 29  1  0
 29 30  2  0
 30 25  1  0
 25  1  1  0
  1  2  2  0
  2  3  1  0
  3  4  2  0
  4  5  1  0
  5  6  2  0
  5  7  1  0
  7  8  2  0
  8  9  1  0
  9 10  2  0
 10 11  1  0
 10 12  1  0
 12 13  2  0
 13 14  1  0
 14 17  1  0
 17 18  2  0
 18 19  1  0
 18 20  1  0
 20 21  2  0
 21 22  1  0
 22 23  2  0
 23 24  1  0
 14 15  2  0
 15 16  1  0
 30 31  1  0
 31 32  2  0
 32 27  1  0
  6  1  1  0
 13  7  1  0
 23 17  1  0
 16  4  1  0
 35 36  1  0
 25 26  1  0
M  END
> <minimizedAffinity>
-9.72920

> <CNNscore>
0.0951456353

> <CNNaffinity>
6.0851750374

> <CNN_VS>
0.5789778233

> <CNNaffinity_variance>
0.5424368382

$$$$



 36 40  0  0  0  0  0  0  0  0999 V2000
    8.8165  -12.1932   -5.3646 C   0  0  0  0  0  0  0  0  0  0  0  0
    9.3475  -10.9681   -5.4893 N   0  0  0  0  0  0  0  0  0  0  0  0
    8.7267   -9.9611   -4.8472 C   0  0  0  0  0  0  0  0  0  0  0  0
    7.6040  -10.1275   -4.0712 C   0  0  0  0  0  0  0  0  0  0  0  0
    7.1178  -11.4163   -3.9998 C   0  0  0  0  0  0  0  0  0  0  0  0
    7.7258  -12.4475   -4.6305 N   0  0  0  0  0  0  0  0  0  0  0  0
    5.9347  -11.7737   -3.1913 C   0  0  0  0  0  0  0  0  0  0  0  0
    5.9201  -13.0106   -2.5078 C   0  0  0  0  0  0  0  0  0  0  0  0
    4.8487  -13.3926   -1.6969 C   0  0  0  0  0  0  0  0  0  0  0  0
    3.7653  -12.5386   -1.5470 C   0  0  0  0  0  0  0  0  0  0  0  0
    2.4489  -12.9930   -0.5381 Cl  0  0  0  0  0  0  0  0  0  0  0  0
    3.7375  -11.3155   -2.2103 C   0  0  0  0  0  0  0  0  0  0  0  0
    4.8065  -10.9347   -3.0442 C   0  0  0  0  0  0  0  0  0  0  0  0
    4.6753   -9.6278   -3.7720 C   0  0  0  0  0  0  0  0  0  0  0  0
    5.6102   -8.7484   -3.9172 N   0  0  0  0  0  0  0  0  0  0  0  0
    6.9332   -8.9998   -3.3651 C   0  0  0  0  0  0  0  0  0  0  0  0
    3.3654   -9.3139   -4.3962 C   0  0  0  0  0  0  0  0  0  0  0  0
    2.9324  -10.0153   -5.5197 C   0  0  0  0  0  0  0  0  0  0  0  0
    3.7095  -10.9428   -6.0973 F   0  0  0  0  0  0  0  0  0  0  0  0
    1.6950   -9.7344   -6.0988 C   0  0  0  0  0  0  0  0  0  0  0  0
    0.8767   -8.7460   -5.5496 C   0  0  0  0  0  0  0  0  0  0  0  0
    1.3029   -8.0413   -4.4231 C   0  0  0  0  0  0  0  0  0  0  0  0
    2.5418   -8.3295   -3.8522 C   0  0  0  0  0  0  0  0  0  0  0  0
    2.9198   -7.6423   -2.7649 F   0  0  0  0  0  0  0  0  0  0  0  0
    9.5015  -13.2001   -6.0384 N   0  0  0  0  0  0  0  0  0  0  0  0
    8.9423  -13.6724   -6.6968 H   0  0  0  0  0  0  0  0  0  0  0  0
   13.5107  -14.5452   -5.9563 C   0  0  0  0  0  0  0  0  0  0  0  0
   12.6407  -14.9064   -4.9250 C   0  0  0  0  0  0  0  0  0  0  0  0
   11.3077  -14.4754   -4.9405 C   0  0  0  0  0  0  0  0  0  0  0  0
   10.8109  -13.6867   -5.9836 C   0  0  0  0  0  0  0  0  0  0  0  0
   11.7027  -13.3247   -7.0075 C   0  0  0  0  0  0  0  0  0  0  0  0
   13.0369  -13.7494   -7.0013 C   0  0  0  0  0  0  0  0  0  0  0  0
   15.8578  -14.4099   -5.4354 O   0  0  0  0  0  0  0  0  0  0  0  0
   14.9132  -15.0222   -5.8980 C   0  0  0  0  0  0  0  0  0  0  0  0
   15.0693  -16.2502   -6.4242 O   0  0  0  0  0  0  0  0  0  0  0  0
   14.3304  -16.7066   -6.7759 H   0  0  0  0  0  0  0  0  0  0  0  0
 33 34  2  0
 34 35  1  0
 34 27  1  0
 27 28  2  0
 28 29  1  0
 29 30  2  0
 30 25  1  0
 25  1  1  0
  1  2  2  0
  2  3  1  0
  3  4  2  0
  4  5  1  0
  5  6  2  0
  5  7  1  0
  7  8  2  0
  8  9  1  0
  9 10  2  0
 10 11  1  0
 10 12  1  0
 12 13  2  0
 13 14  1  0
 14 17  1  0
 17 18  2  0
 18 19  1  0
 18 20  1  0
 20 21  2  0
 21 22  1  0
 22 23  2  0
 23 24  1  0
 14 15  2  0
 15 16  1  0
 30 31  1  0
 31 32  2  0
 32 27  1  0
  6  1  1  0
 13  7  1  0
 23 17  1  0
 16  4  1  0
 35 36  1  0
 25 26  1  0
M  END
> <minimizedAffinity>
-8.66818

> <CNNscore>
0.0925500765

> <CNNaffinity>
5.9424033165

> <CNN_VS>
0.5499699116

> <CNNaffinity_variance>
0.7259613872

$$$$



 36 40  0  0  0  0  0  0  0  0999 V2000
    8.7970  -12.1981   -5.3597 C   0  0  0  0  0  0  0  0  0  0  0  0
    9.3241  -10.9716   -5.4871 N   0  0  0  0  0  0  0  0  0  0  0  0
    8.6999   -9.9652   -4.8473 C   0  0  0  0  0  0  0  0  0  0  0  0
    7.5776  -10.1334   -4.0712 C   0  0  0  0  0  0  0  0  0  0  0  0
    7.0956  -11.4236   -3.9970 C   0  0  0  0  0  0  0  0  0  0  0  0
    7.7070  -12.4543   -4.6253 N   0  0  0  0  0  0  0  0  0  0  0  0
    5.9134  -11.7831   -3.1879 C   0  0  0  0  0  0  0  0  0  0  0  0
    5.9027  -13.0184   -2.5016 C   0  0  0  0  0  0  0  0  0  0  0  0
    4.8324  -13.4021   -1.6901 C   0  0  0  0  0  0  0  0  0  0  0  0
    3.7462  -12.5512   -1.5423 C   0  0  0  0  0  0  0  0  0  0  0  0
    2.4310  -13.0076   -0.5326 Cl  0  0  0  0  0  0  0  0  0  0  0  0
    3.7146  -11.3297   -2.2084 C   0  0  0  0  0  0  0  0  0  0  0  0
    4.7825  -10.9473   -3.0429 C   0  0  0  0  0  0  0  0  0  0  0  0
    4.6473   -9.6425   -3.7737 C   0  0  0  0  0  0  0  0  0  0  0  0
    5.5793   -8.7604   -3.9206 N   0  0  0  0  0  0  0  0  0  0  0  0
    6.9030   -9.0063   -3.3677 C   0  0  0  0  0  0  0  0  0  0  0  0
    3.3365   -9.3342   -4.3987 C   0  0  0  0  0  0  0  0  0  0  0  0
    2.5250   -8.3281   -3.8781 C   0  0  0  0  0  0  0  0  0  0  0  0
    2.8779   -7.6595   -2.7707 F   0  0  0  0  0  0  0  0  0  0  0  0
    1.3003   -8.0246   -4.4727 C   0  0  0  0  0  0  0  0  0  0  0  0
    0.8807   -8.7286   -5.6025 C   0  0  0  0  0  0  0  0  0  0  0  0
    1.6894   -9.7357   -6.1308 C   0  0  0  0  0  0  0  0  0  0  0  0
    2.9114  -10.0316   -5.5285 C   0  0  0  0  0  0  0  0  0  0  0  0
    3.6706  -10.9979   -6.0644 F   0  0  0  0  0  0  0  0  0  0  0  0
    9.4854  -13.2043   -6.0311 N   0  0  0  0  0  0  0  0  0  0  0  0
    8.9096  -13.7297   -6.6326 H   0  0  0  0  0  0  0  0  0  0  0  0
   13.4740  -14.6089   -5.9443 C   0  0  0  0  0  0  0  0  0  0  0  0
   12.9906  -13.9755   -7.0915 C   0  0  0  0  0  0  0  0  0  0  0  0
   11.6742  -13.4979   -7.1343 C   0  0  0  0  0  0  0  0  0  0  0  0
   10.8166  -13.6312   -6.0372 C   0  0  0  0  0  0  0  0  0  0  0  0
   11.3166  -14.2796   -4.8952 C   0  0  0  0  0  0  0  0  0  0  0  0
   12.6302  -14.7613   -4.8422 C   0  0  0  0  0  0  0  0  0  0  0  0
   15.8352  -14.5170   -5.4807 O   0  0  0  0  0  0  0  0  0  0  0  0
   14.8727  -15.1003   -5.9439 C   0  0  0  0  0  0  0  0  0  0  0  0
   15.0027  -16.3057   -6.5264 O   0  0  0  0  0  0  0  0  0  0  0  0
   14.2502  -16.7399   -6.8776 H   0  0  0  0  0  0  0  0  0  0  0  0
 33 34  2  0
 34 35  1  0
 34 27  1  0
 27 28  2  0
 28 29  1  0
 29 30  2  0
 30 25  1  0
 25  1  1  0
  1  2  2  0
  2  3  1  0
  3  4  2  0
  4  5  1  0
  5  6  2  0
  5  7  1  0
  7  8  2  0
  8  9  1  0
  9 10  2  0
 10 11  1  0
 10 12  1  0
 12 13  2  0
 13 14  1  0
 14 17  1  0
 17 18  2  0
 18 19  1  0
 18 20  1  0
 20 21  2  0
 21 22  1  0
 22 23  2  0
 23 24  1  0
 14 15  2  0
 15 16  1  0
 30 31  1  0
 31 32  2  0
 32 27  1  0
  6  1  1  0
 13  7  1  0
 23 17  1  0
 16  4  1  0
 35 36  1  0
 25 26  1  0
M  END
> <minimizedAffinity>
-8.58227

> <CNNscore>
0.0876184776

> <CNNaffinity>
5.9371867180

> <CNN_VS>
0.5202072859

> <CNNaffinity_variance>
0.7313336730

$$$$



 36 40  0  0  0  0  0  0  0  0999 V2000
    7.3624   -8.0381   -2.6550 C   0  0  0  0  0  0  0  0  0  0  0  0
    8.2038   -8.7796   -3.3901 N   0  0  0  0  0  0  0  0  0  0  0  0
    7.6733   -9.4857   -4.4060 C   0  0  0  0  0  0  0  0  0  0  0  0
    6.3373   -9.4714   -4.7299 C   0  0  0  0  0  0  0  0  0  0  0  0
    5.5392   -8.6890   -3.9215 C   0  0  0  0  0  0  0  0  0  0  0  0
    6.0475   -7.9649   -2.8978 N   0  0  0  0  0  0  0  0  0  0  0  0
    4.0865   -8.5427   -4.1445 C   0  0  0  0  0  0  0  0  0  0  0  0
    3.4816   -7.2859   -3.9170 C   0  0  0  0  0  0  0  0  0  0  0  0
    2.1202   -7.0706   -4.1444 C   0  0  0  0  0  0  0  0  0  0  0  0
    1.3314   -8.1120   -4.6121 C   0  0  0  0  0  0  0  0  0  0  0  0
   -0.3423   -7.8524   -4.9103 Cl  0  0  0  0  0  0  0  0  0  0  0  0
    1.8874   -9.3672   -4.8401 C   0  0  0  0  0  0  0  0  0  0  0  0
    3.2553   -9.5941   -4.5938 C   0  0  0  0  0  0  0  0  0  0  0  0
    3.7671  -10.9896   -4.8068 C   0  0  0  0  0  0  0  0  0  0  0  0
    4.8817  -11.3049   -5.3784 N   0  0  0  0  0  0  0  0  0  0  0  0
    5.7697  -10.2578   -5.8613 C   0  0  0  0  0  0  0  0  0  0  0  0
    2.9351  -12.1135   -4.3083 C   0  0  0  0  0  0  0  0  0  0  0  0
    1.8874  -12.6127   -5.0795 C   0  0  0  0  0  0  0  0  0  0  0  0
    1.5683  -12.0544   -6.2560 F   0  0  0  0  0  0  0  0  0  0  0  0
    1.1140  -13.6794   -4.6215 C   0  0  0  0  0  0  0  0  0  0  0  0
    1.3904  -14.2590   -3.3823 C   0  0  0  0  0  0  0  0  0  0  0  0
    2.4397  -13.7658   -2.6057 C   0  0  0  0  0  0  0  0  0  0  0  0
    3.2063  -12.6989   -3.0725 C   0  0  0  0  0  0  0  0  0  0  0  0
    4.2135  -12.2531   -2.3083 F   0  0  0  0  0  0  0  0  0  0  0  0
    7.9618   -7.3195   -1.6248 N   0  0  0  0  0  0  0  0  0  0  0  0
    8.8444   -7.6740   -1.3707 H   0  0  0  0  0  0  0  0  0  0  0  0
    6.6641   -3.9867    0.6331 C   0  0  0  0  0  0  0  0  0  0  0  0
    7.9287   -4.5303    0.8703 C   0  0  0  0  0  0  0  0  0  0  0  0
    8.3769   -5.6297    0.1263 C   0  0  0  0  0  0  0  0  0  0  0  0
    7.5832   -6.2037   -0.8725 C   0  0  0  0  0  0  0  0  0  0  0  0
    6.3102   -5.6502   -1.0906 C   0  0  0  0  0  0  0  0  0  0  0  0
    5.8522   -4.5521   -0.3522 C   0  0  0  0  0  0  0  0  0  0  0  0
    6.8958   -1.8362    1.6914 O   0  0  0  0  0  0  0  0  0  0  0  0
    6.2301   -2.8249    1.4453 C   0  0  0  0  0  0  0  0  0  0  0  0
    4.9763   -2.9550    1.9144 O   0  0  0  0  0  0  0  0  0  0  0  0
    4.4787   -3.7235    1.7147 H   0  0  0  0  0  0  0  0  0  0  0  0
 33 34  2  0
 34 35  1  0
 34 27  1  0
 27 28  2  0
 28 29  1  0
 29 30  2  0
 30 25  1  0
 25  1  1  0
  1  2  2  0
  2  3  1  0
  3  4  2  0
  4  5  1  0
  5  6  2  0
  5  7  1  0
  7  8  2  0
  8  9  1  0
  9 10  2  0
 10 11  1  0
 10 12  1  0
 12 13  2  0
 13 14  1  0
 14 17  1  0
 17 18  2  0
 18 19  1  0
 18 20  1  0
 20 21  2  0
 21 22  1  0
 22 23  2  0
 23 24  1  0
 14 15  2  0
 15 16  1  0
 30 31  1  0
 31 32  2  0
 32 27  1  0
  6  1  1  0
 13  7  1  0
 23 17  1  0
 16  4  1  0
 35 36  1  0
 25 26  1  0
M  END
> <minimizedAffinity>
-9.46144

> <CNNscore>
0.0819412693

> <CNNaffinity>
5.9275670052

> <CNN_VS>
0.4857123792

> <CNNaffinity_variance>
1.1166672707

$$$$



 36 40  0  0  0  0  0  0  0  0999 V2000
    6.0516   -5.5060   -0.9986 C   0  0  0  0  0  0  0  0  0  0  0  0
    5.0385   -4.7818   -0.5010 N   0  0  0  0  0  0  0  0  0  0  0  0
    5.3184   -3.9585    0.5265 C   0  0  0  0  0  0  0  0  0  0  0  0
    6.5730   -3.8153    1.0702 C   0  0  0  0  0  0  0  0  0  0  0  0
    7.5573   -4.5996    0.5058 C   0  0  0  0  0  0  0  0  0  0  0  0
    7.3042   -5.4310   -0.5314 N   0  0  0  0  0  0  0  0  0  0  0  0
    8.9637   -4.5516    0.9540 C   0  0  0  0  0  0  0  0  0  0  0  0
    9.9935   -4.6718   -0.0063 C   0  0  0  0  0  0  0  0  0  0  0  0
   11.3431   -4.5974    0.3461 C   0  0  0  0  0  0  0  0  0  0  0  0
   11.6937   -4.3945    1.6733 C   0  0  0  0  0  0  0  0  0  0  0  0
   13.3522   -4.2854    2.1147 Cl  0  0  0  0  0  0  0  0  0  0  0  0
   10.7095   -4.2799    2.6506 C   0  0  0  0  0  0  0  0  0  0  0  0
    9.3482   -4.3737    2.3027 C   0  0  0  0  0  0  0  0  0  0  0  0
    8.3490   -4.3001    3.4213 C   0  0  0  0  0  0  0  0  0  0  0  0
    7.2399   -3.6383    3.3994 N   0  0  0  0  0  0  0  0  0  0  0  0
    6.8633   -2.8953    2.2059 C   0  0  0  0  0  0  0  0  0  0  0  0
    8.6433   -5.0623    4.6608 C   0  0  0  0  0  0  0  0  0  0  0  0
    8.8765   -4.3948    5.8616 C   0  0  0  0  0  0  0  0  0  0  0  0
    8.9010   -3.0552    5.9141 F   0  0  0  0  0  0  0  0  0  0  0  0
    9.1370   -5.1081    7.0316 C   0  0  0  0  0  0  0  0  0  0  0  0
    9.1610   -6.5034    7.0064 C   0  0  0  0  0  0  0  0  0  0  0  0
    8.9258   -7.1784    5.8080 C   0  0  0  0  0  0  0  0  0  0  0  0
    8.6669   -6.4560    4.6441 C   0  0  0  0  0  0  0  0  0  0  0  0
    8.4355   -7.1326    3.5101 F   0  0  0  0  0  0  0  0  0  0  0  0
    5.7122   -6.3324   -2.0658 N   0  0  0  0  0  0  0  0  0  0  0  0
    6.4954   -6.7390   -2.5023 H   0  0  0  0  0  0  0  0  0  0  0  0
    1.9862   -7.3372   -3.7969 C   0  0  0  0  0  0  0  0  0  0  0  0
    3.1584   -7.8977   -4.3094 C   0  0  0  0  0  0  0  0  0  0  0  0
    4.4002   -7.5812   -3.7430 C   0  0  0  0  0  0  0  0  0  0  0  0
    4.5011   -6.7108   -2.6526 C   0  0  0  0  0  0  0  0  0  0  0  0
    3.3127   -6.1486   -2.1564 C   0  0  0  0  0  0  0  0  0  0  0  0
    2.0666   -6.4576   -2.7154 C   0  0  0  0  0  0  0  0  0  0  0  0
    0.5376   -8.5130   -5.3193 O   0  0  0  0  0  0  0  0  0  0  0  0
    0.6946   -7.6987   -4.4285 C   0  0  0  0  0  0  0  0  0  0  0  0
   -0.3465   -7.0207   -3.9129 O   0  0  0  0  0  0  0  0  0  0  0  0
   -0.2065   -6.3976   -3.2273 H   0  0  0  0  0  0  0  0  0  0  0  0
 33 34  2  0
 34 35  1  0
 34 27  1  0
 27 28  2  0
 28 29  1  0
 29 30  2  0
 30 25  1  0
 25  1  1  0
  1  2  2  0
  2  3  1  0
  3  4  2  0
  4  5  1  0
  5  6  2  0
  5  7  1  0
  7  8  2  0
  8  9  1  0
  9 10  2  0
 10 11  1  0
 10 12  1  0
 12 13  2  0
 13 14  1  0
 14 17  1  0
 17 18  2  0
 18 19  1  0
 18 20  1  0
 20 21  2  0
 21 22  1  0
 22 23  2  0
 23 24  1  0
 14 15  2  0
 15 16  1  0
 30 31  1  0
 31 32  2  0
 32 27  1  0
  6  1  1  0
 13  7  1  0
 23 17  1  0
 16  4  1  0
 35 36  1  0
 25 26  1  0
M  END
> <minimizedAffinity>
-8.78800

> <CNNscore>
0.0809217915

> <CNNaffinity>
5.6582942009

> <CNN_VS>
0.4578793049

> <CNNaffinity_variance>
0.2075479627

$$$$
