


 34 35  0  0  0  0  0  0  0  0999 V2000
   29.5471    0.7989    3.9254 C   0  0  0  0  0  0  0  0  0  0  0  0
   29.3263   -0.3666    2.9622 C   0  0  0  0  0  0  0  0  0  0  0  0
   30.5301    1.6651    3.3217 O   0  0  0  0  0  0  0  0  0  0  0  0
   31.3623    1.1799    3.2080 H   0  0  0  0  0  0  0  0  0  0  0  0
   28.2240    1.5743    4.1050 C   0  0  0  0  0  0  0  0  0  0  0  0
   27.1865    1.0234    4.4575 O   0  0  0  0  0  0  0  0  0  0  0  0
   28.3713    2.9100    3.7651 N   0  0  0  0  0  0  0  0  0  0  0  0
   29.2811    3.1897    3.5134 H   0  0  0  0  0  0  0  0  0  0  0  0
   27.3930    3.9161    3.7327 C   0  0  0  0  0  0  0  0  0  0  0  0
   27.8311    5.2204    3.4747 C   0  0  0  0  0  0  0  0  0  0  0  0
   26.9213    6.2768    3.4151 C   0  0  0  0  0  0  0  0  0  0  0  0
   25.5586    6.0218    3.6133 C   0  0  0  0  0  0  0  0  0  0  0  0
   25.0859    4.7306    3.8878 C   0  0  0  0  0  0  0  0  0  0  0  0
   26.0274    3.6808    3.9328 C   0  0  0  0  0  0  0  0  0  0  0  0
   23.6279    4.4396    4.1289 C   0  0  0  0  0  0  0  0  0  0  0  0
   23.3838    3.9587    5.3808 F   0  0  0  0  0  0  0  0  0  0  0  0
   23.1293    3.5082    3.2760 F   0  0  0  0  0  0  0  0  0  0  0  0
   22.8422    5.5437    4.0135 F   0  0  0  0  0  0  0  0  0  0  0  0
   24.6446    7.1508    3.5055 N   0  0  0  0  0  0  0  0  0  0  0  0
   24.2758    7.6779    4.5623 O   0  0  0  0  0  0  0  0  0  0  0  0
   24.3347    7.5160    2.3666 O   0  0  0  0  0  0  0  0  0  0  0  0
   30.0395    0.3274    5.3046 C   0  0  0  0  0  0  0  0  0  0  0  0
   29.7960    1.3819    6.2478 O   0  0  0  0  0  0  0  0  0  0  0  0
   29.5905    0.5321   10.3383 C   0  0  0  0  0  0  0  0  0  0  0  0
   30.4511   -0.2188    9.5373 C   0  0  0  0  0  0  0  0  0  0  0  0
   30.5538    0.0328    8.1613 C   0  0  0  0  0  0  0  0  0  0  0  0
   29.7939    1.0397    7.5709 C   0  0  0  0  0  0  0  0  0  0  0  0
   28.9306    1.7913    8.3681 C   0  0  0  0  0  0  0  0  0  0  0  0
   28.8294    1.5420    9.7405 C   0  0  0  0  0  0  0  0  0  0  0  0
   29.8625   -0.0913   14.0490 C   0  0  0  0  0  0  0  0  0  0  0  0
   30.4131    0.0225   12.6490 C   0  0  0  0  0  0  0  0  0  0  0  0
   31.6086   -0.1373   12.4313 O   0  0  0  0  0  0  0  0  0  0  0  0
   29.4327    0.3407   11.7262 N   0  0  0  0  0  0  0  0  0  0  0  0
   28.5197    0.4456   12.0793 H   0  0  0  0  0  0  0  0  0  0  0  0
 30 31  1  0
 31 32  2  0
 31 33  1  0
 33 24  1  0
 24 25  2  0
 25 26  1  0
 26 27  2  0
 27 23  1  0
 23 22  1  0
 22  1  1  0
  1  2  1  0
  1  3  1  0
  1  5  1  0
  5  6  2  0
  5  7  1  0
  7  9  1  0
  9 10  2  0
 10 11  1  0
 11 12  2  0
 12 19  1  0
 19 20  2  0
 19 21  1  0
 12 13  1  0
 13 15  1  0
 15 16  1  0
 15 17  1  0
 15 18  1  0
 13 14  2  0
 27 28  1  0
 28 29  2  0
 29 24  1  0
 14  9  1  0
 33 34  1  0
  3  4  1  0
  7  8  1  0
M  CHG 1  19   1
M  CHG 1  21  -1
M  END
> <minimizedAffinity>
-11.86803

> <CNNscore>
0.9747727513

> <CNNaffinity>
8.3647022247

> <CNN_VS>
8.1536836624

> <CNNaffinity_variance>
0.1306087822

$$$$



 34 35  0  0  0  0  0  0  0  0999 V2000
   29.5056    0.7964    3.9999 C   0  0  0  0  0  0  0  0  0  0  0  0
   29.3182   -0.3905    3.0559 C   0  0  0  0  0  0  0  0  0  0  0  0
   30.4994    1.6563    3.4048 O   0  0  0  0  0  0  0  0  0  0  0  0
   31.3373    1.1744    3.3239 H   0  0  0  0  0  0  0  0  0  0  0  0
   28.1735    1.5665    4.1272 C   0  0  0  0  0  0  0  0  0  0  0  0
   27.1145    1.0025    4.3817 O   0  0  0  0  0  0  0  0  0  0  0  0
   28.3433    2.9166    3.8633 N   0  0  0  0  0  0  0  0  0  0  0  0
   29.2680    3.2052    3.6875 H   0  0  0  0  0  0  0  0  0  0  0  0
   27.3694    3.9262    3.8140 C   0  0  0  0  0  0  0  0  0  0  0  0
   27.8171    5.2295    3.5671 C   0  0  0  0  0  0  0  0  0  0  0  0
   26.9124    6.2893    3.4918 C   0  0  0  0  0  0  0  0  0  0  0  0
   25.5452    6.0388    3.6630 C   0  0  0  0  0  0  0  0  0  0  0  0
   25.0627    4.7488    3.9258 C   0  0  0  0  0  0  0  0  0  0  0  0
   25.9994    3.6955    3.9870 C   0  0  0  0  0  0  0  0  0  0  0  0
   23.5992    4.4625    4.1380 C   0  0  0  0  0  0  0  0  0  0  0  0
   22.8052    5.5381    3.8720 F   0  0  0  0  0  0  0  0  0  0  0  0
   23.3132    4.1042    5.4160 F   0  0  0  0  0  0  0  0  0  0  0  0
   23.1326    3.4696    3.3341 F   0  0  0  0  0  0  0  0  0  0  0  0
   24.6374    7.1712    3.5398 N   0  0  0  0  0  0  0  0  0  0  0  0
   24.3017    7.7387    4.5866 O   0  0  0  0  0  0  0  0  0  0  0  0
   24.2995    7.4985    2.3972 O   0  0  0  0  0  0  0  0  0  0  0  0
   29.9633    0.3572    5.4016 C   0  0  0  0  0  0  0  0  0  0  0  0
   29.9719    1.5155    6.2495 O   0  0  0  0  0  0  0  0  0  0  0  0
   29.3279    0.6875   10.2988 C   0  0  0  0  0  0  0  0  0  0  0  0
   28.6484    1.7563    9.7140 C   0  0  0  0  0  0  0  0  0  0  0  0
   28.8321    2.0690    8.3591 C   0  0  0  0  0  0  0  0  0  0  0  0
   29.7004    1.3145    7.5738 C   0  0  0  0  0  0  0  0  0  0  0  0
   30.3833    0.2463    8.1553 C   0  0  0  0  0  0  0  0  0  0  0  0
   30.1989   -0.0670    9.5058 C   0  0  0  0  0  0  0  0  0  0  0  0
   29.6759   -0.3708   13.9030 C   0  0  0  0  0  0  0  0  0  0  0  0
   30.2058   -0.0351   12.5310 C   0  0  0  0  0  0  0  0  0  0  0  0
   31.4092   -0.0627   12.3004 O   0  0  0  0  0  0  0  0  0  0  0  0
   29.1959    0.3106   11.6509 N   0  0  0  0  0  0  0  0  0  0  0  0
   28.2795    0.2912   12.0102 H   0  0  0  0  0  0  0  0  0  0  0  0
 30 31  1  0
 31 32  2  0
 31 33  1  0
 33 24  1  0
 24 25  2  0
 25 26  1  0
 26 27  2  0
 27 23  1  0
 23 22  1  0
 22  1  1  0
  1  2  1  0
  1  3  1  0
  1  5  1  0
  5  6  2  0
  5  7  1  0
  7  9  1  0
  9 10  2  0
 10 11  1  0
 11 12  2  0
 12 19  1  0
 19 20  2  0
 19 21  1  0
 12 13  1  0
 13 15  1  0
 15 16  1  0
 15 17  1  0
 15 18  1  0
 13 14  2  0
 27 28  1  0
 28 29  2  0
 29 24  1  0
 14  9  1  0
 33 34  1  0
  3  4  1  0
  7  8  1  0
M  CHG 1  19   1
M  CHG 1  21  -1
M  END
> <minimizedAffinity>
-12.03196

> <CNNscore>
0.9730099440

> <CNNaffinity>
8.3651542664

> <CNN_VS>
8.1393785477

> <CNNaffinity_variance>
0.1738509387

$$$$



 34 35  0  0  0  0  0  0  0  0999 V2000
   29.7641    0.3367    3.9988 C   0  0  0  0  0  0  0  0  0  0  0  0
   29.7884   -1.0043    3.2666 C   0  0  0  0  0  0  0  0  0  0  0  0
   30.5087    1.2721    3.1914 O   0  0  0  0  0  0  0  0  0  0  0  0
   31.4260    0.9681    3.1075 H   0  0  0  0  0  0  0  0  0  0  0  0
   28.3047    0.8235    4.1301 C   0  0  0  0  0  0  0  0  0  0  0  0
   27.3805    0.0574    4.3819 O   0  0  0  0  0  0  0  0  0  0  0  0
   28.2002    2.1816    3.8730 N   0  0  0  0  0  0  0  0  0  0  0  0
   29.0481    2.6505    3.6985 H   0  0  0  0  0  0  0  0  0  0  0  0
   27.0436    2.9757    3.8289 C   0  0  0  0  0  0  0  0  0  0  0  0
   25.8136    2.3116    3.9058 C   0  0  0  0  0  0  0  0  0  0  0  0
   24.6164    3.0281    3.8794 C   0  0  0  0  0  0  0  0  0  0  0  0
   24.6536    4.4244    3.7779 C   0  0  0  0  0  0  0  0  0  0  0  0
   25.8667    5.1214    3.6847 C   0  0  0  0  0  0  0  0  0  0  0  0
   27.0612    4.3716    3.7233 C   0  0  0  0  0  0  0  0  0  0  0  0
   25.9275    6.6203    3.5495 C   0  0  0  0  0  0  0  0  0  0  0  0
   25.1610    7.2669    4.4727 F   0  0  0  0  0  0  0  0  0  0  0  0
   25.4905    7.0576    2.3406 F   0  0  0  0  0  0  0  0  0  0  0  0
   27.1824    7.1161    3.7204 F   0  0  0  0  0  0  0  0  0  0  0  0
   23.3793    5.1299    3.7906 N   0  0  0  0  0  0  0  0  0  0  0  0
   22.3539    4.4378    3.7819 O   0  0  0  0  0  0  0  0  0  0  0  0
   23.4208    6.3637    3.8430 O   0  0  0  0  0  0  0  0  0  0  0  0
   30.3866    0.2434    5.4026 C   0  0  0  0  0  0  0  0  0  0  0  0
   29.9944    1.4103    6.1411 O   0  0  0  0  0  0  0  0  0  0  0  0
   29.3770    0.6729   10.2119 C   0  0  0  0  0  0  0  0  0  0  0  0
   28.7323    1.7588    9.6193 C   0  0  0  0  0  0  0  0  0  0  0  0
   28.9085    2.0424    8.2569 C   0  0  0  0  0  0  0  0  0  0  0  0
   29.7344    1.2413    7.4721 C   0  0  0  0  0  0  0  0  0  0  0  0
   30.3825    0.1559    8.0615 C   0  0  0  0  0  0  0  0  0  0  0  0
   30.2055   -0.1284    9.4193 C   0  0  0  0  0  0  0  0  0  0  0  0
   29.7374   -0.3173   13.8342 C   0  0  0  0  0  0  0  0  0  0  0  0
   30.2622   -0.0112   12.4534 C   0  0  0  0  0  0  0  0  0  0  0  0
   31.4643   -0.0500   12.2174 O   0  0  0  0  0  0  0  0  0  0  0  0
   29.2498    0.3230   11.5717 N   0  0  0  0  0  0  0  0  0  0  0  0
   28.3351    0.3157   11.9359 H   0  0  0  0  0  0  0  0  0  0  0  0
 30 31  1  0
 31 32  2  0
 31 33  1  0
 33 24  1  0
 24 25  2  0
 25 26  1  0
 26 27  2  0
 27 23  1  0
 23 22  1  0
 22  1  1  0
  1  2  1  0
  1  3  1  0
  1  5  1  0
  5  6  2  0
  5  7  1  0
  7  9  1  0
  9 10  2  0
 10 11  1  0
 11 12  2  0
 12 19  1  0
 19 20  2  0
 19 21  1  0
 12 13  1  0
 13 15  1  0
 15 16  1  0
 15 17  1  0
 15 18  1  0
 13 14  2  0
 27 28  1  0
 28 29  2  0
 29 24  1  0
 14  9  1  0
 33 34  1  0
  3  4  1  0
  7  8  1  0
M  CHG 1  19   1
M  CHG 1  21  -1
M  END
> <minimizedAffinity>
-11.24091

> <CNNscore>
0.7322233915

> <CNNaffinity>
8.1979455948

> <CNN_VS>
6.0027275085

> <CNNaffinity_variance>
0.2905153930

$$$$



 34 35  0  0  0  0  0  0  0  0999 V2000
   29.8644    0.8702    4.9490 C   0  0  0  0  0  0  0  0  0  0  0  0
   29.3755   -0.0651    3.8440 C   0  0  0  0  0  0  0  0  0  0  0  0
   31.2100    1.2616    4.6062 O   0  0  0  0  0  0  0  0  0  0  0  0
   31.7775    0.4756    4.5757 H   0  0  0  0  0  0  0  0  0  0  0  0
   28.9640    2.1235    4.9967 C   0  0  0  0  0  0  0  0  0  0  0  0
   29.2547    3.1121    5.6619 O   0  0  0  0  0  0  0  0  0  0  0  0
   27.8065    1.9423    4.2558 N   0  0  0  0  0  0  0  0  0  0  0  0
   27.7381    1.0883    3.7710 H   0  0  0  0  0  0  0  0  0  0  0  0
   26.7191    2.8173    4.1066 C   0  0  0  0  0  0  0  0  0  0  0  0
   25.4388    2.2526    4.1484 C   0  0  0  0  0  0  0  0  0  0  0  0
   24.3040    3.0544    4.0185 C   0  0  0  0  0  0  0  0  0  0  0  0
   24.4551    4.4362    3.8480 C   0  0  0  0  0  0  0  0  0  0  0  0
   25.7219    5.0340    3.7873 C   0  0  0  0  0  0  0  0  0  0  0  0
   26.8508    4.2000    3.9309 C   0  0  0  0  0  0  0  0  0  0  0  0
   25.9063    6.5144    3.5792 C   0  0  0  0  0  0  0  0  0  0  0  0
   25.5496    6.9218    2.3283 F   0  0  0  0  0  0  0  0  0  0  0  0
   27.1947    6.9117    3.7396 F   0  0  0  0  0  0  0  0  0  0  0  0
   25.1517    7.2653    4.4256 F   0  0  0  0  0  0  0  0  0  0  0  0
   23.2407    5.2348    3.7533 N   0  0  0  0  0  0  0  0  0  0  0  0
   23.3808    6.4562    3.6152 O   0  0  0  0  0  0  0  0  0  0  0  0
   22.1651    4.6275    3.7846 O   0  0  0  0  0  0  0  0  0  0  0  0
   29.8506    0.1938    6.3308 C   0  0  0  0  0  0  0  0  0  0  0  0
   30.1347    1.1957    7.3189 O   0  0  0  0  0  0  0  0  0  0  0  0
   28.9449    0.2365   11.2126 C   0  0  0  0  0  0  0  0  0  0  0  0
   28.4115    1.3744   10.6069 C   0  0  0  0  0  0  0  0  0  0  0  0
   28.7804    1.7330    9.3020 C   0  0  0  0  0  0  0  0  0  0  0  0
   29.6897    0.9558    8.5885 C   0  0  0  0  0  0  0  0  0  0  0  0
   30.2268   -0.1815    9.1915 C   0  0  0  0  0  0  0  0  0  0  0  0
   29.8577   -0.5405   10.4918 C   0  0  0  0  0  0  0  0  0  0  0  0
   28.7768   -0.8566   14.8193 C   0  0  0  0  0  0  0  0  0  0  0  0
   29.4949   -0.4163   13.5678 C   0  0  0  0  0  0  0  0  0  0  0  0
   30.7121   -0.2728   13.5618 O   0  0  0  0  0  0  0  0  0  0  0  0
   28.6234   -0.1896   12.5175 N   0  0  0  0  0  0  0  0  0  0  0  0
   27.6688   -0.3436   12.7026 H   0  0  0  0  0  0  0  0  0  0  0  0
 30 31  1  0
 31 32  2  0
 31 33  1  0
 33 24  1  0
 24 25  2  0
 25 26  1  0
 26 27  2  0
 27 23  1  0
 23 22  1  0
 22  1  1  0
  1  2  1  0
  1  3  1  0
  1  5  1  0
  5  6  2  0
  5  7  1  0
  7  9  1  0
  9 10  2  0
 10 11  1  0
 11 12  2  0
 12 19  1  0
 19 20  2  0
 19 21  1  0
 12 13  1  0
 13 15  1  0
 15 16  1  0
 15 17  1  0
 15 18  1  0
 13 14  2  0
 27 28  1  0
 28 29  2  0
 29 24  1  0
 14  9  1  0
 33 34  1  0
  3  4  1  0
  7  8  1  0
M  CHG 1  19   1
M  CHG 1  21  -1
M  END
> <minimizedAffinity>
-10.62727

> <CNNscore>
0.5808315277

> <CNNaffinity>
8.0169429779

> <CNN_VS>
4.6564931870

> <CNNaffinity_variance>
0.6358386874

$$$$



 34 35  0  0  0  0  0  0  0  0999 V2000
   29.4020    0.4907    5.9712 C   0  0  0  0  0  0  0  0  0  0  0  0
   29.8849   -0.8276    5.3680 C   0  0  0  0  0  0  0  0  0  0  0  0
   30.5372    1.3804    6.0050 O   0  0  0  0  0  0  0  0  0  0  0  0
   31.2280    1.0018    6.5709 H   0  0  0  0  0  0  0  0  0  0  0  0
   28.3046    1.0964    5.0697 C   0  0  0  0  0  0  0  0  0  0  0  0
   27.8091    0.4744    4.1359 O   0  0  0  0  0  0  0  0  0  0  0  0
   28.0248    2.4066    5.4254 N   0  0  0  0  0  0  0  0  0  0  0  0
   28.5079    2.7489    6.2120 H   0  0  0  0  0  0  0  0  0  0  0  0
   27.1427    3.3091    4.8109 C   0  0  0  0  0  0  0  0  0  0  0  0
   27.6714    4.5426    4.4123 C   0  0  0  0  0  0  0  0  0  0  0  0
   26.8640    5.4922    3.7846 C   0  0  0  0  0  0  0  0  0  0  0  0
   25.5142    5.2003    3.5520 C   0  0  0  0  0  0  0  0  0  0  0  0
   24.9477    3.9812    3.9504 C   0  0  0  0  0  0  0  0  0  0  0  0
   25.7900    3.0367    4.5742 C   0  0  0  0  0  0  0  0  0  0  0  0
   23.4928    3.6581    3.7322 C   0  0  0  0  0  0  0  0  0  0  0  0
   22.9275    4.4042    2.7415 F   0  0  0  0  0  0  0  0  0  0  0  0
   22.7334    3.8802    4.8357 F   0  0  0  0  0  0  0  0  0  0  0  0
   23.2878    2.3651    3.3637 F   0  0  0  0  0  0  0  0  0  0  0  0
   24.7215    6.2087    2.8617 N   0  0  0  0  0  0  0  0  0  0  0  0
   24.9048    6.3308    1.6443 O   0  0  0  0  0  0  0  0  0  0  0  0
   23.9037    6.8407    3.5387 O   0  0  0  0  0  0  0  0  0  0  0  0
   28.8364    0.3076    7.3902 C   0  0  0  0  0  0  0  0  0  0  0  0
   29.5499   -0.7686    8.0175 O   0  0  0  0  0  0  0  0  0  0  0  0
   32.3867    0.4543   10.8377 C   0  0  0  0  0  0  0  0  0  0  0  0
   31.4620   -0.5271   11.1952 C   0  0  0  0  0  0  0  0  0  0  0  0
   30.4944   -0.9690   10.2810 C   0  0  0  0  0  0  0  0  0  0  0  0
   30.4411   -0.4315    8.9972 C   0  0  0  0  0  0  0  0  0  0  0  0
   31.3626    0.5515    8.6366 C   0  0  0  0  0  0  0  0  0  0  0  0
   32.3288    0.9910    9.5472 C   0  0  0  0  0  0  0  0  0  0  0  0
   35.1212    2.2977   12.6697 C   0  0  0  0  0  0  0  0  0  0  0  0
   34.1562    2.0872   11.5294 C   0  0  0  0  0  0  0  0  0  0  0  0
   34.0966    2.8880   10.6034 O   0  0  0  0  0  0  0  0  0  0  0  0
   33.3881    0.9490   11.6981 N   0  0  0  0  0  0  0  0  0  0  0  0
   33.5606    0.4239   12.5128 H   0  0  0  0  0  0  0  0  0  0  0  0
 30 31  1  0
 31 32  2  0
 31 33  1  0
 33 24  1  0
 24 25  2  0
 25 26  1  0
 26 27  2  0
 27 23  1  0
 23 22  1  0
 22  1  1  0
  1  2  1  0
  1  3  1  0
  1  5  1  0
  5  6  2  0
  5  7  1  0
  7  9  1  0
  9 10  2  0
 10 11  1  0
 11 12  2  0
 12 19  1  0
 19 20  2  0
 19 21  1  0
 12 13  1  0
 13 15  1  0
 15 16  1  0
 15 17  1  0
 15 18  1  0
 13 14  2  0
 27 28  1  0
 28 29  2  0
 29 24  1  0
 14  9  1  0
 33 34  1  0
  3  4  1  0
  7  8  1  0
M  CHG 1  19   1
M  CHG 1  21  -1
M  END
> <minimizedAffinity>
16.31837

> <CNNscore>
0.5395142436

> <CNNaffinity>
7.3718848228

> <CNN_VS>
3.9772367477

> <CNNaffinity_variance>
1.0962474346

$$$$



 34 35  0  0  0  0  0  0  0  0999 V2000
   24.0067   -4.5421   13.2179 C   0  0  0  0  0  0  0  0  0  0  0  0
   24.3312   -5.3464   11.9599 C   0  0  0  0  0  0  0  0  0  0  0  0
   24.2072   -3.1509   12.8929 O   0  0  0  0  0  0  0  0  0  0  0  0
   25.1349   -3.0063   12.6492 H   0  0  0  0  0  0  0  0  0  0  0  0
   22.5294   -4.7686   13.6053 C   0  0  0  0  0  0  0  0  0  0  0  0
   21.6225   -4.0757   13.1561 O   0  0  0  0  0  0  0  0  0  0  0  0
   22.4020   -5.7861   14.5380 N   0  0  0  0  0  0  0  0  0  0  0  0
   23.2357   -6.2494   14.7822 H   0  0  0  0  0  0  0  0  0  0  0  0
   21.2400   -6.2424   15.1797 C   0  0  0  0  0  0  0  0  0  0  0  0
   20.0821   -5.4719   15.0204 C   0  0  0  0  0  0  0  0  0  0  0  0
   18.8820   -5.8613   15.6168 C   0  0  0  0  0  0  0  0  0  0  0  0
   18.8426   -7.0364   16.3777 C   0  0  0  0  0  0  0  0  0  0  0  0
   19.9859   -7.8248   16.5701 C   0  0  0  0  0  0  0  0  0  0  0  0
   21.1827   -7.4116   15.9476 C   0  0  0  0  0  0  0  0  0  0  0  0
   19.9704   -9.0781   17.4054 C   0  0  0  0  0  0  0  0  0  0  0  0
   21.1524   -9.7558   17.3654 F   0  0  0  0  0  0  0  0  0  0  0  0
   19.0258   -9.9667   17.0032 F   0  0  0  0  0  0  0  0  0  0  0  0
   19.7470   -8.8319   18.7242 F   0  0  0  0  0  0  0  0  0  0  0  0
   17.5590   -7.4197   16.9497 N   0  0  0  0  0  0  0  0  0  0  0  0
   17.0019   -6.5940   17.6835 O   0  0  0  0  0  0  0  0  0  0  0  0
   17.1100   -8.5259   16.6314 O   0  0  0  0  0  0  0  0  0  0  0  0
   24.8999   -4.9373   14.4066 C   0  0  0  0  0  0  0  0  0  0  0  0
   26.2476   -5.0613   13.9279 O   0  0  0  0  0  0  0  0  0  0  0  0
   28.5545   -1.5833   14.2089 C   0  0  0  0  0  0  0  0  0  0  0  0
   28.3609   -2.1631   12.9549 C   0  0  0  0  0  0  0  0  0  0  0  0
   27.5929   -3.3283   12.8133 C   0  0  0  0  0  0  0  0  0  0  0  0
   27.0105   -3.9274   13.9277 C   0  0  0  0  0  0  0  0  0  0  0  0
   27.2035   -3.3519   15.1835 C   0  0  0  0  0  0  0  0  0  0  0  0
   27.9675   -2.1890   15.3247 C   0  0  0  0  0  0  0  0  0  0  0  0
   30.9897    1.2966   14.2925 C   0  0  0  0  0  0  0  0  0  0  0  0
   30.4719   -0.0272   13.7873 C   0  0  0  0  0  0  0  0  0  0  0  0
   31.0520   -0.6246   12.8881 O   0  0  0  0  0  0  0  0  0  0  0  0
   29.3106   -0.4145   14.4319 N   0  0  0  0  0  0  0  0  0  0  0  0
   28.9734    0.1965   15.1263 H   0  0  0  0  0  0  0  0  0  0  0  0
 30 31  1  0
 31 32  2  0
 31 33  1  0
 33 24  1  0
 24 25  2  0
 25 26  1  0
 26 27  2  0
 27 23  1  0
 23 22  1  0
 22  1  1  0
  1  2  1  0
  1  3  1  0
  1  5  1  0
  5  6  2  0
  5  7  1  0
  7  9  1  0
  9 10  2  0
 10 11  1  0
 11 12  2  0
 12 19  1  0
 19 20  2  0
 19 21  1  0
 12 13  1  0
 13 15  1  0
 15 16  1  0
 15 17  1  0
 15 18  1  0
 13 14  2  0
 27 28  1  0
 28 29  2  0
 29 24  1  0
 14  9  1  0
 33 34  1  0
  3  4  1  0
  7  8  1  0
M  CHG 1  19   1
M  CHG 1  21  -1
M  END
> <minimizedAffinity>
42.66422

> <CNNscore>
0.4661987126

> <CNNaffinity>
5.0020985603

> <CNN_VS>
2.3319718838

> <CNNaffinity_variance>
0.1258174628

$$$$



 34 35  0  0  0  0  0  0  0  0999 V2000
   29.4852    0.6084    3.4363 C   0  0  0  0  0  0  0  0  0  0  0  0
   30.2178    1.9469    3.5173 C   0  0  0  0  0  0  0  0  0  0  0  0
   30.4222   -0.3547    2.9112 O   0  0  0  0  0  0  0  0  0  0  0  0
   30.6985   -0.0850    2.0214 H   0  0  0  0  0  0  0  0  0  0  0  0
   29.0475    0.1761    4.8525 C   0  0  0  0  0  0  0  0  0  0  0  0
   28.2404   -0.7284    5.0393 O   0  0  0  0  0  0  0  0  0  0  0  0
   29.6339    0.9691    5.8265 N   0  0  0  0  0  0  0  0  0  0  0  0
   30.2708    1.6456    5.5011 H   0  0  0  0  0  0  0  0  0  0  0  0
   29.4384    0.9337    7.2160 C   0  0  0  0  0  0  0  0  0  0  0  0
   29.0628    2.1316    7.8355 C   0  0  0  0  0  0  0  0  0  0  0  0
   28.8383    2.1797    9.2121 C   0  0  0  0  0  0  0  0  0  0  0  0
   28.9893    1.0142    9.9738 C   0  0  0  0  0  0  0  0  0  0  0  0
   29.3779   -0.1995    9.3891 C   0  0  0  0  0  0  0  0  0  0  0  0
   29.5888   -0.2204    7.9943 C   0  0  0  0  0  0  0  0  0  0  0  0
   29.5702   -1.4578   10.1944 C   0  0  0  0  0  0  0  0  0  0  0  0
   28.9908   -2.5489    9.6184 F   0  0  0  0  0  0  0  0  0  0  0  0
   29.0336   -1.3732   11.4387 F   0  0  0  0  0  0  0  0  0  0  0  0
   30.8795   -1.7915   10.3492 F   0  0  0  0  0  0  0  0  0  0  0  0
   28.7089    1.1068   11.4001 N   0  0  0  0  0  0  0  0  0  0  0  0
   27.5309    1.2911   11.7303 O   0  0  0  0  0  0  0  0  0  0  0  0
   29.6634    0.9607   12.1709 O   0  0  0  0  0  0  0  0  0  0  0  0
   28.2433    0.6798    2.5310 C   0  0  0  0  0  0  0  0  0  0  0  0
   27.0794    0.5616    3.3630 O   0  0  0  0  0  0  0  0  0  0  0  0
   24.9634    4.1494    3.7463 C   0  0  0  0  0  0  0  0  0  0  0  0
   24.3481    2.9601    4.1373 C   0  0  0  0  0  0  0  0  0  0  0  0
   25.0207    1.7341    4.0285 C   0  0  0  0  0  0  0  0  0  0  0  0
   26.3185    1.6852    3.5250 C   0  0  0  0  0  0  0  0  0  0  0  0
   26.9363    2.8720    3.1310 C   0  0  0  0  0  0  0  0  0  0  0  0
   26.2666    4.0949    3.2412 C   0  0  0  0  0  0  0  0  0  0  0  0
   23.9940    7.7890    3.9585 C   0  0  0  0  0  0  0  0  0  0  0  0
   24.9812    6.6502    3.8938 C   0  0  0  0  0  0  0  0  0  0  0  0
   26.1875    6.8669    3.8818 O   0  0  0  0  0  0  0  0  0  0  0  0
   24.3546    5.4186    3.8258 N   0  0  0  0  0  0  0  0  0  0  0  0
   23.3702    5.4297    3.8339 H   0  0  0  0  0  0  0  0  0  0  0  0
 30 31  1  0
 31 32  2  0
 31 33  1  0
 33 24  1  0
 24 25  2  0
 25 26  1  0
 26 27  2  0
 27 23  1  0
 23 22  1  0
 22  1  1  0
  1  2  1  0
  1  3  1  0
  1  5  1  0
  5  6  2  0
  5  7  1  0
  7  9  1  0
  9 10  2  0
 10 11  1  0
 11 12  2  0
 12 19  1  0
 19 20  2  0
 19 21  1  0
 12 13  1  0
 13 15  1  0
 15 16  1  0
 15 17  1  0
 15 18  1  0
 13 14  2  0
 27 28  1  0
 28 29  2  0
 29 24  1  0
 14  9  1  0
 33 34  1  0
  3  4  1  0
  7  8  1  0
M  CHG 1  19   1
M  CHG 1  21  -1
M  END
> <minimizedAffinity>
-7.31635

> <CNNscore>
0.3135620058

> <CNNaffinity>
7.3506736755

> <CNN_VS>
2.3048920631

> <CNNaffinity_variance>
0.0498082004

$$$$



 34 35  0  0  0  0  0  0  0  0999 V2000
   19.2442    8.4003   12.6429 C   0  0  0  0  0  0  0  0  0  0  0  0
   19.0328    7.7387   11.2818 C   0  0  0  0  0  0  0  0  0  0  0  0
   17.9935    9.0181   13.0108 O   0  0  0  0  0  0  0  0  0  0  0  0
   17.7628    9.6958   12.3562 H   0  0  0  0  0  0  0  0  0  0  0  0
   19.6084    7.3225   13.6867 C   0  0  0  0  0  0  0  0  0  0  0  0
   19.9476    7.6085   14.8302 O   0  0  0  0  0  0  0  0  0  0  0  0
   19.5526    6.0501   13.1395 N   0  0  0  0  0  0  0  0  0  0  0  0
   19.2476    5.9993   12.2049 H   0  0  0  0  0  0  0  0  0  0  0  0
   19.8741    4.8247   13.7438 C   0  0  0  0  0  0  0  0  0  0  0  0
   20.3095    4.8668   15.0736 C   0  0  0  0  0  0  0  0  0  0  0  0
   20.6389    3.6920   15.7510 C   0  0  0  0  0  0  0  0  0  0  0  0
   20.5276    2.4630   15.0888 C   0  0  0  0  0  0  0  0  0  0  0  0
   20.1085    2.3844   13.7531 C   0  0  0  0  0  0  0  0  0  0  0  0
   19.7732    3.5873   13.0965 C   0  0  0  0  0  0  0  0  0  0  0  0
   20.0064    1.0751   13.0154 C   0  0  0  0  0  0  0  0  0  0  0  0
   18.7940    0.8968   12.4186 F   0  0  0  0  0  0  0  0  0  0  0  0
   20.1763   -0.0004   13.8266 F   0  0  0  0  0  0  0  0  0  0  0  0
   20.9164    0.9617   12.0110 F   0  0  0  0  0  0  0  0  0  0  0  0
   20.8482    1.2626   15.8490 N   0  0  0  0  0  0  0  0  0  0  0  0
   19.9832    0.8430   16.6276 O   0  0  0  0  0  0  0  0  0  0  0  0
   21.9454    0.7372   15.6330 O   0  0  0  0  0  0  0  0  0  0  0  0
   20.3614    9.4575   12.6076 C   0  0  0  0  0  0  0  0  0  0  0  0
   20.2534   10.1771   11.3701 O   0  0  0  0  0  0  0  0  0  0  0  0
   23.8051   12.0484   10.1954 C   0  0  0  0  0  0  0  0  0  0  0  0
   22.9821   11.4915    9.2164 C   0  0  0  0  0  0  0  0  0  0  0  0
   21.7810   10.8563    9.5643 C   0  0  0  0  0  0  0  0  0  0  0  0
   21.3906   10.7704   10.8986 C   0  0  0  0  0  0  0  0  0  0  0  0
   22.2119   11.3242   11.8806 C   0  0  0  0  0  0  0  0  0  0  0  0
   23.4086   11.9594   11.5339 C   0  0  0  0  0  0  0  0  0  0  0  0
   27.0322   13.4689    8.8539 C   0  0  0  0  0  0  0  0  0  0  0  0
   25.7938   12.6107    8.7794 C   0  0  0  0  0  0  0  0  0  0  0  0
   25.5480   11.9515    7.7758 O   0  0  0  0  0  0  0  0  0  0  0  0
   25.0244   12.7029    9.9256 N   0  0  0  0  0  0  0  0  0  0  0  0
   25.3679   13.2935   10.6344 H   0  0  0  0  0  0  0  0  0  0  0  0
 30 31  1  0
 31 32  2  0
 31 33  1  0
 33 24  1  0
 24 25  2  0
 25 26  1  0
 26 27  2  0
 27 23  1  0
 23 22  1  0
 22  1  1  0
  1  2  1  0
  1  3  1  0
  1  5  1  0
  5  6  2  0
  5  7  1  0
  7  9  1  0
  9 10  2  0
 10 11  1  0
 11 12  2  0
 12 19  1  0
 19 20  2  0
 19 21  1  0
 12 13  1  0
 13 15  1  0
 15 16  1  0
 15 17  1  0
 15 18  1  0
 13 14  2  0
 27 28  1  0
 28 29  2  0
 29 24  1  0
 14  9  1  0
 33 34  1  0
  3  4  1  0
  7  8  1  0
M  CHG 1  19   1
M  CHG 1  21  -1
M  END
> <minimizedAffinity>
35.57957

> <CNNscore>
0.2713091075

> <CNNaffinity>
4.5739727020

> <CNN_VS>
1.2409604788

> <CNNaffinity_variance>
0.7746890187

$$$$



 34 35  0  0  0  0  0  0  0  0999 V2000
   24.4259    7.1498    3.9369 C   0  0  0  0  0  0  0  0  0  0  0  0
   24.3416    8.0065    2.6744 C   0  0  0  0  0  0  0  0  0  0  0  0
   23.2363    6.3344    3.9740 O   0  0  0  0  0  0  0  0  0  0  0  0
   22.4541    6.9058    4.0248 H   0  0  0  0  0  0  0  0  0  0  0  0
   25.6687    6.2372    3.8562 C   0  0  0  0  0  0  0  0  0  0  0  0
   26.7994    6.6856    3.6985 O   0  0  0  0  0  0  0  0  0  0  0  0
   25.3176    4.8982    3.9261 N   0  0  0  0  0  0  0  0  0  0  0  0
   24.3607    4.7135    4.0663 H   0  0  0  0  0  0  0  0  0  0  0  0
   26.1477    3.7710    3.8233 C   0  0  0  0  0  0  0  0  0  0  0  0
   25.7757    2.7903    2.8961 C   0  0  0  0  0  0  0  0  0  0  0  0
   26.5523    1.6437    2.7244 C   0  0  0  0  0  0  0  0  0  0  0  0
   27.7148    1.4807    3.4882 C   0  0  0  0  0  0  0  0  0  0  0  0
   28.1101    2.4354    4.4359 C   0  0  0  0  0  0  0  0  0  0  0  0
   27.3107    3.5888    4.5812 C   0  0  0  0  0  0  0  0  0  0  0  0
   29.3428    2.2669    5.2850 C   0  0  0  0  0  0  0  0  0  0  0  0
   29.5212    3.2896    6.1683 F   0  0  0  0  0  0  0  0  0  0  0  0
   30.4839    2.2145    4.5511 F   0  0  0  0  0  0  0  0  0  0  0  0
   29.3099    1.1412    6.0474 F   0  0  0  0  0  0  0  0  0  0  0  0
   28.5108    0.2849    3.2472 N   0  0  0  0  0  0  0  0  0  0  0  0
   28.2169   -0.7260    3.8969 O   0  0  0  0  0  0  0  0  0  0  0  0
   29.3960    0.3629    2.3887 O   0  0  0  0  0  0  0  0  0  0  0  0
   24.5167    8.0038    5.2134 C   0  0  0  0  0  0  0  0  0  0  0  0
   23.6593    9.1432    5.0478 O   0  0  0  0  0  0  0  0  0  0  0  0
   23.7601   11.8717    8.2167 C   0  0  0  0  0  0  0  0  0  0  0  0
   24.0077   12.3326    6.9235 C   0  0  0  0  0  0  0  0  0  0  0  0
   23.9820   11.4537    5.8307 C   0  0  0  0  0  0  0  0  0  0  0  0
   23.7091   10.1012    6.0211 C   0  0  0  0  0  0  0  0  0  0  0  0
   23.4632    9.6361    7.3129 C   0  0  0  0  0  0  0  0  0  0  0  0
   23.4867   10.5125    8.4025 C   0  0  0  0  0  0  0  0  0  0  0  0
   23.6258   13.4714   11.6305 C   0  0  0  0  0  0  0  0  0  0  0  0
   23.5172   12.3126   10.6708 C   0  0  0  0  0  0  0  0  0  0  0  0
   23.2581   11.1855   11.0765 O   0  0  0  0  0  0  0  0  0  0  0  0
   23.7668   12.6914    9.3637 N   0  0  0  0  0  0  0  0  0  0  0  0
   23.9728   13.6430    9.2178 H   0  0  0  0  0  0  0  0  0  0  0  0
 30 31  1  0
 31 32  2  0
 31 33  1  0
 33 24  1  0
 24 25  2  0
 25 26  1  0
 26 27  2  0
 27 23  1  0
 23 22  1  0
 22  1  1  0
  1  2  1  0
  1  3  1  0
  1  5  1  0
  5  6  2  0
  5  7  1  0
  7  9  1  0
  9 10  2  0
 10 11  1  0
 11 12  2  0
 12 19  1  0
 19 20  2  0
 19 21  1  0
 12 13  1  0
 13 15  1  0
 15 16  1  0
 15 17  1  0
 15 18  1  0
 13 14  2  0
 27 28  1  0
 28 29  2  0
 29 24  1  0
 14  9  1  0
 33 34  1  0
  3  4  1  0
  7  8  1  0
M  CHG 1  19   1
M  CHG 1  21  -1
M  END
> <minimizedAffinity>
-2.22748

> <CNNscore>
0.2646780312

> <CNNaffinity>
6.1838355064

> <CNN_VS>
1.6367254257

> <CNNaffinity_variance>
0.0866830423

$$$$
