


 27 31  0  0  0  0  0  0  0  0999 V2000
   12.0838   26.1274    6.7093 N   0  0  0  0  0  0  0  0  0  0  0  0
   12.5695   27.4777    6.4304 C   0  0  0  0  0  0  0  0  0  0  0  0
   13.1806   28.0840    7.6978 C   0  0  0  0  0  0  0  0  0  0  0  0
   12.4495   27.6427    8.9775 C   0  0  0  0  0  0  0  0  0  0  0  0
   10.9923   27.2843    8.6558 C   0  0  0  0  0  0  0  0  0  0  0  0
   10.9367   26.1396    7.6349 C   0  0  0  0  0  0  0  0  0  0  0  0
   12.6121   28.6208   10.0437 N   0  0  0  0  0  0  0  0  0  0  0  0
   12.8517   29.9656    9.8469 C   0  0  0  0  0  0  0  0  0  0  0  0
   12.9311   30.6363   10.9777 N   0  0  0  0  0  0  0  0  0  0  0  0
   12.7664   29.6924   11.9595 C   0  0  0  0  0  0  0  0  0  0  0  0
   12.7630   29.7883   13.3633 C   0  0  0  0  0  0  0  0  0  0  0  0
   12.5980   28.7015   14.1815 N   0  0  0  0  0  0  0  0  0  0  0  0
   12.4467   27.5296   13.5401 C   0  0  0  0  0  0  0  0  0  0  0  0
   12.2792   26.2942   14.0994 N   0  0  0  0  0  0  0  0  0  0  0  0
   12.1775   25.3460   13.1011 C   0  0  0  0  0  0  0  0  0  0  0  0
   12.2749   25.9806   11.8728 C   0  0  0  0  0  0  0  0  0  0  0  0
   12.4359   27.3530   12.1753 C   0  0  0  0  0  0  0  0  0  0  0  0
   12.5873   28.4481   11.3803 C   0  0  0  0  0  0  0  0  0  0  0  0
   12.2376   26.1089   15.0654 H   0  0  0  0  0  0  0  0  0  0  0  0
   11.7759   25.4009    5.4658 C   0  0  0  0  0  0  0  0  0  0  0  0
    7.2958   21.1649    6.1685 Br  0  0  0  0  0  0  0  0  0  0  0  0
    8.6606   22.4554    5.9556 C   0  0  0  0  0  0  0  0  0  0  0  0
    9.9115   22.2398    6.5306 C   0  0  0  0  0  0  0  0  0  0  0  0
   10.9214   23.1920    6.3724 C   0  0  0  0  0  0  0  0  0  0  0  0
   10.6857   24.3632    5.6374 C   0  0  0  0  0  0  0  0  0  0  0  0
    9.4186   24.5649    5.0673 C   0  0  0  0  0  0  0  0  0  0  0  0
    8.4087   23.6137    5.2242 C   0  0  0  0  0  0  0  0  0  0  0  0
 21 22  1  0
 22 23  2  0
 23 24  1  0
 24 25  2  0
 25 20  1  0
 20  1  1  0
  1  2  1  0
  2  3  1  0
  3  4  1  0
  4  7  1  0
  7  8  1  0
  8  9  2  0
  9 10  1  0
 10 11  2  0
 11 12  1  0
 12 13  2  0
 13 14  1  0
 14 15  1  0
 15 16  2  0
 16 17  1  0
 17 18  2  0
  4  5  1  0
  5  6  1  0
 25 26  1  0
 26 27  2  0
 27 22  1  0
  6  1  1  0
 18  7  1  0
 18 10  1  0
 17 13  1  0
 14 19  1  0
M  END
> <minimizedAffinity>
-9.70348

> <CNNscore>
0.9771568179

> <CNNaffinity>
7.9981856346

> <CNN_VS>
7.8154816628

> <CNNaffinity_variance>
0.0350632928

$$$$



 27 31  0  0  0  0  0  0  0  0999 V2000
   11.2084   24.4731    7.9833 N   0  0  0  0  0  0  0  0  0  0  0  0
   12.5948   24.9349    7.9413 C   0  0  0  0  0  0  0  0  0  0  0  0
   12.8848   25.8247    9.1543 C   0  0  0  0  0  0  0  0  0  0  0  0
   11.6710   26.6741    9.5695 C   0  0  0  0  0  0  0  0  0  0  0  0
   10.7586   26.9174    8.3599 C   0  0  0  0  0  0  0  0  0  0  0  0
   10.2569   25.5826    7.7922 C   0  0  0  0  0  0  0  0  0  0  0  0
   12.0852   27.8819   10.2693 N   0  0  0  0  0  0  0  0  0  0  0  0
   12.3116   29.1019    9.6652 C   0  0  0  0  0  0  0  0  0  0  0  0
   12.6504   30.0383   10.5272 N   0  0  0  0  0  0  0  0  0  0  0  0
   12.6768   29.4046   11.7437 C   0  0  0  0  0  0  0  0  0  0  0  0
   12.9787   29.8678   13.0376 C   0  0  0  0  0  0  0  0  0  0  0  0
   12.9657   29.0536   14.1397 N   0  0  0  0  0  0  0  0  0  0  0  0
   12.6492   27.7709   13.8905 C   0  0  0  0  0  0  0  0  0  0  0  0
   12.5742   26.7458   14.7907 N   0  0  0  0  0  0  0  0  0  0  0  0
   12.2349   25.5795   14.1343 C   0  0  0  0  0  0  0  0  0  0  0  0
   12.0817   25.8566   12.7849 C   0  0  0  0  0  0  0  0  0  0  0  0
   12.3397   27.2416   12.6583 C   0  0  0  0  0  0  0  0  0  0  0  0
   12.3447   28.0711   11.5785 C   0  0  0  0  0  0  0  0  0  0  0  0
   12.7370   26.8264   15.7583 H   0  0  0  0  0  0  0  0  0  0  0  0
   10.9773   23.3822    7.0214 C   0  0  0  0  0  0  0  0  0  0  0  0
    9.5210   25.3915    1.3335 Br  0  0  0  0  0  0  0  0  0  0  0  0
    9.9657   24.7791    3.0658 C   0  0  0  0  0  0  0  0  0  0  0  0
   11.0694   25.3151    3.7263 C   0  0  0  0  0  0  0  0  0  0  0  0
   11.3979   24.8646    5.0073 C   0  0  0  0  0  0  0  0  0  0  0  0
   10.6235   23.8772    5.6340 C   0  0  0  0  0  0  0  0  0  0  0  0
    9.5166   23.3466    4.9526 C   0  0  0  0  0  0  0  0  0  0  0  0
    9.1870   23.7965    3.6727 C   0  0  0  0  0  0  0  0  0  0  0  0
 21 22  1  0
 22 23  2  0
 23 24  1  0
 24 25  2  0
 25 20  1  0
 20  1  1  0
  1  2  1  0
  2  3  1  0
  3  4  1  0
  4  7  1  0
  7  8  1  0
  8  9  2  0
  9 10  1  0
 10 11  2  0
 11 12  1  0
 12 13  2  0
 13 14  1  0
 14 15  1  0
 15 16  2  0
 16 17  1  0
 17 18  2  0
  4  5  1  0
  5  6  1  0
 25 26  1  0
 26 27  2  0
 27 22  1  0
  6  1  1  0
 18  7  1  0
 18 10  1  0
 17 13  1  0
 14 19  1  0
M  END
> <minimizedAffinity>
-9.16736

> <CNNscore>
0.9698503017

> <CNNaffinity>
7.9103417397

> <CNN_VS>
7.6718473434

> <CNNaffinity_variance>
0.0433115177

$$$$



 27 31  0  0  0  0  0  0  0  0999 V2000
   11.6580   25.5755    7.4155 N   0  0  0  0  0  0  0  0  0  0  0  0
   10.4802   26.0422    8.1449 C   0  0  0  0  0  0  0  0  0  0  0  0
   10.9130   26.7882    9.4111 C   0  0  0  0  0  0  0  0  0  0  0  0
   12.1804   26.1908   10.0467 C   0  0  0  0  0  0  0  0  0  0  0  0
   12.3024   24.7047    9.6838 C   0  0  0  0  0  0  0  0  0  0  0  0
   12.3843   24.5317    8.1609 C   0  0  0  0  0  0  0  0  0  0  0  0
   12.2401   26.4734   11.4738 N   0  0  0  0  0  0  0  0  0  0  0  0
   12.0585   25.5349   12.4692 C   0  0  0  0  0  0  0  0  0  0  0  0
   12.1908   26.0453   13.6762 N   0  0  0  0  0  0  0  0  0  0  0  0
   12.4407   27.3784   13.4695 C   0  0  0  0  0  0  0  0  0  0  0  0
   12.6594   28.4425   14.3638 C   0  0  0  0  0  0  0  0  0  0  0  0
   12.8763   29.7299   13.9474 N   0  0  0  0  0  0  0  0  0  0  0  0
   12.8567   29.9030   12.6142 C   0  0  0  0  0  0  0  0  0  0  0  0
   13.0280   31.0719   11.9277 N   0  0  0  0  0  0  0  0  0  0  0  0
   12.9202   30.8308   10.5725 C   0  0  0  0  0  0  0  0  0  0  0  0
   12.6805   29.4795   10.3785 C   0  0  0  0  0  0  0  0  0  0  0  0
   12.6527   28.9170   11.6761 C   0  0  0  0  0  0  0  0  0  0  0  0
   12.4532   27.6421   12.1108 C   0  0  0  0  0  0  0  0  0  0  0  0
   13.2016   31.9506   12.3363 H   0  0  0  0  0  0  0  0  0  0  0  0
   11.3058   25.1323    6.0559 C   0  0  0  0  0  0  0  0  0  0  0  0
    7.3054   20.3884    6.0115 Br  0  0  0  0  0  0  0  0  0  0  0  0
    8.5245   21.8331    6.0260 C   0  0  0  0  0  0  0  0  0  0  0  0
    9.8916   21.5849    5.9202 C   0  0  0  0  0  0  0  0  0  0  0  0
   10.7934   22.6519    5.9289 C   0  0  0  0  0  0  0  0  0  0  0  0
   10.3323   23.9717    6.0420 C   0  0  0  0  0  0  0  0  0  0  0  0
    8.9517   24.2028    6.1503 C   0  0  0  0  0  0  0  0  0  0  0  0
    8.0495   23.1374    6.1410 C   0  0  0  0  0  0  0  0  0  0  0  0
 21 22  1  0
 22 23  2  0
 23 24  1  0
 24 25  2  0
 25 20  1  0
 20  1  1  0
  1  2  1  0
  2  3  1  0
  3  4  1  0
  4  7  1  0
  7  8  1  0
  8  9  2  0
  9 10  1  0
 10 11  2  0
 11 12  1  0
 12 13  2  0
 13 14  1  0
 14 15  1  0
 15 16  2  0
 16 17  1  0
 17 18  2  0
  4  5  1  0
  5  6  1  0
 25 26  1  0
 26 27  2  0
 27 22  1  0
  6  1  1  0
 18  7  1  0
 18 10  1  0
 17 13  1  0
 14 19  1  0
M  END
> <minimizedAffinity>
-9.95306

> <CNNscore>
0.9569626451

> <CNNaffinity>
7.7570233345

> <CNN_VS>
7.4231815338

> <CNNaffinity_variance>
0.0791909769

$$$$



 27 31  0  0  0  0  0  0  0  0999 V2000
   11.8043   24.9074    6.6630 N   0  0  0  0  0  0  0  0  0  0  0  0
   13.1285   24.9922    7.2766 C   0  0  0  0  0  0  0  0  0  0  0  0
   13.0598   25.8422    8.5493 C   0  0  0  0  0  0  0  0  0  0  0  0
   12.0506   26.9979    8.4360 C   0  0  0  0  0  0  0  0  0  0  0  0
   11.8737   27.4018    6.9661 C   0  0  0  0  0  0  0  0  0  0  0  0
   11.3582   26.2128    6.1437 C   0  0  0  0  0  0  0  0  0  0  0  0
   12.3995   28.0943    9.3283 N   0  0  0  0  0  0  0  0  0  0  0  0
   12.8012   29.3479    8.9137 C   0  0  0  0  0  0  0  0  0  0  0  0
   13.0312   30.1645    9.9211 N   0  0  0  0  0  0  0  0  0  0  0  0
   12.8004   29.4119   11.0446 C   0  0  0  0  0  0  0  0  0  0  0  0
   12.8889   29.7186   12.4150 C   0  0  0  0  0  0  0  0  0  0  0  0
   12.6298   28.8014   13.3996 N   0  0  0  0  0  0  0  0  0  0  0  0
   12.2907   27.5781   12.9566 C   0  0  0  0  0  0  0  0  0  0  0  0
   11.9953   26.4766   13.7092 N   0  0  0  0  0  0  0  0  0  0  0  0
   11.7143   25.4113   12.8770 C   0  0  0  0  0  0  0  0  0  0  0  0
   11.8243   25.8332   11.5614 C   0  0  0  0  0  0  0  0  0  0  0  0
   12.1799   27.2002   11.6379 C   0  0  0  0  0  0  0  0  0  0  0  0
   12.4279   28.1309   10.6755 C   0  0  0  0  0  0  0  0  0  0  0  0
   11.9844   26.4470   14.6932 H   0  0  0  0  0  0  0  0  0  0  0  0
   11.7596   23.8620    5.6266 C   0  0  0  0  0  0  0  0  0  0  0  0
    6.8425   20.1105    6.1346 Br  0  0  0  0  0  0  0  0  0  0  0  0
    8.3400   21.2537    5.9789 C   0  0  0  0  0  0  0  0  0  0  0  0
    8.1564   22.6350    5.9640 C   0  0  0  0  0  0  0  0  0  0  0  0
    9.2625   23.4809    5.8508 C   0  0  0  0  0  0  0  0  0  0  0  0
   10.5569   22.9496    5.7535 C   0  0  0  0  0  0  0  0  0  0  0  0
   10.7227   21.5556    5.7675 C   0  0  0  0  0  0  0  0  0  0  0  0
    9.6182   20.7092    5.8812 C   0  0  0  0  0  0  0  0  0  0  0  0
 21 22  1  0
 22 23  2  0
 23 24  1  0
 24 25  2  0
 25 20  1  0
 20  1  1  0
  1  2  1  0
  2  3  1  0
  3  4  1  0
  4  7  1  0
  7  8  1  0
  8  9  2  0
  9 10  1  0
 10 11  2  0
 11 12  1  0
 12 13  2  0
 13 14  1  0
 14 15  1  0
 15 16  2  0
 16 17  1  0
 17 18  2  0
  4  5  1  0
  5  6  1  0
 25 26  1  0
 26 27  2  0
 27 22  1  0
  6  1  1  0
 18  7  1  0
 18 10  1  0
 17 13  1  0
 14 19  1  0
M  END
> <minimizedAffinity>
-8.64050

> <CNNscore>
0.9514571428

> <CNNaffinity>
7.8755545616

> <CNN_VS>
7.4932527542

> <CNNaffinity_variance>
0.1057991385

$$$$



 27 31  0  0  0  0  0  0  0  0999 V2000
   11.7846   25.0626    7.6930 N   0  0  0  0  0  0  0  0  0  0  0  0
   13.0639   25.6153    8.1349 C   0  0  0  0  0  0  0  0  0  0  0  0
   13.1732   25.5218    9.6601 C   0  0  0  0  0  0  0  0  0  0  0  0
   11.8203   25.7235   10.3645 C   0  0  0  0  0  0  0  0  0  0  0  0
   10.8922   26.5771    9.4898 C   0  0  0  0  0  0  0  0  0  0  0  0
   10.6488   25.8892    8.1395 C   0  0  0  0  0  0  0  0  0  0  0  0
   11.9993   26.2189   11.7219 N   0  0  0  0  0  0  0  0  0  0  0  0
   11.8398   25.4596   12.8632 C   0  0  0  0  0  0  0  0  0  0  0  0
   12.0874   26.1407   13.9629 N   0  0  0  0  0  0  0  0  0  0  0  0
   12.3939   27.4065   13.5318 C   0  0  0  0  0  0  0  0  0  0  0  0
   12.7350   28.5796   14.2302 C   0  0  0  0  0  0  0  0  0  0  0  0
   12.9909   29.7701   13.6017 N   0  0  0  0  0  0  0  0  0  0  0  0
   12.8836   29.7359   12.2619 C   0  0  0  0  0  0  0  0  0  0  0  0
   13.0680   30.7708   11.3890 N   0  0  0  0  0  0  0  0  0  0  0  0
   12.8486   30.3306   10.0989 C   0  0  0  0  0  0  0  0  0  0  0  0
   12.5220   28.9841   10.1376 C   0  0  0  0  0  0  0  0  0  0  0  0
   12.5582   28.6321   11.5071 C   0  0  0  0  0  0  0  0  0  0  0  0
   12.3217   27.4556   12.1505 C   0  0  0  0  0  0  0  0  0  0  0  0
   13.3186   31.6889   11.6411 H   0  0  0  0  0  0  0  0  0  0  0  0
   11.7672   24.8498    6.2359 C   0  0  0  0  0  0  0  0  0  0  0  0
    7.6712   20.5469    4.4422 Br  0  0  0  0  0  0  0  0  0  0  0  0
    8.9189   21.8581    4.9876 C   0  0  0  0  0  0  0  0  0  0  0  0
    8.5782   23.2075    4.9185 C   0  0  0  0  0  0  0  0  0  0  0  0
    9.4988   24.1773    5.3229 C   0  0  0  0  0  0  0  0  0  0  0  0
   10.7635   23.8023    5.7996 C   0  0  0  0  0  0  0  0  0  0  0  0
   11.0905   22.4383    5.8599 C   0  0  0  0  0  0  0  0  0  0  0  0
   10.1711   21.4681    5.4565 C   0  0  0  0  0  0  0  0  0  0  0  0
 21 22  1  0
 22 23  2  0
 23 24  1  0
 24 25  2  0
 25 20  1  0
 20  1  1  0
  1  2  1  0
  2  3  1  0
  3  4  1  0
  4  7  1  0
  7  8  1  0
  8  9  2  0
  9 10  1  0
 10 11  2  0
 11 12  1  0
 12 13  2  0
 13 14  1  0
 14 15  1  0
 15 16  2  0
 16 17  1  0
 17 18  2  0
  4  5  1  0
  5  6  1  0
 25 26  1  0
 26 27  2  0
 27 22  1  0
  6  1  1  0
 18  7  1  0
 18 10  1  0
 17 13  1  0
 14 19  1  0
M  END
> <minimizedAffinity>
-9.11277

> <CNNscore>
0.9178205132

> <CNNaffinity>
7.6506438255

> <CNN_VS>
7.0219178200

> <CNNaffinity_variance>
0.0546900779

$$$$



 27 31  0  0  0  0  0  0  0  0999 V2000
   11.8245   25.8292    7.0007 N   0  0  0  0  0  0  0  0  0  0  0  0
   12.3166   27.1542    6.6273 C   0  0  0  0  0  0  0  0  0  0  0  0
   12.9743   27.8260    7.8370 C   0  0  0  0  0  0  0  0  0  0  0  0
   12.2789   27.4707    9.1626 C   0  0  0  0  0  0  0  0  0  0  0  0
   10.8083   27.1134    8.9078 C   0  0  0  0  0  0  0  0  0  0  0  0
   10.7074   25.9113    7.9588 C   0  0  0  0  0  0  0  0  0  0  0  0
   12.4863   28.5078   10.1633 N   0  0  0  0  0  0  0  0  0  0  0  0
   12.7073   29.8404    9.8803 C   0  0  0  0  0  0  0  0  0  0  0  0
   12.8367   30.5738   10.9666 N   0  0  0  0  0  0  0  0  0  0  0  0
   12.7256   29.6859   12.0064 C   0  0  0  0  0  0  0  0  0  0  0  0
   12.7892   29.8605   13.4013 C   0  0  0  0  0  0  0  0  0  0  0  0
   12.6708   28.8207   14.2860 N   0  0  0  0  0  0  0  0  0  0  0  0
   12.4964   27.6141   13.7192 C   0  0  0  0  0  0  0  0  0  0  0  0
   12.3641   26.4114   14.3541 N   0  0  0  0  0  0  0  0  0  0  0  0
   12.2206   25.4082   13.4165 C   0  0  0  0  0  0  0  0  0  0  0  0
   12.2547   25.9732   12.1513 C   0  0  0  0  0  0  0  0  0  0  0  0
   12.4211   27.3610   12.3685 C   0  0  0  0  0  0  0  0  0  0  0  0
   12.5270   28.4103   11.5071 C   0  0  0  0  0  0  0  0  0  0  0  0
   12.3702   26.2805   15.3299 H   0  0  0  0  0  0  0  0  0  0  0  0
   11.4693   25.0348    5.8126 C   0  0  0  0  0  0  0  0  0  0  0  0
   10.8456   28.4838    0.6916 Br  0  0  0  0  0  0  0  0  0  0  0  0
   11.0348   27.4338    2.2521 C   0  0  0  0  0  0  0  0  0  0  0  0
    9.9218   26.7940    2.7938 C   0  0  0  0  0  0  0  0  0  0  0  0
   10.0608   26.0163    3.9461 C   0  0  0  0  0  0  0  0  0  0  0  0
   11.3134   25.8738    4.5608 C   0  0  0  0  0  0  0  0  0  0  0  0
   12.4233   26.5277    4.0027 C   0  0  0  0  0  0  0  0  0  0  0  0
   12.2858   27.3047    2.8509 C   0  0  0  0  0  0  0  0  0  0  0  0
 21 22  1  0
 22 23  2  0
 23 24  1  0
 24 25  2  0
 25 20  1  0
 20  1  1  0
  1  2  1  0
  2  3  1  0
  3  4  1  0
  4  7  1  0
  7  8  1  0
  8  9  2  0
  9 10  1  0
 10 11  2  0
 11 12  1  0
 12 13  2  0
 13 14  1  0
 14 15  1  0
 15 16  2  0
 16 17  1  0
 17 18  2  0
  4  5  1  0
  5  6  1  0
 25 26  1  0
 26 27  2  0
 27 22  1  0
  6  1  1  0
 18  7  1  0
 18 10  1  0
 17 13  1  0
 14 19  1  0
M  END
> <minimizedAffinity>
-8.97235

> <CNNscore>
0.8622394800

> <CNNaffinity>
7.5632843971

> <CNN_VS>
6.5213623047

> <CNNaffinity_variance>
0.0501784869

$$$$



 27 31  0  0  0  0  0  0  0  0999 V2000
   11.8476   26.1314    7.0162 N   0  0  0  0  0  0  0  0  0  0  0  0
   10.6024   26.2736    7.7687 C   0  0  0  0  0  0  0  0  0  0  0  0
   10.8867   26.9155    9.1305 C   0  0  0  0  0  0  0  0  0  0  0  0
   12.2422   26.4849    9.7170 C   0  0  0  0  0  0  0  0  0  0  0  0
   12.6397   25.1070    9.1707 C   0  0  0  0  0  0  0  0  0  0  0  0
   12.7547   25.1517    7.6408 C   0  0  0  0  0  0  0  0  0  0  0  0
   12.2461   26.5855   11.1695 N   0  0  0  0  0  0  0  0  0  0  0  0
   12.0140   25.5327   12.0310 C   0  0  0  0  0  0  0  0  0  0  0  0
   12.1018   25.8857   13.2969 N   0  0  0  0  0  0  0  0  0  0  0  0
   12.3738   27.2301   13.2696 C   0  0  0  0  0  0  0  0  0  0  0  0
   12.5665   28.1703   14.2986 C   0  0  0  0  0  0  0  0  0  0  0  0
   12.8137   29.4962   14.0564 N   0  0  0  0  0  0  0  0  0  0  0  0
   12.8507   29.8353   12.7559 C   0  0  0  0  0  0  0  0  0  0  0  0
   13.0623   31.0782   12.2291 N   0  0  0  0  0  0  0  0  0  0  0  0
   13.0078   31.0105   10.8512 C   0  0  0  0  0  0  0  0  0  0  0  0
   12.7623   29.6980   10.4794 C   0  0  0  0  0  0  0  0  0  0  0  0
   12.6753   28.9778   11.6938 C   0  0  0  0  0  0  0  0  0  0  0  0
   12.4449   27.6618   11.9565 C   0  0  0  0  0  0  0  0  0  0  0  0
   13.2280   31.8960   12.7516 H   0  0  0  0  0  0  0  0  0  0  0  0
   11.5862   25.8116    5.6027 C   0  0  0  0  0  0  0  0  0  0  0  0
   14.3387   29.7553    1.6808 Br  0  0  0  0  0  0  0  0  0  0  0  0
   13.4992   28.5543    2.8752 C   0  0  0  0  0  0  0  0  0  0  0  0
   12.5238   27.6784    2.4029 C   0  0  0  0  0  0  0  0  0  0  0  0
   11.9040   26.7892    3.2844 C   0  0  0  0  0  0  0  0  0  0  0  0
   12.2577   26.7710    4.6415 C   0  0  0  0  0  0  0  0  0  0  0  0
   13.2406   27.6623    5.1003 C   0  0  0  0  0  0  0  0  0  0  0  0
   13.8611   28.5510    4.2203 C   0  0  0  0  0  0  0  0  0  0  0  0
 21 22  1  0
 22 23  2  0
 23 24  1  0
 24 25  2  0
 25 20  1  0
 20  1  1  0
  1  2  1  0
  2  3  1  0
  3  4  1  0
  4  7  1  0
  7  8  1  0
  8  9  2  0
  9 10  1  0
 10 11  2  0
 11 12  1  0
 12 13  2  0
 13 14  1  0
 14 15  1  0
 15 16  2  0
 16 17  1  0
 17 18  2  0
  4  5  1  0
  5  6  1  0
 25 26  1  0
 26 27  2  0
 27 22  1  0
  6  1  1  0
 18  7  1  0
 18 10  1  0
 17 13  1  0
 14 19  1  0
M  END
> <minimizedAffinity>
-9.60983

> <CNNscore>
0.6960418820

> <CNNaffinity>
7.2648644447

> <CNN_VS>
5.0566496849

> <CNNaffinity_variance>
0.0638437346

$$$$



 27 31  0  0  0  0  0  0  0  0999 V2000
   11.6745   25.6754    7.4569 N   0  0  0  0  0  0  0  0  0  0  0  0
   12.9944   26.0313    7.9750 C   0  0  0  0  0  0  0  0  0  0  0  0
   13.0685   25.7173    9.4727 C   0  0  0  0  0  0  0  0  0  0  0  0
   11.7306   25.9538   10.1945 C   0  0  0  0  0  0  0  0  0  0  0  0
   10.9057   27.0085    9.4445 C   0  0  0  0  0  0  0  0  0  0  0  0
   10.6184   26.5417    8.0109 C   0  0  0  0  0  0  0  0  0  0  0  0
   11.9348   26.2364   11.6081 N   0  0  0  0  0  0  0  0  0  0  0  0
   11.7507   25.3237   12.6268 C   0  0  0  0  0  0  0  0  0  0  0  0
   12.0297   25.8253   13.8123 N   0  0  0  0  0  0  0  0  0  0  0  0
   12.3837   27.1283   13.5691 C   0  0  0  0  0  0  0  0  0  0  0  0
   12.7736   28.1716   14.4290 C   0  0  0  0  0  0  0  0  0  0  0  0
   13.0731   29.4312   13.9800 N   0  0  0  0  0  0  0  0  0  0  0  0
   12.9586   29.5990   12.6510 C   0  0  0  0  0  0  0  0  0  0  0  0
   13.1795   30.7436   11.9381 N   0  0  0  0  0  0  0  0  0  0  0  0
   12.9374   30.5071   10.5995 C   0  0  0  0  0  0  0  0  0  0  0  0
   12.5585   29.1831   10.4429 C   0  0  0  0  0  0  0  0  0  0  0  0
   12.5869   28.6318   11.7452 C   0  0  0  0  0  0  0  0  0  0  0  0
   12.3073   27.3832   12.2108 C   0  0  0  0  0  0  0  0  0  0  0  0
   13.4670   31.6042   12.3200 H   0  0  0  0  0  0  0  0  0  0  0  0
   11.6605   25.6690    5.9843 C   0  0  0  0  0  0  0  0  0  0  0  0
   14.2490   30.7381    3.5119 Br  0  0  0  0  0  0  0  0  0  0  0  0
   13.4597   29.1939    4.2642 C   0  0  0  0  0  0  0  0  0  0  0  0
   13.3101   28.0462    3.4883 C   0  0  0  0  0  0  0  0  0  0  0  0
   12.7286   26.9038    4.0438 C   0  0  0  0  0  0  0  0  0  0  0  0
   12.2953   26.9036    5.3779 C   0  0  0  0  0  0  0  0  0  0  0  0
   12.4516   28.0696    6.1439 C   0  0  0  0  0  0  0  0  0  0  0  0
   13.0332   29.2117    5.5901 C   0  0  0  0  0  0  0  0  0  0  0  0
 21 22  1  0
 22 23  2  0
 23 24  1  0
 24 25  2  0
 25 20  1  0
 20  1  1  0
  1  2  1  0
  2  3  1  0
  3  4  1  0
  4  7  1  0
  7  8  1  0
  8  9  2  0
  9 10  1  0
 10 11  2  0
 11 12  1  0
 12 13  2  0
 13 14  1  0
 14 15  1  0
 15 16  2  0
 16 17  1  0
 17 18  2  0
  4  5  1  0
  5  6  1  0
 25 26  1  0
 26 27  2  0
 27 22  1  0
  6  1  1  0
 18  7  1  0
 18 10  1  0
 17 13  1  0
 14 19  1  0
M  END
> <minimizedAffinity>
-9.82920

> <CNNscore>
0.6791257262

> <CNNaffinity>
7.3993983269

> <CNN_VS>
5.0251216888

> <CNNaffinity_variance>
0.0978570804

$$$$



 27 31  0  0  0  0  0  0  0  0999 V2000
   11.6921   24.5312    7.5125 N   0  0  0  0  0  0  0  0  0  0  0  0
   13.0022   25.0387    7.9166 C   0  0  0  0  0  0  0  0  0  0  0  0
   13.0694   25.1513    9.4431 C   0  0  0  0  0  0  0  0  0  0  0  0
   11.7223   25.5547   10.0672 C   0  0  0  0  0  0  0  0  0  0  0  0
   10.8871   26.3474    9.0527 C   0  0  0  0  0  0  0  0  0  0  0  0
   10.6183   25.4985    7.8026 C   0  0  0  0  0  0  0  0  0  0  0  0
   11.9110   26.2196   11.3487 N   0  0  0  0  0  0  0  0  0  0  0  0
   11.7998   25.6028   12.5783 C   0  0  0  0  0  0  0  0  0  0  0  0
   12.0457   26.4223   13.5796 N   0  0  0  0  0  0  0  0  0  0  0  0
   12.3006   27.6340   12.9889 C   0  0  0  0  0  0  0  0  0  0  0  0
   12.6154   28.8945   13.5292 C   0  0  0  0  0  0  0  0  0  0  0  0
   12.8183   30.0055   12.7532 N   0  0  0  0  0  0  0  0  0  0  0  0
   12.6859   29.8023   11.4307 C   0  0  0  0  0  0  0  0  0  0  0  0
   12.8179   30.7265   10.4329 N   0  0  0  0  0  0  0  0  0  0  0  0
   12.5883   30.1233    9.2124 C   0  0  0  0  0  0  0  0  0  0  0  0
   12.3084   28.7825    9.4242 C   0  0  0  0  0  0  0  0  0  0  0  0
   12.3834   28.6039   10.8253 C   0  0  0  0  0  0  0  0  0  0  0  0
   12.1996   27.5093   11.6141 C   0  0  0  0  0  0  0  0  0  0  0  0
   13.0421   31.6761   10.5641 H   0  0  0  0  0  0  0  0  0  0  0  0
   11.6898   24.1186    6.0988 C   0  0  0  0  0  0  0  0  0  0  0  0
   11.4037   28.8977    2.1506 Br  0  0  0  0  0  0  0  0  0  0  0  0
   11.4917   27.4414    3.3527 C   0  0  0  0  0  0  0  0  0  0  0  0
   12.6650   27.2039    4.0659 C   0  0  0  0  0  0  0  0  0  0  0  0
   12.7306   26.1290    4.9560 C   0  0  0  0  0  0  0  0  0  0  0  0
   11.6231   25.2879    5.1379 C   0  0  0  0  0  0  0  0  0  0  0  0
   10.4501   25.5407    4.4091 C   0  0  0  0  0  0  0  0  0  0  0  0
   10.3831   26.6149    3.5198 C   0  0  0  0  0  0  0  0  0  0  0  0
 21 22  1  0
 22 23  2  0
 23 24  1  0
 24 25  2  0
 25 20  1  0
 20  1  1  0
  1  2  1  0
  2  3  1  0
  3  4  1  0
  4  7  1  0
  7  8  1  0
  8  9  2  0
  9 10  1  0
 10 11  2  0
 11 12  1  0
 12 13  2  0
 13 14  1  0
 14 15  1  0
 15 16  2  0
 16 17  1  0
 17 18  2  0
  4  5  1  0
  5  6  1  0
 25 26  1  0
 26 27  2  0
 27 22  1  0
  6  1  1  0
 18  7  1  0
 18 10  1  0
 17 13  1  0
 14 19  1  0
M  END
> <minimizedAffinity>
-9.10699

> <CNNscore>
0.6625431180

> <CNNaffinity>
7.3377137184

> <CNN_VS>
4.8615517616

> <CNNaffinity_variance>
0.0136269806

$$$$
