


 16 16  0  0  0  0  0  0  0  0999 V2000
   43.9908    6.9477   24.1363 C   0  0  0  0  0  0  0  0  0  0  0  0
   44.8227    5.7102   24.3434 C   0  0  0  0  0  0  0  0  0  0  0  0
   45.0564    5.1582   25.5453 C   0  0  0  0  0  0  0  0  0  0  0  0
   44.5702    5.7563   26.8373 C   0  0  0  0  0  0  0  0  0  0  0  0
   43.4574    4.9711   27.2645 O   0  0  0  0  0  0  0  0  0  0  0  0
   44.0896    7.2020   26.6718 C   0  0  0  0  0  0  0  0  0  0  0  0
   43.2268    7.3727   25.4192 C   0  0  0  0  0  0  0  0  0  0  0  0
   42.8582    8.7603   25.3334 O   0  0  0  0  0  0  0  0  0  0  0  0
   43.7365    4.0489   27.3768 H   0  0  0  0  0  0  0  0  0  0  0  0
   43.6588    9.3041   25.2683 H   0  0  0  0  0  0  0  0  0  0  0  0
   45.7242    5.7192   27.8707 C   0  0  0  0  0  0  0  0  0  0  0  0
   46.1635    6.6396   28.5399 O   0  0  0  0  0  0  0  0  0  0  0  0
   46.2902    4.4878   27.9527 O   0  0  0  0  0  0  0  0  0  0  0  0
   45.9520    3.7815   27.4382 H   0  0  0  0  0  0  0  0  0  0  0  0
   43.6126    5.6580   22.1621 C   0  0  0  0  0  0  0  0  0  0  0  0
   43.0935    6.6267   23.0628 O   0  0  0  0  0  0  0  0  0  0  0  0
 15 16  1  0
  1 16  1  0
  1  2  1  0
  2  3  2  0
  3  4  1  0
  4  5  1  0
  4 11  1  0
 11 12  2  0
 11 13  1  0
  4  6  1  0
  6  7  1  0
  7  8  1  0
  7  1  1  0
  5  9  1  0
 13 14  1  0
  8 10  1  0
M  END
> <minimizedAffinity>
-8.11564

> <CNNscore>
0.9022357464

> <CNNaffinity>
4.6847348213

> <CNN_VS>
4.2267351151

> <CNNaffinity_variance>
0.0111482246

$$$$



 16 16  0  0  0  0  0  0  0  0999 V2000
   54.4380    7.6460   32.4097 C   0  0  0  0  0  0  0  0  0  0  0  0
   54.7708    8.8989   33.1753 C   0  0  0  0  0  0  0  0  0  0  0  0
   54.0255   10.0157   33.1431 C   0  0  0  0  0  0  0  0  0  0  0  0
   52.8040   10.1686   32.2783 C   0  0  0  0  0  0  0  0  0  0  0  0
   51.6705   10.0518   33.1379 O   0  0  0  0  0  0  0  0  0  0  0  0
   52.6989    9.0745   31.2105 C   0  0  0  0  0  0  0  0  0  0  0  0
   53.0186    7.6914   31.7825 C   0  0  0  0  0  0  0  0  0  0  0  0
   52.9291    6.7453   30.7029 O   0  0  0  0  0  0  0  0  0  0  0  0
   51.7136   10.7354   33.8247 H   0  0  0  0  0  0  0  0  0  0  0  0
   53.5686    6.9809   30.0126 H   0  0  0  0  0  0  0  0  0  0  0  0
   52.8530   11.5533   31.5846 C   0  0  0  0  0  0  0  0  0  0  0  0
   53.7679   12.3601   31.5811 O   0  0  0  0  0  0  0  0  0  0  0  0
   51.6832   11.8485   30.9616 O   0  0  0  0  0  0  0  0  0  0  0  0
   50.9811   11.2280   30.9650 H   0  0  0  0  0  0  0  0  0  0  0  0
   55.7777    5.8426   33.2199 C   0  0  0  0  0  0  0  0  0  0  0  0
   54.5685    6.5759   33.3576 O   0  0  0  0  0  0  0  0  0  0  0  0
 15 16  1  0
  1 16  1  0
  1  2  1  0
  2  3  2  0
  3  4  1  0
  4  5  1  0
  4 11  1  0
 11 12  2  0
 11 13  1  0
  4  6  1  0
  6  7  1  0
  7  8  1  0
  7  1  1  0
  5  9  1  0
 13 14  1  0
  8 10  1  0
M  END
> <minimizedAffinity>
-5.24620

> <CNNscore>
0.5259367228

> <CNNaffinity>
3.0410814285

> <CNN_VS>
1.5994163752

> <CNNaffinity_variance>
0.4552040994

$$$$



 16 16  0  0  0  0  0  0  0  0999 V2000
   53.4860    9.6768   32.1460 C   0  0  0  0  0  0  0  0  0  0  0  0
   53.3049    9.4806   30.6644 C   0  0  0  0  0  0  0  0  0  0  0  0
   52.8860   10.4440   29.8277 C   0  0  0  0  0  0  0  0  0  0  0  0
   52.4792   11.8175   30.2874 C   0  0  0  0  0  0  0  0  0  0  0  0
   53.5479   12.7012   29.9491 O   0  0  0  0  0  0  0  0  0  0  0  0
   52.2699   11.8920   31.8037 C   0  0  0  0  0  0  0  0  0  0  0  0
   53.3822   11.1678   32.5658 C   0  0  0  0  0  0  0  0  0  0  0  0
   53.0781   11.2623   33.9685 O   0  0  0  0  0  0  0  0  0  0  0  0
   53.7006   12.6721   28.9916 H   0  0  0  0  0  0  0  0  0  0  0  0
   52.2212   10.8424   34.1426 H   0  0  0  0  0  0  0  0  0  0  0  0
   51.1632   12.2146   29.5723 C   0  0  0  0  0  0  0  0  0  0  0  0
   50.8893   12.1072   28.3885 O   0  0  0  0  0  0  0  0  0  0  0  0
   50.2740   12.7814   30.4276 O   0  0  0  0  0  0  0  0  0  0  0  0
   50.4854   12.8634   31.3367 H   0  0  0  0  0  0  0  0  0  0  0  0
   54.7182    7.8356   33.0378 C   0  0  0  0  0  0  0  0  0  0  0  0
   54.7772    9.1265   32.4469 O   0  0  0  0  0  0  0  0  0  0  0  0
 15 16  1  0
  1 16  1  0
  1  2  1  0
  2  3  2  0
  3  4  1  0
  4  5  1  0
  4 11  1  0
 11 12  2  0
 11 13  1  0
  4  6  1  0
  6  7  1  0
  7  8  1  0
  7  1  1  0
  5  9  1  0
 13 14  1  0
  8 10  1  0
M  END
> <minimizedAffinity>
-4.37628

> <CNNscore>
0.3875266910

> <CNNaffinity>
2.6080195904

> <CNN_VS>
1.0106772184

> <CNNaffinity_variance>
0.6124386191

$$$$



 16 16  0  0  0  0  0  0  0  0999 V2000
   55.7055    7.2806   30.0592 C   0  0  0  0  0  0  0  0  0  0  0  0
   56.0435    8.4628   30.9279 C   0  0  0  0  0  0  0  0  0  0  0  0
   55.2771    8.8867   31.9460 C   0  0  0  0  0  0  0  0  0  0  0  0
   53.9498    8.2693   32.2932 C   0  0  0  0  0  0  0  0  0  0  0  0
   54.1568    7.4689   33.4568 O   0  0  0  0  0  0  0  0  0  0  0  0
   53.4177    7.3565   31.1833 C   0  0  0  0  0  0  0  0  0  0  0  0
   54.5158    6.4534   30.6167 C   0  0  0  0  0  0  0  0  0  0  0  0
   53.9296    5.6671   29.5647 O   0  0  0  0  0  0  0  0  0  0  0  0
   54.4946    8.0253   34.1760 H   0  0  0  0  0  0  0  0  0  0  0  0
   53.5869    6.2554   28.8739 H   0  0  0  0  0  0  0  0  0  0  0  0
   52.9251    9.4018   32.5552 C   0  0  0  0  0  0  0  0  0  0  0  0
   52.0571    9.8179   31.8060 O   0  0  0  0  0  0  0  0  0  0  0  0
   53.1080    9.9780   33.7710 O   0  0  0  0  0  0  0  0  0  0  0  0
   53.7751    9.6575   34.3457 H   0  0  0  0  0  0  0  0  0  0  0  0
   56.7741    5.1996   30.5399 C   0  0  0  0  0  0  0  0  0  0  0  0
   56.9101    6.5030   29.9906 O   0  0  0  0  0  0  0  0  0  0  0  0
 15 16  1  0
  1 16  1  0
  1  2  1  0
  2  3  2  0
  3  4  1  0
  4  5  1  0
  4 11  1  0
 11 12  2  0
 11 13  1  0
  4  6  1  0
  6  7  1  0
  7  8  1  0
  7  1  1  0
  5  9  1  0
 13 14  1  0
  8 10  1  0
M  END
> <minimizedAffinity>
-4.95613

> <CNNscore>
0.3819532096

> <CNNaffinity>
3.1694400311

> <CNN_VS>
1.2105778456

> <CNNaffinity_variance>
0.1850658804

$$$$



 16 16  0  0  0  0  0  0  0  0999 V2000
   53.3557    9.8622   31.7483 C   0  0  0  0  0  0  0  0  0  0  0  0
   52.9224    8.4947   31.2912 C   0  0  0  0  0  0  0  0  0  0  0  0
   53.4830    7.3510   31.7169 C   0  0  0  0  0  0  0  0  0  0  0  0
   54.6620    7.3067   32.6504 C   0  0  0  0  0  0  0  0  0  0  0  0
   54.1600    6.9382   33.9348 O   0  0  0  0  0  0  0  0  0  0  0  0
   55.3538    8.6671   32.7888 C   0  0  0  0  0  0  0  0  0  0  0  0
   54.3418    9.8044   32.9460 C   0  0  0  0  0  0  0  0  0  0  0  0
   55.0826   11.0343   33.0310 O   0  0  0  0  0  0  0  0  0  0  0  0
   53.7161    6.0778   33.8738 H   0  0  0  0  0  0  0  0  0  0  0  0
   55.6027   11.1551   32.2211 H   0  0  0  0  0  0  0  0  0  0  0  0
   55.6823    6.2691   32.1181 C   0  0  0  0  0  0  0  0  0  0  0  0
   55.8533    5.1216   32.4950 O   0  0  0  0  0  0  0  0  0  0  0  0
   56.4721    6.7902   31.1443 O   0  0  0  0  0  0  0  0  0  0  0  0
   56.3399    7.6717   30.8555 H   0  0  0  0  0  0  0  0  0  0  0  0
   52.0292   11.8299   31.4802 C   0  0  0  0  0  0  0  0  0  0  0  0
   52.1430   10.5508   32.0884 O   0  0  0  0  0  0  0  0  0  0  0  0
 15 16  1  0
  1 16  1  0
  1  2  1  0
  2  3  2  0
  3  4  1  0
  4  5  1  0
  4 11  1  0
 11 12  2  0
 11 13  1  0
  4  6  1  0
  6  7  1  0
  7  8  1  0
  7  1  1  0
  5  9  1  0
 13 14  1  0
  8 10  1  0
M  END
> <minimizedAffinity>
-4.26062

> <CNNscore>
0.3811160624

> <CNNaffinity>
2.8296039104

> <CNN_VS>
1.0784075260

> <CNNaffinity_variance>
0.5085098147

$$$$



 16 16  0  0  0  0  0  0  0  0999 V2000
   53.0983   11.1847   31.6254 C   0  0  0  0  0  0  0  0  0  0  0  0
   52.4537   12.5118   31.9252 C   0  0  0  0  0  0  0  0  0  0  0  0
   51.6124   13.1410   31.0885 C   0  0  0  0  0  0  0  0  0  0  0  0
   51.2706   12.6239   29.7178 C   0  0  0  0  0  0  0  0  0  0  0  0
   49.9579   12.0691   29.7996 O   0  0  0  0  0  0  0  0  0  0  0  0
   52.2213   11.5152   29.2537 C   0  0  0  0  0  0  0  0  0  0  0  0
   52.4973   10.5021   30.3672 C   0  0  0  0  0  0  0  0  0  0  0  0
   53.4213    9.5297   29.8483 O   0  0  0  0  0  0  0  0  0  0  0  0
   49.3355   12.7531   30.0922 H   0  0  0  0  0  0  0  0  0  0  0  0
   54.2428    9.9729   29.5843 H   0  0  0  0  0  0  0  0  0  0  0  0
   51.3306   13.7998   28.7105 C   0  0  0  0  0  0  0  0  0  0  0  0
   51.3407   14.9956   28.9513 O   0  0  0  0  0  0  0  0  0  0  0  0
   51.3270   13.3648   27.4244 O   0  0  0  0  0  0  0  0  0  0  0  0
   51.3192   12.4460   27.2406 H   0  0  0  0  0  0  0  0  0  0  0  0
   54.1155   10.0498   33.4641 C   0  0  0  0  0  0  0  0  0  0  0  0
   52.9034   10.3925   32.8065 O   0  0  0  0  0  0  0  0  0  0  0  0
 15 16  1  0
  1 16  1  0
  1  2  1  0
  2  3  2  0
  3  4  1  0
  4  5  1  0
  4 11  1  0
 11 12  2  0
 11 13  1  0
  4  6  1  0
  6  7  1  0
  7  8  1  0
  7  1  1  0
  5  9  1  0
 13 14  1  0
  8 10  1  0
M  END
> <minimizedAffinity>
-4.82782

> <CNNscore>
0.3533557951

> <CNNaffinity>
2.5071887970

> <CNN_VS>
0.8859297037

> <CNNaffinity_variance>
0.6439826488

$$$$



 16 16  0  0  0  0  0  0  0  0999 V2000
   54.5313   13.2330   34.1854 C   0  0  0  0  0  0  0  0  0  0  0  0
   53.1392   13.4448   33.6529 C   0  0  0  0  0  0  0  0  0  0  0  0
   52.4537   12.5197   32.9614 C   0  0  0  0  0  0  0  0  0  0  0  0
   53.0279   11.1837   32.5758 C   0  0  0  0  0  0  0  0  0  0  0  0
   52.4493   10.2159   33.4509 O   0  0  0  0  0  0  0  0  0  0  0  0
   54.5493   11.1251   32.7502 C   0  0  0  0  0  0  0  0  0  0  0  0
   54.9930   11.7550   34.0726 C   0  0  0  0  0  0  0  0  0  0  0  0
   56.4286   11.6844   34.1254 O   0  0  0  0  0  0  0  0  0  0  0  0
   51.4838   10.2332   33.3591 H   0  0  0  0  0  0  0  0  0  0  0  0
   56.8042   12.1729   33.3763 H   0  0  0  0  0  0  0  0  0  0  0  0
   52.6744   10.8965   31.0947 C   0  0  0  0  0  0  0  0  0  0  0  0
   51.5910   11.0082   30.5455 O   0  0  0  0  0  0  0  0  0  0  0  0
   53.7436   10.4281   30.4013 O   0  0  0  0  0  0  0  0  0  0  0  0
   54.5754   10.3427   30.8241 H   0  0  0  0  0  0  0  0  0  0  0  0
   54.3027   15.0779   35.6847 C   0  0  0  0  0  0  0  0  0  0  0  0
   54.4871   13.6754   35.5503 O   0  0  0  0  0  0  0  0  0  0  0  0
 15 16  1  0
  1 16  1  0
  1  2  1  0
  2  3  2  0
  3  4  1  0
  4  5  1  0
  4 11  1  0
 11 12  2  0
 11 13  1  0
  4  6  1  0
  6  7  1  0
  7  8  1  0
  7  1  1  0
  5  9  1  0
 13 14  1  0
  8 10  1  0
M  END
> <minimizedAffinity>
-3.99754

> <CNNscore>
0.3262075186

> <CNNaffinity>
2.5103023052

> <CNN_VS>
0.8188794851

> <CNNaffinity_variance>
0.6755720973

$$$$



 16 16  0  0  0  0  0  0  0  0999 V2000
   51.6506   14.2015   28.1113 C   0  0  0  0  0  0  0  0  0  0  0  0
   51.5510   13.2294   26.9661 C   0  0  0  0  0  0  0  0  0  0  0  0
   51.1322   13.5641   25.7348 C   0  0  0  0  0  0  0  0  0  0  0  0
   50.6442   14.9408   25.3744 C   0  0  0  0  0  0  0  0  0  0  0  0
   51.6888   15.5697   24.6323 O   0  0  0  0  0  0  0  0  0  0  0  0
   50.3578   15.8046   26.6073 C   0  0  0  0  0  0  0  0  0  0  0  0
   51.4618   15.6747   27.6594 C   0  0  0  0  0  0  0  0  0  0  0  0
   51.0857   16.4884   28.7842 O   0  0  0  0  0  0  0  0  0  0  0  0
   51.8892   15.0407   23.8443 H   0  0  0  0  0  0  0  0  0  0  0  0
   50.2403   16.1747   29.1418 H   0  0  0  0  0  0  0  0  0  0  0  0
   49.3487   14.8080   24.5346 C   0  0  0  0  0  0  0  0  0  0  0  0
   48.3131   15.4429   24.6452 O   0  0  0  0  0  0  0  0  0  0  0  0
   49.4430   13.8153   23.6131 O   0  0  0  0  0  0  0  0  0  0  0  0
   50.2390   13.3281   23.5290 H   0  0  0  0  0  0  0  0  0  0  0  0
   53.3840   12.6319   28.5965 C   0  0  0  0  0  0  0  0  0  0  0  0
   52.9482   13.9815   28.6844 O   0  0  0  0  0  0  0  0  0  0  0  0
 15 16  1  0
  1 16  1  0
  1  2  1  0
  2  3  2  0
  3  4  1  0
  4  5  1  0
  4 11  1  0
 11 12  2  0
 11 13  1  0
  4  6  1  0
  6  7  1  0
  7  8  1  0
  7  1  1  0
  5  9  1  0
 13 14  1  0
  8 10  1  0
M  END
> <minimizedAffinity>
-3.89463

> <CNNscore>
0.3234930336

> <CNNaffinity>
2.8767721653

> <CNN_VS>
0.9306157827

> <CNNaffinity_variance>
0.3635369241

$$$$



 16 16  0  0  0  0  0  0  0  0999 V2000
   44.8647    5.1166   24.1365 C   0  0  0  0  0  0  0  0  0  0  0  0
   44.3480    6.4684   23.7217 C   0  0  0  0  0  0  0  0  0  0  0  0
   44.1118    7.4746   24.5793 C   0  0  0  0  0  0  0  0  0  0  0  0
   44.2696    7.3436   26.0697 C   0  0  0  0  0  0  0  0  0  0  0  0
   45.4809    8.0131   26.4186 O   0  0  0  0  0  0  0  0  0  0  0  0
   44.3919    5.8845   26.5219 C   0  0  0  0  0  0  0  0  0  0  0  0
   45.3335    5.0873   25.6163 C   0  0  0  0  0  0  0  0  0  0  0  0
   45.3528    3.7321   26.0978 O   0  0  0  0  0  0  0  0  0  0  0  0
   45.4285    8.9414   26.1420 H   0  0  0  0  0  0  0  0  0  0  0  0
   44.4565    3.3631   26.0608 H   0  0  0  0  0  0  0  0  0  0  0  0
   43.0421    7.9890   26.7609 C   0  0  0  0  0  0  0  0  0  0  0  0
   42.2234    7.4547   27.4904 O   0  0  0  0  0  0  0  0  0  0  0  0
   42.9071    9.2993   26.4315 O   0  0  0  0  0  0  0  0  0  0  0  0
   43.5366    9.7087   25.8711 H   0  0  0  0  0  0  0  0  0  0  0  0
   45.5317    4.7613   21.8710 C   0  0  0  0  0  0  0  0  0  0  0  0
   45.9397    4.8266   23.2305 O   0  0  0  0  0  0  0  0  0  0  0  0
 15 16  1  0
  1 16  1  0
  1  2  1  0
  2  3  2  0
  3  4  1  0
  4  5  1  0
  4 11  1  0
 11 12  2  0
 11 13  1  0
  4  6  1  0
  6  7  1  0
  7  8  1  0
  7  1  1  0
  5  9  1  0
 13 14  1  0
  8 10  1  0
M  END
> <minimizedAffinity>
-6.37293

> <CNNscore>
0.2999039292

> <CNNaffinity>
3.5758907795

> <CNN_VS>
1.0724236965

> <CNNaffinity_variance>
0.6487738490

$$$$
