


 20 21  0  0  0  0  0  0  0  0999 V2000
   31.0514  -12.0583    3.8506 N   0  0  0  0  0  0  0  0  0  0  0  0
   32.0414  -13.0077    3.6588 C   0  0  0  0  0  0  0  0  0  0  0  0
   33.2080  -12.8093    3.3489 O   0  0  0  0  0  0  0  0  0  0  0  0
   30.1584  -12.3901    4.0990 H   0  0  0  0  0  0  0  0  0  0  0  0
   31.6004  -14.3968    3.8593 C   0  0  0  0  0  0  0  0  0  0  0  0
   31.2573  -15.1879    2.7554 C   0  0  0  0  0  0  0  0  0  0  0  0
   31.3964  -14.6158    1.1324 Cl  0  0  0  0  0  0  0  0  0  0  0  0
   30.8041  -16.4932    2.9495 C   0  0  0  0  0  0  0  0  0  0  0  0
   30.6947  -16.9930    4.2416 C   0  0  0  0  0  0  0  0  0  0  0  0
   30.2624  -18.2463    4.4257 F   0  0  0  0  0  0  0  0  0  0  0  0
   31.0319  -16.2197    5.3459 C   0  0  0  0  0  0  0  0  0  0  0  0
   31.4855  -14.9140    5.1559 C   0  0  0  0  0  0  0  0  0  0  0  0
   31.9119  -13.9969    6.5552 Cl  0  0  0  0  0  0  0  0  0  0  0  0
   33.4108   -8.3749    2.1900 O   0  0  0  0  0  0  0  0  0  0  0  0
   32.4449   -8.7430    2.8485 C   0  0  0  0  0  0  0  0  0  0  0  0
   32.2270  -10.1972    3.0227 C   0  0  0  0  0  0  0  0  0  0  0  0
   31.1978  -10.6852    3.7261 C   0  0  0  0  0  0  0  0  0  0  0  0
   30.2115   -9.7659    4.3744 C   0  0  0  0  0  0  0  0  0  0  0  0
   30.5528   -8.3257    4.1173 C   0  0  0  0  0  0  0  0  0  0  0  0
   31.5556   -7.8824    3.4325 N   0  0  0  0  0  0  0  0  0  0  0  0
 14 15  2  0
 15 16  1  0
 16 17  2  0
 17  1  1  0
  1  2  1  0
  2  3  2  0
  2  5  1  0
  5  6  2  0
  6  7  1  0
  6  8  1  0
  8  9  2  0
  9 10  1  0
  9 11  1  0
 11 12  2  0
 12 13  1  0
 17 18  1  0
 18 19  1  0
 19 20  2  0
 20 15  1  0
 12  5  1  0
  1  4  1  0
M  END
> <minimizedAffinity>
-7.10928

> <CNNscore>
0.8013823628

> <CNNaffinity>
6.5205893517

> <CNN_VS>
5.2254853249

> <CNNaffinity_variance>
0.2955381572

$$$$



 20 21  0  0  0  0  0  0  0  0999 V2000
   32.5605  -12.5655    3.7760 N   0  0  0  0  0  0  0  0  0  0  0  0
   31.5839  -13.4709    3.3953 C   0  0  0  0  0  0  0  0  0  0  0  0
   31.3507  -13.8775    2.2654 O   0  0  0  0  0  0  0  0  0  0  0  0
   32.6135  -12.3443    4.7338 H   0  0  0  0  0  0  0  0  0  0  0  0
   30.7565  -13.9756    4.5019 C   0  0  0  0  0  0  0  0  0  0  0  0
   31.0235  -15.2335    5.0575 C   0  0  0  0  0  0  0  0  0  0  0  0
   32.3494  -16.2088    4.5364 Cl  0  0  0  0  0  0  0  0  0  0  0  0
   30.2150  -15.7267    6.0823 C   0  0  0  0  0  0  0  0  0  0  0  0
   29.1480  -14.9620    6.5384 C   0  0  0  0  0  0  0  0  0  0  0  0
   28.3754  -15.4356    7.5233 F   0  0  0  0  0  0  0  0  0  0  0  0
   28.8717  -13.7124    5.9969 C   0  0  0  0  0  0  0  0  0  0  0  0
   29.6778  -13.2158    4.9720 C   0  0  0  0  0  0  0  0  0  0  0  0
   29.3095  -11.6506    4.3430 Cl  0  0  0  0  0  0  0  0  0  0  0  0
   34.1317   -8.6885    1.6803 O   0  0  0  0  0  0  0  0  0  0  0  0
   34.2977   -9.8932    1.8321 C   0  0  0  0  0  0  0  0  0  0  0  0
   33.3617  -10.6250    2.7158 C   0  0  0  0  0  0  0  0  0  0  0  0
   33.4705  -11.9409    2.9369 C   0  0  0  0  0  0  0  0  0  0  0  0
   34.5594  -12.7367    2.2894 C   0  0  0  0  0  0  0  0  0  0  0  0
   35.4309  -11.8716    1.4241 C   0  0  0  0  0  0  0  0  0  0  0  0
   35.3020  -10.6002    1.2286 N   0  0  0  0  0  0  0  0  0  0  0  0
 14 15  2  0
 15 16  1  0
 16 17  2  0
 17  1  1  0
  1  2  1  0
  2  3  2  0
  2  5  1  0
  5  6  2  0
  6  7  1  0
  6  8  1  0
  8  9  2  0
  9 10  1  0
  9 11  1  0
 11 12  2  0
 12 13  1  0
 17 18  1  0
 18 19  1  0
 19 20  2  0
 20 15  1  0
 12  5  1  0
  1  4  1  0
M  END
> <minimizedAffinity>
-7.48120

> <CNNscore>
0.7198913097

> <CNNaffinity>
6.4924564362

> <CNN_VS>
4.6738629341

> <CNNaffinity_variance>
0.2075052261

$$$$



 20 21  0  0  0  0  0  0  0  0999 V2000
   32.5175  -12.6100    3.7095 N   0  0  0  0  0  0  0  0  0  0  0  0
   31.5861  -13.5559    3.3142 C   0  0  0  0  0  0  0  0  0  0  0  0
   31.4146  -14.0010    2.1877 O   0  0  0  0  0  0  0  0  0  0  0  0
   32.5222  -12.3607    4.6619 H   0  0  0  0  0  0  0  0  0  0  0  0
   30.7270  -14.0553    4.3989 C   0  0  0  0  0  0  0  0  0  0  0  0
   29.6195  -13.3056    4.8154 C   0  0  0  0  0  0  0  0  0  0  0  0
   29.1691  -11.8241    4.0515 Cl  0  0  0  0  0  0  0  0  0  0  0  0
   28.8270  -13.7626    5.8689 C   0  0  0  0  0  0  0  0  0  0  0  0
   29.1500  -14.9594    6.4971 C   0  0  0  0  0  0  0  0  0  0  0  0
   28.3870  -15.3976    7.5057 F   0  0  0  0  0  0  0  0  0  0  0  0
   30.2454  -15.7137    6.0942 C   0  0  0  0  0  0  0  0  0  0  0  0
   31.0403  -15.2600    5.0411 C   0  0  0  0  0  0  0  0  0  0  0  0
   32.3790  -16.2392    4.5614 Cl  0  0  0  0  0  0  0  0  0  0  0  0
   34.1833   -8.7072    1.7385 O   0  0  0  0  0  0  0  0  0  0  0  0
   34.3210   -9.9196    1.8531 C   0  0  0  0  0  0  0  0  0  0  0  0
   33.3660  -10.6566    2.7117 C   0  0  0  0  0  0  0  0  0  0  0  0
   33.4439  -11.9809    2.8920 C   0  0  0  0  0  0  0  0  0  0  0  0
   34.5159  -12.7811    2.2222 C   0  0  0  0  0  0  0  0  0  0  0  0
   35.4094  -11.9099    1.3859 C   0  0  0  0  0  0  0  0  0  0  0  0
   35.3104  -10.6305    1.2298 N   0  0  0  0  0  0  0  0  0  0  0  0
 14 15  2  0
 15 16  1  0
 16 17  2  0
 17  1  1  0
  1  2  1  0
  2  3  2  0
  2  5  1  0
  5  6  2  0
  6  7  1  0
  6  8  1  0
  8  9  2  0
  9 10  1  0
  9 11  1  0
 11 12  2  0
 12 13  1  0
 17 18  1  0
 18 19  1  0
 19 20  2  0
 20 15  1  0
 12  5  1  0
  1  4  1  0
M  END
> <minimizedAffinity>
-7.52684

> <CNNscore>
0.7047942281

> <CNNaffinity>
6.4965305328

> <CNN_VS>
4.5787172318

> <CNNaffinity_variance>
0.2099098712

$$$$



 20 21  0  0  0  0  0  0  0  0999 V2000
   31.2743  -12.3405    3.9475 N   0  0  0  0  0  0  0  0  0  0  0  0
   30.1924  -13.1654    3.6879 C   0  0  0  0  0  0  0  0  0  0  0  0
   29.0650  -12.8261    3.3555 O   0  0  0  0  0  0  0  0  0  0  0  0
   32.1169  -12.7793    4.2057 H   0  0  0  0  0  0  0  0  0  0  0  0
   30.4711  -14.6018    3.8403 C   0  0  0  0  0  0  0  0  0  0  0  0
   30.3336  -15.2118    5.0938 C   0  0  0  0  0  0  0  0  0  0  0  0
   29.7751  -14.3504    6.4818 Cl  0  0  0  0  0  0  0  0  0  0  0  0
   30.6338  -16.5661    5.2445 C   0  0  0  0  0  0  0  0  0  0  0  0
   31.0709  -17.2952    4.1451 C   0  0  0  0  0  0  0  0  0  0  0  0
   31.3556  -18.5948    4.2911 F   0  0  0  0  0  0  0  0  0  0  0  0
   31.2113  -16.7032    2.8957 C   0  0  0  0  0  0  0  0  0  0  0  0
   30.9123  -15.3492    2.7409 C   0  0  0  0  0  0  0  0  0  0  0  0
   31.0822  -14.6608    1.1667 Cl  0  0  0  0  0  0  0  0  0  0  0  0
   33.0755   -8.3888    2.2064 O   0  0  0  0  0  0  0  0  0  0  0  0
   32.2365   -8.8717    2.9580 C   0  0  0  0  0  0  0  0  0  0  0  0
   32.1695  -10.3458    3.0808 C   0  0  0  0  0  0  0  0  0  0  0  0
   31.2840  -10.9558    3.8784 C   0  0  0  0  0  0  0  0  0  0  0  0
   30.3117  -10.1595    4.6900 C   0  0  0  0  0  0  0  0  0  0  0  0
   30.4913   -8.6844    4.4691 C   0  0  0  0  0  0  0  0  0  0  0  0
   31.3570   -8.1221    3.6909 N   0  0  0  0  0  0  0  0  0  0  0  0
 14 15  2  0
 15 16  1  0
 16 17  2  0
 17  1  1  0
  1  2  1  0
  2  3  2  0
  2  5  1  0
  5  6  2  0
  6  7  1  0
  6  8  1  0
  8  9  2  0
  9 10  1  0
  9 11  1  0
 11 12  2  0
 12 13  1  0
 17 18  1  0
 18 19  1  0
 19 20  2  0
 20 15  1  0
 12  5  1  0
  1  4  1  0
M  END
> <minimizedAffinity>
-7.01876

> <CNNscore>
0.5128226876

> <CNNaffinity>
6.2397332191

> <CNN_VS>
3.1998767853

> <CNNaffinity_variance>
0.2494284660

$$$$



 20 21  0  0  0  0  0  0  0  0999 V2000
   31.2205  -12.9450    3.6956 N   0  0  0  0  0  0  0  0  0  0  0  0
   31.9315  -11.7692    3.8697 C   0  0  0  0  0  0  0  0  0  0  0  0
   31.6894  -10.8671    4.6596 O   0  0  0  0  0  0  0  0  0  0  0  0
   31.5533  -13.5694    3.0111 H   0  0  0  0  0  0  0  0  0  0  0  0
   33.1004  -11.6279    2.9877 C   0  0  0  0  0  0  0  0  0  0  0  0
   33.9056  -12.7400    2.7100 C   0  0  0  0  0  0  0  0  0  0  0  0
   33.5413  -14.3157    3.3143 Cl  0  0  0  0  0  0  0  0  0  0  0  0
   35.0348  -12.5965    1.9030 C   0  0  0  0  0  0  0  0  0  0  0  0
   35.3500  -11.3458    1.3857 C   0  0  0  0  0  0  0  0  0  0  0  0
   36.4320  -11.2108    0.6095 F   0  0  0  0  0  0  0  0  0  0  0  0
   34.5601  -10.2341    1.6525 C   0  0  0  0  0  0  0  0  0  0  0  0
   33.4301  -10.3734    2.4590 C   0  0  0  0  0  0  0  0  0  0  0  0
   32.4673   -8.9696    2.7475 Cl  0  0  0  0  0  0  0  0  0  0  0  0
   29.2095  -15.4771    7.0774 O   0  0  0  0  0  0  0  0  0  0  0  0
   29.0260  -14.6641    6.1788 C   0  0  0  0  0  0  0  0  0  0  0  0
   30.1957  -14.2118    5.3917 C   0  0  0  0  0  0  0  0  0  0  0  0
   30.0848  -13.3267    4.3933 C   0  0  0  0  0  0  0  0  0  0  0  0
   28.7534  -12.7507    4.0277 C   0  0  0  0  0  0  0  0  0  0  0  0
   27.6609  -13.2949    4.9036 C   0  0  0  0  0  0  0  0  0  0  0  0
   27.7974  -14.1510    5.8626 N   0  0  0  0  0  0  0  0  0  0  0  0
 14 15  2  0
 15 16  1  0
 16 17  2  0
 17  1  1  0
  1  2  1  0
  2  3  2  0
  2  5  1  0
  5  6  2  0
  6  7  1  0
  6  8  1  0
  8  9  2  0
  9 10  1  0
  9 11  1  0
 11 12  2  0
 12 13  1  0
 17 18  1  0
 18 19  1  0
 19 20  2  0
 20 15  1  0
 12  5  1  0
  1  4  1  0
M  END
> <minimizedAffinity>
-7.55644

> <CNNscore>
0.3786668479

> <CNNaffinity>
5.7954258919

> <CNN_VS>
2.1945357323

> <CNNaffinity_variance>
0.1061152443

$$$$



 20 21  0  0  0  0  0  0  0  0999 V2000
   31.4063  -13.9825    3.5368 N   0  0  0  0  0  0  0  0  0  0  0  0
   32.0142  -13.0564    4.3682 C   0  0  0  0  0  0  0  0  0  0  0  0
   32.1190  -13.1104    5.5858 O   0  0  0  0  0  0  0  0  0  0  0  0
   31.4095  -13.7847    2.5724 H   0  0  0  0  0  0  0  0  0  0  0  0
   32.5844  -11.8935    3.6708 C   0  0  0  0  0  0  0  0  0  0  0  0
   31.9282  -10.6569    3.7209 C   0  0  0  0  0  0  0  0  0  0  0  0
   30.4863  -10.4151    4.6393 Cl  0  0  0  0  0  0  0  0  0  0  0  0
   32.4507   -9.5640    3.0285 C   0  0  0  0  0  0  0  0  0  0  0  0
   33.6189   -9.7175    2.2915 C   0  0  0  0  0  0  0  0  0  0  0  0
   34.1201   -8.6673    1.6304 F   0  0  0  0  0  0  0  0  0  0  0  0
   34.2807  -10.9381    2.2333 C   0  0  0  0  0  0  0  0  0  0  0  0
   33.7613  -12.0334    2.9242 C   0  0  0  0  0  0  0  0  0  0  0  0
   34.6273  -13.5246    2.8396 Cl  0  0  0  0  0  0  0  0  0  0  0  0
   27.6772  -16.2254    5.2559 O   0  0  0  0  0  0  0  0  0  0  0  0
   28.8243  -16.3428    4.8405 C   0  0  0  0  0  0  0  0  0  0  0  0
   29.5396  -15.1235    4.3999 C   0  0  0  0  0  0  0  0  0  0  0  0
   30.7938  -15.1616    3.9331 C   0  0  0  0  0  0  0  0  0  0  0  0
   31.5339  -16.4582    3.8367 C   0  0  0  0  0  0  0  0  0  0  0  0
   30.6924  -17.6070    4.3150 C   0  0  0  0  0  0  0  0  0  0  0  0
   29.4811  -17.5407    4.7617 N   0  0  0  0  0  0  0  0  0  0  0  0
 14 15  2  0
 15 16  1  0
 16 17  2  0
 17  1  1  0
  1  2  1  0
  2  3  2  0
  2  5  1  0
  5  6  2  0
  6  7  1  0
  6  8  1  0
  8  9  2  0
  9 10  1  0
  9 11  1  0
 11 12  2  0
 12 13  1  0
 17 18  1  0
 18 19  1  0
 19 20  2  0
 20 15  1  0
 12  5  1  0
  1  4  1  0
M  END
> <minimizedAffinity>
-7.76193

> <CNNscore>
0.3444918692

> <CNNaffinity>
5.7967357635

> <CNN_VS>
1.9969283342

> <CNNaffinity_variance>
0.0413220190

$$$$



 20 21  0  0  0  0  0  0  0  0999 V2000
   30.9185  -10.6313    3.6809 N   0  0  0  0  0  0  0  0  0  0  0  0
   32.0398  -11.3263    4.1028 C   0  0  0  0  0  0  0  0  0  0  0  0
   32.1995  -11.8949    5.1740 O   0  0  0  0  0  0  0  0  0  0  0  0
   30.9551  -10.2302    2.7826 H   0  0  0  0  0  0  0  0  0  0  0  0
   33.1385  -11.3610    3.1252 C   0  0  0  0  0  0  0  0  0  0  0  0
   33.7401  -12.5814    2.7920 C   0  0  0  0  0  0  0  0  0  0  0  0
   33.1936  -14.0856    3.4398 Cl  0  0  0  0  0  0  0  0  0  0  0  0
   34.8064  -12.6082    1.8925 C   0  0  0  0  0  0  0  0  0  0  0  0
   35.2627  -11.4181    1.3387 C   0  0  0  0  0  0  0  0  0  0  0  0
   36.2838  -11.4462    0.4738 F   0  0  0  0  0  0  0  0  0  0  0  0
   34.6752  -10.2003    1.6596 C   0  0  0  0  0  0  0  0  0  0  0  0
   33.6088  -10.1693    2.5588 C   0  0  0  0  0  0  0  0  0  0  0  0
   32.8970   -8.6367    2.9128 Cl  0  0  0  0  0  0  0  0  0  0  0  0
   26.7474  -12.2066    5.0995 O   0  0  0  0  0  0  0  0  0  0  0  0
   27.5484  -11.2804    5.1502 C   0  0  0  0  0  0  0  0  0  0  0  0
   28.8196  -11.4099    4.4020 C   0  0  0  0  0  0  0  0  0  0  0  0
   29.7494  -10.4466    4.4030 C   0  0  0  0  0  0  0  0  0  0  0  0
   29.5372   -9.1811    5.1722 C   0  0  0  0  0  0  0  0  0  0  0  0
   28.2122   -9.1849    5.8800 C   0  0  0  0  0  0  0  0  0  0  0  0
   27.3319  -10.1314    5.8612 N   0  0  0  0  0  0  0  0  0  0  0  0
 14 15  2  0
 15 16  1  0
 16 17  2  0
 17  1  1  0
  1  2  1  0
  2  3  2  0
  2  5  1  0
  5  6  2  0
  6  7  1  0
  6  8  1  0
  8  9  2  0
  9 10  1  0
  9 11  1  0
 11 12  2  0
 12 13  1  0
 17 18  1  0
 18 19  1  0
 19 20  2  0
 20 15  1  0
 12  5  1  0
  1  4  1  0
M  END
> <minimizedAffinity>
-8.12821

> <CNNscore>
0.2992348373

> <CNNaffinity>
5.2348709106

> <CNN_VS>
1.5664557219

> <CNNaffinity_variance>
0.4473237991

$$$$



 20 21  0  0  0  0  0  0  0  0999 V2000
   30.8903  -10.8136    3.6833 N   0  0  0  0  0  0  0  0  0  0  0  0
   32.0347  -11.4160    4.1792 C   0  0  0  0  0  0  0  0  0  0  0  0
   32.2034  -11.8761    5.3000 O   0  0  0  0  0  0  0  0  0  0  0  0
   30.9224  -10.4955    2.7521 H   0  0  0  0  0  0  0  0  0  0  0  0
   33.1479  -11.4912    3.2204 C   0  0  0  0  0  0  0  0  0  0  0  0
   33.6373  -10.3221    2.6239 C   0  0  0  0  0  0  0  0  0  0  0  0
   33.0251   -8.7578    3.0226 Cl  0  0  0  0  0  0  0  0  0  0  0  0
   34.6686  -10.3988    1.6871 C   0  0  0  0  0  0  0  0  0  0  0  0
   35.1971  -11.6401    1.3534 C   0  0  0  0  0  0  0  0  0  0  0  0
   36.1882  -11.7114    0.4567 F   0  0  0  0  0  0  0  0  0  0  0  0
   34.7217  -12.8079    1.9376 C   0  0  0  0  0  0  0  0  0  0  0  0
   33.6905  -12.7354    2.8747 C   0  0  0  0  0  0  0  0  0  0  0  0
   33.1452  -14.2095    3.5892 Cl  0  0  0  0  0  0  0  0  0  0  0  0
   26.7340  -12.4071    5.1244 O   0  0  0  0  0  0  0  0  0  0  0  0
   27.5108  -11.4592    5.1322 C   0  0  0  0  0  0  0  0  0  0  0  0
   28.7984  -11.6009    4.4149 C   0  0  0  0  0  0  0  0  0  0  0  0
   29.7040  -10.6158    4.3729 C   0  0  0  0  0  0  0  0  0  0  0  0
   29.4465   -9.3120    5.0600 C   0  0  0  0  0  0  0  0  0  0  0  0
   28.1092   -9.3071    5.7444 C   0  0  0  0  0  0  0  0  0  0  0  0
   27.2530  -10.2754    5.7684 N   0  0  0  0  0  0  0  0  0  0  0  0
 14 15  2  0
 15 16  1  0
 16 17  2  0
 17  1  1  0
  1  2  1  0
  2  3  2  0
  2  5  1  0
  5  6  2  0
  6  7  1  0
  6  8  1  0
  8  9  2  0
  9 10  1  0
  9 11  1  0
 11 12  2  0
 12 13  1  0
 17 18  1  0
 18 19  1  0
 19 20  2  0
 20 15  1  0
 12  5  1  0
  1  4  1  0
M  END
> <minimizedAffinity>
-7.73206

> <CNNscore>
0.2753635645

> <CNNaffinity>
5.0926795006

> <CNN_VS>
1.4023383856

> <CNNaffinity_variance>
0.5130973458

$$$$



 20 21  0  0  0  0  0  0  0  0999 V2000
   30.6046  -14.2975    3.7944 N   0  0  0  0  0  0  0  0  0  0  0  0
   31.6237  -13.7133    4.5284 C   0  0  0  0  0  0  0  0  0  0  0  0
   31.7858  -13.7619    5.7399 O   0  0  0  0  0  0  0  0  0  0  0  0
   30.6223  -14.1595    2.8198 H   0  0  0  0  0  0  0  0  0  0  0  0
   32.5984  -12.9596    3.7248 C   0  0  0  0  0  0  0  0  0  0  0  0
   33.6159  -13.6384    3.0419 C   0  0  0  0  0  0  0  0  0  0  0  0
   33.7391  -15.3605    3.0464 Cl  0  0  0  0  0  0  0  0  0  0  0  0
   34.5615  -12.9194    2.3100 C   0  0  0  0  0  0  0  0  0  0  0  0
   34.4840  -11.5324    2.2706 C   0  0  0  0  0  0  0  0  0  0  0  0
   35.3904  -10.8446    1.5658 F   0  0  0  0  0  0  0  0  0  0  0  0
   33.4800  -10.8459    2.9427 C   0  0  0  0  0  0  0  0  0  0  0  0
   32.5325  -11.5613    3.6757 C   0  0  0  0  0  0  0  0  0  0  0  0
   31.2917  -10.6684    4.4783 Cl  0  0  0  0  0  0  0  0  0  0  0  0
   28.7762  -18.4786    4.8275 O   0  0  0  0  0  0  0  0  0  0  0  0
   28.5993  -17.2660    4.8455 C   0  0  0  0  0  0  0  0  0  0  0  0
   29.6726  -16.3921    4.3192 C   0  0  0  0  0  0  0  0  0  0  0  0
   29.5620  -15.0580    4.3012 C   0  0  0  0  0  0  0  0  0  0  0  0
   28.3299  -14.3868    4.8203 C   0  0  0  0  0  0  0  0  0  0  0  0
   27.3287  -15.3888    5.3207 C   0  0  0  0  0  0  0  0  0  0  0  0
   27.4626  -16.6745    5.3258 N   0  0  0  0  0  0  0  0  0  0  0  0
 14 15  2  0
 15 16  1  0
 16 17  2  0
 17  1  1  0
  1  2  1  0
  2  3  2  0
  2  5  1  0
  5  6  2  0
  6  7  1  0
  6  8  1  0
  8  9  2  0
  9 10  1  0
  9 11  1  0
 11 12  2  0
 12 13  1  0
 17 18  1  0
 18 19  1  0
 19 20  2  0
 20 15  1  0
 12  5  1  0
  1  4  1  0
M  END
> <minimizedAffinity>
-7.90634

> <CNNscore>
0.2266684026

> <CNNaffinity>
5.0424852371

> <CNN_VS>
1.1429721117

> <CNNaffinity_variance>
0.3144881427

$$$$
