


 40 43  0  0  0  0  0  0  0  0999 V2000
   -1.4725   -8.2511   41.0938 C   0  0  0  0  0  0  0  0  0  0  0  0
   -0.8759   -9.3445   41.7166 C   0  0  0  0  0  0  0  0  0  0  0  0
   -0.0796  -10.2447   40.9947 C   0  0  0  0  0  0  0  0  0  0  0  0
    0.1073  -10.0195   39.6205 C   0  0  0  0  0  0  0  0  0  0  0  0
   -0.4816   -8.9326   38.9768 C   0  0  0  0  0  0  0  0  0  0  0  0
   -1.2782   -8.0421   39.7230 C   0  0  0  0  0  0  0  0  0  0  0  0
   -0.1018   -8.9987   37.6146 C   0  0  0  0  0  0  0  0  0  0  0  0
    0.7088  -10.1059   37.4340 C   0  0  0  0  0  0  0  0  0  0  0  0
    0.8222  -10.7272   38.6638 N   0  0  0  0  0  0  0  0  0  0  0  0
   -3.0413   -6.4786   40.8520 C   0  0  0  0  0  0  0  0  0  0  0  0
   -2.2657   -7.3143   41.7010 O   0  0  0  0  0  0  0  0  0  0  0  0
    1.3503  -10.5631   36.1664 C   0  0  0  0  0  0  0  0  0  0  0  0
    0.7133  -11.8263   35.8076 N   0  0  0  0  0  0  0  0  0  0  0  0
   -0.2965  -11.6915   35.8572 H   0  0  0  0  0  0  0  0  0  0  0  0
    1.0767  -12.4278   34.2830 S   0  0  0  0  0  0  0  0  0  0  0  0
   -0.1153  -12.3598   33.4680 O   0  0  0  0  0  0  0  0  0  0  0  0
    2.3149  -11.8008   33.8755 O   0  0  0  0  0  0  0  0  0  0  0  0
    1.4577  -14.1661   34.4479 C   0  0  0  0  0  0  0  0  0  0  0  0
    2.6060  -14.8045   34.9048 C   0  0  0  0  0  0  0  0  0  0  0  0
    2.3844  -16.2016   34.8393 C   0  0  0  0  0  0  0  0  0  0  0  0
    3.1260  -17.3551   35.1471 C   0  0  0  0  0  0  0  0  0  0  0  0
    2.5352  -18.6093   34.9355 C   0  0  0  0  0  0  0  0  0  0  0  0
    1.2369  -18.7180   34.4296 C   0  0  0  0  0  0  0  0  0  0  0  0
    0.4847  -17.5805   34.1186 C   0  0  0  0  0  0  0  0  0  0  0  0
    1.0995  -16.3507   34.3403 C   0  0  0  0  0  0  0  0  0  0  0  0
    0.5378  -15.1375   34.1048 O   0  0  0  0  0  0  0  0  0  0  0  0
    1.5711  -11.9466   38.9650 C   0  0  0  0  0  0  0  0  0  0  0  0
    3.0542  -11.8136   38.5965 C   0  0  0  0  0  0  0  0  0  0  0  0
    3.8430  -13.1470   38.4229 C   0  0  0  0  0  0  0  0  0  0  0  0
    4.8138  -13.2900   39.6277 C   0  0  0  0  0  0  0  0  0  0  0  0
    2.8402  -14.3090   38.5380 C   0  0  0  0  0  0  0  0  0  0  0  0
    4.7222  -13.2208   37.1276 C   0  0  0  0  0  0  0  0  0  0  0  0
    5.9344  -14.2187   36.9406 C   0  0  0  0  0  0  0  0  0  0  0  0
    7.0912  -13.9041   37.8851 C   0  0  0  0  0  0  0  0  0  0  0  0
    5.3779  -15.6115   37.3477 C   0  0  0  0  0  0  0  0  0  0  0  0
    6.3386  -14.2572   35.4256 C   0  0  0  0  0  0  0  0  0  0  0  0
    6.8303  -13.0127   34.6169 C   0  0  0  0  0  0  0  0  0  0  0  0
    8.1987  -12.4831   35.0601 C   0  0  0  0  0  0  0  0  0  0  0  0
    5.8047  -11.8641   34.6343 C   0  0  0  0  0  0  0  0  0  0  0  0
    6.9678  -13.4672   33.1404 C   0  0  0  0  0  0  0  0  0  0  0  0
 10 11  1  0
 11  1  1  0
  1  2  2  0
  2  3  1  0
  3  4  2  0
  4  5  1  0
  5  6  2  0
  5  7  1  0
  7  8  2  0
  8 12  1  0
 12 13  1  0
 13 15  1  0
 15 16  2  0
 15 17  2  0
 15 18  1  0
 18 19  2  0
 19 20  1  0
 20 21  2  0
 21 22  1  0
 22 23  2  0
 23 24  1  0
 24 25  2  0
 25 26  1  0
  8  9  1  0
  9 27  1  0
 27 28  1  0
 28 29  1  0
 29 30  1  0
 29 31  1  0
 29 32  1  0
 32 33  1  0
 33 34  1  0
 33 35  1  0
 33 36  1  0
 36 37  1  0
 37 38  1  0
 37 39  1  0
 37 40  1  0
  6  1  1  0
 26 18  1  0
  9  4  1  0
 25 20  1  0
 13 14  1  0
M  END
> <minimizedAffinity>
-7.47750

> <CNNscore>
0.5347759128

> <CNNaffinity>
6.4297890663

> <CNN_VS>
3.4384963512

> <CNNaffinity_variance>
1.0256079435

$$$$



 40 43  0  0  0  0  0  0  0  0999 V2000
   -1.0287   -8.8472   40.8262 C   0  0  0  0  0  0  0  0  0  0  0  0
   -0.3148  -10.0230   41.0432 C   0  0  0  0  0  0  0  0  0  0  0  0
    0.4454  -10.6088   40.0211 C   0  0  0  0  0  0  0  0  0  0  0  0
    0.4742   -9.9807   38.7647 C   0  0  0  0  0  0  0  0  0  0  0  0
   -0.2340   -8.8044   38.5252 C   0  0  0  0  0  0  0  0  0  0  0  0
   -0.9914   -8.2350   39.5676 C   0  0  0  0  0  0  0  0  0  0  0  0
    0.0024   -8.4422   37.1772 C   0  0  0  0  0  0  0  0  0  0  0  0
    0.8445   -9.3812   36.6074 C   0  0  0  0  0  0  0  0  0  0  0  0
    1.1188  -10.3213   37.5833 N   0  0  0  0  0  0  0  0  0  0  0  0
   -2.5252   -7.0580   41.2957 C   0  0  0  0  0  0  0  0  0  0  0  0
   -1.7997   -8.1931   41.7498 O   0  0  0  0  0  0  0  0  0  0  0  0
    1.3708   -9.3986   35.2109 C   0  0  0  0  0  0  0  0  0  0  0  0
    0.4681  -10.2429   34.4347 N   0  0  0  0  0  0  0  0  0  0  0  0
   -0.0876   -9.6349   33.8331 H   0  0  0  0  0  0  0  0  0  0  0  0
    1.1966  -11.4009   33.4617 S   0  0  0  0  0  0  0  0  0  0  0  0
    2.5329  -11.6410   33.9583 O   0  0  0  0  0  0  0  0  0  0  0  0
    0.2377  -12.4727   33.3060 O   0  0  0  0  0  0  0  0  0  0  0  0
    1.3998  -10.7056   31.8279 C   0  0  0  0  0  0  0  0  0  0  0  0
    1.7323   -9.4165   31.4247 C   0  0  0  0  0  0  0  0  0  0  0  0
    1.7699   -9.3977   30.0093 C   0  0  0  0  0  0  0  0  0  0  0  0
    2.0359   -8.4344   29.0210 C   0  0  0  0  0  0  0  0  0  0  0  0
    1.9706   -8.8191   27.6739 C   0  0  0  0  0  0  0  0  0  0  0  0
    1.6485  -10.1306   27.3138 C   0  0  0  0  0  0  0  0  0  0  0  0
    1.3816  -11.1018   28.2844 C   0  0  0  0  0  0  0  0  0  0  0  0
    1.4549  -10.6882   29.6123 C   0  0  0  0  0  0  0  0  0  0  0  0
    1.2334  -11.4772   30.6945 O   0  0  0  0  0  0  0  0  0  0  0  0
    1.9565  -11.5119   37.4439 C   0  0  0  0  0  0  0  0  0  0  0  0
    1.1371  -12.7447   37.0414 C   0  0  0  0  0  0  0  0  0  0  0  0
    1.8427  -14.1248   37.2077 C   0  0  0  0  0  0  0  0  0  0  0  0
    2.5200  -14.1516   38.6059 C   0  0  0  0  0  0  0  0  0  0  0  0
    0.7544  -15.2130   37.2360 C   0  0  0  0  0  0  0  0  0  0  0  0
    2.9704  -14.4115   36.1578 C   0  0  0  0  0  0  0  0  0  0  0  0
    4.4867  -14.6517   36.5361 C   0  0  0  0  0  0  0  0  0  0  0  0
    5.1287  -13.4148   37.1583 C   0  0  0  0  0  0  0  0  0  0  0  0
    4.4603  -15.7532   37.6323 C   0  0  0  0  0  0  0  0  0  0  0  0
    5.2478  -15.2040   35.2807 C   0  0  0  0  0  0  0  0  0  0  0  0
    5.1517  -16.6807   34.7760 C   0  0  0  0  0  0  0  0  0  0  0  0
    3.7250  -17.1353   34.4488 C   0  0  0  0  0  0  0  0  0  0  0  0
    5.7951  -17.6757   35.7596 C   0  0  0  0  0  0  0  0  0  0  0  0
    5.9725  -16.7564   33.4623 C   0  0  0  0  0  0  0  0  0  0  0  0
 10 11  1  0
 11  1  1  0
  1  2  2  0
  2  3  1  0
  3  4  2  0
  4  5  1  0
  5  6  2  0
  5  7  1  0
  7  8  2  0
  8 12  1  0
 12 13  1  0
 13 15  1  0
 15 16  2  0
 15 17  2  0
 15 18  1  0
 18 19  2  0
 19 20  1  0
 20 21  2  0
 21 22  1  0
 22 23  2  0
 23 24  1  0
 24 25  2  0
 25 26  1  0
  8  9  1  0
  9 27  1  0
 27 28  1  0
 28 29  1  0
 29 30  1  0
 29 31  1  0
 29 32  1  0
 32 33  1  0
 33 34  1  0
 33 35  1  0
 33 36  1  0
 36 37  1  0
 37 38  1  0
 37 39  1  0
 37 40  1  0
  6  1  1  0
 26 18  1  0
  9  4  1  0
 25 20  1  0
 13 14  1  0
M  END
> <minimizedAffinity>
-9.44759

> <CNNscore>
0.4409308434

> <CNNaffinity>
6.8759388924

> <CNN_VS>
3.0318136215

> <CNNaffinity_variance>
1.3389739990

$$$$



 40 43  0  0  0  0  0  0  0  0999 V2000
   -1.3429   -8.3356   41.0962 C   0  0  0  0  0  0  0  0  0  0  0  0
   -0.6668   -9.4334   41.6224 C   0  0  0  0  0  0  0  0  0  0  0  0
    0.0058  -10.3383   40.7889 C   0  0  0  0  0  0  0  0  0  0  0  0
   -0.0145  -10.1130   39.4023 C   0  0  0  0  0  0  0  0  0  0  0  0
   -0.6862   -9.0217   38.8544 C   0  0  0  0  0  0  0  0  0  0  0  0
   -1.3555   -8.1266   39.7118 C   0  0  0  0  0  0  0  0  0  0  0  0
   -0.5160   -9.0890   37.4505 C   0  0  0  0  0  0  0  0  0  0  0  0
    0.2507  -10.2014   37.1502 C   0  0  0  0  0  0  0  0  0  0  0  0
    0.5436  -10.8246   38.3490 N   0  0  0  0  0  0  0  0  0  0  0  0
   -2.9105   -6.5456   41.0915 C   0  0  0  0  0  0  0  0  0  0  0  0
   -2.0294   -7.3941   41.8158 O   0  0  0  0  0  0  0  0  0  0  0  0
    0.6913  -10.6617   35.8006 C   0  0  0  0  0  0  0  0  0  0  0  0
    1.7045   -9.7145   35.3461 N   0  0  0  0  0  0  0  0  0  0  0  0
    2.4268  -10.2418   34.8557 H   0  0  0  0  0  0  0  0  0  0  0  0
    1.1692   -8.4994   34.3190 S   0  0  0  0  0  0  0  0  0  0  0  0
   -0.2673   -8.3950   34.4431 O   0  0  0  0  0  0  0  0  0  0  0  0
    2.0371   -7.3626   34.5356 O   0  0  0  0  0  0  0  0  0  0  0  0
    1.4782   -9.0178   32.6368 C   0  0  0  0  0  0  0  0  0  0  0  0
    0.9695  -10.0884   31.9087 C   0  0  0  0  0  0  0  0  0  0  0  0
    1.5349  -10.0421   30.6113 C   0  0  0  0  0  0  0  0  0  0  0  0
    1.4327  -10.8113   29.4394 C   0  0  0  0  0  0  0  0  0  0  0  0
    2.1809  -10.4274   28.3171 C   0  0  0  0  0  0  0  0  0  0  0  0
    3.0128   -9.3050   28.3552 C   0  0  0  0  0  0  0  0  0  0  0  0
    3.1258   -8.5281   29.5129 C   0  0  0  0  0  0  0  0  0  0  0  0
    2.3700   -8.9354   30.6094 C   0  0  0  0  0  0  0  0  0  0  0  0
    2.3406   -8.3164   31.8172 O   0  0  0  0  0  0  0  0  0  0  0  0
    1.3211  -12.0493   38.5343 C   0  0  0  0  0  0  0  0  0  0  0  0
    2.2583  -12.3173   37.3498 C   0  0  0  0  0  0  0  0  0  0  0  0
    3.2162  -13.5390   37.4924 C   0  0  0  0  0  0  0  0  0  0  0  0
    4.6726  -13.0014   37.5556 C   0  0  0  0  0  0  0  0  0  0  0  0
    2.9418  -14.1996   38.8553 C   0  0  0  0  0  0  0  0  0  0  0  0
    3.1637  -14.5518   36.2975 C   0  0  0  0  0  0  0  0  0  0  0  0
    4.3803  -15.4615   35.8588 C   0  0  0  0  0  0  0  0  0  0  0  0
    5.5694  -14.6383   35.3712 C   0  0  0  0  0  0  0  0  0  0  0  0
    4.8296  -16.1891   37.1566 C   0  0  0  0  0  0  0  0  0  0  0  0
    3.8765  -16.5300   34.8270 C   0  0  0  0  0  0  0  0  0  0  0  0
    4.8159  -17.5021   34.0414 C   0  0  0  0  0  0  0  0  0  0  0  0
    6.0430  -16.8204   33.4259 C   0  0  0  0  0  0  0  0  0  0  0  0
    4.0625  -18.2859   32.9507 C   0  0  0  0  0  0  0  0  0  0  0  0
    5.3332  -18.5457   35.0654 C   0  0  0  0  0  0  0  0  0  0  0  0
 10 11  1  0
 11  1  1  0
  1  2  2  0
  2  3  1  0
  3  4  2  0
  4  5  1  0
  5  6  2  0
  5  7  1  0
  7  8  2  0
  8 12  1  0
 12 13  1  0
 13 15  1  0
 15 16  2  0
 15 17  2  0
 15 18  1  0
 18 19  2  0
 19 20  1  0
 20 21  2  0
 21 22  1  0
 22 23  2  0
 23 24  1  0
 24 25  2  0
 25 26  1  0
  8  9  1  0
  9 27  1  0
 27 28  1  0
 28 29  1  0
 29 30  1  0
 29 31  1  0
 29 32  1  0
 32 33  1  0
 33 34  1  0
 33 35  1  0
 33 36  1  0
 36 37  1  0
 37 38  1  0
 37 39  1  0
 37 40  1  0
  6  1  1  0
 26 18  1  0
  9  4  1  0
 25 20  1  0
 13 14  1  0
M  END
> <minimizedAffinity>
-9.44303

> <CNNscore>
0.3490630686

> <CNNaffinity>
6.8728766441

> <CNN_VS>
2.3990674019

> <CNNaffinity_variance>
1.1986486912

$$$$



 40 43  0  0  0  0  0  0  0  0999 V2000
   -0.9834   -8.7307   40.8226 C   0  0  0  0  0  0  0  0  0  0  0  0
   -0.5575  -10.0386   41.0398 C   0  0  0  0  0  0  0  0  0  0  0  0
    0.1345  -10.7498   40.0493 C   0  0  0  0  0  0  0  0  0  0  0  0
    0.3931  -10.1115   38.8247 C   0  0  0  0  0  0  0  0  0  0  0  0
   -0.0254   -8.8039   38.5854 C   0  0  0  0  0  0  0  0  0  0  0  0
   -0.7197   -8.1097   39.5957 C   0  0  0  0  0  0  0  0  0  0  0  0
    0.3853   -8.4679   37.2729 C   0  0  0  0  0  0  0  0  0  0  0  0
    1.0468   -9.5529   36.7244 C   0  0  0  0  0  0  0  0  0  0  0  0
    1.0375  -10.5543   37.6775 N   0  0  0  0  0  0  0  0  0  0  0  0
   -2.5552   -6.9802   41.1786 C   0  0  0  0  0  0  0  0  0  0  0  0
   -1.6638   -7.9480   41.7169 O   0  0  0  0  0  0  0  0  0  0  0  0
    1.6617   -9.6492   35.3680 C   0  0  0  0  0  0  0  0  0  0  0  0
    0.6590  -10.2536   34.4965 N   0  0  0  0  0  0  0  0  0  0  0  0
    0.2476   -9.5104   33.9319 H   0  0  0  0  0  0  0  0  0  0  0  0
    1.2129  -11.4453   33.4518 S   0  0  0  0  0  0  0  0  0  0  0  0
    2.5327  -11.8516   33.8795 O   0  0  0  0  0  0  0  0  0  0  0  0
    0.1342  -12.3972   33.3013 O   0  0  0  0  0  0  0  0  0  0  0  0
    1.4267  -10.7119   31.8361 C   0  0  0  0  0  0  0  0  0  0  0  0
    1.8250   -9.4316   31.4656 C   0  0  0  0  0  0  0  0  0  0  0  0
    1.8388   -9.3708   30.0509 C   0  0  0  0  0  0  0  0  0  0  0  0
    2.1419   -8.3937   29.0872 C   0  0  0  0  0  0  0  0  0  0  0  0
    2.0312   -8.7319   27.7306 C   0  0  0  0  0  0  0  0  0  0  0  0
    1.6287  -10.0113   27.3375 C   0  0  0  0  0  0  0  0  0  0  0  0
    1.3239  -10.9957   28.2833 C   0  0  0  0  0  0  0  0  0  0  0  0
    1.4439  -10.6285   29.6213 C   0  0  0  0  0  0  0  0  0  0  0  0
    1.1968  -11.4371   30.6834 O   0  0  0  0  0  0  0  0  0  0  0  0
    1.6078  -11.8947   37.5474 C   0  0  0  0  0  0  0  0  0  0  0  0
    2.6668  -12.1733   38.6217 C   0  0  0  0  0  0  0  0  0  0  0  0
    3.8462  -13.1020   38.2015 C   0  0  0  0  0  0  0  0  0  0  0  0
    3.5524  -14.5268   38.7474 C   0  0  0  0  0  0  0  0  0  0  0  0
    3.8341  -13.2183   36.6667 C   0  0  0  0  0  0  0  0  0  0  0  0
    5.2432  -12.6819   38.7743 C   0  0  0  0  0  0  0  0  0  0  0  0
    6.5714  -13.5114   38.5556 C   0  0  0  0  0  0  0  0  0  0  0  0
    6.8293  -14.4971   39.6919 C   0  0  0  0  0  0  0  0  0  0  0  0
    6.3176  -14.3500   37.2720 C   0  0  0  0  0  0  0  0  0  0  0  0
    7.7573  -12.5204   38.2875 C   0  0  0  0  0  0  0  0  0  0  0  0
    9.0115  -12.8673   37.4206 C   0  0  0  0  0  0  0  0  0  0  0  0
   10.0598  -13.7127   38.1524 C   0  0  0  0  0  0  0  0  0  0  0  0
    9.6820  -11.6098   36.8368 C   0  0  0  0  0  0  0  0  0  0  0  0
    8.5034  -13.7029   36.2170 C   0  0  0  0  0  0  0  0  0  0  0  0
 10 11  1  0
 11  1  1  0
  1  2  2  0
  2  3  1  0
  3  4  2  0
  4  5  1  0
  5  6  2  0
  5  7  1  0
  7  8  2  0
  8 12  1  0
 12 13  1  0
 13 15  1  0
 15 16  2  0
 15 17  2  0
 15 18  1  0
 18 19  2  0
 19 20  1  0
 20 21  2  0
 21 22  1  0
 22 23  2  0
 23 24  1  0
 24 25  2  0
 25 26  1  0
  8  9  1  0
  9 27  1  0
 27 28  1  0
 28 29  1  0
 29 30  1  0
 29 31  1  0
 29 32  1  0
 32 33  1  0
 33 34  1  0
 33 35  1  0
 33 36  1  0
 36 37  1  0
 37 38  1  0
 37 39  1  0
 37 40  1  0
  6  1  1  0
 26 18  1  0
  9  4  1  0
 25 20  1  0
 13 14  1  0
M  END
> <minimizedAffinity>
-9.47764

> <CNNscore>
0.3169709146

> <CNNaffinity>
6.8252639771

> <CNN_VS>
2.1634101868

> <CNNaffinity_variance>
1.1906160116

$$$$



 40 43  0  0  0  0  0  0  0  0999 V2000
   -1.4642   -8.1998   41.0645 C   0  0  0  0  0  0  0  0  0  0  0  0
   -0.8007   -9.2890   41.6236 C   0  0  0  0  0  0  0  0  0  0  0  0
   -0.1285  -10.2197   40.8188 C   0  0  0  0  0  0  0  0  0  0  0  0
   -0.1363  -10.0295   39.4268 C   0  0  0  0  0  0  0  0  0  0  0  0
   -0.7953   -8.9474   38.8460 C   0  0  0  0  0  0  0  0  0  0  0  0
   -1.4644   -8.0259   39.6752 C   0  0  0  0  0  0  0  0  0  0  0  0
   -0.6146   -9.0516   37.4457 C   0  0  0  0  0  0  0  0  0  0  0  0
    0.1459  -10.1769   37.1798 C   0  0  0  0  0  0  0  0  0  0  0  0
    0.4246  -10.7717   38.3963 N   0  0  0  0  0  0  0  0  0  0  0  0
   -3.0138   -6.3954   41.0010 C   0  0  0  0  0  0  0  0  0  0  0  0
   -2.1491   -7.2353   41.7544 O   0  0  0  0  0  0  0  0  0  0  0  0
    0.5936  -10.6746   35.8458 C   0  0  0  0  0  0  0  0  0  0  0  0
    1.6649   -9.7862   35.4063 N   0  0  0  0  0  0  0  0  0  0  0  0
    2.3553  -10.3510   34.9117 H   0  0  0  0  0  0  0  0  0  0  0  0
    1.2094   -8.5280   34.3926 S   0  0  0  0  0  0  0  0  0  0  0  0
   -0.2207   -8.3470   34.5019 O   0  0  0  0  0  0  0  0  0  0  0  0
    2.1353   -7.4440   34.6371 O   0  0  0  0  0  0  0  0  0  0  0  0
    1.5102   -9.0368   32.7060 C   0  0  0  0  0  0  0  0  0  0  0  0
    0.9845  -10.0929   31.9688 C   0  0  0  0  0  0  0  0  0  0  0  0
    1.5508  -10.0445   30.6718 C   0  0  0  0  0  0  0  0  0  0  0  0
    1.4364  -10.8019   29.4934 C   0  0  0  0  0  0  0  0  0  0  0  0
    2.1908  -10.4204   28.3744 C   0  0  0  0  0  0  0  0  0  0  0  0
    3.0406   -9.3118   28.4221 C   0  0  0  0  0  0  0  0  0  0  0  0
    3.1659   -8.5468   29.5864 C   0  0  0  0  0  0  0  0  0  0  0  0
    2.4035   -8.9514   30.6794 C   0  0  0  0  0  0  0  0  0  0  0  0
    2.3839   -8.3423   31.8925 O   0  0  0  0  0  0  0  0  0  0  0  0
    1.1912  -11.9971   38.6188 C   0  0  0  0  0  0  0  0  0  0  0  0
    2.4722  -12.0322   37.7755 C   0  0  0  0  0  0  0  0  0  0  0  0
    3.4218  -13.2450   38.0158 C   0  0  0  0  0  0  0  0  0  0  0  0
    4.4135  -12.8603   39.1485 C   0  0  0  0  0  0  0  0  0  0  0  0
    2.5751  -14.4086   38.5620 C   0  0  0  0  0  0  0  0  0  0  0  0
    4.2917  -13.6478   36.7760 C   0  0  0  0  0  0  0  0  0  0  0  0
    5.7844  -14.1598   36.8754 C   0  0  0  0  0  0  0  0  0  0  0  0
    6.1000  -14.7544   38.2452 C   0  0  0  0  0  0  0  0  0  0  0  0
    5.8851  -15.3156   35.8413 C   0  0  0  0  0  0  0  0  0  0  0  0
    6.7532  -13.0051   36.4412 C   0  0  0  0  0  0  0  0  0  0  0  0
    6.7885  -12.3822   35.0075 C   0  0  0  0  0  0  0  0  0  0  0  0
    7.1712  -13.3766   33.9057 C   0  0  0  0  0  0  0  0  0  0  0  0
    7.7092  -11.1501   34.9301 C   0  0  0  0  0  0  0  0  0  0  0  0
    5.3511  -11.8862   34.7022 C   0  0  0  0  0  0  0  0  0  0  0  0
 10 11  1  0
 11  1  1  0
  1  2  2  0
  2  3  1  0
  3  4  2  0
  4  5  1  0
  5  6  2  0
  5  7  1  0
  7  8  2  0
  8 12  1  0
 12 13  1  0
 13 15  1  0
 15 16  2  0
 15 17  2  0
 15 18  1  0
 18 19  2  0
 19 20  1  0
 20 21  2  0
 21 22  1  0
 22 23  2  0
 23 24  1  0
 24 25  2  0
 25 26  1  0
  8  9  1  0
  9 27  1  0
 27 28  1  0
 28 29  1  0
 29 30  1  0
 29 31  1  0
 29 32  1  0
 32 33  1  0
 33 34  1  0
 33 35  1  0
 33 36  1  0
 36 37  1  0
 37 38  1  0
 37 39  1  0
 37 40  1  0
  6  1  1  0
 26 18  1  0
  9  4  1  0
 25 20  1  0
 13 14  1  0
M  END
> <minimizedAffinity>
-10.13410

> <CNNscore>
0.3067266047

> <CNNaffinity>
6.9161448479

> <CNN_VS>
2.1213655472

> <CNNaffinity_variance>
1.2777715921

$$$$



 40 43  0  0  0  0  0  0  0  0999 V2000
   -1.3239   -8.3459   40.8719 C   0  0  0  0  0  0  0  0  0  0  0  0
   -0.6424   -9.4263   41.4265 C   0  0  0  0  0  0  0  0  0  0  0  0
    0.0336  -10.3501   40.6169 C   0  0  0  0  0  0  0  0  0  0  0  0
    0.0110  -10.1620   39.2248 C   0  0  0  0  0  0  0  0  0  0  0  0
   -0.6662   -9.0888   38.6485 C   0  0  0  0  0  0  0  0  0  0  0  0
   -1.3387   -8.1741   39.4824 C   0  0  0  0  0  0  0  0  0  0  0  0
   -0.4969   -9.1929   37.2468 C   0  0  0  0  0  0  0  0  0  0  0  0
    0.2746  -10.3094   36.9755 C   0  0  0  0  0  0  0  0  0  0  0  0
    0.5713  -10.8990   38.1903 N   0  0  0  0  0  0  0  0  0  0  0  0
   -2.8465   -6.5185   40.8112 C   0  0  0  0  0  0  0  0  0  0  0  0
   -2.0140   -7.3887   41.5667 O   0  0  0  0  0  0  0  0  0  0  0  0
    0.7160  -10.8036   35.6382 C   0  0  0  0  0  0  0  0  0  0  0  0
    0.4474   -9.7303   34.6864 N   0  0  0  0  0  0  0  0  0  0  0  0
   -0.0573   -8.9943   35.1805 H   0  0  0  0  0  0  0  0  0  0  0  0
    1.7924   -9.0335   33.9628 S   0  0  0  0  0  0  0  0  0  0  0  0
    1.6905   -7.5975   34.0943 O   0  0  0  0  0  0  0  0  0  0  0  0
    2.9452   -9.7627   34.4442 O   0  0  0  0  0  0  0  0  0  0  0  0
    1.7169   -9.3705   32.2093 C   0  0  0  0  0  0  0  0  0  0  0  0
    1.2749  -10.4943   31.5190 C   0  0  0  0  0  0  0  0  0  0  0  0
    1.4217  -10.2415   30.1334 C   0  0  0  0  0  0  0  0  0  0  0  0
    1.1645  -10.9498   28.9470 C   0  0  0  0  0  0  0  0  0  0  0  0
    1.4561  -10.3342   27.7211 C   0  0  0  0  0  0  0  0  0  0  0  0
    1.9912   -9.0439   27.6720 C   0  0  0  0  0  0  0  0  0  0  0  0
    2.2526   -8.3248   28.8428 C   0  0  0  0  0  0  0  0  0  0  0  0
    1.9519   -8.9636   30.0433 C   0  0  0  0  0  0  0  0  0  0  0  0
    2.1302   -8.4352   31.2809 O   0  0  0  0  0  0  0  0  0  0  0  0
    1.3546  -12.1148   38.4074 C   0  0  0  0  0  0  0  0  0  0  0  0
    1.8215  -12.7389   37.0862 C   0  0  0  0  0  0  0  0  0  0  0  0
    2.2977  -14.2217   37.1554 C   0  0  0  0  0  0  0  0  0  0  0  0
    1.1015  -15.0873   37.6391 C   0  0  0  0  0  0  0  0  0  0  0  0
    2.6126  -14.6855   35.7219 C   0  0  0  0  0  0  0  0  0  0  0  0
    3.4741  -14.4827   38.1575 C   0  0  0  0  0  0  0  0  0  0  0  0
    4.8181  -13.6500   38.1753 C   0  0  0  0  0  0  0  0  0  0  0  0
    5.1146  -13.0047   36.8244 C   0  0  0  0  0  0  0  0  0  0  0  0
    4.5662  -12.4973   39.1869 C   0  0  0  0  0  0  0  0  0  0  0  0
    5.9768  -14.5570   38.7185 C   0  0  0  0  0  0  0  0  0  0  0  0
    7.1630  -14.0349   39.5932 C   0  0  0  0  0  0  0  0  0  0  0  0
    8.5266  -14.1008   38.8964 C   0  0  0  0  0  0  0  0  0  0  0  0
    7.2454  -14.7543   40.9524 C   0  0  0  0  0  0  0  0  0  0  0  0
    6.8706  -12.5419   39.8943 C   0  0  0  0  0  0  0  0  0  0  0  0
 10 11  1  0
 11  1  1  0
  1  2  2  0
  2  3  1  0
  3  4  2  0
  4  5  1  0
  5  6  2  0
  5  7  1  0
  7  8  2  0
  8 12  1  0
 12 13  1  0
 13 15  1  0
 15 16  2  0
 15 17  2  0
 15 18  1  0
 18 19  2  0
 19 20  1  0
 20 21  2  0
 21 22  1  0
 22 23  2  0
 23 24  1  0
 24 25  2  0
 25 26  1  0
  8  9  1  0
  9 27  1  0
 27 28  1  0
 28 29  1  0
 29 30  1  0
 29 31  1  0
 29 32  1  0
 32 33  1  0
 33 34  1  0
 33 35  1  0
 33 36  1  0
 36 37  1  0
 37 38  1  0
 37 39  1  0
 37 40  1  0
  6  1  1  0
 26 18  1  0
  9  4  1  0
 25 20  1  0
 13 14  1  0
M  END
> <minimizedAffinity>
-10.28396

> <CNNscore>
0.2783282101

> <CNNaffinity>
6.6539835930

> <CNN_VS>
1.8519912958

> <CNNaffinity_variance>
1.4516950846

$$$$



 40 43  0  0  0  0  0  0  0  0999 V2000
   -1.1272   -8.4460   40.6670 C   0  0  0  0  0  0  0  0  0  0  0  0
   -0.5482   -9.6822   40.9425 C   0  0  0  0  0  0  0  0  0  0  0  0
   -0.1082  -10.5229   39.9103 C   0  0  0  0  0  0  0  0  0  0  0  0
   -0.2626  -10.0896   38.5828 C   0  0  0  0  0  0  0  0  0  0  0  0
   -0.8408   -8.8571   38.2844 C   0  0  0  0  0  0  0  0  0  0  0  0
   -1.2760   -8.0300   39.3384 C   0  0  0  0  0  0  0  0  0  0  0  0
   -0.8494   -8.7307   36.8744 C   0  0  0  0  0  0  0  0  0  0  0  0
   -0.2815   -9.8667   36.3244 C   0  0  0  0  0  0  0  0  0  0  0  0
    0.0648  -10.6939   37.3766 N   0  0  0  0  0  0  0  0  0  0  0  0
   -2.6730   -6.7181   41.2020 C   0  0  0  0  0  0  0  0  0  0  0  0
   -1.5895   -7.5505   41.5943 O   0  0  0  0  0  0  0  0  0  0  0  0
   -0.0709  -10.1659   34.8774 C   0  0  0  0  0  0  0  0  0  0  0  0
    1.3392  -10.5093   34.7226 N   0  0  0  0  0  0  0  0  0  0  0  0
    1.3917  -11.3836   34.1999 H   0  0  0  0  0  0  0  0  0  0  0  0
    2.2900   -9.3775   33.9270 S   0  0  0  0  0  0  0  0  0  0  0  0
    1.8028   -8.0571   34.2573 O   0  0  0  0  0  0  0  0  0  0  0  0
    3.6662   -9.7606   34.1542 O   0  0  0  0  0  0  0  0  0  0  0  0
    2.0287   -9.5695   32.1694 C   0  0  0  0  0  0  0  0  0  0  0  0
    1.3669  -10.5613   31.4530 C   0  0  0  0  0  0  0  0  0  0  0  0
    1.4437  -10.2318   30.0780 C   0  0  0  0  0  0  0  0  0  0  0  0
    0.9899  -10.8048   28.8775 C   0  0  0  0  0  0  0  0  0  0  0  0
    1.2776  -10.1507   27.6707 C   0  0  0  0  0  0  0  0  0  0  0  0
    1.9997   -8.9542   27.6539 C   0  0  0  0  0  0  0  0  0  0  0  0
    2.4582   -8.3700   28.8393 C   0  0  0  0  0  0  0  0  0  0  0  0
    2.1560   -9.0437   30.0201 C   0  0  0  0  0  0  0  0  0  0  0  0
    2.5084   -8.6402   31.2674 O   0  0  0  0  0  0  0  0  0  0  0  0
    0.6859  -12.0149   37.2865 C   0  0  0  0  0  0  0  0  0  0  0  0
    2.1906  -11.9614   37.5798 C   0  0  0  0  0  0  0  0  0  0  0  0
    2.7875  -13.1834   38.3419 C   0  0  0  0  0  0  0  0  0  0  0  0
    3.4099  -12.6641   39.6675 C   0  0  0  0  0  0  0  0  0  0  0  0
    1.6226  -14.1050   38.7455 C   0  0  0  0  0  0  0  0  0  0  0  0
    3.9287  -13.9360   37.5755 C   0  0  0  0  0  0  0  0  0  0  0  0
    3.8819  -14.2693   36.0305 C   0  0  0  0  0  0  0  0  0  0  0  0
    3.4910  -13.0565   35.1906 C   0  0  0  0  0  0  0  0  0  0  0  0
    5.3439  -14.6358   35.6515 C   0  0  0  0  0  0  0  0  0  0  0  0
    2.9694  -15.5248   35.8036 C   0  0  0  0  0  0  0  0  0  0  0  0
    1.5375  -15.4672   35.1783 C   0  0  0  0  0  0  0  0  0  0  0  0
    1.1843  -14.1121   34.5551 C   0  0  0  0  0  0  0  0  0  0  0  0
    0.4449  -15.8695   36.1863 C   0  0  0  0  0  0  0  0  0  0  0  0
    1.5060  -16.5205   34.0404 C   0  0  0  0  0  0  0  0  0  0  0  0
 10 11  1  0
 11  1  1  0
  1  2  2  0
  2  3  1  0
  3  4  2  0
  4  5  1  0
  5  6  2  0
  5  7  1  0
  7  8  2  0
  8 12  1  0
 12 13  1  0
 13 15  1  0
 15 16  2  0
 15 17  2  0
 15 18  1  0
 18 19  2  0
 19 20  1  0
 20 21  2  0
 21 22  1  0
 22 23  2  0
 23 24  1  0
 24 25  2  0
 25 26  1  0
  8  9  1  0
  9 27  1  0
 27 28  1  0
 28 29  1  0
 29 30  1  0
 29 31  1  0
 29 32  1  0
 32 33  1  0
 33 34  1  0
 33 35  1  0
 33 36  1  0
 36 37  1  0
 37 38  1  0
 37 39  1  0
 37 40  1  0
  6  1  1  0
 26 18  1  0
  9  4  1  0
 25 20  1  0
 13 14  1  0
M  END
> <minimizedAffinity>
-9.12660

> <CNNscore>
0.2485316098

> <CNNaffinity>
6.5899376869

> <CNN_VS>
1.6378078461

> <CNNaffinity_variance>
1.7374882698

$$$$



 40 43  0  0  0  0  0  0  0  0999 V2000
   -0.9762   -8.8855   40.4874 C   0  0  0  0  0  0  0  0  0  0  0  0
   -1.0511   -8.3943   39.1865 C   0  0  0  0  0  0  0  0  0  0  0  0
   -0.3524   -9.0093   38.1379 C   0  0  0  0  0  0  0  0  0  0  0  0
    0.4293  -10.1402   38.4275 C   0  0  0  0  0  0  0  0  0  0  0  0
    0.5198  -10.6476   39.7224 C   0  0  0  0  0  0  0  0  0  0  0  0
   -0.1907  -10.0122   40.7596 C   0  0  0  0  0  0  0  0  0  0  0  0
    1.3781  -11.7722   39.6708 C   0  0  0  0  0  0  0  0  0  0  0  0
    1.7994  -11.9484   38.3643 C   0  0  0  0  0  0  0  0  0  0  0  0
    1.2213  -10.9405   37.6152 N   0  0  0  0  0  0  0  0  0  0  0  0
   -2.3883   -7.1895   41.3767 C   0  0  0  0  0  0  0  0  0  0  0  0
   -1.6145   -8.3644   41.5812 O   0  0  0  0  0  0  0  0  0  0  0  0
    2.7030  -13.0135   37.8385 C   0  0  0  0  0  0  0  0  0  0  0  0
    3.3832  -13.5919   38.9931 N   0  0  0  0  0  0  0  0  0  0  0  0
    3.1403  -14.5817   39.0346 H   0  0  0  0  0  0  0  0  0  0  0  0
    5.0578  -13.4736   38.9972 S   0  0  0  0  0  0  0  0  0  0  0  0
    5.4197  -12.1138   39.3289 O   0  0  0  0  0  0  0  0  0  0  0  0
    5.5501  -14.6004   39.7590 O   0  0  0  0  0  0  0  0  0  0  0  0
    5.6377  -13.7404   37.3279 C   0  0  0  0  0  0  0  0  0  0  0  0
    6.0708  -12.8379   36.3621 C   0  0  0  0  0  0  0  0  0  0  0  0
    6.4305  -13.5737   35.2069 C   0  0  0  0  0  0  0  0  0  0  0  0
    6.9280  -13.2642   33.9294 C   0  0  0  0  0  0  0  0  0  0  0  0
    7.1665  -14.3132   33.0296 C   0  0  0  0  0  0  0  0  0  0  0  0
    6.9172  -15.6408   33.3883 C   0  0  0  0  0  0  0  0  0  0  0  0
    6.4228  -15.9665   34.6556 C   0  0  0  0  0  0  0  0  0  0  0  0
    6.1969  -14.9026   35.5255 C   0  0  0  0  0  0  0  0  0  0  0  0
    5.7237  -15.0109   36.7932 O   0  0  0  0  0  0  0  0  0  0  0  0
    1.3856  -10.7090   36.1805 C   0  0  0  0  0  0  0  0  0  0  0  0
    0.8383   -9.3407   35.7548 C   0  0  0  0  0  0  0  0  0  0  0  0
    0.6901   -9.1052   34.2209 C   0  0  0  0  0  0  0  0  0  0  0  0
   -0.1623  -10.2662   33.6379 C   0  0  0  0  0  0  0  0  0  0  0  0
   -0.1341   -7.8214   34.0161 C   0  0  0  0  0  0  0  0  0  0  0  0
    2.0421   -9.0999   33.4283 C   0  0  0  0  0  0  0  0  0  0  0  0
    2.2757   -9.8895   32.0784 C   0  0  0  0  0  0  0  0  0  0  0  0
    3.6668  -10.5136   32.0089 C   0  0  0  0  0  0  0  0  0  0  0  0
    1.2517  -11.0581   32.1112 C   0  0  0  0  0  0  0  0  0  0  0  0
    1.9351   -8.9507   30.8689 C   0  0  0  0  0  0  0  0  0  0  0  0
    2.2726   -9.2824   29.3787 C   0  0  0  0  0  0  0  0  0  0  0  0
    1.5482   -8.3919   28.3631 C   0  0  0  0  0  0  0  0  0  0  0  0
    2.0166  -10.7625   29.0389 C   0  0  0  0  0  0  0  0  0  0  0  0
    3.7942   -9.0398   29.2023 C   0  0  0  0  0  0  0  0  0  0  0  0
 10 11  1  0
 11  1  1  0
  1  2  2  0
  2  3  1  0
  3  4  2  0
  4  5  1  0
  5  6  2  0
  5  7  1  0
  7  8  2  0
  8 12  1  0
 12 13  1  0
 13 15  1  0
 15 16  2  0
 15 17  2  0
 15 18  1  0
 18 19  2  0
 19 20  1  0
 20 21  2  0
 21 22  1  0
 22 23  2  0
 23 24  1  0
 24 25  2  0
 25 26  1  0
  8  9  1  0
  9 27  1  0
 27 28  1  0
 28 29  1  0
 29 30  1  0
 29 31  1  0
 29 32  1  0
 32 33  1  0
 33 34  1  0
 33 35  1  0
 33 36  1  0
 36 37  1  0
 37 38  1  0
 37 39  1  0
 37 40  1  0
  6  1  1  0
 26 18  1  0
  9  4  1  0
 25 20  1  0
 13 14  1  0
M  END
> <minimizedAffinity>
-9.31146

> <CNNscore>
0.2286913395

> <CNNaffinity>
6.5468039513

> <CNN_VS>
1.4971973896

> <CNNaffinity_variance>
1.3784533739

$$$$



 40 43  0  0  0  0  0  0  0  0999 V2000
   -0.8721   -9.0526   40.2679 C   0  0  0  0  0  0  0  0  0  0  0  0
   -1.2964   -8.3526   39.1413 C   0  0  0  0  0  0  0  0  0  0  0  0
   -0.9168   -8.7540   37.8526 C   0  0  0  0  0  0  0  0  0  0  0  0
   -0.0950   -9.8857   37.7193 C   0  0  0  0  0  0  0  0  0  0  0  0
    0.3425  -10.6000   38.8332 C   0  0  0  0  0  0  0  0  0  0  0  0
   -0.0514  -10.1771   40.1179 C   0  0  0  0  0  0  0  0  0  0  0  0
    1.1446  -11.6651   38.3572 C   0  0  0  0  0  0  0  0  0  0  0  0
    1.1904  -11.6018   36.9754 C   0  0  0  0  0  0  0  0  0  0  0  0
    0.4375  -10.5057   36.5971 N   0  0  0  0  0  0  0  0  0  0  0  0
   -0.6986   -9.6341   42.5686 C   0  0  0  0  0  0  0  0  0  0  0  0
   -1.1820   -8.7489   41.5667 O   0  0  0  0  0  0  0  0  0  0  0  0
    1.9067  -12.5265   36.0484 C   0  0  0  0  0  0  0  0  0  0  0  0
    1.1732  -13.7882   36.0675 N   0  0  0  0  0  0  0  0  0  0  0  0
    1.0300  -14.0804   35.1008 H   0  0  0  0  0  0  0  0  0  0  0  0
    1.9104  -15.0567   36.8834 S   0  0  0  0  0  0  0  0  0  0  0  0
    1.2708  -15.2057   38.1713 O   0  0  0  0  0  0  0  0  0  0  0  0
    2.0004  -16.1546   35.9459 O   0  0  0  0  0  0  0  0  0  0  0  0
    3.6003  -14.5881   37.2280 C   0  0  0  0  0  0  0  0  0  0  0  0
    4.5620  -13.9962   36.4158 C   0  0  0  0  0  0  0  0  0  0  0  0
    5.7400  -13.8301   37.1838 C   0  0  0  0  0  0  0  0  0  0  0  0
    7.0257  -13.3095   36.9571 C   0  0  0  0  0  0  0  0  0  0  0  0
    7.9505  -13.3223   38.0113 C   0  0  0  0  0  0  0  0  0  0  0  0
    7.6085  -13.8401   39.2637 C   0  0  0  0  0  0  0  0  0  0  0  0
    6.3335  -14.3614   39.5065 C   0  0  0  0  0  0  0  0  0  0  0  0
    5.4386  -14.3338   38.4398 C   0  0  0  0  0  0  0  0  0  0  0  0
    4.1598  -14.7881   38.4748 O   0  0  0  0  0  0  0  0  0  0  0  0
    0.2045  -10.0296   35.2341 C   0  0  0  0  0  0  0  0  0  0  0  0
    0.8741  -10.9319   34.1898 C   0  0  0  0  0  0  0  0  0  0  0  0
    1.6605  -10.2067   33.0559 C   0  0  0  0  0  0  0  0  0  0  0  0
    1.2794   -8.7009   33.0955 C   0  0  0  0  0  0  0  0  0  0  0  0
    3.1596  -10.2803   33.3972 C   0  0  0  0  0  0  0  0  0  0  0  0
    1.3347  -10.7136   31.6091 C   0  0  0  0  0  0  0  0  0  0  0  0
    1.8938  -10.0403   30.2923 C   0  0  0  0  0  0  0  0  0  0  0  0
    1.2980   -8.6553   30.0551 C   0  0  0  0  0  0  0  0  0  0  0  0
    3.4138   -9.8456   30.5518 C   0  0  0  0  0  0  0  0  0  0  0  0
    1.7075  -11.0306   29.0903 C   0  0  0  0  0  0  0  0  0  0  0  0
    1.4713  -10.5809   27.6116 C   0  0  0  0  0  0  0  0  0  0  0  0
    2.0694  -11.5316   26.5686 C   0  0  0  0  0  0  0  0  0  0  0  0
    1.9751   -9.1493   27.3505 C   0  0  0  0  0  0  0  0  0  0  0  0
   -0.0638  -10.5619   27.3919 C   0  0  0  0  0  0  0  0  0  0  0  0
 10 11  1  0
 11  1  1  0
  1  2  2  0
  2  3  1  0
  3  4  2  0
  4  5  1  0
  5  6  2  0
  5  7  1  0
  7  8  2  0
  8 12  1  0
 12 13  1  0
 13 15  1  0
 15 16  2  0
 15 17  2  0
 15 18  1  0
 18 19  2  0
 19 20  1  0
 20 21  2  0
 21 22  1  0
 22 23  2  0
 23 24  1  0
 24 25  2  0
 25 26  1  0
  8  9  1  0
  9 27  1  0
 27 28  1  0
 28 29  1  0
 29 30  1  0
 29 31  1  0
 29 32  1  0
 32 33  1  0
 33 34  1  0
 33 35  1  0
 33 36  1  0
 36 37  1  0
 37 38  1  0
 37 39  1  0
 37 40  1  0
  6  1  1  0
 26 18  1  0
  9  4  1  0
 25 20  1  0
 13 14  1  0
M  END
> <minimizedAffinity>
-10.14489

> <CNNscore>
0.2052646279

> <CNNaffinity>
6.3682284355

> <CNN_VS>
1.3071720600

> <CNNaffinity_variance>
1.6715010405

$$$$
