


 25 26  0  0  0  0  0  0  0  0999 V2000
   -9.1948   -2.9588  -30.7004 C   0  0  0  0  0  0  0  0  0  0  0  0
   -8.5000   -3.9670  -30.0236 C   0  0  0  0  0  0  0  0  0  0  0  0
   -7.1069   -4.0328  -30.0968 C   0  0  0  0  0  0  0  0  0  0  0  0
   -6.3856   -3.1008  -30.8457 C   0  0  0  0  0  0  0  0  0  0  0  0
   -7.0733   -2.0960  -31.5252 C   0  0  0  0  0  0  0  0  0  0  0  0
   -8.4693   -2.0265  -31.4531 C   0  0  0  0  0  0  0  0  0  0  0  0
  -10.7017   -2.8691  -30.6116 C   0  0  0  0  0  0  0  0  0  0  0  0
  -11.2066   -1.5072  -30.0997 C   0  0  0  0  0  0  0  0  0  0  0  0
  -10.3253   -0.3697  -30.4915 N   0  0  0  0  0  0  0  0  0  0  0  0
   -9.4060   -0.4897  -30.0661 H   0  0  0  0  0  0  0  0  0  0  0  0
  -10.7372    0.5061  -30.1695 H   0  0  0  0  0  0  0  0  0  0  0  0
  -12.3842   -0.3118  -26.6926 C   0  0  0  0  0  0  0  0  0  0  0  0
  -12.2186   -0.5631  -28.0982 N   0  0  0  0  0  0  0  0  0  0  0  0
  -11.3436   -1.5274  -28.5608 C   0  0  0  0  0  0  0  0  0  0  0  0
  -10.7734   -2.3337  -27.8338 O   0  0  0  0  0  0  0  0  0  0  0  0
  -12.7404   -0.0363  -28.7459 H   0  0  0  0  0  0  0  0  0  0  0  0
   -5.0311   -3.2835  -30.8288 O   0  0  0  0  0  0  0  0  0  0  0  0
   -4.5537   -4.5676  -30.4386 C   0  0  0  0  0  0  0  0  0  0  0  0
   -3.0446   -4.5180  -30.4257 C   0  0  0  0  0  0  0  0  0  0  0  0
   -2.3755   -3.3204  -30.1260 C   0  0  0  0  0  0  0  0  0  0  0  0
   -0.9807   -3.2800  -30.0968 C   0  0  0  0  0  0  0  0  0  0  0  0
   -0.2558   -4.4366  -30.3571 C   0  0  0  0  0  0  0  0  0  0  0  0
    1.0829   -4.3966  -30.3277 F   0  0  0  0  0  0  0  0  0  0  0  0
   -0.8985   -5.6352  -30.6417 C   0  0  0  0  0  0  0  0  0  0  0  0
   -2.2932   -5.6784  -30.6715 C   0  0  0  0  0  0  0  0  0  0  0  0
 12 13  1  0
 13 14  1  0
 14 15  2  0
 14  8  1  0
  8  9  1  0
  8  7  1  0
  7  1  1  0
  1  2  2  0
  2  3  1  0
  3  4  2  0
  4 17  1  0
 17 18  1  0
 18 19  1  0
 19 20  2  0
 20 21  1  0
 21 22  2  0
 22 23  1  0
 22 24  1  0
 24 25  2  0
  4  5  1  0
  5  6  2  0
  6  1  1  0
 25 19  1  0
 13 16  1  0
  9 10  1  0
  9 11  1  0
M  END
> <minimizedAffinity>
-7.75609

> <CNNscore>
0.8960847259

> <CNNaffinity>
4.7330117226

> <CNN_VS>
4.2411794662

> <CNNaffinity_variance>
0.9784653783

$$$$



 25 26  0  0  0  0  0  0  0  0999 V2000
   -4.4477  -12.2649  -31.3874 C   0  0  0  0  0  0  0  0  0  0  0  0
   -5.2227  -11.1381  -31.0925 C   0  0  0  0  0  0  0  0  0  0  0  0
   -4.6648   -9.8601  -31.1699 C   0  0  0  0  0  0  0  0  0  0  0  0
   -3.3293   -9.6843  -31.5377 C   0  0  0  0  0  0  0  0  0  0  0  0
   -2.5513  -10.8041  -31.8293 C   0  0  0  0  0  0  0  0  0  0  0  0
   -3.1076  -12.0862  -31.7537 C   0  0  0  0  0  0  0  0  0  0  0  0
   -5.0489  -13.6509  -31.3240 C   0  0  0  0  0  0  0  0  0  0  0  0
   -4.3015  -14.6013  -30.3702 C   0  0  0  0  0  0  0  0  0  0  0  0
   -4.1332  -15.9757  -30.9241 N   0  0  0  0  0  0  0  0  0  0  0  0
   -5.0498  -16.4020  -31.0604 H   0  0  0  0  0  0  0  0  0  0  0  0
   -3.5890  -16.5407  -30.2723 H   0  0  0  0  0  0  0  0  0  0  0  0
   -7.2486  -14.3641  -27.9864 C   0  0  0  0  0  0  0  0  0  0  0  0
   -6.3965  -14.4673  -29.1395 N   0  0  0  0  0  0  0  0  0  0  0  0
   -5.0390  -14.6944  -29.0156 C   0  0  0  0  0  0  0  0  0  0  0  0
   -4.4906  -14.9784  -27.9562 O   0  0  0  0  0  0  0  0  0  0  0  0
   -6.7888  -14.3741  -30.0376 H   0  0  0  0  0  0  0  0  0  0  0  0
   -2.9159   -8.3819  -31.5732 O   0  0  0  0  0  0  0  0  0  0  0  0
   -3.7993   -7.4050  -31.0305 C   0  0  0  0  0  0  0  0  0  0  0  0
   -3.0047   -6.1443  -30.7870 C   0  0  0  0  0  0  0  0  0  0  0  0
   -3.6586   -4.9406  -30.4786 C   0  0  0  0  0  0  0  0  0  0  0  0
   -2.9223   -3.7800  -30.2360 C   0  0  0  0  0  0  0  0  0  0  0  0
   -1.5345   -3.8244  -30.2922 C   0  0  0  0  0  0  0  0  0  0  0  0
   -0.8290   -2.7099  -30.0583 F   0  0  0  0  0  0  0  0  0  0  0  0
   -0.8674   -5.0083  -30.5817 C   0  0  0  0  0  0  0  0  0  0  0  0
   -1.6013   -6.1704  -30.8246 C   0  0  0  0  0  0  0  0  0  0  0  0
 12 13  1  0
 13 14  1  0
 14 15  2  0
 14  8  1  0
  8  9  1  0
  8  7  1  0
  7  1  1  0
  1  2  2  0
  2  3  1  0
  3  4  2  0
  4 17  1  0
 17 18  1  0
 18 19  1  0
 19 20  2  0
 20 21  1  0
 21 22  2  0
 22 23  1  0
 22 24  1  0
 24 25  2  0
  4  5  1  0
  5  6  2  0
  6  1  1  0
 25 19  1  0
 13 16  1  0
  9 10  1  0
  9 11  1  0
M  END
> <minimizedAffinity>
-7.18469

> <CNNscore>
0.8536377549

> <CNNaffinity>
4.8074932098

> <CNN_VS>
4.1038575172

> <CNNaffinity_variance>
0.4092952311

$$$$



 25 26  0  0  0  0  0  0  0  0999 V2000
   -9.1041   -2.4904  -30.9473 C   0  0  0  0  0  0  0  0  0  0  0  0
   -8.1558   -1.7144  -31.6224 C   0  0  0  0  0  0  0  0  0  0  0  0
   -6.7982   -2.0310  -31.5381 C   0  0  0  0  0  0  0  0  0  0  0  0
   -6.3640   -3.1200  -30.7795 C   0  0  0  0  0  0  0  0  0  0  0  0
   -7.3046   -3.8946  -30.1017 C   0  0  0  0  0  0  0  0  0  0  0  0
   -8.6659   -3.5807  -30.1850 C   0  0  0  0  0  0  0  0  0  0  0  0
  -10.5775   -2.1656  -31.0482 C   0  0  0  0  0  0  0  0  0  0  0  0
  -10.9315   -0.7552  -30.5411 C   0  0  0  0  0  0  0  0  0  0  0  0
  -11.7870   -0.7685  -29.3195 N   0  0  0  0  0  0  0  0  0  0  0  0
  -12.6825   -1.2059  -29.5363 H   0  0  0  0  0  0  0  0  0  0  0  0
  -11.9437    0.1887  -29.0039 H   0  0  0  0  0  0  0  0  0  0  0  0
  -11.4040    2.0502  -33.0572 C   0  0  0  0  0  0  0  0  0  0  0  0
  -10.8760    1.0883  -32.1285 N   0  0  0  0  0  0  0  0  0  0  0  0
  -11.6503    0.0499  -31.6468 C   0  0  0  0  0  0  0  0  0  0  0  0
  -12.7646   -0.2249  -32.0786 O   0  0  0  0  0  0  0  0  0  0  0  0
   -9.9419    1.1712  -31.8289 H   0  0  0  0  0  0  0  0  0  0  0  0
   -5.0109   -3.3142  -30.7860 O   0  0  0  0  0  0  0  0  0  0  0  0
   -4.5373   -4.5987  -30.3924 C   0  0  0  0  0  0  0  0  0  0  0  0
   -3.0283   -4.5504  -30.3695 C   0  0  0  0  0  0  0  0  0  0  0  0
   -2.2757   -5.6875  -30.7046 C   0  0  0  0  0  0  0  0  0  0  0  0
   -0.8809   -5.6365  -30.7004 C   0  0  0  0  0  0  0  0  0  0  0  0
   -0.2393   -4.4487  -30.3713 C   0  0  0  0  0  0  0  0  0  0  0  0
    1.0994   -4.4009  -30.3687 F   0  0  0  0  0  0  0  0  0  0  0  0
   -0.9653   -3.3082  -30.0506 C   0  0  0  0  0  0  0  0  0  0  0  0
   -2.3602   -3.3563  -30.0540 C   0  0  0  0  0  0  0  0  0  0  0  0
 12 13  1  0
 13 14  1  0
 14 15  2  0
 14  8  1  0
  8  9  1  0
  8  7  1  0
  7  1  1  0
  1  2  2  0
  2  3  1  0
  3  4  2  0
  4 17  1  0
 17 18  1  0
 18 19  1  0
 19 20  2  0
 20 21  1  0
 21 22  2  0
 22 23  1  0
 22 24  1  0
 24 25  2  0
  4  5  1  0
  5  6  2  0
  6  1  1  0
 25 19  1  0
 13 16  1  0
  9 10  1  0
  9 11  1  0
M  END
> <minimizedAffinity>
-7.44864

> <CNNscore>
0.8472397923

> <CNNaffinity>
4.6389269829

> <CNN_VS>
3.9302835464

> <CNNaffinity_variance>
0.9236433506

$$$$



 25 26  0  0  0  0  0  0  0  0999 V2000
   -8.5293   -2.4674  -31.4096 C   0  0  0  0  0  0  0  0  0  0  0  0
   -7.2237   -2.0219  -31.6423 C   0  0  0  0  0  0  0  0  0  0  0  0
   -6.1375   -2.7100  -31.0972 C   0  0  0  0  0  0  0  0  0  0  0  0
   -6.3334   -3.8473  -30.3110 C   0  0  0  0  0  0  0  0  0  0  0  0
   -7.6327   -4.2936  -30.0729 C   0  0  0  0  0  0  0  0  0  0  0  0
   -8.7234   -3.6070  -30.6186 C   0  0  0  0  0  0  0  0  0  0  0  0
   -9.7101   -1.7392  -32.0112 C   0  0  0  0  0  0  0  0  0  0  0  0
   -9.3527   -0.9221  -33.2667 C   0  0  0  0  0  0  0  0  0  0  0  0
  -10.1028    0.3633  -33.3635 N   0  0  0  0  0  0  0  0  0  0  0  0
  -11.1007    0.1691  -33.4473 H   0  0  0  0  0  0  0  0  0  0  0  0
   -9.7869    0.8804  -34.1839 H   0  0  0  0  0  0  0  0  0  0  0  0
   -8.9161   -1.9709  -36.8908 C   0  0  0  0  0  0  0  0  0  0  0  0
   -8.7542   -1.4234  -35.5715 N   0  0  0  0  0  0  0  0  0  0  0  0
   -9.6161   -1.7527  -34.5427 C   0  0  0  0  0  0  0  0  0  0  0  0
  -10.4656   -2.6335  -34.6224 O   0  0  0  0  0  0  0  0  0  0  0  0
   -8.0127   -0.7997  -35.3970 H   0  0  0  0  0  0  0  0  0  0  0  0
   -5.1838   -4.4204  -29.8435 O   0  0  0  0  0  0  0  0  0  0  0  0
   -4.4305   -5.2072  -30.7614 C   0  0  0  0  0  0  0  0  0  0  0  0
   -2.9706   -4.8708  -30.5725 C   0  0  0  0  0  0  0  0  0  0  0  0
   -2.5849   -3.5835  -30.1655 C   0  0  0  0  0  0  0  0  0  0  0  0
   -1.2364   -3.2789  -29.9739 C   0  0  0  0  0  0  0  0  0  0  0  0
   -0.2757   -4.2616  -30.1794 C   0  0  0  0  0  0  0  0  0  0  0  0
    1.0182   -3.9681  -29.9942 F   0  0  0  0  0  0  0  0  0  0  0  0
   -0.6371   -5.5456  -30.5685 C   0  0  0  0  0  0  0  0  0  0  0  0
   -1.9849   -5.8530  -30.7607 C   0  0  0  0  0  0  0  0  0  0  0  0
 12 13  1  0
 13 14  1  0
 14 15  2  0
 14  8  1  0
  8  9  1  0
  8  7  1  0
  7  1  1  0
  1  2  2  0
  2  3  1  0
  3  4  2  0
  4 17  1  0
 17 18  1  0
 18 19  1  0
 19 20  2  0
 20 21  1  0
 21 22  2  0
 22 23  1  0
 22 24  1  0
 24 25  2  0
  4  5  1  0
  5  6  2  0
  6  1  1  0
 25 19  1  0
 13 16  1  0
  9 10  1  0
  9 11  1  0
M  END
> <minimizedAffinity>
-7.18033

> <CNNscore>
0.8007445335

> <CNNaffinity>
4.9619984627

> <CNN_VS>
3.9732930660

> <CNNaffinity_variance>
0.3559299409

$$$$



 25 26  0  0  0  0  0  0  0  0999 V2000
   -9.1532   -2.8435  -30.9875 C   0  0  0  0  0  0  0  0  0  0  0  0
   -8.2197   -1.9838  -31.5764 C   0  0  0  0  0  0  0  0  0  0  0  0
   -6.8517   -2.2084  -31.4080 C   0  0  0  0  0  0  0  0  0  0  0  0
   -6.3925   -3.2873  -30.6497 C   0  0  0  0  0  0  0  0  0  0  0  0
   -7.3185   -4.1452  -30.0575 C   0  0  0  0  0  0  0  0  0  0  0  0
   -8.6902   -3.9236  -30.2252 C   0  0  0  0  0  0  0  0  0  0  0  0
  -10.6360   -2.6183  -31.1801 C   0  0  0  0  0  0  0  0  0  0  0  0
  -11.2122   -3.3425  -32.4111 C   0  0  0  0  0  0  0  0  0  0  0  0
  -10.1882   -4.1192  -33.1675 N   0  0  0  0  0  0  0  0  0  0  0  0
   -9.4840   -3.4817  -33.5392 H   0  0  0  0  0  0  0  0  0  0  0  0
  -10.6378   -4.6153  -33.9371 H   0  0  0  0  0  0  0  0  0  0  0  0
  -12.3959    0.0640  -33.6022 C   0  0  0  0  0  0  0  0  0  0  0  0
  -11.7307   -1.0244  -32.9394 N   0  0  0  0  0  0  0  0  0  0  0  0
  -11.8799   -2.3297  -33.3680 C   0  0  0  0  0  0  0  0  0  0  0  0
  -12.4429   -2.6430  -34.4114 O   0  0  0  0  0  0  0  0  0  0  0  0
  -11.1560   -0.8356  -32.1627 H   0  0  0  0  0  0  0  0  0  0  0  0
   -5.0316   -3.3875  -30.5690 O   0  0  0  0  0  0  0  0  0  0  0  0
   -4.4768   -4.6993  -30.5514 C   0  0  0  0  0  0  0  0  0  0  0  0
   -2.9741   -4.5673  -30.4826 C   0  0  0  0  0  0  0  0  0  0  0  0
   -2.3842   -3.3494  -30.1081 C   0  0  0  0  0  0  0  0  0  0  0  0
   -0.9956   -3.2336  -30.0275 C   0  0  0  0  0  0  0  0  0  0  0  0
   -0.1982   -4.3357  -30.3115 C   0  0  0  0  0  0  0  0  0  0  0  0
    1.1343   -4.2234  -30.2329 F   0  0  0  0  0  0  0  0  0  0  0  0
   -0.7623   -5.5538  -30.6702 C   0  0  0  0  0  0  0  0  0  0  0  0
   -2.1505   -5.6723  -30.7514 C   0  0  0  0  0  0  0  0  0  0  0  0
 12 13  1  0
 13 14  1  0
 14 15  2  0
 14  8  1  0
  8  9  1  0
  8  7  1  0
  7  1  1  0
  1  2  2  0
  2  3  1  0
  3  4  2  0
  4 17  1  0
 17 18  1  0
 18 19  1  0
 19 20  2  0
 20 21  1  0
 21 22  2  0
 22 23  1  0
 22 24  1  0
 24 25  2  0
  4  5  1  0
  5  6  2  0
  6  1  1  0
 25 19  1  0
 13 16  1  0
  9 10  1  0
  9 11  1  0
M  END
> <minimizedAffinity>
-6.92053

> <CNNscore>
0.7787187696

> <CNNaffinity>
4.6354470253

> <CNN_VS>
3.6097095013

> <CNNaffinity_variance>
0.6115635037

$$$$



 25 26  0  0  0  0  0  0  0  0999 V2000
   -9.1543   -2.5489  -31.2964 C   0  0  0  0  0  0  0  0  0  0  0  0
   -8.1535   -1.7058  -31.7910 C   0  0  0  0  0  0  0  0  0  0  0  0
   -6.8087   -1.9876  -31.5411 C   0  0  0  0  0  0  0  0  0  0  0  0
   -6.4400   -3.1082  -30.7940 C   0  0  0  0  0  0  0  0  0  0  0  0
   -7.4336   -3.9499  -30.2956 C   0  0  0  0  0  0  0  0  0  0  0  0
   -8.7822   -3.6710  -30.5451 C   0  0  0  0  0  0  0  0  0  0  0  0
  -10.6120   -2.2613  -31.5779 C   0  0  0  0  0  0  0  0  0  0  0  0
  -11.2974   -1.4300  -30.4775 C   0  0  0  0  0  0  0  0  0  0  0  0
  -10.4055   -1.1438  -29.3169 N   0  0  0  0  0  0  0  0  0  0  0  0
  -10.1442   -2.0200  -28.8648 H   0  0  0  0  0  0  0  0  0  0  0  0
  -10.8968   -0.5498  -28.6490 H   0  0  0  0  0  0  0  0  0  0  0  0
  -13.5370   -4.3939  -29.6878 C   0  0  0  0  0  0  0  0  0  0  0  0
  -12.4294   -3.5268  -29.9838 N   0  0  0  0  0  0  0  0  0  0  0  0
  -12.5653   -2.1516  -29.9684 C   0  0  0  0  0  0  0  0  0  0  0  0
  -13.5645   -1.5712  -29.5579 O   0  0  0  0  0  0  0  0  0  0  0  0
  -11.5543   -3.9215  -30.2023 H   0  0  0  0  0  0  0  0  0  0  0  0
   -5.0921   -3.2625  -30.6276 O   0  0  0  0  0  0  0  0  0  0  0  0
   -4.6029   -4.5931  -30.4881 C   0  0  0  0  0  0  0  0  0  0  0  0
   -3.0960   -4.5290  -30.4174 C   0  0  0  0  0  0  0  0  0  0  0  0
   -2.3230   -5.6713  -30.6802 C   0  0  0  0  0  0  0  0  0  0  0  0
   -0.9296   -5.6065  -30.6321 C   0  0  0  0  0  0  0  0  0  0  0  0
   -0.3095   -4.3999  -30.3312 C   0  0  0  0  0  0  0  0  0  0  0  0
    1.0279   -4.3389  -30.2863 F   0  0  0  0  0  0  0  0  0  0  0  0
   -1.0554   -3.2545  -30.0820 C   0  0  0  0  0  0  0  0  0  0  0  0
   -2.4489   -3.3165  -30.1295 C   0  0  0  0  0  0  0  0  0  0  0  0
 12 13  1  0
 13 14  1  0
 14 15  2  0
 14  8  1  0
  8  9  1  0
  8  7  1  0
  7  1  1  0
  1  2  2  0
  2  3  1  0
  3  4  2  0
  4 17  1  0
 17 18  1  0
 18 19  1  0
 19 20  2  0
 20 21  1  0
 21 22  2  0
 22 23  1  0
 22 24  1  0
 24 25  2  0
  4  5  1  0
  5  6  2  0
  6  1  1  0
 25 19  1  0
 13 16  1  0
  9 10  1  0
  9 11  1  0
M  END
> <minimizedAffinity>
-7.24918

> <CNNscore>
0.7066830397

> <CNNaffinity>
4.8493733406

> <CNN_VS>
3.4269700050

> <CNNaffinity_variance>
0.4221076965

$$$$



 25 26  0  0  0  0  0  0  0  0999 V2000
  -12.3242   -2.0794  -26.7559 C   0  0  0  0  0  0  0  0  0  0  0  0
  -12.8476   -3.0961  -27.5618 C   0  0  0  0  0  0  0  0  0  0  0  0
  -11.9953   -3.9054  -28.3163 C   0  0  0  0  0  0  0  0  0  0  0  0
  -10.6126   -3.7136  -28.2832 C   0  0  0  0  0  0  0  0  0  0  0  0
  -10.0858   -2.6994  -27.4843 C   0  0  0  0  0  0  0  0  0  0  0  0
  -10.9370   -1.8873  -26.7262 C   0  0  0  0  0  0  0  0  0  0  0  0
  -13.2384   -1.2106  -25.9216 C   0  0  0  0  0  0  0  0  0  0  0  0
  -13.2346    0.2697  -26.3463 C   0  0  0  0  0  0  0  0  0  0  0  0
  -14.0113    1.1468  -25.4234 N   0  0  0  0  0  0  0  0  0  0  0  0
  -14.9926    0.8689  -25.4356 H   0  0  0  0  0  0  0  0  0  0  0  0
  -13.9289    2.1172  -25.7268 H   0  0  0  0  0  0  0  0  0  0  0  0
  -13.1781    1.1612  -30.0376 C   0  0  0  0  0  0  0  0  0  0  0  0
  -12.8380    0.8212  -28.6830 N   0  0  0  0  0  0  0  0  0  0  0  0
  -13.8009    0.4214  -27.7758 C   0  0  0  0  0  0  0  0  0  0  0  0
  -14.9628    0.1753  -28.0811 O   0  0  0  0  0  0  0  0  0  0  0  0
  -11.8981    0.8744  -28.3949 H   0  0  0  0  0  0  0  0  0  0  0  0
   -9.8999   -4.5761  -29.0685 O   0  0  0  0  0  0  0  0  0  0  0  0
   -8.5005   -4.3390  -29.1893 C   0  0  0  0  0  0  0  0  0  0  0  0
   -8.2726   -3.5331  -30.4457 C   0  0  0  0  0  0  0  0  0  0  0  0
   -9.3073   -3.3660  -31.3802 C   0  0  0  0  0  0  0  0  0  0  0  0
   -9.1010   -2.6060  -32.5325 C   0  0  0  0  0  0  0  0  0  0  0  0
   -7.8659   -2.0060  -32.7460 C   0  0  0  0  0  0  0  0  0  0  0  0
   -7.6696   -1.2760  -33.8519 F   0  0  0  0  0  0  0  0  0  0  0  0
   -6.8334   -2.1470  -31.8270 C   0  0  0  0  0  0  0  0  0  0  0  0
   -7.0369   -2.9064  -30.6738 C   0  0  0  0  0  0  0  0  0  0  0  0
 12 13  1  0
 13 14  1  0
 14 15  2  0
 14  8  1  0
  8  9  1  0
  8  7  1  0
  7  1  1  0
  1  2  2  0
  2  3  1  0
  3  4  2  0
  4 17  1  0
 17 18  1  0
 18 19  1  0
 19 20  2  0
 20 21  1  0
 21 22  2  0
 22 23  1  0
 22 24  1  0
 24 25  2  0
  4  5  1  0
  5  6  2  0
  6  1  1  0
 25 19  1  0
 13 16  1  0
  9 10  1  0
  9 11  1  0
M  END
> <minimizedAffinity>
-4.74853

> <CNNscore>
0.5689145923

> <CNNaffinity>
3.9041187763

> <CNN_VS>
2.2211101055

> <CNNaffinity_variance>
0.6136761308

$$$$



 25 26  0  0  0  0  0  0  0  0999 V2000
   -8.8002   -2.8211  -30.6377 C   0  0  0  0  0  0  0  0  0  0  0  0
   -7.9402   -1.9068  -31.2556 C   0  0  0  0  0  0  0  0  0  0  0  0
   -6.5743   -2.1809  -31.3539 C   0  0  0  0  0  0  0  0  0  0  0  0
   -6.0438   -3.3647  -30.8370 C   0  0  0  0  0  0  0  0  0  0  0  0
   -6.8959   -4.2778  -30.2170 C   0  0  0  0  0  0  0  0  0  0  0  0
   -8.2653   -4.0067  -30.1178 C   0  0  0  0  0  0  0  0  0  0  0  0
  -10.2831   -2.5407  -30.5434 C   0  0  0  0  0  0  0  0  0  0  0  0
  -10.6119   -1.0621  -30.2651 C   0  0  0  0  0  0  0  0  0  0  0  0
  -11.5560   -0.8754  -29.1257 N   0  0  0  0  0  0  0  0  0  0  0  0
  -12.4511   -1.3092  -29.3513 H   0  0  0  0  0  0  0  0  0  0  0  0
  -11.6938    0.1212  -28.9582 H   0  0  0  0  0  0  0  0  0  0  0  0
  -11.4779    1.7898  -32.6189 C   0  0  0  0  0  0  0  0  0  0  0  0
  -10.9035    0.9481  -31.6050 N   0  0  0  0  0  0  0  0  0  0  0  0
  -11.2100   -0.3970  -31.5249 C   0  0  0  0  0  0  0  0  0  0  0  0
  -11.8494   -1.0012  -32.3794 O   0  0  0  0  0  0  0  0  0  0  0  0
  -10.2777    1.3387  -30.9531 H   0  0  0  0  0  0  0  0  0  0  0  0
   -4.6941   -3.5031  -31.0030 O   0  0  0  0  0  0  0  0  0  0  0  0
   -3.9991   -4.2924  -30.0422 C   0  0  0  0  0  0  0  0  0  0  0  0
   -3.4529   -5.5100  -30.7489 C   0  0  0  0  0  0  0  0  0  0  0  0
   -2.2644   -5.4270  -31.4918 C   0  0  0  0  0  0  0  0  0  0  0  0
   -1.7509   -6.5572  -32.1297 C   0  0  0  0  0  0  0  0  0  0  0  0
   -2.4190   -7.7705  -32.0175 C   0  0  0  0  0  0  0  0  0  0  0  0
   -1.9247   -8.8547  -32.6295 F   0  0  0  0  0  0  0  0  0  0  0  0
   -3.5889   -7.8774  -31.2755 C   0  0  0  0  0  0  0  0  0  0  0  0
   -4.1044   -6.7488  -30.6365 C   0  0  0  0  0  0  0  0  0  0  0  0
 12 13  1  0
 13 14  1  0
 14 15  2  0
 14  8  1  0
  8  9  1  0
  8  7  1  0
  7  1  1  0
  1  2  2  0
  2  3  1  0
  3  4  2  0
  4 17  1  0
 17 18  1  0
 18 19  1  0
 19 20  2  0
 20 21  1  0
 21 22  2  0
 22 23  1  0
 22 24  1  0
 24 25  2  0
  4  5  1  0
  5  6  2  0
  6  1  1  0
 25 19  1  0
 13 16  1  0
  9 10  1  0
  9 11  1  0
M  END
> <minimizedAffinity>
-6.87680

> <CNNscore>
0.5374497771

> <CNNaffinity>
4.4572319984

> <CNN_VS>
2.3955383301

> <CNNaffinity_variance>
0.6861895919

$$$$



 25 26  0  0  0  0  0  0  0  0999 V2000
  -11.1273   -2.9074  -29.3095 C   0  0  0  0  0  0  0  0  0  0  0  0
  -10.1210   -2.3011  -30.0692 C   0  0  0  0  0  0  0  0  0  0  0  0
   -8.8311   -2.8361  -30.0839 C   0  0  0  0  0  0  0  0  0  0  0  0
   -8.5223   -3.9780  -29.3417 C   0  0  0  0  0  0  0  0  0  0  0  0
   -9.5206   -4.5842  -28.5800 C   0  0  0  0  0  0  0  0  0  0  0  0
  -10.8146   -4.0512  -28.5639 C   0  0  0  0  0  0  0  0  0  0  0  0
  -12.5311   -2.3454  -29.3026 C   0  0  0  0  0  0  0  0  0  0  0  0
  -13.0470   -1.9646  -30.7028 C   0  0  0  0  0  0  0  0  0  0  0  0
  -13.1222   -0.4910  -30.9196 N   0  0  0  0  0  0  0  0  0  0  0  0
  -13.7948   -0.0855  -30.2688 H   0  0  0  0  0  0  0  0  0  0  0  0
  -13.4196   -0.3030  -31.8770 H   0  0  0  0  0  0  0  0  0  0  0  0
  -15.6002   -4.7396  -31.1549 C   0  0  0  0  0  0  0  0  0  0  0  0
  -14.4410   -3.9553  -30.8272 N   0  0  0  0  0  0  0  0  0  0  0  0
  -14.4436   -2.5786  -30.9475 C   0  0  0  0  0  0  0  0  0  0  0  0
  -15.4499   -1.9179  -31.1811 O   0  0  0  0  0  0  0  0  0  0  0  0
  -13.6270   -4.4091  -30.5099 H   0  0  0  0  0  0  0  0  0  0  0  0
   -7.2240   -4.3920  -29.4488 O   0  0  0  0  0  0  0  0  0  0  0  0
   -6.6682   -4.4547  -30.7588 C   0  0  0  0  0  0  0  0  0  0  0  0
   -5.1804   -4.6732  -30.6222 C   0  0  0  0  0  0  0  0  0  0  0  0
   -4.6371   -5.9621  -30.7449 C   0  0  0  0  0  0  0  0  0  0  0  0
   -3.2598   -6.1603  -30.6363 C   0  0  0  0  0  0  0  0  0  0  0  0
   -2.4259   -5.0711  -30.4150 C   0  0  0  0  0  0  0  0  0  0  0  0
   -1.1041   -5.2626  -30.3119 F   0  0  0  0  0  0  0  0  0  0  0  0
   -2.9416   -3.7856  -30.3047 C   0  0  0  0  0  0  0  0  0  0  0  0
   -4.3185   -3.5845  -30.4130 C   0  0  0  0  0  0  0  0  0  0  0  0
 12 13  1  0
 13 14  1  0
 14 15  2  0
 14  8  1  0
  8  9  1  0
  8  7  1  0
  7  1  1  0
  1  2  2  0
  2  3  1  0
  3  4  2  0
  4 17  1  0
 17 18  1  0
 18 19  1  0
 19 20  2  0
 20 21  1  0
 21 22  2  0
 22 23  1  0
 22 24  1  0
 24 25  2  0
  4  5  1  0
  5  6  2  0
  6  1  1  0
 25 19  1  0
 13 16  1  0
  9 10  1  0
  9 11  1  0
M  END
> <minimizedAffinity>
-4.80505

> <CNNscore>
0.5191202164

> <CNNaffinity>
4.6119346619

> <CNN_VS>
2.3941485882

> <CNNaffinity_variance>
0.1545540988

$$$$
