


 30 33  0  0  0  0  0  0  0  0999 V2000
   59.2849   15.8580   48.9325 C   0  0  0  0  0  0  0  0  0  0  0  0
   59.3174   15.8927   50.3305 C   0  0  0  0  0  0  0  0  0  0  0  0
   58.6029   14.9579   51.0950 C   0  0  0  0  0  0  0  0  0  0  0  0
   57.8441   13.9697   50.4367 C   0  0  0  0  0  0  0  0  0  0  0  0
   57.0035   12.8784   50.8197 C   0  0  0  0  0  0  0  0  0  0  0  0
   56.5130   12.2427   49.7451 N   0  0  0  0  0  0  0  0  0  0  0  0
   57.0322   12.9056   48.7014 N   0  0  0  0  0  0  0  0  0  0  0  0
   57.8395   13.9534   49.0471 C   0  0  0  0  0  0  0  0  0  0  0  0
   58.5506   14.8692   48.2632 C   0  0  0  0  0  0  0  0  0  0  0  0
   56.8478   12.6588   47.7663 H   0  0  0  0  0  0  0  0  0  0  0  0
   56.7073   12.5102   52.1748 C   0  0  0  0  0  0  0  0  0  0  0  0
   57.1479   13.1691   53.2610 C   0  0  0  0  0  0  0  0  0  0  0  0
   56.8576   12.8125   54.6527 C   0  0  0  0  0  0  0  0  0  0  0  0
   55.6186   12.3353   55.0755 C   0  0  0  0  0  0  0  0  0  0  0  0
   55.4498   11.9928   56.4161 C   0  0  0  0  0  0  0  0  0  0  0  0
   56.5192   12.1241   57.2923 C   0  0  0  0  0  0  0  0  0  0  0  0
   57.7203   12.5904   56.7874 C   0  0  0  0  0  0  0  0  0  0  0  0
   57.9121   12.9301   55.4937 N   0  0  0  0  0  0  0  0  0  0  0  0
   60.2148   17.0764   48.0081 S   0  0  0  0  0  0  0  0  0  0  0  0
   62.7836   17.8879   48.8798 C   0  0  0  0  0  0  0  0  0  0  0  0
   64.0040   17.6383   49.5292 C   0  0  0  0  0  0  0  0  0  0  0  0
   64.3046   16.3623   50.0039 C   0  0  0  0  0  0  0  0  0  0  0  0
   63.3824   15.3306   49.8461 C   0  0  0  0  0  0  0  0  0  0  0  0
   62.1574   15.5766   49.2199 C   0  0  0  0  0  0  0  0  0  0  0  0
   61.8386   16.8572   48.7356 C   0  0  0  0  0  0  0  0  0  0  0  0
   63.5192   21.5345   48.2096 C   0  0  0  0  0  0  0  0  0  0  0  0
   63.5665   20.1802   48.6996 N   0  0  0  0  0  0  0  0  0  0  0  0
   62.5649   19.2800   48.4158 C   0  0  0  0  0  0  0  0  0  0  0  0
   61.5237   19.5681   47.8364 O   0  0  0  0  0  0  0  0  0  0  0  0
   64.3314   19.8929   49.2488 H   0  0  0  0  0  0  0  0  0  0  0  0
 26 27  1  0
 27 28  1  0
 28 29  2  0
 28 20  1  0
 20 21  2  0
 21 22  1  0
 22 23  2  0
 23 24  1  0
 24 25  2  0
 25 19  1  0
 19  1  1  0
  1  2  2  0
  2  3  1  0
  3  4  2  0
  4  5  1  0
  5 11  1  0
 11 12  2  0
 12 13  1  0
 13 14  2  0
 14 15  1  0
 15 16  2  0
 16 17  1  0
 17 18  2  0
  5  6  2  0
  6  7  1  0
  7  8  1  0
  8  9  2  0
 25 20  1  0
  9  1  1  0
  8  4  1  0
 18 13  1  0
 27 30  1  0
  7 10  1  0
M  END
> <minimizedAffinity>
-11.49069

> <CNNscore>
0.9939173460

> <CNNaffinity>
8.1147384644

> <CNN_VS>
8.0653791428

> <CNNaffinity_variance>
0.0111732064

$$$$



 30 33  0  0  0  0  0  0  0  0999 V2000
   59.6100   16.0450   48.1626 C   0  0  0  0  0  0  0  0  0  0  0  0
   59.9158   16.2521   49.5119 C   0  0  0  0  0  0  0  0  0  0  0  0
   59.3409   15.4573   50.5150 C   0  0  0  0  0  0  0  0  0  0  0  0
   58.4433   14.4342   50.1498 C   0  0  0  0  0  0  0  0  0  0  0  0
   57.6663   13.4431   50.8266 C   0  0  0  0  0  0  0  0  0  0  0  0
   56.9594   12.7039   49.9587 N   0  0  0  0  0  0  0  0  0  0  0  0
   57.2814   13.2043   48.7569 N   0  0  0  0  0  0  0  0  0  0  0  0
   58.1670   14.2450   48.8010 C   0  0  0  0  0  0  0  0  0  0  0  0
   58.7343   15.0187   47.7820 C   0  0  0  0  0  0  0  0  0  0  0  0
   56.9118   12.8524   47.9150 H   0  0  0  0  0  0  0  0  0  0  0  0
   57.6312   13.2623   52.2499 C   0  0  0  0  0  0  0  0  0  0  0  0
   56.7408   12.4947   52.9025 C   0  0  0  0  0  0  0  0  0  0  0  0
   56.6867   12.2944   54.3535 C   0  0  0  0  0  0  0  0  0  0  0  0
   55.8284   11.3839   54.9665 C   0  0  0  0  0  0  0  0  0  0  0  0
   55.8736   11.2428   56.3525 C   0  0  0  0  0  0  0  0  0  0  0  0
   56.7771   12.0015   57.0851 C   0  0  0  0  0  0  0  0  0  0  0  0
   57.6051   12.8706   56.3968 C   0  0  0  0  0  0  0  0  0  0  0  0
   57.5826   13.0282   55.0549 N   0  0  0  0  0  0  0  0  0  0  0  0
   60.3721   17.0900   46.9253 S   0  0  0  0  0  0  0  0  0  0  0  0
   62.6435   17.3864   48.5896 C   0  0  0  0  0  0  0  0  0  0  0  0
   63.5544   18.1791   49.3074 C   0  0  0  0  0  0  0  0  0  0  0  0
   63.3622   19.5558   49.4149 C   0  0  0  0  0  0  0  0  0  0  0  0
   62.2670   20.1519   48.7944 C   0  0  0  0  0  0  0  0  0  0  0  0
   61.3683   19.3724   48.0610 C   0  0  0  0  0  0  0  0  0  0  0  0
   61.5474   17.9831   47.9425 C   0  0  0  0  0  0  0  0  0  0  0  0
   63.6502   13.9507   49.8026 C   0  0  0  0  0  0  0  0  0  0  0  0
   63.4230   15.3698   49.6969 N   0  0  0  0  0  0  0  0  0  0  0  0
   62.9434   15.9343   48.5369 C   0  0  0  0  0  0  0  0  0  0  0  0
   62.7785   15.3201   47.4890 O   0  0  0  0  0  0  0  0  0  0  0  0
   63.6148   15.9476   50.4706 H   0  0  0  0  0  0  0  0  0  0  0  0
 26 27  1  0
 27 28  1  0
 28 29  2  0
 28 20  1  0
 20 21  2  0
 21 22  1  0
 22 23  2  0
 23 24  1  0
 24 25  2  0
 25 19  1  0
 19  1  1  0
  1  2  2  0
  2  3  1  0
  3  4  2  0
  4  5  1  0
  5 11  1  0
 11 12  2  0
 12 13  1  0
 13 14  2  0
 14 15  1  0
 15 16  2  0
 16 17  1  0
 17 18  2  0
  5  6  2  0
  6  7  1  0
  7  8  1  0
  8  9  2  0
 25 20  1  0
  9  1  1  0
  8  4  1  0
 18 13  1  0
 27 30  1  0
  7 10  1  0
M  END
> <minimizedAffinity>
-9.51747

> <CNNscore>
0.9726509452

> <CNNaffinity>
8.1691713333

> <CNN_VS>
7.9457521439

> <CNNaffinity_variance>
0.0151652237

$$$$



 30 33  0  0  0  0  0  0  0  0999 V2000
   60.4902   17.1084   48.0862 C   0  0  0  0  0  0  0  0  0  0  0  0
   60.1571   17.1514   49.4441 C   0  0  0  0  0  0  0  0  0  0  0  0
   59.2879   16.2047   50.0070 C   0  0  0  0  0  0  0  0  0  0  0  0
   58.7470   15.1958   49.1853 C   0  0  0  0  0  0  0  0  0  0  0  0
   57.8585   14.0877   49.3488 C   0  0  0  0  0  0  0  0  0  0  0  0
   57.6777   13.4350   48.1909 N   0  0  0  0  0  0  0  0  0  0  0  0
   58.4367   14.1038   47.3106 N   0  0  0  0  0  0  0  0  0  0  0  0
   59.1045   15.1718   47.8425 C   0  0  0  0  0  0  0  0  0  0  0  0
   59.9759   16.0993   47.2601 C   0  0  0  0  0  0  0  0  0  0  0  0
   58.5071   13.8478   46.3626 H   0  0  0  0  0  0  0  0  0  0  0  0
   57.2277   13.7202   50.5844 C   0  0  0  0  0  0  0  0  0  0  0  0
   57.8832   13.4272   51.7212 C   0  0  0  0  0  0  0  0  0  0  0  0
   57.2607   13.0510   52.9938 C   0  0  0  0  0  0  0  0  0  0  0  0
   56.5901   11.8451   53.1880 C   0  0  0  0  0  0  0  0  0  0  0  0
   56.0585   11.5644   54.4455 C   0  0  0  0  0  0  0  0  0  0  0  0
   56.2189   12.4843   55.4735 C   0  0  0  0  0  0  0  0  0  0  0  0
   56.9121   13.6503   55.2005 C   0  0  0  0  0  0  0  0  0  0  0  0
   57.4373   13.9487   53.9917 N   0  0  0  0  0  0  0  0  0  0  0  0
   61.6032   18.3427   47.4216 S   0  0  0  0  0  0  0  0  0  0  0  0
   63.6094   19.5098   49.0432 C   0  0  0  0  0  0  0  0  0  0  0  0
   64.5125   19.4615   50.1182 C   0  0  0  0  0  0  0  0  0  0  0  0
   64.6893   18.2825   50.8410 C   0  0  0  0  0  0  0  0  0  0  0  0
   63.9549   17.1480   50.5041 C   0  0  0  0  0  0  0  0  0  0  0  0
   63.0392   17.1947   49.4493 C   0  0  0  0  0  0  0  0  0  0  0  0
   62.8488   18.3754   48.7105 C   0  0  0  0  0  0  0  0  0  0  0  0
   64.6896   22.5831   47.1258 C   0  0  0  0  0  0  0  0  0  0  0  0
   64.6772   21.3738   47.9094 N   0  0  0  0  0  0  0  0  0  0  0  0
   63.4976   20.8135   48.3439 C   0  0  0  0  0  0  0  0  0  0  0  0
   62.3961   21.3334   48.2056 O   0  0  0  0  0  0  0  0  0  0  0  0
   65.5303   20.9394   48.1387 H   0  0  0  0  0  0  0  0  0  0  0  0
 26 27  1  0
 27 28  1  0
 28 29  2  0
 28 20  1  0
 20 21  2  0
 21 22  1  0
 22 23  2  0
 23 24  1  0
 24 25  2  0
 25 19  1  0
 19  1  1  0
  1  2  2  0
  2  3  1  0
  3  4  2  0
  4  5  1  0
  5 11  1  0
 11 12  2  0
 12 13  1  0
 13 14  2  0
 14 15  1  0
 15 16  2  0
 16 17  1  0
 17 18  2  0
  5  6  2  0
  6  7  1  0
  7  8  1  0
  8  9  2  0
 25 20  1  0
  9  1  1  0
  8  4  1  0
 18 13  1  0
 27 30  1  0
  7 10  1  0
M  END
> <minimizedAffinity>
-9.80607

> <CNNscore>
0.7892530560

> <CNNaffinity>
7.8520779610

> <CNN_VS>
6.1972765923

> <CNNaffinity_variance>
0.0206311941

$$$$



 30 33  0  0  0  0  0  0  0  0999 V2000
   56.5363   11.9099   53.7289 C   0  0  0  0  0  0  0  0  0  0  0  0
   57.4269   12.9179   54.1130 C   0  0  0  0  0  0  0  0  0  0  0  0
   58.0283   13.7545   53.1607 C   0  0  0  0  0  0  0  0  0  0  0  0
   57.7237   13.5719   51.7970 C   0  0  0  0  0  0  0  0  0  0  0  0
   58.1025   14.1759   50.5577 C   0  0  0  0  0  0  0  0  0  0  0  0
   57.4895   13.5843   49.5216 N   0  0  0  0  0  0  0  0  0  0  0  0
   56.7323   12.6310   50.0838 N   0  0  0  0  0  0  0  0  0  0  0  0
   56.8271   12.5696   51.4464 C   0  0  0  0  0  0  0  0  0  0  0  0
   56.2080   11.7286   52.3782 C   0  0  0  0  0  0  0  0  0  0  0  0
   56.1574   12.0271   49.5603 H   0  0  0  0  0  0  0  0  0  0  0  0
   59.0268   15.2661   50.4278 C   0  0  0  0  0  0  0  0  0  0  0  0
   60.0421   15.3083   49.5473 C   0  0  0  0  0  0  0  0  0  0  0  0
   60.9966   16.4104   49.3960 C   0  0  0  0  0  0  0  0  0  0  0  0
   60.6154   17.7105   49.0705 C   0  0  0  0  0  0  0  0  0  0  0  0
   61.5953   18.6977   48.9805 C   0  0  0  0  0  0  0  0  0  0  0  0
   62.9211   18.3658   49.2274 C   0  0  0  0  0  0  0  0  0  0  0  0
   63.2120   17.0546   49.5604 C   0  0  0  0  0  0  0  0  0  0  0  0
   62.2833   16.0777   49.6543 N   0  0  0  0  0  0  0  0  0  0  0  0
   55.7996   10.8712   54.9868 S   0  0  0  0  0  0  0  0  0  0  0  0
   56.2034   12.3658   57.3575 C   0  0  0  0  0  0  0  0  0  0  0  0
   55.8544   13.4020   58.2395 C   0  0  0  0  0  0  0  0  0  0  0  0
   54.7008   14.1550   58.0248 C   0  0  0  0  0  0  0  0  0  0  0  0
   53.8959   13.8875   56.9201 C   0  0  0  0  0  0  0  0  0  0  0  0
   54.2482   12.8721   56.0268 C   0  0  0  0  0  0  0  0  0  0  0  0
   55.4080   12.1036   56.2285 C   0  0  0  0  0  0  0  0  0  0  0  0
   58.4283    9.6289   58.7168 C   0  0  0  0  0  0  0  0  0  0  0  0
   57.3059   10.4863   58.4308 N   0  0  0  0  0  0  0  0  0  0  0  0
   57.4508   11.6294   57.6782 C   0  0  0  0  0  0  0  0  0  0  0  0
   58.5284   12.0672   57.2910 O   0  0  0  0  0  0  0  0  0  0  0  0
   56.4169   10.2494   58.7812 H   0  0  0  0  0  0  0  0  0  0  0  0
 26 27  1  0
 27 28  1  0
 28 29  2  0
 28 20  1  0
 20 21  2  0
 21 22  1  0
 22 23  2  0
 23 24  1  0
 24 25  2  0
 25 19  1  0
 19  1  1  0
  1  2  2  0
  2  3  1  0
  3  4  2  0
  4  5  1  0
  5 11  1  0
 11 12  2  0
 12 13  1  0
 13 14  2  0
 14 15  1  0
 15 16  2  0
 16 17  1  0
 17 18  2  0
  5  6  2  0
  6  7  1  0
  7  8  1  0
  8  9  2  0
 25 20  1  0
  9  1  1  0
  8  4  1  0
 18 13  1  0
 27 30  1  0
  7 10  1  0
M  END
> <minimizedAffinity>
-8.29760

> <CNNscore>
0.5721144676

> <CNNaffinity>
7.2616477013

> <CNN_VS>
4.1544938087

> <CNNaffinity_variance>
0.0859246254

$$$$



 30 33  0  0  0  0  0  0  0  0999 V2000
   56.3342   12.2300   55.7925 C   0  0  0  0  0  0  0  0  0  0  0  0
   57.0094   13.4494   55.6753 C   0  0  0  0  0  0  0  0  0  0  0  0
   57.4521   13.9151   54.4280 C   0  0  0  0  0  0  0  0  0  0  0  0
   57.2071   13.1373   53.2788 C   0  0  0  0  0  0  0  0  0  0  0  0
   57.4801   13.2372   51.8789 C   0  0  0  0  0  0  0  0  0  0  0  0
   57.0064   12.1726   51.2144 N   0  0  0  0  0  0  0  0  0  0  0  0
   56.4386   11.4143   52.1636 N   0  0  0  0  0  0  0  0  0  0  0  0
   56.5245   11.9356   53.4247 C   0  0  0  0  0  0  0  0  0  0  0  0
   56.0656   11.4544   54.6562 C   0  0  0  0  0  0  0  0  0  0  0  0
   55.9976   10.5559   51.9691 H   0  0  0  0  0  0  0  0  0  0  0  0
   58.1796   14.3254   51.2573 C   0  0  0  0  0  0  0  0  0  0  0  0
   58.1913   14.5728   49.9358 C   0  0  0  0  0  0  0  0  0  0  0  0
   58.8967   15.6774   49.2795 C   0  0  0  0  0  0  0  0  0  0  0  0
   59.9262   16.3932   49.8871 C   0  0  0  0  0  0  0  0  0  0  0  0
   60.5577   17.4071   49.1685 C   0  0  0  0  0  0  0  0  0  0  0  0
   60.1551   17.6709   47.8658 C   0  0  0  0  0  0  0  0  0  0  0  0
   59.1356   16.9023   47.3320 C   0  0  0  0  0  0  0  0  0  0  0  0
   58.5058   15.9144   48.0051 N   0  0  0  0  0  0  0  0  0  0  0  0
   55.7932   11.6845   57.4093 S   0  0  0  0  0  0  0  0  0  0  0  0
   53.1097   12.5710   57.2363 C   0  0  0  0  0  0  0  0  0  0  0  0
   51.7579   12.3629   56.9156 C   0  0  0  0  0  0  0  0  0  0  0  0
   51.3125   11.1053   56.5109 C   0  0  0  0  0  0  0  0  0  0  0  0
   52.2167   10.0508   56.4100 C   0  0  0  0  0  0  0  0  0  0  0  0
   53.5669   10.2556   56.7071 C   0  0  0  0  0  0  0  0  0  0  0  0
   54.0325   11.5173   57.1164 C   0  0  0  0  0  0  0  0  0  0  0  0
   53.2868   15.6678   59.3965 C   0  0  0  0  0  0  0  0  0  0  0  0
   52.9241   14.3921   58.8329 N   0  0  0  0  0  0  0  0  0  0  0  0
   53.4763   13.9467   57.6536 C   0  0  0  0  0  0  0  0  0  0  0  0
   54.2152   14.6180   56.9422 O   0  0  0  0  0  0  0  0  0  0  0  0
   52.2675   13.8275   59.3011 H   0  0  0  0  0  0  0  0  0  0  0  0
 26 27  1  0
 27 28  1  0
 28 29  2  0
 28 20  1  0
 20 21  2  0
 21 22  1  0
 22 23  2  0
 23 24  1  0
 24 25  2  0
 25 19  1  0
 19  1  1  0
  1  2  2  0
  2  3  1  0
  3  4  2  0
  4  5  1  0
  5 11  1  0
 11 12  2  0
 12 13  1  0
 13 14  2  0
 14 15  1  0
 15 16  2  0
 16 17  1  0
 17 18  2  0
  5  6  2  0
  6  7  1  0
  7  8  1  0
  8  9  2  0
 25 20  1  0
  9  1  1  0
  8  4  1  0
 18 13  1  0
 27 30  1  0
  7 10  1  0
M  END
> <minimizedAffinity>
-8.84579

> <CNNscore>
0.5418757796

> <CNNaffinity>
7.0444397926

> <CNN_VS>
3.8172113895

> <CNNaffinity_variance>
0.0718677714

$$$$



 30 33  0  0  0  0  0  0  0  0999 V2000
   56.4275   12.4607   55.1642 C   0  0  0  0  0  0  0  0  0  0  0  0
   57.1079   13.6755   55.0302 C   0  0  0  0  0  0  0  0  0  0  0  0
   57.5639   14.1161   53.7787 C   0  0  0  0  0  0  0  0  0  0  0  0
   57.3271   13.3174   52.6421 C   0  0  0  0  0  0  0  0  0  0  0  0
   57.6137   13.3899   51.2432 C   0  0  0  0  0  0  0  0  0  0  0  0
   57.1428   12.3143   50.5946 N   0  0  0  0  0  0  0  0  0  0  0  0
   56.5634   11.5760   51.5525 N   0  0  0  0  0  0  0  0  0  0  0  0
   56.6392   12.1209   52.8042 C   0  0  0  0  0  0  0  0  0  0  0  0
   56.1670   11.6645   54.0402 C   0  0  0  0  0  0  0  0  0  0  0  0
   56.1214   10.7154   51.3701 H   0  0  0  0  0  0  0  0  0  0  0  0
   58.3226   14.4639   50.6078 C   0  0  0  0  0  0  0  0  0  0  0  0
   59.6618   14.5703   50.5526 C   0  0  0  0  0  0  0  0  0  0  0  0
   60.4068   15.6562   49.9089 C   0  0  0  0  0  0  0  0  0  0  0  0
   59.8348   16.8835   49.5800 C   0  0  0  0  0  0  0  0  0  0  0  0
   60.6346   17.8657   48.9983 C   0  0  0  0  0  0  0  0  0  0  0  0
   61.9793   17.6030   48.7718 C   0  0  0  0  0  0  0  0  0  0  0  0
   62.4714   16.3640   49.1429 C   0  0  0  0  0  0  0  0  0  0  0  0
   61.7196   15.3936   49.7076 N   0  0  0  0  0  0  0  0  0  0  0  0
   55.8695   11.9477   56.7857 S   0  0  0  0  0  0  0  0  0  0  0  0
   57.6126   10.1088   58.0493 C   0  0  0  0  0  0  0  0  0  0  0  0
   58.8830    9.7298   58.5140 C   0  0  0  0  0  0  0  0  0  0  0  0
   59.9515   10.6238   58.4603 C   0  0  0  0  0  0  0  0  0  0  0  0
   59.7617   11.8972   57.9291 C   0  0  0  0  0  0  0  0  0  0  0  0
   58.5057   12.2739   57.4455 C   0  0  0  0  0  0  0  0  0  0  0  0
   57.4179   11.3846   57.4922 C   0  0  0  0  0  0  0  0  0  0  0  0
   56.0241    6.6804   58.1548 C   0  0  0  0  0  0  0  0  0  0  0  0
   56.9441    7.7747   57.9746 N   0  0  0  0  0  0  0  0  0  0  0  0
   56.5478    9.0808   58.1515 C   0  0  0  0  0  0  0  0  0  0  0  0
   55.3905    9.4271   58.3604 O   0  0  0  0  0  0  0  0  0  0  0  0
   57.8757    7.5841   57.7197 H   0  0  0  0  0  0  0  0  0  0  0  0
 26 27  1  0
 27 28  1  0
 28 29  2  0
 28 20  1  0
 20 21  2  0
 21 22  1  0
 22 23  2  0
 23 24  1  0
 24 25  2  0
 25 19  1  0
 19  1  1  0
  1  2  2  0
  2  3  1  0
  3  4  2  0
  4  5  1  0
  5 11  1  0
 11 12  2  0
 12 13  1  0
 13 14  2  0
 14 15  1  0
 15 16  2  0
 16 17  1  0
 17 18  2  0
  5  6  2  0
  6  7  1  0
  7  8  1  0
  8  9  2  0
 25 20  1  0
  9  1  1  0
  8  4  1  0
 18 13  1  0
 27 30  1  0
  7 10  1  0
M  END
> <minimizedAffinity>
-8.95826

> <CNNscore>
0.4245350659

> <CNNaffinity>
7.0039215088

> <CNN_VS>
2.9734103680

> <CNNaffinity_variance>
0.0065885498

$$$$



 30 33  0  0  0  0  0  0  0  0999 V2000
   56.2006   12.1452   55.3446 C   0  0  0  0  0  0  0  0  0  0  0  0
   56.9449   13.3259   55.4380 C   0  0  0  0  0  0  0  0  0  0  0  0
   57.5426   13.8968   54.3042 C   0  0  0  0  0  0  0  0  0  0  0  0
   57.3845   13.2660   53.0541 C   0  0  0  0  0  0  0  0  0  0  0  0
   57.8118   13.5012   51.7101 C   0  0  0  0  0  0  0  0  0  0  0  0
   57.3599   12.5471   50.8827 N   0  0  0  0  0  0  0  0  0  0  0  0
   56.6555   11.7263   51.6754 N   0  0  0  0  0  0  0  0  0  0  0  0
   56.6307   12.1003   52.9903 C   0  0  0  0  0  0  0  0  0  0  0  0
   56.0178   11.5167   54.1050 C   0  0  0  0  0  0  0  0  0  0  0  0
   56.1956   10.9233   51.3394 H   0  0  0  0  0  0  0  0  0  0  0  0
   58.6281   14.6053   51.2925 C   0  0  0  0  0  0  0  0  0  0  0  0
   59.5155   14.5627   50.2833 C   0  0  0  0  0  0  0  0  0  0  0  0
   60.3581   15.6768   49.8389 C   0  0  0  0  0  0  0  0  0  0  0  0
   59.8615   16.9524   49.5789 C   0  0  0  0  0  0  0  0  0  0  0  0
   60.7487   17.9550   49.1910 C   0  0  0  0  0  0  0  0  0  0  0  0
   62.1022   17.6628   49.0841 C   0  0  0  0  0  0  0  0  0  0  0  0
   62.5143   16.3744   49.3760 C   0  0  0  0  0  0  0  0  0  0  0  0
   61.6770   15.3833   49.7536 N   0  0  0  0  0  0  0  0  0  0  0  0
   55.4614   11.4609   56.8242 S   0  0  0  0  0  0  0  0  0  0  0  0
   55.5715   13.4731   58.8132 C   0  0  0  0  0  0  0  0  0  0  0  0
   55.1546   14.7012   59.3529 C   0  0  0  0  0  0  0  0  0  0  0  0
   54.1072   15.4116   58.7679 C   0  0  0  0  0  0  0  0  0  0  0  0
   53.4789   14.9072   57.6319 C   0  0  0  0  0  0  0  0  0  0  0  0
   53.9024   13.6964   57.0771 C   0  0  0  0  0  0  0  0  0  0  0  0
   54.9569   12.9676   57.6544 C   0  0  0  0  0  0  0  0  0  0  0  0
   59.1272   12.4705   59.6138 C   0  0  0  0  0  0  0  0  0  0  0  0
   57.9456   12.9828   58.9673 N   0  0  0  0  0  0  0  0  0  0  0  0
   56.6949   12.8017   59.5123 C   0  0  0  0  0  0  0  0  0  0  0  0
   56.4678   12.1161   60.5028 O   0  0  0  0  0  0  0  0  0  0  0  0
   58.0349   13.4725   58.1179 H   0  0  0  0  0  0  0  0  0  0  0  0
 26 27  1  0
 27 28  1  0
 28 29  2  0
 28 20  1  0
 20 21  2  0
 21 22  1  0
 22 23  2  0
 23 24  1  0
 24 25  2  0
 25 19  1  0
 19  1  1  0
  1  2  2  0
  2  3  1  0
  3  4  2  0
  4  5  1  0
  5 11  1  0
 11 12  2  0
 12 13  1  0
 13 14  2  0
 14 15  1  0
 15 16  2  0
 16 17  1  0
 17 18  2  0
  5  6  2  0
  6  7  1  0
  7  8  1  0
  8  9  2  0
 25 20  1  0
  9  1  1  0
  8  4  1  0
 18 13  1  0
 27 30  1  0
  7 10  1  0
M  END
> <minimizedAffinity>
-8.75726

> <CNNscore>
0.4158770144

> <CNNaffinity>
6.9154763222

> <CNN_VS>
2.8759875298

> <CNNaffinity_variance>
0.0643409267

$$$$



 30 33  0  0  0  0  0  0  0  0999 V2000
   56.0984   12.2496   55.1796 C   0  0  0  0  0  0  0  0  0  0  0  0
   56.7784   13.4684   55.2740 C   0  0  0  0  0  0  0  0  0  0  0  0
   57.4395   14.0167   54.1646 C   0  0  0  0  0  0  0  0  0  0  0  0
   57.4122   13.3236   52.9380 C   0  0  0  0  0  0  0  0  0  0  0  0
   57.9361   13.5190   51.6221 C   0  0  0  0  0  0  0  0  0  0  0  0
   57.5966   12.5077   50.8089 N   0  0  0  0  0  0  0  0  0  0  0  0
   56.8681   11.6896   51.5825 N   0  0  0  0  0  0  0  0  0  0  0  0
   56.7197   12.1204   52.8716 C   0  0  0  0  0  0  0  0  0  0  0  0
   56.0456   11.5580   53.9615 C   0  0  0  0  0  0  0  0  0  0  0  0
   56.4739   10.8507   51.2507 H   0  0  0  0  0  0  0  0  0  0  0  0
   58.7325   14.6421   51.2171 C   0  0  0  0  0  0  0  0  0  0  0  0
   59.6461   14.6169   50.2308 C   0  0  0  0  0  0  0  0  0  0  0  0
   60.4693   15.7505   49.7996 C   0  0  0  0  0  0  0  0  0  0  0  0
   59.9459   17.0118   49.5230 C   0  0  0  0  0  0  0  0  0  0  0  0
   60.8153   18.0354   49.1497 C   0  0  0  0  0  0  0  0  0  0  0  0
   62.1779   17.7776   49.0736 C   0  0  0  0  0  0  0  0  0  0  0  0
   62.6165   16.5015   49.3804 C   0  0  0  0  0  0  0  0  0  0  0  0
   61.7969   15.4908   49.7443 N   0  0  0  0  0  0  0  0  0  0  0  0
   55.2735   11.5968   56.6278 S   0  0  0  0  0  0  0  0  0  0  0  0
   56.0268   13.2560   58.7949 C   0  0  0  0  0  0  0  0  0  0  0  0
   56.9131   13.6207   59.8220 C   0  0  0  0  0  0  0  0  0  0  0  0
   58.1415   12.9756   59.9583 C   0  0  0  0  0  0  0  0  0  0  0  0
   58.4869   11.9525   59.0787 C   0  0  0  0  0  0  0  0  0  0  0  0
   57.6011   11.5701   58.0675 C   0  0  0  0  0  0  0  0  0  0  0  0
   56.3586   12.2100   57.9163 C   0  0  0  0  0  0  0  0  0  0  0  0
   52.4927   14.2601   59.6838 C   0  0  0  0  0  0  0  0  0  0  0  0
   53.7432   13.5536   59.5674 N   0  0  0  0  0  0  0  0  0  0  0  0
   54.7473   14.0051   58.7415 C   0  0  0  0  0  0  0  0  0  0  0  0
   54.6323   14.9522   57.9717 O   0  0  0  0  0  0  0  0  0  0  0  0
   53.8822   12.7307   60.0897 H   0  0  0  0  0  0  0  0  0  0  0  0
 26 27  1  0
 27 28  1  0
 28 29  2  0
 28 20  1  0
 20 21  2  0
 21 22  1  0
 22 23  2  0
 23 24  1  0
 24 25  2  0
 25 19  1  0
 19  1  1  0
  1  2  2  0
  2  3  1  0
  3  4  2  0
  4  5  1  0
  5 11  1  0
 11 12  2  0
 12 13  1  0
 13 14  2  0
 14 15  1  0
 15 16  2  0
 16 17  1  0
 17 18  2  0
  5  6  2  0
  6  7  1  0
  7  8  1  0
  8  9  2  0
 25 20  1  0
  9  1  1  0
  8  4  1  0
 18 13  1  0
 27 30  1  0
  7 10  1  0
M  END
> <minimizedAffinity>
-8.77451

> <CNNscore>
0.4003301859

> <CNNaffinity>
6.8985466957

> <CNN_VS>
2.7616965771

> <CNNaffinity_variance>
0.1232847944

$$$$



 30 33  0  0  0  0  0  0  0  0999 V2000
   56.1173   12.4470   56.0004 C   0  0  0  0  0  0  0  0  0  0  0  0
   56.8098   13.6550   55.8664 C   0  0  0  0  0  0  0  0  0  0  0  0
   57.3512   14.0464   54.6327 C   0  0  0  0  0  0  0  0  0  0  0  0
   57.1891   13.2048   53.5141 C   0  0  0  0  0  0  0  0  0  0  0  0
   57.5701   13.2229   52.1362 C   0  0  0  0  0  0  0  0  0  0  0  0
   57.1402   12.1237   51.4988 N   0  0  0  0  0  0  0  0  0  0  0  0
   56.4945   11.4235   52.4429 N   0  0  0  0  0  0  0  0  0  0  0  0
   56.4872   12.0162   53.6750 C   0  0  0  0  0  0  0  0  0  0  0  0
   55.9307   11.6084   54.8927 C   0  0  0  0  0  0  0  0  0  0  0  0
   56.0626   10.5571   52.2641 H   0  0  0  0  0  0  0  0  0  0  0  0
   58.3245   14.2708   51.5096 C   0  0  0  0  0  0  0  0  0  0  0  0
   58.6712   14.2931   50.2107 C   0  0  0  0  0  0  0  0  0  0  0  0
   59.4394   15.3520   49.5495 C   0  0  0  0  0  0  0  0  0  0  0  0
   60.7631   15.6472   49.8689 C   0  0  0  0  0  0  0  0  0  0  0  0
   61.4193   16.6526   49.1608 C   0  0  0  0  0  0  0  0  0  0  0  0
   60.7446   17.3256   48.1506 C   0  0  0  0  0  0  0  0  0  0  0  0
   59.4365   16.9595   47.8863 C   0  0  0  0  0  0  0  0  0  0  0  0
   58.7759   15.9899   48.5566 N   0  0  0  0  0  0  0  0  0  0  0  0
   55.4487   11.9976   57.5988 S   0  0  0  0  0  0  0  0  0  0  0  0
   57.8694   11.1083   58.7677 C   0  0  0  0  0  0  0  0  0  0  0  0
   58.7267   10.0862   59.2077 C   0  0  0  0  0  0  0  0  0  0  0  0
   58.4080    8.7483   58.9788 C   0  0  0  0  0  0  0  0  0  0  0  0
   57.2241    8.4220   58.3217 C   0  0  0  0  0  0  0  0  0  0  0  0
   56.3562    9.4329   57.8999 C   0  0  0  0  0  0  0  0  0  0  0  0
   56.6624   10.7867   58.1228 C   0  0  0  0  0  0  0  0  0  0  0  0
   58.2327   14.3557   60.6681 C   0  0  0  0  0  0  0  0  0  0  0  0
   57.8028   13.0562   60.2174 N   0  0  0  0  0  0  0  0  0  0  0  0
   58.3033   12.4958   59.0644 C   0  0  0  0  0  0  0  0  0  0  0  0
   59.0486   13.0766   58.2835 O   0  0  0  0  0  0  0  0  0  0  0  0
   57.1371   12.5588   60.7455 H   0  0  0  0  0  0  0  0  0  0  0  0
 26 27  1  0
 27 28  1  0
 28 29  2  0
 28 20  1  0
 20 21  2  0
 21 22  1  0
 22 23  2  0
 23 24  1  0
 24 25  2  0
 25 19  1  0
 19  1  1  0
  1  2  2  0
  2  3  1  0
  3  4  2  0
  4  5  1  0
  5 11  1  0
 11 12  2  0
 12 13  1  0
 13 14  2  0
 14 15  1  0
 15 16  2  0
 16 17  1  0
 17 18  2  0
  5  6  2  0
  6  7  1  0
  7  8  1  0
  8  9  2  0
 25 20  1  0
  9  1  1  0
  8  4  1  0
 18 13  1  0
 27 30  1  0
  7 10  1  0
M  END
> <minimizedAffinity>
-8.22532

> <CNNscore>
0.3270263672

> <CNNaffinity>
6.5933461189

> <CNN_VS>
2.1561980247

> <CNNaffinity_variance>
0.3442182243

$$$$
