


 39 42  0  0  0  0  0  0  0  0999 V2000
   34.7953  -28.6973   -2.3055 C   0  0  0  0  0  0  0  0  0  0  0  0
   33.6311  -27.9108   -2.2915 C   0  0  0  0  0  0  0  0  0  0  0  0
   32.6174  -28.1490   -1.3526 C   0  0  0  0  0  0  0  0  0  0  0  0
   31.4476  -27.3720   -1.3206 C   0  0  0  0  0  0  0  0  0  0  0  0
   30.4521  -27.6224   -0.3745 C   0  0  0  0  0  0  0  0  0  0  0  0
   30.6132  -28.6511    0.5494 C   0  0  0  0  0  0  0  0  0  0  0  0
   31.7685  -29.4334    0.5274 C   0  0  0  0  0  0  0  0  0  0  0  0
   32.7771  -29.1959   -0.4190 C   0  0  0  0  0  0  0  0  0  0  0  0
   33.9413  -29.9806   -0.4548 C   0  0  0  0  0  0  0  0  0  0  0  0
   34.9674  -29.7454   -1.3904 C   0  0  0  0  0  0  0  0  0  0  0  0
   35.5488  -28.8620   -4.5789 N   0  0  0  0  0  0  0  0  0  0  0  0
   35.8240  -28.3785   -3.3213 C   0  0  0  0  0  0  0  0  0  0  0  0
   36.8208  -27.7377   -3.0188 O   0  0  0  0  0  0  0  0  0  0  0  0
   34.6632  -29.2537   -4.7564 H   0  0  0  0  0  0  0  0  0  0  0  0
   36.5189  -28.8127   -5.6469 C   0  0  0  0  0  0  0  0  0  0  0  0
   35.4013  -25.7651   -8.5027 C   0  0  0  0  0  0  0  0  0  0  0  0
   35.0789  -25.6130   -7.1540 C   0  0  0  0  0  0  0  0  0  0  0  0
   35.4479  -26.5940   -6.2259 C   0  0  0  0  0  0  0  0  0  0  0  0
   36.1491  -27.7360   -6.6338 C   0  0  0  0  0  0  0  0  0  0  0  0
   36.4645  -27.8857   -7.9900 C   0  0  0  0  0  0  0  0  0  0  0  0
   36.0943  -26.9056   -8.9133 C   0  0  0  0  0  0  0  0  0  0  0  0
   34.6403  -25.4453  -10.7321 C   0  0  0  0  0  0  0  0  0  0  0  0
   35.0983  -24.8878   -9.5071 O   0  0  0  0  0  0  0  0  0  0  0  0
   36.1974  -30.6318   -1.3633 C   0  0  0  0  0  0  0  0  0  0  0  0
   36.0932  -31.7137   -0.3605 N   0  0  0  0  0  0  0  0  0  0  0  0
   37.4229  -32.2090    0.0076 C   0  0  0  0  0  0  0  0  0  0  0  0
   35.2703  -32.8292   -0.8556 C   0  0  0  0  0  0  0  0  0  0  0  0
   34.1617  -33.2292    0.0978 C   0  0  0  0  0  0  0  0  0  0  0  0
   34.0081  -32.5161    1.2981 C   0  0  0  0  0  0  0  0  0  0  0  0
   33.0123  -32.8634    2.2092 C   0  0  0  0  0  0  0  0  0  0  0  0
   32.1495  -33.9270    1.9396 C   0  0  0  0  0  0  0  0  0  0  0  0
   32.2753  -34.6592    0.7549 C   0  0  0  0  0  0  0  0  0  0  0  0
   33.2781  -34.3000   -0.1660 C   0  0  0  0  0  0  0  0  0  0  0  0
   33.4089  -35.0986   -1.4015 C   0  0  0  0  0  0  0  0  0  0  0  0
   34.3415  -35.8119   -1.7204 O   0  0  0  0  0  0  0  0  0  0  0  0
   32.3015  -34.9903   -2.1614 O   0  0  0  0  0  0  0  0  0  0  0  0
   31.5994  -34.4326   -1.8894 H   0  0  0  0  0  0  0  0  0  0  0  0
   31.4460  -35.6928    0.4034 O   0  0  0  0  0  0  0  0  0  0  0  0
   30.6348  -36.2577    1.4250 C   0  0  0  0  0  0  0  0  0  0  0  0
 22 23  1  0
 23 16  1  0
 16 17  2  0
 17 18  1  0
 18 19  2  0
 19 15  1  0
 15 11  1  0
 11 12  1  0
 12 13  2  0
 12  1  1  0
  1  2  2  0
  2  3  1  0
  3  4  2  0
  4  5  1  0
  5  6  2  0
  6  7  1  0
  7  8  2  0
  8  9  1  0
  9 10  2  0
 10 24  1  0
 24 25  1  0
 25 26  1  0
 25 27  1  0
 27 28  1  0
 28 29  2  0
 29 30  1  0
 30 31  2  0
 31 32  1  0
 32 38  1  0
 38 39  1  0
 32 33  2  0
 33 34  1  0
 34 35  2  0
 34 36  1  0
 19 20  1  0
 20 21  2  0
 21 16  1  0
 10  1  1  0
 33 28  1  0
  8  3  1  0
 11 14  1  0
 36 37  1  0
M  END
> <minimizedAffinity>
-8.48869

> <CNNscore>
0.9330946207

> <CNNaffinity>
6.2555065155

> <CNN_VS>
5.8369793892

> <CNNaffinity_variance>
0.6313181520

$$$$



 39 42  0  0  0  0  0  0  0  0999 V2000
   34.8510  -28.9467   -2.3282 C   0  0  0  0  0  0  0  0  0  0  0  0
   33.7888  -28.0271   -2.3192 C   0  0  0  0  0  0  0  0  0  0  0  0
   32.6959  -28.2041   -1.4589 C   0  0  0  0  0  0  0  0  0  0  0  0
   31.6259  -27.2944   -1.4329 C   0  0  0  0  0  0  0  0  0  0  0  0
   30.5491  -27.4861   -0.5654 C   0  0  0  0  0  0  0  0  0  0  0  0
   30.5285  -28.5879    0.2851 C   0  0  0  0  0  0  0  0  0  0  0  0
   31.5829  -29.5018    0.2680 C   0  0  0  0  0  0  0  0  0  0  0  0
   32.6711  -29.3244   -0.6002 C   0  0  0  0  0  0  0  0  0  0  0  0
   33.7350  -30.2408   -0.6308 C   0  0  0  0  0  0  0  0  0  0  0  0
   34.8397  -30.0685   -1.4873 C   0  0  0  0  0  0  0  0  0  0  0  0
   35.8348  -29.2749   -4.4934 N   0  0  0  0  0  0  0  0  0  0  0  0
   35.9733  -28.6866   -3.2581 C   0  0  0  0  0  0  0  0  0  0  0  0
   36.9246  -28.0011   -2.9102 O   0  0  0  0  0  0  0  0  0  0  0  0
   34.9777  -29.6996   -4.7264 H   0  0  0  0  0  0  0  0  0  0  0  0
   36.9080  -29.2887   -5.4589 C   0  0  0  0  0  0  0  0  0  0  0  0
   37.5435  -33.3356   -6.8412 C   0  0  0  0  0  0  0  0  0  0  0  0
   37.7036  -32.2627   -7.7184 C   0  0  0  0  0  0  0  0  0  0  0  0
   37.5075  -30.9508   -7.2708 C   0  0  0  0  0  0  0  0  0  0  0  0
   37.1550  -30.6951   -5.9393 C   0  0  0  0  0  0  0  0  0  0  0  0
   36.9900  -31.7767   -5.0653 C   0  0  0  0  0  0  0  0  0  0  0  0
   37.1857  -33.0842   -5.5152 C   0  0  0  0  0  0  0  0  0  0  0  0
   36.9719  -35.5935   -6.3653 C   0  0  0  0  0  0  0  0  0  0  0  0
   37.7009  -34.6585   -7.1499 O   0  0  0  0  0  0  0  0  0  0  0  0
   35.9526  -31.0979   -1.4593 C   0  0  0  0  0  0  0  0  0  0  0  0
   36.2282  -31.5964   -0.0945 N   0  0  0  0  0  0  0  0  0  0  0  0
   37.6468  -31.4370    0.2389 C   0  0  0  0  0  0  0  0  0  0  0  0
   35.8426  -33.0095    0.0505 C   0  0  0  0  0  0  0  0  0  0  0  0
   34.4813  -33.1997    0.6898 C   0  0  0  0  0  0  0  0  0  0  0  0
   34.0470  -32.2721    1.6510 C   0  0  0  0  0  0  0  0  0  0  0  0
   32.8095  -32.4209    2.2746 C   0  0  0  0  0  0  0  0  0  0  0  0
   31.9808  -33.4963    1.9499 C   0  0  0  0  0  0  0  0  0  0  0  0
   32.3827  -34.4389    0.9985 C   0  0  0  0  0  0  0  0  0  0  0  0
   33.6305  -34.2805    0.3657 C   0  0  0  0  0  0  0  0  0  0  0  0
   34.0467  -35.2980   -0.6207 C   0  0  0  0  0  0  0  0  0  0  0  0
   33.8885  -35.2608   -1.8265 O   0  0  0  0  0  0  0  0  0  0  0  0
   34.7042  -36.3082   -0.0185 O   0  0  0  0  0  0  0  0  0  0  0  0
   34.8101  -36.3090    0.9125 H   0  0  0  0  0  0  0  0  0  0  0  0
   31.6117  -35.5008    0.6014 O   0  0  0  0  0  0  0  0  0  0  0  0
   30.6785  -36.0193    1.5401 C   0  0  0  0  0  0  0  0  0  0  0  0
 22 23  1  0
 23 16  1  0
 16 17  2  0
 17 18  1  0
 18 19  2  0
 19 15  1  0
 15 11  1  0
 11 12  1  0
 12 13  2  0
 12  1  1  0
  1  2  2  0
  2  3  1  0
  3  4  2  0
  4  5  1  0
  5  6  2  0
  6  7  1  0
  7  8  2  0
  8  9  1  0
  9 10  2  0
 10 24  1  0
 24 25  1  0
 25 26  1  0
 25 27  1  0
 27 28  1  0
 28 29  2  0
 29 30  1  0
 30 31  2  0
 31 32  1  0
 32 38  1  0
 38 39  1  0
 32 33  2  0
 33 34  1  0
 34 35  2  0
 34 36  1  0
 19 20  1  0
 20 21  2  0
 21 16  1  0
 10  1  1  0
 33 28  1  0
  8  3  1  0
 11 14  1  0
 36 37  1  0
M  END
> <minimizedAffinity>
-7.68970

> <CNNscore>
0.8252766132

> <CNNaffinity>
5.8885631561

> <CNN_VS>
4.8596935272

> <CNNaffinity_variance>
0.3360871077

$$$$



 39 42  0  0  0  0  0  0  0  0999 V2000
   34.8335  -28.4734   -2.3089 C   0  0  0  0  0  0  0  0  0  0  0  0
   33.7063  -27.6347   -2.3030 C   0  0  0  0  0  0  0  0  0  0  0  0
   32.6354  -27.8806   -1.4321 C   0  0  0  0  0  0  0  0  0  0  0  0
   31.5012  -27.0522   -1.4092 C   0  0  0  0  0  0  0  0  0  0  0  0
   30.4476  -27.3116   -0.5309 C   0  0  0  0  0  0  0  0  0  0  0  0
   30.5144  -28.4006    0.3336 C   0  0  0  0  0  0  0  0  0  0  0  0
   31.6334  -29.2343    0.3197 C   0  0  0  0  0  0  0  0  0  0  0  0
   32.6995  -28.9883   -0.5591 C   0  0  0  0  0  0  0  0  0  0  0  0
   33.8280  -29.8239   -0.5866 C   0  0  0  0  0  0  0  0  0  0  0  0
   34.9110  -29.5818   -1.4538 C   0  0  0  0  0  0  0  0  0  0  0  0
   36.2622  -26.8101   -3.2864 N   0  0  0  0  0  0  0  0  0  0  0  0
   35.9270  -28.1433   -3.2507 C   0  0  0  0  0  0  0  0  0  0  0  0
   36.4560  -29.0178   -3.9224 O   0  0  0  0  0  0  0  0  0  0  0  0
   35.8717  -26.2017   -2.6180 H   0  0  0  0  0  0  0  0  0  0  0  0
   37.1693  -26.2753   -4.2740 C   0  0  0  0  0  0  0  0  0  0  0  0
   38.2798  -22.2216   -3.2608 C   0  0  0  0  0  0  0  0  0  0  0  0
   38.2702  -22.6327   -4.5938 C   0  0  0  0  0  0  0  0  0  0  0  0
   37.9020  -23.9421   -4.9253 C   0  0  0  0  0  0  0  0  0  0  0  0
   37.5329  -24.8546   -3.9285 C   0  0  0  0  0  0  0  0  0  0  0  0
   37.5503  -24.4376   -2.5918 C   0  0  0  0  0  0  0  0  0  0  0  0
   37.9187  -23.1310   -2.2646 C   0  0  0  0  0  0  0  0  0  0  0  0
   39.7293  -20.9005   -1.9172 C   0  0  0  0  0  0  0  0  0  0  0  0
   38.6207  -20.9786   -2.8038 O   0  0  0  0  0  0  0  0  0  0  0  0
   36.0972  -30.5257   -1.4216 C   0  0  0  0  0  0  0  0  0  0  0  0
   36.0034  -31.5152   -0.3266 N   0  0  0  0  0  0  0  0  0  0  0  0
   37.3386  -31.8925    0.1468 C   0  0  0  0  0  0  0  0  0  0  0  0
   35.2713  -32.7196   -0.7508 C   0  0  0  0  0  0  0  0  0  0  0  0
   34.1179  -33.0772    0.1656 C   0  0  0  0  0  0  0  0  0  0  0  0
   33.8785  -32.2814    1.2981 C   0  0  0  0  0  0  0  0  0  0  0  0
   32.8390  -32.5866    2.1748 C   0  0  0  0  0  0  0  0  0  0  0  0
   32.0172  -33.6897    1.9377 C   0  0  0  0  0  0  0  0  0  0  0  0
   32.2284  -34.5040    0.8207 C   0  0  0  0  0  0  0  0  0  0  0  0
   33.2751  -34.1876   -0.0663 C   0  0  0  0  0  0  0  0  0  0  0  0
   33.4958  -35.0718   -1.2287 C   0  0  0  0  0  0  0  0  0  0  0  0
   34.4160  -35.8499   -1.3961 O   0  0  0  0  0  0  0  0  0  0  0  0
   32.4867  -34.9593   -2.1143 O   0  0  0  0  0  0  0  0  0  0  0  0
   31.7916  -34.3507   -1.9579 H   0  0  0  0  0  0  0  0  0  0  0  0
   31.4442  -35.5824    0.5017 O   0  0  0  0  0  0  0  0  0  0  0  0
   30.7008  -36.1850    1.5529 C   0  0  0  0  0  0  0  0  0  0  0  0
 22 23  1  0
 23 16  1  0
 16 17  2  0
 17 18  1  0
 18 19  2  0
 19 15  1  0
 15 11  1  0
 11 12  1  0
 12 13  2  0
 12  1  1  0
  1  2  2  0
  2  3  1  0
  3  4  2  0
  4  5  1  0
  5  6  2  0
  6  7  1  0
  7  8  2  0
  8  9  1  0
  9 10  2  0
 10 24  1  0
 24 25  1  0
 25 26  1  0
 25 27  1  0
 27 28  1  0
 28 29  2  0
 29 30  1  0
 30 31  2  0
 31 32  1  0
 32 38  1  0
 38 39  1  0
 32 33  2  0
 33 34  1  0
 34 35  2  0
 34 36  1  0
 19 20  1  0
 20 21  2  0
 21 16  1  0
 10  1  1  0
 33 28  1  0
  8  3  1  0
 11 14  1  0
 36 37  1  0
M  END
> <minimizedAffinity>
-8.47212

> <CNNscore>
0.7998551130

> <CNNaffinity>
5.8737025261

> <CNN_VS>
4.6981110573

> <CNNaffinity_variance>
0.6578866243

$$$$



 39 42  0  0  0  0  0  0  0  0999 V2000
   34.7868  -28.9030   -2.0141 C   0  0  0  0  0  0  0  0  0  0  0  0
   33.7417  -27.9695   -2.1155 C   0  0  0  0  0  0  0  0  0  0  0  0
   32.5983  -28.0847   -1.3123 C   0  0  0  0  0  0  0  0  0  0  0  0
   31.5442  -27.1601   -1.3968 C   0  0  0  0  0  0  0  0  0  0  0  0
   30.4162  -27.2900   -0.5846 C   0  0  0  0  0  0  0  0  0  0  0  0
   30.3280  -28.3441    0.3202 C   0  0  0  0  0  0  0  0  0  0  0  0
   31.3659  -29.2723    0.4128 C   0  0  0  0  0  0  0  0  0  0  0  0
   32.5051  -29.1569   -0.3985 C   0  0  0  0  0  0  0  0  0  0  0  0
   33.5532  -30.0883   -0.3186 C   0  0  0  0  0  0  0  0  0  0  0  0
   34.7081  -29.9777   -1.1172 C   0  0  0  0  0  0  0  0  0  0  0  0
   36.7694  -27.6522   -2.5322 N   0  0  0  0  0  0  0  0  0  0  0  0
   35.9650  -28.7088   -2.8894 C   0  0  0  0  0  0  0  0  0  0  0  0
   36.1630  -29.4508   -3.8413 O   0  0  0  0  0  0  0  0  0  0  0  0
   36.6020  -27.1924   -1.6779 H   0  0  0  0  0  0  0  0  0  0  0  0
   37.8519  -27.1967   -3.3718 C   0  0  0  0  0  0  0  0  0  0  0  0
   41.1755  -25.9819   -0.8878 C   0  0  0  0  0  0  0  0  0  0  0  0
   40.7956  -27.3231   -0.9425 C   0  0  0  0  0  0  0  0  0  0  0  0
   39.7256  -27.7203   -1.7532 C   0  0  0  0  0  0  0  0  0  0  0  0
   39.0265  -26.7825   -2.5240 C   0  0  0  0  0  0  0  0  0  0  0  0
   39.4089  -25.4369   -2.4601 C   0  0  0  0  0  0  0  0  0  0  0  0
   40.4762  -25.0439   -1.6499 C   0  0  0  0  0  0  0  0  0  0  0  0
   43.0775  -24.5591   -0.7893 C   0  0  0  0  0  0  0  0  0  0  0  0
   42.1950  -25.4636   -0.1379 O   0  0  0  0  0  0  0  0  0  0  0  0
   35.7999  -31.0195   -0.9701 C   0  0  0  0  0  0  0  0  0  0  0  0
   35.5170  -32.2487   -1.7422 N   0  0  0  0  0  0  0  0  0  0  0  0
   34.1993  -32.1686   -2.3796 C   0  0  0  0  0  0  0  0  0  0  0  0
   35.5810  -33.4468   -0.8894 C   0  0  0  0  0  0  0  0  0  0  0  0
   34.4224  -33.5572    0.0818 C   0  0  0  0  0  0  0  0  0  0  0  0
   34.4114  -32.7367    1.2218 C   0  0  0  0  0  0  0  0  0  0  0  0
   33.3732  -32.8199    2.1479 C   0  0  0  0  0  0  0  0  0  0  0  0
   32.3253  -33.7213    1.9536 C   0  0  0  0  0  0  0  0  0  0  0  0
   32.3056  -34.5541    0.8305 C   0  0  0  0  0  0  0  0  0  0  0  0
   33.3528  -34.4614   -0.1063 C   0  0  0  0  0  0  0  0  0  0  0  0
   33.3253  -35.3642   -1.2749 C   0  0  0  0  0  0  0  0  0  0  0  0
   32.6089  -35.2770   -2.2544 O   0  0  0  0  0  0  0  0  0  0  0  0
   34.2663  -36.3220   -1.1625 O   0  0  0  0  0  0  0  0  0  0  0  0
   34.8031  -36.3636   -0.3956 H   0  0  0  0  0  0  0  0  0  0  0  0
   31.2958  -35.4389    0.5525 O   0  0  0  0  0  0  0  0  0  0  0  0
   30.5871  -35.9905    1.6544 C   0  0  0  0  0  0  0  0  0  0  0  0
 22 23  1  0
 23 16  1  0
 16 17  2  0
 17 18  1  0
 18 19  2  0
 19 15  1  0
 15 11  1  0
 11 12  1  0
 12 13  2  0
 12  1  1  0
  1  2  2  0
  2  3  1  0
  3  4  2  0
  4  5  1  0
  5  6  2  0
  6  7  1  0
  7  8  2  0
  8  9  1  0
  9 10  2  0
 10 24  1  0
 24 25  1  0
 25 26  1  0
 25 27  1  0
 27 28  1  0
 28 29  2  0
 29 30  1  0
 30 31  2  0
 31 32  1  0
 32 38  1  0
 38 39  1  0
 32 33  2  0
 33 34  1  0
 34 35  2  0
 34 36  1  0
 19 20  1  0
 20 21  2  0
 21 16  1  0
 10  1  1  0
 33 28  1  0
  8  3  1  0
 11 14  1  0
 36 37  1  0
M  END
> <minimizedAffinity>
-7.60370

> <CNNscore>
0.7849415541

> <CNNaffinity>
6.0014433861

> <CNN_VS>
4.7107825279

> <CNNaffinity_variance>
0.2694675922

$$$$



 39 42  0  0  0  0  0  0  0  0999 V2000
   36.6567  -28.6688   -5.6844 C   0  0  0  0  0  0  0  0  0  0  0  0
   36.7601  -28.7748   -7.0815 C   0  0  0  0  0  0  0  0  0  0  0  0
   36.2928  -27.7479   -7.9140 C   0  0  0  0  0  0  0  0  0  0  0  0
   36.3898  -27.8338   -9.3127 C   0  0  0  0  0  0  0  0  0  0  0  0
   35.9227  -26.7981  -10.1239 C   0  0  0  0  0  0  0  0  0  0  0  0
   35.3535  -25.6659   -9.5479 C   0  0  0  0  0  0  0  0  0  0  0  0
   35.2474  -25.5681   -8.1600 C   0  0  0  0  0  0  0  0  0  0  0  0
   35.7099  -26.6018   -7.3311 C   0  0  0  0  0  0  0  0  0  0  0  0
   35.6028  -26.5173   -5.9333 C   0  0  0  0  0  0  0  0  0  0  0  0
   36.0743  -27.5411   -5.0888 C   0  0  0  0  0  0  0  0  0  0  0  0
   36.3805  -30.9087   -4.8660 N   0  0  0  0  0  0  0  0  0  0  0  0
   37.1808  -29.7904   -4.8725 C   0  0  0  0  0  0  0  0  0  0  0  0
   38.2413  -29.6831   -4.2729 O   0  0  0  0  0  0  0  0  0  0  0  0
   35.6123  -30.9495   -5.4803 H   0  0  0  0  0  0  0  0  0  0  0  0
   36.6326  -32.0248   -3.9856 C   0  0  0  0  0  0  0  0  0  0  0  0
   37.0687  -35.6526   -6.2967 C   0  0  0  0  0  0  0  0  0  0  0  0
   37.1929  -35.6880   -4.9077 C   0  0  0  0  0  0  0  0  0  0  0  0
   37.0429  -34.5163   -4.1563 C   0  0  0  0  0  0  0  0  0  0  0  0
   36.7607  -33.2961   -4.7839 C   0  0  0  0  0  0  0  0  0  0  0  0
   36.6432  -33.2661   -6.1791 C   0  0  0  0  0  0  0  0  0  0  0  0
   36.7941  -34.4366   -6.9256 C   0  0  0  0  0  0  0  0  0  0  0  0
   36.0646  -37.0427   -7.9432 C   0  0  0  0  0  0  0  0  0  0  0  0
   37.1949  -36.7187   -7.1439 O   0  0  0  0  0  0  0  0  0  0  0  0
   35.9283  -27.3751   -3.5887 C   0  0  0  0  0  0  0  0  0  0  0  0
   34.6362  -27.8894   -3.0856 N   0  0  0  0  0  0  0  0  0  0  0  0
   33.6266  -27.8830   -4.1484 C   0  0  0  0  0  0  0  0  0  0  0  0
   34.1525  -27.1016   -1.9402 C   0  0  0  0  0  0  0  0  0  0  0  0
   33.0275  -27.7742   -1.1787 C   0  0  0  0  0  0  0  0  0  0  0  0
   31.7184  -27.2891   -1.3326 C   0  0  0  0  0  0  0  0  0  0  0  0
   30.6589  -27.8686   -0.6369 C   0  0  0  0  0  0  0  0  0  0  0  0
   30.8845  -28.9443    0.2236 C   0  0  0  0  0  0  0  0  0  0  0  0
   32.1755  -29.4512    0.4014 C   0  0  0  0  0  0  0  0  0  0  0  0
   33.2417  -28.8673   -0.3091 C   0  0  0  0  0  0  0  0  0  0  0  0
   34.6010  -29.4028   -0.0918 C   0  0  0  0  0  0  0  0  0  0  0  0
   35.1657  -30.2611   -0.7434 O   0  0  0  0  0  0  0  0  0  0  0  0
   35.2073  -28.7696    0.9314 O   0  0  0  0  0  0  0  0  0  0  0  0
   34.7463  -28.1126    1.4149 H   0  0  0  0  0  0  0  0  0  0  0  0
   32.4717  -30.5250    1.2007 O   0  0  0  0  0  0  0  0  0  0  0  0
   31.6299  -31.6662    1.1024 C   0  0  0  0  0  0  0  0  0  0  0  0
 22 23  1  0
 23 16  1  0
 16 17  2  0
 17 18  1  0
 18 19  2  0
 19 15  1  0
 15 11  1  0
 11 12  1  0
 12 13  2  0
 12  1  1  0
  1  2  2  0
  2  3  1  0
  3  4  2  0
  4  5  1  0
  5  6  2  0
  6  7  1  0
  7  8  2  0
  8  9  1  0
  9 10  2  0
 10 24  1  0
 24 25  1  0
 25 26  1  0
 25 27  1  0
 27 28  1  0
 28 29  2  0
 29 30  1  0
 30 31  2  0
 31 32  1  0
 32 38  1  0
 38 39  1  0
 32 33  2  0
 33 34  1  0
 34 35  2  0
 34 36  1  0
 19 20  1  0
 20 21  2  0
 21 16  1  0
 10  1  1  0
 33 28  1  0
  8  3  1  0
 11 14  1  0
 36 37  1  0
M  END
> <minimizedAffinity>
-7.37500

> <CNNscore>
0.4830178618

> <CNNaffinity>
5.7325415611

> <CNN_VS>
2.7689199448

> <CNNaffinity_variance>
0.5242480040

$$$$



 39 42  0  0  0  0  0  0  0  0999 V2000
   37.3746  -28.8510   -2.2032 C   0  0  0  0  0  0  0  0  0  0  0  0
   38.5358  -28.2083   -2.6643 C   0  0  0  0  0  0  0  0  0  0  0  0
   39.7997  -28.5852   -2.1885 C   0  0  0  0  0  0  0  0  0  0  0  0
   40.9723  -27.9568   -2.6393 C   0  0  0  0  0  0  0  0  0  0  0  0
   42.2217  -28.3503   -2.1565 C   0  0  0  0  0  0  0  0  0  0  0  0
   42.3141  -29.3747   -1.2185 C   0  0  0  0  0  0  0  0  0  0  0  0
   41.1574  -30.0058   -0.7591 C   0  0  0  0  0  0  0  0  0  0  0  0
   39.8941  -29.6200   -1.2327 C   0  0  0  0  0  0  0  0  0  0  0  0
   38.7225  -30.2435   -0.7731 C   0  0  0  0  0  0  0  0  0  0  0  0
   37.4491  -29.8757   -1.2492 C   0  0  0  0  0  0  0  0  0  0  0  0
   35.4849  -27.3772   -2.0612 N   0  0  0  0  0  0  0  0  0  0  0  0
   36.0779  -28.4028   -2.7595 C   0  0  0  0  0  0  0  0  0  0  0  0
   35.6115  -28.9333   -3.7579 O   0  0  0  0  0  0  0  0  0  0  0  0
   35.9943  -26.9281   -1.3484 H   0  0  0  0  0  0  0  0  0  0  0  0
   34.1381  -26.9391   -2.3415 C   0  0  0  0  0  0  0  0  0  0  0  0
   31.3520  -28.8610    0.3484 C   0  0  0  0  0  0  0  0  0  0  0  0
   32.7259  -29.0044    0.5434 C   0  0  0  0  0  0  0  0  0  0  0  0
   33.6301  -28.3755   -0.3208 C   0  0  0  0  0  0  0  0  0  0  0  0
   33.1718  -27.5903   -1.3866 C   0  0  0  0  0  0  0  0  0  0  0  0
   31.7915  -27.4551   -1.5805 C   0  0  0  0  0  0  0  0  0  0  0  0
   30.8923  -28.0844   -0.7171 C   0  0  0  0  0  0  0  0  0  0  0  0
   30.2186  -30.8338    1.0374 C   0  0  0  0  0  0  0  0  0  0  0  0
   30.3671  -29.4220    1.1136 O   0  0  0  0  0  0  0  0  0  0  0  0
   36.2308  -30.5991   -0.7092 C   0  0  0  0  0  0  0  0  0  0  0  0
   36.0819  -31.9571   -1.2756 N   0  0  0  0  0  0  0  0  0  0  0  0
   36.8531  -32.0891   -2.5153 C   0  0  0  0  0  0  0  0  0  0  0  0
   34.6696  -32.2799   -1.5357 C   0  0  0  0  0  0  0  0  0  0  0  0
   33.9459  -32.8354   -0.3251 C   0  0  0  0  0  0  0  0  0  0  0  0
   33.8889  -32.0620    0.8460 C   0  0  0  0  0  0  0  0  0  0  0  0
   33.2481  -32.5438    1.9860 C   0  0  0  0  0  0  0  0  0  0  0  0
   32.6501  -33.8051    1.9790 C   0  0  0  0  0  0  0  0  0  0  0  0
   32.6895  -34.6020    0.8306 C   0  0  0  0  0  0  0  0  0  0  0  0
   33.3316  -34.1080   -0.3211 C   0  0  0  0  0  0  0  0  0  0  0  0
   33.3812  -34.9730   -1.5172 C   0  0  0  0  0  0  0  0  0  0  0  0
   34.3552  -35.5425   -1.9725 O   0  0  0  0  0  0  0  0  0  0  0  0
   32.1545  -35.1168   -2.0556 O   0  0  0  0  0  0  0  0  0  0  0  0
   31.4233  -34.6651   -1.6825 H   0  0  0  0  0  0  0  0  0  0  0  0
   32.0969  -35.8346    0.7348 O   0  0  0  0  0  0  0  0  0  0  0  0
   31.0528  -36.1320    1.6526 C   0  0  0  0  0  0  0  0  0  0  0  0
 22 23  1  0
 23 16  1  0
 16 17  2  0
 17 18  1  0
 18 19  2  0
 19 15  1  0
 15 11  1  0
 11 12  1  0
 12 13  2  0
 12  1  1  0
  1  2  2  0
  2  3  1  0
  3  4  2  0
  4  5  1  0
  5  6  2  0
  6  7  1  0
  7  8  2  0
  8  9  1  0
  9 10  2  0
 10 24  1  0
 24 25  1  0
 25 26  1  0
 25 27  1  0
 27 28  1  0
 28 29  2  0
 29 30  1  0
 30 31  2  0
 31 32  1  0
 32 38  1  0
 38 39  1  0
 32 33  2  0
 33 34  1  0
 34 35  2  0
 34 36  1  0
 19 20  1  0
 20 21  2  0
 21 16  1  0
 10  1  1  0
 33 28  1  0
  8  3  1  0
 11 14  1  0
 36 37  1  0
M  END
> <minimizedAffinity>
-7.51463

> <CNNscore>
0.4156689048

> <CNNaffinity>
5.5287804604

> <CNN_VS>
2.2981421947

> <CNNaffinity_variance>
0.8474877477

$$$$



 39 42  0  0  0  0  0  0  0  0999 V2000
   35.0880  -29.0225   -1.7057 C   0  0  0  0  0  0  0  0  0  0  0  0
   34.0240  -28.1697   -2.0439 C   0  0  0  0  0  0  0  0  0  0  0  0
   32.8373  -28.1745   -1.2972 C   0  0  0  0  0  0  0  0  0  0  0  0
   31.7636  -27.3274   -1.6176 C   0  0  0  0  0  0  0  0  0  0  0  0
   30.5922  -27.3442   -0.8584 C   0  0  0  0  0  0  0  0  0  0  0  0
   30.4798  -28.2066    0.2285 C   0  0  0  0  0  0  0  0  0  0  0  0
   31.5370  -29.0562    0.5567 C   0  0  0  0  0  0  0  0  0  0  0  0
   32.7200  -29.0531   -0.1983 C   0  0  0  0  0  0  0  0  0  0  0  0
   33.7883  -29.9080    0.1186 C   0  0  0  0  0  0  0  0  0  0  0  0
   34.9862  -29.9064   -0.6221 C   0  0  0  0  0  0  0  0  0  0  0  0
   37.3312  -28.2139   -1.9844 N   0  0  0  0  0  0  0  0  0  0  0  0
   36.3114  -28.9529   -2.5366 C   0  0  0  0  0  0  0  0  0  0  0  0
   36.3625  -29.5199   -3.6190 O   0  0  0  0  0  0  0  0  0  0  0  0
   37.2459  -27.9033   -1.0540 H   0  0  0  0  0  0  0  0  0  0  0  0
   38.5231  -27.8797   -2.7273 C   0  0  0  0  0  0  0  0  0  0  0  0
   41.6653  -30.7536   -1.9793 C   0  0  0  0  0  0  0  0  0  0  0  0
   40.8651  -30.3017   -0.9297 C   0  0  0  0  0  0  0  0  0  0  0  0
   39.8410  -29.3782   -1.1709 C   0  0  0  0  0  0  0  0  0  0  0  0
   39.6003  -28.8999   -2.4654 C   0  0  0  0  0  0  0  0  0  0  0  0
   40.4108  -29.3528   -3.5137 C   0  0  0  0  0  0  0  0  0  0  0  0
   41.4320  -30.2735   -3.2696 C   0  0  0  0  0  0  0  0  0  0  0  0
   42.7051  -32.7248   -2.8066 C   0  0  0  0  0  0  0  0  0  0  0  0
   42.6958  -31.6471   -1.8794 O   0  0  0  0  0  0  0  0  0  0  0  0
   36.0972  -30.8547   -0.2154 C   0  0  0  0  0  0  0  0  0  0  0  0
   35.9234  -32.2079   -0.7862 N   0  0  0  0  0  0  0  0  0  0  0  0
   34.7158  -32.2696   -1.6149 C   0  0  0  0  0  0  0  0  0  0  0  0
   35.8514  -33.2318    0.2687 C   0  0  0  0  0  0  0  0  0  0  0  0
   34.4599  -33.4069    0.8441 C   0  0  0  0  0  0  0  0  0  0  0  0
   33.9890  -32.4704    1.7791 C   0  0  0  0  0  0  0  0  0  0  0  0
   32.7223  -32.6053    2.3445 C   0  0  0  0  0  0  0  0  0  0  0  0
   31.9003  -33.6752    1.9865 C   0  0  0  0  0  0  0  0  0  0  0  0
   32.3382  -34.6264    1.0598 C   0  0  0  0  0  0  0  0  0  0  0  0
   33.6158  -34.4821    0.4857 C   0  0  0  0  0  0  0  0  0  0  0  0
   34.0690  -35.5085   -0.4749 C   0  0  0  0  0  0  0  0  0  0  0  0
   34.0511  -35.4375   -1.6893 O   0  0  0  0  0  0  0  0  0  0  0  0
   34.5822  -36.5745    0.1698 O   0  0  0  0  0  0  0  0  0  0  0  0
   34.5818  -36.6004    1.1065 H   0  0  0  0  0  0  0  0  0  0  0  0
   31.5775  -35.6838    0.6322 O   0  0  0  0  0  0  0  0  0  0  0  0
   30.5149  -36.1090    1.4754 C   0  0  0  0  0  0  0  0  0  0  0  0
 22 23  1  0
 23 16  1  0
 16 17  2  0
 17 18  1  0
 18 19  2  0
 19 15  1  0
 15 11  1  0
 11 12  1  0
 12 13  2  0
 12  1  1  0
  1  2  2  0
  2  3  1  0
  3  4  2  0
  4  5  1  0
  5  6  2  0
  6  7  1  0
  7  8  2  0
  8  9  1  0
  9 10  2  0
 10 24  1  0
 24 25  1  0
 25 26  1  0
 25 27  1  0
 27 28  1  0
 28 29  2  0
 29 30  1  0
 30 31  2  0
 31 32  1  0
 32 38  1  0
 38 39  1  0
 32 33  2  0
 33 34  1  0
 34 35  2  0
 34 36  1  0
 19 20  1  0
 20 21  2  0
 21 16  1  0
 10  1  1  0
 33 28  1  0
  8  3  1  0
 11 14  1  0
 36 37  1  0
M  END
> <minimizedAffinity>
-6.84963

> <CNNscore>
0.4041355848

> <CNNaffinity>
5.6296482086

> <CNN_VS>
2.2751412392

> <CNNaffinity_variance>
0.3811532557

$$$$



 39 42  0  0  0  0  0  0  0  0999 V2000
   35.1774  -28.4047   -1.8094 C   0  0  0  0  0  0  0  0  0  0  0  0
   33.9753  -27.6917   -1.9526 C   0  0  0  0  0  0  0  0  0  0  0  0
   32.8567  -28.0094   -1.1692 C   0  0  0  0  0  0  0  0  0  0  0  0
   31.6471  -27.3065   -1.2955 C   0  0  0  0  0  0  0  0  0  0  0  0
   30.5463  -27.6354   -0.5026 C   0  0  0  0  0  0  0  0  0  0  0  0
   30.6407  -28.6695    0.4246 C   0  0  0  0  0  0  0  0  0  0  0  0
   31.8350  -29.3787    0.5588 C   0  0  0  0  0  0  0  0  0  0  0  0
   32.9496  -29.0619   -0.2328 C   0  0  0  0  0  0  0  0  0  0  0  0
   34.1548  -29.7727   -0.1111 C   0  0  0  0  0  0  0  0  0  0  0  0
   35.2853  -29.4573   -0.8895 C   0  0  0  0  0  0  0  0  0  0  0  0
   36.1554  -26.7918   -3.2944 N   0  0  0  0  0  0  0  0  0  0  0  0
   36.3166  -28.0042   -2.6659 C   0  0  0  0  0  0  0  0  0  0  0  0
   37.2973  -28.7267   -2.7763 O   0  0  0  0  0  0  0  0  0  0  0  0
   35.3920  -26.2225   -3.0447 H   0  0  0  0  0  0  0  0  0  0  0  0
   37.0717  -26.3281   -4.3092 C   0  0  0  0  0  0  0  0  0  0  0  0
   38.3078  -22.2678   -3.4858 C   0  0  0  0  0  0  0  0  0  0  0  0
   38.2158  -22.7184   -4.8029 C   0  0  0  0  0  0  0  0  0  0  0  0
   37.8068  -24.0299   -5.0724 C   0  0  0  0  0  0  0  0  0  0  0  0
   37.4788  -24.9049   -4.0288 C   0  0  0  0  0  0  0  0  0  0  0  0
   37.5789  -24.4484   -2.7087 C   0  0  0  0  0  0  0  0  0  0  0  0
   37.9878  -23.1398   -2.4433 C   0  0  0  0  0  0  0  0  0  0  0  0
   38.7652  -20.7821   -1.6872 C   0  0  0  0  0  0  0  0  0  0  0  0
   38.6954  -21.0183   -3.0874 O   0  0  0  0  0  0  0  0  0  0  0  0
   36.5530  -30.2667   -0.6972 C   0  0  0  0  0  0  0  0  0  0  0  0
   36.4663  -31.6087   -1.3125 N   0  0  0  0  0  0  0  0  0  0  0  0
   35.4660  -31.6240   -2.3840 C   0  0  0  0  0  0  0  0  0  0  0  0
   36.1361  -32.6384   -0.3138 C   0  0  0  0  0  0  0  0  0  0  0  0
   37.1895  -33.7221   -0.1952 C   0  0  0  0  0  0  0  0  0  0  0  0
   38.4611  -33.3822    0.2951 C   0  0  0  0  0  0  0  0  0  0  0  0
   39.4624  -34.3455    0.4032 C   0  0  0  0  0  0  0  0  0  0  0  0
   39.2139  -35.6665    0.0266 C   0  0  0  0  0  0  0  0  0  0  0  0
   37.9597  -36.0389   -0.4669 C   0  0  0  0  0  0  0  0  0  0  0  0
   36.9489  -35.0639   -0.5676 C   0  0  0  0  0  0  0  0  0  0  0  0
   35.6376  -35.4719   -1.1111 C   0  0  0  0  0  0  0  0  0  0  0  0
   34.7035  -35.9504   -0.4957 O   0  0  0  0  0  0  0  0  0  0  0  0
   35.5581  -35.1965   -2.4276 O   0  0  0  0  0  0  0  0  0  0  0  0
   36.2947  -34.8281   -2.8745 H   0  0  0  0  0  0  0  0  0  0  0  0
   37.6287  -37.3205   -0.8243 O   0  0  0  0  0  0  0  0  0  0  0  0
   38.5804  -38.3416   -0.5553 C   0  0  0  0  0  0  0  0  0  0  0  0
 22 23  1  0
 23 16  1  0
 16 17  2  0
 17 18  1  0
 18 19  2  0
 19 15  1  0
 15 11  1  0
 11 12  1  0
 12 13  2  0
 12  1  1  0
  1  2  2  0
  2  3  1  0
  3  4  2  0
  4  5  1  0
  5  6  2  0
  6  7  1  0
  7  8  2  0
  8  9  1  0
  9 10  2  0
 10 24  1  0
 24 25  1  0
 25 26  1  0
 25 27  1  0
 27 28  1  0
 28 29  2  0
 29 30  1  0
 30 31  2  0
 31 32  1  0
 32 38  1  0
 38 39  1  0
 32 33  2  0
 33 34  1  0
 34 35  2  0
 34 36  1  0
 19 20  1  0
 20 21  2  0
 21 16  1  0
 10  1  1  0
 33 28  1  0
  8  3  1  0
 11 14  1  0
 36 37  1  0
M  END
> <minimizedAffinity>
-7.13730

> <CNNscore>
0.4024232626

> <CNNaffinity>
5.5238857269

> <CNN_VS>
2.2229402065

> <CNNaffinity_variance>
0.2299644947

$$$$



 39 42  0  0  0  0  0  0  0  0999 V2000
   36.7740  -30.6445   -2.4806 C   0  0  0  0  0  0  0  0  0  0  0  0
   36.0269  -29.7457   -3.2603 C   0  0  0  0  0  0  0  0  0  0  0  0
   35.0729  -28.9059   -2.6682 C   0  0  0  0  0  0  0  0  0  0  0  0
   34.3182  -27.9986   -3.4301 C   0  0  0  0  0  0  0  0  0  0  0  0
   33.3764  -27.1677   -2.8205 C   0  0  0  0  0  0  0  0  0  0  0  0
   33.1776  -27.2336   -1.4444 C   0  0  0  0  0  0  0  0  0  0  0  0
   33.9178  -28.1323   -0.6751 C   0  0  0  0  0  0  0  0  0  0  0  0
   34.8662  -28.9761   -1.2734 C   0  0  0  0  0  0  0  0  0  0  0  0
   35.6126  -29.8890   -0.5104 C   0  0  0  0  0  0  0  0  0  0  0  0
   36.5769  -30.7326   -1.0953 C   0  0  0  0  0  0  0  0  0  0  0  0
   37.2866  -32.7130   -3.5862 N   0  0  0  0  0  0  0  0  0  0  0  0
   37.7685  -31.4916   -3.1773 C   0  0  0  0  0  0  0  0  0  0  0  0
   38.9129  -31.0957   -3.3491 O   0  0  0  0  0  0  0  0  0  0  0  0
   36.3208  -32.8916   -3.5194 H   0  0  0  0  0  0  0  0  0  0  0  0
   38.1539  -33.7412   -4.1104 C   0  0  0  0  0  0  0  0  0  0  0  0
   36.3224  -35.5455   -7.5863 C   0  0  0  0  0  0  0  0  0  0  0  0
   36.3935  -34.1569   -7.4735 C   0  0  0  0  0  0  0  0  0  0  0  0
   36.9944  -33.5703   -6.3534 C   0  0  0  0  0  0  0  0  0  0  0  0
   37.5371  -34.3649   -5.3352 C   0  0  0  0  0  0  0  0  0  0  0  0
   37.4571  -35.7581   -5.4514 C   0  0  0  0  0  0  0  0  0  0  0  0
   36.8565  -36.3400   -6.5698 C   0  0  0  0  0  0  0  0  0  0  0  0
   36.5057  -36.3058   -9.8312 C   0  0  0  0  0  0  0  0  0  0  0  0
   35.7620  -36.2418   -8.6213 O   0  0  0  0  0  0  0  0  0  0  0  0
   37.3471  -31.6883   -0.2051 C   0  0  0  0  0  0  0  0  0  0  0  0
   36.5806  -32.9144    0.1055 N   0  0  0  0  0  0  0  0  0  0  0  0
   37.3809  -34.1105   -0.1735 C   0  0  0  0  0  0  0  0  0  0  0  0
   35.3239  -32.9716   -0.6586 C   0  0  0  0  0  0  0  0  0  0  0  0
   34.1037  -33.2182    0.2065 C   0  0  0  0  0  0  0  0  0  0  0  0
   33.8484  -32.3527    1.2829 C   0  0  0  0  0  0  0  0  0  0  0  0
   32.7470  -32.5552    2.1124 C   0  0  0  0  0  0  0  0  0  0  0  0
   31.8780  -33.6233    1.8830 C   0  0  0  0  0  0  0  0  0  0  0  0
   32.1034  -34.5049    0.8212 C   0  0  0  0  0  0  0  0  0  0  0  0
   33.2133  -34.2921   -0.0187 C   0  0  0  0  0  0  0  0  0  0  0  0
   33.4466  -35.2463   -1.1217 C   0  0  0  0  0  0  0  0  0  0  0  0
   34.3394  -36.0685   -1.2059 O   0  0  0  0  0  0  0  0  0  0  0  0
   32.4825  -35.1421   -2.0571 O   0  0  0  0  0  0  0  0  0  0  0  0
   31.8076  -34.4986   -1.9647 H   0  0  0  0  0  0  0  0  0  0  0  0
   31.2779  -35.5547    0.5109 O   0  0  0  0  0  0  0  0  0  0  0  0
   30.5202  -36.1265    1.5691 C   0  0  0  0  0  0  0  0  0  0  0  0
 22 23  1  0
 23 16  1  0
 16 17  2  0
 17 18  1  0
 18 19  2  0
 19 15  1  0
 15 11  1  0
 11 12  1  0
 12 13  2  0
 12  1  1  0
  1  2  2  0
  2  3  1  0
  3  4  2  0
  4  5  1  0
  5  6  2  0
  6  7  1  0
  7  8  2  0
  8  9  1  0
  9 10  2  0
 10 24  1  0
 24 25  1  0
 25 26  1  0
 25 27  1  0
 27 28  1  0
 28 29  2  0
 29 30  1  0
 30 31  2  0
 31 32  1  0
 32 38  1  0
 38 39  1  0
 32 33  2  0
 33 34  1  0
 34 35  2  0
 34 36  1  0
 19 20  1  0
 20 21  2  0
 21 16  1  0
 10  1  1  0
 33 28  1  0
  8  3  1  0
 11 14  1  0
 36 37  1  0
M  END
> <minimizedAffinity>
-7.08182

> <CNNscore>
0.3709603548

> <CNNaffinity>
5.2109990120

> <CNN_VS>
1.9330739975

> <CNNaffinity_variance>
0.3976919353

$$$$
