


 38 40  0  0  0  0  0  0  0  0999 V2000
  -21.6750   27.9232   11.3722 C   0  0  0  0  0  0  0  0  0  0  0  0
  -20.5033   28.4634   11.7508 C   0  0  0  0  0  0  0  0  0  0  0  0
  -20.3146   29.7291   12.5424 C   0  0  0  0  0  0  0  0  0  0  0  0
  -19.2599   29.5857   13.5101 O   0  0  0  0  0  0  0  0  0  0  0  0
  -18.5621   30.8437   13.5979 C   0  0  0  0  0  0  0  0  0  0  0  0
  -19.2591   31.8423   12.6687 C   0  0  0  0  0  0  0  0  0  0  0  0
  -20.2851   32.5827   13.3622 O   0  0  0  0  0  0  0  0  0  0  0  0
  -19.9338   30.9247   11.6641 C   0  0  0  0  0  0  0  0  0  0  0  0
  -21.0555   31.5528   11.0514 O   0  0  0  0  0  0  0  0  0  0  0  0
  -20.9226   31.9643   13.7519 H   0  0  0  0  0  0  0  0  0  0  0  0
  -21.6788   31.8410   11.7365 H   0  0  0  0  0  0  0  0  0  0  0  0
  -17.1609   30.6432   13.2603 N   0  0  0  0  0  0  0  0  0  0  0  0
  -16.5322   31.2250   12.1954 C   0  0  0  0  0  0  0  0  0  0  0  0
  -15.2927   30.8082   12.0824 N   0  0  0  0  0  0  0  0  0  0  0  0
  -15.0821   29.9361   13.1451 C   0  0  0  0  0  0  0  0  0  0  0  0
  -16.2532   29.8273   13.8787 C   0  0  0  0  0  0  0  0  0  0  0  0
  -13.7617   29.2561   13.3808 C   0  0  0  0  0  0  0  0  0  0  0  0
  -13.7788   27.9447   13.0253 F   0  0  0  0  0  0  0  0  0  0  0  0
  -12.7586   29.8375   12.6660 F   0  0  0  0  0  0  0  0  0  0  0  0
  -13.3851   29.3114   14.6857 F   0  0  0  0  0  0  0  0  0  0  0  0
  -21.7984   26.6639   10.5757 C   0  0  0  0  0  0  0  0  0  0  0  0
  -21.0872   28.3086    8.4270 O   0  0  0  0  0  0  0  0  0  0  0  0
  -22.1931   27.7768    8.4258 C   0  0  0  0  0  0  0  0  0  0  0  0
  -22.6187   26.9427    9.4291 N   0  0  0  0  0  0  0  0  0  0  0  0
  -23.5078   26.5252    9.3618 H   0  0  0  0  0  0  0  0  0  0  0  0
  -23.1403   28.0322    7.2976 C   0  0  0  0  0  0  0  0  0  0  0  0
  -23.2114   29.3474    6.8031 C   0  0  0  0  0  0  0  0  0  0  0  0
  -24.0829   29.6602    5.7484 C   0  0  0  0  0  0  0  0  0  0  0  0
  -24.8941   28.6764    5.1673 C   0  0  0  0  0  0  0  0  0  0  0  0
  -24.8177   27.3816    5.6613 C   0  0  0  0  0  0  0  0  0  0  0  0
  -25.5839   26.3699    5.1451 O   0  0  0  0  0  0  0  0  0  0  0  0
  -23.9545   27.0541    6.7135 C   0  0  0  0  0  0  0  0  0  0  0  0
  -23.9471   25.7481    7.1356 O   0  0  0  0  0  0  0  0  0  0  0  0
  -26.1758   26.5437    4.4398 H   0  0  0  0  0  0  0  0  0  0  0  0
  -24.5051   25.1189    6.7223 H   0  0  0  0  0  0  0  0  0  0  0  0
  -24.1537   31.0378    5.2463 N   0  0  0  0  0  0  0  0  0  0  0  0
  -23.0920   31.6568    5.1010 O   0  0  0  0  0  0  0  0  0  0  0  0
  -25.2781   31.4965    4.9969 O   0  0  0  0  0  0  0  0  0  0  0  0
 22 23  2  0
 23 24  1  0
 24 21  1  0
 21  1  1  0
  1  2  2  0
  3  2  1  0
  3  4  1  0
  4  5  1  0
  5 12  1  0
 12 13  1  0
 13 14  2  0
 14 15  1  0
 15 17  1  0
 17 18  1  0
 17 19  1  0
 17 20  1  0
 15 16  2  0
  5  6  1  0
  6  7  1  0
  6  8  1  0
  8  9  1  0
 23 26  1  0
 26 27  2  0
 27 28  1  0
 28 36  1  0
 36 37  2  0
 36 38  1  0
 28 29  2  0
 29 30  1  0
 30 31  1  0
 30 32  2  0
 32 33  1  0
  8  3  1  0
 32 26  1  0
 16 12  1  0
 24 25  1  0
  7 10  1  0
  9 11  1  0
 31 34  1  0
 33 35  1  0
M  CHG 1  36   1
M  CHG 1  38  -1
M  END
> <minimizedAffinity>
-9.61498

> <CNNscore>
0.8948004842

> <CNNaffinity>
6.9721150398

> <CNN_VS>
6.2386517525

> <CNNaffinity_variance>
0.0582485944

$$$$



 38 40  0  0  0  0  0  0  0  0999 V2000
  -20.7164   30.8763    9.3050 C   0  0  0  0  0  0  0  0  0  0  0  0
  -20.2817   29.8436   10.0483 C   0  0  0  0  0  0  0  0  0  0  0  0
  -20.2874   29.7561   11.5505 C   0  0  0  0  0  0  0  0  0  0  0  0
  -19.1541   29.0130   12.0331 O   0  0  0  0  0  0  0  0  0  0  0  0
  -18.7147   29.6205   13.2640 C   0  0  0  0  0  0  0  0  0  0  0  0
  -19.6650   30.7763   13.5920 C   0  0  0  0  0  0  0  0  0  0  0  0
  -20.7610   30.3403   14.4229 O   0  0  0  0  0  0  0  0  0  0  0  0
  -20.2196   31.1304   12.2232 C   0  0  0  0  0  0  0  0  0  0  0  0
  -21.4872   31.7721   12.3212 O   0  0  0  0  0  0  0  0  0  0  0  0
  -21.2315   29.6150   13.9830 H   0  0  0  0  0  0  0  0  0  0  0  0
  -22.1008   31.2026   12.8113 H   0  0  0  0  0  0  0  0  0  0  0  0
  -17.3317   30.0507   13.1235 N   0  0  0  0  0  0  0  0  0  0  0  0
  -16.9160   31.0562   12.2966 C   0  0  0  0  0  0  0  0  0  0  0  0
  -15.6092   31.1794   12.3088 N   0  0  0  0  0  0  0  0  0  0  0  0
  -15.1424   30.2330   13.2146 C   0  0  0  0  0  0  0  0  0  0  0  0
  -16.2196   29.5217   13.7197 C   0  0  0  0  0  0  0  0  0  0  0  0
  -13.6811   30.0707   13.5301 C   0  0  0  0  0  0  0  0  0  0  0  0
  -13.0753   29.1470   12.7387 F   0  0  0  0  0  0  0  0  0  0  0  0
  -12.9947   31.2349   13.3606 F   0  0  0  0  0  0  0  0  0  0  0  0
  -13.4766   29.6886   14.8185 F   0  0  0  0  0  0  0  0  0  0  0  0
  -20.6759   30.9085    7.8107 C   0  0  0  0  0  0  0  0  0  0  0  0
  -22.8258   31.6162    6.1661 O   0  0  0  0  0  0  0  0  0  0  0  0
  -22.7150   30.4488    6.5276 C   0  0  0  0  0  0  0  0  0  0  0  0
  -21.6841   30.0098    7.3201 N   0  0  0  0  0  0  0  0  0  0  0  0
  -21.6342   29.0558    7.5582 H   0  0  0  0  0  0  0  0  0  0  0  0
  -23.7335   29.4392    6.1048 C   0  0  0  0  0  0  0  0  0  0  0  0
  -24.8009   29.8966    5.3107 C   0  0  0  0  0  0  0  0  0  0  0  0
  -25.7962   29.0046    4.8819 C   0  0  0  0  0  0  0  0  0  0  0  0
  -25.7481   27.6484    5.2308 C   0  0  0  0  0  0  0  0  0  0  0  0
  -24.6915   27.2057    6.0145 C   0  0  0  0  0  0  0  0  0  0  0  0
  -24.5819   25.8948    6.3975 O   0  0  0  0  0  0  0  0  0  0  0  0
  -23.6920   28.0831    6.4511 C   0  0  0  0  0  0  0  0  0  0  0  0
  -22.6866   27.5550    7.2221 O   0  0  0  0  0  0  0  0  0  0  0  0
  -25.2284   25.2724    6.1282 H   0  0  0  0  0  0  0  0  0  0  0  0
  -22.6896   26.6426    7.4352 H   0  0  0  0  0  0  0  0  0  0  0  0
  -26.9092   29.4955    4.0602 N   0  0  0  0  0  0  0  0  0  0  0  0
  -27.2136   30.6916    4.1519 O   0  0  0  0  0  0  0  0  0  0  0  0
  -27.4764   28.6774    3.3214 O   0  0  0  0  0  0  0  0  0  0  0  0
 22 23  2  0
 23 24  1  0
 24 21  1  0
 21  1  1  0
  1  2  2  0
  3  2  1  0
  3  4  1  0
  4  5  1  0
  5 12  1  0
 12 13  1  0
 13 14  2  0
 14 15  1  0
 15 17  1  0
 17 18  1  0
 17 19  1  0
 17 20  1  0
 15 16  2  0
  5  6  1  0
  6  7  1  0
  6  8  1  0
  8  9  1  0
 23 26  1  0
 26 27  2  0
 27 28  1  0
 28 36  1  0
 36 37  2  0
 36 38  1  0
 28 29  2  0
 29 30  1  0
 30 31  1  0
 30 32  2  0
 32 33  1  0
  8  3  1  0
 32 26  1  0
 16 12  1  0
 24 25  1  0
  7 10  1  0
  9 11  1  0
 31 34  1  0
 33 35  1  0
M  CHG 1  36   1
M  CHG 1  38  -1
M  END
> <minimizedAffinity>
-10.67895

> <CNNscore>
0.8890542984

> <CNNaffinity>
6.9438424110

> <CNN_VS>
6.1734528542

> <CNNaffinity_variance>
0.1449500620

$$$$



 38 40  0  0  0  0  0  0  0  0999 V2000
  -21.0737   31.1718    9.2784 C   0  0  0  0  0  0  0  0  0  0  0  0
  -20.0177   30.4313    9.6584 C   0  0  0  0  0  0  0  0  0  0  0  0
  -19.6716   30.0193   11.0637 C   0  0  0  0  0  0  0  0  0  0  0  0
  -19.2796   31.1534   11.8572 O   0  0  0  0  0  0  0  0  0  0  0  0
  -19.7736   30.9522   13.1961 C   0  0  0  0  0  0  0  0  0  0  0  0
  -20.4670   29.5874   13.2493 C   0  0  0  0  0  0  0  0  0  0  0  0
  -19.5501   28.5431   13.6370 O   0  0  0  0  0  0  0  0  0  0  0  0
  -20.8485   29.3675   11.7958 C   0  0  0  0  0  0  0  0  0  0  0  0
  -20.9999   27.9833   11.4972 O   0  0  0  0  0  0  0  0  0  0  0  0
  -18.7980   28.5294   13.0247 H   0  0  0  0  0  0  0  0  0  0  0  0
  -20.1811   27.5132   11.7195 H   0  0  0  0  0  0  0  0  0  0  0  0
  -20.6605   32.0491   13.5534 N   0  0  0  0  0  0  0  0  0  0  0  0
  -20.2396   33.2580   14.0321 C   0  0  0  0  0  0  0  0  0  0  0  0
  -21.2536   34.0303   14.3460 N   0  0  0  0  0  0  0  0  0  0  0  0
  -22.3991   33.3097   14.0257 C   0  0  0  0  0  0  0  0  0  0  0  0
  -22.0285   32.0670   13.5359 C   0  0  0  0  0  0  0  0  0  0  0  0
  -23.7825   33.8661   14.2202 C   0  0  0  0  0  0  0  0  0  0  0  0
  -24.4710   33.2235   15.1998 F   0  0  0  0  0  0  0  0  0  0  0  0
  -23.7539   35.1828   14.5677 F   0  0  0  0  0  0  0  0  0  0  0  0
  -24.5294   33.7842   13.0874 F   0  0  0  0  0  0  0  0  0  0  0  0
  -21.3602   31.5578    7.8627 C   0  0  0  0  0  0  0  0  0  0  0  0
  -23.6958   32.0075    6.3894 O   0  0  0  0  0  0  0  0  0  0  0  0
  -23.3333   30.8521    6.5880 C   0  0  0  0  0  0  0  0  0  0  0  0
  -22.1932   30.5393    7.2849 N   0  0  0  0  0  0  0  0  0  0  0  0
  -21.9398   29.5939    7.3917 H   0  0  0  0  0  0  0  0  0  0  0  0
  -24.1503   29.7154    6.0630 C   0  0  0  0  0  0  0  0  0  0  0  0
  -25.1937   30.0307    5.1735 C   0  0  0  0  0  0  0  0  0  0  0  0
  -26.0044   29.0138    4.6455 C   0  0  0  0  0  0  0  0  0  0  0  0
  -25.7928   27.6717    4.9882 C   0  0  0  0  0  0  0  0  0  0  0  0
  -24.7612   27.3696    5.8664 C   0  0  0  0  0  0  0  0  0  0  0  0
  -24.4989   26.0806    6.2493 O   0  0  0  0  0  0  0  0  0  0  0  0
  -23.9450   28.3725    6.4025 C   0  0  0  0  0  0  0  0  0  0  0  0
  -22.9504   27.9789    7.2626 O   0  0  0  0  0  0  0  0  0  0  0  0
  -25.0201   25.3773    5.9152 H   0  0  0  0  0  0  0  0  0  0  0  0
  -22.8408   27.0714    7.4683 H   0  0  0  0  0  0  0  0  0  0  0  0
  -27.0949   29.3562    3.7243 N   0  0  0  0  0  0  0  0  0  0  0  0
  -27.9035   28.4675    3.4279 O   0  0  0  0  0  0  0  0  0  0  0  0
  -27.1383   30.5202    3.3000 O   0  0  0  0  0  0  0  0  0  0  0  0
 22 23  2  0
 23 24  1  0
 24 21  1  0
 21  1  1  0
  1  2  2  0
  3  2  1  0
  3  4  1  0
  4  5  1  0
  5 12  1  0
 12 13  1  0
 13 14  2  0
 14 15  1  0
 15 17  1  0
 17 18  1  0
 17 19  1  0
 17 20  1  0
 15 16  2  0
  5  6  1  0
  6  7  1  0
  6  8  1  0
  8  9  1  0
 23 26  1  0
 26 27  2  0
 27 28  1  0
 28 36  1  0
 36 37  2  0
 36 38  1  0
 28 29  2  0
 29 30  1  0
 30 31  1  0
 30 32  2  0
 32 33  1  0
  8  3  1  0
 32 26  1  0
 16 12  1  0
 24 25  1  0
  7 10  1  0
  9 11  1  0
 31 34  1  0
 33 35  1  0
M  CHG 1  36   1
M  CHG 1  38  -1
M  END
> <minimizedAffinity>
-9.05908

> <CNNscore>
0.5060061216

> <CNNaffinity>
5.9588208199

> <CNN_VS>
3.0151998997

> <CNNaffinity_variance>
0.0297022965

$$$$



 38 40  0  0  0  0  0  0  0  0999 V2000
  -22.1087   32.8879    9.0162 C   0  0  0  0  0  0  0  0  0  0  0  0
  -22.9071   33.8529    9.5054 C   0  0  0  0  0  0  0  0  0  0  0  0
  -23.1646   34.1520   10.9575 C   0  0  0  0  0  0  0  0  0  0  0  0
  -22.9336   32.9923   11.7769 O   0  0  0  0  0  0  0  0  0  0  0  0
  -22.3596   33.4346   13.0227 C   0  0  0  0  0  0  0  0  0  0  0  0
  -22.2794   34.9641   12.9953 C   0  0  0  0  0  0  0  0  0  0  0  0
  -23.4671   35.5660   13.5508 O   0  0  0  0  0  0  0  0  0  0  0  0
  -22.2534   35.2547   11.5049 C   0  0  0  0  0  0  0  0  0  0  0  0
  -22.7246   36.5677   11.2186 O   0  0  0  0  0  0  0  0  0  0  0  0
  -24.2465   35.2481   13.0686 H   0  0  0  0  0  0  0  0  0  0  0  0
  -23.6175   36.6771   11.5814 H   0  0  0  0  0  0  0  0  0  0  0  0
  -21.0603   32.8055   13.2060 N   0  0  0  0  0  0  0  0  0  0  0  0
  -20.2265   33.0485   14.2611 C   0  0  0  0  0  0  0  0  0  0  0  0
  -19.0888   32.4065   14.1328 N   0  0  0  0  0  0  0  0  0  0  0  0
  -19.1905   31.6763   12.9536 C   0  0  0  0  0  0  0  0  0  0  0  0
  -20.4217   31.9309   12.3696 C   0  0  0  0  0  0  0  0  0  0  0  0
  -18.0864   30.7822   12.4609 C   0  0  0  0  0  0  0  0  0  0  0  0
  -17.8693   30.9077   11.1254 F   0  0  0  0  0  0  0  0  0  0  0  0
  -16.9012   31.0579   13.0729 F   0  0  0  0  0  0  0  0  0  0  0  0
  -18.3466   29.4699   12.7017 F   0  0  0  0  0  0  0  0  0  0  0  0
  -21.8998   32.6328    7.5579 C   0  0  0  0  0  0  0  0  0  0  0  0
  -21.1442   29.9507    7.3061 O   0  0  0  0  0  0  0  0  0  0  0  0
  -22.3034   30.2662    7.0555 C   0  0  0  0  0  0  0  0  0  0  0  0
  -22.7650   31.5537    7.1679 N   0  0  0  0  0  0  0  0  0  0  0  0
  -23.7121   31.7426    6.9766 H   0  0  0  0  0  0  0  0  0  0  0  0
  -23.2765   29.2252    6.6032 C   0  0  0  0  0  0  0  0  0  0  0  0
  -24.2940   29.6358    5.7227 C   0  0  0  0  0  0  0  0  0  0  0  0
  -25.2453   28.7125    5.2616 C   0  0  0  0  0  0  0  0  0  0  0  0
  -25.2019   27.3708    5.6633 C   0  0  0  0  0  0  0  0  0  0  0  0
  -24.1948   26.9743    6.5321 C   0  0  0  0  0  0  0  0  0  0  0  0
  -24.0929   25.6803    6.9703 O   0  0  0  0  0  0  0  0  0  0  0  0
  -23.2396   27.8834    7.0019 C   0  0  0  0  0  0  0  0  0  0  0  0
  -22.2814   27.4004    7.8579 O   0  0  0  0  0  0  0  0  0  0  0  0
  -24.7109   25.0379    6.6816 H   0  0  0  0  0  0  0  0  0  0  0  0
  -22.2861   26.4964    8.1043 H   0  0  0  0  0  0  0  0  0  0  0  0
  -26.3068   29.1548    4.3491 N   0  0  0  0  0  0  0  0  0  0  0  0
  -26.5013   30.3715    4.2329 O   0  0  0  0  0  0  0  0  0  0  0  0
  -26.9442   28.2775    3.7483 O   0  0  0  0  0  0  0  0  0  0  0  0
 22 23  2  0
 23 24  1  0
 24 21  1  0
 21  1  1  0
  1  2  2  0
  3  2  1  0
  3  4  1  0
  4  5  1  0
  5 12  1  0
 12 13  1  0
 13 14  2  0
 14 15  1  0
 15 17  1  0
 17 18  1  0
 17 19  1  0
 17 20  1  0
 15 16  2  0
  5  6  1  0
  6  7  1  0
  6  8  1  0
  8  9  1  0
 23 26  1  0
 26 27  2  0
 27 28  1  0
 28 36  1  0
 36 37  2  0
 36 38  1  0
 28 29  2  0
 29 30  1  0
 30 31  1  0
 30 32  2  0
 32 33  1  0
  8  3  1  0
 32 26  1  0
 16 12  1  0
 24 25  1  0
  7 10  1  0
  9 11  1  0
 31 34  1  0
 33 35  1  0
M  CHG 1  36   1
M  CHG 1  38  -1
M  END
> <minimizedAffinity>
-8.77585

> <CNNscore>
0.3452520669

> <CNNaffinity>
5.4959797859

> <CNN_VS>
1.8974983692

> <CNNaffinity_variance>
0.1221431270

$$$$



 38 40  0  0  0  0  0  0  0  0999 V2000
  -19.4971   32.1957   13.8747 C   0  0  0  0  0  0  0  0  0  0  0  0
  -20.5063   32.9906   13.4775 C   0  0  0  0  0  0  0  0  0  0  0  0
  -21.0911   34.1463   14.2434 C   0  0  0  0  0  0  0  0  0  0  0  0
  -20.1200   35.1907   14.4321 O   0  0  0  0  0  0  0  0  0  0  0  0
  -20.8038   36.4561   14.3420 C   0  0  0  0  0  0  0  0  0  0  0  0
  -22.2965   36.1790   14.1387 C   0  0  0  0  0  0  0  0  0  0  0  0
  -22.9976   36.1082   15.3977 O   0  0  0  0  0  0  0  0  0  0  0  0
  -22.2816   34.7895   13.5257 C   0  0  0  0  0  0  0  0  0  0  0  0
  -23.5101   34.1049   13.7490 O   0  0  0  0  0  0  0  0  0  0  0  0
  -22.5891   35.4294   15.9575 H   0  0  0  0  0  0  0  0  0  0  0  0
  -23.6900   34.0658   14.7014 H   0  0  0  0  0  0  0  0  0  0  0  0
  -20.2246   37.2423   13.2631 N   0  0  0  0  0  0  0  0  0  0  0  0
  -20.8657   37.5384   12.0931 C   0  0  0  0  0  0  0  0  0  0  0  0
  -20.0823   38.1927   11.2678 N   0  0  0  0  0  0  0  0  0  0  0  0
  -18.8772   38.3680   11.9394 C   0  0  0  0  0  0  0  0  0  0  0  0
  -18.9634   37.7673   13.1858 C   0  0  0  0  0  0  0  0  0  0  0  0
  -17.7135   39.1002   11.3303 C   0  0  0  0  0  0  0  0  0  0  0  0
  -17.3850   40.2243   12.0195 F   0  0  0  0  0  0  0  0  0  0  0  0
  -16.5925   38.3274   11.2940 F   0  0  0  0  0  0  0  0  0  0  0  0
  -17.9621   39.4763   10.0478 F   0  0  0  0  0  0  0  0  0  0  0  0
  -18.9644   31.0532   13.0708 C   0  0  0  0  0  0  0  0  0  0  0  0
  -16.9937   30.9744   11.0865 O   0  0  0  0  0  0  0  0  0  0  0  0
  -16.6520   30.9212   12.2639 C   0  0  0  0  0  0  0  0  0  0  0  0
  -17.5485   30.9702   13.3018 N   0  0  0  0  0  0  0  0  0  0  0  0
  -17.2134   30.9479   14.2273 H   0  0  0  0  0  0  0  0  0  0  0  0
  -15.2039   30.7943   12.6133 C   0  0  0  0  0  0  0  0  0  0  0  0
  -14.2769   31.3897   11.7384 C   0  0  0  0  0  0  0  0  0  0  0  0
  -12.9009   31.3053   12.0018 C   0  0  0  0  0  0  0  0  0  0  0  0
  -12.4233   30.6330   13.1346 C   0  0  0  0  0  0  0  0  0  0  0  0
  -13.3447   30.0485   13.9924 C   0  0  0  0  0  0  0  0  0  0  0  0
  -12.9504   29.3717   15.1164 O   0  0  0  0  0  0  0  0  0  0  0  0
  -14.7201   30.1228   13.7428 C   0  0  0  0  0  0  0  0  0  0  0  0
  -15.5555   29.5147   14.6464 O   0  0  0  0  0  0  0  0  0  0  0  0
  -12.0394   29.2969   15.3228 H   0  0  0  0  0  0  0  0  0  0  0  0
  -15.1980   29.0737   15.3918 H   0  0  0  0  0  0  0  0  0  0  0  0
  -11.9431   31.9240   11.0771 N   0  0  0  0  0  0  0  0  0  0  0  0
  -11.2245   31.1766   10.4014 O   0  0  0  0  0  0  0  0  0  0  0  0
  -11.9149   33.1625   11.0302 O   0  0  0  0  0  0  0  0  0  0  0  0
 22 23  2  0
 23 24  1  0
 24 21  1  0
 21  1  1  0
  1  2  2  0
  3  2  1  0
  3  4  1  0
  4  5  1  0
  5 12  1  0
 12 13  1  0
 13 14  2  0
 14 15  1  0
 15 17  1  0
 17 18  1  0
 17 19  1  0
 17 20  1  0
 15 16  2  0
  5  6  1  0
  6  7  1  0
  6  8  1  0
  8  9  1  0
 23 26  1  0
 26 27  2  0
 27 28  1  0
 28 36  1  0
 36 37  2  0
 36 38  1  0
 28 29  2  0
 29 30  1  0
 30 31  1  0
 30 32  2  0
 32 33  1  0
  8  3  1  0
 32 26  1  0
 16 12  1  0
 24 25  1  0
  7 10  1  0
  9 11  1  0
 31 34  1  0
 33 35  1  0
M  CHG 1  36   1
M  CHG 1  38  -1
M  END
> <minimizedAffinity>
-8.55234

> <CNNscore>
0.3380275369

> <CNNaffinity>
5.8771080971

> <CNN_VS>
1.9866243601

> <CNNaffinity_variance>
0.0215535481

$$$$



 38 40  0  0  0  0  0  0  0  0999 V2000
  -19.5287   32.5766   13.6103 C   0  0  0  0  0  0  0  0  0  0  0  0
  -20.5750   33.2543   13.1063 C   0  0  0  0  0  0  0  0  0  0  0  0
  -21.0824   34.5930   13.5698 C   0  0  0  0  0  0  0  0  0  0  0  0
  -20.3866   35.0337   14.7493 O   0  0  0  0  0  0  0  0  0  0  0  0
  -20.2269   36.4635   14.6639 C   0  0  0  0  0  0  0  0  0  0  0  0
  -20.9116   36.9448   13.3809 C   0  0  0  0  0  0  0  0  0  0  0  0
  -22.2879   37.3060   13.6194 O   0  0  0  0  0  0  0  0  0  0  0  0
  -20.8923   35.6930   12.5211 C   0  0  0  0  0  0  0  0  0  0  0  0
  -21.9218   35.7167   11.5375 O   0  0  0  0  0  0  0  0  0  0  0  0
  -22.7585   36.5501   14.0043 H   0  0  0  0  0  0  0  0  0  0  0  0
  -22.7816   35.8301   11.9720 H   0  0  0  0  0  0  0  0  0  0  0  0
  -18.8105   36.7945   14.7049 N   0  0  0  0  0  0  0  0  0  0  0  0
  -17.8922   36.1618   15.4948 C   0  0  0  0  0  0  0  0  0  0  0  0
  -16.7062   36.7147   15.3906 N   0  0  0  0  0  0  0  0  0  0  0  0
  -16.8403   37.7395   14.4600 C   0  0  0  0  0  0  0  0  0  0  0  0
  -18.1588   37.7942   14.0356 C   0  0  0  0  0  0  0  0  0  0  0  0
  -15.6848   38.6075   14.0442 C   0  0  0  0  0  0  0  0  0  0  0  0
  -14.4911   37.9639   14.1289 F   0  0  0  0  0  0  0  0  0  0  0  0
  -15.8067   39.0282   12.7545 F   0  0  0  0  0  0  0  0  0  0  0  0
  -15.5890   39.7290   14.8064 F   0  0  0  0  0  0  0  0  0  0  0  0
  -19.0770   31.2413   13.1120 C   0  0  0  0  0  0  0  0  0  0  0  0
  -17.1505   30.8919   11.1134 O   0  0  0  0  0  0  0  0  0  0  0  0
  -16.7859   30.9577   12.2832 C   0  0  0  0  0  0  0  0  0  0  0  0
  -17.6592   31.1444   13.3254 N   0  0  0  0  0  0  0  0  0  0  0  0
  -17.3056   31.2137   14.2416 H   0  0  0  0  0  0  0  0  0  0  0  0
  -15.3346   30.8292   12.6186 C   0  0  0  0  0  0  0  0  0  0  0  0
  -14.4149   31.4119   11.7276 C   0  0  0  0  0  0  0  0  0  0  0  0
  -13.0365   31.3252   11.9772 C   0  0  0  0  0  0  0  0  0  0  0  0
  -12.5493   30.6632   13.1121 C   0  0  0  0  0  0  0  0  0  0  0  0
  -13.4636   30.0912   13.9858 C   0  0  0  0  0  0  0  0  0  0  0  0
  -13.0597   29.4250   15.1127 O   0  0  0  0  0  0  0  0  0  0  0  0
  -14.8413   30.1679   13.7500 C   0  0  0  0  0  0  0  0  0  0  0  0
  -15.6692   29.5726   14.6688 O   0  0  0  0  0  0  0  0  0  0  0  0
  -12.1469   29.3490   15.3102 H   0  0  0  0  0  0  0  0  0  0  0  0
  -15.3053   29.1382   15.4151 H   0  0  0  0  0  0  0  0  0  0  0  0
  -12.0864   31.9305   11.0360 N   0  0  0  0  0  0  0  0  0  0  0  0
  -11.3497   31.1747   10.3898 O   0  0  0  0  0  0  0  0  0  0  0  0
  -12.0825   33.1670   10.9461 O   0  0  0  0  0  0  0  0  0  0  0  0
 22 23  2  0
 23 24  1  0
 24 21  1  0
 21  1  1  0
  1  2  2  0
  3  2  1  0
  3  4  1  0
  4  5  1  0
  5 12  1  0
 12 13  1  0
 13 14  2  0
 14 15  1  0
 15 17  1  0
 17 18  1  0
 17 19  1  0
 17 20  1  0
 15 16  2  0
  5  6  1  0
  6  7  1  0
  6  8  1  0
  8  9  1  0
 23 26  1  0
 26 27  2  0
 27 28  1  0
 28 36  1  0
 36 37  2  0
 36 38  1  0
 28 29  2  0
 29 30  1  0
 30 31  1  0
 30 32  2  0
 32 33  1  0
  8  3  1  0
 32 26  1  0
 16 12  1  0
 24 25  1  0
  7 10  1  0
  9 11  1  0
 31 34  1  0
 33 35  1  0
M  CHG 1  36   1
M  CHG 1  38  -1
M  END
> <minimizedAffinity>
-8.53729

> <CNNscore>
0.3063544929

> <CNNaffinity>
5.9469552040

> <CNN_VS>
1.8218764067

> <CNNaffinity_variance>
0.0455645882

$$$$



 38 40  0  0  0  0  0  0  0  0999 V2000
  -19.3742   32.3238   13.3975 C   0  0  0  0  0  0  0  0  0  0  0  0
  -20.5682   32.7973   12.9996 C   0  0  0  0  0  0  0  0  0  0  0  0
  -21.0587   34.2139   13.1299 C   0  0  0  0  0  0  0  0  0  0  0  0
  -21.1750   34.8451   11.8424 O   0  0  0  0  0  0  0  0  0  0  0  0
  -22.3283   35.7090   11.8727 C   0  0  0  0  0  0  0  0  0  0  0  0
  -22.9317   35.6510   13.2795 C   0  0  0  0  0  0  0  0  0  0  0  0
  -22.3815   36.6753   14.1336 O   0  0  0  0  0  0  0  0  0  0  0  0
  -22.4426   34.3032   13.7801 C   0  0  0  0  0  0  0  0  0  0  0  0
  -22.3999   34.2565   15.2028 O   0  0  0  0  0  0  0  0  0  0  0  0
  -21.4160   36.5872   14.1636 H   0  0  0  0  0  0  0  0  0  0  0  0
  -21.8408   34.9770   15.5333 H   0  0  0  0  0  0  0  0  0  0  0  0
  -23.2669   35.2979   10.8395 N   0  0  0  0  0  0  0  0  0  0  0  0
  -22.9034   34.8068    9.6171 C   0  0  0  0  0  0  0  0  0  0  0  0
  -23.9502   34.5912    8.8550 N   0  0  0  0  0  0  0  0  0  0  0  0
  -25.0605   34.9224    9.6243 C   0  0  0  0  0  0  0  0  0  0  0  0
  -24.6330   35.3712   10.8642 C   0  0  0  0  0  0  0  0  0  0  0  0
  -26.4670   34.7907    9.1089 C   0  0  0  0  0  0  0  0  0  0  0  0
  -27.2900   34.1649    9.9908 F   0  0  0  0  0  0  0  0  0  0  0  0
  -27.0274   36.0052    8.8519 F   0  0  0  0  0  0  0  0  0  0  0  0
  -26.5206   34.0893    7.9457 F   0  0  0  0  0  0  0  0  0  0  0  0
  -18.9465   30.8989   13.2492 C   0  0  0  0  0  0  0  0  0  0  0  0
  -17.0260   30.9068   11.2147 O   0  0  0  0  0  0  0  0  0  0  0  0
  -16.6532   30.8339   12.3816 C   0  0  0  0  0  0  0  0  0  0  0  0
  -17.5237   30.8403   13.4426 N   0  0  0  0  0  0  0  0  0  0  0  0
  -17.1647   30.8039   14.3585 H   0  0  0  0  0  0  0  0  0  0  0  0
  -15.1944   30.7293   12.6915 C   0  0  0  0  0  0  0  0  0  0  0  0
  -14.3013   31.3468   11.7968 C   0  0  0  0  0  0  0  0  0  0  0  0
  -12.9175   31.2841   12.0229 C   0  0  0  0  0  0  0  0  0  0  0  0
  -12.3986   30.6121   13.1376 C   0  0  0  0  0  0  0  0  0  0  0  0
  -13.2867   30.0058   14.0151 C   0  0  0  0  0  0  0  0  0  0  0  0
  -12.8511   29.3279   15.1231 O   0  0  0  0  0  0  0  0  0  0  0  0
  -14.6694   30.0582   13.8026 C   0  0  0  0  0  0  0  0  0  0  0  0
  -15.4699   29.4295   14.7235 O   0  0  0  0  0  0  0  0  0  0  0  0
  -11.9338   29.2673   15.3047 H   0  0  0  0  0  0  0  0  0  0  0  0
  -15.0852   28.9895   15.4558 H   0  0  0  0  0  0  0  0  0  0  0  0
  -11.9953   31.9257   11.0779 N   0  0  0  0  0  0  0  0  0  0  0  0
  -12.0007   33.1615   11.0117 O   0  0  0  0  0  0  0  0  0  0  0  0
  -11.2647   31.1858   10.4031 O   0  0  0  0  0  0  0  0  0  0  0  0
 22 23  2  0
 23 24  1  0
 24 21  1  0
 21  1  1  0
  1  2  2  0
  3  2  1  0
  3  4  1  0
  4  5  1  0
  5 12  1  0
 12 13  1  0
 13 14  2  0
 14 15  1  0
 15 17  1  0
 17 18  1  0
 17 19  1  0
 17 20  1  0
 15 16  2  0
  5  6  1  0
  6  7  1  0
  6  8  1  0
  8  9  1  0
 23 26  1  0
 26 27  2  0
 27 28  1  0
 28 36  1  0
 36 37  2  0
 36 38  1  0
 28 29  2  0
 29 30  1  0
 30 31  1  0
 30 32  2  0
 32 33  1  0
  8  3  1  0
 32 26  1  0
 16 12  1  0
 24 25  1  0
  7 10  1  0
  9 11  1  0
 31 34  1  0
 33 35  1  0
M  CHG 1  36   1
M  CHG 1  38  -1
M  END
> <minimizedAffinity>
-8.57813

> <CNNscore>
0.2953013778

> <CNNaffinity>
5.1097755432

> <CNN_VS>
1.5089237690

> <CNNaffinity_variance>
0.4322396815

$$$$



 38 40  0  0  0  0  0  0  0  0999 V2000
  -19.3499   32.0995   13.7619 C   0  0  0  0  0  0  0  0  0  0  0  0
  -20.6573   32.3808   13.9013 C   0  0  0  0  0  0  0  0  0  0  0  0
  -21.2460   33.6284   14.5025 C   0  0  0  0  0  0  0  0  0  0  0  0
  -20.3502   34.7455   14.3649 O   0  0  0  0  0  0  0  0  0  0  0  0
  -21.1429   35.9249   14.1245 C   0  0  0  0  0  0  0  0  0  0  0  0
  -22.6208   35.5243   14.1689 C   0  0  0  0  0  0  0  0  0  0  0  0
  -23.1665   35.6626   15.4973 O   0  0  0  0  0  0  0  0  0  0  0  0
  -22.5595   34.0444   13.8334 C   0  0  0  0  0  0  0  0  0  0  0  0
  -23.6935   33.3454   14.3368 O   0  0  0  0  0  0  0  0  0  0  0  0
  -22.6422   35.1339   16.1189 H   0  0  0  0  0  0  0  0  0  0  0  0
  -23.7606   33.4851   15.2943 H   0  0  0  0  0  0  0  0  0  0  0  0
  -20.7570   36.5148   12.8515 N   0  0  0  0  0  0  0  0  0  0  0  0
  -19.9348   37.5985   12.7201 C   0  0  0  0  0  0  0  0  0  0  0  0
  -19.8198   37.9654   11.4650 N   0  0  0  0  0  0  0  0  0  0  0  0
  -20.5742   37.0583   10.7287 C   0  0  0  0  0  0  0  0  0  0  0  0
  -21.1665   36.1542   11.5967 C   0  0  0  0  0  0  0  0  0  0  0  0
  -20.6810   37.1270    9.2303 C   0  0  0  0  0  0  0  0  0  0  0  0
  -21.5776   38.0587    8.8128 F   0  0  0  0  0  0  0  0  0  0  0  0
  -19.4905   37.4499    8.6527 F   0  0  0  0  0  0  0  0  0  0  0  0
  -21.0595   35.9382    8.6907 F   0  0  0  0  0  0  0  0  0  0  0  0
  -18.8246   30.8342   13.1631 C   0  0  0  0  0  0  0  0  0  0  0  0
  -16.8759   30.9485   11.1588 O   0  0  0  0  0  0  0  0  0  0  0  0
  -16.5183   30.8455   12.3281 C   0  0  0  0  0  0  0  0  0  0  0  0
  -17.4037   30.7992   13.3757 N   0  0  0  0  0  0  0  0  0  0  0  0
  -17.0570   30.7406   14.2952 H   0  0  0  0  0  0  0  0  0  0  0  0
  -15.0621   30.7616   12.6562 C   0  0  0  0  0  0  0  0  0  0  0  0
  -14.1641   31.3584   11.7525 C   0  0  0  0  0  0  0  0  0  0  0  0
  -12.7824   31.3133   11.9948 C   0  0  0  0  0  0  0  0  0  0  0  0
  -12.2704   30.6793   13.1347 C   0  0  0  0  0  0  0  0  0  0  0  0
  -13.1634   30.0931   14.0210 C   0  0  0  0  0  0  0  0  0  0  0  0
  -12.7346   29.4525   15.1535 O   0  0  0  0  0  0  0  0  0  0  0  0
  -14.5440   30.1285   13.7927 C   0  0  0  0  0  0  0  0  0  0  0  0
  -15.3497   29.5219   14.7238 O   0  0  0  0  0  0  0  0  0  0  0  0
  -11.8189   29.4044   15.3464 H   0  0  0  0  0  0  0  0  0  0  0  0
  -14.9696   29.1072   15.4731 H   0  0  0  0  0  0  0  0  0  0  0  0
  -11.8550   31.9330   11.0404 N   0  0  0  0  0  0  0  0  0  0  0  0
  -11.8032   33.1689   11.0020 O   0  0  0  0  0  0  0  0  0  0  0  0
  -11.1776   31.1757   10.3301 O   0  0  0  0  0  0  0  0  0  0  0  0
 22 23  2  0
 23 24  1  0
 24 21  1  0
 21  1  1  0
  1  2  2  0
  3  2  1  0
  3  4  1  0
  4  5  1  0
  5 12  1  0
 12 13  1  0
 13 14  2  0
 14 15  1  0
 15 17  1  0
 17 18  1  0
 17 19  1  0
 17 20  1  0
 15 16  2  0
  5  6  1  0
  6  7  1  0
  6  8  1  0
  8  9  1  0
 23 26  1  0
 26 27  2  0
 27 28  1  0
 28 36  1  0
 36 37  2  0
 36 38  1  0
 28 29  2  0
 29 30  1  0
 30 31  1  0
 30 32  2  0
 32 33  1  0
  8  3  1  0
 32 26  1  0
 16 12  1  0
 24 25  1  0
  7 10  1  0
  9 11  1  0
 31 34  1  0
 33 35  1  0
M  CHG 1  36   1
M  CHG 1  38  -1
M  END
> <minimizedAffinity>
-8.87251

> <CNNscore>
0.2906821966

> <CNNaffinity>
5.6779732704

> <CNN_VS>
1.6504857540

> <CNNaffinity_variance>
0.2612211406

$$$$



 38 40  0  0  0  0  0  0  0  0999 V2000
  -19.4084   32.4735   13.3085 C   0  0  0  0  0  0  0  0  0  0  0  0
  -20.6658   32.9124   13.1236 C   0  0  0  0  0  0  0  0  0  0  0  0
  -21.1255   34.3452   13.1364 C   0  0  0  0  0  0  0  0  0  0  0  0
  -22.5562   34.4319   13.2586 O   0  0  0  0  0  0  0  0  0  0  0  0
  -22.8646   35.5774   14.0771 C   0  0  0  0  0  0  0  0  0  0  0  0
  -21.5490   36.2734   14.4397 C   0  0  0  0  0  0  0  0  0  0  0  0
  -21.2078   37.2935   13.4782 O   0  0  0  0  0  0  0  0  0  0  0  0
  -20.5439   35.1425   14.3078 C   0  0  0  0  0  0  0  0  0  0  0  0
  -19.2313   35.6344   14.0570 O   0  0  0  0  0  0  0  0  0  0  0  0
  -21.1629   36.9008   12.5924 H   0  0  0  0  0  0  0  0  0  0  0  0
  -19.2405   36.1896   13.2616 H   0  0  0  0  0  0  0  0  0  0  0  0
  -23.6154   35.1470   15.2469 N   0  0  0  0  0  0  0  0  0  0  0  0
  -24.1500   33.8993   15.4053 C   0  0  0  0  0  0  0  0  0  0  0  0
  -24.8419   33.8103   16.5173 N   0  0  0  0  0  0  0  0  0  0  0  0
  -24.7289   35.0485   17.1404 C   0  0  0  0  0  0  0  0  0  0  0  0
  -23.9669   35.8876   16.3424 C   0  0  0  0  0  0  0  0  0  0  0  0
  -25.3718   35.3453   18.4670 C   0  0  0  0  0  0  0  0  0  0  0  0
  -25.5833   34.2255   19.2071 F   0  0  0  0  0  0  0  0  0  0  0  0
  -24.6024   36.1723   19.2282 F   0  0  0  0  0  0  0  0  0  0  0  0
  -26.5742   35.9631   18.3245 F   0  0  0  0  0  0  0  0  0  0  0  0
  -19.0138   31.0314   13.2940 C   0  0  0  0  0  0  0  0  0  0  0  0
  -17.1041   30.8108   11.2612 O   0  0  0  0  0  0  0  0  0  0  0  0
  -16.7271   30.8359   12.4287 C   0  0  0  0  0  0  0  0  0  0  0  0
  -17.5917   30.9585   13.4874 N   0  0  0  0  0  0  0  0  0  0  0  0
  -17.2288   30.9975   14.4018 H   0  0  0  0  0  0  0  0  0  0  0  0
  -15.2693   30.7271   12.7423 C   0  0  0  0  0  0  0  0  0  0  0  0
  -14.3725   31.3468   11.8531 C   0  0  0  0  0  0  0  0  0  0  0  0
  -12.9894   31.2804   12.0829 C   0  0  0  0  0  0  0  0  0  0  0  0
  -12.4751   30.6022   13.1959 C   0  0  0  0  0  0  0  0  0  0  0  0
  -13.3669   29.9936   14.0680 C   0  0  0  0  0  0  0  0  0  0  0  0
  -12.9358   29.3097   15.1741 O   0  0  0  0  0  0  0  0  0  0  0  0
  -14.7488   30.0497   13.8518 C   0  0  0  0  0  0  0  0  0  0  0  0
  -15.5533   29.4184   14.7674 O   0  0  0  0  0  0  0  0  0  0  0  0
  -12.0192   29.2464   15.3580 H   0  0  0  0  0  0  0  0  0  0  0  0
  -15.1715   28.9741   15.4988 H   0  0  0  0  0  0  0  0  0  0  0  0
  -12.0633   31.9246   11.1435 N   0  0  0  0  0  0  0  0  0  0  0  0
  -12.0485   33.1613   11.1007 O   0  0  0  0  0  0  0  0  0  0  0  0
  -11.3498   31.1856   10.4495 O   0  0  0  0  0  0  0  0  0  0  0  0
 22 23  2  0
 23 24  1  0
 24 21  1  0
 21  1  1  0
  1  2  2  0
  3  2  1  0
  3  4  1  0
  4  5  1  0
  5 12  1  0
 12 13  1  0
 13 14  2  0
 14 15  1  0
 15 17  1  0
 17 18  1  0
 17 19  1  0
 17 20  1  0
 15 16  2  0
  5  6  1  0
  6  7  1  0
  6  8  1  0
  8  9  1  0
 23 26  1  0
 26 27  2  0
 27 28  1  0
 28 36  1  0
 36 37  2  0
 36 38  1  0
 28 29  2  0
 29 30  1  0
 30 31  1  0
 30 32  2  0
 32 33  1  0
  8  3  1  0
 32 26  1  0
 16 12  1  0
 24 25  1  0
  7 10  1  0
  9 11  1  0
 31 34  1  0
 33 35  1  0
M  CHG 1  36   1
M  CHG 1  38  -1
M  END
> <minimizedAffinity>
-8.78603

> <CNNscore>
0.2851806283

> <CNNaffinity>
5.0452094078

> <CNN_VS>
1.4387960434

> <CNNaffinity_variance>
0.7793861032

$$$$
