


 33 35  0  0  0  0  0  0  0  0999 V2000
   91.8423   93.9053  -43.4662 C   0  0  0  0  0  0  0  0  0  0  0  0
   91.8906   92.9881  -44.5210 C   0  0  0  0  0  0  0  0  0  0  0  0
   91.4171   93.3496  -45.7798 C   0  0  0  0  0  0  0  0  0  0  0  0
   90.8842   94.6242  -45.9812 C   0  0  0  0  0  0  0  0  0  0  0  0
   90.8224   95.5690  -44.9353 C   0  0  0  0  0  0  0  0  0  0  0  0
   91.3196   95.1950  -43.6754 C   0  0  0  0  0  0  0  0  0  0  0  0
   91.3231   96.0521  -42.6062 O   0  0  0  0  0  0  0  0  0  0  0  0
   90.9845   96.9207  -42.7009 H   0  0  0  0  0  0  0  0  0  0  0  0
   92.7737   93.1570  -41.1169 C   0  0  0  0  0  0  0  0  0  0  0  0
   92.3475   93.5009  -42.1854 C   0  0  0  0  0  0  0  0  0  0  0  0
   91.4827   92.4227  -46.8670 C   0  0  0  0  0  0  0  0  0  0  0  0
   91.5457   91.6555  -47.7889 C   0  0  0  0  0  0  0  0  0  0  0  0
   91.6343   90.7299  -48.9233 C   0  0  0  0  0  0  0  0  0  0  0  0
   90.3369   90.3257  -49.3689 O   0  0  0  0  0  0  0  0  0  0  0  0
   89.8496   90.8536  -50.5315 C   0  0  0  0  0  0  0  0  0  0  0  0
   88.6816   90.4665  -51.1894 C   0  0  0  0  0  0  0  0  0  0  0  0
   88.2973   91.1054  -52.3733 C   0  0  0  0  0  0  0  0  0  0  0  0
   89.0802   92.1312  -52.8979 C   0  0  0  0  0  0  0  0  0  0  0  0
   88.6037   92.9117  -54.3527 Cl  0  0  0  0  0  0  0  0  0  0  0  0
   90.2432   92.5288  -52.2474 C   0  0  0  0  0  0  0  0  0  0  0  0
   90.6223   91.8905  -51.0652 C   0  0  0  0  0  0  0  0  0  0  0  0
   90.2055   96.9187  -45.2463 C   0  0  0  0  0  0  0  0  0  0  0  0
   91.1247   97.8120  -45.9707 N   0  0  0  0  0  0  0  0  0  0  0  0
   92.3702   98.0982  -45.2538 C   0  0  0  0  0  0  0  0  0  0  0  0
   92.2106   99.0470  -44.0635 C   0  0  0  0  0  0  0  0  0  0  0  0
   91.5376  100.3799  -44.4636 C   0  0  0  0  0  0  0  0  0  0  0  0
   90.2378  100.0502  -45.2352 C   0  0  0  0  0  0  0  0  0  0  0  0
   90.4755   99.0605  -46.3781 C   0  0  0  0  0  0  0  0  0  0  0  0
   91.2749  101.2680  -43.2895 N   0  0  0  0  0  0  0  0  0  0  0  0
   91.6716  102.6687  -43.5552 C   0  0  0  0  0  0  0  0  0  0  0  0
   90.5159  103.6561  -43.7195 C   0  0  0  0  0  0  0  0  0  0  0  0
   91.8179  100.7563  -42.0149 C   0  0  0  0  0  0  0  0  0  0  0  0
   91.3697  101.4887  -40.7522 C   0  0  0  0  0  0  0  0  0  0  0  0
  9 10  3  0
 10  1  1  0
  1  2  2  0
  2  3  1  0
  3 11  1  0
 11 12  3  0
 12 13  1  0
 13 14  1  0
 14 15  1  0
 15 16  2  0
 16 17  1  0
 17 18  2  0
 18 19  1  0
 18 20  1  0
 20 21  2  0
  3  4  2  0
  4  5  1  0
  5 22  1  0
 22 23  1  0
 23 24  1  0
 24 25  1  0
 25 26  1  0
 26 29  1  0
 29 30  1  0
 30 31  1  0
 29 32  1  0
 32 33  1  0
 26 27  1  0
 27 28  1  0
  5  6  2  0
  6  7  1  0
  6  1  1  0
 21 15  1  0
 28 23  1  0
  7  8  1  0
M  END
> <minimizedAffinity>
-6.73630

> <CNNscore>
0.8688014150

> <CNNaffinity>
5.4651265144

> <CNN_VS>
4.7481098175

> <CNNaffinity_variance>
1.0217142105

$$$$



 33 35  0  0  0  0  0  0  0  0999 V2000
   92.1119   94.0191  -43.3760 C   0  0  0  0  0  0  0  0  0  0  0  0
   92.1128   93.1228  -44.4497 C   0  0  0  0  0  0  0  0  0  0  0  0
   91.5709   93.5037  -45.6747 C   0  0  0  0  0  0  0  0  0  0  0  0
   91.0169   94.7767  -45.8228 C   0  0  0  0  0  0  0  0  0  0  0  0
   91.0018   95.7006  -44.7568 C   0  0  0  0  0  0  0  0  0  0  0  0
   91.5677   95.3074  -43.5322 C   0  0  0  0  0  0  0  0  0  0  0  0
   91.6197   96.1439  -42.4480 O   0  0  0  0  0  0  0  0  0  0  0  0
   91.2690   97.0107  -42.5078 H   0  0  0  0  0  0  0  0  0  0  0  0
   93.1727   93.2358  -41.0939 C   0  0  0  0  0  0  0  0  0  0  0  0
   92.6871   93.5952  -42.1316 C   0  0  0  0  0  0  0  0  0  0  0  0
   91.5874   92.5985  -46.7819 C   0  0  0  0  0  0  0  0  0  0  0  0
   91.5923   91.8279  -47.7030 C   0  0  0  0  0  0  0  0  0  0  0  0
   91.5853   90.8766  -48.8195 C   0  0  0  0  0  0  0  0  0  0  0  0
   90.3034   90.8239  -49.4514 O   0  0  0  0  0  0  0  0  0  0  0  0
   89.7859   89.6031  -49.7825 C   0  0  0  0  0  0  0  0  0  0  0  0
   88.6660   89.3691  -50.5811 C   0  0  0  0  0  0  0  0  0  0  0  0
   88.2535   88.0587  -50.8462 C   0  0  0  0  0  0  0  0  0  0  0  0
   88.9614   86.9836  -50.3138 C   0  0  0  0  0  0  0  0  0  0  0  0
   88.4496   85.3764  -50.6421 Cl  0  0  0  0  0  0  0  0  0  0  0  0
   90.0823   87.2053  -49.5212 C   0  0  0  0  0  0  0  0  0  0  0  0
   90.4922   88.5140  -49.2606 C   0  0  0  0  0  0  0  0  0  0  0  0
   90.3575   97.0499  -45.0085 C   0  0  0  0  0  0  0  0  0  0  0  0
   91.1454   97.8964  -45.9198 N   0  0  0  0  0  0  0  0  0  0  0  0
   92.4878   98.2176  -45.4277 C   0  0  0  0  0  0  0  0  0  0  0  0
   92.5150   99.2336  -44.2834 C   0  0  0  0  0  0  0  0  0  0  0  0
   91.7805  100.5443  -44.6467 C   0  0  0  0  0  0  0  0  0  0  0  0
   90.3761  100.1768  -45.1815 C   0  0  0  0  0  0  0  0  0  0  0  0
   90.4337   99.1224  -46.2892 C   0  0  0  0  0  0  0  0  0  0  0  0
   91.7038  101.4992  -43.4983 N   0  0  0  0  0  0  0  0  0  0  0  0
   92.9405  102.3002  -43.3609 C   0  0  0  0  0  0  0  0  0  0  0  0
   92.8174  103.5492  -42.4877 C   0  0  0  0  0  0  0  0  0  0  0  0
   91.2861  100.8772  -42.2257 C   0  0  0  0  0  0  0  0  0  0  0  0
   92.2661  101.0066  -41.0618 C   0  0  0  0  0  0  0  0  0  0  0  0
  9 10  3  0
 10  1  1  0
  1  2  2  0
  2  3  1  0
  3 11  1  0
 11 12  3  0
 12 13  1  0
 13 14  1  0
 14 15  1  0
 15 16  2  0
 16 17  1  0
 17 18  2  0
 18 19  1  0
 18 20  1  0
 20 21  2  0
  3  4  2  0
  4  5  1  0
  5 22  1  0
 22 23  1  0
 23 24  1  0
 24 25  1  0
 25 26  1  0
 26 29  1  0
 29 30  1  0
 30 31  1  0
 29 32  1  0
 32 33  1  0
 26 27  1  0
 27 28  1  0
  5  6  2  0
  6  7  1  0
  6  1  1  0
 21 15  1  0
 28 23  1  0
  7  8  1  0
M  END
> <minimizedAffinity>
-6.57185

> <CNNscore>
0.8680049181

> <CNNaffinity>
5.5792503357

> <CNN_VS>
4.8428168297

> <CNNaffinity_variance>
0.7597239017

$$$$



 33 35  0  0  0  0  0  0  0  0999 V2000
   91.8058   93.7608  -43.5741 C   0  0  0  0  0  0  0  0  0  0  0  0
   91.8018   92.8641  -44.6473 C   0  0  0  0  0  0  0  0  0  0  0  0
   91.4110   93.2948  -45.9126 C   0  0  0  0  0  0  0  0  0  0  0  0
   91.0127   94.6193  -46.1026 C   0  0  0  0  0  0  0  0  0  0  0  0
   91.0062   95.5451  -45.0380 C   0  0  0  0  0  0  0  0  0  0  0  0
   91.4193   95.0995  -43.7711 C   0  0  0  0  0  0  0  0  0  0  0  0
   91.4685   95.9312  -42.6830 O   0  0  0  0  0  0  0  0  0  0  0  0
   91.2199   96.8305  -42.7691 H   0  0  0  0  0  0  0  0  0  0  0  0
   92.5778   92.8896  -41.2093 C   0  0  0  0  0  0  0  0  0  0  0  0
   92.2232   93.2838  -42.2866 C   0  0  0  0  0  0  0  0  0  0  0  0
   91.4244   92.3873  -47.0180 C   0  0  0  0  0  0  0  0  0  0  0  0
   91.4239   91.6165  -47.9390 C   0  0  0  0  0  0  0  0  0  0  0  0
   91.4078   90.6673  -49.0572 C   0  0  0  0  0  0  0  0  0  0  0  0
   90.1655   90.7155  -49.7640 O   0  0  0  0  0  0  0  0  0  0  0  0
   89.6148   89.5435  -50.2014 C   0  0  0  0  0  0  0  0  0  0  0  0
   88.7477   89.3911  -51.2838 C   0  0  0  0  0  0  0  0  0  0  0  0
   88.2669   88.1224  -51.6256 C   0  0  0  0  0  0  0  0  0  0  0  0
   88.6542   87.0073  -50.8860 C   0  0  0  0  0  0  0  0  0  0  0  0
   88.0598   85.4517  -51.3099 Cl  0  0  0  0  0  0  0  0  0  0  0  0
   89.5224   87.1472  -49.8087 C   0  0  0  0  0  0  0  0  0  0  0  0
   90.0018   88.4142  -49.4719 C   0  0  0  0  0  0  0  0  0  0  0  0
   90.5355   96.9548  -45.3386 C   0  0  0  0  0  0  0  0  0  0  0  0
   91.2122   97.9694  -44.5139 N   0  0  0  0  0  0  0  0  0  0  0  0
   90.3532   99.0882  -44.1170 C   0  0  0  0  0  0  0  0  0  0  0  0
   90.0265  100.0663  -45.2479 C   0  0  0  0  0  0  0  0  0  0  0  0
   91.2990  100.6202  -45.9286 C   0  0  0  0  0  0  0  0  0  0  0  0
   92.1965   99.4221  -46.3189 C   0  0  0  0  0  0  0  0  0  0  0  0
   92.4359   98.4688  -45.1458 C   0  0  0  0  0  0  0  0  0  0  0  0
   90.9910  101.4887  -47.1064 N   0  0  0  0  0  0  0  0  0  0  0  0
   91.1397  100.7598  -48.3856 C   0  0  0  0  0  0  0  0  0  0  0  0
   89.8323  100.4285  -49.1058 C   0  0  0  0  0  0  0  0  0  0  0  0
   91.7048  102.7816  -47.1035 C   0  0  0  0  0  0  0  0  0  0  0  0
   92.4218  103.1495  -45.8064 C   0  0  0  0  0  0  0  0  0  0  0  0
  9 10  3  0
 10  1  1  0
  1  2  2  0
  2  3  1  0
  3 11  1  0
 11 12  3  0
 12 13  1  0
 13 14  1  0
 14 15  1  0
 15 16  2  0
 16 17  1  0
 17 18  2  0
 18 19  1  0
 18 20  1  0
 20 21  2  0
  3  4  2  0
  4  5  1  0
  5 22  1  0
 22 23  1  0
 23 24  1  0
 24 25  1  0
 25 26  1  0
 26 29  1  0
 29 30  1  0
 30 31  1  0
 29 32  1  0
 32 33  1  0
 26 27  1  0
 27 28  1  0
  5  6  2  0
  6  7  1  0
  6  1  1  0
 21 15  1  0
 28 23  1  0
  7  8  1  0
M  END
> <minimizedAffinity>
-6.52635

> <CNNscore>
0.8240252137

> <CNNaffinity>
5.0404067039

> <CNN_VS>
4.1534223557

> <CNNaffinity_variance>
1.2101955414

$$$$



 33 35  0  0  0  0  0  0  0  0999 V2000
   91.7767   93.7936  -43.5690 C   0  0  0  0  0  0  0  0  0  0  0  0
   91.8030   92.8629  -44.6127 C   0  0  0  0  0  0  0  0  0  0  0  0
   91.4306   93.2480  -45.8981 C   0  0  0  0  0  0  0  0  0  0  0  0
   91.0203   94.5608  -46.1379 C   0  0  0  0  0  0  0  0  0  0  0  0
   90.9833   95.5201  -45.1040 C   0  0  0  0  0  0  0  0  0  0  0  0
   91.3782   95.1204  -43.8161 C   0  0  0  0  0  0  0  0  0  0  0  0
   91.3975   95.9871  -42.7547 O   0  0  0  0  0  0  0  0  0  0  0  0
   91.1400   96.8800  -42.8743 H   0  0  0  0  0  0  0  0  0  0  0  0
   92.5129   92.9974  -41.1667 C   0  0  0  0  0  0  0  0  0  0  0  0
   92.1758   93.3633  -42.2595 C   0  0  0  0  0  0  0  0  0  0  0  0
   91.4750   92.3058  -46.9731 C   0  0  0  0  0  0  0  0  0  0  0  0
   91.5029   91.5245  -47.8848 C   0  0  0  0  0  0  0  0  0  0  0  0
   91.5291   90.5829  -49.0092 C   0  0  0  0  0  0  0  0  0  0  0  0
   90.3931   89.7143  -48.9884 O   0  0  0  0  0  0  0  0  0  0  0  0
   89.6230   89.6160  -50.1133 C   0  0  0  0  0  0  0  0  0  0  0  0
   88.9621   88.4733  -50.5652 C   0  0  0  0  0  0  0  0  0  0  0  0
   88.1962   88.5210  -51.7351 C   0  0  0  0  0  0  0  0  0  0  0  0
   88.0908   89.7110  -52.4515 C   0  0  0  0  0  0  0  0  0  0  0  0
   87.1494   89.7635  -53.8881 Cl  0  0  0  0  0  0  0  0  0  0  0  0
   88.7408   90.8573  -52.0070 C   0  0  0  0  0  0  0  0  0  0  0  0
   89.5023   90.8065  -50.8381 C   0  0  0  0  0  0  0  0  0  0  0  0
   90.5018   96.9135  -45.4584 C   0  0  0  0  0  0  0  0  0  0  0  0
   91.0987   97.9562  -44.6075 N   0  0  0  0  0  0  0  0  0  0  0  0
   90.1808   99.0450  -44.2621 C   0  0  0  0  0  0  0  0  0  0  0  0
   89.8769  100.0048  -45.4148 C   0  0  0  0  0  0  0  0  0  0  0  0
   91.1615  100.6012  -46.0341 C   0  0  0  0  0  0  0  0  0  0  0  0
   92.1203   99.4346  -46.3703 C   0  0  0  0  0  0  0  0  0  0  0  0
   92.3341   98.4966  -45.1802 C   0  0  0  0  0  0  0  0  0  0  0  0
   90.8825  101.4521  -47.2319 N   0  0  0  0  0  0  0  0  0  0  0  0
   91.2640  100.7763  -48.4919 C   0  0  0  0  0  0  0  0  0  0  0  0
   90.1016  100.4055  -49.4134 C   0  0  0  0  0  0  0  0  0  0  0  0
   91.4249  102.8223  -47.1359 C   0  0  0  0  0  0  0  0  0  0  0  0
   92.3948  103.2392  -48.2393 C   0  0  0  0  0  0  0  0  0  0  0  0
  9 10  3  0
 10  1  1  0
  1  2  2  0
  2  3  1  0
  3 11  1  0
 11 12  3  0
 12 13  1  0
 13 14  1  0
 14 15  1  0
 15 16  2  0
 16 17  1  0
 17 18  2  0
 18 19  1  0
 18 20  1  0
 20 21  2  0
  3  4  2  0
  4  5  1  0
  5 22  1  0
 22 23  1  0
 23 24  1  0
 24 25  1  0
 25 26  1  0
 26 29  1  0
 29 30  1  0
 30 31  1  0
 29 32  1  0
 32 33  1  0
 26 27  1  0
 27 28  1  0
  5  6  2  0
  6  7  1  0
  6  1  1  0
 21 15  1  0
 28 23  1  0
  7  8  1  0
M  END
> <minimizedAffinity>
-6.36563

> <CNNscore>
0.7991304994

> <CNNaffinity>
5.0133738518

> <CNN_VS>
4.0063400269

> <CNNaffinity_variance>
1.0121997595

$$$$



 33 35  0  0  0  0  0  0  0  0999 V2000
   89.4579   87.2716  -50.0988 C   0  0  0  0  0  0  0  0  0  0  0  0
   90.1608   88.1277  -49.2450 C   0  0  0  0  0  0  0  0  0  0  0  0
   90.0953   89.5060  -49.4330 C   0  0  0  0  0  0  0  0  0  0  0  0
   89.3365   90.0280  -50.4823 C   0  0  0  0  0  0  0  0  0  0  0  0
   88.6182   89.1881  -51.3591 C   0  0  0  0  0  0  0  0  0  0  0  0
   88.6807   87.8006  -51.1459 C   0  0  0  0  0  0  0  0  0  0  0  0
   87.9987   86.9081  -51.9310 O   0  0  0  0  0  0  0  0  0  0  0  0
   87.4690   87.2169  -52.6395 H   0  0  0  0  0  0  0  0  0  0  0  0
   89.6169   84.6755  -49.6721 C   0  0  0  0  0  0  0  0  0  0  0  0
   89.5416   85.8575  -49.8692 C   0  0  0  0  0  0  0  0  0  0  0  0
   90.7957   90.3870  -48.5506 C   0  0  0  0  0  0  0  0  0  0  0  0
   91.3695   91.1328  -47.8043 C   0  0  0  0  0  0  0  0  0  0  0  0
   92.0543   92.0478  -46.8848 C   0  0  0  0  0  0  0  0  0  0  0  0
   91.3030   93.2488  -46.6889 O   0  0  0  0  0  0  0  0  0  0  0  0
   91.3558   93.8628  -45.4690 C   0  0  0  0  0  0  0  0  0  0  0  0
   91.1531   95.2202  -45.2174 C   0  0  0  0  0  0  0  0  0  0  0  0
   91.2282   95.7113  -43.9095 C   0  0  0  0  0  0  0  0  0  0  0  0
   91.5050   94.8451  -42.8542 C   0  0  0  0  0  0  0  0  0  0  0  0
   91.5969   95.4540  -41.2500 Cl  0  0  0  0  0  0  0  0  0  0  0  0
   91.7032   93.4895  -43.0930 C   0  0  0  0  0  0  0  0  0  0  0  0
   91.6252   93.0027  -44.3990 C   0  0  0  0  0  0  0  0  0  0  0  0
   87.8418   89.8479  -52.4820 C   0  0  0  0  0  0  0  0  0  0  0  0
   86.3949   89.5867  -52.4044 N   0  0  0  0  0  0  0  0  0  0  0  0
   85.6037   90.2960  -53.4134 C   0  0  0  0  0  0  0  0  0  0  0  0
   85.4577   91.7984  -53.1607 C   0  0  0  0  0  0  0  0  0  0  0  0
   84.8823   92.1028  -51.7585 C   0  0  0  0  0  0  0  0  0  0  0  0
   85.7212   91.3274  -50.7153 C   0  0  0  0  0  0  0  0  0  0  0  0
   85.8579   89.8440  -51.0659 C   0  0  0  0  0  0  0  0  0  0  0  0
   84.8405   93.5673  -51.4584 N   0  0  0  0  0  0  0  0  0  0  0  0
   85.6626   93.9140  -50.2778 C   0  0  0  0  0  0  0  0  0  0  0  0
   84.8988   94.5367  -49.1087 C   0  0  0  0  0  0  0  0  0  0  0  0
   83.4760   94.1273  -51.3842 C   0  0  0  0  0  0  0  0  0  0  0  0
   82.7893   94.4011  -52.7204 C   0  0  0  0  0  0  0  0  0  0  0  0
  9 10  3  0
 10  1  1  0
  1  2  2  0
  2  3  1  0
  3 11  1  0
 11 12  3  0
 12 13  1  0
 13 14  1  0
 14 15  1  0
 15 16  2  0
 16 17  1  0
 17 18  2  0
 18 19  1  0
 18 20  1  0
 20 21  2  0
  3  4  2  0
  4  5  1  0
  5 22  1  0
 22 23  1  0
 23 24  1  0
 24 25  1  0
 25 26  1  0
 26 29  1  0
 29 30  1  0
 30 31  1  0
 29 32  1  0
 32 33  1  0
 26 27  1  0
 27 28  1  0
  5  6  2  0
  6  7  1  0
  6  1  1  0
 21 15  1  0
 28 23  1  0
  7  8  1  0
M  END
> <minimizedAffinity>
-5.51938

> <CNNscore>
0.5716500282

> <CNNaffinity>
4.6583952904

> <CNN_VS>
2.6629717350

> <CNNaffinity_variance>
1.5819183588

$$$$



 33 35  0  0  0  0  0  0  0  0999 V2000
   91.6812   93.9988  -43.5906 C   0  0  0  0  0  0  0  0  0  0  0  0
   91.6779   93.1129  -44.6728 C   0  0  0  0  0  0  0  0  0  0  0  0
   91.3255   93.5657  -45.9417 C   0  0  0  0  0  0  0  0  0  0  0  0
   90.9646   94.9016  -46.1265 C   0  0  0  0  0  0  0  0  0  0  0  0
   90.9584   95.8169  -45.0529 C   0  0  0  0  0  0  0  0  0  0  0  0
   91.3327   95.3487  -43.7821 C   0  0  0  0  0  0  0  0  0  0  0  0
   91.3792   96.1683  -42.6848 O   0  0  0  0  0  0  0  0  0  0  0  0
   91.1551   97.0744  -42.7670 H   0  0  0  0  0  0  0  0  0  0  0  0
   92.3724   93.0872  -41.2161 C   0  0  0  0  0  0  0  0  0  0  0  0
   92.0585   93.4990  -42.2994 C   0  0  0  0  0  0  0  0  0  0  0  0
   91.3400   92.6689  -47.0557 C   0  0  0  0  0  0  0  0  0  0  0  0
   91.3451   91.9043  -47.9819 C   0  0  0  0  0  0  0  0  0  0  0  0
   91.3406   90.9591  -49.1036 C   0  0  0  0  0  0  0  0  0  0  0  0
   90.7775   89.7009  -48.7227 O   0  0  0  0  0  0  0  0  0  0  0  0
   89.9815   89.0418  -49.6170 C   0  0  0  0  0  0  0  0  0  0  0  0
   89.7391   87.6682  -49.6520 C   0  0  0  0  0  0  0  0  0  0  0  0
   88.8889   87.1293  -50.6238 C   0  0  0  0  0  0  0  0  0  0  0  0
   88.2811   87.9639  -51.5589 C   0  0  0  0  0  0  0  0  0  0  0  0
   87.2385   87.2963  -52.7506 Cl  0  0  0  0  0  0  0  0  0  0  0  0
   88.5113   89.3350  -51.5296 C   0  0  0  0  0  0  0  0  0  0  0  0
   89.3584   89.8694  -50.5572 C   0  0  0  0  0  0  0  0  0  0  0  0
   90.5298   97.2409  -45.3490 C   0  0  0  0  0  0  0  0  0  0  0  0
   89.5908   97.3299  -46.4795 N   0  0  0  0  0  0  0  0  0  0  0  0
   89.4916   98.6667  -47.0713 C   0  0  0  0  0  0  0  0  0  0  0  0
   88.7298   99.6817  -46.2158 C   0  0  0  0  0  0  0  0  0  0  0  0
   87.3142   99.1862  -45.8414 C   0  0  0  0  0  0  0  0  0  0  0  0
   87.4447   97.7674  -45.2385 C   0  0  0  0  0  0  0  0  0  0  0  0
   88.2586   96.8288  -46.1321 C   0  0  0  0  0  0  0  0  0  0  0  0
   86.6038  100.1194  -44.9135 N   0  0  0  0  0  0  0  0  0  0  0  0
   85.5164  100.8563  -45.5951 C   0  0  0  0  0  0  0  0  0  0  0  0
   84.1001  100.3798  -45.2714 C   0  0  0  0  0  0  0  0  0  0  0  0
   87.5024  101.0101  -44.1519 C   0  0  0  0  0  0  0  0  0  0  0  0
   87.8527  100.5587  -42.7357 C   0  0  0  0  0  0  0  0  0  0  0  0
  9 10  3  0
 10  1  1  0
  1  2  2  0
  2  3  1  0
  3 11  1  0
 11 12  3  0
 12 13  1  0
 13 14  1  0
 14 15  1  0
 15 16  2  0
 16 17  1  0
 17 18  2  0
 18 19  1  0
 18 20  1  0
 20 21  2  0
  3  4  2  0
  4  5  1  0
  5 22  1  0
 22 23  1  0
 23 24  1  0
 24 25  1  0
 25 26  1  0
 26 29  1  0
 29 30  1  0
 30 31  1  0
 29 32  1  0
 32 33  1  0
 26 27  1  0
 27 28  1  0
  5  6  2  0
  6  7  1  0
  6  1  1  0
 21 15  1  0
 28 23  1  0
  7  8  1  0
M  END
> <minimizedAffinity>
-6.39163

> <CNNscore>
0.5003293157

> <CNNaffinity>
5.1093420982

> <CNN_VS>
2.5563535690

> <CNNaffinity_variance>
0.8813576102

$$$$



 33 35  0  0  0  0  0  0  0  0999 V2000
   83.9575   89.9346  -46.1902 C   0  0  0  0  0  0  0  0  0  0  0  0
   83.8747   91.3301  -46.1477 C   0  0  0  0  0  0  0  0  0  0  0  0
   83.9916   92.0702  -47.3214 C   0  0  0  0  0  0  0  0  0  0  0  0
   84.2034   91.4159  -48.5364 C   0  0  0  0  0  0  0  0  0  0  0  0
   84.2918   90.0097  -48.6086 C   0  0  0  0  0  0  0  0  0  0  0  0
   84.1549   89.2761  -47.4181 C   0  0  0  0  0  0  0  0  0  0  0  0
   84.2033   87.9068  -47.3926 O   0  0  0  0  0  0  0  0  0  0  0  0
   84.3331   87.4278  -48.1874 H   0  0  0  0  0  0  0  0  0  0  0  0
   83.7187   88.5927  -43.9343 C   0  0  0  0  0  0  0  0  0  0  0  0
   83.8236   89.2043  -44.9621 C   0  0  0  0  0  0  0  0  0  0  0  0
   83.8874   93.4962  -47.2867 C   0  0  0  0  0  0  0  0  0  0  0  0
   83.7905   94.6926  -47.2441 C   0  0  0  0  0  0  0  0  0  0  0  0
   83.6646   96.1523  -47.1753 C   0  0  0  0  0  0  0  0  0  0  0  0
   84.4287   96.6910  -46.0931 O   0  0  0  0  0  0  0  0  0  0  0  0
   83.9386   97.7756  -45.4212 C   0  0  0  0  0  0  0  0  0  0  0  0
   84.2392   98.1396  -44.1082 C   0  0  0  0  0  0  0  0  0  0  0  0
   83.6683   99.2882  -43.5493 C   0  0  0  0  0  0  0  0  0  0  0  0
   82.7983  100.0722  -44.3035 C   0  0  0  0  0  0  0  0  0  0  0  0
   82.0995  101.4813  -43.6115 Cl  0  0  0  0  0  0  0  0  0  0  0  0
   82.4962   99.7217  -45.6149 C   0  0  0  0  0  0  0  0  0  0  0  0
   83.0695   98.5763  -46.1700 C   0  0  0  0  0  0  0  0  0  0  0  0
   84.5459   89.3930  -49.9703 C   0  0  0  0  0  0  0  0  0  0  0  0
   85.6511   88.4203  -49.9579 N   0  0  0  0  0  0  0  0  0  0  0  0
   86.9577   89.0031  -49.6407 C   0  0  0  0  0  0  0  0  0  0  0  0
   87.5645   89.8443  -50.7661 C   0  0  0  0  0  0  0  0  0  0  0  0
   87.6679   89.0588  -52.0935 C   0  0  0  0  0  0  0  0  0  0  0  0
   86.2833   88.4379  -52.3945 C   0  0  0  0  0  0  0  0  0  0  0  0
   85.7267   87.6537  -51.2040 C   0  0  0  0  0  0  0  0  0  0  0  0
   88.1545   89.9043  -53.2270 N   0  0  0  0  0  0  0  0  0  0  0  0
   88.1905   91.3401  -52.8708 C   0  0  0  0  0  0  0  0  0  0  0  0
   89.1589   92.1935  -53.6904 C   0  0  0  0  0  0  0  0  0  0  0  0
   87.4593   89.6539  -54.5057 C   0  0  0  0  0  0  0  0  0  0  0  0
   88.1560   88.6993  -55.4728 C   0  0  0  0  0  0  0  0  0  0  0  0
  9 10  3  0
 10  1  1  0
  1  2  2  0
  2  3  1  0
  3 11  1  0
 11 12  3  0
 12 13  1  0
 13 14  1  0
 14 15  1  0
 15 16  2  0
 16 17  1  0
 17 18  2  0
 18 19  1  0
 18 20  1  0
 20 21  2  0
  3  4  2  0
  4  5  1  0
  5 22  1  0
 22 23  1  0
 23 24  1  0
 24 25  1  0
 25 26  1  0
 26 29  1  0
 29 30  1  0
 30 31  1  0
 29 32  1  0
 32 33  1  0
 26 27  1  0
 27 28  1  0
  5  6  2  0
  6  7  1  0
  6  1  1  0
 21 15  1  0
 28 23  1  0
  7  8  1  0
M  END
> <minimizedAffinity>
-4.24076

> <CNNscore>
0.4949468076

> <CNNaffinity>
4.9264431000

> <CNN_VS>
2.4383273125

> <CNNaffinity_variance>
0.0854556859

$$$$



 33 35  0  0  0  0  0  0  0  0999 V2000
   91.4526   94.5285  -43.4133 C   0  0  0  0  0  0  0  0  0  0  0  0
   91.5703   93.4757  -44.3265 C   0  0  0  0  0  0  0  0  0  0  0  0
   91.3795   93.7090  -45.6861 C   0  0  0  0  0  0  0  0  0  0  0  0
   91.0590   94.9927  -46.1317 C   0  0  0  0  0  0  0  0  0  0  0  0
   90.9332   96.0730  -45.2330 C   0  0  0  0  0  0  0  0  0  0  0  0
   91.1454   95.8249  -43.8663 C   0  0  0  0  0  0  0  0  0  0  0  0
   91.0679   96.8151  -42.9222 O   0  0  0  0  0  0  0  0  0  0  0  0
   90.8658   97.6931  -43.1797 H   0  0  0  0  0  0  0  0  0  0  0  0
   91.8362   94.0248  -40.8548 C   0  0  0  0  0  0  0  0  0  0  0  0
   91.6649   94.2525  -42.0212 C   0  0  0  0  0  0  0  0  0  0  0  0
   91.5186   92.6404  -46.6264 C   0  0  0  0  0  0  0  0  0  0  0  0
   91.6395   91.7538  -47.4275 C   0  0  0  0  0  0  0  0  0  0  0  0
   91.7950   90.6829  -48.4177 C   0  0  0  0  0  0  0  0  0  0  0  0
   90.5279   90.1500  -48.8125 O   0  0  0  0  0  0  0  0  0  0  0  0
   89.9792   90.5703  -49.9916 C   0  0  0  0  0  0  0  0  0  0  0  0
   90.2845   91.7499  -50.6714 C   0  0  0  0  0  0  0  0  0  0  0  0
   89.6481   92.0486  -51.8810 C   0  0  0  0  0  0  0  0  0  0  0  0
   88.7079   91.1676  -52.4105 C   0  0  0  0  0  0  0  0  0  0  0  0
   87.9288   91.5401  -53.8961 Cl  0  0  0  0  0  0  0  0  0  0  0  0
   88.4002   89.9864  -51.7441 C   0  0  0  0  0  0  0  0  0  0  0  0
   89.0388   89.6906  -50.5385 C   0  0  0  0  0  0  0  0  0  0  0  0
   90.5600   97.4244  -45.8103 C   0  0  0  0  0  0  0  0  0  0  0  0
   89.4078   97.3551  -46.7242 N   0  0  0  0  0  0  0  0  0  0  0  0
   89.1197   98.6119  -47.4205 C   0  0  0  0  0  0  0  0  0  0  0  0
   88.4944   99.6945  -46.5378 C   0  0  0  0  0  0  0  0  0  0  0  0
   87.2126   99.2025  -45.8275 C   0  0  0  0  0  0  0  0  0  0  0  0
   87.5378   97.8666  -45.1183 C   0  0  0  0  0  0  0  0  0  0  0  0
   88.2024   96.8570  -46.0571 C   0  0  0  0  0  0  0  0  0  0  0  0
   86.6565  100.2138  -44.8764 N   0  0  0  0  0  0  0  0  0  0  0  0
   87.7247  100.9582  -44.1730 C   0  0  0  0  0  0  0  0  0  0  0  0
   87.9131  100.5960  -42.6995 C   0  0  0  0  0  0  0  0  0  0  0  0
   85.6378   99.6747  -43.9531 C   0  0  0  0  0  0  0  0  0  0  0  0
   84.2189   99.5677  -44.5074 C   0  0  0  0  0  0  0  0  0  0  0  0
  9 10  3  0
 10  1  1  0
  1  2  2  0
  2  3  1  0
  3 11  1  0
 11 12  3  0
 12 13  1  0
 13 14  1  0
 14 15  1  0
 15 16  2  0
 16 17  1  0
 17 18  2  0
 18 19  1  0
 18 20  1  0
 20 21  2  0
  3  4  2  0
  4  5  1  0
  5 22  1  0
 22 23  1  0
 23 24  1  0
 24 25  1  0
 25 26  1  0
 26 29  1  0
 29 30  1  0
 30 31  1  0
 29 32  1  0
 32 33  1  0
 26 27  1  0
 27 28  1  0
  5  6  2  0
  6  7  1  0
  6  1  1  0
 21 15  1  0
 28 23  1  0
  7  8  1  0
M  END
> <minimizedAffinity>
-6.44485

> <CNNscore>
0.4805965126

> <CNNaffinity>
5.1295514107

> <CNN_VS>
2.4652445316

> <CNNaffinity_variance>
0.9626860619

$$$$



 33 35  0  0  0  0  0  0  0  0999 V2000
   89.4652   86.5678  -49.9424 C   0  0  0  0  0  0  0  0  0  0  0  0
   90.1759   87.5729  -49.2786 C   0  0  0  0  0  0  0  0  0  0  0  0
   89.9029   88.9117  -49.5472 C   0  0  0  0  0  0  0  0  0  0  0  0
   88.9274   89.2459  -50.4884 C   0  0  0  0  0  0  0  0  0  0  0  0
   88.1958   88.2530  -51.1734 C   0  0  0  0  0  0  0  0  0  0  0  0
   88.4712   86.9069  -50.8790 C   0  0  0  0  0  0  0  0  0  0  0  0
   87.7963   85.8744  -51.4762 O   0  0  0  0  0  0  0  0  0  0  0  0
   87.1264   86.0547  -52.1060 H   0  0  0  0  0  0  0  0  0  0  0  0
   90.0265   84.0564  -49.3727 C   0  0  0  0  0  0  0  0  0  0  0  0
   89.7672   85.1993  -49.6336 C   0  0  0  0  0  0  0  0  0  0  0  0
   90.6124   89.9437  -48.8564 C   0  0  0  0  0  0  0  0  0  0  0  0
   91.2012   90.8215  -48.2861 C   0  0  0  0  0  0  0  0  0  0  0  0
   91.9098   91.9060  -47.5981 C   0  0  0  0  0  0  0  0  0  0  0  0
   91.7547   91.8125  -46.1795 O   0  0  0  0  0  0  0  0  0  0  0  0
   91.5872   92.9634  -45.4616 C   0  0  0  0  0  0  0  0  0  0  0  0
   91.7589   93.1111  -44.0849 C   0  0  0  0  0  0  0  0  0  0  0  0
   91.5617   94.3582  -43.4820 C   0  0  0  0  0  0  0  0  0  0  0  0
   91.1942   95.4566  -44.2560 C   0  0  0  0  0  0  0  0  0  0  0  0
   90.9526   96.9856  -43.5100 Cl  0  0  0  0  0  0  0  0  0  0  0  0
   91.0259   95.3218  -45.6298 C   0  0  0  0  0  0  0  0  0  0  0  0
   91.2256   94.0764  -46.2281 C   0  0  0  0  0  0  0  0  0  0  0  0
   87.1736   88.7148  -52.1936 C   0  0  0  0  0  0  0  0  0  0  0  0
   86.0335   89.4162  -51.5805 N   0  0  0  0  0  0  0  0  0  0  0  0
   85.4364   88.7090  -50.4445 C   0  0  0  0  0  0  0  0  0  0  0  0
   84.6136   87.4770  -50.8286 C   0  0  0  0  0  0  0  0  0  0  0  0
   83.5085   87.8088  -51.8574 C   0  0  0  0  0  0  0  0  0  0  0  0
   84.1604   88.5715  -53.0350 C   0  0  0  0  0  0  0  0  0  0  0  0
   85.0024   89.7592  -52.5631 C   0  0  0  0  0  0  0  0  0  0  0  0
   82.7720   86.5938  -52.3241 N   0  0  0  0  0  0  0  0  0  0  0  0
   81.6484   86.2484  -51.4253 C   0  0  0  0  0  0  0  0  0  0  0  0
   80.8163   87.4329  -50.9330 C   0  0  0  0  0  0  0  0  0  0  0  0
   83.6431   85.4370  -52.6141 C   0  0  0  0  0  0  0  0  0  0  0  0
   83.2501   84.1181  -51.9523 C   0  0  0  0  0  0  0  0  0  0  0  0
  9 10  3  0
 10  1  1  0
  1  2  2  0
  2  3  1  0
  3 11  1  0
 11 12  3  0
 12 13  1  0
 13 14  1  0
 14 15  1  0
 15 16  2  0
 16 17  1  0
 17 18  2  0
 18 19  1  0
 18 20  1  0
 20 21  2  0
  3  4  2  0
  4  5  1  0
  5 22  1  0
 22 23  1  0
 23 24  1  0
 24 25  1  0
 25 26  1  0
 26 29  1  0
 29 30  1  0
 30 31  1  0
 29 32  1  0
 32 33  1  0
 26 27  1  0
 27 28  1  0
  5  6  2  0
  6  7  1  0
  6  1  1  0
 21 15  1  0
 28 23  1  0
  7  8  1  0
M  END
> <minimizedAffinity>
-5.37362

> <CNNscore>
0.3917165101

> <CNNaffinity>
4.7260556221

> <CNN_VS>
1.8512740135

> <CNNaffinity_variance>
1.2249565125

$$$$
