


 25 27  0  0  0  0  0  0  0  0999 V2000
   56.9795   73.3260   19.3862 N   0  0  0  0  0  0  0  0  0  0  0  0
   57.1507   73.1112   18.0385 C   0  0  0  0  0  0  0  0  0  0  0  0
   55.9964   73.4990   17.3915 C   0  0  0  0  0  0  0  0  0  0  0  0
   55.0894   73.9745   18.3762 C   0  0  0  0  0  0  0  0  0  0  0  0
   53.7903   74.4986   18.3895 C   0  0  0  0  0  0  0  0  0  0  0  0
   53.0306   74.6899   17.2460 N   0  0  0  0  0  0  0  0  0  0  0  0
   53.2405   74.8479   19.5653 N   0  0  0  0  0  0  0  0  0  0  0  0
   53.9602   74.6684   20.6879 C   0  0  0  0  0  0  0  0  0  0  0  0
   53.3646   75.0218   21.8376 F   0  0  0  0  0  0  0  0  0  0  0  0
   55.2086   74.1687   20.8025 N   0  0  0  0  0  0  0  0  0  0  0  0
   55.7246   73.8489   19.6034 C   0  0  0  0  0  0  0  0  0  0  0  0
   53.3971   74.4469   16.3652 H   0  0  0  0  0  0  0  0  0  0  0  0
   52.1246   75.0688   17.3146 H   0  0  0  0  0  0  0  0  0  0  0  0
   57.8158   71.6386   22.3085 C   0  0  0  0  0  0  0  0  0  0  0  0
   57.8725   71.6906   20.8570 O   0  0  0  0  0  0  0  0  0  0  0  0
   57.9552   73.0745   20.4465 C   0  0  0  0  0  0  0  0  0  0  0  0
   57.7103   73.9305   21.6957 C   0  0  0  0  0  0  0  0  0  0  0  0
   58.4121   75.1752   21.7150 O   0  0  0  0  0  0  0  0  0  0  0  0
   58.2406   73.0236   22.7887 C   0  0  0  0  0  0  0  0  0  0  0  0
   59.6745   73.1170   22.8066 O   0  0  0  0  0  0  0  0  0  0  0  0
   59.3653   75.0101   21.6444 H   0  0  0  0  0  0  0  0  0  0  0  0
   60.0231   72.9084   21.9257 H   0  0  0  0  0  0  0  0  0  0  0  0
   56.3856   71.2240   22.6851 C   0  0  0  0  0  0  0  0  0  0  0  0
   56.0083   68.8629   24.0881 C   0  0  0  0  0  0  0  0  0  0  0  0
   56.0263   69.4640   22.3806 S   0  0  0  0  0  0  0  0  0  0  0  0
 24 25  1  0
 25 23  1  0
 14 23  1  0
 14 15  1  0
 15 16  1  0
 16  1  1  0
  1  2  1  0
  2  3  2  0
  3  4  1  0
  4  5  2  0
  5  6  1  0
  5  7  1  0
  7  8  2  0
  8  9  1  0
  8 10  1  0
 10 11  2  0
 16 17  1  0
 17 18  1  0
 17 19  1  0
 19 20  1  0
 19 14  1  0
 11  1  1  0
 11  4  1  0
  6 12  1  0
  6 13  1  0
 18 21  1  0
 20 22  1  0
M  END
> <minimizedAffinity>
-8.63056

> <CNNscore>
0.9764356017

> <CNNaffinity>
7.1681990623

> <CNN_VS>
6.9992847443

> <CNNaffinity_variance>
0.3865607977

$$$$



 25 27  0  0  0  0  0  0  0  0999 V2000
   58.0909   64.0918   22.1100 N   0  0  0  0  0  0  0  0  0  0  0  0
   56.9435   64.5562   21.5101 C   0  0  0  0  0  0  0  0  0  0  0  0
   56.9670   64.1756   20.1851 C   0  0  0  0  0  0  0  0  0  0  0  0
   58.1667   63.4464   19.9673 C   0  0  0  0  0  0  0  0  0  0  0  0
   58.7792   62.8016   18.8848 C   0  0  0  0  0  0  0  0  0  0  0  0
   58.2231   62.7400   17.6167 N   0  0  0  0  0  0  0  0  0  0  0  0
   59.9655   62.1980   19.0722 N   0  0  0  0  0  0  0  0  0  0  0  0
   60.5239   62.2478   20.2953 C   0  0  0  0  0  0  0  0  0  0  0  0
   61.7131   61.6402   20.4301 F   0  0  0  0  0  0  0  0  0  0  0  0
   60.0383   62.8412   21.4059 N   0  0  0  0  0  0  0  0  0  0  0  0
   58.8455   63.4167   21.1771 C   0  0  0  0  0  0  0  0  0  0  0  0
   57.3554   63.1694   17.4383 H   0  0  0  0  0  0  0  0  0  0  0  0
   58.6959   62.2667   16.8944 H   0  0  0  0  0  0  0  0  0  0  0  0
   57.9748   65.9862   25.0227 C   0  0  0  0  0  0  0  0  0  0  0  0
   57.4062   64.9077   24.2314 O   0  0  0  0  0  0  0  0  0  0  0  0
   58.4737   64.2485   23.5129 C   0  0  0  0  0  0  0  0  0  0  0  0
   59.7341   65.1040   23.6938 C   0  0  0  0  0  0  0  0  0  0  0  0
   60.9583   64.3673   23.7214 O   0  0  0  0  0  0  0  0  0  0  0  0
   59.4790   65.7296   25.0509 C   0  0  0  0  0  0  0  0  0  0  0  0
   59.7917   64.7632   26.0675 O   0  0  0  0  0  0  0  0  0  0  0  0
   60.9286   63.7178   24.4413 H   0  0  0  0  0  0  0  0  0  0  0  0
   59.2816   63.9530   25.9113 H   0  0  0  0  0  0  0  0  0  0  0  0
   57.5464   67.3025   24.3570 C   0  0  0  0  0  0  0  0  0  0  0  0
   55.5299   69.1084   23.7587 C   0  0  0  0  0  0  0  0  0  0  0  0
   55.8067   67.3203   23.8161 S   0  0  0  0  0  0  0  0  0  0  0  0
 24 25  1  0
 25 23  1  0
 14 23  1  0
 14 15  1  0
 15 16  1  0
 16  1  1  0
  1  2  1  0
  2  3  2  0
  3  4  1  0
  4  5  2  0
  5  6  1  0
  5  7  1  0
  7  8  2  0
  8  9  1  0
  8 10  1  0
 10 11  2  0
 16 17  1  0
 17 18  1  0
 17 19  1  0
 19 20  1  0
 19 14  1  0
 11  1  1  0
 11  4  1  0
  6 12  1  0
  6 13  1  0
 18 21  1  0
 20 22  1  0
M  END
> <minimizedAffinity>
-5.22580

> <CNNscore>
0.4614624679

> <CNNaffinity>
4.7494263649

> <CNN_VS>
2.1916821003

> <CNNaffinity_variance>
0.3005795777

$$$$



 25 27  0  0  0  0  0  0  0  0999 V2000
   56.0347   73.8303   20.6876 N   0  0  0  0  0  0  0  0  0  0  0  0
   55.0241   74.2924   21.4982 C   0  0  0  0  0  0  0  0  0  0  0  0
   53.9527   74.6306   20.6989 C   0  0  0  0  0  0  0  0  0  0  0  0
   54.3167   74.3596   19.3527 C   0  0  0  0  0  0  0  0  0  0  0  0
   53.7085   74.4712   18.0956 C   0  0  0  0  0  0  0  0  0  0  0  0
   52.4161   74.9362   17.9094 N   0  0  0  0  0  0  0  0  0  0  0  0
   54.3991   74.1033   17.0026 N   0  0  0  0  0  0  0  0  0  0  0  0
   55.6563   73.6511   17.1609 C   0  0  0  0  0  0  0  0  0  0  0  0
   56.3087   73.3064   16.0397 F   0  0  0  0  0  0  0  0  0  0  0  0
   56.3481   73.5072   18.3107 N   0  0  0  0  0  0  0  0  0  0  0  0
   55.6150   73.8706   19.3769 C   0  0  0  0  0  0  0  0  0  0  0  0
   51.8771   75.2156   18.6845 H   0  0  0  0  0  0  0  0  0  0  0  0
   52.0372   74.9871   17.0022 H   0  0  0  0  0  0  0  0  0  0  0  0
   57.9132   71.4177   22.3418 C   0  0  0  0  0  0  0  0  0  0  0  0
   57.3553   71.8991   21.0889 O   0  0  0  0  0  0  0  0  0  0  0  0
   57.3477   73.3448   21.1111 C   0  0  0  0  0  0  0  0  0  0  0  0
   57.7097   73.7755   22.5382 C   0  0  0  0  0  0  0  0  0  0  0  0
   58.4341   75.0042   22.6266 O   0  0  0  0  0  0  0  0  0  0  0  0
   58.5908   72.6252   22.9837 C   0  0  0  0  0  0  0  0  0  0  0  0
   59.9011   72.8069   22.4222 O   0  0  0  0  0  0  0  0  0  0  0  0
   59.2554   74.9328   22.1155 H   0  0  0  0  0  0  0  0  0  0  0  0
   59.8309   72.8918   21.4584 H   0  0  0  0  0  0  0  0  0  0  0  0
   56.7516   70.8136   23.1451 C   0  0  0  0  0  0  0  0  0  0  0  0
   56.7990   68.1927   24.0470 C   0  0  0  0  0  0  0  0  0  0  0  0
   56.2712   69.1430   22.5995 S   0  0  0  0  0  0  0  0  0  0  0  0
 24 25  1  0
 25 23  1  0
 14 23  1  0
 14 15  1  0
 15 16  1  0
 16  1  1  0
  1  2  1  0
  2  3  2  0
  3  4  1  0
  4  5  2  0
  5  6  1  0
  5  7  1  0
  7  8  2  0
  8  9  1  0
  8 10  1  0
 10 11  2  0
 16 17  1  0
 17 18  1  0
 17 19  1  0
 19 20  1  0
 19 14  1  0
 11  1  1  0
 11  4  1  0
  6 12  1  0
  6 13  1  0
 18 21  1  0
 20 22  1  0
M  END
> <minimizedAffinity>
-5.76956

> <CNNscore>
0.3545430005

> <CNNaffinity>
6.3540329933

> <CNN_VS>
2.2527778149

> <CNNaffinity_variance>
0.0432398878

$$$$



 25 27  0  0  0  0  0  0  0  0999 V2000
   60.7634   65.6905   27.0480 N   0  0  0  0  0  0  0  0  0  0  0  0
   60.0462   66.4220   27.9658 C   0  0  0  0  0  0  0  0  0  0  0  0
   60.9254   66.9049   28.9119 C   0  0  0  0  0  0  0  0  0  0  0  0
   62.2272   66.4600   28.5574 C   0  0  0  0  0  0  0  0  0  0  0  0
   63.5216   66.5963   29.0758 C   0  0  0  0  0  0  0  0  0  0  0  0
   63.8156   67.3240   30.2183 N   0  0  0  0  0  0  0  0  0  0  0  0
   64.5450   66.0029   28.4375 N   0  0  0  0  0  0  0  0  0  0  0  0
   64.2811   65.2898   27.3276 C   0  0  0  0  0  0  0  0  0  0  0  0
   65.3336   64.7075   26.7320 F   0  0  0  0  0  0  0  0  0  0  0  0
   63.0841   65.0805   26.7405 N   0  0  0  0  0  0  0  0  0  0  0  0
   62.0940   65.7043   27.4015 C   0  0  0  0  0  0  0  0  0  0  0  0
   63.0941   67.7738   30.7147 H   0  0  0  0  0  0  0  0  0  0  0  0
   64.7459   67.3912   30.5333 H   0  0  0  0  0  0  0  0  0  0  0  0
   58.7975   65.8170   24.1835 C   0  0  0  0  0  0  0  0  0  0  0  0
   60.1146   65.9624   24.7808 O   0  0  0  0  0  0  0  0  0  0  0  0
   60.2393   65.0118   25.8631 C   0  0  0  0  0  0  0  0  0  0  0  0
   58.8494   64.4041   26.0914 C   0  0  0  0  0  0  0  0  0  0  0  0
   58.8560   63.0458   26.5356 O   0  0  0  0  0  0  0  0  0  0  0  0
   58.2538   64.4878   24.6999 C   0  0  0  0  0  0  0  0  0  0  0  0
   58.7764   63.4059   23.9115 O   0  0  0  0  0  0  0  0  0  0  0  0
   59.3230   62.4959   25.8872 H   0  0  0  0  0  0  0  0  0  0  0  0
   59.7458   63.4373   23.9215 H   0  0  0  0  0  0  0  0  0  0  0  0
   57.9858   67.0578   24.5845 C   0  0  0  0  0  0  0  0  0  0  0  0
   55.9307   68.8604   24.1233 C   0  0  0  0  0  0  0  0  0  0  0  0
   56.3177   67.1127   23.8536 S   0  0  0  0  0  0  0  0  0  0  0  0
 24 25  1  0
 25 23  1  0
 14 23  1  0
 14 15  1  0
 15 16  1  0
 16  1  1  0
  1  2  1  0
  2  3  2  0
  3  4  1  0
  4  5  2  0
  5  6  1  0
  5  7  1  0
  7  8  2  0
  8  9  1  0
  8 10  1  0
 10 11  2  0
 16 17  1  0
 17 18  1  0
 17 19  1  0
 19 20  1  0
 19 14  1  0
 11  1  1  0
 11  4  1  0
  6 12  1  0
  6 13  1  0
 18 21  1  0
 20 22  1  0
M  END
> <minimizedAffinity>
-4.93786

> <CNNscore>
0.3418812454

> <CNNaffinity>
4.6416049004

> <CNN_VS>
1.5868777037

> <CNNaffinity_variance>
0.1308570802

$$$$



 25 27  0  0  0  0  0  0  0  0999 V2000
   62.4033   66.6200   28.7909 N   0  0  0  0  0  0  0  0  0  0  0  0
   61.2016   66.5229   29.4529 C   0  0  0  0  0  0  0  0  0  0  0  0
   61.3812   66.9847   30.7396 C   0  0  0  0  0  0  0  0  0  0  0  0
   62.7381   67.3855   30.8682 C   0  0  0  0  0  0  0  0  0  0  0  0
   63.5442   67.9270   31.8779 C   0  0  0  0  0  0  0  0  0  0  0  0
   63.0791   68.2309   33.1478 N   0  0  0  0  0  0  0  0  0  0  0  0
   64.8379   68.1794   31.6140 N   0  0  0  0  0  0  0  0  0  0  0  0
   65.3102   67.8897   30.3879 C   0  0  0  0  0  0  0  0  0  0  0  0
   66.6099   68.1492   30.1760 F   0  0  0  0  0  0  0  0  0  0  0  0
   64.6386   67.3619   29.3430 N   0  0  0  0  0  0  0  0  0  0  0  0
   63.3479   67.1415   29.6460 C   0  0  0  0  0  0  0  0  0  0  0  0
   62.1379   68.0611   33.3810 H   0  0  0  0  0  0  0  0  0  0  0  0
   63.6901   68.6166   33.8165 H   0  0  0  0  0  0  0  0  0  0  0  0
   61.2037   66.1813   25.5575 C   0  0  0  0  0  0  0  0  0  0  0  0
   61.8377   67.0586   26.5276 O   0  0  0  0  0  0  0  0  0  0  0  0
   62.6707   66.2600   27.3987 C   0  0  0  0  0  0  0  0  0  0  0  0
   62.3607   64.7889   27.0943 C   0  0  0  0  0  0  0  0  0  0  0  0
   63.4670   63.8987   27.2553 O   0  0  0  0  0  0  0  0  0  0  0  0
   61.9675   64.8621   25.6321 C   0  0  0  0  0  0  0  0  0  0  0  0
   63.1632   64.9433   24.8391 O   0  0  0  0  0  0  0  0  0  0  0  0
   64.1945   64.1794   26.6784 H   0  0  0  0  0  0  0  0  0  0  0  0
   63.6974   65.6967   25.1358 H   0  0  0  0  0  0  0  0  0  0  0  0
   59.7166   66.1003   25.9333 C   0  0  0  0  0  0  0  0  0  0  0  0
   57.2904   66.0819   24.5924 C   0  0  0  0  0  0  0  0  0  0  0  0
   58.7388   65.0237   24.8360 S   0  0  0  0  0  0  0  0  0  0  0  0
 24 25  1  0
 25 23  1  0
 14 23  1  0
 14 15  1  0
 15 16  1  0
 16  1  1  0
  1  2  1  0
  2  3  2  0
  3  4  1  0
  4  5  2  0
  5  6  1  0
  5  7  1  0
  7  8  2  0
  8  9  1  0
  8 10  1  0
 10 11  2  0
 16 17  1  0
 17 18  1  0
 17 19  1  0
 19 20  1  0
 19 14  1  0
 11  1  1  0
 11  4  1  0
  6 12  1  0
  6 13  1  0
 18 21  1  0
 20 22  1  0
M  END
> <minimizedAffinity>
-5.57451

> <CNNscore>
0.3371242881

> <CNNaffinity>
4.1298022270

> <CNN_VS>
1.3922566175

> <CNNaffinity_variance>
0.1359878331

$$$$



 25 27  0  0  0  0  0  0  0  0999 V2000
   61.6843   66.0294   27.5539 N   0  0  0  0  0  0  0  0  0  0  0  0
   60.5847   66.7884   27.8807 C   0  0  0  0  0  0  0  0  0  0  0  0
   60.7688   67.2860   29.1533 C   0  0  0  0  0  0  0  0  0  0  0  0
   62.0280   66.8219   29.6196 C   0  0  0  0  0  0  0  0  0  0  0  0
   62.7905   66.9594   30.7868 C   0  0  0  0  0  0  0  0  0  0  0  0
   62.3883   67.7113   31.8795 N   0  0  0  0  0  0  0  0  0  0  0  0
   63.9824   66.3426   30.8629 N   0  0  0  0  0  0  0  0  0  0  0  0
   64.3909   65.6057   29.8139 C   0  0  0  0  0  0  0  0  0  0  0  0
   65.5822   65.0006   29.9415 F   0  0  0  0  0  0  0  0  0  0  0  0
   63.7459   65.3927   28.6477 N   0  0  0  0  0  0  0  0  0  0  0  0
   62.5688   66.0403   28.6089 C   0  0  0  0  0  0  0  0  0  0  0  0
   61.5220   68.1787   31.8633 H   0  0  0  0  0  0  0  0  0  0  0  0
   62.9689   67.7780   32.6717 H   0  0  0  0  0  0  0  0  0  0  0  0
   60.4275   64.8219   24.5458 C   0  0  0  0  0  0  0  0  0  0  0  0
   61.0917   65.9004   25.2589 O   0  0  0  0  0  0  0  0  0  0  0  0
   61.9238   65.3275   26.2933 C   0  0  0  0  0  0  0  0  0  0  0  0
   61.5832   63.8337   26.3698 C   0  0  0  0  0  0  0  0  0  0  0  0
   62.6760   62.9890   26.7368 O   0  0  0  0  0  0  0  0  0  0  0  0
   61.1689   63.5475   24.9400 C   0  0  0  0  0  0  0  0  0  0  0  0
   62.3535   63.4029   24.1394 O   0  0  0  0  0  0  0  0  0  0  0  0
   63.3993   63.1014   26.1004 H   0  0  0  0  0  0  0  0  0  0  0  0
   62.9054   64.1952   24.2326 H   0  0  0  0  0  0  0  0  0  0  0  0
   58.9452   64.8686   24.9455 C   0  0  0  0  0  0  0  0  0  0  0  0
   57.4838   67.1630   24.4111 C   0  0  0  0  0  0  0  0  0  0  0  0
   57.8580   65.5602   23.6574 S   0  0  0  0  0  0  0  0  0  0  0  0
 24 25  1  0
 25 23  1  0
 14 23  1  0
 14 15  1  0
 15 16  1  0
 16  1  1  0
  1  2  1  0
  2  3  2  0
  3  4  1  0
  4  5  2  0
  5  6  1  0
  5  7  1  0
  7  8  2  0
  8  9  1  0
  8 10  1  0
 10 11  2  0
 16 17  1  0
 17 18  1  0
 17 19  1  0
 19 20  1  0
 19 14  1  0
 11  1  1  0
 11  4  1  0
  6 12  1  0
  6 13  1  0
 18 21  1  0
 20 22  1  0
M  END
> <minimizedAffinity>
-4.84735

> <CNNscore>
0.3256010711

> <CNNaffinity>
4.4031853676

> <CNN_VS>
1.4336818457

> <CNNaffinity_variance>
0.1897769123

$$$$



 25 27  0  0  0  0  0  0  0  0999 V2000
   60.7568   65.5946   25.3831 N   0  0  0  0  0  0  0  0  0  0  0  0
   59.7080   66.1200   26.1014 C   0  0  0  0  0  0  0  0  0  0  0  0
   60.1908   66.5380   27.3235 C   0  0  0  0  0  0  0  0  0  0  0  0
   61.5849   66.2660   27.3521 C   0  0  0  0  0  0  0  0  0  0  0  0
   62.6336   66.4408   28.2644 C   0  0  0  0  0  0  0  0  0  0  0  0
   62.4728   67.0199   29.5134 N   0  0  0  0  0  0  0  0  0  0  0  0
   63.8696   66.0387   27.9214 N   0  0  0  0  0  0  0  0  0  0  0  0
   64.0472   65.4719   26.7141 C   0  0  0  0  0  0  0  0  0  0  0  0
   65.2962   65.0771   26.4218 F   0  0  0  0  0  0  0  0  0  0  0  0
   63.1205   65.2437   25.7598 N   0  0  0  0  0  0  0  0  0  0  0  0
   61.9053   65.6756   26.1381 C   0  0  0  0  0  0  0  0  0  0  0  0
   61.5834   67.3277   29.8024 H   0  0  0  0  0  0  0  0  0  0  0  0
   63.2479   67.1234   30.1115 H   0  0  0  0  0  0  0  0  0  0  0  0
   58.8541   64.3292   22.7631 C   0  0  0  0  0  0  0  0  0  0  0  0
   59.4884   65.4825   23.3798 O   0  0  0  0  0  0  0  0  0  0  0  0
   60.7067   65.0496   24.0268 C   0  0  0  0  0  0  0  0  0  0  0  0
   60.7100   63.5158   24.0013 C   0  0  0  0  0  0  0  0  0  0  0  0
   62.0061   62.9219   23.9030 O   0  0  0  0  0  0  0  0  0  0  0  0
   59.9184   63.2356   22.7392 C   0  0  0  0  0  0  0  0  0  0  0  0
   60.7826   63.4186   21.6056 O   0  0  0  0  0  0  0  0  0  0  0  0
   62.4465   63.2380   23.0987 H   0  0  0  0  0  0  0  0  0  0  0  0
   61.1678   64.3084   21.6330 H   0  0  0  0  0  0  0  0  0  0  0  0
   57.6034   64.0091   23.5954 C   0  0  0  0  0  0  0  0  0  0  0  0
   56.4807   64.2772   21.0749 C   0  0  0  0  0  0  0  0  0  0  0  0
   56.0449   64.5363   22.8127 S   0  0  0  0  0  0  0  0  0  0  0  0
 24 25  1  0
 25 23  1  0
 14 23  1  0
 14 15  1  0
 15 16  1  0
 16  1  1  0
  1  2  1  0
  2  3  2  0
  3  4  1  0
  4  5  2  0
  5  6  1  0
  5  7  1  0
  7  8  2  0
  8  9  1  0
  8 10  1  0
 10 11  2  0
 16 17  1  0
 17 18  1  0
 17 19  1  0
 19 20  1  0
 19 14  1  0
 11  1  1  0
 11  4  1  0
  6 12  1  0
  6 13  1  0
 18 21  1  0
 20 22  1  0
M  END
> <minimizedAffinity>
-5.22662

> <CNNscore>
0.3155608475

> <CNNaffinity>
4.4720878601

> <CNN_VS>
1.4112157822

> <CNNaffinity_variance>
0.2794752121

$$$$



 25 27  0  0  0  0  0  0  0  0999 V2000
   59.0766   65.5526   24.3153 N   0  0  0  0  0  0  0  0  0  0  0  0
   58.8757   66.5744   25.2140 C   0  0  0  0  0  0  0  0  0  0  0  0
   59.9438   66.5961   26.0857 C   0  0  0  0  0  0  0  0  0  0  0  0
   60.8334   65.5565   25.7034 C   0  0  0  0  0  0  0  0  0  0  0  0
   62.0627   65.0573   26.1532 C   0  0  0  0  0  0  0  0  0  0  0  0
   62.7555   65.5867   27.2307 N   0  0  0  0  0  0  0  0  0  0  0  0
   62.6174   64.0153   25.5103 N   0  0  0  0  0  0  0  0  0  0  0  0
   61.9603   63.4849   24.4628 C   0  0  0  0  0  0  0  0  0  0  0  0
   62.5487   62.4397   23.8605 F   0  0  0  0  0  0  0  0  0  0  0  0
   60.7750   63.8703   23.9451 N   0  0  0  0  0  0  0  0  0  0  0  0
   60.2658   64.9232   24.6071 C   0  0  0  0  0  0  0  0  0  0  0  0
   62.3831   66.3503   27.7281 H   0  0  0  0  0  0  0  0  0  0  0  0
   63.6199   65.1991   27.4985 H   0  0  0  0  0  0  0  0  0  0  0  0
   56.3445   66.3082   22.3026 C   0  0  0  0  0  0  0  0  0  0  0  0
   57.7833   66.3689   22.4998 O   0  0  0  0  0  0  0  0  0  0  0  0
   58.2046   65.1776   23.2025 C   0  0  0  0  0  0  0  0  0  0  0  0
   56.9334   64.4516   23.6611 C   0  0  0  0  0  0  0  0  0  0  0  0
   57.0408   63.0272   23.7048 O   0  0  0  0  0  0  0  0  0  0  0  0
   55.9495   64.8609   22.5830 C   0  0  0  0  0  0  0  0  0  0  0  0
   56.1850   64.0546   21.4170 O   0  0  0  0  0  0  0  0  0  0  0  0
   57.2781   62.6938   22.8254 H   0  0  0  0  0  0  0  0  0  0  0  0
   57.1132   64.1386   21.1479 H   0  0  0  0  0  0  0  0  0  0  0  0
   55.7206   67.3519   23.2411 C   0  0  0  0  0  0  0  0  0  0  0  0
   57.0079   69.8046   23.1299 C   0  0  0  0  0  0  0  0  0  0  0  0
   55.5226   68.9968   22.4831 S   0  0  0  0  0  0  0  0  0  0  0  0
 24 25  1  0
 25 23  1  0
 14 23  1  0
 14 15  1  0
 15 16  1  0
 16  1  1  0
  1  2  1  0
  2  3  2  0
  3  4  1  0
  4  5  2  0
  5  6  1  0
  5  7  1  0
  7  8  2  0
  8  9  1  0
  8 10  1  0
 10 11  2  0
 16 17  1  0
 17 18  1  0
 17 19  1  0
 19 20  1  0
 19 14  1  0
 11  1  1  0
 11  4  1  0
  6 12  1  0
  6 13  1  0
 18 21  1  0
 20 22  1  0
M  END
> <minimizedAffinity>
-5.18207

> <CNNscore>
0.2840864956

> <CNNaffinity>
4.2941327095

> <CNN_VS>
1.2199051380

> <CNNaffinity_variance>
0.6207970381

$$$$



 25 27  0  0  0  0  0  0  0  0999 V2000
   45.5577   78.2158   24.6195 N   0  0  0  0  0  0  0  0  0  0  0  0
   45.7773   78.3814   23.2718 C   0  0  0  0  0  0  0  0  0  0  0  0
   45.8619   79.7331   23.0131 C   0  0  0  0  0  0  0  0  0  0  0  0
   45.6958   80.4192   24.2460 C   0  0  0  0  0  0  0  0  0  0  0  0
   45.6781   81.7546   24.6691 C   0  0  0  0  0  0  0  0  0  0  0  0
   45.8619   82.8304   23.8146 N   0  0  0  0  0  0  0  0  0  0  0  0
   45.4825   82.0230   25.9716 N   0  0  0  0  0  0  0  0  0  0  0  0
   45.2998   80.9931   26.8179 C   0  0  0  0  0  0  0  0  0  0  0  0
   45.0977   81.3119   28.1059 F   0  0  0  0  0  0  0  0  0  0  0  0
   45.2874   79.6746   26.5302 N   0  0  0  0  0  0  0  0  0  0  0  0
   45.5028   79.4523   25.2223 C   0  0  0  0  0  0  0  0  0  0  0  0
   46.0082   82.6762   22.8534 H   0  0  0  0  0  0  0  0  0  0  0  0
   45.8462   83.7488   24.1690 H   0  0  0  0  0  0  0  0  0  0  0  0
   44.5191   74.8981   24.6125 C   0  0  0  0  0  0  0  0  0  0  0  0
   45.5983   75.8513   24.4139 O   0  0  0  0  0  0  0  0  0  0  0  0
   45.4218   76.9491   25.3380 C   0  0  0  0  0  0  0  0  0  0  0  0
   44.0413   76.7767   25.9842 C   0  0  0  0  0  0  0  0  0  0  0  0
   43.9495   77.2418   27.3324 O   0  0  0  0  0  0  0  0  0  0  0  0
   43.8796   75.2699   25.9474 C   0  0  0  0  0  0  0  0  0  0  0  0
   44.6368   74.7008   27.0282 O   0  0  0  0  0  0  0  0  0  0  0  0
   44.5997   76.7751   27.8804 H   0  0  0  0  0  0  0  0  0  0  0  0
   45.5593   74.9940   26.9662 H   0  0  0  0  0  0  0  0  0  0  0  0
   43.5958   75.0076   23.3899 C   0  0  0  0  0  0  0  0  0  0  0  0
   45.2379   74.1253   21.3380 C   0  0  0  0  0  0  0  0  0  0  0  0
   43.7468   73.6128   22.2274 S   0  0  0  0  0  0  0  0  0  0  0  0
 24 25  1  0
 25 23  1  0
 14 23  1  0
 14 15  1  0
 15 16  1  0
 16  1  1  0
  1  2  1  0
  2  3  2  0
  3  4  1  0
  4  5  2  0
  5  6  1  0
  5  7  1  0
  7  8  2  0
  8  9  1  0
  8 10  1  0
 10 11  2  0
 16 17  1  0
 17 18  1  0
 17 19  1  0
 19 20  1  0
 19 14  1  0
 11  1  1  0
 11  4  1  0
  6 12  1  0
  6 13  1  0
 18 21  1  0
 20 22  1  0
M  END
> <minimizedAffinity>
-6.95439

> <CNNscore>
0.1944887191

> <CNNaffinity>
4.4778695107

> <CNN_VS>
0.8708950877

> <CNNaffinity_variance>
0.2141435146

$$$$
