


 38 42  0  0  0  0  0  0  0  0999 V2000
  -44.7325  -55.2777  -14.0246 C   0  0  0  0  0  0  0  0  0  0  0  0
  -45.7781  -55.6477  -13.4797 O   0  0  0  0  0  0  0  0  0  0  0  0
  -43.9655  -54.2650  -13.4903 N   0  0  0  0  0  0  0  0  0  0  0  0
  -42.6974  -53.7360  -14.0603 C   0  0  0  0  0  0  0  0  0  0  0  0
  -42.4343  -52.6895  -13.0806 C   0  0  0  0  0  0  0  0  0  0  0  0
  -41.4974  -51.7470  -12.8813 N   0  0  0  0  0  0  0  0  0  0  0  0
  -41.7582  -51.0222  -11.7657 N   0  0  0  0  0  0  0  0  0  0  0  0
  -42.8987  -51.5431  -11.2715 C   0  0  0  0  0  0  0  0  0  0  0  0
  -43.3469  -52.5909  -12.0758 C   0  0  0  0  0  0  0  0  0  0  0  0
  -44.4089  -53.5905  -12.2294 C   0  0  0  0  0  0  0  0  0  0  0  0
  -40.7215  -51.6016  -13.4697 H   0  0  0  0  0  0  0  0  0  0  0  0
  -43.4146  -50.9935  -10.1256 N   0  0  0  0  0  0  0  0  0  0  0  0
  -43.8513  -51.6889   -9.0245 C   0  0  0  0  0  0  0  0  0  0  0  0
  -43.8180  -52.9052   -8.8764 O   0  0  0  0  0  0  0  0  0  0  0  0
  -43.4777  -50.0117  -10.0890 H   0  0  0  0  0  0  0  0  0  0  0  0
  -44.3782  -50.8460   -7.9143 C   0  0  0  0  0  0  0  0  0  0  0  0
  -43.9015  -49.5583   -7.6650 C   0  0  0  0  0  0  0  0  0  0  0  0
  -44.4267  -48.8088   -6.6019 C   0  0  0  0  0  0  0  0  0  0  0  0
  -45.4351  -49.3073   -5.7604 C   0  0  0  0  0  0  0  0  0  0  0  0
  -45.9110  -50.5960   -6.0532 C   0  0  0  0  0  0  0  0  0  0  0  0
  -45.3992  -51.3564   -7.1134 C   0  0  0  0  0  0  0  0  0  0  0  0
  -45.9439  -48.5676   -4.7074 N   0  0  0  0  0  0  0  0  0  0  0  0
  -46.6666  -49.2118   -3.5959 C   0  0  0  0  0  0  0  0  0  0  0  0
  -46.4948  -48.4192   -2.2775 C   0  0  0  0  0  0  0  0  0  0  0  0
  -46.8812  -46.9936   -2.3280 N   0  0  0  0  0  0  0  0  0  0  0  0
  -48.2251  -46.7768   -1.7994 C   0  0  0  0  0  0  0  0  0  0  0  0
  -46.7713  -46.4549   -3.7012 C   0  0  0  0  0  0  0  0  0  0  0  0
  -45.6750  -47.1271   -4.5607 C   0  0  0  0  0  0  0  0  0  0  0  0
  -44.2705  -55.9548  -15.3461 C   0  0  0  0  0  0  0  0  0  0  0  0
  -45.3674  -55.9567  -16.4125 C   0  0  0  0  0  0  0  0  0  0  0  0
  -46.3149  -54.9213  -16.4962 C   0  0  0  0  0  0  0  0  0  0  0  0
  -47.2961  -54.9251  -17.4917 C   0  0  0  0  0  0  0  0  0  0  0  0
  -47.3338  -55.9586  -18.4231 C   0  0  0  0  0  0  0  0  0  0  0  0
  -48.5417  -55.9625  -19.6479 Cl  0  0  0  0  0  0  0  0  0  0  0  0
  -46.3950  -56.9847  -18.3720 C   0  0  0  0  0  0  0  0  0  0  0  0
  -45.4129  -56.9797  -17.3776 C   0  0  0  0  0  0  0  0  0  0  0  0
  -42.2130  -56.3885  -16.4367 C   0  0  0  0  0  0  0  0  0  0  0  0
  -43.0595  -55.3962  -15.8666 O   0  0  0  0  0  0  0  0  0  0  0  0
 37 38  1  0
 29 38  1  0
 29  1  1  0
  1  2  2  0
  1  3  1  0
  3  4  1  0
  4  5  1  0
  5  6  1  0
  6  7  1  0
  7  8  2  0
  8 12  1  0
 12 13  1  0
 13 14  2  0
 13 16  1  0
 16 17  2  0
 17 18  1  0
 18 19  2  0
 19 22  1  0
 22 23  1  0
 23 24  1  0
 24 25  1  0
 25 26  1  0
 25 27  1  0
 27 28  1  0
 19 20  1  0
 20 21  2  0
  8  9  1  0
  9 10  1  0
 29 30  1  0
 30 31  2  0
 31 32  1  0
 32 33  2  0
 33 34  1  0
 33 35  1  0
 35 36  2  0
 10  3  1  0
 36 30  1  0
  9  5  2  0
 21 16  1  0
 28 22  1  0
  6 11  1  0
 12 15  1  0
M  END
> <minimizedAffinity>
-7.30945

> <CNNscore>
0.2708682418

> <CNNaffinity>
5.7546191216

> <CNN_VS>
1.5587435961

> <CNNaffinity_variance>
0.7721209526

$$$$



 38 42  0  0  0  0  0  0  0  0999 V2000
  -42.9624  -49.4393  -11.7373 C   0  0  0  0  0  0  0  0  0  0  0  0
  -43.7772  -49.0506  -10.8935 O   0  0  0  0  0  0  0  0  0  0  0  0
  -42.8672  -50.7703  -12.0818 N   0  0  0  0  0  0  0  0  0  0  0  0
  -41.9243  -51.3503  -13.0754 C   0  0  0  0  0  0  0  0  0  0  0  0
  -42.2910  -52.7539  -12.9351 C   0  0  0  0  0  0  0  0  0  0  0  0
  -41.9023  -53.9259  -13.4654 N   0  0  0  0  0  0  0  0  0  0  0  0
  -42.6155  -54.9584  -12.9525 N   0  0  0  0  0  0  0  0  0  0  0  0
  -43.4670  -54.3912  -12.0753 C   0  0  0  0  0  0  0  0  0  0  0  0
  -43.2863  -53.0084  -12.0425 C   0  0  0  0  0  0  0  0  0  0  0  0
  -43.7608  -51.7702  -11.4160 C   0  0  0  0  0  0  0  0  0  0  0  0
  -41.1913  -54.0222  -14.1395 H   0  0  0  0  0  0  0  0  0  0  0  0
  -44.3252  -55.2111  -11.3880 N   0  0  0  0  0  0  0  0  0  0  0  0
  -44.5519  -55.1860  -10.0335 C   0  0  0  0  0  0  0  0  0  0  0  0
  -44.0514  -54.4073   -9.2301 O   0  0  0  0  0  0  0  0  0  0  0  0
  -44.8240  -55.8780  -11.9131 H   0  0  0  0  0  0  0  0  0  0  0  0
  -45.5294  -56.1961   -9.5388 C   0  0  0  0  0  0  0  0  0  0  0  0
  -46.9070  -55.9739   -9.5614 C   0  0  0  0  0  0  0  0  0  0  0  0
  -47.7845  -56.9552   -9.0767 C   0  0  0  0  0  0  0  0  0  0  0  0
  -47.3278  -58.1794   -8.5606 C   0  0  0  0  0  0  0  0  0  0  0  0
  -45.9380  -58.3825   -8.5752 C   0  0  0  0  0  0  0  0  0  0  0  0
  -45.0482  -57.4137   -9.0589 C   0  0  0  0  0  0  0  0  0  0  0  0
  -48.1967  -59.1407   -8.0754 N   0  0  0  0  0  0  0  0  0  0  0  0
  -48.5529  -59.2018   -6.6464 C   0  0  0  0  0  0  0  0  0  0  0  0
  -49.9758  -59.7767   -6.4444 C   0  0  0  0  0  0  0  0  0  0  0  0
  -50.2274  -61.1010   -7.0502 N   0  0  0  0  0  0  0  0  0  0  0  0
  -50.1017  -62.1778   -6.0718 C   0  0  0  0  0  0  0  0  0  0  0  0
  -49.3346  -61.3428   -8.2044 C   0  0  0  0  0  0  0  0  0  0  0  0
  -48.9220  -60.0618   -8.9668 C   0  0  0  0  0  0  0  0  0  0  0  0
  -42.0133  -48.4151  -12.4217 C   0  0  0  0  0  0  0  0  0  0  0  0
  -41.6313  -47.2637  -11.4895 C   0  0  0  0  0  0  0  0  0  0  0  0
  -42.3757  -46.9753  -10.3321 C   0  0  0  0  0  0  0  0  0  0  0  0
  -41.9995  -45.9353   -9.4774 C   0  0  0  0  0  0  0  0  0  0  0  0
  -40.8669  -45.1788   -9.7637 C   0  0  0  0  0  0  0  0  0  0  0  0
  -40.4046  -43.8991   -8.7113 Cl  0  0  0  0  0  0  0  0  0  0  0  0
  -40.1033  -45.4575  -10.8934 C   0  0  0  0  0  0  0  0  0  0  0  0
  -40.4788  -46.4987  -11.7469 C   0  0  0  0  0  0  0  0  0  0  0  0
  -39.8320  -49.2377  -12.0022 C   0  0  0  0  0  0  0  0  0  0  0  0
  -40.8439  -49.0233  -12.9802 O   0  0  0  0  0  0  0  0  0  0  0  0
 37 38  1  0
 29 38  1  0
 29  1  1  0
  1  2  2  0
  1  3  1  0
  3  4  1  0
  4  5  1  0
  5  6  1  0
  6  7  1  0
  7  8  2  0
  8 12  1  0
 12 13  1  0
 13 14  2  0
 13 16  1  0
 16 17  2  0
 17 18  1  0
 18 19  2  0
 19 22  1  0
 22 23  1  0
 23 24  1  0
 24 25  1  0
 25 26  1  0
 25 27  1  0
 27 28  1  0
 19 20  1  0
 20 21  2  0
  8  9  1  0
  9 10  1  0
 29 30  1  0
 30 31  2  0
 31 32  1  0
 32 33  2  0
 33 34  1  0
 33 35  1  0
 35 36  2  0
 10  3  1  0
 36 30  1  0
  9  5  2  0
 21 16  1  0
 28 22  1  0
  6 11  1  0
 12 15  1  0
M  END
> <minimizedAffinity>
-8.34214

> <CNNscore>
0.2628510296

> <CNNaffinity>
6.2634129524

> <CNN_VS>
1.6463445425

> <CNNaffinity_variance>
0.3050356805

$$$$



 38 42  0  0  0  0  0  0  0  0999 V2000
  -41.5753  -48.2287  -11.8817 C   0  0  0  0  0  0  0  0  0  0  0  0
  -40.4346  -48.4648  -12.2943 O   0  0  0  0  0  0  0  0  0  0  0  0
  -42.5308  -49.2193  -11.8102 N   0  0  0  0  0  0  0  0  0  0  0  0
  -43.9310  -49.0499  -11.3375 C   0  0  0  0  0  0  0  0  0  0  0  0
  -44.4030  -50.4120  -11.5519 C   0  0  0  0  0  0  0  0  0  0  0  0
  -45.5545  -51.0864  -11.3930 N   0  0  0  0  0  0  0  0  0  0  0  0
  -45.4198  -52.3836  -11.7631 N   0  0  0  0  0  0  0  0  0  0  0  0
  -44.1385  -52.4994  -12.1648 C   0  0  0  0  0  0  0  0  0  0  0  0
  -43.4756  -51.2781  -12.0439 C   0  0  0  0  0  0  0  0  0  0  0  0
  -42.1870  -50.6088  -12.2489 C   0  0  0  0  0  0  0  0  0  0  0  0
  -46.3883  -50.6895  -11.0519 H   0  0  0  0  0  0  0  0  0  0  0  0
  -43.7104  -53.7248  -12.6079 N   0  0  0  0  0  0  0  0  0  0  0  0
  -44.3111  -54.9316  -12.3445 C   0  0  0  0  0  0  0  0  0  0  0  0
  -45.3412  -55.1026  -11.7028 O   0  0  0  0  0  0  0  0  0  0  0  0
  -42.8989  -53.7408  -13.1653 H   0  0  0  0  0  0  0  0  0  0  0  0
  -43.6328  -56.1171  -12.9405 C   0  0  0  0  0  0  0  0  0  0  0  0
  -43.5313  -56.3029  -14.3199 C   0  0  0  0  0  0  0  0  0  0  0  0
  -42.8885  -57.4407  -14.8296 C   0  0  0  0  0  0  0  0  0  0  0  0
  -42.3281  -58.4217  -13.9946 C   0  0  0  0  0  0  0  0  0  0  0  0
  -42.4247  -58.1928  -12.6120 C   0  0  0  0  0  0  0  0  0  0  0  0
  -43.0607  -57.0597  -12.0869 C   0  0  0  0  0  0  0  0  0  0  0  0
  -41.7029  -59.5469  -14.5020 N   0  0  0  0  0  0  0  0  0  0  0  0
  -40.4771  -60.0868  -13.8865 C   0  0  0  0  0  0  0  0  0  0  0  0
  -40.3756  -61.6188  -14.0829 C   0  0  0  0  0  0  0  0  0  0  0  0
  -40.4514  -62.0955  -15.4798 N   0  0  0  0  0  0  0  0  0  0  0  0
  -39.1266  -62.3525  -16.0379 C   0  0  0  0  0  0  0  0  0  0  0  0
  -41.1974  -61.1449  -16.3328 C   0  0  0  0  0  0  0  0  0  0  0  0
  -42.2938  -60.3487  -15.5868 C   0  0  0  0  0  0  0  0  0  0  0  0
  -41.9530  -46.7855  -11.4425 C   0  0  0  0  0  0  0  0  0  0  0  0
  -42.5623  -46.7457  -10.0397 C   0  0  0  0  0  0  0  0  0  0  0  0
  -43.6653  -45.9271   -9.7390 C   0  0  0  0  0  0  0  0  0  0  0  0
  -44.2259  -45.9203   -8.4586 C   0  0  0  0  0  0  0  0  0  0  0  0
  -43.6976  -46.7413   -7.4667 C   0  0  0  0  0  0  0  0  0  0  0  0
  -44.3882  -46.7322   -5.8912 Cl  0  0  0  0  0  0  0  0  0  0  0  0
  -42.6180  -47.5741   -7.7456 C   0  0  0  0  0  0  0  0  0  0  0  0
  -42.0587  -47.5820   -9.0265 C   0  0  0  0  0  0  0  0  0  0  0  0
  -40.3921  -45.4441  -10.2698 C   0  0  0  0  0  0  0  0  0  0  0  0
  -40.8607  -45.8659  -11.5461 O   0  0  0  0  0  0  0  0  0  0  0  0
 37 38  1  0
 29 38  1  0
 29  1  1  0
  1  2  2  0
  1  3  1  0
  3  4  1  0
  4  5  1  0
  5  6  1  0
  6  7  1  0
  7  8  2  0
  8 12  1  0
 12 13  1  0
 13 14  2  0
 13 16  1  0
 16 17  2  0
 17 18  1  0
 18 19  2  0
 19 22  1  0
 22 23  1  0
 23 24  1  0
 24 25  1  0
 25 26  1  0
 25 27  1  0
 27 28  1  0
 19 20  1  0
 20 21  2  0
  8  9  1  0
  9 10  1  0
 29 30  1  0
 30 31  2  0
 31 32  1  0
 32 33  2  0
 33 34  1  0
 33 35  1  0
 35 36  2  0
 10  3  1  0
 36 30  1  0
  9  5  2  0
 21 16  1  0
 28 22  1  0
  6 11  1  0
 12 15  1  0
M  END
> <minimizedAffinity>
-7.82663

> <CNNscore>
0.2555121183

> <CNNaffinity>
6.6648902893

> <CNN_VS>
1.7029602528

> <CNNaffinity_variance>
0.1804228276

$$$$



 38 42  0  0  0  0  0  0  0  0999 V2000
  -41.5682  -48.4317  -11.8930 C   0  0  0  0  0  0  0  0  0  0  0  0
  -40.4843  -48.7433  -12.3981 O   0  0  0  0  0  0  0  0  0  0  0  0
  -42.5864  -49.3506  -11.7579 N   0  0  0  0  0  0  0  0  0  0  0  0
  -43.9286  -49.0875  -11.1731 C   0  0  0  0  0  0  0  0  0  0  0  0
  -44.5163  -50.4072  -11.3659 C   0  0  0  0  0  0  0  0  0  0  0  0
  -45.6989  -50.9979  -11.1241 N   0  0  0  0  0  0  0  0  0  0  0  0
  -45.6909  -52.2946  -11.5197 N   0  0  0  0  0  0  0  0  0  0  0  0
  -44.4574  -52.4968  -12.0237 C   0  0  0  0  0  0  0  0  0  0  0  0
  -43.6977  -51.3298  -11.9410 C   0  0  0  0  0  0  0  0  0  0  0  0
  -42.3828  -50.7534  -12.2397 C   0  0  0  0  0  0  0  0  0  0  0  0
  -46.4714  -50.5472  -10.7127 H   0  0  0  0  0  0  0  0  0  0  0  0
  -44.1580  -53.7421  -12.5146 N   0  0  0  0  0  0  0  0  0  0  0  0
  -42.9404  -54.1416  -13.0090 C   0  0  0  0  0  0  0  0  0  0  0  0
  -41.9211  -53.4627  -13.0585 O   0  0  0  0  0  0  0  0  0  0  0  0
  -44.8813  -54.4099  -12.5124 H   0  0  0  0  0  0  0  0  0  0  0  0
  -42.8870  -55.5507  -13.4909 C   0  0  0  0  0  0  0  0  0  0  0  0
  -42.7669  -56.6332  -12.6182 C   0  0  0  0  0  0  0  0  0  0  0  0
  -42.7138  -57.9404  -13.1242 C   0  0  0  0  0  0  0  0  0  0  0  0
  -42.7801  -58.2141  -14.5005 C   0  0  0  0  0  0  0  0  0  0  0  0
  -42.9262  -57.1052  -15.3504 C   0  0  0  0  0  0  0  0  0  0  0  0
  -42.9841  -55.7934  -14.8606 C   0  0  0  0  0  0  0  0  0  0  0  0
  -42.7183  -59.5047  -14.9956 N   0  0  0  0  0  0  0  0  0  0  0  0
  -42.1100  -60.5975  -14.2153 C   0  0  0  0  0  0  0  0  0  0  0  0
  -42.7600  -61.9609  -14.5536 C   0  0  0  0  0  0  0  0  0  0  0  0
  -42.7536  -62.3408  -15.9819 N   0  0  0  0  0  0  0  0  0  0  0  0
  -41.6575  -63.2534  -16.2954 C   0  0  0  0  0  0  0  0  0  0  0  0
  -42.7011  -61.1484  -16.8554 C   0  0  0  0  0  0  0  0  0  0  0  0
  -43.3753  -59.8922  -16.2554 C   0  0  0  0  0  0  0  0  0  0  0  0
  -41.8014  -46.9729  -11.4073 C   0  0  0  0  0  0  0  0  0  0  0  0
  -42.4949  -46.9179  -10.0447 C   0  0  0  0  0  0  0  0  0  0  0  0
  -41.9477  -47.5495   -8.9140 C   0  0  0  0  0  0  0  0  0  0  0  0
  -42.5809  -47.4694   -7.6704 C   0  0  0  0  0  0  0  0  0  0  0  0
  -43.7629  -46.7463   -7.5404 C   0  0  0  0  0  0  0  0  0  0  0  0
  -44.5415  -46.6483   -6.0096 Cl  0  0  0  0  0  0  0  0  0  0  0  0
  -44.3137  -46.0969   -8.6411 C   0  0  0  0  0  0  0  0  0  0  0  0
  -43.6794  -46.1757   -9.8841 C   0  0  0  0  0  0  0  0  0  0  0  0
  -40.8596  -44.8230  -11.0887 C   0  0  0  0  0  0  0  0  0  0  0  0
  -40.6038  -46.1889  -11.3977 O   0  0  0  0  0  0  0  0  0  0  0  0
 37 38  1  0
 29 38  1  0
 29  1  1  0
  1  2  2  0
  1  3  1  0
  3  4  1  0
  4  5  1  0
  5  6  1  0
  6  7  1  0
  7  8  2  0
  8 12  1  0
 12 13  1  0
 13 14  2  0
 13 16  1  0
 16 17  2  0
 17 18  1  0
 18 19  2  0
 19 22  1  0
 22 23  1  0
 23 24  1  0
 24 25  1  0
 25 26  1  0
 25 27  1  0
 27 28  1  0
 19 20  1  0
 20 21  2  0
  8  9  1  0
  9 10  1  0
 29 30  1  0
 30 31  2  0
 31 32  1  0
 32 33  2  0
 33 34  1  0
 33 35  1  0
 35 36  2  0
 10  3  1  0
 36 30  1  0
  9  5  2  0
 21 16  1  0
 28 22  1  0
  6 11  1  0
 12 15  1  0
M  END
> <minimizedAffinity>
-7.83547

> <CNNscore>
0.1868496090

> <CNNaffinity>
6.5102310181

> <CNN_VS>
1.2164341211

> <CNNaffinity_variance>
0.0838825181

$$$$



 38 42  0  0  0  0  0  0  0  0999 V2000
  -44.1166  -49.6228  -11.1943 C   0  0  0  0  0  0  0  0  0  0  0  0
  -45.2753  -49.5964  -10.7655 O   0  0  0  0  0  0  0  0  0  0  0  0
  -43.5948  -50.7561  -11.7798 N   0  0  0  0  0  0  0  0  0  0  0  0
  -42.2181  -50.9036  -12.3235 C   0  0  0  0  0  0  0  0  0  0  0  0
  -42.2914  -52.2998  -12.7352 C   0  0  0  0  0  0  0  0  0  0  0  0
  -41.4679  -53.1996  -13.2991 N   0  0  0  0  0  0  0  0  0  0  0  0
  -42.0850  -54.3953  -13.4645 N   0  0  0  0  0  0  0  0  0  0  0  0
  -43.3293  -54.2146  -12.9792 C   0  0  0  0  0  0  0  0  0  0  0  0
  -43.4881  -52.9091  -12.5141 C   0  0  0  0  0  0  0  0  0  0  0  0
  -44.4423  -51.9851  -11.8925 C   0  0  0  0  0  0  0  0  0  0  0  0
  -40.5365  -53.0144  -13.5587 H   0  0  0  0  0  0  0  0  0  0  0  0
  -44.1944  -55.2784  -13.0112 N   0  0  0  0  0  0  0  0  0  0  0  0
  -44.2613  -56.2904  -12.0849 C   0  0  0  0  0  0  0  0  0  0  0  0
  -43.5849  -56.3861  -11.0673 O   0  0  0  0  0  0  0  0  0  0  0  0
  -44.8244  -55.3205  -13.7665 H   0  0  0  0  0  0  0  0  0  0  0  0
  -45.2883  -57.3335  -12.3636 C   0  0  0  0  0  0  0  0  0  0  0  0
  -44.9531  -58.6708  -12.5805 C   0  0  0  0  0  0  0  0  0  0  0  0
  -45.9583  -59.6124  -12.8461 C   0  0  0  0  0  0  0  0  0  0  0  0
  -47.3175  -59.2615  -12.9022 C   0  0  0  0  0  0  0  0  0  0  0  0
  -47.6239  -57.9132  -12.6545 C   0  0  0  0  0  0  0  0  0  0  0  0
  -46.6318  -56.9608  -12.3845 C   0  0  0  0  0  0  0  0  0  0  0  0
  -48.3048  -60.1922  -13.1734 N   0  0  0  0  0  0  0  0  0  0  0  0
  -47.9708  -61.5601  -13.6093 C   0  0  0  0  0  0  0  0  0  0  0  0
  -49.0497  -62.5743  -13.1586 C   0  0  0  0  0  0  0  0  0  0  0  0
  -50.4342  -62.2706  -13.5774 N   0  0  0  0  0  0  0  0  0  0  0  0
  -50.8174  -63.0217  -14.7697 C   0  0  0  0  0  0  0  0  0  0  0  0
  -50.6242  -60.8201  -13.7954 C   0  0  0  0  0  0  0  0  0  0  0  0
  -49.7284  -59.9226  -12.9097 C   0  0  0  0  0  0  0  0  0  0  0  0
  -43.2177  -48.3604  -11.0651 C   0  0  0  0  0  0  0  0  0  0  0  0
  -42.7868  -48.0992   -9.6205 C   0  0  0  0  0  0  0  0  0  0  0  0
  -42.2950  -46.8463   -9.2139 C   0  0  0  0  0  0  0  0  0  0  0  0
  -41.9283  -46.6162   -7.8848 C   0  0  0  0  0  0  0  0  0  0  0  0
  -42.0606  -47.6331   -6.9439 C   0  0  0  0  0  0  0  0  0  0  0  0
  -41.6092  -47.3491   -5.3084 Cl  0  0  0  0  0  0  0  0  0  0  0  0
  -42.5626  -48.8758   -7.3186 C   0  0  0  0  0  0  0  0  0  0  0  0
  -42.9309  -49.1051   -8.6472 C   0  0  0  0  0  0  0  0  0  0  0  0
  -41.5551  -47.0921  -12.1777 C   0  0  0  0  0  0  0  0  0  0  0  0
  -42.0808  -48.3924  -11.9344 O   0  0  0  0  0  0  0  0  0  0  0  0
 37 38  1  0
 29 38  1  0
 29  1  1  0
  1  2  2  0
  1  3  1  0
  3  4  1  0
  4  5  1  0
  5  6  1  0
  6  7  1  0
  7  8  2  0
  8 12  1  0
 12 13  1  0
 13 14  2  0
 13 16  1  0
 16 17  2  0
 17 18  1  0
 18 19  2  0
 19 22  1  0
 22 23  1  0
 23 24  1  0
 24 25  1  0
 25 26  1  0
 25 27  1  0
 27 28  1  0
 19 20  1  0
 20 21  2  0
  8  9  1  0
  9 10  1  0
 29 30  1  0
 30 31  2  0
 31 32  1  0
 32 33  2  0
 33 34  1  0
 33 35  1  0
 35 36  2  0
 10  3  1  0
 36 30  1  0
  9  5  2  0
 21 16  1  0
 28 22  1  0
  6 11  1  0
 12 15  1  0
M  END
> <minimizedAffinity>
-6.36016

> <CNNscore>
0.1838954091

> <CNNaffinity>
5.4882798195

> <CNN_VS>
1.0092694759

> <CNNaffinity_variance>
0.9516761303

$$$$



 38 42  0  0  0  0  0  0  0  0999 V2000
  -42.4681  -50.5251  -11.9781 C   0  0  0  0  0  0  0  0  0  0  0  0
  -41.6162  -49.8875  -12.6065 O   0  0  0  0  0  0  0  0  0  0  0  0
  -42.8049  -51.8135  -12.3327 N   0  0  0  0  0  0  0  0  0  0  0  0
  -43.8149  -52.6702  -11.6556 C   0  0  0  0  0  0  0  0  0  0  0  0
  -43.7246  -53.8420  -12.5176 C   0  0  0  0  0  0  0  0  0  0  0  0
  -44.3147  -55.0466  -12.5986 N   0  0  0  0  0  0  0  0  0  0  0  0
  -43.8234  -55.7660  -13.6373 N   0  0  0  0  0  0  0  0  0  0  0  0
  -42.9026  -54.9657  -14.2100 C   0  0  0  0  0  0  0  0  0  0  0  0
  -42.8187  -53.7512  -13.5291 C   0  0  0  0  0  0  0  0  0  0  0  0
  -42.1343  -52.4543  -13.5079 C   0  0  0  0  0  0  0  0  0  0  0  0
  -45.0136  -55.3655  -11.9830 H   0  0  0  0  0  0  0  0  0  0  0  0
  -42.2331  -55.4379  -15.3100 N   0  0  0  0  0  0  0  0  0  0  0  0
  -42.7022  -55.4352  -16.6010 C   0  0  0  0  0  0  0  0  0  0  0  0
  -43.7755  -54.9807  -16.9803 O   0  0  0  0  0  0  0  0  0  0  0  0
  -41.3351  -55.8127  -15.1608 H   0  0  0  0  0  0  0  0  0  0  0  0
  -41.7746  -56.0197  -17.6103 C   0  0  0  0  0  0  0  0  0  0  0  0
  -40.5491  -56.5861  -17.2569 C   0  0  0  0  0  0  0  0  0  0  0  0
  -39.7091  -57.1165  -18.2472 C   0  0  0  0  0  0  0  0  0  0  0  0
  -40.0559  -57.1046  -19.6086 C   0  0  0  0  0  0  0  0  0  0  0  0
  -41.3064  -56.5506  -19.9286 C   0  0  0  0  0  0  0  0  0  0  0  0
  -42.1585  -56.0196  -18.9508 C   0  0  0  0  0  0  0  0  0  0  0  0
  -39.2201  -57.6210  -20.5829 N   0  0  0  0  0  0  0  0  0  0  0  0
  -39.2715  -59.0445  -20.9623 C   0  0  0  0  0  0  0  0  0  0  0  0
  -38.8645  -59.2484  -22.4416 C   0  0  0  0  0  0  0  0  0  0  0  0
  -37.5454  -58.7049  -22.8276 N   0  0  0  0  0  0  0  0  0  0  0  0
  -36.5133  -59.7380  -22.8323 C   0  0  0  0  0  0  0  0  0  0  0  0
  -37.1496  -57.5810  -21.9513 C   0  0  0  0  0  0  0  0  0  0  0  0
  -38.3376  -56.7634  -21.3921 C   0  0  0  0  0  0  0  0  0  0  0  0
  -43.1881  -49.8648  -10.7681 C   0  0  0  0  0  0  0  0  0  0  0  0
  -42.5947  -48.5002  -10.4126 C   0  0  0  0  0  0  0  0  0  0  0  0
  -42.4155  -47.4995  -11.3840 C   0  0  0  0  0  0  0  0  0  0  0  0
  -41.8946  -46.2492  -11.0386 C   0  0  0  0  0  0  0  0  0  0  0  0
  -41.5581  -45.9807   -9.7151 C   0  0  0  0  0  0  0  0  0  0  0  0
  -40.9172  -44.4417   -9.2910 Cl  0  0  0  0  0  0  0  0  0  0  0  0
  -41.7440  -46.9488   -8.7328 C   0  0  0  0  0  0  0  0  0  0  0  0
  -42.2665  -48.1983   -9.0781 C   0  0  0  0  0  0  0  0  0  0  0  0
  -45.3155  -50.0429   -9.7420 C   0  0  0  0  0  0  0  0  0  0  0  0
  -44.6054  -49.7697  -10.9451 O   0  0  0  0  0  0  0  0  0  0  0  0
 37 38  1  0
 29 38  1  0
 29  1  1  0
  1  2  2  0
  1  3  1  0
  3  4  1  0
  4  5  1  0
  5  6  1  0
  6  7  1  0
  7  8  2  0
  8 12  1  0
 12 13  1  0
 13 14  2  0
 13 16  1  0
 16 17  2  0
 17 18  1  0
 18 19  2  0
 19 22  1  0
 22 23  1  0
 23 24  1  0
 24 25  1  0
 25 26  1  0
 25 27  1  0
 27 28  1  0
 19 20  1  0
 20 21  2  0
  8  9  1  0
  9 10  1  0
 29 30  1  0
 30 31  2  0
 31 32  1  0
 32 33  2  0
 33 34  1  0
 33 35  1  0
 35 36  2  0
 10  3  1  0
 36 30  1  0
  9  5  2  0
 21 16  1  0
 28 22  1  0
  6 11  1  0
 12 15  1  0
M  END
> <minimizedAffinity>
-7.51982

> <CNNscore>
0.1805767417

> <CNNaffinity>
6.3586888313

> <CNN_VS>
1.1482312679

> <CNNaffinity_variance>
0.0491936021

$$$$



 38 42  0  0  0  0  0  0  0  0999 V2000
  -44.3898  -55.1603  -13.6748 C   0  0  0  0  0  0  0  0  0  0  0  0
  -45.4177  -55.5461  -13.1076 O   0  0  0  0  0  0  0  0  0  0  0  0
  -43.6698  -54.0853  -13.2001 N   0  0  0  0  0  0  0  0  0  0  0  0
  -42.4270  -53.5321  -13.8018 C   0  0  0  0  0  0  0  0  0  0  0  0
  -42.2121  -52.4212  -12.8831 C   0  0  0  0  0  0  0  0  0  0  0  0
  -41.3191  -51.4273  -12.7393 N   0  0  0  0  0  0  0  0  0  0  0  0
  -41.6131  -50.6535  -11.6657 N   0  0  0  0  0  0  0  0  0  0  0  0
  -42.7289  -51.1970  -11.1404 C   0  0  0  0  0  0  0  0  0  0  0  0
  -43.1286  -52.3078  -11.8835 C   0  0  0  0  0  0  0  0  0  0  0  0
  -44.1439  -53.3617  -11.9782 C   0  0  0  0  0  0  0  0  0  0  0  0
  -40.5505  -51.2802  -13.3367 H   0  0  0  0  0  0  0  0  0  0  0  0
  -43.2696  -50.6078  -10.0261 N   0  0  0  0  0  0  0  0  0  0  0  0
  -42.9756  -49.3509   -9.5565 C   0  0  0  0  0  0  0  0  0  0  0  0
  -42.2119  -48.5447  -10.0752 O   0  0  0  0  0  0  0  0  0  0  0  0
  -43.9281  -51.1333   -9.5167 H   0  0  0  0  0  0  0  0  0  0  0  0
  -43.6989  -48.9565   -8.3148 C   0  0  0  0  0  0  0  0  0  0  0  0
  -43.7204  -47.6406   -7.8505 C   0  0  0  0  0  0  0  0  0  0  0  0
  -44.4105  -47.3233   -6.6712 C   0  0  0  0  0  0  0  0  0  0  0  0
  -45.0982  -48.2925   -5.9219 C   0  0  0  0  0  0  0  0  0  0  0  0
  -45.0786  -49.6022   -6.4293 C   0  0  0  0  0  0  0  0  0  0  0  0
  -44.3966  -49.9350   -7.6075 C   0  0  0  0  0  0  0  0  0  0  0  0
  -45.7702  -47.9764   -4.7545 N   0  0  0  0  0  0  0  0  0  0  0  0
  -46.2164  -49.0240   -3.8183 C   0  0  0  0  0  0  0  0  0  0  0  0
  -46.2478  -48.5017   -2.3616 C   0  0  0  0  0  0  0  0  0  0  0  0
  -47.0569  -47.2867   -2.1303 N   0  0  0  0  0  0  0  0  0  0  0  0
  -48.3811  -47.6086   -1.6056 C   0  0  0  0  0  0  0  0  0  0  0  0
  -47.1706  -46.4739   -3.3608 C   0  0  0  0  0  0  0  0  0  0  0  0
  -45.9536  -46.5847   -4.3091 C   0  0  0  0  0  0  0  0  0  0  0  0
  -43.8969  -55.8890  -14.9571 C   0  0  0  0  0  0  0  0  0  0  0  0
  -43.0876  -57.1470  -14.6360 C   0  0  0  0  0  0  0  0  0  0  0  0
  -42.5952  -57.9851  -15.6519 C   0  0  0  0  0  0  0  0  0  0  0  0
  -41.8365  -59.1177  -15.3430 C   0  0  0  0  0  0  0  0  0  0  0  0
  -41.5509  -59.4189  -14.0146 C   0  0  0  0  0  0  0  0  0  0  0  0
  -40.6171  -60.8129  -13.6354 Cl  0  0  0  0  0  0  0  0  0  0  0  0
  -42.0114  -58.5940  -12.9927 C   0  0  0  0  0  0  0  0  0  0  0  0
  -42.7686  -57.4606  -13.3019 C   0  0  0  0  0  0  0  0  0  0  0  0
  -44.7509  -55.5883  -17.1460 C   0  0  0  0  0  0  0  0  0  0  0  0
  -44.9566  -56.1888  -15.8718 O   0  0  0  0  0  0  0  0  0  0  0  0
 37 38  1  0
 29 38  1  0
 29  1  1  0
  1  2  2  0
  1  3  1  0
  3  4  1  0
  4  5  1  0
  5  6  1  0
  6  7  1  0
  7  8  2  0
  8 12  1  0
 12 13  1  0
 13 14  2  0
 13 16  1  0
 16 17  2  0
 17 18  1  0
 18 19  2  0
 19 22  1  0
 22 23  1  0
 23 24  1  0
 24 25  1  0
 25 26  1  0
 25 27  1  0
 27 28  1  0
 19 20  1  0
 20 21  2  0
  8  9  1  0
  9 10  1  0
 29 30  1  0
 30 31  2  0
 31 32  1  0
 32 33  2  0
 33 34  1  0
 33 35  1  0
 35 36  2  0
 10  3  1  0
 36 30  1  0
  9  5  2  0
 21 16  1  0
 28 22  1  0
  6 11  1  0
 12 15  1  0
M  END
> <minimizedAffinity>
-7.21051

> <CNNscore>
0.1635369509

> <CNNaffinity>
6.1379394531

> <CNN_VS>
1.0037798882

> <CNNaffinity_variance>
0.2174800038

$$$$



 38 42  0  0  0  0  0  0  0  0999 V2000
  -45.5427  -56.3402  -15.3333 C   0  0  0  0  0  0  0  0  0  0  0  0
  -46.6847  -56.3584  -14.8615 O   0  0  0  0  0  0  0  0  0  0  0  0
  -44.5451  -55.5770  -14.7661 N   0  0  0  0  0  0  0  0  0  0  0  0
  -43.1422  -55.4740  -15.2497 C   0  0  0  0  0  0  0  0  0  0  0  0
  -42.6437  -54.5089  -14.2780 C   0  0  0  0  0  0  0  0  0  0  0  0
  -41.4832  -53.8784  -14.0300 N   0  0  0  0  0  0  0  0  0  0  0  0
  -41.5886  -53.0588  -12.9553 N   0  0  0  0  0  0  0  0  0  0  0  0
  -42.8627  -53.1951  -12.5376 C   0  0  0  0  0  0  0  0  0  0  0  0
  -43.5494  -54.0987  -13.3487 C   0  0  0  0  0  0  0  0  0  0  0  0
  -44.8490  -54.7446  -13.5594 C   0  0  0  0  0  0  0  0  0  0  0  0
  -40.6622  -53.9964  -14.5604 H   0  0  0  0  0  0  0  0  0  0  0  0
  -43.2653  -52.4657  -11.4481 N   0  0  0  0  0  0  0  0  0  0  0  0
  -42.9546  -51.1511  -11.1993 C   0  0  0  0  0  0  0  0  0  0  0  0
  -42.2992  -50.4123  -11.9253 O   0  0  0  0  0  0  0  0  0  0  0  0
  -43.8279  -52.9261  -10.7842 H   0  0  0  0  0  0  0  0  0  0  0  0
  -43.5132  -50.5998   -9.9326 C   0  0  0  0  0  0  0  0  0  0  0  0
  -43.6650  -49.2291   -9.7190 C   0  0  0  0  0  0  0  0  0  0  0  0
  -44.1897  -48.7616   -8.5049 C   0  0  0  0  0  0  0  0  0  0  0  0
  -44.5799  -49.6315   -7.4731 C   0  0  0  0  0  0  0  0  0  0  0  0
  -44.4381  -51.0054   -7.7290 C   0  0  0  0  0  0  0  0  0  0  0  0
  -43.9188  -51.4887   -8.9377 C   0  0  0  0  0  0  0  0  0  0  0  0
  -45.0886  -49.1653   -6.2738 N   0  0  0  0  0  0  0  0  0  0  0  0
  -46.1159  -49.9182   -5.5318 C   0  0  0  0  0  0  0  0  0  0  0  0
  -46.0054  -49.6703   -4.0079 C   0  0  0  0  0  0  0  0  0  0  0  0
  -46.0557  -48.2565   -3.5800 N   0  0  0  0  0  0  0  0  0  0  0  0
  -47.3902  -47.8741   -3.1269 C   0  0  0  0  0  0  0  0  0  0  0  0
  -45.5948  -47.3523   -4.6560 C   0  0  0  0  0  0  0  0  0  0  0  0
  -44.5405  -47.9757   -5.6006 C   0  0  0  0  0  0  0  0  0  0  0  0
  -45.2179  -57.1833  -16.5990 C   0  0  0  0  0  0  0  0  0  0  0  0
  -44.6165  -58.5462  -16.2508 C   0  0  0  0  0  0  0  0  0  0  0  0
  -43.3255  -58.9107  -16.6720 C   0  0  0  0  0  0  0  0  0  0  0  0
  -42.7806  -60.1503  -16.3249 C   0  0  0  0  0  0  0  0  0  0  0  0
  -43.5159  -61.0353  -15.5420 C   0  0  0  0  0  0  0  0  0  0  0  0
  -42.8446  -62.5606  -15.1153 Cl  0  0  0  0  0  0  0  0  0  0  0  0
  -44.7885  -60.6893  -15.0974 C   0  0  0  0  0  0  0  0  0  0  0  0
  -45.3323  -59.4490  -15.4431 C   0  0  0  0  0  0  0  0  0  0  0  0
  -46.4512  -56.2560  -18.3962 C   0  0  0  0  0  0  0  0  0  0  0  0
  -46.3413  -57.3343  -17.4733 O   0  0  0  0  0  0  0  0  0  0  0  0
 37 38  1  0
 29 38  1  0
 29  1  1  0
  1  2  2  0
  1  3  1  0
  3  4  1  0
  4  5  1  0
  5  6  1  0
  6  7  1  0
  7  8  2  0
  8 12  1  0
 12 13  1  0
 13 14  2  0
 13 16  1  0
 16 17  2  0
 17 18  1  0
 18 19  2  0
 19 22  1  0
 22 23  1  0
 23 24  1  0
 24 25  1  0
 25 26  1  0
 25 27  1  0
 27 28  1  0
 19 20  1  0
 20 21  2  0
  8  9  1  0
  9 10  1  0
 29 30  1  0
 30 31  2  0
 31 32  1  0
 32 33  2  0
 33 34  1  0
 33 35  1  0
 35 36  2  0
 10  3  1  0
 36 30  1  0
  9  5  2  0
 21 16  1  0
 28 22  1  0
  6 11  1  0
 12 15  1  0
M  END
> <minimizedAffinity>
-5.94570

> <CNNscore>
0.1589855254

> <CNNaffinity>
5.3861098289

> <CNN_VS>
0.8563135266

> <CNNaffinity_variance>
0.4430477619

$$$$



 38 42  0  0  0  0  0  0  0  0999 V2000
  -44.1601  -56.6510  -14.9493 C   0  0  0  0  0  0  0  0  0  0  0  0
  -45.0714  -57.3123  -14.4401 O   0  0  0  0  0  0  0  0  0  0  0  0
  -43.6618  -55.5237  -14.3326 N   0  0  0  0  0  0  0  0  0  0  0  0
  -42.5752  -54.6513  -14.8532 C   0  0  0  0  0  0  0  0  0  0  0  0
  -42.5662  -53.6524  -13.7920 C   0  0  0  0  0  0  0  0  0  0  0  0
  -41.8912  -52.5241  -13.5141 N   0  0  0  0  0  0  0  0  0  0  0  0
  -42.3070  -51.9773  -12.3453 N   0  0  0  0  0  0  0  0  0  0  0  0
  -43.2733  -52.8040  -11.8990 C   0  0  0  0  0  0  0  0  0  0  0  0
  -43.4584  -53.8643  -12.7864 C   0  0  0  0  0  0  0  0  0  0  0  0
  -44.2395  -55.0825  -13.0238 C   0  0  0  0  0  0  0  0  0  0  0  0
  -41.1856  -52.1436  -14.0857 H   0  0  0  0  0  0  0  0  0  0  0  0
  -43.8918  -52.4925  -10.7151 N   0  0  0  0  0  0  0  0  0  0  0  0
  -43.5708  -51.4419   -9.8907 C   0  0  0  0  0  0  0  0  0  0  0  0
  -42.7065  -50.5976  -10.0971 O   0  0  0  0  0  0  0  0  0  0  0  0
  -44.6330  -53.0747  -10.4305 H   0  0  0  0  0  0  0  0  0  0  0  0
  -44.3963  -51.3351   -8.6547 C   0  0  0  0  0  0  0  0  0  0  0  0
  -44.1056  -50.4215   -7.6405 C   0  0  0  0  0  0  0  0  0  0  0  0
  -44.9109  -50.3664   -6.4932 C   0  0  0  0  0  0  0  0  0  0  0  0
  -46.0227  -51.2069   -6.3174 C   0  0  0  0  0  0  0  0  0  0  0  0
  -46.3034  -52.0972   -7.3670 C   0  0  0  0  0  0  0  0  0  0  0  0
  -45.5108  -52.1624   -8.5210 C   0  0  0  0  0  0  0  0  0  0  0  0
  -46.8089  -51.1550   -5.1799 N   0  0  0  0  0  0  0  0  0  0  0  0
  -48.2619  -50.9203   -5.2615 C   0  0  0  0  0  0  0  0  0  0  0  0
  -49.0090  -51.5990   -4.0880 C   0  0  0  0  0  0  0  0  0  0  0  0
  -48.5474  -51.2326   -2.7327 N   0  0  0  0  0  0  0  0  0  0  0  0
  -49.3918  -50.2037   -2.1318 C   0  0  0  0  0  0  0  0  0  0  0  0
  -47.1330  -50.8001   -2.7448 C   0  0  0  0  0  0  0  0  0  0  0  0
  -46.2744  -51.4688   -3.8440 C   0  0  0  0  0  0  0  0  0  0  0  0
  -43.5647  -57.0853  -16.3187 C   0  0  0  0  0  0  0  0  0  0  0  0
  -42.2481  -57.8491  -16.1640 C   0  0  0  0  0  0  0  0  0  0  0  0
  -42.0829  -58.8401  -15.1804 C   0  0  0  0  0  0  0  0  0  0  0  0
  -40.8818  -59.5462  -15.0677 C   0  0  0  0  0  0  0  0  0  0  0  0
  -39.8357  -59.2780  -15.9455 C   0  0  0  0  0  0  0  0  0  0  0  0
  -38.3580  -60.1475  -15.8062 Cl  0  0  0  0  0  0  0  0  0  0  0  0
  -39.9822  -58.3148  -16.9394 C   0  0  0  0  0  0  0  0  0  0  0  0
  -41.1839  -57.6101  -17.0529 C   0  0  0  0  0  0  0  0  0  0  0  0
  -45.3225  -56.9797  -17.9028 C   0  0  0  0  0  0  0  0  0  0  0  0
  -44.4896  -57.8281  -17.1199 O   0  0  0  0  0  0  0  0  0  0  0  0
 37 38  1  0
 29 38  1  0
 29  1  1  0
  1  2  2  0
  1  3  1  0
  3  4  1  0
  4  5  1  0
  5  6  1  0
  6  7  1  0
  7  8  2  0
  8 12  1  0
 12 13  1  0
 13 14  2  0
 13 16  1  0
 16 17  2  0
 17 18  1  0
 18 19  2  0
 19 22  1  0
 22 23  1  0
 23 24  1  0
 24 25  1  0
 25 26  1  0
 25 27  1  0
 27 28  1  0
 19 20  1  0
 20 21  2  0
  8  9  1  0
  9 10  1  0
 29 30  1  0
 30 31  2  0
 31 32  1  0
 32 33  2  0
 33 34  1  0
 33 35  1  0
 35 36  2  0
 10  3  1  0
 36 30  1  0
  9  5  2  0
 21 16  1  0
 28 22  1  0
  6 11  1  0
 12 15  1  0
M  END
> <minimizedAffinity>
-6.16536

> <CNNscore>
0.1374234259

> <CNNaffinity>
5.4537987709

> <CNN_VS>
0.7494797111

> <CNNaffinity_variance>
0.2131294012

$$$$
