


 22 24  0  0  0  0  0  0  0  0999 V2000
    6.0940   69.8861   65.9165 C   0  0  0  0  0  0  0  0  0  0  0  0
    5.6828   69.4419   64.5470 C   0  0  0  0  0  0  0  0  0  0  0  0
    4.7673   68.5027   64.2152 C   0  0  0  0  0  0  0  0  0  0  0  0
    3.9886   67.6766   65.2256 C   0  0  0  0  0  0  0  0  0  0  0  0
    4.1181   66.1912   64.9394 C   0  0  0  0  0  0  0  0  0  0  0  0
    4.5179   65.6932   63.7539 C   0  0  0  0  0  0  0  0  0  0  0  0
    4.6715   64.2232   63.5020 C   0  0  0  0  0  0  0  0  0  0  0  0
    4.8326   66.6146   62.5859 C   0  0  0  0  0  0  0  0  0  0  0  0
    4.3380   68.0890   62.7823 C   0  0  0  0  0  0  0  0  0  0  0  0
    4.9883   68.9647   61.7966 N   0  0  0  0  0  0  0  0  0  0  0  0
    2.7871   68.1609   62.6378 C   0  0  0  0  0  0  0  0  0  0  0  0
    2.1048   68.1406   61.3321 C   0  0  0  0  0  0  0  0  0  0  0  0
    2.9540   67.8463   59.8474 Cl  0  0  0  0  0  0  0  0  0  0  0  0
    0.7751   68.2875   61.2285 C   0  0  0  0  0  0  0  0  0  0  0  0
   -0.0438   68.4368   62.4410 C   0  0  0  0  0  0  0  0  0  0  0  0
   -1.2571   68.5921   62.3787 O   0  0  0  0  0  0  0  0  0  0  0  0
    0.6331   68.3637   63.6253 N   0  0  0  0  0  0  0  0  0  0  0  0
    1.9989   68.2284   63.7420 C   0  0  0  0  0  0  0  0  0  0  0  0
    2.5247   68.1391   65.1593 C   0  0  0  0  0  0  0  0  0  0  0  0
    4.7033   68.6892   60.8567 H   0  0  0  0  0  0  0  0  0  0  0  0
    6.0011   68.8807   61.8831 H   0  0  0  0  0  0  0  0  0  0  0  0
    0.1065   68.4111   64.4558 H   0  0  0  0  0  0  0  0  0  0  0  0
  1  2  1  0
  2  3  2  0
  3  4  1  0
  4  5  1  0
  5  6  2  0
  6  7  1  0
  6  8  1  0
  8  9  1  0
  9 10  1  0
  9 11  1  0
 11 12  1  0
 12 13  1  0
 12 14  2  0
 14 15  1  0
 15 16  2  0
 15 17  1  0
 17 18  1  0
 18 19  1  0
  9  3  1  0
 18 11  2  0
  4 19  1  0
 10 20  1  0
 10 21  1  0
 17 22  1  0
M  END
> <minimizedAffinity>
-10.84811

> <CNNscore>
0.9511668682

> <CNNaffinity>
7.3715000153

> <CNN_VS>
7.0115265846

> <CNNaffinity_variance>
0.2561103106

$$$$



 22 24  0  0  0  0  0  0  0  0999 V2000
    4.9877   63.6508   63.3708 C   0  0  0  0  0  0  0  0  0  0  0  0
    3.9063   64.5330   63.9133 C   0  0  0  0  0  0  0  0  0  0  0  0
    3.7473   65.8643   63.7322 C   0  0  0  0  0  0  0  0  0  0  0  0
    4.7042   66.7369   62.9370 C   0  0  0  0  0  0  0  0  0  0  0  0
    5.1648   67.9328   63.7510 C   0  0  0  0  0  0  0  0  0  0  0  0
    4.5246   68.3775   64.8490 C   0  0  0  0  0  0  0  0  0  0  0  0
    5.0148   69.5404   65.6585 C   0  0  0  0  0  0  0  0  0  0  0  0
    3.2428   67.7142   65.3280 C   0  0  0  0  0  0  0  0  0  0  0  0
    2.5934   66.7453   64.2809 C   0  0  0  0  0  0  0  0  0  0  0  0
    1.5934   65.8969   64.9454 N   0  0  0  0  0  0  0  0  0  0  0  0
    1.9368   67.5616   63.1260 C   0  0  0  0  0  0  0  0  0  0  0  0
    0.6329   68.2336   63.2641 C   0  0  0  0  0  0  0  0  0  0  0  0
   -0.2015   68.3341   64.7825 Cl  0  0  0  0  0  0  0  0  0  0  0  0
    0.0491   68.8599   62.2309 C   0  0  0  0  0  0  0  0  0  0  0  0
    0.7301   68.9198   60.9287 C   0  0  0  0  0  0  0  0  0  0  0  0
    0.2150   69.4670   59.9617 O   0  0  0  0  0  0  0  0  0  0  0  0
    1.9722   68.3529   60.8836 N   0  0  0  0  0  0  0  0  0  0  0  0
    2.5735   67.6947   61.9336 C   0  0  0  0  0  0  0  0  0  0  0  0
    3.9683   67.1723   61.6603 C   0  0  0  0  0  0  0  0  0  0  0  0
    0.8373   66.4800   65.3042 H   0  0  0  0  0  0  0  0  0  0  0  0
    2.0320   65.3955   65.7177 H   0  0  0  0  0  0  0  0  0  0  0  0
    2.4741   68.4197   60.0392 H   0  0  0  0  0  0  0  0  0  0  0  0
  1  2  1  0
  2  3  2  0
  3  4  1  0
  4  5  1  0
  5  6  2  0
  6  7  1  0
  6  8  1  0
  8  9  1  0
  9 10  1  0
  9 11  1  0
 11 12  1  0
 12 13  1  0
 12 14  2  0
 14 15  1  0
 15 16  2  0
 15 17  1  0
 17 18  1  0
 18 19  1  0
  9  3  1  0
 18 11  2  0
  4 19  1  0
 10 20  1  0
 10 21  1  0
 17 22  1  0
M  END
> <minimizedAffinity>
-10.94964

> <CNNscore>
0.9367238283

> <CNNaffinity>
7.2232894897

> <CNN_VS>
6.7662272453

> <CNNaffinity_variance>
0.2453004271

$$$$



 22 24  0  0  0  0  0  0  0  0999 V2000
    2.8054   68.1337   59.5326 C   0  0  0  0  0  0  0  0  0  0  0  0
    2.4394   68.1432   60.9844 C   0  0  0  0  0  0  0  0  0  0  0  0
    3.1849   67.7288   62.0347 C   0  0  0  0  0  0  0  0  0  0  0  0
    4.5731   67.1236   61.9089 C   0  0  0  0  0  0  0  0  0  0  0  0
    4.6591   65.7887   62.6271 C   0  0  0  0  0  0  0  0  0  0  0  0
    3.7795   65.3897   63.5653 C   0  0  0  0  0  0  0  0  0  0  0  0
    3.8629   64.0529   64.2390 C   0  0  0  0  0  0  0  0  0  0  0  0
    2.6395   66.2960   64.0027 C   0  0  0  0  0  0  0  0  0  0  0  0
    2.7891   67.7843   63.5344 C   0  0  0  0  0  0  0  0  0  0  0  0
    1.5034   68.4817   63.6834 N   0  0  0  0  0  0  0  0  0  0  0  0
    3.8986   68.5011   64.3628 C   0  0  0  0  0  0  0  0  0  0  0  0
    3.6804   68.9894   65.7358 C   0  0  0  0  0  0  0  0  0  0  0  0
    2.2287   68.6445   66.6220 Cl  0  0  0  0  0  0  0  0  0  0  0  0
    4.6233   69.6769   66.3983 C   0  0  0  0  0  0  0  0  0  0  0  0
    5.9283   69.9274   65.7681 C   0  0  0  0  0  0  0  0  0  0  0  0
    6.8022   70.5680   66.3390 O   0  0  0  0  0  0  0  0  0  0  0  0
    6.1027   69.3789   64.5292 N   0  0  0  0  0  0  0  0  0  0  0  0
    5.1365   68.6850   63.8347 C   0  0  0  0  0  0  0  0  0  0  0  0
    5.5673   68.1419   62.4884 C   0  0  0  0  0  0  0  0  0  0  0  0
    1.2475   68.5157   64.6702 H   0  0  0  0  0  0  0  0  0  0  0  0
    0.7830   67.9817   63.1623 H   0  0  0  0  0  0  0  0  0  0  0  0
    6.9828   69.4875   64.1016 H   0  0  0  0  0  0  0  0  0  0  0  0
  1  2  1  0
  2  3  2  0
  3  4  1  0
  4  5  1  0
  5  6  2  0
  6  7  1  0
  6  8  1  0
  8  9  1  0
  9 10  1  0
  9 11  1  0
 11 12  1  0
 12 13  1  0
 12 14  2  0
 14 15  1  0
 15 16  2  0
 15 17  1  0
 17 18  1  0
 18 19  1  0
  9  3  1  0
 18 11  2  0
  4 19  1  0
 10 20  1  0
 10 21  1  0
 17 22  1  0
M  END
> <minimizedAffinity>
-9.19380

> <CNNscore>
0.6789534092

> <CNNaffinity>
6.7648868561

> <CNN_VS>
4.5930428505

> <CNNaffinity_variance>
0.1258805692

$$$$



 22 24  0  0  0  0  0  0  0  0999 V2000
    3.4159   63.2451   64.5759 C   0  0  0  0  0  0  0  0  0  0  0  0
    3.9253   64.3780   63.7399 C   0  0  0  0  0  0  0  0  0  0  0  0
    3.6040   65.6893   63.8281 C   0  0  0  0  0  0  0  0  0  0  0  0
    2.5979   66.2560   64.8161 C   0  0  0  0  0  0  0  0  0  0  0  0
    1.5440   67.0911   64.1111 C   0  0  0  0  0  0  0  0  0  0  0  0
    1.6966   67.5895   62.8695 C   0  0  0  0  0  0  0  0  0  0  0  0
    0.6297   68.3840   62.1778 C   0  0  0  0  0  0  0  0  0  0  0  0
    2.9869   67.3737   62.0945 C   0  0  0  0  0  0  0  0  0  0  0  0
    4.1774   66.8464   62.9672 C   0  0  0  0  0  0  0  0  0  0  0  0
    5.2430   66.3344   62.0933 N   0  0  0  0  0  0  0  0  0  0  0  0
    4.7213   67.9860   63.8819 C   0  0  0  0  0  0  0  0  0  0  0  0
    5.6029   69.0568   63.3849 C   0  0  0  0  0  0  0  0  0  0  0  0
    5.9635   69.2522   61.6986 Cl  0  0  0  0  0  0  0  0  0  0  0  0
    6.1257   69.9790   64.2076 C   0  0  0  0  0  0  0  0  0  0  0  0
    5.7920   69.9589   65.6398 C   0  0  0  0  0  0  0  0  0  0  0  0
    6.2680   70.7747   66.4193 O   0  0  0  0  0  0  0  0  0  0  0  0
    4.9045   68.9954   66.0275 N   0  0  0  0  0  0  0  0  0  0  0  0
    4.3743   68.0353   65.1942 C   0  0  0  0  0  0  0  0  0  0  0  0
    3.3855   67.0877   65.8404 C   0  0  0  0  0  0  0  0  0  0  0  0
    5.6166   67.0980   61.5296 H   0  0  0  0  0  0  0  0  0  0  0  0
    4.8627   65.6136   61.4799 H   0  0  0  0  0  0  0  0  0  0  0  0
    4.6235   68.9866   66.9710 H   0  0  0  0  0  0  0  0  0  0  0  0
  1  2  1  0
  2  3  2  0
  3  4  1  0
  4  5  1  0
  5  6  2  0
  6  7  1  0
  6  8  1  0
  8  9  1  0
  9 10  1  0
  9 11  1  0
 11 12  1  0
 12 13  1  0
 12 14  2  0
 14 15  1  0
 15 16  2  0
 15 17  1  0
 17 18  1  0
 18 19  1  0
  9  3  1  0
 18 11  2  0
  4 19  1  0
 10 20  1  0
 10 21  1  0
 17 22  1  0
M  END
> <minimizedAffinity>
-8.25621

> <CNNscore>
0.5261492133

> <CNNaffinity>
6.6320533752

> <CNN_VS>
3.4894497395

> <CNNaffinity_variance>
0.0405853838

$$$$



 22 24  0  0  0  0  0  0  0  0999 V2000
    1.5290   69.3555   67.7448 C   0  0  0  0  0  0  0  0  0  0  0  0
    2.6097   69.1603   66.7269 C   0  0  0  0  0  0  0  0  0  0  0  0
    2.6552   68.2548   65.7228 C   0  0  0  0  0  0  0  0  0  0  0  0
    1.5811   67.2107   65.4668 C   0  0  0  0  0  0  0  0  0  0  0  0
    2.1765   65.8164   65.3853 C   0  0  0  0  0  0  0  0  0  0  0  0
    3.4836   65.5763   65.1682 C   0  0  0  0  0  0  0  0  0  0  0  0
    4.0575   64.1919   65.1246 C   0  0  0  0  0  0  0  0  0  0  0  0
    4.4610   66.7195   64.9445 C   0  0  0  0  0  0  0  0  0  0  0  0
    3.7765   68.1007   64.6607 C   0  0  0  0  0  0  0  0  0  0  0  0
    4.7603   69.1820   64.8166 N   0  0  0  0  0  0  0  0  0  0  0  0
    3.1700   68.1168   63.2243 C   0  0  0  0  0  0  0  0  0  0  0  0
    3.9879   68.3105   62.0142 C   0  0  0  0  0  0  0  0  0  0  0  0
    5.7222   68.3511   62.0648 Cl  0  0  0  0  0  0  0  0  0  0  0  0
    3.4339   68.4039   60.7957 C   0  0  0  0  0  0  0  0  0  0  0  0
    1.9771   68.2749   60.6396 C   0  0  0  0  0  0  0  0  0  0  0  0
    1.4396   68.3748   59.5437 O   0  0  0  0  0  0  0  0  0  0  0  0
    1.2799   68.0125   61.7847 N   0  0  0  0  0  0  0  0  0  0  0  0
    1.8371   67.9299   63.0417 C   0  0  0  0  0  0  0  0  0  0  0  0
    0.8715   67.5991   64.1604 C   0  0  0  0  0  0  0  0  0  0  0  0
    5.4949   69.0767   64.1168 H   0  0  0  0  0  0  0  0  0  0  0  0
    5.1703   69.1368   65.7494 H   0  0  0  0  0  0  0  0  0  0  0  0
    0.3086   67.8722   61.7058 H   0  0  0  0  0  0  0  0  0  0  0  0
  1  2  1  0
  2  3  2  0
  3  4  1  0
  4  5  1  0
  5  6  2  0
  6  7  1  0
  6  8  1  0
  8  9  1  0
  9 10  1  0
  9 11  1  0
 11 12  1  0
 12 13  1  0
 12 14  2  0
 14 15  1  0
 15 16  2  0
 15 17  1  0
 17 18  1  0
 18 19  1  0
  9  3  1  0
 18 11  2  0
  4 19  1  0
 10 20  1  0
 10 21  1  0
 17 22  1  0
M  END
> <minimizedAffinity>
-9.99893

> <CNNscore>
0.4433203042

> <CNNaffinity>
6.7400298119

> <CNN_VS>
2.9879920483

> <CNNaffinity_variance>
0.1545233876

$$$$



 22 24  0  0  0  0  0  0  0  0999 V2000
   -1.7245   58.8633   73.8246 C   0  0  0  0  0  0  0  0  0  0  0  0
   -1.1675   59.9929   73.0150 C   0  0  0  0  0  0  0  0  0  0  0  0
   -0.0297   60.6920   73.2317 C   0  0  0  0  0  0  0  0  0  0  0  0
    0.9026   60.4597   74.4091 C   0  0  0  0  0  0  0  0  0  0  0  0
    1.1715   61.7505   75.1618 C   0  0  0  0  0  0  0  0  0  0  0  0
    0.9535   62.9741   74.6437 C   0  0  0  0  0  0  0  0  0  0  0  0
    1.1940   64.2365   75.4159 C   0  0  0  0  0  0  0  0  0  0  0  0
    0.4496   63.1403   73.2186 C   0  0  0  0  0  0  0  0  0  0  0  0
    0.5390   61.8372   72.3520 C   0  0  0  0  0  0  0  0  0  0  0  0
   -0.2831   61.9898   71.1427 N   0  0  0  0  0  0  0  0  0  0  0  0
    2.0222   61.5441   71.9709 C   0  0  0  0  0  0  0  0  0  0  0  0
    2.7291   62.2665   70.8987 C   0  0  0  0  0  0  0  0  0  0  0  0
    2.0344   63.6358   70.0900 Cl  0  0  0  0  0  0  0  0  0  0  0  0
    3.9782   61.9401   70.5328 C   0  0  0  0  0  0  0  0  0  0  0  0
    4.6901   60.8605   71.2333 C   0  0  0  0  0  0  0  0  0  0  0  0
    5.8232   60.5263   70.9101 O   0  0  0  0  0  0  0  0  0  0  0  0
    4.0166   60.2842   72.2727 N   0  0  0  0  0  0  0  0  0  0  0  0
    2.7294   60.6014   72.6464 C   0  0  0  0  0  0  0  0  0  0  0  0
    2.1983   59.8514   73.8500 C   0  0  0  0  0  0  0  0  0  0  0  0
    0.0943   62.7431   70.5679 H   0  0  0  0  0  0  0  0  0  0  0  0
   -1.2419   62.2131   71.4093 H   0  0  0  0  0  0  0  0  0  0  0  0
    4.4854   59.5919   72.7925 H   0  0  0  0  0  0  0  0  0  0  0  0
  1  2  1  0
  2  3  2  0
  3  4  1  0
  4  5  1  0
  5  6  2  0
  6  7  1  0
  6  8  1  0
  8  9  1  0
  9 10  1  0
  9 11  1  0
 11 12  1  0
 12 13  1  0
 12 14  2  0
 14 15  1  0
 15 16  2  0
 15 17  1  0
 17 18  1  0
 18 19  1  0
  9  3  1  0
 18 11  2  0
  4 19  1  0
 10 20  1  0
 10 21  1  0
 17 22  1  0
M  END
> <minimizedAffinity>
-7.06942

> <CNNscore>
0.4207827151

> <CNNaffinity>
5.7255597115

> <CNN_VS>
2.4092166424

> <CNNaffinity_variance>
0.2951085269

$$$$



 22 24  0  0  0  0  0  0  0  0999 V2000
    0.2677   69.1104   62.8398 C   0  0  0  0  0  0  0  0  0  0  0  0
    1.4097   68.1520   62.7018 C   0  0  0  0  0  0  0  0  0  0  0  0
    2.3553   67.8443   63.6192 C   0  0  0  0  0  0  0  0  0  0  0  0
    2.4414   68.4748   64.9993 C   0  0  0  0  0  0  0  0  0  0  0  0
    3.8247   69.0439   65.2594 C   0  0  0  0  0  0  0  0  0  0  0  0
    4.9181   68.6951   64.5551 C   0  0  0  0  0  0  0  0  0  0  0  0
    6.2695   69.2940   64.8060 C   0  0  0  0  0  0  0  0  0  0  0  0
    4.8369   67.6501   63.4534 C   0  0  0  0  0  0  0  0  0  0  0  0
    3.5084   66.8183   63.4568 C   0  0  0  0  0  0  0  0  0  0  0  0
    3.3655   66.1087   62.1772 N   0  0  0  0  0  0  0  0  0  0  0  0
    3.5080   65.8082   64.6446 C   0  0  0  0  0  0  0  0  0  0  0  0
    4.2619   64.5426   64.6170 C   0  0  0  0  0  0  0  0  0  0  0  0
    5.3668   64.1500   63.3375 Cl  0  0  0  0  0  0  0  0  0  0  0  0
    4.1801   63.6507   65.6161 C   0  0  0  0  0  0  0  0  0  0  0  0
    3.3504   63.9426   66.7949 C   0  0  0  0  0  0  0  0  0  0  0  0
    3.2399   63.1409   67.7141 O   0  0  0  0  0  0  0  0  0  0  0  0
    2.7426   65.1660   66.8028 N   0  0  0  0  0  0  0  0  0  0  0  0
    2.8079   66.0818   65.7760 C   0  0  0  0  0  0  0  0  0  0  0  0
    2.0775   67.3856   66.0203 C   0  0  0  0  0  0  0  0  0  0  0  0
    4.1251   65.4358   62.0748 H   0  0  0  0  0  0  0  0  0  0  0  0
    3.4005   66.7803   61.4102 H   0  0  0  0  0  0  0  0  0  0  0  0
    2.2198   65.4109   67.6003 H   0  0  0  0  0  0  0  0  0  0  0  0
  1  2  1  0
  2  3  2  0
  3  4  1  0
  4  5  1  0
  5  6  2  0
  6  7  1  0
  6  8  1  0
  8  9  1  0
  9 10  1  0
  9 11  1  0
 11 12  1  0
 12 13  1  0
 12 14  2  0
 14 15  1  0
 15 16  2  0
 15 17  1  0
 17 18  1  0
 18 19  1  0
  9  3  1  0
 18 11  2  0
  4 19  1  0
 10 20  1  0
 10 21  1  0
 17 22  1  0
M  END
> <minimizedAffinity>
-6.73237

> <CNNscore>
0.3657199740

> <CNNaffinity>
6.4495158195

> <CNN_VS>
2.3587167263

> <CNNaffinity_variance>
0.1925023645

$$$$



 22 24  0  0  0  0  0  0  0  0999 V2000
    1.6124   66.7839   68.3647 C   0  0  0  0  0  0  0  0  0  0  0  0
    2.5524   67.2873   67.3135 C   0  0  0  0  0  0  0  0  0  0  0  0
    2.6952   66.8462   66.0425 C   0  0  0  0  0  0  0  0  0  0  0  0
    1.9113   65.6875   65.4491 C   0  0  0  0  0  0  0  0  0  0  0  0
    2.8375   64.6544   64.8325 C   0  0  0  0  0  0  0  0  0  0  0  0
    4.1177   64.9063   64.4994 C   0  0  0  0  0  0  0  0  0  0  0  0
    5.0260   63.8623   63.9224 C   0  0  0  0  0  0  0  0  0  0  0  0
    4.7157   66.2915   64.6885 C   0  0  0  0  0  0  0  0  0  0  0  0
    3.6569   67.4137   64.9646 C   0  0  0  0  0  0  0  0  0  0  0  0
    4.3307   68.6135   65.4821 N   0  0  0  0  0  0  0  0  0  0  0  0
    2.8728   67.7479   63.6589 C   0  0  0  0  0  0  0  0  0  0  0  0
    3.4321   68.5857   62.5837 C   0  0  0  0  0  0  0  0  0  0  0  0
    5.0830   69.1210   62.5900 Cl  0  0  0  0  0  0  0  0  0  0  0  0
    2.7080   68.9283   61.5072 C   0  0  0  0  0  0  0  0  0  0  0  0
    1.3306   68.4338   61.3611 C   0  0  0  0  0  0  0  0  0  0  0  0
    0.6378   68.7443   60.4001 O   0  0  0  0  0  0  0  0  0  0  0  0
    0.8955   67.5937   62.3465 N   0  0  0  0  0  0  0  0  0  0  0  0
    1.6251   67.2482   63.4625 C   0  0  0  0  0  0  0  0  0  0  0  0
    0.9484   66.2765   64.4065 C   0  0  0  0  0  0  0  0  0  0  0  0
    4.9614   68.9828   64.7706 H   0  0  0  0  0  0  0  0  0  0  0  0
    4.8646   68.3704   66.3166 H   0  0  0  0  0  0  0  0  0  0  0  0
   -0.0050   67.2070   62.2520 H   0  0  0  0  0  0  0  0  0  0  0  0
  1  2  1  0
  2  3  2  0
  3  4  1  0
  4  5  1  0
  5  6  2  0
  6  7  1  0
  6  8  1  0
  8  9  1  0
  9 10  1  0
  9 11  1  0
 11 12  1  0
 12 13  1  0
 12 14  2  0
 14 15  1  0
 15 16  2  0
 15 17  1  0
 17 18  1  0
 18 19  1  0
  9  3  1  0
 18 11  2  0
  4 19  1  0
 10 20  1  0
 10 21  1  0
 17 22  1  0
M  END
> <minimizedAffinity>
-4.66604

> <CNNscore>
0.3517311811

> <CNNaffinity>
6.4498963356

> <CNN_VS>
2.2686295509

> <CNNaffinity_variance>
0.3646130562

$$$$



 22 24  0  0  0  0  0  0  0  0999 V2000
   -5.5667   63.6668   56.8669 C   0  0  0  0  0  0  0  0  0  0  0  0
   -4.1696   63.1932   57.1230 C   0  0  0  0  0  0  0  0  0  0  0  0
   -3.6632   61.9522   56.9389 C   0  0  0  0  0  0  0  0  0  0  0  0
   -4.4747   60.7642   56.4493 C   0  0  0  0  0  0  0  0  0  0  0  0
   -4.3339   59.5776   57.3859 C   0  0  0  0  0  0  0  0  0  0  0  0
   -3.3386   59.4516   58.2840 C   0  0  0  0  0  0  0  0  0  0  0  0
   -3.2363   58.2874   59.2233 C   0  0  0  0  0  0  0  0  0  0  0  0
   -2.2426   60.5007   58.3875 C   0  0  0  0  0  0  0  0  0  0  0  0
   -2.1982   61.5011   57.1817 C   0  0  0  0  0  0  0  0  0  0  0  0
   -1.3720   62.6649   57.5343 N   0  0  0  0  0  0  0  0  0  0  0  0
   -1.6309   60.7924   55.9140 C   0  0  0  0  0  0  0  0  0  0  0  0
   -0.1927   60.5408   55.7159 C   0  0  0  0  0  0  0  0  0  0  0  0
    0.9804   60.8418   56.9589 Cl  0  0  0  0  0  0  0  0  0  0  0  0
    0.2799   60.0046   54.5802 C   0  0  0  0  0  0  0  0  0  0  0  0
   -0.6500   59.6172   53.5086 C   0  0  0  0  0  0  0  0  0  0  0  0
   -0.2483   59.1435   52.4531 O   0  0  0  0  0  0  0  0  0  0  0  0
   -1.9763   59.7960   53.7823 N   0  0  0  0  0  0  0  0  0  0  0  0
   -2.4706   60.3593   54.9381 C   0  0  0  0  0  0  0  0  0  0  0  0
   -3.9803   60.4283   55.0337 C   0  0  0  0  0  0  0  0  0  0  0  0
   -0.4104   62.3637   57.6929 H   0  0  0  0  0  0  0  0  0  0  0  0
   -1.7374   63.0966   58.3831 H   0  0  0  0  0  0  0  0  0  0  0  0
   -2.6262   59.5009   53.1042 H   0  0  0  0  0  0  0  0  0  0  0  0
  1  2  1  0
  2  3  2  0
  3  4  1  0
  4  5  1  0
  5  6  2  0
  6  7  1  0
  6  8  1  0
  8  9  1  0
  9 10  1  0
  9 11  1  0
 11 12  1  0
 12 13  1  0
 12 14  2  0
 14 15  1  0
 15 16  2  0
 15 17  1  0
 17 18  1  0
 18 19  1  0
  9  3  1  0
 18 11  2  0
  4 19  1  0
 10 20  1  0
 10 21  1  0
 17 22  1  0
M  END
> <minimizedAffinity>
119.75268

> <CNNscore>
0.2999334633

> <CNNaffinity>
4.8054909706

> <CNN_VS>
1.4413275719

> <CNNaffinity_variance>
1.5280352831

$$$$
