


 23 26  0  0  0  0  0  0  0  0999 V2000
   -4.3536   50.3501  163.2970 C   0  0  0  0  0  0  0  0  0  0  0  0
   -4.5690   50.8036  164.7638 C   0  0  0  0  0  0  0  0  0  0  0  0
   -4.2031   52.2871  164.8938 C   0  0  0  0  0  0  0  0  0  0  0  0
   -2.6861   52.5175  164.7520 C   0  0  0  0  0  0  0  0  0  0  0  0
   -1.8319   51.6199  165.6869 C   0  0  0  0  0  0  0  0  0  0  0  0
   -0.3208   51.7860  165.5390 C   0  0  0  0  0  0  0  0  0  0  0  0
    0.2444   53.0297  165.2035 C   0  0  0  0  0  0  0  0  0  0  0  0
    1.6247   53.1790  165.1149 C   0  0  0  0  0  0  0  0  0  0  0  0
    2.1462   54.3703  164.7864 F   0  0  0  0  0  0  0  0  0  0  0  0
    2.4713   52.1106  165.3676 C   0  0  0  0  0  0  0  0  0  0  0  0
    3.8267   52.2475  165.2799 O   0  0  0  0  0  0  0  0  0  0  0  0
    1.9451   50.8782  165.7206 C   0  0  0  0  0  0  0  0  0  0  0  0
    0.5512   50.7072  165.8245 C   0  0  0  0  0  0  0  0  0  0  0  0
    0.0410   49.3334  166.1917 C   0  0  0  0  0  0  0  0  0  0  0  0
   -1.4363   49.3001  166.5720 C   0  0  0  0  0  0  0  0  0  0  0  0
   -2.2498   50.1228  165.5709 C   0  0  0  0  0  0  0  0  0  0  0  0
   -3.7559   50.0153  165.8100 C   0  0  0  0  0  0  0  0  0  0  0  0
   -4.4165   48.6395  165.8105 C   0  0  0  0  0  0  0  0  0  0  0  0
   -5.9062   48.9409  165.5634 C   0  0  0  0  0  0  0  0  0  0  0  0
   -5.9923   50.4435  165.2316 C   0  0  0  0  0  0  0  0  0  0  0  0
   -6.9788   50.7107  164.2544 O   0  0  0  0  0  0  0  0  0  0  0  0
    4.1997   53.0737  165.0425 H   0  0  0  0  0  0  0  0  0  0  0  0
   -6.7811   50.2071  163.4493 H   0  0  0  0  0  0  0  0  0  0  0  0
  2  1  1  0
  2  3  1  0
  3  4  1  0
  5  4  1  0
  5  6  1  0
  6  7  2  0
  7  8  1  0
  8  9  1  0
  8 10  2  0
 10 11  1  0
 10 12  1  0
 12 13  2  0
 13 14  1  0
 14 15  1  0
 16 15  1  0
 16 17  1  0
 17 18  1  0
 18 19  1  0
 19 20  1  0
 20 21  1  0
 17  2  1  0
 20  2  1  0
 16  5  1  0
 13  6  1  0
 11 22  1  0
 21 23  1  0
M  END
> <minimizedAffinity>
-11.04774

> <CNNscore>
0.9775225520

> <CNNaffinity>
7.8711490631

> <CNN_VS>
7.6942257881

> <CNNaffinity_variance>
0.4950555861

$$$$



 23 26  0  0  0  0  0  0  0  0999 V2000
   -3.8573   51.8634  162.3899 C   0  0  0  0  0  0  0  0  0  0  0  0
   -4.1940   51.9448  163.9010 C   0  0  0  0  0  0  0  0  0  0  0  0
   -3.5684   53.2144  164.4913 C   0  0  0  0  0  0  0  0  0  0  0  0
   -2.0317   53.1199  164.5540 C   0  0  0  0  0  0  0  0  0  0  0  0
   -1.5171   51.8339  165.2544 C   0  0  0  0  0  0  0  0  0  0  0  0
    0.0023   51.6820  165.2919 C   0  0  0  0  0  0  0  0  0  0  0  0
    0.8430   52.8061  165.3857 C   0  0  0  0  0  0  0  0  0  0  0  0
    2.2235   52.6528  165.4635 C   0  0  0  0  0  0  0  0  0  0  0  0
    3.0106   53.7358  165.5449 F   0  0  0  0  0  0  0  0  0  0  0  0
    2.7981   51.3910  165.4636 C   0  0  0  0  0  0  0  0  0  0  0  0
    4.1520   51.2317  165.5366 O   0  0  0  0  0  0  0  0  0  0  0  0
    1.9949   50.2641  165.3932 C   0  0  0  0  0  0  0  0  0  0  0  0
    0.5947   50.3961  165.3223 C   0  0  0  0  0  0  0  0  0  0  0  0
   -0.2228   49.1293  165.2253 C   0  0  0  0  0  0  0  0  0  0  0  0
   -1.7177   49.3353  165.4508 C   0  0  0  0  0  0  0  0  0  0  0  0
   -2.1978   50.5597  164.6690 C   0  0  0  0  0  0  0  0  0  0  0  0
   -3.7143   50.7407  164.7358 C   0  0  0  0  0  0  0  0  0  0  0  0
   -4.6239   49.6047  164.2762 C   0  0  0  0  0  0  0  0  0  0  0  0
   -5.9727   50.2946  164.0013 C   0  0  0  0  0  0  0  0  0  0  0  0
   -5.7134   51.8093  164.1187 C   0  0  0  0  0  0  0  0  0  0  0  0
   -6.4734   52.5472  163.1819 O   0  0  0  0  0  0  0  0  0  0  0  0
    4.7102   51.9827  165.5848 H   0  0  0  0  0  0  0  0  0  0  0  0
   -6.2612   52.2459  162.2845 H   0  0  0  0  0  0  0  0  0  0  0  0
  2  1  1  0
  2  3  1  0
  3  4  1  0
  5  4  1  0
  5  6  1  0
  6  7  2  0
  7  8  1  0
  8  9  1  0
  8 10  2  0
 10 11  1  0
 10 12  1  0
 12 13  2  0
 13 14  1  0
 14 15  1  0
 16 15  1  0
 16 17  1  0
 17 18  1  0
 18 19  1  0
 19 20  1  0
 20 21  1  0
 17  2  1  0
 20  2  1  0
 16  5  1  0
 13  6  1  0
 11 22  1  0
 21 23  1  0
M  END
> <minimizedAffinity>
-10.28967

> <CNNscore>
0.9606146216

> <CNNaffinity>
7.8379721642

> <CNN_VS>
7.5292706490

> <CNNaffinity_variance>
0.7689734101

$$$$



 23 26  0  0  0  0  0  0  0  0999 V2000
   -5.0920   50.7305  165.9750 C   0  0  0  0  0  0  0  0  0  0  0  0
   -4.8153   50.5806  164.4570 C   0  0  0  0  0  0  0  0  0  0  0  0
   -4.0087   49.2992  164.2137 C   0  0  0  0  0  0  0  0  0  0  0  0
   -2.5684   49.4189  164.7477 C   0  0  0  0  0  0  0  0  0  0  0  0
   -1.8230   50.6841  164.2446 C   0  0  0  0  0  0  0  0  0  0  0  0
   -0.4084   50.8618  164.7925 C   0  0  0  0  0  0  0  0  0  0  0  0
    0.4035   49.7503  165.0831 C   0  0  0  0  0  0  0  0  0  0  0  0
    1.7058   49.9253  165.5400 C   0  0  0  0  0  0  0  0  0  0  0  0
    2.4634   48.8543  165.8194 F   0  0  0  0  0  0  0  0  0  0  0  0
    2.2344   51.1962  165.7059 C   0  0  0  0  0  0  0  0  0  0  0  0
    3.5103   51.3770  166.1566 O   0  0  0  0  0  0  0  0  0  0  0  0
    1.4661   52.3104  165.4082 C   0  0  0  0  0  0  0  0  0  0  0  0
    0.1484   52.1560  164.9363 C   0  0  0  0  0  0  0  0  0  0  0  0
   -0.6435   53.4107  164.6513 C   0  0  0  0  0  0  0  0  0  0  0  0
   -1.9333   53.1683  163.8730 C   0  0  0  0  0  0  0  0  0  0  0  0
   -2.6785   51.9688  164.4618 C   0  0  0  0  0  0  0  0  0  0  0  0
   -4.0499   51.7577  163.8202 C   0  0  0  0  0  0  0  0  0  0  0  0
   -5.0674   52.8950  163.8391 C   0  0  0  0  0  0  0  0  0  0  0  0
   -6.4166   52.1926  163.6001 C   0  0  0  0  0  0  0  0  0  0  0  0
   -6.1311   50.6793  163.6610 C   0  0  0  0  0  0  0  0  0  0  0  0
   -7.1947   49.9672  164.2620 O   0  0  0  0  0  0  0  0  0  0  0  0
    4.0439   50.6349  166.3627 H   0  0  0  0  0  0  0  0  0  0  0  0
   -7.3479   50.3091  165.1567 H   0  0  0  0  0  0  0  0  0  0  0  0
  2  1  1  0
  2  3  1  0
  3  4  1  0
  5  4  1  0
  5  6  1  0
  6  7  2  0
  7  8  1  0
  8  9  1  0
  8 10  2  0
 10 11  1  0
 10 12  1  0
 12 13  2  0
 13 14  1  0
 14 15  1  0
 16 15  1  0
 16 17  1  0
 17 18  1  0
 18 19  1  0
 19 20  1  0
 20 21  1  0
 17  2  1  0
 20  2  1  0
 16  5  1  0
 13  6  1  0
 11 22  1  0
 21 23  1  0
M  END
> <minimizedAffinity>
-9.43717

> <CNNscore>
0.6929725409

> <CNNaffinity>
7.2295794487

> <CNN_VS>
5.0099000931

> <CNNaffinity_variance>
0.4196176231

$$$$



 23 26  0  0  0  0  0  0  0  0999 V2000
    1.3139   50.0119  164.0539 C   0  0  0  0  0  0  0  0  0  0  0  0
    1.1219   50.7434  165.4073 C   0  0  0  0  0  0  0  0  0  0  0  0
    0.3966   49.8129  166.3870 C   0  0  0  0  0  0  0  0  0  0  0  0
   -1.0730   49.5881  165.9821 C   0  0  0  0  0  0  0  0  0  0  0  0
   -1.8574   50.9047  165.7358 C   0  0  0  0  0  0  0  0  0  0  0  0
   -3.3050   50.7201  165.2850 C   0  0  0  0  0  0  0  0  0  0  0  0
   -4.0712   49.6274  165.7300 C   0  0  0  0  0  0  0  0  0  0  0  0
   -5.4021   49.4938  165.3476 C   0  0  0  0  0  0  0  0  0  0  0  0
   -6.1157   48.4417  165.7752 F   0  0  0  0  0  0  0  0  0  0  0  0
   -6.0041   50.4397  164.5322 C   0  0  0  0  0  0  0  0  0  0  0  0
   -7.3087   50.3147  164.1498 O   0  0  0  0  0  0  0  0  0  0  0  0
   -5.2812   51.5379  164.0946 C   0  0  0  0  0  0  0  0  0  0  0  0
   -3.9352   51.6973  164.4765 C   0  0  0  0  0  0  0  0  0  0  0  0
   -3.1968   52.9045  163.9477 C   0  0  0  0  0  0  0  0  0  0  0  0
   -1.8587   53.1643  164.6333 C   0  0  0  0  0  0  0  0  0  0  0  0
   -1.0822   51.8533  164.7721 C   0  0  0  0  0  0  0  0  0  0  0  0
    0.3288   52.0628  165.3219 C   0  0  0  0  0  0  0  0  0  0  0  0
    1.2831   53.0046  164.5930 C   0  0  0  0  0  0  0  0  0  0  0  0
    2.6775   52.5808  165.0901 C   0  0  0  0  0  0  0  0  0  0  0  0
    2.4689   51.2947  165.9133 C   0  0  0  0  0  0  0  0  0  0  0  0
    3.5368   50.3833  165.7448 O   0  0  0  0  0  0  0  0  0  0  0  0
   -7.8124   49.5785  164.4364 H   0  0  0  0  0  0  0  0  0  0  0  0
    3.6269   50.1610  164.8049 H   0  0  0  0  0  0  0  0  0  0  0  0
  2  1  1  0
  2  3  1  0
  3  4  1  0
  5  4  1  0
  5  6  1  0
  6  7  2  0
  7  8  1  0
  8  9  1  0
  8 10  2  0
 10 11  1  0
 10 12  1  0
 12 13  2  0
 13 14  1  0
 14 15  1  0
 16 15  1  0
 16 17  1  0
 17 18  1  0
 18 19  1  0
 19 20  1  0
 20 21  1  0
 17  2  1  0
 20  2  1  0
 16  5  1  0
 13  6  1  0
 11 22  1  0
 21 23  1  0
M  END
> <minimizedAffinity>
-9.33944

> <CNNscore>
0.6910093427

> <CNNaffinity>
7.2814788818

> <CNN_VS>
5.0315699577

> <CNNaffinity_variance>
0.3325730860

$$$$



 23 26  0  0  0  0  0  0  0  0999 V2000
   -5.4971   53.5584  156.7568 C   0  0  0  0  0  0  0  0  0  0  0  0
   -4.7321   54.9022  156.6445 C   0  0  0  0  0  0  0  0  0  0  0  0
   -4.2450   55.3251  158.0357 C   0  0  0  0  0  0  0  0  0  0  0  0
   -5.4132   55.7462  158.9481 C   0  0  0  0  0  0  0  0  0  0  0  0
   -6.3493   56.8063  158.3084 C   0  0  0  0  0  0  0  0  0  0  0  0
   -7.5470   57.2122  159.1650 C   0  0  0  0  0  0  0  0  0  0  0  0
   -7.4597   57.2427  160.5687 C   0  0  0  0  0  0  0  0  0  0  0  0
   -8.5437   57.6563  161.3363 C   0  0  0  0  0  0  0  0  0  0  0  0
   -8.4454   57.6720  162.6739 F   0  0  0  0  0  0  0  0  0  0  0  0
   -9.7262   58.0588  160.7350 C   0  0  0  0  0  0  0  0  0  0  0  0
  -10.7957   58.4633  161.4808 O   0  0  0  0  0  0  0  0  0  0  0  0
   -9.8356   58.0594  159.3535 C   0  0  0  0  0  0  0  0  0  0  0  0
   -8.7479   57.6527  158.5572 C   0  0  0  0  0  0  0  0  0  0  0  0
   -8.9392   57.6554  157.0585 C   0  0  0  0  0  0  0  0  0  0  0  0
   -7.6453   57.4932  156.2664 C   0  0  0  0  0  0  0  0  0  0  0  0
   -6.7970   56.3768  156.8785 C   0  0  0  0  0  0  0  0  0  0  0  0
   -5.5515   56.0645  156.0490 C   0  0  0  0  0  0  0  0  0  0  0  0
   -5.7087   55.6736  154.5822 C   0  0  0  0  0  0  0  0  0  0  0  0
   -4.3859   54.9627  154.2417 C   0  0  0  0  0  0  0  0  0  0  0  0
   -3.6282   54.8016  155.5741 C   0  0  0  0  0  0  0  0  0  0  0  0
   -2.9151   53.5818  155.6293 O   0  0  0  0  0  0  0  0  0  0  0  0
  -10.7393   58.4692  162.4160 H   0  0  0  0  0  0  0  0  0  0  0  0
   -3.5306   52.8417  155.5096 H   0  0  0  0  0  0  0  0  0  0  0  0
  2  1  1  0
  2  3  1  0
  3  4  1  0
  5  4  1  0
  5  6  1  0
  6  7  2  0
  7  8  1  0
  8  9  1  0
  8 10  2  0
 10 11  1  0
 10 12  1  0
 12 13  2  0
 13 14  1  0
 14 15  1  0
 16 15  1  0
 16 17  1  0
 17 18  1  0
 18 19  1  0
 19 20  1  0
 20 21  1  0
 17  2  1  0
 20  2  1  0
 16  5  1  0
 13  6  1  0
 11 22  1  0
 21 23  1  0
M  END
> <minimizedAffinity>
16.11829

> <CNNscore>
0.6563397050

> <CNNaffinity>
4.9437637329

> <CNN_VS>
3.2447884083

> <CNNaffinity_variance>
0.3968325555

$$$$



 23 26  0  0  0  0  0  0  0  0999 V2000
   -2.7215   49.2702  167.1565 C   0  0  0  0  0  0  0  0  0  0  0  0
   -2.6834   49.2647  165.6066 C   0  0  0  0  0  0  0  0  0  0  0  0
   -1.4487   48.4881  165.1334 C   0  0  0  0  0  0  0  0  0  0  0  0
   -0.1428   49.2462  165.4405 C   0  0  0  0  0  0  0  0  0  0  0  0
   -0.1422   50.7127  164.9319 C   0  0  0  0  0  0  0  0  0  0  0  0
    1.1178   51.5108  165.2615 C   0  0  0  0  0  0  0  0  0  0  0  0
    2.3770   50.8870  165.3268 C   0  0  0  0  0  0  0  0  0  0  0  0
    3.5233   51.6319  165.5845 C   0  0  0  0  0  0  0  0  0  0  0  0
    4.7148   51.0196  165.6507 F   0  0  0  0  0  0  0  0  0  0  0  0
    3.4508   53.0041  165.7690 C   0  0  0  0  0  0  0  0  0  0  0  0
    4.5703   53.7422  166.0252 O   0  0  0  0  0  0  0  0  0  0  0  0
    2.2274   53.6500  165.6900 C   0  0  0  0  0  0  0  0  0  0  0  0
    1.0557   52.9165  165.4218 C   0  0  0  0  0  0  0  0  0  0  0  0
   -0.2487   53.6770  165.3706 C   0  0  0  0  0  0  0  0  0  0  0  0
   -1.4115   52.8783  164.7893 C   0  0  0  0  0  0  0  0  0  0  0  0
   -1.4260   51.4702  165.3875 C   0  0  0  0  0  0  0  0  0  0  0  0
   -2.6499   50.6621  164.9561 C   0  0  0  0  0  0  0  0  0  0  0  0
   -4.0456   51.2153  165.2301 C   0  0  0  0  0  0  0  0  0  0  0  0
   -4.9593   49.9784  165.1507 C   0  0  0  0  0  0  0  0  0  0  0  0
   -4.0241   48.7584  165.0402 C   0  0  0  0  0  0  0  0  0  0  0  0
   -4.5327   47.6407  165.7412 O   0  0  0  0  0  0  0  0  0  0  0  0
    5.4058   53.3218  166.0821 H   0  0  0  0  0  0  0  0  0  0  0  0
   -4.6594   47.8743  166.6741 H   0  0  0  0  0  0  0  0  0  0  0  0
  2  1  1  0
  2  3  1  0
  3  4  1  0
  5  4  1  0
  5  6  1  0
  6  7  2  0
  7  8  1  0
  8  9  1  0
  8 10  2  0
 10 11  1  0
 10 12  1  0
 12 13  2  0
 13 14  1  0
 14 15  1  0
 16 15  1  0
 16 17  1  0
 17 18  1  0
 18 19  1  0
 19 20  1  0
 20 21  1  0
 17  2  1  0
 20  2  1  0
 16  5  1  0
 13  6  1  0
 11 22  1  0
 21 23  1  0
M  END
> <minimizedAffinity>
-8.21555

> <CNNscore>
0.6355247498

> <CNNaffinity>
6.9988136292

> <CNN_VS>
4.4479193687

> <CNNaffinity_variance>
0.2775718570

$$$$



 23 26  0  0  0  0  0  0  0  0999 V2000
   -0.5152   52.0185  165.7526 C   0  0  0  0  0  0  0  0  0  0  0  0
   -0.6339   50.8877  164.6986 C   0  0  0  0  0  0  0  0  0  0  0  0
   -0.7287   51.5080  163.2993 C   0  0  0  0  0  0  0  0  0  0  0  0
   -2.0720   52.2311  163.0831 C   0  0  0  0  0  0  0  0  0  0  0  0
   -3.3091   51.3565  163.4205 C   0  0  0  0  0  0  0  0  0  0  0  0
   -4.6577   52.0565  163.2647 C   0  0  0  0  0  0  0  0  0  0  0  0
   -4.8564   53.0403  162.2789 C   0  0  0  0  0  0  0  0  0  0  0  0
   -6.1016   53.6393  162.1178 C   0  0  0  0  0  0  0  0  0  0  0  0
   -6.2713   54.5809  161.1779 F   0  0  0  0  0  0  0  0  0  0  0  0
   -7.1744   53.2709  162.9151 C   0  0  0  0  0  0  0  0  0  0  0  0
   -8.3989   53.8557  162.7657 O   0  0  0  0  0  0  0  0  0  0  0  0
   -7.0150   52.2900  163.8808 C   0  0  0  0  0  0  0  0  0  0  0  0
   -5.7655   51.6646  164.0551 C   0  0  0  0  0  0  0  0  0  0  0  0
   -5.6524   50.6191  165.1399 C   0  0  0  0  0  0  0  0  0  0  0  0
   -4.3749   49.7876  165.0711 C   0  0  0  0  0  0  0  0  0  0  0  0
   -3.1720   50.7014  164.8282 C   0  0  0  0  0  0  0  0  0  0  0  0
   -1.8423   49.9496  164.8906 C   0  0  0  0  0  0  0  0  0  0  0  0
   -1.4859   49.1640  166.1495 C   0  0  0  0  0  0  0  0  0  0  0  0
    0.0426   48.9979  166.0653 C   0  0  0  0  0  0  0  0  0  0  0  0
    0.5055   49.8662  164.8791 C   0  0  0  0  0  0  0  0  0  0  0  0
    1.7575   50.4741  165.1293 O   0  0  0  0  0  0  0  0  0  0  0  0
   -8.5245   54.5206  162.1176 H   0  0  0  0  0  0  0  0  0  0  0  0
    1.6988   51.0171  165.9309 H   0  0  0  0  0  0  0  0  0  0  0  0
  2  1  1  0
  2  3  1  0
  3  4  1  0
  5  4  1  0
  5  6  1  0
  6  7  2  0
  7  8  1  0
  8  9  1  0
  8 10  2  0
 10 11  1  0
 10 12  1  0
 12 13  2  0
 13 14  1  0
 14 15  1  0
 16 15  1  0
 16 17  1  0
 17 18  1  0
 18 19  1  0
 19 20  1  0
 20 21  1  0
 17  2  1  0
 20  2  1  0
 16  5  1  0
 13  6  1  0
 11 22  1  0
 21 23  1  0
M  END
> <minimizedAffinity>
-8.96147

> <CNNscore>
0.5334348083

> <CNNaffinity>
6.6966671944

> <CNN_VS>
3.5722353458

> <CNNaffinity_variance>
0.2482773215

$$$$



 23 26  0  0  0  0  0  0  0  0999 V2000
    0.1395   53.4289  165.8694 C   0  0  0  0  0  0  0  0  0  0  0  0
    0.5206   52.5051  164.6842 C   0  0  0  0  0  0  0  0  0  0  0  0
   -0.4649   52.7290  163.5307 C   0  0  0  0  0  0  0  0  0  0  0  0
   -1.8689   52.1884  163.8637 C   0  0  0  0  0  0  0  0  0  0  0  0
   -1.8667   50.7157  164.3540 C   0  0  0  0  0  0  0  0  0  0  0  0
   -3.2364   50.1609  164.7402 C   0  0  0  0  0  0  0  0  0  0  0  0
   -4.4042   50.5821  164.0785 C   0  0  0  0  0  0  0  0  0  0  0  0
   -5.6406   50.0371  164.4091 C   0  0  0  0  0  0  0  0  0  0  0  0
   -6.7448   50.4558  163.7732 F   0  0  0  0  0  0  0  0  0  0  0  0
   -5.7463   49.0597  165.3869 C   0  0  0  0  0  0  0  0  0  0  0  0
   -6.9561   48.5217  165.7196 O   0  0  0  0  0  0  0  0  0  0  0  0
   -4.6112   48.6095  166.0418 C   0  0  0  0  0  0  0  0  0  0  0  0
   -3.3485   49.1414  165.7167 C   0  0  0  0  0  0  0  0  0  0  0  0
   -2.1537   48.6238  166.4829 C   0  0  0  0  0  0  0  0  0  0  0  0
   -0.8093   49.0201  165.8798 C   0  0  0  0  0  0  0  0  0  0  0  0
   -0.8277   50.5010  165.4959 C   0  0  0  0  0  0  0  0  0  0  0  0
    0.5357   50.9998  165.0170 C   0  0  0  0  0  0  0  0  0  0  0  0
    1.7495   50.8498  165.9299 C   0  0  0  0  0  0  0  0  0  0  0  0
    2.7600   51.8721  165.3778 C   0  0  0  0  0  0  0  0  0  0  0  0
    2.0046   52.6934  164.3147 C   0  0  0  0  0  0  0  0  0  0  0  0
    2.4058   54.0493  164.3147 O   0  0  0  0  0  0  0  0  0  0  0  0
   -7.7339   48.8144  165.2869 H   0  0  0  0  0  0  0  0  0  0  0  0
    2.2549   54.4312  165.1935 H   0  0  0  0  0  0  0  0  0  0  0  0
  2  1  1  0
  2  3  1  0
  3  4  1  0
  5  4  1  0
  5  6  1  0
  6  7  2  0
  7  8  1  0
  8  9  1  0
  8 10  2  0
 10 11  1  0
 10 12  1  0
 12 13  2  0
 13 14  1  0
 14 15  1  0
 16 15  1  0
 16 17  1  0
 17 18  1  0
 18 19  1  0
 19 20  1  0
 20 21  1  0
 17  2  1  0
 20  2  1  0
 16  5  1  0
 13  6  1  0
 11 22  1  0
 21 23  1  0
M  END
> <minimizedAffinity>
-8.54973

> <CNNscore>
0.4643639624

> <CNNaffinity>
6.8840937614

> <CNN_VS>
3.1967251301

> <CNNaffinity_variance>
0.1697959155

$$$$



 23 26  0  0  0  0  0  0  0  0999 V2000
   -5.2273   52.9576  165.4503 C   0  0  0  0  0  0  0  0  0  0  0  0
   -5.4337   51.8671  164.3678 C   0  0  0  0  0  0  0  0  0  0  0  0
   -5.3044   50.4821  165.0135 C   0  0  0  0  0  0  0  0  0  0  0  0
   -3.8540   50.1811  165.4378 C   0  0  0  0  0  0  0  0  0  0  0  0
   -2.8178   50.3965  164.3023 C   0  0  0  0  0  0  0  0  0  0  0  0
   -1.3631   50.1546  164.7002 C   0  0  0  0  0  0  0  0  0  0  0  0
   -1.0238   49.1836  165.6599 C   0  0  0  0  0  0  0  0  0  0  0  0
    0.3078   48.9418  165.9818 C   0  0  0  0  0  0  0  0  0  0  0  0
    0.6128   48.0174  166.9047 F   0  0  0  0  0  0  0  0  0  0  0  0
    1.3274   49.6421  165.3555 C   0  0  0  0  0  0  0  0  0  0  0  0
    2.6365   49.4132  165.6676 O   0  0  0  0  0  0  0  0  0  0  0  0
    1.0256   50.5902  164.3911 C   0  0  0  0  0  0  0  0  0  0  0  0
   -0.3151   50.8448  164.0437 C   0  0  0  0  0  0  0  0  0  0  0  0
   -0.5776   51.9061  163.0010 C   0  0  0  0  0  0  0  0  0  0  0  0
   -2.0077   51.9150  162.4694 C   0  0  0  0  0  0  0  0  0  0  0  0
   -2.9954   51.7922  163.6314 C   0  0  0  0  0  0  0  0  0  0  0  0
   -4.4496   51.9380  163.1831 C   0  0  0  0  0  0  0  0  0  0  0  0
   -4.8797   53.1991  162.4389 C   0  0  0  0  0  0  0  0  0  0  0  0
   -6.4095   53.2305  162.6112 C   0  0  0  0  0  0  0  0  0  0  0  0
   -6.7535   52.1083  163.6101 C   0  0  0  0  0  0  0  0  0  0  0  0
   -7.8212   52.4724  164.4628 O   0  0  0  0  0  0  0  0  0  0  0  0
    2.8587   48.7757  166.3174 H   0  0  0  0  0  0  0  0  0  0  0  0
   -7.5886   53.2815  164.9447 H   0  0  0  0  0  0  0  0  0  0  0  0
  2  1  1  0
  2  3  1  0
  3  4  1  0
  5  4  1  0
  5  6  1  0
  6  7  2  0
  7  8  1  0
  8  9  1  0
  8 10  2  0
 10 11  1  0
 10 12  1  0
 12 13  2  0
 13 14  1  0
 14 15  1  0
 16 15  1  0
 16 17  1  0
 17 18  1  0
 18 19  1  0
 19 20  1  0
 20 21  1  0
 17  2  1  0
 20  2  1  0
 16  5  1  0
 13  6  1  0
 11 22  1  0
 21 23  1  0
M  END
> <minimizedAffinity>
-8.13661

> <CNNscore>
0.4001545012

> <CNNaffinity>
6.9155955315

> <CNN_VS>
2.7673065662

> <CNNaffinity_variance>
0.2730084360

$$$$
