


 18 18  0  0  0  0  0  0  0  0999 V2000
   71.4791   16.7756   43.4278 C   0  0  0  0  0  0  0  0  0  0  0  0
   73.2713   15.1059   45.7212 C   0  0  0  0  0  0  0  0  0  0  0  0
   73.2764   16.5130   45.2748 C   0  0  0  0  0  0  0  0  0  0  0  0
   74.1402   17.3339   45.9354 O   0  0  0  0  0  0  0  0  0  0  0  0
   74.0318   18.6182   45.4298 N   0  0  0  0  0  0  0  0  0  0  0  0
   73.1261   18.5275   44.4667 C   0  0  0  0  0  0  0  0  0  0  0  0
   72.8559   19.6454   43.7852 O   0  0  0  0  0  0  0  0  0  0  0  0
   72.5732   17.2389   44.3301 C   0  0  0  0  0  0  0  0  0  0  0  0
   73.3091   20.4397   43.9894 H   0  0  0  0  0  0  0  0  0  0  0  0
   70.1429   17.5130   43.6761 C   0  0  0  0  0  0  0  0  0  0  0  0
   70.1009   18.1335   45.0165 N   0  0  0  0  0  0  0  0  0  0  0  0
   70.1300   17.4048   45.7296 H   0  0  0  0  0  0  0  0  0  0  0  0
   69.2401   18.6717   45.1152 H   0  0  0  0  0  0  0  0  0  0  0  0
   68.8743   16.6498   43.3736 C   0  0  0  0  0  0  0  0  0  0  0  0
   67.7380   17.2508   42.5078 N   0  0  0  0  0  0  0  0  0  0  0  0
   68.0240   18.6798   42.0549 C   0  0  0  0  0  0  0  0  0  0  0  0
   66.3886   17.2045   43.2097 C   0  0  0  0  0  0  0  0  0  0  0  0
   67.6256   16.3820   41.2437 C   0  0  0  0  0  0  0  0  0  0  0  0
  2  3  1  0
  3  4  1  0
  4  5  1  0
  5  6  2  0
  6  7  1  0
  6  8  1  0
  8  1  1  0
  1 10  1  0
 10 11  1  0
 10 14  1  0
 14 15  1  0
 15 16  1  0
 15 17  1  0
 15 18  1  0
  8  3  2  0
  7  9  1  0
 11 12  1  0
 11 13  1  0
M  CHG 1  15   1
M  END
> <minimizedAffinity>
-4.41933

> <CNNscore>
0.2808311284

> <CNNaffinity>
3.3275830746

> <CNN_VS>
0.9344888926

> <CNNaffinity_variance>
0.6145339012

$$$$



 18 18  0  0  0  0  0  0  0  0999 V2000
   85.5589   36.3692   38.4893 C   0  0  0  0  0  0  0  0  0  0  0  0
   85.9087   39.1077   40.3966 C   0  0  0  0  0  0  0  0  0  0  0  0
   84.7613   38.5355   39.6647 C   0  0  0  0  0  0  0  0  0  0  0  0
   83.5836   39.2058   39.8056 O   0  0  0  0  0  0  0  0  0  0  0  0
   82.5960   38.5572   39.0839 N   0  0  0  0  0  0  0  0  0  0  0  0
   83.2121   37.5324   38.5126 C   0  0  0  0  0  0  0  0  0  0  0  0
   82.4732   36.7500   37.7196 O   0  0  0  0  0  0  0  0  0  0  0  0
   84.5736   37.4266   38.8591 C   0  0  0  0  0  0  0  0  0  0  0  0
   81.5677   36.9462   37.5799 H   0  0  0  0  0  0  0  0  0  0  0  0
   85.5019   35.1407   39.4266 C   0  0  0  0  0  0  0  0  0  0  0  0
   84.1464   34.5547   39.4792 N   0  0  0  0  0  0  0  0  0  0  0  0
   83.5014   35.2267   39.8949 H   0  0  0  0  0  0  0  0  0  0  0  0
   84.1646   33.7061   40.0449 H   0  0  0  0  0  0  0  0  0  0  0  0
   86.1013   35.3970   40.8482 C   0  0  0  0  0  0  0  0  0  0  0  0
   87.6050   35.1170   41.0979 N   0  0  0  0  0  0  0  0  0  0  0  0
   88.4261   36.3892   41.2884 C   0  0  0  0  0  0  0  0  0  0  0  0
   88.2285   34.2746   39.9946 C   0  0  0  0  0  0  0  0  0  0  0  0
   87.7032   34.3074   42.4018 C   0  0  0  0  0  0  0  0  0  0  0  0
  2  3  1  0
  3  4  1  0
  4  5  1  0
  5  6  2  0
  6  7  1  0
  6  8  1  0
  8  1  1  0
  1 10  1  0
 10 11  1  0
 10 14  1  0
 14 15  1  0
 15 16  1  0
 15 17  1  0
 15 18  1  0
  8  3  2  0
  7  9  1  0
 11 12  1  0
 11 13  1  0
M  CHG 1  15   1
M  END
> <minimizedAffinity>
-4.53230

> <CNNscore>
0.2499314994

> <CNNaffinity>
3.5479946136

> <CNN_VS>
0.8867555857

> <CNNaffinity_variance>
0.8107109070

$$$$



 18 18  0  0  0  0  0  0  0  0999 V2000
   77.0599   26.8123   41.1622 C   0  0  0  0  0  0  0  0  0  0  0  0
   79.0952   25.0669   43.1798 C   0  0  0  0  0  0  0  0  0  0  0  0
   77.7883   25.7190   43.3949 C   0  0  0  0  0  0  0  0  0  0  0  0
   77.2539   25.5638   44.6385 O   0  0  0  0  0  0  0  0  0  0  0  0
   76.0301   26.2085   44.6969 N   0  0  0  0  0  0  0  0  0  0  0  0
   75.8757   26.7509   43.4978 C   0  0  0  0  0  0  0  0  0  0  0  0
   74.7666   27.4703   43.2991 O   0  0  0  0  0  0  0  0  0  0  0  0
   76.9251   26.4570   42.6049 C   0  0  0  0  0  0  0  0  0  0  0  0
   74.1495   27.5818   43.9954 H   0  0  0  0  0  0  0  0  0  0  0  0
   77.3701   28.3106   40.9390 C   0  0  0  0  0  0  0  0  0  0  0  0
   76.1535   29.1428   41.0420 N   0  0  0  0  0  0  0  0  0  0  0  0
   75.5093   28.8978   40.2900 H   0  0  0  0  0  0  0  0  0  0  0  0
   76.4076   30.1276   40.9646 H   0  0  0  0  0  0  0  0  0  0  0  0
   78.1904   28.6036   39.6400 C   0  0  0  0  0  0  0  0  0  0  0  0
   77.8230   27.8633   38.3290 N   0  0  0  0  0  0  0  0  0  0  0  0
   78.9544   27.8647   37.3048 C   0  0  0  0  0  0  0  0  0  0  0  0
   76.5596   28.4165   37.6858 C   0  0  0  0  0  0  0  0  0  0  0  0
   77.5421   26.3978   38.7013 C   0  0  0  0  0  0  0  0  0  0  0  0
  2  3  1  0
  3  4  1  0
  4  5  1  0
  5  6  2  0
  6  7  1  0
  6  8  1  0
  8  1  1  0
  1 10  1  0
 10 11  1  0
 10 14  1  0
 14 15  1  0
 15 16  1  0
 15 17  1  0
 15 18  1  0
  8  3  2  0
  7  9  1  0
 11 12  1  0
 11 13  1  0
M  CHG 1  15   1
M  END
> <minimizedAffinity>
-7.55982

> <CNNscore>
0.2174895853

> <CNNaffinity>
4.9927120209

> <CNN_VS>
1.0858628750

> <CNNaffinity_variance>
0.0669429824

$$$$



 18 18  0  0  0  0  0  0  0  0999 V2000
   77.2813   28.6211   40.8368 C   0  0  0  0  0  0  0  0  0  0  0  0
   75.5975   28.8518   37.9436 C   0  0  0  0  0  0  0  0  0  0  0  0
   76.9902   28.4835   38.2665 C   0  0  0  0  0  0  0  0  0  0  0  0
   77.7606   28.1177   37.2040 O   0  0  0  0  0  0  0  0  0  0  0  0
   79.0292   27.7859   37.6483 N   0  0  0  0  0  0  0  0  0  0  0  0
   78.9917   27.9842   38.9580 C   0  0  0  0  0  0  0  0  0  0  0  0
   80.1232   27.7626   39.6345 O   0  0  0  0  0  0  0  0  0  0  0  0
   77.7286   28.3896   39.4325 C   0  0  0  0  0  0  0  0  0  0  0  0
   80.8964   27.4932   39.1789 H   0  0  0  0  0  0  0  0  0  0  0  0
   76.5561   27.3987   41.4456 C   0  0  0  0  0  0  0  0  0  0  0  0
   76.1944   27.6253   42.8603 N   0  0  0  0  0  0  0  0  0  0  0  0
   77.0436   27.7250   43.4165 H   0  0  0  0  0  0  0  0  0  0  0  0
   75.6538   26.8317   43.2043 H   0  0  0  0  0  0  0  0  0  0  0  0
   77.3026   26.0420   41.2261 C   0  0  0  0  0  0  0  0  0  0  0  0
   78.2960   25.5408   42.3050 N   0  0  0  0  0  0  0  0  0  0  0  0
   77.7018   25.5419   43.7107 C   0  0  0  0  0  0  0  0  0  0  0  0
   79.5967   26.3306   42.3065 C   0  0  0  0  0  0  0  0  0  0  0  0
   78.6459   24.0847   41.9553 C   0  0  0  0  0  0  0  0  0  0  0  0
  2  3  1  0
  3  4  1  0
  4  5  1  0
  5  6  2  0
  6  7  1  0
  6  8  1  0
  8  1  1  0
  1 10  1  0
 10 11  1  0
 10 14  1  0
 14 15  1  0
 15 16  1  0
 15 17  1  0
 15 18  1  0
  8  3  2  0
  7  9  1  0
 11 12  1  0
 11 13  1  0
M  CHG 1  15   1
M  END
> <minimizedAffinity>
-4.45592

> <CNNscore>
0.1800817996

> <CNNaffinity>
4.6313476562

> <CNN_VS>
0.8340214491

> <CNNaffinity_variance>
0.0109544145

$$$$



 18 18  0  0  0  0  0  0  0  0999 V2000
   83.5579   36.5577   38.2746 C   0  0  0  0  0  0  0  0  0  0  0  0
   82.9914   39.5152   39.7551 C   0  0  0  0  0  0  0  0  0  0  0  0
   84.2250   38.7542   39.4751 C   0  0  0  0  0  0  0  0  0  0  0  0
   85.3863   39.3663   39.8398 O   0  0  0  0  0  0  0  0  0  0  0  0
   86.4579   38.5546   39.5084 N   0  0  0  0  0  0  0  0  0  0  0  0
   85.9101   37.4710   38.9776 C   0  0  0  0  0  0  0  0  0  0  0  0
   86.7441   36.4983   38.5963 O   0  0  0  0  0  0  0  0  0  0  0  0
   84.5057   37.5343   38.8861 C   0  0  0  0  0  0  0  0  0  0  0  0
   87.6674   36.5969   38.7217 H   0  0  0  0  0  0  0  0  0  0  0  0
   83.3758   36.7691   36.7537 C   0  0  0  0  0  0  0  0  0  0  0  0
   83.3943   38.2023   36.3942 N   0  0  0  0  0  0  0  0  0  0  0  0
   82.5924   38.6694   36.8175 H   0  0  0  0  0  0  0  0  0  0  0  0
   83.3475   38.2989   35.3798 H   0  0  0  0  0  0  0  0  0  0  0  0
   82.1469   36.0138   36.1493 C   0  0  0  0  0  0  0  0  0  0  0  0
   82.1772   35.5887   34.6592 N   0  0  0  0  0  0  0  0  0  0  0  0
   81.7944   34.1267   34.4470 C   0  0  0  0  0  0  0  0  0  0  0  0
   83.5260   35.8567   34.0075 C   0  0  0  0  0  0  0  0  0  0  0  0
   81.1353   36.4478   33.9232 C   0  0  0  0  0  0  0  0  0  0  0  0
  2  3  1  0
  3  4  1  0
  4  5  1  0
  5  6  2  0
  6  7  1  0
  6  8  1  0
  8  1  1  0
  1 10  1  0
 10 11  1  0
 10 14  1  0
 14 15  1  0
 15 16  1  0
 15 17  1  0
 15 18  1  0
  8  3  2  0
  7  9  1  0
 11 12  1  0
 11 13  1  0
M  CHG 1  15   1
M  END
> <minimizedAffinity>
-4.04667

> <CNNscore>
0.1800314188

> <CNNaffinity>
3.3267517090

> <CNN_VS>
0.5989198089

> <CNNaffinity_variance>
1.0030747652

$$$$



 18 18  0  0  0  0  0  0  0  0999 V2000
   76.8254   26.7842   41.2285 C   0  0  0  0  0  0  0  0  0  0  0  0
   75.8905   26.8356   44.4507 C   0  0  0  0  0  0  0  0  0  0  0  0
   77.0197   26.1988   43.7445 C   0  0  0  0  0  0  0  0  0  0  0  0
   77.9005   25.5251   44.5360 O   0  0  0  0  0  0  0  0  0  0  0  0
   78.9104   24.9939   43.7518 N   0  0  0  0  0  0  0  0  0  0  0  0
   78.5954   25.3424   42.5127 C   0  0  0  0  0  0  0  0  0  0  0  0
   79.4094   24.9177   41.5410 O   0  0  0  0  0  0  0  0  0  0  0  0
   77.4350   26.1367   42.4263 C   0  0  0  0  0  0  0  0  0  0  0  0
   80.1535   24.3884   41.7511 H   0  0  0  0  0  0  0  0  0  0  0  0
   77.2919   28.2454   41.0327 C   0  0  0  0  0  0  0  0  0  0  0  0
   76.1589   29.1928   41.0801 N   0  0  0  0  0  0  0  0  0  0  0  0
   75.5332   29.0142   40.2946 H   0  0  0  0  0  0  0  0  0  0  0  0
   76.5119   30.1481   41.0232 H   0  0  0  0  0  0  0  0  0  0  0  0
   78.2024   28.4598   39.7793 C   0  0  0  0  0  0  0  0  0  0  0  0
   77.7989   27.8123   38.4303 N   0  0  0  0  0  0  0  0  0  0  0  0
   78.8919   27.9105   37.3698 C   0  0  0  0  0  0  0  0  0  0  0  0
   76.5043   28.3884   37.8754 C   0  0  0  0  0  0  0  0  0  0  0  0
   77.5549   26.3182   38.7015 C   0  0  0  0  0  0  0  0  0  0  0  0
  2  3  1  0
  3  4  1  0
  4  5  1  0
  5  6  2  0
  6  7  1  0
  6  8  1  0
  8  1  1  0
  1 10  1  0
 10 11  1  0
 10 14  1  0
 14 15  1  0
 15 16  1  0
 15 17  1  0
 15 18  1  0
  8  3  2  0
  7  9  1  0
 11 12  1  0
 11 13  1  0
M  CHG 1  15   1
M  END
> <minimizedAffinity>
-5.48240

> <CNNscore>
0.1584654450

> <CNNaffinity>
4.5594387054

> <CNN_VS>
0.7225134969

> <CNNaffinity_variance>
0.3878813684

$$$$



 18 18  0  0  0  0  0  0  0  0999 V2000
   77.4307   27.6375   41.6257 C   0  0  0  0  0  0  0  0  0  0  0  0
   75.9963   30.3340   40.2362 C   0  0  0  0  0  0  0  0  0  0  0  0
   76.4535   29.0442   39.6823 C   0  0  0  0  0  0  0  0  0  0  0  0
   76.2230   28.8635   38.3517 O   0  0  0  0  0  0  0  0  0  0  0  0
   76.6848   27.6153   37.9702 N   0  0  0  0  0  0  0  0  0  0  0  0
   77.1995   27.0930   39.0740 C   0  0  0  0  0  0  0  0  0  0  0  0
   77.7517   25.8803   38.9672 O   0  0  0  0  0  0  0  0  0  0  0  0
   77.0597   27.9173   40.2080 C   0  0  0  0  0  0  0  0  0  0  0  0
   77.7733   25.4468   38.1367 H   0  0  0  0  0  0  0  0  0  0  0  0
   76.8953   26.2773   42.1296 C   0  0  0  0  0  0  0  0  0  0  0  0
   75.6086   26.4250   42.8410 N   0  0  0  0  0  0  0  0  0  0  0  0
   75.7494   26.9765   43.6874 H   0  0  0  0  0  0  0  0  0  0  0  0
   75.2507   25.5033   43.0914 H   0  0  0  0  0  0  0  0  0  0  0  0
   77.9396   25.4446   42.9432 C   0  0  0  0  0  0  0  0  0  0  0  0
   79.3573   25.2265   42.3564 N   0  0  0  0  0  0  0  0  0  0  0  0
   79.7107   26.2278   41.2603 C   0  0  0  0  0  0  0  0  0  0  0  0
   79.5555   23.8123   41.8308 C   0  0  0  0  0  0  0  0  0  0  0  0
   80.3583   25.4314   43.5059 C   0  0  0  0  0  0  0  0  0  0  0  0
  2  3  1  0
  3  4  1  0
  4  5  1  0
  5  6  2  0
  6  7  1  0
  6  8  1  0
  8  1  1  0
  1 10  1  0
 10 11  1  0
 10 14  1  0
 14 15  1  0
 15 16  1  0
 15 17  1  0
 15 18  1  0
  8  3  2  0
  7  9  1  0
 11 12  1  0
 11 13  1  0
M  CHG 1  15   1
M  END
> <minimizedAffinity>
-5.79312

> <CNNscore>
0.1566850245

> <CNNaffinity>
4.6269364357

> <CNN_VS>
0.7249716520

> <CNNaffinity_variance>
0.0834472105

$$$$



 18 18  0  0  0  0  0  0  0  0999 V2000
   86.4237   34.8169   40.2508 C   0  0  0  0  0  0  0  0  0  0  0  0
   85.9179   38.0612   39.5591 C   0  0  0  0  0  0  0  0  0  0  0  0
   85.1799   36.8332   39.2029 C   0  0  0  0  0  0  0  0  0  0  0  0
   84.0368   37.0239   38.4865 O   0  0  0  0  0  0  0  0  0  0  0  0
   83.4416   35.7994   38.2355 N   0  0  0  0  0  0  0  0  0  0  0  0
   84.2541   34.9090   38.7861 C   0  0  0  0  0  0  0  0  0  0  0  0
   83.9171   33.6220   38.6545 O   0  0  0  0  0  0  0  0  0  0  0  0
   85.3562   35.4834   39.4495 C   0  0  0  0  0  0  0  0  0  0  0  0
   83.1449   33.3862   38.1790 H   0  0  0  0  0  0  0  0  0  0  0  0
   86.0128   34.5844   41.7232 C   0  0  0  0  0  0  0  0  0  0  0  0
   84.6719   33.9723   41.8273 N   0  0  0  0  0  0  0  0  0  0  0  0
   83.9732   34.6204   41.4636 H   0  0  0  0  0  0  0  0  0  0  0  0
   84.4676   33.7654   42.8050 H   0  0  0  0  0  0  0  0  0  0  0  0
   86.1699   35.8459   42.6342 C   0  0  0  0  0  0  0  0  0  0  0  0
   86.5509   35.6609   44.1250 N   0  0  0  0  0  0  0  0  0  0  0  0
   87.5233   34.5073   44.3545 C   0  0  0  0  0  0  0  0  0  0  0  0
   85.3312   35.4774   45.0163 C   0  0  0  0  0  0  0  0  0  0  0  0
   87.2554   36.9520   44.5747 C   0  0  0  0  0  0  0  0  0  0  0  0
  2  3  1  0
  3  4  1  0
  4  5  1  0
  5  6  2  0
  6  7  1  0
  6  8  1  0
  8  1  1  0
  1 10  1  0
 10 11  1  0
 10 14  1  0
 14 15  1  0
 15 16  1  0
 15 17  1  0
 15 18  1  0
  8  3  2  0
  7  9  1  0
 11 12  1  0
 11 13  1  0
M  CHG 1  15   1
M  END
> <minimizedAffinity>
-4.11555

> <CNNscore>
0.1495406777

> <CNNaffinity>
2.8724796772

> <CNN_VS>
0.4295525551

> <CNNaffinity_variance>
1.1541951895

$$$$



 18 18  0  0  0  0  0  0  0  0999 V2000
   71.9014   16.5200   43.4011 C   0  0  0  0  0  0  0  0  0  0  0  0
   73.2556   15.2201   46.1825 C   0  0  0  0  0  0  0  0  0  0  0  0
   73.3219   16.5604   45.5670 C   0  0  0  0  0  0  0  0  0  0  0  0
   74.0319   17.4907   46.2646 O   0  0  0  0  0  0  0  0  0  0  0  0
   74.0000   18.6973   45.5862 N   0  0  0  0  0  0  0  0  0  0  0  0
   73.2939   18.4518   44.4920 C   0  0  0  0  0  0  0  0  0  0  0  0
   73.1390   19.4650   43.6339 O   0  0  0  0  0  0  0  0  0  0  0  0
   72.7978   17.1349   44.4229 C   0  0  0  0  0  0  0  0  0  0  0  0
   73.5325   20.2960   43.8142 H   0  0  0  0  0  0  0  0  0  0  0  0
   70.5238   17.2167   43.3131 C   0  0  0  0  0  0  0  0  0  0  0  0
   70.5841   18.4480   42.4985 N   0  0  0  0  0  0  0  0  0  0  0  0
   71.1892   19.1295   42.9566 H   0  0  0  0  0  0  0  0  0  0  0  0
   69.6464   18.8374   42.4009 H   0  0  0  0  0  0  0  0  0  0  0  0
   69.8376   17.4464   44.6996 C   0  0  0  0  0  0  0  0  0  0  0  0
   68.3204   17.1678   44.8493 N   0  0  0  0  0  0  0  0  0  0  0  0
   67.9437   16.6372   46.2297 C   0  0  0  0  0  0  0  0  0  0  0  0
   67.7983   16.2157   43.7831 C   0  0  0  0  0  0  0  0  0  0  0  0
   67.5938   18.5098   44.6590 C   0  0  0  0  0  0  0  0  0  0  0  0
  2  3  1  0
  3  4  1  0
  4  5  1  0
  5  6  2  0
  6  7  1  0
  6  8  1  0
  8  1  1  0
  1 10  1  0
 10 11  1  0
 10 14  1  0
 14 15  1  0
 15 16  1  0
 15 17  1  0
 15 18  1  0
  8  3  2  0
  7  9  1  0
 11 12  1  0
 11 13  1  0
M  CHG 1  15   1
M  END
> <minimizedAffinity>
-4.75413

> <CNNscore>
0.1328268349

> <CNNaffinity>
3.3035376072

> <CNN_VS>
0.4387984574

> <CNNaffinity_variance>
0.3411295712

$$$$
