


 21 21  0  0  0  0  0  0  0  0999 V2000
   45.2667    5.5503   21.9850 C   0  0  0  0  0  0  0  0  0  0  0  0
   45.0485    4.5412   21.0052 O   0  0  0  0  0  0  0  0  0  0  0  0
   45.8504    4.8442   23.1896 C   0  0  0  0  0  0  0  0  0  0  0  0
   45.4294    5.0357   24.4517 C   0  0  0  0  0  0  0  0  0  0  0  0
   44.3442    5.9980   24.8360 C   0  0  0  0  0  0  0  0  0  0  0  0
   44.8390    6.8217   25.8849 O   0  0  0  0  0  0  0  0  0  0  0  0
   43.9561    6.9345   23.6728 C   0  0  0  0  0  0  0  0  0  0  0  0
   42.6796    7.5294   23.8887 O   0  0  0  0  0  0  0  0  0  0  0  0
   43.9054    6.1784   22.3472 C   0  0  0  0  0  0  0  0  0  0  0  0
   45.8960    4.1348   20.7653 H   0  0  0  0  0  0  0  0  0  0  0  0
   45.6139    7.3139   25.5714 H   0  0  0  0  0  0  0  0  0  0  0  0
   42.0019    6.8364   23.9253 H   0  0  0  0  0  0  0  0  0  0  0  0
   46.3152    6.6092   21.4645 C   0  0  0  0  0  0  0  0  0  0  0  0
   47.4923    6.1420   20.4691 N   0  0  0  0  0  0  0  0  0  0  0  0
   46.8682    5.8652   19.1122 C   0  0  0  0  0  0  0  0  0  0  0  0
   48.5179    7.2602   20.3419 C   0  0  0  0  0  0  0  0  0  0  0  0
   48.0770    4.9096   21.1462 C   0  0  0  0  0  0  0  0  0  0  0  0
   50.1297    3.5402   21.8837 C   0  0  0  0  0  0  0  0  0  0  0  0
   49.4477    4.3583   20.8031 N   0  0  0  0  0  0  0  0  0  0  0  0
   49.2172    3.3771   19.6108 C   0  0  0  0  0  0  0  0  0  0  0  0
   50.4160    5.4160   20.2674 C   0  0  0  0  0  0  0  0  0  0  0  0
 18 19  1  0
 19 20  1  0
 19 21  1  0
 19 17  1  0
 17 14  1  0
 14 15  1  0
 14 16  1  0
 14 13  1  0
 13  1  1  0
  1  2  1  0
  1  3  1  0
  3  4  2  0
  4  5  1  0
  5  6  1  0
  5  7  1  0
  7  8  1  0
  7  9  1  0
  9  1  1  0
  2 10  1  0
  6 11  1  0
  8 12  1  0
M  CHG 1  14   1
M  CHG 1  19   1
M  END
> <minimizedAffinity>
-6.18221

> <CNNscore>
0.5590958595

> <CNNaffinity>
3.9314193726

> <CNN_VS>
2.1980402470

> <CNNaffinity_variance>
1.6430774927

$$$$



 21 21  0  0  0  0  0  0  0  0999 V2000
   52.8670   12.4295   31.0544 C   0  0  0  0  0  0  0  0  0  0  0  0
   52.8474   11.3517   31.9838 O   0  0  0  0  0  0  0  0  0  0  0  0
   51.4267   12.8625   30.8858 C   0  0  0  0  0  0  0  0  0  0  0  0
   50.8430   13.0889   29.6963 C   0  0  0  0  0  0  0  0  0  0  0  0
   51.5518   12.9707   28.3791 C   0  0  0  0  0  0  0  0  0  0  0  0
   51.3238   14.1700   27.6488 O   0  0  0  0  0  0  0  0  0  0  0  0
   53.0789   12.8302   28.5489 C   0  0  0  0  0  0  0  0  0  0  0  0
   53.6857   12.3005   27.3736 O   0  0  0  0  0  0  0  0  0  0  0  0
   53.4231   11.9057   29.7145 C   0  0  0  0  0  0  0  0  0  0  0  0
   52.4997   11.6640   32.8338 H   0  0  0  0  0  0  0  0  0  0  0  0
   51.6818   14.9233   28.1441 H   0  0  0  0  0  0  0  0  0  0  0  0
   53.3417   11.4092   27.2057 H   0  0  0  0  0  0  0  0  0  0  0  0
   53.6939   13.6435   31.6325 C   0  0  0  0  0  0  0  0  0  0  0  0
   53.4366   14.1343   33.1450 N   0  0  0  0  0  0  0  0  0  0  0  0
   52.7549   12.9996   33.8901 C   0  0  0  0  0  0  0  0  0  0  0  0
   54.7712   14.4511   33.8057 C   0  0  0  0  0  0  0  0  0  0  0  0
   52.5730   15.3784   32.9844 C   0  0  0  0  0  0  0  0  0  0  0  0
   52.2347   17.9175   32.7182 C   0  0  0  0  0  0  0  0  0  0  0  0
   53.1013   16.7797   33.2246 N   0  0  0  0  0  0  0  0  0  0  0  0
   53.1550   16.9461   34.7760 C   0  0  0  0  0  0  0  0  0  0  0  0
   54.5437   16.9791   32.7522 C   0  0  0  0  0  0  0  0  0  0  0  0
 18 19  1  0
 19 20  1  0
 19 21  1  0
 19 17  1  0
 17 14  1  0
 14 15  1  0
 14 16  1  0
 14 13  1  0
 13  1  1  0
  1  2  1  0
  1  3  1  0
  3  4  2  0
  4  5  1  0
  5  6  1  0
  5  7  1  0
  7  8  1  0
  7  9  1  0
  9  1  1  0
  2 10  1  0
  6 11  1  0
  8 12  1  0
M  CHG 1  14   1
M  CHG 1  19   1
M  END
> <minimizedAffinity>
-4.02471

> <CNNscore>
0.4867952168

> <CNNaffinity>
3.0387103558

> <CNN_VS>
1.4792296886

> <CNNaffinity_variance>
0.8439955711

$$$$



 21 21  0  0  0  0  0  0  0  0999 V2000
   53.2915    9.6767   32.4449 C   0  0  0  0  0  0  0  0  0  0  0  0
   52.0283   10.1634   32.8849 O   0  0  0  0  0  0  0  0  0  0  0  0
   53.0134    8.3624   31.7481 C   0  0  0  0  0  0  0  0  0  0  0  0
   53.7125    7.2343   31.9618 C   0  0  0  0  0  0  0  0  0  0  0  0
   54.8808    7.1374   32.8983 C   0  0  0  0  0  0  0  0  0  0  0  0
   55.9632    6.5453   32.1902 O   0  0  0  0  0  0  0  0  0  0  0  0
   55.3607    8.5232   33.3778 C   0  0  0  0  0  0  0  0  0  0  0  0
   56.1535    8.4190   34.5570 O   0  0  0  0  0  0  0  0  0  0  0  0
   54.1801    9.4422   33.6835 C   0  0  0  0  0  0  0  0  0  0  0  0
   51.4556   10.3167   32.1171 H   0  0  0  0  0  0  0  0  0  0  0  0
   56.1988    7.1043   31.4333 H   0  0  0  0  0  0  0  0  0  0  0  0
   55.6179    8.0468   35.2750 H   0  0  0  0  0  0  0  0  0  0  0  0
   53.9359   10.6728   31.4036 C   0  0  0  0  0  0  0  0  0  0  0  0
   52.9853   11.6289   30.5222 N   0  0  0  0  0  0  0  0  0  0  0  0
   53.8781   12.4687   29.6248 C   0  0  0  0  0  0  0  0  0  0  0  0
   52.0621   10.7717   29.6672 C   0  0  0  0  0  0  0  0  0  0  0  0
   52.2137   12.4346   31.5589 C   0  0  0  0  0  0  0  0  0  0  0  0
   54.2955   13.5882   32.5426 C   0  0  0  0  0  0  0  0  0  0  0  0
   52.8044   13.6389   32.2669 N   0  0  0  0  0  0  0  0  0  0  0  0
   52.5941   14.8410   31.2933 C   0  0  0  0  0  0  0  0  0  0  0  0
   52.0556   14.0253   33.5449 C   0  0  0  0  0  0  0  0  0  0  0  0
 18 19  1  0
 19 20  1  0
 19 21  1  0
 19 17  1  0
 17 14  1  0
 14 15  1  0
 14 16  1  0
 14 13  1  0
 13  1  1  0
  1  2  1  0
  1  3  1  0
  3  4  2  0
  4  5  1  0
  5  6  1  0
  5  7  1  0
  7  8  1  0
  7  9  1  0
  9  1  1  0
  2 10  1  0
  6 11  1  0
  8 12  1  0
M  CHG 1  14   1
M  CHG 1  19   1
M  END
> <minimizedAffinity>
-4.92290

> <CNNscore>
0.4653326273

> <CNNaffinity>
3.2510633469

> <CNN_VS>
1.5128258467

> <CNNaffinity_variance>
0.7069643140

$$$$



 21 21  0  0  0  0  0  0  0  0999 V2000
   53.1713   10.9872   31.0095 C   0  0  0  0  0  0  0  0  0  0  0  0
   53.4010   12.1448   31.8052 O   0  0  0  0  0  0  0  0  0  0  0  0
   52.1627   10.1518   31.7679 C   0  0  0  0  0  0  0  0  0  0  0  0
   52.2844    8.8293   31.9752 C   0  0  0  0  0  0  0  0  0  0  0  0
   53.4225    8.0010   31.4557 C   0  0  0  0  0  0  0  0  0  0  0  0
   52.8738    6.8806   30.7721 O   0  0  0  0  0  0  0  0  0  0  0  0
   54.2871    8.7716   30.4362 C   0  0  0  0  0  0  0  0  0  0  0  0
   55.5669    8.1658   30.2776 O   0  0  0  0  0  0  0  0  0  0  0  0
   54.5016   10.2184   30.8745 C   0  0  0  0  0  0  0  0  0  0  0  0
   52.5731   12.6411   31.9006 H   0  0  0  0  0  0  0  0  0  0  0  0
   52.3308    7.1890   30.0297 H   0  0  0  0  0  0  0  0  0  0  0  0
   56.0437    8.1917   31.1219 H   0  0  0  0  0  0  0  0  0  0  0  0
   52.5473   11.3887   29.6162 C   0  0  0  0  0  0  0  0  0  0  0  0
   51.9334   12.8640   29.4137 N   0  0  0  0  0  0  0  0  0  0  0  0
   50.8867   13.0818   30.4928 C   0  0  0  0  0  0  0  0  0  0  0  0
   53.0430   13.8961   29.5616 C   0  0  0  0  0  0  0  0  0  0  0  0
   51.3696   12.8352   27.9993 C   0  0  0  0  0  0  0  0  0  0  0  0
   51.6809   15.3050   27.3394 C   0  0  0  0  0  0  0  0  0  0  0  0
   51.7654   13.8442   26.9382 N   0  0  0  0  0  0  0  0  0  0  0  0
   53.2744   13.5720   26.6446 C   0  0  0  0  0  0  0  0  0  0  0  0
   51.0545   13.6342   25.5989 C   0  0  0  0  0  0  0  0  0  0  0  0
 18 19  1  0
 19 20  1  0
 19 21  1  0
 19 17  1  0
 17 14  1  0
 14 15  1  0
 14 16  1  0
 14 13  1  0
 13  1  1  0
  1  2  1  0
  1  3  1  0
  3  4  2  0
  4  5  1  0
  5  6  1  0
  5  7  1  0
  7  8  1  0
  7  9  1  0
  9  1  1  0
  2 10  1  0
  6 11  1  0
  8 12  1  0
M  CHG 1  14   1
M  CHG 1  19   1
M  END
> <minimizedAffinity>
-4.74806

> <CNNscore>
0.4571361542

> <CNNaffinity>
3.0896866322

> <CNN_VS>
1.4124075174

> <CNNaffinity_variance>
0.7776252627

$$$$



 21 21  0  0  0  0  0  0  0  0999 V2000
   52.3794   12.5345   31.0523 C   0  0  0  0  0  0  0  0  0  0  0  0
   51.2255   13.3483   31.2318 O   0  0  0  0  0  0  0  0  0  0  0  0
   52.2021   11.8467   29.7159 C   0  0  0  0  0  0  0  0  0  0  0  0
   52.4038   10.5333   29.5126 C   0  0  0  0  0  0  0  0  0  0  0  0
   52.8606    9.5810   30.5782 C   0  0  0  0  0  0  0  0  0  0  0  0
   53.9793    8.8614   30.0737 O   0  0  0  0  0  0  0  0  0  0  0  0
   53.3331   10.3132   31.8515 C   0  0  0  0  0  0  0  0  0  0  0  0
   53.3536    9.4387   32.9762 O   0  0  0  0  0  0  0  0  0  0  0  0
   52.4177   11.4888   32.1855 C   0  0  0  0  0  0  0  0  0  0  0  0
   51.1856   14.0128   30.5264 H   0  0  0  0  0  0  0  0  0  0  0  0
   54.6948    9.4817   29.8637 H   0  0  0  0  0  0  0  0  0  0  0  0
   52.4547    9.1215   33.1556 H   0  0  0  0  0  0  0  0  0  0  0  0
   53.6809   13.4257   30.9917 C   0  0  0  0  0  0  0  0  0  0  0  0
   53.5677   15.0171   31.2137 N   0  0  0  0  0  0  0  0  0  0  0  0
   54.8996   15.6346   30.8231 C   0  0  0  0  0  0  0  0  0  0  0  0
   52.4653   15.5729   30.3226 C   0  0  0  0  0  0  0  0  0  0  0  0
   53.2283   15.1576   32.6916 C   0  0  0  0  0  0  0  0  0  0  0  0
   53.1741   17.7232   32.9088 C   0  0  0  0  0  0  0  0  0  0  0  0
   53.5867   16.3889   33.5016 N   0  0  0  0  0  0  0  0  0  0  0  0
   52.7921   16.2555   34.8389 C   0  0  0  0  0  0  0  0  0  0  0  0
   55.0592   16.4410   33.9164 C   0  0  0  0  0  0  0  0  0  0  0  0
 18 19  1  0
 19 20  1  0
 19 21  1  0
 19 17  1  0
 17 14  1  0
 14 15  1  0
 14 16  1  0
 14 13  1  0
 13  1  1  0
  1  2  1  0
  1  3  1  0
  3  4  2  0
  4  5  1  0
  5  6  1  0
  5  7  1  0
  7  8  1  0
  7  9  1  0
  9  1  1  0
  2 10  1  0
  6 11  1  0
  8 12  1  0
M  CHG 1  14   1
M  CHG 1  19   1
M  END
> <minimizedAffinity>
-4.30102

> <CNNscore>
0.4310923517

> <CNNaffinity>
2.8979136944

> <CNN_VS>
1.2492684126

> <CNNaffinity_variance>
1.0921657085

$$$$



 21 21  0  0  0  0  0  0  0  0999 V2000
   53.0711   14.3887   33.1347 C   0  0  0  0  0  0  0  0  0  0  0  0
   52.0645   13.4330   32.8196 O   0  0  0  0  0  0  0  0  0  0  0  0
   53.9329   13.7515   34.2032 C   0  0  0  0  0  0  0  0  0  0  0  0
   54.3179   14.3744   35.3304 C   0  0  0  0  0  0  0  0  0  0  0  0
   53.9683   15.7948   35.6641 C   0  0  0  0  0  0  0  0  0  0  0  0
   55.1701   16.4736   36.0080 O   0  0  0  0  0  0  0  0  0  0  0  0
   53.3568   16.5431   34.4612 C   0  0  0  0  0  0  0  0  0  0  0  0
   52.6501   17.7078   34.8787 O   0  0  0  0  0  0  0  0  0  0  0  0
   52.3841   15.6523   33.6919 C   0  0  0  0  0  0  0  0  0  0  0  0
   52.4797   12.6303   32.4672 H   0  0  0  0  0  0  0  0  0  0  0  0
   55.7782   16.4574   35.2525 H   0  0  0  0  0  0  0  0  0  0  0  0
   51.9103   17.4495   35.4504 H   0  0  0  0  0  0  0  0  0  0  0  0
   53.9700   14.6824   31.8709 C   0  0  0  0  0  0  0  0  0  0  0  0
   53.4248   14.3104   30.4016 N   0  0  0  0  0  0  0  0  0  0  0  0
   52.1199   15.0586   30.1891 C   0  0  0  0  0  0  0  0  0  0  0  0
   54.4432   14.7521   29.3595 C   0  0  0  0  0  0  0  0  0  0  0  0
   53.2722   12.7957   30.4401 C   0  0  0  0  0  0  0  0  0  0  0  0
   50.8393   12.5472   29.6331 C   0  0  0  0  0  0  0  0  0  0  0  0
   52.2717   12.0503   29.5775 N   0  0  0  0  0  0  0  0  0  0  0  0
   52.7409   12.2734   28.1053 C   0  0  0  0  0  0  0  0  0  0  0  0
   52.3005   10.5331   29.7795 C   0  0  0  0  0  0  0  0  0  0  0  0
 18 19  1  0
 19 20  1  0
 19 21  1  0
 19 17  1  0
 17 14  1  0
 14 15  1  0
 14 16  1  0
 14 13  1  0
 13  1  1  0
  1  2  1  0
  1  3  1  0
  3  4  2  0
  4  5  1  0
  5  6  1  0
  5  7  1  0
  7  8  1  0
  7  9  1  0
  9  1  1  0
  2 10  1  0
  6 11  1  0
  8 12  1  0
M  CHG 1  14   1
M  CHG 1  19   1
M  END
> <minimizedAffinity>
-4.06046

> <CNNscore>
0.4255114496

> <CNNaffinity>
3.1272630692

> <CNN_VS>
1.3306862116

> <CNNaffinity_variance>
0.9847572446

$$$$



 21 21  0  0  0  0  0  0  0  0999 V2000
   53.2456    9.7227   32.4670 C   0  0  0  0  0  0  0  0  0  0  0  0
   51.9909   10.2027   32.9372 O   0  0  0  0  0  0  0  0  0  0  0  0
   52.9506    8.4347   31.7291 C   0  0  0  0  0  0  0  0  0  0  0  0
   53.6438    7.2953   31.8967 C   0  0  0  0  0  0  0  0  0  0  0  0
   54.8215    7.1586   32.8163 C   0  0  0  0  0  0  0  0  0  0  0  0
   55.8918    6.5836   32.0765 O   0  0  0  0  0  0  0  0  0  0  0  0
   55.3165    8.5241   33.3372 C   0  0  0  0  0  0  0  0  0  0  0  0
   56.1214    8.3744   34.5033 O   0  0  0  0  0  0  0  0  0  0  0  0
   54.1460    9.4401   33.6870 C   0  0  0  0  0  0  0  0  0  0  0  0
   51.4110   10.3859   32.1816 H   0  0  0  0  0  0  0  0  0  0  0  0
   56.1232    7.1664   31.3365 H   0  0  0  0  0  0  0  0  0  0  0  0
   55.5909    7.9816   35.2141 H   0  0  0  0  0  0  0  0  0  0  0  0
   53.8858   10.7492   31.4530 C   0  0  0  0  0  0  0  0  0  0  0  0
   52.9325   11.7395   30.6134 N   0  0  0  0  0  0  0  0  0  0  0  0
   51.9759   10.8829   29.8017 C   0  0  0  0  0  0  0  0  0  0  0  0
   52.1431   12.6155   31.5765 C   0  0  0  0  0  0  0  0  0  0  0  0
   53.9035   12.5548   29.7698 C   0  0  0  0  0  0  0  0  0  0  0  0
   54.3067   14.7553   28.4941 C   0  0  0  0  0  0  0  0  0  0  0  0
   53.4438   13.5241   28.6975 N   0  0  0  0  0  0  0  0  0  0  0  0
   53.5172   12.7289   27.3560 C   0  0  0  0  0  0  0  0  0  0  0  0
   51.9767   13.9384   28.8356 C   0  0  0  0  0  0  0  0  0  0  0  0
 18 19  1  0
 19 20  1  0
 19 21  1  0
 19 17  1  0
 17 14  1  0
 14 15  1  0
 14 16  1  0
 14 13  1  0
 13  1  1  0
  1  2  1  0
  1  3  1  0
  3  4  2  0
  4  5  1  0
  5  6  1  0
  5  7  1  0
  7  8  1  0
  7  9  1  0
  9  1  1  0
  2 10  1  0
  6 11  1  0
  8 12  1  0
M  CHG 1  14   1
M  CHG 1  19   1
M  END
> <minimizedAffinity>
-4.80905

> <CNNscore>
0.4238491058

> <CNNaffinity>
2.9942665100

> <CNN_VS>
1.2691172361

> <CNNaffinity_variance>
0.8922733665

$$$$



 21 21  0  0  0  0  0  0  0  0999 V2000
   52.9932   14.1049   34.0289 C   0  0  0  0  0  0  0  0  0  0  0  0
   52.1328   13.0466   34.4362 O   0  0  0  0  0  0  0  0  0  0  0  0
   53.9456   14.3367   35.1819 C   0  0  0  0  0  0  0  0  0  0  0  0
   54.2448   15.5492   35.6791 C   0  0  0  0  0  0  0  0  0  0  0  0
   53.6962   16.8360   35.1363 C   0  0  0  0  0  0  0  0  0  0  0  0
   54.7900   17.7138   34.8982 O   0  0  0  0  0  0  0  0  0  0  0  0
   52.9745   16.6394   33.7868 C   0  0  0  0  0  0  0  0  0  0  0  0
   52.1102   17.7340   33.4957 O   0  0  0  0  0  0  0  0  0  0  0  0
   52.1350   15.3639   33.7891 C   0  0  0  0  0  0  0  0  0  0  0  0
   52.6570   12.2454   34.5916 H   0  0  0  0  0  0  0  0  0  0  0  0
   55.3886   17.3153   34.2472 H   0  0  0  0  0  0  0  0  0  0  0  0
   51.4195   17.7900   34.1745 H   0  0  0  0  0  0  0  0  0  0  0  0
   53.8312   13.6794   32.7607 C   0  0  0  0  0  0  0  0  0  0  0  0
   53.6813   12.1882   32.1702 N   0  0  0  0  0  0  0  0  0  0  0  0
   54.8288   11.9564   31.2023 C   0  0  0  0  0  0  0  0  0  0  0  0
   53.7639   11.1838   33.3115 C   0  0  0  0  0  0  0  0  0  0  0  0
   52.3070   12.1905   31.5142 C   0  0  0  0  0  0  0  0  0  0  0  0
   52.4930   11.2433   29.1266 C   0  0  0  0  0  0  0  0  0  0  0  0
   52.1095   12.4038   30.0255 N   0  0  0  0  0  0  0  0  0  0  0  0
   50.5729   12.6004   29.8315 C   0  0  0  0  0  0  0  0  0  0  0  0
   52.7456   13.6943   29.5028 C   0  0  0  0  0  0  0  0  0  0  0  0
 18 19  1  0
 19 20  1  0
 19 21  1  0
 19 17  1  0
 17 14  1  0
 14 15  1  0
 14 16  1  0
 14 13  1  0
 13  1  1  0
  1  2  1  0
  1  3  1  0
  3  4  2  0
  4  5  1  0
  5  6  1  0
  5  7  1  0
  7  8  1  0
  7  9  1  0
  9  1  1  0
  2 10  1  0
  6 11  1  0
  8 12  1  0
M  CHG 1  14   1
M  CHG 1  19   1
M  END
> <minimizedAffinity>
-4.56061

> <CNNscore>
0.4196202159

> <CNNaffinity>
3.0256612301

> <CNN_VS>
1.2696286440

> <CNNaffinity_variance>
0.7791725993

$$$$



 21 21  0  0  0  0  0  0  0  0999 V2000
   53.9914   11.1443   30.7827 C   0  0  0  0  0  0  0  0  0  0  0  0
   55.3368   11.0710   30.3240 O   0  0  0  0  0  0  0  0  0  0  0  0
   53.1294   10.6898   29.6248 C   0  0  0  0  0  0  0  0  0  0  0  0
   52.0277   11.3367   29.2069 C   0  0  0  0  0  0  0  0  0  0  0  0
   51.4902   12.5796   29.8532 C   0  0  0  0  0  0  0  0  0  0  0  0
   50.1094   12.3714   30.1244 O   0  0  0  0  0  0  0  0  0  0  0  0
   52.1745   12.8777   31.2036 C   0  0  0  0  0  0  0  0  0  0  0  0
   51.9850   14.2349   31.5935 O   0  0  0  0  0  0  0  0  0  0  0  0
   53.6767   12.6131   31.1328 C   0  0  0  0  0  0  0  0  0  0  0  0
   55.5520   10.1523   30.0988 H   0  0  0  0  0  0  0  0  0  0  0  0
   50.0085   11.6204   30.7300 H   0  0  0  0  0  0  0  0  0  0  0  0
   52.3966   14.8200   30.9384 H   0  0  0  0  0  0  0  0  0  0  0  0
   53.7661   10.1596   31.9957 C   0  0  0  0  0  0  0  0  0  0  0  0
   54.7650    8.9137   32.2066 N   0  0  0  0  0  0  0  0  0  0  0  0
   56.1814    9.4121   31.9763 C   0  0  0  0  0  0  0  0  0  0  0  0
   54.6304    8.3958   33.6320 C   0  0  0  0  0  0  0  0  0  0  0  0
   54.2937    7.8891   31.1832 C   0  0  0  0  0  0  0  0  0  0  0  0
   54.3915    5.5667   30.0744 C   0  0  0  0  0  0  0  0  0  0  0  0
   55.1293    6.6892   30.7798 N   0  0  0  0  0  0  0  0  0  0  0  0
   56.1661    7.2304   29.7457 C   0  0  0  0  0  0  0  0  0  0  0  0
   55.9694    6.1162   31.9240 C   0  0  0  0  0  0  0  0  0  0  0  0
 18 19  1  0
 19 20  1  0
 19 21  1  0
 19 17  1  0
 17 14  1  0
 14 15  1  0
 14 16  1  0
 14 13  1  0
 13  1  1  0
  1  2  1  0
  1  3  1  0
  3  4  2  0
  4  5  1  0
  5  6  1  0
  5  7  1  0
  7  8  1  0
  7  9  1  0
  9  1  1  0
  2 10  1  0
  6 11  1  0
  8 12  1  0
M  CHG 1  14   1
M  CHG 1  19   1
M  END
> <minimizedAffinity>
-4.72123

> <CNNscore>
0.4108013213

> <CNNaffinity>
2.7877864838

> <CNN_VS>
1.1452263594

> <CNNaffinity_variance>
1.3275028467

$$$$
