


 22 24  0  0  0  0  0  0  0  0999 V2000
    8.2579    9.5320    4.8798 S   0  0  0  0  0  0  0  0  0  0  0  0
    7.8611    8.2721    5.4681 O   0  0  0  0  0  0  0  0  0  0  0  0
    8.3903   10.7215    5.6947 O   0  0  0  0  0  0  0  0  0  0  0  0
    7.0972    9.8856    3.5688 C   0  0  0  0  0  0  0  0  0  0  0  0
    7.6358   10.2268    2.3179 C   0  0  0  0  0  0  0  0  0  0  0  0
    6.7859   10.4938    1.2546 C   0  0  0  0  0  0  0  0  0  0  0  0
    7.4405   10.9001   -0.2828 Cl  0  0  0  0  0  0  0  0  0  0  0  0
    5.4070   10.4281    1.4219 C   0  0  0  0  0  0  0  0  0  0  0  0
    4.8562   10.0975    2.6717 C   0  0  0  0  0  0  0  0  0  0  0  0
    3.4718   10.0321    2.8500 C   0  0  0  0  0  0  0  0  0  0  0  0
    2.8589    9.7253    4.0129 N   0  0  0  0  0  0  0  0  0  0  0  0
    3.6603    9.4795    5.0636 C   0  0  0  0  0  0  0  0  0  0  0  0
    5.0453    9.5142    4.9996 C   0  0  0  0  0  0  0  0  0  0  0  0
    5.6905    9.8236    3.7805 C   0  0  0  0  0  0  0  0  0  0  0  0
    9.4150    7.7740    2.1379 C   0  0  0  0  0  0  0  0  0  0  0  0
    9.9729    7.9077    3.5553 C   0  0  0  0  0  0  0  0  0  0  0  0
   11.4808    7.5457    3.5319 C   0  0  0  0  0  0  0  0  0  0  0  0
   12.1484    7.6597    4.8347 N   0  0  0  0  0  0  0  0  0  0  0  0
   11.6739    8.8258    5.5916 C   0  0  0  0  0  0  0  0  0  0  0  0
   10.9422    9.8884    4.7523 C   0  0  0  0  0  0  0  0  0  0  0  0
    9.7432    9.3251    4.0443 N   0  0  0  0  0  0  0  0  0  0  0  0
   13.1530    7.7506    4.6838 H   0  0  0  0  0  0  0  0  0  0  0  0
 16 15  1  0
 16 17  1  0
 17 18  1  0
 18 19  1  0
 19 20  1  0
 20 21  1  0
 21  1  1  0
  1  2  2  0
  1  3  2  0
  1  4  1  0
  4  5  2  0
  5  6  1  0
  6  7  1  0
  6  8  2  0
  8  9  1  0
  9 10  2  0
 10 11  1  0
 11 12  2  0
 12 13  1  0
 13 14  2  0
 21 16  1  0
 14  4  1  0
 14  9  1  0
 18 22  1  0
M  END
> <minimizedAffinity>
-7.25294

> <CNNscore>
0.9801848531

> <CNNaffinity>
6.5967392921

> <CNN_VS>
6.4660239220

> <CNNaffinity_variance>
0.2332261950

$$$$



 22 24  0  0  0  0  0  0  0  0999 V2000
   10.1079    9.9568    3.8123 S   0  0  0  0  0  0  0  0  0  0  0  0
    9.6260   10.0044    5.1748 O   0  0  0  0  0  0  0  0  0  0  0  0
   11.0519   10.9407    3.3252 O   0  0  0  0  0  0  0  0  0  0  0  0
    8.6731    9.9924    2.7487 C   0  0  0  0  0  0  0  0  0  0  0  0
    8.9081   10.0032    1.3646 C   0  0  0  0  0  0  0  0  0  0  0  0
    7.8344   10.0114    0.4863 C   0  0  0  0  0  0  0  0  0  0  0  0
    8.1166   10.0122   -1.2101 Cl  0  0  0  0  0  0  0  0  0  0  0  0
    6.5302   10.0117    0.9688 C   0  0  0  0  0  0  0  0  0  0  0  0
    6.2826   10.0111    2.3520 C   0  0  0  0  0  0  0  0  0  0  0  0
    4.9756   10.0145    2.8461 C   0  0  0  0  0  0  0  0  0  0  0  0
    4.6473   10.0163    4.1555 N   0  0  0  0  0  0  0  0  0  0  0  0
    5.6702   10.0263    5.0274 C   0  0  0  0  0  0  0  0  0  0  0  0
    7.0043   10.0215    4.6487 C   0  0  0  0  0  0  0  0  0  0  0  0
    7.3515   10.0077    3.2784 C   0  0  0  0  0  0  0  0  0  0  0  0
   12.5328    7.9182    5.1948 C   0  0  0  0  0  0  0  0  0  0  0  0
   12.2827    8.3444    3.7478 C   0  0  0  0  0  0  0  0  0  0  0  0
   12.9735    7.3263    2.8035 C   0  0  0  0  0  0  0  0  0  0  0  0
   12.7870    7.6070    1.3744 N   0  0  0  0  0  0  0  0  0  0  0  0
   11.4301    8.0895    1.0848 C   0  0  0  0  0  0  0  0  0  0  0  0
   10.3935    7.8063    2.1867 C   0  0  0  0  0  0  0  0  0  0  0  0
   10.7869    8.4106    3.5044 N   0  0  0  0  0  0  0  0  0  0  0  0
   12.9526    6.7506    0.8456 H   0  0  0  0  0  0  0  0  0  0  0  0
 16 15  1  0
 16 17  1  0
 17 18  1  0
 18 19  1  0
 19 20  1  0
 20 21  1  0
 21  1  1  0
  1  2  2  0
  1  3  2  0
  1  4  1  0
  4  5  2  0
  5  6  1  0
  6  7  1  0
  6  8  2  0
  8  9  1  0
  9 10  2  0
 10 11  1  0
 11 12  2  0
 12 13  1  0
 13 14  2  0
 21 16  1  0
 14  4  1  0
 14  9  1  0
 18 22  1  0
M  END
> <minimizedAffinity>
-8.62084

> <CNNscore>
0.8782952428

> <CNNaffinity>
6.6598587036

> <CNN_VS>
5.8493223190

> <CNNaffinity_variance>
0.0413793735

$$$$



 22 24  0  0  0  0  0  0  0  0999 V2000
    9.4213    9.7061    0.6952 S   0  0  0  0  0  0  0  0  0  0  0  0
    9.0385   10.7817   -0.1922 O   0  0  0  0  0  0  0  0  0  0  0  0
    9.4646    8.3373    0.2253 O   0  0  0  0  0  0  0  0  0  0  0  0
    8.3232    9.7736    2.1026 C   0  0  0  0  0  0  0  0  0  0  0  0
    8.9190    9.7759    3.3740 C   0  0  0  0  0  0  0  0  0  0  0  0
    8.1202    9.8464    4.5060 C   0  0  0  0  0  0  0  0  0  0  0  0
    8.8453    9.8620    6.0652 Cl  0  0  0  0  0  0  0  0  0  0  0  0
    6.7362    9.9118    4.3880 C   0  0  0  0  0  0  0  0  0  0  0  0
    6.1281    9.9001    3.1211 C   0  0  0  0  0  0  0  0  0  0  0  0
    4.7381    9.9623    2.9928 C   0  0  0  0  0  0  0  0  0  0  0  0
    4.0720    9.9542    1.8188 N   0  0  0  0  0  0  0  0  0  0  0  0
    4.8226    9.8686    0.7071 C   0  0  0  0  0  0  0  0  0  0  0  0
    6.2079    9.8040    0.7170 C   0  0  0  0  0  0  0  0  0  0  0  0
    6.9092    9.8241    1.9443 C   0  0  0  0  0  0  0  0  0  0  0  0
   11.8964   12.0893    0.3187 C   0  0  0  0  0  0  0  0  0  0  0  0
   11.9696   10.5628    0.3698 C   0  0  0  0  0  0  0  0  0  0  0  0
   13.4152   10.1471    0.7475 C   0  0  0  0  0  0  0  0  0  0  0  0
   13.6163    8.6968    0.8571 N   0  0  0  0  0  0  0  0  0  0  0  0
   12.4634    8.0307    1.4778 C   0  0  0  0  0  0  0  0  0  0  0  0
   11.5147    8.9648    2.2499 C   0  0  0  0  0  0  0  0  0  0  0  0
   10.9573   10.0538    1.3783 N   0  0  0  0  0  0  0  0  0  0  0  0
   14.4447    8.5205    1.4255 H   0  0  0  0  0  0  0  0  0  0  0  0
 16 15  1  0
 16 17  1  0
 17 18  1  0
 18 19  1  0
 19 20  1  0
 20 21  1  0
 21  1  1  0
  1  2  2  0
  1  3  2  0
  1  4  1  0
  4  5  2  0
  5  6  1  0
  6  7  1  0
  6  8  2  0
  8  9  1  0
  9 10  2  0
 10 11  1  0
 11 12  2  0
 12 13  1  0
 13 14  2  0
 21 16  1  0
 14  4  1  0
 14  9  1  0
 18 22  1  0
M  END
> <minimizedAffinity>
-8.26171

> <CNNscore>
0.8654785752

> <CNNaffinity>
6.5771327019

> <CNN_VS>
5.6923675537

> <CNNaffinity_variance>
0.1657441109

$$$$



 22 24  0  0  0  0  0  0  0  0999 V2000
    9.3859   10.3304    4.2736 S   0  0  0  0  0  0  0  0  0  0  0  0
    8.5959   10.5712    5.4605 O   0  0  0  0  0  0  0  0  0  0  0  0
   10.3992   11.2755    3.8533 O   0  0  0  0  0  0  0  0  0  0  0  0
    8.2415   10.1077    2.9201 C   0  0  0  0  0  0  0  0  0  0  0  0
    6.8800   10.0099    3.2486 C   0  0  0  0  0  0  0  0  0  0  0  0
    5.9402    9.8554    2.2400 C   0  0  0  0  0  0  0  0  0  0  0  0
    4.2702    9.7476    2.6358 Cl  0  0  0  0  0  0  0  0  0  0  0  0
    6.3392    9.7941    0.9093 C   0  0  0  0  0  0  0  0  0  0  0  0
    7.6999    9.8807    0.5692 C   0  0  0  0  0  0  0  0  0  0  0  0
    8.1106    9.8170   -0.7650 C   0  0  0  0  0  0  0  0  0  0  0  0
    9.3929    9.8895   -1.1803 N   0  0  0  0  0  0  0  0  0  0  0  0
   10.3247   10.0217   -0.2206 C   0  0  0  0  0  0  0  0  0  0  0  0
   10.0303   10.0975    1.1325 C   0  0  0  0  0  0  0  0  0  0  0  0
    8.6876   10.0337    1.5700 C   0  0  0  0  0  0  0  0  0  0  0  0
   12.6023    9.0682    4.1795 C   0  0  0  0  0  0  0  0  0  0  0  0
   11.3268    8.6252    3.4620 C   0  0  0  0  0  0  0  0  0  0  0  0
   11.4948    7.1493    3.0158 C   0  0  0  0  0  0  0  0  0  0  0  0
   10.3222    6.5888    2.3327 N   0  0  0  0  0  0  0  0  0  0  0  0
    9.0654    7.0444    2.9418 C   0  0  0  0  0  0  0  0  0  0  0  0
    9.2070    7.6268    4.3594 C   0  0  0  0  0  0  0  0  0  0  0  0
   10.1476    8.7973    4.4004 N   0  0  0  0  0  0  0  0  0  0  0  0
   10.3646    5.5711    2.3855 H   0  0  0  0  0  0  0  0  0  0  0  0
 16 15  1  0
 16 17  1  0
 17 18  1  0
 18 19  1  0
 19 20  1  0
 20 21  1  0
 21  1  1  0
  1  2  2  0
  1  3  2  0
  1  4  1  0
  4  5  2  0
  5  6  1  0
  6  7  1  0
  6  8  2  0
  8  9  1  0
  9 10  2  0
 10 11  1  0
 11 12  2  0
 12 13  1  0
 13 14  2  0
 21 16  1  0
 14  4  1  0
 14  9  1  0
 18 22  1  0
M  END
> <minimizedAffinity>
-7.80343

> <CNNscore>
0.8298398852

> <CNNaffinity>
5.6101584435

> <CNN_VS>
4.6555333138

> <CNNaffinity_variance>
0.8812157512

$$$$



 22 24  0  0  0  0  0  0  0  0999 V2000
    9.5681    9.7316    0.5854 S   0  0  0  0  0  0  0  0  0  0  0  0
    9.4227   11.0177   -0.0595 O   0  0  0  0  0  0  0  0  0  0  0  0
    9.2535    8.5080   -0.1219 O   0  0  0  0  0  0  0  0  0  0  0  0
    8.5826    9.7790    2.0746 C   0  0  0  0  0  0  0  0  0  0  0  0
    9.2745    9.7457    3.2959 C   0  0  0  0  0  0  0  0  0  0  0  0
    8.5662    9.7992    4.4874 C   0  0  0  0  0  0  0  0  0  0  0  0
    9.4093    9.7712    5.9859 Cl  0  0  0  0  0  0  0  0  0  0  0  0
    7.1782    9.8825    4.4782 C   0  0  0  0  0  0  0  0  0  0  0  0
    6.4743    9.9064    3.2622 C   0  0  0  0  0  0  0  0  0  0  0  0
    5.0794    9.9868    3.2430 C   0  0  0  0  0  0  0  0  0  0  0  0
    4.3248   10.0128    2.1241 N   0  0  0  0  0  0  0  0  0  0  0  0
    4.9864    9.9444    0.9561 C   0  0  0  0  0  0  0  0  0  0  0  0
    6.3674    9.8643    0.8576 C   0  0  0  0  0  0  0  0  0  0  0  0
    7.1613    9.8487    2.0271 C   0  0  0  0  0  0  0  0  0  0  0  0
   11.4407    7.3578    2.2606 C   0  0  0  0  0  0  0  0  0  0  0  0
   11.2560    8.8546    2.5129 C   0  0  0  0  0  0  0  0  0  0  0  0
   12.4469    9.3653    3.3652 C   0  0  0  0  0  0  0  0  0  0  0  0
   12.4052   10.8033    3.6587 N   0  0  0  0  0  0  0  0  0  0  0  0
   11.9234   11.5818    2.5099 C   0  0  0  0  0  0  0  0  0  0  0  0
   11.9729   10.8428    1.1607 C   0  0  0  0  0  0  0  0  0  0  0  0
   11.1707    9.5730    1.1797 N   0  0  0  0  0  0  0  0  0  0  0  0
   13.3449   11.1183    3.9001 H   0  0  0  0  0  0  0  0  0  0  0  0
 16 15  1  0
 16 17  1  0
 17 18  1  0
 18 19  1  0
 19 20  1  0
 20 21  1  0
 21  1  1  0
  1  2  2  0
  1  3  2  0
  1  4  1  0
  4  5  2  0
  5  6  1  0
  6  7  1  0
  6  8  2  0
  8  9  1  0
  9 10  2  0
 10 11  1  0
 11 12  2  0
 12 13  1  0
 13 14  2  0
 21 16  1  0
 14  4  1  0
 14  9  1  0
 18 22  1  0
M  END
> <minimizedAffinity>
-8.20773

> <CNNscore>
0.7345890999

> <CNNaffinity>
6.2891178131

> <CNN_VS>
4.6199173927

> <CNNaffinity_variance>
0.3412753642

$$$$



 22 24  0  0  0  0  0  0  0  0999 V2000
   10.2673    9.4894    3.2319 S   0  0  0  0  0  0  0  0  0  0  0  0
   10.1485    8.2695    3.9990 O   0  0  0  0  0  0  0  0  0  0  0  0
   10.5963   10.7426    3.8784 O   0  0  0  0  0  0  0  0  0  0  0  0
    8.7268    9.7073    2.3541 C   0  0  0  0  0  0  0  0  0  0  0  0
    8.7857    9.6831    0.9515 C   0  0  0  0  0  0  0  0  0  0  0  0
    7.6201    9.8276    0.2133 C   0  0  0  0  0  0  0  0  0  0  0  0
    7.6848    9.7863   -1.5047 Cl  0  0  0  0  0  0  0  0  0  0  0  0
    6.3977    9.9985    0.8538 C   0  0  0  0  0  0  0  0  0  0  0  0
    6.3278   10.0344    2.2568 C   0  0  0  0  0  0  0  0  0  0  0  0
    5.1045   10.2088    2.9092 C   0  0  0  0  0  0  0  0  0  0  0  0
    4.9462   10.2574    4.2489 N   0  0  0  0  0  0  0  0  0  0  0  0
    6.0632   10.1375    4.9868 C   0  0  0  0  0  0  0  0  0  0  0  0
    7.3275    9.9586    4.4455 C   0  0  0  0  0  0  0  0  0  0  0  0
    7.4953    9.8955    3.0433 C   0  0  0  0  0  0  0  0  0  0  0  0
   12.7664    7.2367    2.4399 C   0  0  0  0  0  0  0  0  0  0  0  0
   12.7590    8.7656    2.4562 C   0  0  0  0  0  0  0  0  0  0  0  0
   13.9139    9.2777    1.5566 C   0  0  0  0  0  0  0  0  0  0  0  0
   14.0025   10.7403    1.4636 N   0  0  0  0  0  0  0  0  0  0  0  0
   12.6746   11.3651    1.3985 C   0  0  0  0  0  0  0  0  0  0  0  0
   11.5286   10.4114    1.0165 C   0  0  0  0  0  0  0  0  0  0  0  0
   11.4087    9.2577    1.9708 N   0  0  0  0  0  0  0  0  0  0  0  0
   14.5246   10.9865    0.6226 H   0  0  0  0  0  0  0  0  0  0  0  0
 16 15  1  0
 16 17  1  0
 17 18  1  0
 18 19  1  0
 19 20  1  0
 20 21  1  0
 21  1  1  0
  1  2  2  0
  1  3  2  0
  1  4  1  0
  4  5  2  0
  5  6  1  0
  6  7  1  0
  6  8  2  0
  8  9  1  0
  9 10  2  0
 10 11  1  0
 11 12  2  0
 12 13  1  0
 13 14  2  0
 21 16  1  0
 14  4  1  0
 14  9  1  0
 18 22  1  0
M  END
> <minimizedAffinity>
-8.09867

> <CNNscore>
0.4044213593

> <CNNaffinity>
6.2543768883

> <CNN_VS>
2.5294036865

> <CNNaffinity_variance>
0.0349811278

$$$$



 22 24  0  0  0  0  0  0  0  0999 V2000
    9.8255    8.5762    0.9788 S   0  0  0  0  0  0  0  0  0  0  0  0
    9.5446    8.8308   -0.4166 O   0  0  0  0  0  0  0  0  0  0  0  0
   10.0491    7.2274    1.4557 O   0  0  0  0  0  0  0  0  0  0  0  0
    8.4800    9.2800    1.9198 C   0  0  0  0  0  0  0  0  0  0  0  0
    7.3320    9.6553    1.2041 C   0  0  0  0  0  0  0  0  0  0  0  0
    6.2456   10.1901    1.8811 C   0  0  0  0  0  0  0  0  0  0  0  0
    4.8323   10.6401    1.0109 Cl  0  0  0  0  0  0  0  0  0  0  0  0
    6.2893   10.3584    3.2607 C   0  0  0  0  0  0  0  0  0  0  0  0
    7.4367    9.9958    3.9864 C   0  0  0  0  0  0  0  0  0  0  0  0
    7.4909   10.1640    5.3726 C   0  0  0  0  0  0  0  0  0  0  0  0
    8.5503    9.8457    6.1461 N   0  0  0  0  0  0  0  0  0  0  0  0
    9.6228    9.3418    5.5117 C   0  0  0  0  0  0  0  0  0  0  0  0
    9.6778    9.1306    4.1421 C   0  0  0  0  0  0  0  0  0  0  0  0
    8.5658    9.4519    3.3306 C   0  0  0  0  0  0  0  0  0  0  0  0
   11.1766   11.6715    0.2434 C   0  0  0  0  0  0  0  0  0  0  0  0
   11.8214   10.2878    0.3303 C   0  0  0  0  0  0  0  0  0  0  0  0
   13.3470   10.4633    0.5471 C   0  0  0  0  0  0  0  0  0  0  0  0
   14.0869    9.2015    0.6747 N   0  0  0  0  0  0  0  0  0  0  0  0
   13.3349    8.2028    1.4462 C   0  0  0  0  0  0  0  0  0  0  0  0
   12.1861    8.7729    2.2970 C   0  0  0  0  0  0  0  0  0  0  0  0
   11.1782    9.5141    1.4655 N   0  0  0  0  0  0  0  0  0  0  0  0
   14.9725    9.3845    1.1464 H   0  0  0  0  0  0  0  0  0  0  0  0
 16 15  1  0
 16 17  1  0
 17 18  1  0
 18 19  1  0
 19 20  1  0
 20 21  1  0
 21  1  1  0
  1  2  2  0
  1  3  2  0
  1  4  1  0
  4  5  2  0
  5  6  1  0
  6  7  1  0
  6  8  2  0
  8  9  1  0
  9 10  2  0
 10 11  1  0
 11 12  2  0
 12 13  1  0
 13 14  2  0
 21 16  1  0
 14  4  1  0
 14  9  1  0
 18 22  1  0
M  END
> <minimizedAffinity>
-7.92407

> <CNNscore>
0.3474120498

> <CNNaffinity>
5.2678198814

> <CNN_VS>
1.8301041126

> <CNNaffinity_variance>
0.6097971797

$$$$



 22 24  0  0  0  0  0  0  0  0999 V2000
    9.3546    8.7334    4.6281 S   0  0  0  0  0  0  0  0  0  0  0  0
    9.2523    7.2956    4.7425 O   0  0  0  0  0  0  0  0  0  0  0  0
    9.6744    9.5479    5.7817 O   0  0  0  0  0  0  0  0  0  0  0  0
    7.8072    9.3155    3.9514 C   0  0  0  0  0  0  0  0  0  0  0  0
    6.7690    9.5654    4.8630 C   0  0  0  0  0  0  0  0  0  0  0  0
    5.5491   10.0375    4.4010 C   0  0  0  0  0  0  0  0  0  0  0  0
    4.2781   10.3570    5.5144 Cl  0  0  0  0  0  0  0  0  0  0  0  0
    5.3493   10.2610    3.0431 C   0  0  0  0  0  0  0  0  0  0  0  0
    6.3777   10.0049    2.1203 C   0  0  0  0  0  0  0  0  0  0  0  0
    6.1851   10.2235    0.7537 C   0  0  0  0  0  0  0  0  0  0  0  0
    7.1146   10.0030   -0.1999 N   0  0  0  0  0  0  0  0  0  0  0  0
    8.3000    9.5285    0.2201 C   0  0  0  0  0  0  0  0  0  0  0  0
    8.6006    9.2775    1.5505 C   0  0  0  0  0  0  0  0  0  0  0  0
    7.6334    9.5184    2.5529 C   0  0  0  0  0  0  0  0  0  0  0  0
   10.8165    7.1695    1.9143 C   0  0  0  0  0  0  0  0  0  0  0  0
   11.4276    7.9840    3.0550 C   0  0  0  0  0  0  0  0  0  0  0  0
   12.8200    8.4997    2.6068 C   0  0  0  0  0  0  0  0  0  0  0  0
   13.5083    9.3243    3.6078 N   0  0  0  0  0  0  0  0  0  0  0  0
   12.5779   10.2126    4.3172 C   0  0  0  0  0  0  0  0  0  0  0  0
   11.2218   10.4201    3.6194 C   0  0  0  0  0  0  0  0  0  0  0  0
   10.4913    9.1255    3.4030 N   0  0  0  0  0  0  0  0  0  0  0  0
   14.2139    9.8922    3.1388 H   0  0  0  0  0  0  0  0  0  0  0  0
 16 15  1  0
 16 17  1  0
 17 18  1  0
 18 19  1  0
 19 20  1  0
 20 21  1  0
 21  1  1  0
  1  2  2  0
  1  3  2  0
  1  4  1  0
  4  5  2  0
  5  6  1  0
  6  7  1  0
  6  8  2  0
  8  9  1  0
  9 10  2  0
 10 11  1  0
 11 12  2  0
 12 13  1  0
 13 14  2  0
 21 16  1  0
 14  4  1  0
 14  9  1  0
 18 22  1  0
M  END
> <minimizedAffinity>
-8.63964

> <CNNscore>
0.2943549156

> <CNNaffinity>
5.5990753174

> <CNN_VS>
1.6481153965

> <CNNaffinity_variance>
0.2406327724

$$$$



 22 24  0  0  0  0  0  0  0  0999 V2000
   11.6739   10.5880    1.9476 S   0  0  0  0  0  0  0  0  0  0  0  0
   11.8441   11.6683    2.8936 O   0  0  0  0  0  0  0  0  0  0  0  0
   12.2140   10.6843    0.6076 O   0  0  0  0  0  0  0  0  0  0  0  0
    9.9193   10.2795    1.8163 C   0  0  0  0  0  0  0  0  0  0  0  0
    9.4073   10.0599    0.5276 C   0  0  0  0  0  0  0  0  0  0  0  0
    8.0556    9.7958    0.3620 C   0  0  0  0  0  0  0  0  0  0  0  0
    7.4255    9.5138   -1.2130 Cl  0  0  0  0  0  0  0  0  0  0  0  0
    7.2072    9.7505    1.4629 C   0  0  0  0  0  0  0  0  0  0  0  0
    7.7063    9.9787    2.7565 C   0  0  0  0  0  0  0  0  0  0  0  0
    6.8609    9.9383    3.8683 C   0  0  0  0  0  0  0  0  0  0  0  0
    7.2540   10.1470    5.1427 N   0  0  0  0  0  0  0  0  0  0  0  0
    8.5565   10.4224    5.3282 C   0  0  0  0  0  0  0  0  0  0  0  0
    9.4838   10.4854    4.2989 C   0  0  0  0  0  0  0  0  0  0  0  0
    9.0777   10.2558    2.9645 C   0  0  0  0  0  0  0  0  0  0  0  0
   10.8023    7.2437    2.0035 C   0  0  0  0  0  0  0  0  0  0  0  0
   11.1924    8.2002    3.1308 C   0  0  0  0  0  0  0  0  0  0  0  0
   11.6680    7.3654    4.3483 C   0  0  0  0  0  0  0  0  0  0  0  0
   12.0995    8.1692    5.4988 N   0  0  0  0  0  0  0  0  0  0  0  0
   12.8408    9.3668    5.0815 C   0  0  0  0  0  0  0  0  0  0  0  0
   13.3760    9.3267    3.6390 C   0  0  0  0  0  0  0  0  0  0  0  0
   12.2784    9.1343    2.6318 N   0  0  0  0  0  0  0  0  0  0  0  0
   12.7013    7.5988    6.0928 H   0  0  0  0  0  0  0  0  0  0  0  0
 16 15  1  0
 16 17  1  0
 17 18  1  0
 18 19  1  0
 19 20  1  0
 20 21  1  0
 21  1  1  0
  1  2  2  0
  1  3  2  0
  1  4  1  0
  4  5  2  0
  5  6  1  0
  6  7  1  0
  6  8  2  0
  8  9  1  0
  9 10  2  0
 10 11  1  0
 11 12  2  0
 12 13  1  0
 13 14  2  0
 21 16  1  0
 14  4  1  0
 14  9  1  0
 18 22  1  0
M  END
> <minimizedAffinity>
-7.26550

> <CNNscore>
0.2089518756

> <CNNaffinity>
5.3584218025

> <CNN_VS>
1.1196522713

> <CNNaffinity_variance>
0.3609151542

$$$$
