


 46 50  0  0  0  0  0  0  0  0999 V2000
   13.4154    4.6961   12.6293 C   0  0  0  0  0  0  0  0  0  0  0  0
   14.0647    4.7166   11.4073 C   0  0  0  0  0  0  0  0  0  0  0  0
   13.4730    4.6719   10.0400 C   0  0  0  0  0  0  0  0  0  0  0  0
   15.4244    4.7867   11.6679 N   0  0  0  0  0  0  0  0  0  0  0  0
   15.6350    4.8848   13.0406 C   0  0  0  0  0  0  0  0  0  0  0  0
   16.8173    5.0267   13.7928 C   0  0  0  0  0  0  0  0  0  0  0  0
   16.7139    5.0706   15.1867 C   0  0  0  0  0  0  0  0  0  0  0  0
   15.4910    4.9339   15.8279 C   0  0  0  0  0  0  0  0  0  0  0  0
   14.3200    4.8060   15.0770 C   0  0  0  0  0  0  0  0  0  0  0  0
   14.3850    4.7933   13.6638 C   0  0  0  0  0  0  0  0  0  0  0  0
    9.3631    2.3149   15.1541 C   0  0  0  0  0  0  0  0  0  0  0  0
   10.7063    1.9325   15.2545 C   0  0  0  0  0  0  0  0  0  0  0  0
   11.7108    2.6053   14.5354 C   0  0  0  0  0  0  0  0  0  0  0  0
   11.3414    3.6775   13.7040 C   0  0  0  0  0  0  0  0  0  0  0  0
   11.9731    4.6178   12.8539 C   0  0  0  0  0  0  0  0  0  0  0  0
   11.1015    5.4815   12.3159 N   0  0  0  0  0  0  0  0  0  0  0  0
    9.8580    5.0902   12.7953 O   0  0  0  0  0  0  0  0  0  0  0  0
   10.0051    4.0260   13.6291 C   0  0  0  0  0  0  0  0  0  0  0  0
    8.9865    3.3773   14.3206 C   0  0  0  0  0  0  0  0  0  0  0  0
    8.4796    1.5097   17.2143 C   0  0  0  0  0  0  0  0  0  0  0  0
    8.3173    1.7279   15.8173 O   0  0  0  0  0  0  0  0  0  0  0  0
   16.4866    4.8839   10.6585 C   0  0  0  0  0  0  0  0  0  0  0  0
   16.8486    6.2986   10.2687 C   0  0  0  0  0  0  0  0  0  0  0  0
   16.0735    7.3585   10.7820 C   0  0  0  0  0  0  0  0  0  0  0  0
   16.3457    8.6812   10.4348 C   0  0  0  0  0  0  0  0  0  0  0  0
   17.4427    8.9821    9.6377 C   0  0  0  0  0  0  0  0  0  0  0  0
   18.2373    7.9522    9.1408 C   0  0  0  0  0  0  0  0  0  0  0  0
   17.9439    6.6190    9.4501 C   0  0  0  0  0  0  0  0  0  0  0  0
   19.0120    5.4197    8.8261 Cl  0  0  0  0  0  0  0  0  0  0  0  0
   15.6142    9.7323   10.9107 O   0  0  0  0  0  0  0  0  0  0  0  0
   15.0812   10.6034    9.8970 C   0  0  0  0  0  0  0  0  0  0  0  0
   14.2074    9.8068    8.9341 C   0  0  0  0  0  0  0  0  0  0  0  0
   16.2561   11.3677    9.2386 C   0  0  0  0  0  0  0  0  0  0  0  0
   16.1540   12.9065    8.9038 C   0  0  0  0  0  0  0  0  0  0  0  0
   15.3972   12.9867    7.5507 C   0  0  0  0  0  0  0  0  0  0  0  0
   15.3066   13.6433    9.9450 C   0  0  0  0  0  0  0  0  0  0  0  0
   17.5988   13.4827    8.7051 C   0  0  0  0  0  0  0  0  0  0  0  0
   18.5276   13.1172    7.5029 C   0  0  0  0  0  0  0  0  0  0  0  0
   18.9170   11.6362    7.4473 C   0  0  0  0  0  0  0  0  0  0  0  0
   17.9231   13.5452    6.1525 C   0  0  0  0  0  0  0  0  0  0  0  0
   19.8363   13.9291    7.6849 C   0  0  0  0  0  0  0  0  0  0  0  0
   17.8449    5.1509   15.9539 O   0  0  0  0  0  0  0  0  0  0  0  0
   18.1576    3.8879   16.5339 C   0  0  0  0  0  0  0  0  0  0  0  0
   17.4431    2.9339   15.8971 F   0  0  0  0  0  0  0  0  0  0  0  0
   17.8315    3.8490   17.8449 F   0  0  0  0  0  0  0  0  0  0  0  0
   19.4690    3.5933   16.3912 F   0  0  0  0  0  0  0  0  0  0  0  0
 20 21  1  0
 21 11  1  0
 11 12  2  0
 12 13  1  0
 13 14  2  0
 14 15  1  0
 15  1  1  0
  1  2  2  0
  2  3  1  0
  2  4  1  0
  4 22  1  0
 22 23  1  0
 23 24  2  0
 24 25  1  0
 25 30  1  0
 30 31  1  0
 31 32  1  0
 31 33  1  0
 33 34  1  0
 34 35  1  0
 34 36  1  0
 34 37  1  0
 37 38  1  0
 38 39  1  0
 38 40  1  0
 38 41  1  0
 25 26  2  0
 26 27  1  0
 27 28  2  0
 28 29  1  0
  4  5  1  0
  5  6  2  0
  6  7  1  0
  7 42  1  0
 42 43  1  0
 43 44  1  0
 43 45  1  0
 43 46  1  0
  7  8  2  0
  8  9  1  0
  9 10  2  0
 15 16  2  0
 16 17  1  0
 17 18  1  0
 18 19  2  0
 19 11  1  0
 18 14  1  0
 10  1  1  0
 28 23  1  0
 10  5  1  0
M  END
> <minimizedAffinity>
-10.94419

> <CNNscore>
0.9686933160

> <CNNaffinity>
8.6557073593

> <CNN_VS>
8.3847255707

> <CNNaffinity_variance>
0.9817983508

$$$$



 46 50  0  0  0  0  0  0  0  0999 V2000
   13.7962    4.6503   12.5557 C   0  0  0  0  0  0  0  0  0  0  0  0
   14.4288    4.6532   11.3249 C   0  0  0  0  0  0  0  0  0  0  0  0
   13.8182    4.5989    9.9662 C   0  0  0  0  0  0  0  0  0  0  0  0
   15.7925    4.7154   11.5661 N   0  0  0  0  0  0  0  0  0  0  0  0
   16.0226    4.8260   12.9348 C   0  0  0  0  0  0  0  0  0  0  0  0
   17.2161    4.9666   13.6693 C   0  0  0  0  0  0  0  0  0  0  0  0
   17.1322    5.0256   15.0639 C   0  0  0  0  0  0  0  0  0  0  0  0
   15.9172    4.9050   15.7231 C   0  0  0  0  0  0  0  0  0  0  0  0
   14.7351    4.7785   14.9896 C   0  0  0  0  0  0  0  0  0  0  0  0
   14.7806    4.7506   13.5759 C   0  0  0  0  0  0  0  0  0  0  0  0
    9.7531    2.2748   15.1005 C   0  0  0  0  0  0  0  0  0  0  0  0
   11.0928    1.8746   15.1741 C   0  0  0  0  0  0  0  0  0  0  0  0
   12.0946    2.5476   14.4515 C   0  0  0  0  0  0  0  0  0  0  0  0
   11.7261    3.6383   13.6441 C   0  0  0  0  0  0  0  0  0  0  0  0
   12.3566    4.5854   12.8008 C   0  0  0  0  0  0  0  0  0  0  0  0
   11.4877    5.4687   12.2908 N   0  0  0  0  0  0  0  0  0  0  0  0
   10.2468    5.0842   12.7822 O   0  0  0  0  0  0  0  0  0  0  0  0
   10.3932    4.0041   13.5954 C   0  0  0  0  0  0  0  0  0  0  0  0
    9.3772    3.3559   14.2911 C   0  0  0  0  0  0  0  0  0  0  0  0
    8.7888    1.6608   17.1902 C   0  0  0  0  0  0  0  0  0  0  0  0
    8.7101    1.6891   15.7694 O   0  0  0  0  0  0  0  0  0  0  0  0
   16.8415    4.7940   10.5415 C   0  0  0  0  0  0  0  0  0  0  0  0
   17.1542    6.1974   10.0757 C   0  0  0  0  0  0  0  0  0  0  0  0
   16.2970    7.2451   10.4698 C   0  0  0  0  0  0  0  0  0  0  0  0
   16.5222    8.5549   10.0479 C   0  0  0  0  0  0  0  0  0  0  0  0
   17.6486    8.8618    9.2951 C   0  0  0  0  0  0  0  0  0  0  0  0
   18.5226    7.8461    8.9164 C   0  0  0  0  0  0  0  0  0  0  0  0
   18.2790    6.5223    9.3000 C   0  0  0  0  0  0  0  0  0  0  0  0
   19.4420    5.3444    8.8219 Cl  0  0  0  0  0  0  0  0  0  0  0  0
   15.7113    9.5936   10.4078 O   0  0  0  0  0  0  0  0  0  0  0  0
   14.5024    9.7097    9.6359 C   0  0  0  0  0  0  0  0  0  0  0  0
   13.8068    8.3553    9.5528 C   0  0  0  0  0  0  0  0  0  0  0  0
   14.8508   10.3541    8.2715 C   0  0  0  0  0  0  0  0  0  0  0  0
   14.6243   11.8929    8.0049 C   0  0  0  0  0  0  0  0  0  0  0  0
   15.8977   12.5985    8.5443 C   0  0  0  0  0  0  0  0  0  0  0  0
   14.5406   12.1872    6.5044 C   0  0  0  0  0  0  0  0  0  0  0  0
   13.3897   12.3794    8.8402 C   0  0  0  0  0  0  0  0  0  0  0  0
   13.4631   13.4770    9.9499 C   0  0  0  0  0  0  0  0  0  0  0  0
   14.3110   13.0781   11.1623 C   0  0  0  0  0  0  0  0  0  0  0  0
   13.9530   14.8284    9.3969 C   0  0  0  0  0  0  0  0  0  0  0  0
   12.0143   13.6994   10.4566 C   0  0  0  0  0  0  0  0  0  0  0  0
   18.2742    5.1050   15.8147 O   0  0  0  0  0  0  0  0  0  0  0  0
   18.6404    3.8251   16.3218 C   0  0  0  0  0  0  0  0  0  0  0  0
   19.6546    3.9851   17.2003 F   0  0  0  0  0  0  0  0  0  0  0  0
   19.0665    3.0038   15.3366 F   0  0  0  0  0  0  0  0  0  0  0  0
   17.6100    3.2424   16.9741 F   0  0  0  0  0  0  0  0  0  0  0  0
 20 21  1  0
 21 11  1  0
 11 12  2  0
 12 13  1  0
 13 14  2  0
 14 15  1  0
 15  1  1  0
  1  2  2  0
  2  3  1  0
  2  4  1  0
  4 22  1  0
 22 23  1  0
 23 24  2  0
 24 25  1  0
 25 30  1  0
 30 31  1  0
 31 32  1  0
 31 33  1  0
 33 34  1  0
 34 35  1  0
 34 36  1  0
 34 37  1  0
 37 38  1  0
 38 39  1  0
 38 40  1  0
 38 41  1  0
 25 26  2  0
 26 27  1  0
 27 28  2  0
 28 29  1  0
  4  5  1  0
  5  6  2  0
  6  7  1  0
  7 42  1  0
 42 43  1  0
 43 44  1  0
 43 45  1  0
 43 46  1  0
  7  8  2  0
  8  9  1  0
  9 10  2  0
 15 16  2  0
 16 17  1  0
 17 18  1  0
 18 19  2  0
 19 11  1  0
 18 14  1  0
 10  1  1  0
 28 23  1  0
 10  5  1  0
M  END
> <minimizedAffinity>
-11.12006

> <CNNscore>
0.9339242578

> <CNNaffinity>
8.5580091476

> <CNN_VS>
7.9925322533

> <CNNaffinity_variance>
1.2544752359

$$$$



 46 50  0  0  0  0  0  0  0  0999 V2000
   13.4483    4.7471   12.5838 C   0  0  0  0  0  0  0  0  0  0  0  0
   14.0830    4.8372   11.3574 C   0  0  0  0  0  0  0  0  0  0  0  0
   13.4777    4.8305    9.9953 C   0  0  0  0  0  0  0  0  0  0  0  0
   15.4429    4.9375   11.6070 N   0  0  0  0  0  0  0  0  0  0  0  0
   15.6658    4.9857   12.9804 C   0  0  0  0  0  0  0  0  0  0  0  0
   16.8517    5.1324   13.7260 C   0  0  0  0  0  0  0  0  0  0  0  0
   16.7627    5.1162   15.1215 C   0  0  0  0  0  0  0  0  0  0  0  0
   15.5516    4.9165   15.7687 C   0  0  0  0  0  0  0  0  0  0  0  0
   14.3767    4.7842   15.0248 C   0  0  0  0  0  0  0  0  0  0  0  0
   14.4261    4.8312   13.6118 C   0  0  0  0  0  0  0  0  0  0  0  0
    9.5008    2.1768   15.0889 C   0  0  0  0  0  0  0  0  0  0  0  0
   10.8566    1.8367   15.1685 C   0  0  0  0  0  0  0  0  0  0  0  0
   11.8315    2.5584   14.4562 C   0  0  0  0  0  0  0  0  0  0  0  0
   11.4193    3.6365   13.6531 C   0  0  0  0  0  0  0  0  0  0  0  0
   12.0116    4.6162   12.8194 C   0  0  0  0  0  0  0  0  0  0  0  0
   11.1071    5.4628   12.3093 N   0  0  0  0  0  0  0  0  0  0  0  0
    9.8818    5.0200   12.7905 O   0  0  0  0  0  0  0  0  0  0  0  0
   10.0716    3.9424   13.5982 C   0  0  0  0  0  0  0  0  0  0  0  0
    9.0815    3.2449   14.2836 C   0  0  0  0  0  0  0  0  0  0  0  0
    8.5022    1.5888   17.1699 C   0  0  0  0  0  0  0  0  0  0  0  0
    8.4811    1.5407   15.7476 O   0  0  0  0  0  0  0  0  0  0  0  0
   16.4904    5.1079   10.5920 C   0  0  0  0  0  0  0  0  0  0  0  0
   16.7751    6.5462   10.2253 C   0  0  0  0  0  0  0  0  0  0  0  0
   15.9440    7.5542   10.7552 C   0  0  0  0  0  0  0  0  0  0  0  0
   16.1440    8.8951   10.4297 C   0  0  0  0  0  0  0  0  0  0  0  0
   17.2230    9.2678    9.6382 C   0  0  0  0  0  0  0  0  0  0  0  0
   18.0720    8.2906    9.1252 C   0  0  0  0  0  0  0  0  0  0  0  0
   17.8512    6.9386    9.4126 C   0  0  0  0  0  0  0  0  0  0  0  0
   18.9825    5.8092    8.7700 Cl  0  0  0  0  0  0  0  0  0  0  0  0
   15.3569    9.8972   10.9221 O   0  0  0  0  0  0  0  0  0  0  0  0
   14.6639   10.6656    9.9221 C   0  0  0  0  0  0  0  0  0  0  0  0
   14.7711    9.9731    8.5678 C   0  0  0  0  0  0  0  0  0  0  0  0
   15.1983   12.1185    9.9611 C   0  0  0  0  0  0  0  0  0  0  0  0
   14.2236   13.3520   10.0985 C   0  0  0  0  0  0  0  0  0  0  0  0
   14.3036   14.0965    8.7386 C   0  0  0  0  0  0  0  0  0  0  0  0
   12.7744   12.8930   10.2829 C   0  0  0  0  0  0  0  0  0  0  0  0
   14.7601   14.3036   11.2234 C   0  0  0  0  0  0  0  0  0  0  0  0
   14.1530   15.7074   11.5435 C   0  0  0  0  0  0  0  0  0  0  0  0
   14.5891   16.2781   12.8970 C   0  0  0  0  0  0  0  0  0  0  0  0
   14.4439   16.7320   10.4310 C   0  0  0  0  0  0  0  0  0  0  0  0
   12.6135   15.5283   11.5957 C   0  0  0  0  0  0  0  0  0  0  0  0
   17.8994    5.1991   15.8800 O   0  0  0  0  0  0  0  0  0  0  0  0
   18.2990    3.9118   16.3411 C   0  0  0  0  0  0  0  0  0  0  0  0
   17.3469    3.0171   15.9959 F   0  0  0  0  0  0  0  0  0  0  0  0
   18.4302    3.8846   17.6860 F   0  0  0  0  0  0  0  0  0  0  0  0
   19.4621    3.5255   15.7712 F   0  0  0  0  0  0  0  0  0  0  0  0
 20 21  1  0
 21 11  1  0
 11 12  2  0
 12 13  1  0
 13 14  2  0
 14 15  1  0
 15  1  1  0
  1  2  2  0
  2  3  1  0
  2  4  1  0
  4 22  1  0
 22 23  1  0
 23 24  2  0
 24 25  1  0
 25 30  1  0
 30 31  1  0
 31 32  1  0
 31 33  1  0
 33 34  1  0
 34 35  1  0
 34 36  1  0
 34 37  1  0
 37 38  1  0
 38 39  1  0
 38 40  1  0
 38 41  1  0
 25 26  2  0
 26 27  1  0
 27 28  2  0
 28 29  1  0
  4  5  1  0
  5  6  2  0
  6  7  1  0
  7 42  1  0
 42 43  1  0
 43 44  1  0
 43 45  1  0
 43 46  1  0
  7  8  2  0
  8  9  1  0
  9 10  2  0
 15 16  2  0
 16 17  1  0
 17 18  1  0
 18 19  2  0
 19 11  1  0
 18 14  1  0
 10  1  1  0
 28 23  1  0
 10  5  1  0
M  END
> <minimizedAffinity>
-11.24649

> <CNNscore>
0.9293849468

> <CNNaffinity>
8.3707332611

> <CNN_VS>
7.7796335220

> <CNNaffinity_variance>
1.0628556013

$$$$



 46 50  0  0  0  0  0  0  0  0999 V2000
   13.3777    4.0248   13.3070 C   0  0  0  0  0  0  0  0  0  0  0  0
   13.2627    4.9351   12.2710 C   0  0  0  0  0  0  0  0  0  0  0  0
   12.1125    5.1520   11.3482 C   0  0  0  0  0  0  0  0  0  0  0  0
   14.4492    5.6503   12.2215 N   0  0  0  0  0  0  0  0  0  0  0  0
   15.2824    5.2503   13.2627 C   0  0  0  0  0  0  0  0  0  0  0  0
   16.5546    5.7032   13.6629 C   0  0  0  0  0  0  0  0  0  0  0  0
   17.1680    5.0766   14.7521 C   0  0  0  0  0  0  0  0  0  0  0  0
   16.5717    4.0061   15.4032 C   0  0  0  0  0  0  0  0  0  0  0  0
   15.3044    3.5690   15.0105 C   0  0  0  0  0  0  0  0  0  0  0  0
   14.6402    4.2036   13.9346 C   0  0  0  0  0  0  0  0  0  0  0  0
    8.2259    2.9141   14.1377 C   0  0  0  0  0  0  0  0  0  0  0  0
    8.7230    4.1599   13.7361 C   0  0  0  0  0  0  0  0  0  0  0  0
   10.1026    4.3710   13.5600 C   0  0  0  0  0  0  0  0  0  0  0  0
   10.9840    3.3016   13.7980 C   0  0  0  0  0  0  0  0  0  0  0  0
   12.3758    3.0484   13.7308 C   0  0  0  0  0  0  0  0  0  0  0  0
   12.6767    1.7806   14.0426 N   0  0  0  0  0  0  0  0  0  0  0  0
   11.4616    1.1835   14.3525 O   0  0  0  0  0  0  0  0  0  0  0  0
   10.4567    2.0860   14.1945 C   0  0  0  0  0  0  0  0  0  0  0  0
    9.0993    1.8459   14.3850 C   0  0  0  0  0  0  0  0  0  0  0  0
    5.9888    3.0479   13.3306 C   0  0  0  0  0  0  0  0  0  0  0  0
    6.9034    2.6096   14.3292 O   0  0  0  0  0  0  0  0  0  0  0  0
   14.7439    6.7591   11.3049 C   0  0  0  0  0  0  0  0  0  0  0  0
   16.0298    6.5998   10.5268 C   0  0  0  0  0  0  0  0  0  0  0  0
   16.7983    7.7493   10.2520 C   0  0  0  0  0  0  0  0  0  0  0  0
   17.9794    7.6648    9.5156 C   0  0  0  0  0  0  0  0  0  0  0  0
   18.4617    6.4271    9.1094 C   0  0  0  0  0  0  0  0  0  0  0  0
   17.7315    5.2757    9.3927 C   0  0  0  0  0  0  0  0  0  0  0  0
   16.5229    5.3580   10.0938 C   0  0  0  0  0  0  0  0  0  0  0  0
   15.7165    3.8744   10.4359 Cl  0  0  0  0  0  0  0  0  0  0  0  0
   18.7472    8.7576    9.2284 O   0  0  0  0  0  0  0  0  0  0  0  0
   18.0087    9.9747    9.0194 C   0  0  0  0  0  0  0  0  0  0  0  0
   16.6877    9.6679    8.3222 C   0  0  0  0  0  0  0  0  0  0  0  0
   18.9226   10.9832    8.2806 C   0  0  0  0  0  0  0  0  0  0  0  0
   18.4331   12.4449    7.9423 C   0  0  0  0  0  0  0  0  0  0  0  0
   17.6930   12.3295    6.5825 C   0  0  0  0  0  0  0  0  0  0  0  0
   17.4161   12.9397    8.9748 C   0  0  0  0  0  0  0  0  0  0  0  0
   19.6841   13.3716    7.7552 C   0  0  0  0  0  0  0  0  0  0  0  0
   20.1450   13.9502    6.3789 C   0  0  0  0  0  0  0  0  0  0  0  0
   21.4404   14.7655    6.4508 C   0  0  0  0  0  0  0  0  0  0  0  0
   20.2815   12.8538    5.3058 C   0  0  0  0  0  0  0  0  0  0  0  0
   19.0252   14.9097    5.8986 C   0  0  0  0  0  0  0  0  0  0  0  0
   18.4279    5.4507   15.1354 O   0  0  0  0  0  0  0  0  0  0  0  0
   18.8784    4.6684   16.2373 C   0  0  0  0  0  0  0  0  0  0  0  0
   19.5476    3.5965   15.7584 F   0  0  0  0  0  0  0  0  0  0  0  0
   17.8445    4.2171   16.9818 F   0  0  0  0  0  0  0  0  0  0  0  0
   19.7227    5.3705   17.0253 F   0  0  0  0  0  0  0  0  0  0  0  0
 20 21  1  0
 21 11  1  0
 11 12  2  0
 12 13  1  0
 13 14  2  0
 14 15  1  0
 15  1  1  0
  1  2  2  0
  2  3  1  0
  2  4  1  0
  4 22  1  0
 22 23  1  0
 23 24  2  0
 24 25  1  0
 25 30  1  0
 30 31  1  0
 31 32  1  0
 31 33  1  0
 33 34  1  0
 34 35  1  0
 34 36  1  0
 34 37  1  0
 37 38  1  0
 38 39  1  0
 38 40  1  0
 38 41  1  0
 25 26  2  0
 26 27  1  0
 27 28  2  0
 28 29  1  0
  4  5  1  0
  5  6  2  0
  6  7  1  0
  7 42  1  0
 42 43  1  0
 43 44  1  0
 43 45  1  0
 43 46  1  0
  7  8  2  0
  8  9  1  0
  9 10  2  0
 15 16  2  0
 16 17  1  0
 17 18  1  0
 18 19  2  0
 19 11  1  0
 18 14  1  0
 10  1  1  0
 28 23  1  0
 10  5  1  0
M  END
> <minimizedAffinity>
-10.48310

> <CNNscore>
0.5610003471

> <CNNaffinity>
8.1164922714

> <CNN_VS>
4.5533552170

> <CNNaffinity_variance>
0.8234749436

$$$$



 46 50  0  0  0  0  0  0  0  0999 V2000
   13.5974    4.6059   12.3098 C   0  0  0  0  0  0  0  0  0  0  0  0
   14.3493    4.6092   11.1480 C   0  0  0  0  0  0  0  0  0  0  0  0
   13.8798    4.5067    9.7371 C   0  0  0  0  0  0  0  0  0  0  0  0
   15.6790    4.7266   11.5219 N   0  0  0  0  0  0  0  0  0  0  0  0
   15.7672    4.8714   12.9038 C   0  0  0  0  0  0  0  0  0  0  0  0
   16.8757    5.0700   13.7497 C   0  0  0  0  0  0  0  0  0  0  0  0
   16.6508    5.1520   15.1275 C   0  0  0  0  0  0  0  0  0  0  0  0
   15.3809    4.9987   15.6655 C   0  0  0  0  0  0  0  0  0  0  0  0
   14.2832    4.8145   14.8213 C   0  0  0  0  0  0  0  0  0  0  0  0
   14.4707    4.7619   13.4201 C   0  0  0  0  0  0  0  0  0  0  0  0
    8.8121    6.1478   10.5241 C   0  0  0  0  0  0  0  0  0  0  0  0
   10.0372    6.6584   10.0781 C   0  0  0  0  0  0  0  0  0  0  0  0
   11.2545    6.2080   10.6202 C   0  0  0  0  0  0  0  0  0  0  0  0
   11.2220    5.2286   11.6286 C   0  0  0  0  0  0  0  0  0  0  0  0
   12.1436    4.4921   12.4122 C   0  0  0  0  0  0  0  0  0  0  0  0
   11.5342    3.6213   13.2279 N   0  0  0  0  0  0  0  0  0  0  0  0
   10.1754    3.8018   13.0037 O   0  0  0  0  0  0  0  0  0  0  0  0
    9.9935    4.7485   12.0445 C   0  0  0  0  0  0  0  0  0  0  0  0
    8.7716    5.1774   11.5350 C   0  0  0  0  0  0  0  0  0  0  0  0
    6.6636    7.0587   11.0014 C   0  0  0  0  0  0  0  0  0  0  0  0
    7.5784    6.5170   10.0551 O   0  0  0  0  0  0  0  0  0  0  0  0
   16.8218    4.8248   10.6048 C   0  0  0  0  0  0  0  0  0  0  0  0
   17.1226    6.2285   10.1318 C   0  0  0  0  0  0  0  0  0  0  0  0
   16.2653    7.2733   10.5330 C   0  0  0  0  0  0  0  0  0  0  0  0
   16.4796    8.5829   10.1051 C   0  0  0  0  0  0  0  0  0  0  0  0
   17.5958    8.8929    9.3385 C   0  0  0  0  0  0  0  0  0  0  0  0
   18.4701    7.8802    8.9524 C   0  0  0  0  0  0  0  0  0  0  0  0
   18.2369    6.5563    9.3423 C   0  0  0  0  0  0  0  0  0  0  0  0
   19.3997    5.3825    8.8539 Cl  0  0  0  0  0  0  0  0  0  0  0  0
   15.6682    9.6189   10.4717 O   0  0  0  0  0  0  0  0  0  0  0  0
   14.5537    9.8518    9.5917 C   0  0  0  0  0  0  0  0  0  0  0  0
   13.6857    8.6008    9.5100 C   0  0  0  0  0  0  0  0  0  0  0  0
   15.0976   10.3637    8.2351 C   0  0  0  0  0  0  0  0  0  0  0  0
   15.2482   11.9060    7.9365 C   0  0  0  0  0  0  0  0  0  0  0  0
   13.8805   12.3501    7.3515 C   0  0  0  0  0  0  0  0  0  0  0  0
   15.4717   12.6994    9.2271 C   0  0  0  0  0  0  0  0  0  0  0  0
   16.3516   12.1084    6.8408 C   0  0  0  0  0  0  0  0  0  0  0  0
   16.1406   12.9319    5.5298 C   0  0  0  0  0  0  0  0  0  0  0  0
   14.9056   12.5126    4.7255 C   0  0  0  0  0  0  0  0  0  0  0  0
   16.0939   14.4477    5.7988 C   0  0  0  0  0  0  0  0  0  0  0  0
   17.3804   12.6742    4.6345 C   0  0  0  0  0  0  0  0  0  0  0  0
   17.7085    5.2879   15.9859 O   0  0  0  0  0  0  0  0  0  0  0  0
   18.2603    4.0176   16.3193 C   0  0  0  0  0  0  0  0  0  0  0  0
   18.7186    4.0682   17.5895 F   0  0  0  0  0  0  0  0  0  0  0  0
   19.2975    3.6996   15.5132 F   0  0  0  0  0  0  0  0  0  0  0  0
   17.3262    3.0432   16.2502 F   0  0  0  0  0  0  0  0  0  0  0  0
 20 21  1  0
 21 11  1  0
 11 12  2  0
 12 13  1  0
 13 14  2  0
 14 15  1  0
 15  1  1  0
  1  2  2  0
  2  3  1  0
  2  4  1  0
  4 22  1  0
 22 23  1  0
 23 24  2  0
 24 25  1  0
 25 30  1  0
 30 31  1  0
 31 32  1  0
 31 33  1  0
 33 34  1  0
 34 35  1  0
 34 36  1  0
 34 37  1  0
 37 38  1  0
 38 39  1  0
 38 40  1  0
 38 41  1  0
 25 26  2  0
 26 27  1  0
 27 28  2  0
 28 29  1  0
  4  5  1  0
  5  6  2  0
  6  7  1  0
  7 42  1  0
 42 43  1  0
 43 44  1  0
 43 45  1  0
 43 46  1  0
  7  8  2  0
  8  9  1  0
  9 10  2  0
 15 16  2  0
 16 17  1  0
 17 18  1  0
 18 19  2  0
 19 11  1  0
 18 14  1  0
 10  1  1  0
 28 23  1  0
 10  5  1  0
M  END
> <minimizedAffinity>
-10.50833

> <CNNscore>
0.5390509963

> <CNNaffinity>
7.8335494995

> <CNN_VS>
4.2226824760

> <CNNaffinity_variance>
1.1697809696

$$$$



 46 50  0  0  0  0  0  0  0  0999 V2000
   13.5838    4.5516   12.3672 C   0  0  0  0  0  0  0  0  0  0  0  0
   14.3365    4.5662   11.2060 C   0  0  0  0  0  0  0  0  0  0  0  0
   13.8685    4.4688    9.7942 C   0  0  0  0  0  0  0  0  0  0  0  0
   15.6652    4.6899   11.5814 N   0  0  0  0  0  0  0  0  0  0  0  0
   15.7515    4.8274   12.9641 C   0  0  0  0  0  0  0  0  0  0  0  0
   16.8582    5.0282   13.8119 C   0  0  0  0  0  0  0  0  0  0  0  0
   16.6320    5.1010   15.1900 C   0  0  0  0  0  0  0  0  0  0  0  0
   15.3628    4.9366   15.7262 C   0  0  0  0  0  0  0  0  0  0  0  0
   14.2668    4.7504   14.8803 C   0  0  0  0  0  0  0  0  0  0  0  0
   14.4555    4.7068   13.4790 C   0  0  0  0  0  0  0  0  0  0  0  0
    8.7909    6.0338   10.5517 C   0  0  0  0  0  0  0  0  0  0  0  0
   10.0130    6.5479   10.1017 C   0  0  0  0  0  0  0  0  0  0  0  0
   11.2326    6.1139   10.6521 C   0  0  0  0  0  0  0  0  0  0  0  0
   11.2053    5.1473   11.6731 C   0  0  0  0  0  0  0  0  0  0  0  0
   12.1307    4.4281   12.4681 C   0  0  0  0  0  0  0  0  0  0  0  0
   11.5262    3.5632   13.2937 N   0  0  0  0  0  0  0  0  0  0  0  0
   10.1666    3.7305   13.0643 O   0  0  0  0  0  0  0  0  0  0  0  0
    9.9795    4.6633   12.0926 C   0  0  0  0  0  0  0  0  0  0  0  0
    8.7556    5.0763   11.5750 C   0  0  0  0  0  0  0  0  0  0  0  0
    6.6594    6.9995   10.9964 C   0  0  0  0  0  0  0  0  0  0  0  0
    7.5555    6.3875   10.0754 O   0  0  0  0  0  0  0  0  0  0  0  0
   16.8078    4.8005   10.6656 C   0  0  0  0  0  0  0  0  0  0  0  0
   17.0840    6.2050   10.1802 C   0  0  0  0  0  0  0  0  0  0  0  0
   16.2122    7.2391   10.5776 C   0  0  0  0  0  0  0  0  0  0  0  0
   16.4035    8.5486   10.1384 C   0  0  0  0  0  0  0  0  0  0  0  0
   17.5108    8.8703    9.3638 C   0  0  0  0  0  0  0  0  0  0  0  0
   18.3992    7.8686    8.9812 C   0  0  0  0  0  0  0  0  0  0  0  0
   18.1890    6.5442    9.3826 C   0  0  0  0  0  0  0  0  0  0  0  0
   19.3679    5.3852    8.8974 Cl  0  0  0  0  0  0  0  0  0  0  0  0
   15.5775    9.5745   10.5010 O   0  0  0  0  0  0  0  0  0  0  0  0
   14.4313    9.7547    9.6498 C   0  0  0  0  0  0  0  0  0  0  0  0
   13.6809    8.4355    9.5024 C   0  0  0  0  0  0  0  0  0  0  0  0
   14.9022   10.3946    8.3206 C   0  0  0  0  0  0  0  0  0  0  0  0
   14.6570   11.9220    8.0087 C   0  0  0  0  0  0  0  0  0  0  0  0
   15.9268   12.6574    8.5155 C   0  0  0  0  0  0  0  0  0  0  0  0
   14.5580   12.1690    6.5006 C   0  0  0  0  0  0  0  0  0  0  0  0
   13.4238   12.4209    8.8389 C   0  0  0  0  0  0  0  0  0  0  0  0
   13.5003   13.5307    9.9363 C   0  0  0  0  0  0  0  0  0  0  0  0
   14.3065   13.1246   11.1745 C   0  0  0  0  0  0  0  0  0  0  0  0
   14.0414   14.8605    9.3788 C   0  0  0  0  0  0  0  0  0  0  0  0
   12.0463   13.7996   10.4035 C   0  0  0  0  0  0  0  0  0  0  0  0
   17.6883    5.2387   16.0498 O   0  0  0  0  0  0  0  0  0  0  0  0
   18.2510    3.9704   16.3725 C   0  0  0  0  0  0  0  0  0  0  0  0
   17.3256    3.0158   16.1311 F   0  0  0  0  0  0  0  0  0  0  0  0
   18.5962    3.8975   17.6772 F   0  0  0  0  0  0  0  0  0  0  0  0
   19.3342    3.7054   15.6088 F   0  0  0  0  0  0  0  0  0  0  0  0
 20 21  1  0
 21 11  1  0
 11 12  2  0
 12 13  1  0
 13 14  2  0
 14 15  1  0
 15  1  1  0
  1  2  2  0
  2  3  1  0
  2  4  1  0
  4 22  1  0
 22 23  1  0
 23 24  2  0
 24 25  1  0
 25 30  1  0
 30 31  1  0
 31 32  1  0
 31 33  1  0
 33 34  1  0
 34 35  1  0
 34 36  1  0
 34 37  1  0
 37 38  1  0
 38 39  1  0
 38 40  1  0
 38 41  1  0
 25 26  2  0
 26 27  1  0
 27 28  2  0
 28 29  1  0
  4  5  1  0
  5  6  2  0
  6  7  1  0
  7 42  1  0
 42 43  1  0
 43 44  1  0
 43 45  1  0
 43 46  1  0
  7  8  2  0
  8  9  1  0
  9 10  2  0
 15 16  2  0
 16 17  1  0
 17 18  1  0
 18 19  2  0
 19 11  1  0
 18 14  1  0
 10  1  1  0
 28 23  1  0
 10  5  1  0
M  END
> <minimizedAffinity>
-10.79831

> <CNNscore>
0.4363677502

> <CNNaffinity>
7.7238616943

> <CNN_VS>
3.3704440594

> <CNNaffinity_variance>
1.4684495926

$$$$



 46 50  0  0  0  0  0  0  0  0999 V2000
   14.3468    9.0379    9.5069 C   0  0  0  0  0  0  0  0  0  0  0  0
   13.7887    7.8066    9.8028 C   0  0  0  0  0  0  0  0  0  0  0  0
   12.3537    7.4637   10.0148 C   0  0  0  0  0  0  0  0  0  0  0  0
   14.8290    6.8934    9.8776 N   0  0  0  0  0  0  0  0  0  0  0  0
   16.0296    7.5223    9.5592 C   0  0  0  0  0  0  0  0  0  0  0  0
   17.3415    7.0218    9.4487 C   0  0  0  0  0  0  0  0  0  0  0  0
   18.3679    7.9182    9.1351 C   0  0  0  0  0  0  0  0  0  0  0  0
   18.1231    9.2751    8.9785 C   0  0  0  0  0  0  0  0  0  0  0  0
   16.8184    9.7644    9.0766 C   0  0  0  0  0  0  0  0  0  0  0  0
   15.7513    8.8793    9.3581 C   0  0  0  0  0  0  0  0  0  0  0  0
   14.5470   14.3689    9.5753 C   0  0  0  0  0  0  0  0  0  0  0  0
   15.6138   13.5221    9.8998 C   0  0  0  0  0  0  0  0  0  0  0  0
   15.4668   12.1234    9.8751 C   0  0  0  0  0  0  0  0  0  0  0  0
   14.2188   11.5829    9.5179 C   0  0  0  0  0  0  0  0  0  0  0  0
   13.6364   10.3044    9.3393 C   0  0  0  0  0  0  0  0  0  0  0  0
   12.3615   10.3794    8.9342 N   0  0  0  0  0  0  0  0  0  0  0  0
   12.0793   11.7378    8.8693 O   0  0  0  0  0  0  0  0  0  0  0  0
   13.1880   12.4503    9.2048 C   0  0  0  0  0  0  0  0  0  0  0  0
   13.2976   13.8374    9.2265 C   0  0  0  0  0  0  0  0  0  0  0  0
   13.6357   16.4237   10.3633 C   0  0  0  0  0  0  0  0  0  0  0  0
   14.5936   15.7386    9.5642 O   0  0  0  0  0  0  0  0  0  0  0  0
   14.6882    5.4515   10.1178 C   0  0  0  0  0  0  0  0  0  0  0  0
   14.2614    5.0924   11.5225 C   0  0  0  0  0  0  0  0  0  0  0  0
   13.0172    4.4556   11.7070 C   0  0  0  0  0  0  0  0  0  0  0  0
   12.5612    4.1255   12.9826 C   0  0  0  0  0  0  0  0  0  0  0  0
   13.3682    4.3467   14.0913 C   0  0  0  0  0  0  0  0  0  0  0  0
   14.6122    4.9510   13.9292 C   0  0  0  0  0  0  0  0  0  0  0  0
   15.0576    5.3246   12.6559 C   0  0  0  0  0  0  0  0  0  0  0  0
   16.6292    6.0231   12.5526 Cl  0  0  0  0  0  0  0  0  0  0  0  0
   11.3604    3.5109   13.1987 O   0  0  0  0  0  0  0  0  0  0  0  0
   11.1341    3.0913   14.5564 C   0  0  0  0  0  0  0  0  0  0  0  0
   11.6340    1.6636   14.7493 C   0  0  0  0  0  0  0  0  0  0  0  0
    9.6403    3.3159   14.8975 C   0  0  0  0  0  0  0  0  0  0  0  0
    8.5110    2.3843   14.3081 C   0  0  0  0  0  0  0  0  0  0  0  0
    9.2357    1.4266   13.3243 C   0  0  0  0  0  0  0  0  0  0  0  0
    7.8796    1.5207   15.4038 C   0  0  0  0  0  0  0  0  0  0  0  0
    7.4965    3.2626   13.4968 C   0  0  0  0  0  0  0  0  0  0  0  0
    7.9041    4.5099   12.6484 C   0  0  0  0  0  0  0  0  0  0  0  0
    8.5785    5.6200   13.4613 C   0  0  0  0  0  0  0  0  0  0  0  0
    8.7950    4.1301   11.4509 C   0  0  0  0  0  0  0  0  0  0  0  0
    6.5951    5.1005   12.0630 C   0  0  0  0  0  0  0  0  0  0  0  0
   19.6635    7.4801    9.0747 O   0  0  0  0  0  0  0  0  0  0  0  0
   19.7193    6.0568    9.0528 C   0  0  0  0  0  0  0  0  0  0  0  0
   19.6786    5.6449    7.7664 F   0  0  0  0  0  0  0  0  0  0  0  0
   18.6675    5.5084    9.7006 F   0  0  0  0  0  0  0  0  0  0  0  0
   20.8678    5.6020    9.6014 F   0  0  0  0  0  0  0  0  0  0  0  0
 20 21  1  0
 21 11  1  0
 11 12  2  0
 12 13  1  0
 13 14  2  0
 14 15  1  0
 15  1  1  0
  1  2  2  0
  2  3  1  0
  2  4  1  0
  4 22  1  0
 22 23  1  0
 23 24  2  0
 24 25  1  0
 25 30  1  0
 30 31  1  0
 31 32  1  0
 31 33  1  0
 33 34  1  0
 34 35  1  0
 34 36  1  0
 34 37  1  0
 37 38  1  0
 38 39  1  0
 38 40  1  0
 38 41  1  0
 25 26  2  0
 26 27  1  0
 27 28  2  0
 28 29  1  0
  4  5  1  0
  5  6  2  0
  6  7  1  0
  7 42  1  0
 42 43  1  0
 43 44  1  0
 43 45  1  0
 43 46  1  0
  7  8  2  0
  8  9  1  0
  9 10  2  0
 15 16  2  0
 16 17  1  0
 17 18  1  0
 18 19  2  0
 19 11  1  0
 18 14  1  0
 10  1  1  0
 28 23  1  0
 10  5  1  0
M  END
> <minimizedAffinity>
-10.10319

> <CNNscore>
0.4228375852

> <CNNaffinity>
7.8935685158

> <CNN_VS>
3.3376975060

> <CNNaffinity_variance>
0.8923290372

$$$$



 46 50  0  0  0  0  0  0  0  0999 V2000
   14.4047    9.0420    9.4908 C   0  0  0  0  0  0  0  0  0  0  0  0
   13.8481    7.8073    9.7754 C   0  0  0  0  0  0  0  0  0  0  0  0
   12.4133    7.4603    9.9820 C   0  0  0  0  0  0  0  0  0  0  0  0
   14.8898    6.8953    9.8443 N   0  0  0  0  0  0  0  0  0  0  0  0
   16.0899    7.5289    9.5334 C   0  0  0  0  0  0  0  0  0  0  0  0
   17.4028    7.0315    9.4210 C   0  0  0  0  0  0  0  0  0  0  0  0
   18.4283    7.9323    9.1168 C   0  0  0  0  0  0  0  0  0  0  0  0
   18.1815    9.2900    8.9712 C   0  0  0  0  0  0  0  0  0  0  0  0
   16.8758    9.7763    9.0711 C   0  0  0  0  0  0  0  0  0  0  0  0
   15.8097    8.8870    9.3432 C   0  0  0  0  0  0  0  0  0  0  0  0
   14.6063   14.3730    9.5603 C   0  0  0  0  0  0  0  0  0  0  0  0
   15.6768   13.5259    9.8712 C   0  0  0  0  0  0  0  0  0  0  0  0
   15.5294   12.1272    9.8474 C   0  0  0  0  0  0  0  0  0  0  0  0
   14.2771   11.5871    9.5050 C   0  0  0  0  0  0  0  0  0  0  0  0
   13.6925   10.3087    9.3327 C   0  0  0  0  0  0  0  0  0  0  0  0
   12.4127   10.3841    8.9432 N   0  0  0  0  0  0  0  0  0  0  0  0
   12.1299   11.7426    8.8826 O   0  0  0  0  0  0  0  0  0  0  0  0
   13.2427   12.4547    9.2050 C   0  0  0  0  0  0  0  0  0  0  0  0
   13.3527   13.8418    9.2263 C   0  0  0  0  0  0  0  0  0  0  0  0
   13.6371   16.4175    8.8157 C   0  0  0  0  0  0  0  0  0  0  0  0
   14.6530   15.7427    9.5495 O   0  0  0  0  0  0  0  0  0  0  0  0
   14.7510    5.4512   10.0721 C   0  0  0  0  0  0  0  0  0  0  0  0
   14.3756    5.0766   11.4874 C   0  0  0  0  0  0  0  0  0  0  0  0
   13.0181    4.8392   11.7844 C   0  0  0  0  0  0  0  0  0  0  0  0
   12.6115    4.5164   13.0785 C   0  0  0  0  0  0  0  0  0  0  0  0
   13.5545    4.3427   14.0835 C   0  0  0  0  0  0  0  0  0  0  0  0
   14.9037    4.5471   13.8060 C   0  0  0  0  0  0  0  0  0  0  0  0
   15.3144    4.9138   12.5192 C   0  0  0  0  0  0  0  0  0  0  0  0
   17.0083    5.0985   12.2636 Cl  0  0  0  0  0  0  0  0  0  0  0  0
   11.3051    4.2826   13.4026 O   0  0  0  0  0  0  0  0  0  0  0  0
   10.4278    5.4081   13.2178 C   0  0  0  0  0  0  0  0  0  0  0  0
   10.0157    5.9739   14.5725 C   0  0  0  0  0  0  0  0  0  0  0  0
    9.2560    4.9727   12.3038 C   0  0  0  0  0  0  0  0  0  0  0  0
    8.0988    4.0403   12.8350 C   0  0  0  0  0  0  0  0  0  0  0  0
    8.2219    4.0680   14.3823 C   0  0  0  0  0  0  0  0  0  0  0  0
    6.7228    4.6087   12.4765 C   0  0  0  0  0  0  0  0  0  0  0  0
    8.3549    2.5754   12.3379 C   0  0  0  0  0  0  0  0  0  0  0  0
    8.6773    1.3750   13.2848 C   0  0  0  0  0  0  0  0  0  0  0  0
   10.1104    1.3800   13.8273 C   0  0  0  0  0  0  0  0  0  0  0  0
    7.6806    1.2759   14.4548 C   0  0  0  0  0  0  0  0  0  0  0  0
    8.5098    0.0831   12.4434 C   0  0  0  0  0  0  0  0  0  0  0  0
   19.7247    7.4968    9.0549 O   0  0  0  0  0  0  0  0  0  0  0  0
   19.7830    6.0738    9.0218 C   0  0  0  0  0  0  0  0  0  0  0  0
   19.7968    5.6742    7.7310 F   0  0  0  0  0  0  0  0  0  0  0  0
   18.7055    5.5185    9.6197 F   0  0  0  0  0  0  0  0  0  0  0  0
   20.9079    5.6146    9.6138 F   0  0  0  0  0  0  0  0  0  0  0  0
 20 21  1  0
 21 11  1  0
 11 12  2  0
 12 13  1  0
 13 14  2  0
 14 15  1  0
 15  1  1  0
  1  2  2  0
  2  3  1  0
  2  4  1  0
  4 22  1  0
 22 23  1  0
 23 24  2  0
 24 25  1  0
 25 30  1  0
 30 31  1  0
 31 32  1  0
 31 33  1  0
 33 34  1  0
 34 35  1  0
 34 36  1  0
 34 37  1  0
 37 38  1  0
 38 39  1  0
 38 40  1  0
 38 41  1  0
 25 26  2  0
 26 27  1  0
 27 28  2  0
 28 29  1  0
  4  5  1  0
  5  6  2  0
  6  7  1  0
  7 42  1  0
 42 43  1  0
 43 44  1  0
 43 45  1  0
 43 46  1  0
  7  8  2  0
  8  9  1  0
  9 10  2  0
 15 16  2  0
 16 17  1  0
 17 18  1  0
 18 19  2  0
 19 11  1  0
 18 14  1  0
 10  1  1  0
 28 23  1  0
 10  5  1  0
M  END
> <minimizedAffinity>
-10.07446

> <CNNscore>
0.3666239083

> <CNNaffinity>
7.7565255165

> <CNN_VS>
2.8437275887

> <CNNaffinity_variance>
1.0386391878

$$$$



 46 50  0  0  0  0  0  0  0  0999 V2000
   12.8488    5.0414   12.7051 C   0  0  0  0  0  0  0  0  0  0  0  0
   13.1354    5.3837   11.3952 C   0  0  0  0  0  0  0  0  0  0  0  0
   12.2047    5.8687   10.3368 C   0  0  0  0  0  0  0  0  0  0  0  0
   14.4960    5.1926   11.2109 N   0  0  0  0  0  0  0  0  0  0  0  0
   15.0824    4.8035   12.4122 C   0  0  0  0  0  0  0  0  0  0  0  0
   16.4240    4.5390   12.7500 C   0  0  0  0  0  0  0  0  0  0  0  0
   16.7097    4.1316   14.0568 C   0  0  0  0  0  0  0  0  0  0  0  0
   15.7040    3.9448   14.9945 C   0  0  0  0  0  0  0  0  0  0  0  0
   14.3765    4.2206   14.6580 C   0  0  0  0  0  0  0  0  0  0  0  0
   14.0565    4.6683   13.3548 C   0  0  0  0  0  0  0  0  0  0  0  0
    7.6815    3.7280   12.5086 C   0  0  0  0  0  0  0  0  0  0  0  0
    8.6095    3.4871   11.4882 C   0  0  0  0  0  0  0  0  0  0  0  0
    9.9522    3.8866   11.6158 C   0  0  0  0  0  0  0  0  0  0  0  0
   10.3519    4.5402   12.7949 C   0  0  0  0  0  0  0  0  0  0  0  0
   11.5388    5.0746   13.3529 C   0  0  0  0  0  0  0  0  0  0  0  0
   11.3442    5.5672   14.5836 N   0  0  0  0  0  0  0  0  0  0  0  0
    9.9916    5.3832   14.8398 O   0  0  0  0  0  0  0  0  0  0  0  0
    9.4073    4.7620   13.7805 C   0  0  0  0  0  0  0  0  0  0  0  0
    8.0708    4.3866   13.6832 C   0  0  0  0  0  0  0  0  0  0  0  0
    5.9543    2.3184   13.3474 C   0  0  0  0  0  0  0  0  0  0  0  0
    6.3582    3.3724   12.4804 O   0  0  0  0  0  0  0  0  0  0  0  0
   15.2436    5.4844    9.9811 C   0  0  0  0  0  0  0  0  0  0  0  0
   15.9638    6.8132    9.9899 C   0  0  0  0  0  0  0  0  0  0  0  0
   15.2394    7.9702   10.3422 C   0  0  0  0  0  0  0  0  0  0  0  0
   15.8460    9.2257   10.3415 C   0  0  0  0  0  0  0  0  0  0  0  0
   17.2033    9.3449   10.0711 C   0  0  0  0  0  0  0  0  0  0  0  0
   17.9438    8.2114    9.7459 C   0  0  0  0  0  0  0  0  0  0  0  0
   17.3312    6.9536    9.7023 C   0  0  0  0  0  0  0  0  0  0  0  0
   18.3405    5.6063    9.3354 Cl  0  0  0  0  0  0  0  0  0  0  0  0
   15.1743   10.3677   10.6745 O   0  0  0  0  0  0  0  0  0  0  0  0
   14.8457   11.2195    9.5623 C   0  0  0  0  0  0  0  0  0  0  0  0
   14.5569   10.3732    8.3271 C   0  0  0  0  0  0  0  0  0  0  0  0
   15.9761   12.2643    9.3930 C   0  0  0  0  0  0  0  0  0  0  0  0
   16.6443   12.5357    7.9893 C   0  0  0  0  0  0  0  0  0  0  0  0
   17.8537   13.4649    8.2790 C   0  0  0  0  0  0  0  0  0  0  0  0
   17.1970   11.2434    7.3814 C   0  0  0  0  0  0  0  0  0  0  0  0
   15.6260   13.3070    7.0798 C   0  0  0  0  0  0  0  0  0  0  0  0
   15.8524   13.5906    5.5600 C   0  0  0  0  0  0  0  0  0  0  0  0
   16.9654   12.7463    4.9302 C   0  0  0  0  0  0  0  0  0  0  0  0
   14.5569   13.4337    4.7420 C   0  0  0  0  0  0  0  0  0  0  0  0
   16.2802   15.0764    5.4404 C   0  0  0  0  0  0  0  0  0  0  0  0
   17.9935    3.8109   14.4077 O   0  0  0  0  0  0  0  0  0  0  0  0
   18.3314    4.3729   15.6723 C   0  0  0  0  0  0  0  0  0  0  0  0
   19.6777    4.4423   15.7658 F   0  0  0  0  0  0  0  0  0  0  0  0
   17.8804    3.6088   16.6919 F   0  0  0  0  0  0  0  0  0  0  0  0
   17.8383    5.6248   15.8007 F   0  0  0  0  0  0  0  0  0  0  0  0
 20 21  1  0
 21 11  1  0
 11 12  2  0
 12 13  1  0
 13 14  2  0
 14 15  1  0
 15  1  1  0
  1  2  2  0
  2  3  1  0
  2  4  1  0
  4 22  1  0
 22 23  1  0
 23 24  2  0
 24 25  1  0
 25 30  1  0
 30 31  1  0
 31 32  1  0
 31 33  1  0
 33 34  1  0
 34 35  1  0
 34 36  1  0
 34 37  1  0
 37 38  1  0
 38 39  1  0
 38 40  1  0
 38 41  1  0
 25 26  2  0
 26 27  1  0
 27 28  2  0
 28 29  1  0
  4  5  1  0
  5  6  2  0
  6  7  1  0
  7 42  1  0
 42 43  1  0
 43 44  1  0
 43 45  1  0
 43 46  1  0
  7  8  2  0
  8  9  1  0
  9 10  2  0
 15 16  2  0
 16 17  1  0
 17 18  1  0
 18 19  2  0
 19 11  1  0
 18 14  1  0
 10  1  1  0
 28 23  1  0
 10  5  1  0
M  END
> <minimizedAffinity>
-9.53161

> <CNNscore>
0.3548250794

> <CNNaffinity>
7.8396353722

> <CNN_VS>
2.7816991806

> <CNNaffinity_variance>
0.7958588600

$$$$
