


 22 25  0  0  0  0  0  0  0  0999 V2000
  104.5932   23.3688   34.5380 O   0  0  0  0  0  0  0  0  0  0  0  0
  103.5491   22.8662   35.3414 C   0  0  0  0  0  0  0  0  0  0  0  0
  102.8694   24.0536   36.0162 C   0  0  0  0  0  0  0  0  0  0  0  0
  102.2082   25.1345   35.4548 C   0  0  0  0  0  0  0  0  0  0  0  0
  101.6410   26.0811   36.3186 C   0  0  0  0  0  0  0  0  0  0  0  0
  101.7391   25.9347   37.7181 C   0  0  0  0  0  0  0  0  0  0  0  0
  100.9462   27.2361   38.8402 Br  0  0  0  0  0  0  0  0  0  0  0  0
  102.4049   24.8532   38.2913 C   0  0  0  0  0  0  0  0  0  0  0  0
  102.9626   23.9484   37.4160 C   0  0  0  0  0  0  0  0  0  0  0  0
  103.6945   22.7243   37.6540 C   0  0  0  0  0  0  0  0  0  0  0  0
  103.8598   22.0429   38.7466 N   0  0  0  0  0  0  0  0  0  0  0  0
  104.5943   20.8281   38.2321 C   0  0  0  0  0  0  0  0  0  0  0  0
  104.4564   20.8330   36.6851 C   0  0  0  0  0  0  0  0  0  0  0  0
  104.1800   22.2256   36.4760 N   0  0  0  0  0  0  0  0  0  0  0  0
  104.2186   23.8101   33.7597 H   0  0  0  0  0  0  0  0  0  0  0  0
  102.6018   21.9646   34.5591 C   0  0  0  0  0  0  0  0  0  0  0  0
  102.7307   21.8016   33.1640 C   0  0  0  0  0  0  0  0  0  0  0  0
  101.8522   20.9829   32.4477 C   0  0  0  0  0  0  0  0  0  0  0  0
  100.8287   20.3162   33.1139 C   0  0  0  0  0  0  0  0  0  0  0  0
   99.7466   19.3104   32.2333 Cl  0  0  0  0  0  0  0  0  0  0  0  0
  100.6747   20.4626   34.4890 C   0  0  0  0  0  0  0  0  0  0  0  0
  101.5535   21.2820   35.2048 C   0  0  0  0  0  0  0  0  0  0  0  0
  2  1  1  0
  2 16  1  0
 16 17  2  0
 17 18  1  0
 18 19  2  0
 19 20  1  0
 19 21  1  0
 21 22  2  0
  2  3  1  0
  3  4  2  0
  4  5  1  0
  5  6  2  0
  6  7  1  0
  6  8  1  0
  8  9  2  0
  9 10  1  0
 10 11  2  0
 11 12  1  0
 12 13  1  0
 13 14  1  0
 14  2  1  0
 22 16  1  0
  9  3  1  0
 14 10  1  0
  1 15  1  0
M  END
> <minimizedAffinity>
-8.51203

> <CNNscore>
0.9151811004

> <CNNaffinity>
6.5902314186

> <CNN_VS>
6.0312552452

> <CNNaffinity_variance>
0.0274044741

$$$$



 22 25  0  0  0  0  0  0  0  0999 V2000
  101.9571   32.0089   37.1246 O   0  0  0  0  0  0  0  0  0  0  0  0
  102.1141   31.5839   35.7893 C   0  0  0  0  0  0  0  0  0  0  0  0
  103.5314   31.9409   35.3518 C   0  0  0  0  0  0  0  0  0  0  0  0
  104.7499   31.5167   35.8577 C   0  0  0  0  0  0  0  0  0  0  0  0
  105.9182   31.9827   35.2398 C   0  0  0  0  0  0  0  0  0  0  0  0
  105.8535   32.8558   34.1339 C   0  0  0  0  0  0  0  0  0  0  0  0
  107.4611   33.4473   33.3294 Br  0  0  0  0  0  0  0  0  0  0  0  0
  104.6330   33.2904   33.6207 C   0  0  0  0  0  0  0  0  0  0  0  0
  103.5046   32.8255   34.2582 C   0  0  0  0  0  0  0  0  0  0  0  0
  102.1017   33.0507   33.9898 C   0  0  0  0  0  0  0  0  0  0  0  0
  101.5186   33.5925   32.9642 N   0  0  0  0  0  0  0  0  0  0  0  0
  100.0630   33.3625   33.2929 C   0  0  0  0  0  0  0  0  0  0  0  0
  100.0144   32.3205   34.4436 C   0  0  0  0  0  0  0  0  0  0  0  0
  101.3351   32.4947   34.9773 N   0  0  0  0  0  0  0  0  0  0  0  0
  102.4639   31.4258   37.7112 H   0  0  0  0  0  0  0  0  0  0  0  0
  101.7538   30.1148   35.6050 C   0  0  0  0  0  0  0  0  0  0  0  0
  101.2722   29.3383   36.6796 C   0  0  0  0  0  0  0  0  0  0  0  0
  100.9539   27.9874   36.5097 C   0  0  0  0  0  0  0  0  0  0  0  0
  101.1148   27.3899   35.2635 C   0  0  0  0  0  0  0  0  0  0  0  0
  100.7252   25.7279   35.0540 Cl  0  0  0  0  0  0  0  0  0  0  0  0
  101.5928   28.1304   34.1868 C   0  0  0  0  0  0  0  0  0  0  0  0
  101.9114   29.4815   34.3576 C   0  0  0  0  0  0  0  0  0  0  0  0
  2  1  1  0
  2 16  1  0
 16 17  2  0
 17 18  1  0
 18 19  2  0
 19 20  1  0
 19 21  1  0
 21 22  2  0
  2  3  1  0
  3  4  2  0
  4  5  1  0
  5  6  2  0
  6  7  1  0
  6  8  1  0
  8  9  2  0
  9 10  1  0
 10 11  2  0
 11 12  1  0
 12 13  1  0
 13 14  1  0
 14  2  1  0
 22 16  1  0
  9  3  1  0
 14 10  1  0
  1 15  1  0
M  END
> <minimizedAffinity>
-5.65080

> <CNNscore>
0.6757880449

> <CNNaffinity>
5.6456718445

> <CNN_VS>
3.8152775764

> <CNNaffinity_variance>
0.0744960681

$$$$



 22 25  0  0  0  0  0  0  0  0999 V2000
  102.7847   31.4767   37.8127 O   0  0  0  0  0  0  0  0  0  0  0  0
  102.9672   30.6169   36.7101 C   0  0  0  0  0  0  0  0  0  0  0  0
  104.2979   30.9761   36.0563 C   0  0  0  0  0  0  0  0  0  0  0  0
  105.5819   30.9356   36.5762 C   0  0  0  0  0  0  0  0  0  0  0  0
  106.6446   31.2956   35.7365 C   0  0  0  0  0  0  0  0  0  0  0  0
  106.4121   31.6848   34.4008 C   0  0  0  0  0  0  0  0  0  0  0  0
  107.8835   32.1510   33.3058 Br  0  0  0  0  0  0  0  0  0  0  0  0
  105.1244   31.7320   33.8706 C   0  0  0  0  0  0  0  0  0  0  0  0
  104.1015   31.3857   34.7247 C   0  0  0  0  0  0  0  0  0  0  0  0
  102.6734   31.3053   34.5125 C   0  0  0  0  0  0  0  0  0  0  0  0
  101.9833   31.3492   33.4138 N   0  0  0  0  0  0  0  0  0  0  0  0
  100.5917   31.0617   33.9242 C   0  0  0  0  0  0  0  0  0  0  0  0
  100.7399   30.5181   35.3715 C   0  0  0  0  0  0  0  0  0  0  0  0
  102.0322   31.0523   35.6944 N   0  0  0  0  0  0  0  0  0  0  0  0
  103.3932   31.2236   38.5244 H   0  0  0  0  0  0  0  0  0  0  0  0
  102.8357   29.1485   37.0954 C   0  0  0  0  0  0  0  0  0  0  0  0
  103.2760   28.1226   36.2332 C   0  0  0  0  0  0  0  0  0  0  0  0
  103.1428   26.7759   36.5849 C   0  0  0  0  0  0  0  0  0  0  0  0
  102.5645   26.4326   37.8029 C   0  0  0  0  0  0  0  0  0  0  0  0
  102.3986   24.7763   38.2356 Cl  0  0  0  0  0  0  0  0  0  0  0  0
  102.1165   27.4236   38.6709 C   0  0  0  0  0  0  0  0  0  0  0  0
  102.2496   28.7704   38.3184 C   0  0  0  0  0  0  0  0  0  0  0  0
  2  1  1  0
  2 16  1  0
 16 17  2  0
 17 18  1  0
 18 19  2  0
 19 20  1  0
 19 21  1  0
 21 22  2  0
  2  3  1  0
  3  4  2  0
  4  5  1  0
  5  6  2  0
  6  7  1  0
  6  8  1  0
  8  9  2  0
  9 10  1  0
 10 11  2  0
 11 12  1  0
 12 13  1  0
 13 14  1  0
 14  2  1  0
 22 16  1  0
  9  3  1  0
 14 10  1  0
  1 15  1  0
M  END
> <minimizedAffinity>
-6.12451

> <CNNscore>
0.6315476298

> <CNNaffinity>
5.5542297363

> <CNN_VS>
3.5077605247

> <CNNaffinity_variance>
0.0157331023

$$$$



 22 25  0  0  0  0  0  0  0  0999 V2000
  103.5461   25.9554   37.5332 O   0  0  0  0  0  0  0  0  0  0  0  0
  102.6103   26.6860   36.7724 C   0  0  0  0  0  0  0  0  0  0  0  0
  101.8362   27.5874   37.7293 C   0  0  0  0  0  0  0  0  0  0  0  0
  102.2899   28.6074   38.5505 C   0  0  0  0  0  0  0  0  0  0  0  0
  101.3466   29.3058   39.3163 C   0  0  0  0  0  0  0  0  0  0  0  0
   99.9757   28.9802   39.2496 C   0  0  0  0  0  0  0  0  0  0  0  0
   98.7419   29.9616   40.2965 Br  0  0  0  0  0  0  0  0  0  0  0  0
   99.5110   27.9540   38.4296 C   0  0  0  0  0  0  0  0  0  0  0  0
  100.4640   27.2785   37.7007 C   0  0  0  0  0  0  0  0  0  0  0  0
  100.3418   26.1932   36.7530 C   0  0  0  0  0  0  0  0  0  0  0  0
   99.2893   25.6880   36.1851 N   0  0  0  0  0  0  0  0  0  0  0  0
   99.9126   24.7050   35.2233 C   0  0  0  0  0  0  0  0  0  0  0  0
  101.4253   25.0466   35.1383 C   0  0  0  0  0  0  0  0  0  0  0  0
  101.5805   25.7467   36.3814 N   0  0  0  0  0  0  0  0  0  0  0  0
  104.2605   26.5453   37.8203 H   0  0  0  0  0  0  0  0  0  0  0  0
  103.2621   27.4225   35.6084 C   0  0  0  0  0  0  0  0  0  0  0  0
  104.6617   27.4230   35.4334 C   0  0  0  0  0  0  0  0  0  0  0  0
  105.2571   28.1098   34.3710 C   0  0  0  0  0  0  0  0  0  0  0  0
  104.4633   28.8099   33.4679 C   0  0  0  0  0  0  0  0  0  0  0  0
  105.1950   29.6565   32.1617 Cl  0  0  0  0  0  0  0  0  0  0  0  0
  103.0802   28.8309   33.6189 C   0  0  0  0  0  0  0  0  0  0  0  0
  102.4853   28.1440   34.6821 C   0  0  0  0  0  0  0  0  0  0  0  0
  2  1  1  0
  2 16  1  0
 16 17  2  0
 17 18  1  0
 18 19  2  0
 19 20  1  0
 19 21  1  0
 21 22  2  0
  2  3  1  0
  3  4  2  0
  4  5  1  0
  5  6  2  0
  6  7  1  0
  6  8  1  0
  8  9  2  0
  9 10  1  0
 10 11  2  0
 11 12  1  0
 12 13  1  0
 13 14  1  0
 14  2  1  0
 22 16  1  0
  9  3  1  0
 14 10  1  0
  1 15  1  0
M  END
> <minimizedAffinity>
-7.02307

> <CNNscore>
0.5715643167

> <CNNaffinity>
5.3820576668

> <CNN_VS>
3.0761921406

> <CNNaffinity_variance>
0.0885500312

$$$$



 22 25  0  0  0  0  0  0  0  0999 V2000
  101.4992   33.2436   39.3227 O   0  0  0  0  0  0  0  0  0  0  0  0
  100.4525   32.8535   38.4622 C   0  0  0  0  0  0  0  0  0  0  0  0
   99.1447   33.3611   39.0617 C   0  0  0  0  0  0  0  0  0  0  0  0
   98.7340   34.6579   39.3267 C   0  0  0  0  0  0  0  0  0  0  0  0
   97.4516   34.8472   39.8590 C   0  0  0  0  0  0  0  0  0  0  0  0
   96.6042   33.7489   40.1144 C   0  0  0  0  0  0  0  0  0  0  0  0
   94.8777   34.0604   40.8239 Br  0  0  0  0  0  0  0  0  0  0  0  0
   97.0100   32.4414   39.8545 C   0  0  0  0  0  0  0  0  0  0  0  0
   98.2798   32.2882   39.3448 C   0  0  0  0  0  0  0  0  0  0  0  0
   99.0071   31.1031   38.9482 C   0  0  0  0  0  0  0  0  0  0  0  0
   98.5979   29.8823   38.7817 N   0  0  0  0  0  0  0  0  0  0  0  0
   99.8402   29.2240   38.2311 C   0  0  0  0  0  0  0  0  0  0  0  0
  100.8121   30.3612   37.8133 C   0  0  0  0  0  0  0  0  0  0  0  0
  100.2985   31.4239   38.6296 N   0  0  0  0  0  0  0  0  0  0  0  0
  101.6414   34.2001   39.2460 H   0  0  0  0  0  0  0  0  0  0  0  0
  100.6937   33.2940   37.0235 C   0  0  0  0  0  0  0  0  0  0  0  0
  101.9807   33.6567   36.5744 C   0  0  0  0  0  0  0  0  0  0  0  0
  102.1962   34.0718   35.2566 C   0  0  0  0  0  0  0  0  0  0  0  0
  101.1280   34.1342   34.3673 C   0  0  0  0  0  0  0  0  0  0  0  0
  101.3918   34.6464   32.7467 Cl  0  0  0  0  0  0  0  0  0  0  0  0
   99.8467   33.7872   34.7842 C   0  0  0  0  0  0  0  0  0  0  0  0
   99.6318   33.3725   36.1025 C   0  0  0  0  0  0  0  0  0  0  0  0
  2  1  1  0
  2 16  1  0
 16 17  2  0
 17 18  1  0
 18 19  2  0
 19 20  1  0
 19 21  1  0
 21 22  2  0
  2  3  1  0
  3  4  2  0
  4  5  1  0
  5  6  2  0
  6  7  1  0
  6  8  1  0
  8  9  2  0
  9 10  1  0
 10 11  2  0
 11 12  1  0
 12 13  1  0
 13 14  1  0
 14  2  1  0
 22 16  1  0
  9  3  1  0
 14 10  1  0
  1 15  1  0
M  END
> <minimizedAffinity>
-5.59186

> <CNNscore>
0.4629959464

> <CNNaffinity>
4.9821763039

> <CNN_VS>
2.3067274094

> <CNNaffinity_variance>
0.1173627451

$$$$



 22 25  0  0  0  0  0  0  0  0999 V2000
  104.5954   28.8641   37.4792 O   0  0  0  0  0  0  0  0  0  0  0  0
  103.5539   28.9257   36.5307 C   0  0  0  0  0  0  0  0  0  0  0  0
  104.1031   29.6077   35.2814 C   0  0  0  0  0  0  0  0  0  0  0  0
  105.1367   29.2233   34.4420 C   0  0  0  0  0  0  0  0  0  0  0  0
  105.4181   30.0298   33.3311 C   0  0  0  0  0  0  0  0  0  0  0  0
  104.6683   31.1969   33.0751 C   0  0  0  0  0  0  0  0  0  0  0  0
  105.0824   32.2452   31.5550 Br  0  0  0  0  0  0  0  0  0  0  0  0
  103.6298   31.5930   33.9154 C   0  0  0  0  0  0  0  0  0  0  0  0
  103.3874   30.7869   35.0050 C   0  0  0  0  0  0  0  0  0  0  0  0
  102.3968   30.8811   36.0542 C   0  0  0  0  0  0  0  0  0  0  0  0
  101.3461   31.6372   36.1525 N   0  0  0  0  0  0  0  0  0  0  0  0
  100.7119   31.1038   37.4147 C   0  0  0  0  0  0  0  0  0  0  0  0
  101.3995   29.7480   37.7327 C   0  0  0  0  0  0  0  0  0  0  0  0
  102.6256   29.9282   37.0090 N   0  0  0  0  0  0  0  0  0  0  0  0
  105.2472   28.2017   37.2012 H   0  0  0  0  0  0  0  0  0  0  0  0
  102.9258   27.5613   36.2738 C   0  0  0  0  0  0  0  0  0  0  0  0
  103.2002   26.4593   37.1104 C   0  0  0  0  0  0  0  0  0  0  0  0
  102.6315   25.2058   36.8646 C   0  0  0  0  0  0  0  0  0  0  0  0
  101.7816   25.0327   35.7767 C   0  0  0  0  0  0  0  0  0  0  0  0
  101.0830   23.4908   35.4726 Cl  0  0  0  0  0  0  0  0  0  0  0  0
  101.4973   26.1010   34.9316 C   0  0  0  0  0  0  0  0  0  0  0  0
  102.0668   27.3544   35.1777 C   0  0  0  0  0  0  0  0  0  0  0  0
  2  1  1  0
  2 16  1  0
 16 17  2  0
 17 18  1  0
 18 19  2  0
 19 20  1  0
 19 21  1  0
 21 22  2  0
  2  3  1  0
  3  4  2  0
  4  5  1  0
  5  6  2  0
  6  7  1  0
  6  8  1  0
  8  9  2  0
  9 10  1  0
 10 11  2  0
 11 12  1  0
 12 13  1  0
 13 14  1  0
 14  2  1  0
 22 16  1  0
  9  3  1  0
 14 10  1  0
  1 15  1  0
M  END
> <minimizedAffinity>
-6.61750

> <CNNscore>
0.4158198535

> <CNNaffinity>
5.3843817711

> <CNN_VS>
2.2389328480

> <CNNaffinity_variance>
0.0025958305

$$$$



 22 25  0  0  0  0  0  0  0  0999 V2000
  101.5992   24.1381   38.1783 O   0  0  0  0  0  0  0  0  0  0  0  0
  102.7604   24.1873   37.3799 C   0  0  0  0  0  0  0  0  0  0  0  0
  102.4363   23.5196   36.0470 C   0  0  0  0  0  0  0  0  0  0  0  0
  101.4991   23.8647   35.0861 C   0  0  0  0  0  0  0  0  0  0  0  0
  101.4303   23.0859   33.9231 C   0  0  0  0  0  0  0  0  0  0  0  0
  102.2923   21.9850   33.7368 C   0  0  0  0  0  0  0  0  0  0  0  0
  102.1653   20.9725   32.1432 Br  0  0  0  0  0  0  0  0  0  0  0  0
  103.2351   21.6286   34.6990 C   0  0  0  0  0  0  0  0  0  0  0  0
  103.2683   22.4050   35.8355 C   0  0  0  0  0  0  0  0  0  0  0  0
  104.1131   22.3378   37.0071 C   0  0  0  0  0  0  0  0  0  0  0  0
  105.1944   21.6532   37.2252 N   0  0  0  0  0  0  0  0  0  0  0  0
  105.6118   22.1782   38.5780 C   0  0  0  0  0  0  0  0  0  0  0  0
  104.7888   23.4690   38.8400 C   0  0  0  0  0  0  0  0  0  0  0  0
  103.6879   23.2333   37.9501 N   0  0  0  0  0  0  0  0  0  0  0  0
  100.9433   24.7643   37.8340 H   0  0  0  0  0  0  0  0  0  0  0  0
  103.3141   25.6012   37.2530 C   0  0  0  0  0  0  0  0  0  0  0  0
  103.3884   26.2494   36.0024 C   0  0  0  0  0  0  0  0  0  0  0  0
  103.9082   27.5425   35.8882 C   0  0  0  0  0  0  0  0  0  0  0  0
  104.3650   28.2075   37.0217 C   0  0  0  0  0  0  0  0  0  0  0  0
  105.0060   29.7973   36.8818 Cl  0  0  0  0  0  0  0  0  0  0  0  0
  104.3085   27.5904   38.2676 C   0  0  0  0  0  0  0  0  0  0  0  0
  103.7889   26.2969   38.3812 C   0  0  0  0  0  0  0  0  0  0  0  0
  2  1  1  0
  2 16  1  0
 16 17  2  0
 17 18  1  0
 18 19  2  0
 19 20  1  0
 19 21  1  0
 21 22  2  0
  2  3  1  0
  3  4  2  0
  4  5  1  0
  5  6  2  0
  6  7  1  0
  6  8  1  0
  8  9  2  0
  9 10  1  0
 10 11  2  0
 11 12  1  0
 12 13  1  0
 13 14  1  0
 14  2  1  0
 22 16  1  0
  9  3  1  0
 14 10  1  0
  1 15  1  0
M  END
> <minimizedAffinity>
-6.47269

> <CNNscore>
0.4099097848

> <CNNaffinity>
5.6862754822

> <CNN_VS>
2.3308598995

> <CNNaffinity_variance>
0.1294893771

$$$$



 22 25  0  0  0  0  0  0  0  0999 V2000
  104.3092   26.5814   38.1303 O   0  0  0  0  0  0  0  0  0  0  0  0
  103.2375   26.5738   37.2140 C   0  0  0  0  0  0  0  0  0  0  0  0
  103.5865   27.5363   36.0830 C   0  0  0  0  0  0  0  0  0  0  0  0
  104.6399   27.5037   35.1830 C   0  0  0  0  0  0  0  0  0  0  0  0
  104.7077   28.5109   34.2110 C   0  0  0  0  0  0  0  0  0  0  0  0
  103.7298   29.5258   34.1506 C   0  0  0  0  0  0  0  0  0  0  0  0
  103.8621   30.8564   32.8115 Br  0  0  0  0  0  0  0  0  0  0  0  0
  102.6693   29.5686   35.0534 C   0  0  0  0  0  0  0  0  0  0  0  0
  102.6388   28.5730   36.0040 C   0  0  0  0  0  0  0  0  0  0  0  0
  101.6943   28.3017   37.0648 C   0  0  0  0  0  0  0  0  0  0  0  0
  100.5187   28.8036   37.2920 N   0  0  0  0  0  0  0  0  0  0  0  0
  100.0575   27.9655   38.4602 C   0  0  0  0  0  0  0  0  0  0  0  0
  101.0147   26.7459   38.5526 C   0  0  0  0  0  0  0  0  0  0  0  0
  102.1486   27.2808   37.8543 N   0  0  0  0  0  0  0  0  0  0  0  0
  105.0679   26.1162   37.7444 H   0  0  0  0  0  0  0  0  0  0  0  0
  102.8844   25.1658   36.7506 C   0  0  0  0  0  0  0  0  0  0  0  0
  102.2027   24.9436   35.5359 C   0  0  0  0  0  0  0  0  0  0  0  0
  101.8698   23.6509   35.1197 C   0  0  0  0  0  0  0  0  0  0  0  0
  102.2101   22.5594   35.9125 C   0  0  0  0  0  0  0  0  0  0  0  0
  101.7994   20.9691   35.4022 Cl  0  0  0  0  0  0  0  0  0  0  0  0
  102.8783   22.7492   37.1182 C   0  0  0  0  0  0  0  0  0  0  0  0
  103.2106   24.0425   37.5341 C   0  0  0  0  0  0  0  0  0  0  0  0
  2  1  1  0
  2 16  1  0
 16 17  2  0
 17 18  1  0
 18 19  2  0
 19 20  1  0
 19 21  1  0
 21 22  2  0
  2  3  1  0
  3  4  2  0
  4  5  1  0
  5  6  2  0
  6  7  1  0
  6  8  1  0
  8  9  2  0
  9 10  1  0
 10 11  2  0
 11 12  1  0
 12 13  1  0
 13 14  1  0
 14  2  1  0
 22 16  1  0
  9  3  1  0
 14 10  1  0
  1 15  1  0
M  END
> <minimizedAffinity>
-7.81079

> <CNNscore>
0.3729133308

> <CNNaffinity>
5.6007971764

> <CNN_VS>
2.0886118412

> <CNNaffinity_variance>
0.1663708538

$$$$



 22 25  0  0  0  0  0  0  0  0999 V2000
  104.0629   30.5359   36.4322 O   0  0  0  0  0  0  0  0  0  0  0  0
  103.2119   29.7365   35.6416 C   0  0  0  0  0  0  0  0  0  0  0  0
  104.0329   29.1979   34.4740 C   0  0  0  0  0  0  0  0  0  0  0  0
  105.1529   28.3817   34.4783 C   0  0  0  0  0  0  0  0  0  0  0  0
  105.6999   28.0067   33.2438 C   0  0  0  0  0  0  0  0  0  0  0  0
  105.1242   28.4462   32.0334 C   0  0  0  0  0  0  0  0  0  0  0  0
  105.8957   27.9022   30.3932 Br  0  0  0  0  0  0  0  0  0  0  0  0
  104.0004   29.2699   32.0194 C   0  0  0  0  0  0  0  0  0  0  0  0
  103.4954   29.6313   33.2483 C   0  0  0  0  0  0  0  0  0  0  0  0
  102.3527   30.4430   33.6039 C   0  0  0  0  0  0  0  0  0  0  0  0
  101.3805   30.8927   32.8704 N   0  0  0  0  0  0  0  0  0  0  0  0
  100.4886   31.5242   33.9124 C   0  0  0  0  0  0  0  0  0  0  0  0
  100.9740   31.0155   35.2972 C   0  0  0  0  0  0  0  0  0  0  0  0
  102.3183   30.6463   34.9564 N   0  0  0  0  0  0  0  0  0  0  0  0
  104.6843   29.9681   36.9141 H   0  0  0  0  0  0  0  0  0  0  0  0
  102.5063   28.6613   36.4589 C   0  0  0  0  0  0  0  0  0  0  0  0
  101.9063   27.5455   35.8388 C   0  0  0  0  0  0  0  0  0  0  0  0
  101.2493   26.5669   36.5910 C   0  0  0  0  0  0  0  0  0  0  0  0
  101.1788   26.6893   37.9752 C   0  0  0  0  0  0  0  0  0  0  0  0
  100.3694   25.4869   38.9011 Cl  0  0  0  0  0  0  0  0  0  0  0  0
  101.7574   27.7821   38.6132 C   0  0  0  0  0  0  0  0  0  0  0  0
  102.4140   28.7608   37.8602 C   0  0  0  0  0  0  0  0  0  0  0  0
  2  1  1  0
  2 16  1  0
 16 17  2  0
 17 18  1  0
 18 19  2  0
 19 20  1  0
 19 21  1  0
 21 22  2  0
  2  3  1  0
  3  4  2  0
  4  5  1  0
  5  6  2  0
  6  7  1  0
  6  8  1  0
  8  9  2  0
  9 10  1  0
 10 11  2  0
 11 12  1  0
 12 13  1  0
 13 14  1  0
 14  2  1  0
 22 16  1  0
  9  3  1  0
 14 10  1  0
  1 15  1  0
M  END
> <minimizedAffinity>
-5.39142

> <CNNscore>
0.3696850538

> <CNNaffinity>
4.7747235298

> <CNN_VS>
1.7651438713

> <CNNaffinity_variance>
0.4230162799

$$$$
