


 26 28  0  0  0  0  0  0  0  0999 V2000
   90.5395   98.6627  -44.4943 N   0  0  0  0  0  0  0  0  0  0  0  0
   91.5396   99.2143  -45.4130 C   0  0  0  0  0  0  0  0  0  0  0  0
   92.4919  100.1569  -44.6658 C   0  0  0  0  0  0  0  0  0  0  0  0
   91.7843  100.9707  -43.5603 C   0  0  0  0  0  0  0  0  0  0  0  0
   90.2915  101.1082  -43.8835 C   0  0  0  0  0  0  0  0  0  0  0  0
   89.6301   99.7272  -44.0094 C   0  0  0  0  0  0  0  0  0  0  0  0
   92.4279  102.2575  -43.2334 N   0  0  0  0  0  0  0  0  0  0  0  0
   92.9408  102.3705  -41.8618 C   0  0  0  0  0  0  0  0  0  0  0  0
   93.1307  103.8153  -41.3918 C   0  0  0  0  0  0  0  0  0  0  0  0
   93.5552  104.7080  -42.5478 C   0  0  0  0  0  0  0  0  0  0  0  0
   93.7447  106.0447  -42.0892 O   0  0  0  0  0  0  0  0  0  0  0  0
   92.5279  104.6774  -43.6816 C   0  0  0  0  0  0  0  0  0  0  0  0
   91.6508  103.4215  -43.6548 C   0  0  0  0  0  0  0  0  0  0  0  0
   92.9079  106.3880  -41.7387 H   0  0  0  0  0  0  0  0  0  0  0  0
   89.7849   97.5625  -45.1289 C   0  0  0  0  0  0  0  0  0  0  0  0
   90.6696   96.9913  -42.4193 O   0  0  0  0  0  0  0  0  0  0  0  0
   90.6770   95.9664  -43.3302 C   0  0  0  0  0  0  0  0  0  0  0  0
   90.2160   96.1913  -44.6420 C   0  0  0  0  0  0  0  0  0  0  0  0
   90.2314   95.1182  -45.5481 C   0  0  0  0  0  0  0  0  0  0  0  0
   90.6813   93.8582  -45.1469 C   0  0  0  0  0  0  0  0  0  0  0  0
   90.6820   92.5682  -46.2887 Cl  0  0  0  0  0  0  0  0  0  0  0  0
   91.1301   93.6526  -43.8442 C   0  0  0  0  0  0  0  0  0  0  0  0
   91.5591   92.4349  -43.4734 F   0  0  0  0  0  0  0  0  0  0  0  0
   91.1342   94.7046  -42.9309 C   0  0  0  0  0  0  0  0  0  0  0  0
   91.7430   94.3936  -41.1608 Br  0  0  0  0  0  0  0  0  0  0  0  0
   90.3664   97.8410  -42.6725 H   0  0  0  0  0  0  0  0  0  0  0  0
 16 17  1  0
 17 18  2  0
 18 15  1  0
 15  1  1  0
  1  2  1  0
  2  3  1  0
  3  4  1  0
  4  7  1  0
  7  8  1  0
  8  9  1  0
  9 10  1  0
 10 11  1  0
 10 12  1  0
 12 13  1  0
  4  5  1  0
  5  6  1  0
 18 19  1  0
 19 20  2  0
 20 21  1  0
 20 22  1  0
 22 23  1  0
 22 24  2  0
 24 25  1  0
 24 17  1  0
  6  1  1  0
 13  7  1  0
 16 26  1  0
 11 14  1  0
M  END
> <minimizedAffinity>
-5.40593

> <CNNscore>
0.7999730706

> <CNNaffinity>
4.7159342766

> <CNN_VS>
3.7726204395

> <CNNaffinity_variance>
0.6193971634

$$$$



 26 28  0  0  0  0  0  0  0  0999 V2000
   88.6652   97.8048  -44.5314 N   0  0  0  0  0  0  0  0  0  0  0  0
   88.5256   98.8047  -43.4687 C   0  0  0  0  0  0  0  0  0  0  0  0
   87.0579   98.9304  -43.0403 C   0  0  0  0  0  0  0  0  0  0  0  0
   86.0737   98.7721  -44.2199 C   0  0  0  0  0  0  0  0  0  0  0  0
   86.7665   99.1470  -45.5357 C   0  0  0  0  0  0  0  0  0  0  0  0
   88.0015   98.2646  -45.7738 C   0  0  0  0  0  0  0  0  0  0  0  0
   84.7751   99.4478  -44.0353 N   0  0  0  0  0  0  0  0  0  0  0  0
   84.7781  100.5581  -43.0739 C   0  0  0  0  0  0  0  0  0  0  0  0
   83.3908  100.9016  -42.5246 C   0  0  0  0  0  0  0  0  0  0  0  0
   82.3208  100.6794  -43.5825 C   0  0  0  0  0  0  0  0  0  0  0  0
   81.0386  101.0207  -43.0603 O   0  0  0  0  0  0  0  0  0  0  0  0
   82.3218   99.2324  -44.0806 C   0  0  0  0  0  0  0  0  0  0  0  0
   83.6592   98.5235  -43.8434 C   0  0  0  0  0  0  0  0  0  0  0  0
   80.8345  100.4482  -42.3044 H   0  0  0  0  0  0  0  0  0  0  0  0
   90.0863   97.4807  -44.7724 C   0  0  0  0  0  0  0  0  0  0  0  0
   90.9535   96.6202  -42.1345 O   0  0  0  0  0  0  0  0  0  0  0  0
   90.8916   95.6811  -43.1317 C   0  0  0  0  0  0  0  0  0  0  0  0
   90.4359   96.0483  -44.4130 C   0  0  0  0  0  0  0  0  0  0  0  0
   90.3790   95.0605  -45.4097 C   0  0  0  0  0  0  0  0  0  0  0  0
   90.7536   93.7451  -45.1262 C   0  0  0  0  0  0  0  0  0  0  0  0
   90.6670   92.5632  -46.3765 Cl  0  0  0  0  0  0  0  0  0  0  0  0
   91.1981   93.3985  -43.8522 C   0  0  0  0  0  0  0  0  0  0  0  0
   91.5542   92.1291  -43.5949 F   0  0  0  0  0  0  0  0  0  0  0  0
   91.2732   94.3636  -42.8503 C   0  0  0  0  0  0  0  0  0  0  0  0
   91.8744   93.8614  -41.1221 Br  0  0  0  0  0  0  0  0  0  0  0  0
   90.7013   97.5057  -42.3085 H   0  0  0  0  0  0  0  0  0  0  0  0
 16 17  1  0
 17 18  2  0
 18 15  1  0
 15  1  1  0
  1  2  1  0
  2  3  1  0
  3  4  1  0
  4  7  1  0
  7  8  1  0
  8  9  1  0
  9 10  1  0
 10 11  1  0
 10 12  1  0
 12 13  1  0
  4  5  1  0
  5  6  1  0
 18 19  1  0
 19 20  2  0
 20 21  1  0
 20 22  1  0
 22 23  1  0
 22 24  2  0
 24 25  1  0
 24 17  1  0
  6  1  1  0
 13  7  1  0
 16 26  1  0
 11 14  1  0
M  END
> <minimizedAffinity>
-6.26872

> <CNNscore>
0.7370217443

> <CNNaffinity>
4.4062209129

> <CNN_VS>
3.2474806309

> <CNNaffinity_variance>
1.1638548374

$$$$



 26 28  0  0  0  0  0  0  0  0999 V2000
   90.5392   98.8109  -43.0932 N   0  0  0  0  0  0  0  0  0  0  0  0
   89.5943   99.8247  -42.6157 C   0  0  0  0  0  0  0  0  0  0  0  0
   89.0819  100.6736  -43.7863 C   0  0  0  0  0  0  0  0  0  0  0  0
   90.1627  100.9293  -44.8594 C   0  0  0  0  0  0  0  0  0  0  0  0
   91.5588  100.8303  -44.2324 C   0  0  0  0  0  0  0  0  0  0  0  0
   91.7774   99.4468  -43.6010 C   0  0  0  0  0  0  0  0  0  0  0  0
   89.9683  102.1595  -45.6505 N   0  0  0  0  0  0  0  0  0  0  0  0
   90.2133  102.0221  -47.0920 C   0  0  0  0  0  0  0  0  0  0  0  0
   90.5029  103.3500  -47.7973 C   0  0  0  0  0  0  0  0  0  0  0  0
   89.7130  104.4832  -47.1607 C   0  0  0  0  0  0  0  0  0  0  0  0
   89.9807  105.7078  -47.8403 O   0  0  0  0  0  0  0  0  0  0  0  0
   90.0386  104.6215  -45.6718 C   0  0  0  0  0  0  0  0  0  0  0  0
   90.6109  103.3354  -45.0670 C   0  0  0  0  0  0  0  0  0  0  0  0
   90.9238  105.9211  -47.7630 H   0  0  0  0  0  0  0  0  0  0  0  0
   90.8395   97.8245  -42.0352 C   0  0  0  0  0  0  0  0  0  0  0  0
   91.7979   95.5577  -40.4879 O   0  0  0  0  0  0  0  0  0  0  0  0
   91.4089   95.3362  -41.7840 C   0  0  0  0  0  0  0  0  0  0  0  0
   90.8987   96.3996  -42.5541 C   0  0  0  0  0  0  0  0  0  0  0  0
   90.5037   96.1369  -43.8760 C   0  0  0  0  0  0  0  0  0  0  0  0
   90.6043   94.8472  -44.4029 C   0  0  0  0  0  0  0  0  0  0  0  0
   90.1069   94.5669  -46.0282 Cl  0  0  0  0  0  0  0  0  0  0  0  0
   91.1075   93.8063  -43.6257 C   0  0  0  0  0  0  0  0  0  0  0  0
   91.1975   92.5714  -44.1464 F   0  0  0  0  0  0  0  0  0  0  0  0
   91.5157   94.0451  -42.3152 C   0  0  0  0  0  0  0  0  0  0  0  0
   92.1893   92.6067  -41.2771 Br  0  0  0  0  0  0  0  0  0  0  0  0
   91.7321   96.4166  -40.1192 H   0  0  0  0  0  0  0  0  0  0  0  0
 16 17  1  0
 17 18  2  0
 18 15  1  0
 15  1  1  0
  1  2  1  0
  2  3  1  0
  3  4  1  0
  4  7  1  0
  7  8  1  0
  8  9  1  0
  9 10  1  0
 10 11  1  0
 10 12  1  0
 12 13  1  0
  4  5  1  0
  5  6  1  0
 18 19  1  0
 19 20  2  0
 20 21  1  0
 20 22  1  0
 22 23  1  0
 22 24  2  0
 24 25  1  0
 24 17  1  0
  6  1  1  0
 13  7  1  0
 16 26  1  0
 11 14  1  0
M  END
> <minimizedAffinity>
-5.13164

> <CNNscore>
0.7031463385

> <CNNaffinity>
5.1241970062

> <CNN_VS>
3.6030602455

> <CNNaffinity_variance>
0.5840844512

$$$$



 26 28  0  0  0  0  0  0  0  0999 V2000
   90.2674   99.2936  -44.1324 N   0  0  0  0  0  0  0  0  0  0  0  0
   90.6333   99.3263  -42.7134 C   0  0  0  0  0  0  0  0  0  0  0  0
   91.2230  100.6934  -42.3433 C   0  0  0  0  0  0  0  0  0  0  0  0
   92.0772  101.3041  -43.4758 C   0  0  0  0  0  0  0  0  0  0  0  0
   92.6225  100.1920  -44.3801 C   0  0  0  0  0  0  0  0  0  0  0  0
   91.4755   99.3693  -44.9868 C   0  0  0  0  0  0  0  0  0  0  0  0
   93.1183  102.2468  -43.0239 N   0  0  0  0  0  0  0  0  0  0  0  0
   93.1667  102.4785  -41.5744 C   0  0  0  0  0  0  0  0  0  0  0  0
   93.8659  103.7829  -41.1817 C   0  0  0  0  0  0  0  0  0  0  0  0
   95.0006  104.0984  -42.1441 C   0  0  0  0  0  0  0  0  0  0  0  0
   95.6514  105.3056  -41.7537 O   0  0  0  0  0  0  0  0  0  0  0  0
   94.4948  104.2111  -43.5840 C   0  0  0  0  0  0  0  0  0  0  0  0
   93.1664  103.4808  -43.8058 C   0  0  0  0  0  0  0  0  0  0  0  0
   95.0184  106.0398  -41.7875 H   0  0  0  0  0  0  0  0  0  0  0  0
   89.4644   98.0938  -44.4463 C   0  0  0  0  0  0  0  0  0  0  0  0
   89.8045   95.7856  -46.1804 O   0  0  0  0  0  0  0  0  0  0  0  0
   90.2489   95.6918  -44.8866 C   0  0  0  0  0  0  0  0  0  0  0  0
   90.1414   96.8021  -44.0265 C   0  0  0  0  0  0  0  0  0  0  0  0
   90.6120   96.6741  -42.7094 C   0  0  0  0  0  0  0  0  0  0  0  0
   91.1842   95.4765  -42.2743 C   0  0  0  0  0  0  0  0  0  0  0  0
   91.7510   95.3617  -40.6516 Cl  0  0  0  0  0  0  0  0  0  0  0  0
   91.2863   94.3897  -43.1398 C   0  0  0  0  0  0  0  0  0  0  0  0
   91.8396   93.2448  -42.7068 F   0  0  0  0  0  0  0  0  0  0  0  0
   90.8166   94.4895  -44.4476 C   0  0  0  0  0  0  0  0  0  0  0  0
   90.9763   92.9958  -45.6069 Br  0  0  0  0  0  0  0  0  0  0  0  0
   89.4225   96.5840  -46.4879 H   0  0  0  0  0  0  0  0  0  0  0  0
 16 17  1  0
 17 18  2  0
 18 15  1  0
 15  1  1  0
  1  2  1  0
  2  3  1  0
  3  4  1  0
  4  7  1  0
  7  8  1  0
  8  9  1  0
  9 10  1  0
 10 11  1  0
 10 12  1  0
 12 13  1  0
  4  5  1  0
  5  6  1  0
 18 19  1  0
 19 20  2  0
 20 21  1  0
 20 22  1  0
 22 23  1  0
 22 24  2  0
 24 25  1  0
 24 17  1  0
  6  1  1  0
 13  7  1  0
 16 26  1  0
 11 14  1  0
M  END
> <minimizedAffinity>
-5.46444

> <CNNscore>
0.6463850737

> <CNNaffinity>
5.3665060997

> <CNN_VS>
3.4688293934

> <CNNaffinity_variance>
0.3562465906

$$$$



 26 28  0  0  0  0  0  0  0  0999 V2000
   88.8052   98.2683  -43.9561 N   0  0  0  0  0  0  0  0  0  0  0  0
   88.5854   99.3893  -43.0376 C   0  0  0  0  0  0  0  0  0  0  0  0
   87.1039   99.4821  -42.6499 C   0  0  0  0  0  0  0  0  0  0  0  0
   86.1561   99.1110  -43.8113 C   0  0  0  0  0  0  0  0  0  0  0  0
   86.8542   99.3500  -45.1556 C   0  0  0  0  0  0  0  0  0  0  0  0
   88.1429   98.5197  -45.2575 C   0  0  0  0  0  0  0  0  0  0  0  0
   84.8170   99.7260  -43.7358 N   0  0  0  0  0  0  0  0  0  0  0  0
   84.6825  100.8153  -42.7601 C   0  0  0  0  0  0  0  0  0  0  0  0
   83.2368  101.0872  -42.3352 C   0  0  0  0  0  0  0  0  0  0  0  0
   82.2788  100.8408  -43.4906 C   0  0  0  0  0  0  0  0  0  0  0  0
   80.9403  101.1155  -43.0830 O   0  0  0  0  0  0  0  0  0  0  0  0
   82.3903   99.4057  -44.0103 C   0  0  0  0  0  0  0  0  0  0  0  0
   83.7309   98.7505  -43.6627 C   0  0  0  0  0  0  0  0  0  0  0  0
   80.6940  100.5193  -42.3586 H   0  0  0  0  0  0  0  0  0  0  0  0
   90.2475   98.0011  -44.1324 C   0  0  0  0  0  0  0  0  0  0  0  0
   90.2382   95.8633  -46.1023 O   0  0  0  0  0  0  0  0  0  0  0  0
   90.5662   95.5476  -44.8089 C   0  0  0  0  0  0  0  0  0  0  0  0
   90.6237   96.5617  -43.8330 C   0  0  0  0  0  0  0  0  0  0  0  0
   90.9689   96.2049  -42.5191 C   0  0  0  0  0  0  0  0  0  0  0  0
   91.2604   94.8770  -42.1986 C   0  0  0  0  0  0  0  0  0  0  0  0
   91.6815   94.4819  -40.5756 Cl  0  0  0  0  0  0  0  0  0  0  0  0
   91.2026   93.8874  -43.1773 C   0  0  0  0  0  0  0  0  0  0  0  0
   91.4862   92.6150  -42.8536 F   0  0  0  0  0  0  0  0  0  0  0  0
   90.8520   94.2157  -44.4851 C   0  0  0  0  0  0  0  0  0  0  0  0
   90.7895   92.8485  -45.7995 Br  0  0  0  0  0  0  0  0  0  0  0  0
   90.0445   96.7505  -46.3334 H   0  0  0  0  0  0  0  0  0  0  0  0
 16 17  1  0
 17 18  2  0
 18 15  1  0
 15  1  1  0
  1  2  1  0
  2  3  1  0
  3  4  1  0
  4  7  1  0
  7  8  1  0
  8  9  1  0
  9 10  1  0
 10 11  1  0
 10 12  1  0
 12 13  1  0
  4  5  1  0
  5  6  1  0
 18 19  1  0
 19 20  2  0
 20 21  1  0
 20 22  1  0
 22 23  1  0
 22 24  2  0
 24 25  1  0
 24 17  1  0
  6  1  1  0
 13  7  1  0
 16 26  1  0
 11 14  1  0
M  END
> <minimizedAffinity>
-5.94398

> <CNNscore>
0.6456205249

> <CNNaffinity>
4.6795496941

> <CNN_VS>
3.0212132931

> <CNNaffinity_variance>
0.7487526536

$$$$



 26 28  0  0  0  0  0  0  0  0999 V2000
   89.7853   98.7395  -44.2175 N   0  0  0  0  0  0  0  0  0  0  0  0
   89.0647   98.7485  -42.9411 C   0  0  0  0  0  0  0  0  0  0  0  0
   89.2016  100.1152  -42.2579 C   0  0  0  0  0  0  0  0  0  0  0  0
   90.5879  100.7593  -42.4783 C   0  0  0  0  0  0  0  0  0  0  0  0
   91.6331   99.6726  -42.7581 C   0  0  0  0  0  0  0  0  0  0  0  0
   91.2462   98.8476  -43.9952 C   0  0  0  0  0  0  0  0  0  0  0  0
   91.0032  101.7060  -41.4256 N   0  0  0  0  0  0  0  0  0  0  0  0
   92.2980  101.4146  -40.7969 C   0  0  0  0  0  0  0  0  0  0  0  0
   92.4746  102.0621  -39.4206 C   0  0  0  0  0  0  0  0  0  0  0  0
   91.7716  103.4097  -39.3635 C   0  0  0  0  0  0  0  0  0  0  0  0
   91.9610  104.0060  -38.0822 O   0  0  0  0  0  0  0  0  0  0  0  0
   90.2783  103.2724  -39.6683 C   0  0  0  0  0  0  0  0  0  0  0  0
   89.9477  102.0023  -40.4588 C   0  0  0  0  0  0  0  0  0  0  0  0
   91.5716  103.4370  -37.3999 H   0  0  0  0  0  0  0  0  0  0  0  0
   89.4519   97.5361  -45.0071 C   0  0  0  0  0  0  0  0  0  0  0  0
   89.8360   95.1186  -46.5753 O   0  0  0  0  0  0  0  0  0  0  0  0
   90.2623   95.1170  -45.2721 C   0  0  0  0  0  0  0  0  0  0  0  0
   90.1332   96.2821  -44.4910 C   0  0  0  0  0  0  0  0  0  0  0  0
   90.5856   96.2481  -43.1618 C   0  0  0  0  0  0  0  0  0  0  0  0
   91.1612   95.0880  -42.6384 C   0  0  0  0  0  0  0  0  0  0  0  0
   91.7052   95.0889  -41.0038 Cl  0  0  0  0  0  0  0  0  0  0  0  0
   91.2847   93.9459  -43.4264 C   0  0  0  0  0  0  0  0  0  0  0  0
   91.8409   92.8382  -42.9088 F   0  0  0  0  0  0  0  0  0  0  0  0
   90.8333   93.9525  -44.7443 C   0  0  0  0  0  0  0  0  0  0  0  0
   91.0219   92.3850  -45.7970 Br  0  0  0  0  0  0  0  0  0  0  0  0
   89.4520   95.8908  -46.9417 H   0  0  0  0  0  0  0  0  0  0  0  0
 16 17  1  0
 17 18  2  0
 18 15  1  0
 15  1  1  0
  1  2  1  0
  2  3  1  0
  3  4  1  0
  4  7  1  0
  7  8  1  0
  8  9  1  0
  9 10  1  0
 10 11  1  0
 10 12  1  0
 12 13  1  0
  4  5  1  0
  5  6  1  0
 18 19  1  0
 19 20  2  0
 20 21  1  0
 20 22  1  0
 22 23  1  0
 22 24  2  0
 24 25  1  0
 24 17  1  0
  6  1  1  0
 13  7  1  0
 16 26  1  0
 11 14  1  0
M  END
> <minimizedAffinity>
-6.12282

> <CNNscore>
0.4103876352

> <CNNaffinity>
5.2982535362

> <CNN_VS>
2.1743376255

> <CNNaffinity_variance>
0.6312955022

$$$$



 26 28  0  0  0  0  0  0  0  0999 V2000
   89.0782   98.1026  -45.2643 N   0  0  0  0  0  0  0  0  0  0  0  0
   88.3508   96.9538  -45.8120 C   0  0  0  0  0  0  0  0  0  0  0  0
   86.9816   97.3921  -46.3476 C   0  0  0  0  0  0  0  0  0  0  0  0
   86.3337   98.5059  -45.4963 C   0  0  0  0  0  0  0  0  0  0  0  0
   86.8763   98.4540  -44.0629 C   0  0  0  0  0  0  0  0  0  0  0  0
   88.4037   98.6192  -44.0504 C   0  0  0  0  0  0  0  0  0  0  0  0
   84.8602   98.5512  -45.5573 N   0  0  0  0  0  0  0  0  0  0  0  0
   84.1777   97.3238  -45.1275 C   0  0  0  0  0  0  0  0  0  0  0  0
   82.7467   97.1965  -45.6572 C   0  0  0  0  0  0  0  0  0  0  0  0
   82.0843   98.5621  -45.7572 C   0  0  0  0  0  0  0  0  0  0  0  0
   80.7479   98.4234  -46.2346 O   0  0  0  0  0  0  0  0  0  0  0  0
   82.8778   99.5007  -46.6689 C   0  0  0  0  0  0  0  0  0  0  0  0
   84.3451   99.0853  -46.8166 C   0  0  0  0  0  0  0  0  0  0  0  0
   80.7605   98.0320  -47.1220 H   0  0  0  0  0  0  0  0  0  0  0  0
   90.4873   97.7558  -44.9869 C   0  0  0  0  0  0  0  0  0  0  0  0
   90.9896   97.0726  -42.2063 O   0  0  0  0  0  0  0  0  0  0  0  0
   90.9408   96.0537  -43.1225 C   0  0  0  0  0  0  0  0  0  0  0  0
   90.6577   96.3382  -44.4728 C   0  0  0  0  0  0  0  0  0  0  0  0
   90.6091   95.2705  -45.3839 C   0  0  0  0  0  0  0  0  0  0  0  0
   90.8235   93.9596  -44.9519 C   0  0  0  0  0  0  0  0  0  0  0  0
   90.7530   92.6784  -46.1013 Cl  0  0  0  0  0  0  0  0  0  0  0  0
   91.0982   93.6959  -43.6119 C   0  0  0  0  0  0  0  0  0  0  0  0
   91.3015   92.4298  -43.2116 F   0  0  0  0  0  0  0  0  0  0  0  0
   91.1621   94.7399  -42.6916 C   0  0  0  0  0  0  0  0  0  0  0  0
   91.5299   94.3504  -40.8713 Br  0  0  0  0  0  0  0  0  0  0  0  0
   90.8434   97.9566  -42.4804 H   0  0  0  0  0  0  0  0  0  0  0  0
 16 17  1  0
 17 18  2  0
 18 15  1  0
 15  1  1  0
  1  2  1  0
  2  3  1  0
  3  4  1  0
  4  7  1  0
  7  8  1  0
  8  9  1  0
  9 10  1  0
 10 11  1  0
 10 12  1  0
 12 13  1  0
  4  5  1  0
  5  6  1  0
 18 19  1  0
 19 20  2  0
 20 21  1  0
 20 22  1  0
 22 23  1  0
 22 24  2  0
 24 25  1  0
 24 17  1  0
  6  1  1  0
 13  7  1  0
 16 26  1  0
 11 14  1  0
M  END
> <minimizedAffinity>
-5.59929

> <CNNscore>
0.4095540047

> <CNNaffinity>
4.5995087624

> <CNN_VS>
1.8837472200

> <CNNaffinity_variance>
0.6409593225

$$$$



 26 28  0  0  0  0  0  0  0  0999 V2000
   85.8428   94.7892  -49.1187 N   0  0  0  0  0  0  0  0  0  0  0  0
   86.5100   96.0306  -48.7156 C   0  0  0  0  0  0  0  0  0  0  0  0
   86.3746   96.2451  -47.2026 C   0  0  0  0  0  0  0  0  0  0  0  0
   85.0130   95.7706  -46.6495 C   0  0  0  0  0  0  0  0  0  0  0  0
   83.9568   95.7968  -47.7611 C   0  0  0  0  0  0  0  0  0  0  0  0
   84.3766   94.8990  -48.9351 C   0  0  0  0  0  0  0  0  0  0  0  0
   84.5751   96.4542  -45.4174 N   0  0  0  0  0  0  0  0  0  0  0  0
   83.1644   96.8618  -45.3951 C   0  0  0  0  0  0  0  0  0  0  0  0
   82.8598   97.9734  -44.3871 C   0  0  0  0  0  0  0  0  0  0  0  0
   83.7385   97.8390  -43.1529 C   0  0  0  0  0  0  0  0  0  0  0  0
   83.4296   98.8705  -42.2181 O   0  0  0  0  0  0  0  0  0  0  0  0
   85.2237   97.8834  -43.5191 C   0  0  0  0  0  0  0  0  0  0  0  0
   85.4864   97.5107  -44.9818 C   0  0  0  0  0  0  0  0  0  0  0  0
   83.6090   99.7351  -42.6197 H   0  0  0  0  0  0  0  0  0  0  0  0
   86.1824   94.4318  -50.5114 C   0  0  0  0  0  0  0  0  0  0  0  0
   85.4369   91.7310  -49.7365 O   0  0  0  0  0  0  0  0  0  0  0  0
   86.7163   91.9449  -50.1809 C   0  0  0  0  0  0  0  0  0  0  0  0
   87.1048   93.2304  -50.6060 C   0  0  0  0  0  0  0  0  0  0  0  0
   88.4208   93.4137  -51.0612 C   0  0  0  0  0  0  0  0  0  0  0  0
   89.3128   92.3395  -51.1016 C   0  0  0  0  0  0  0  0  0  0  0  0
   90.9175   92.6064  -51.6687 Cl  0  0  0  0  0  0  0  0  0  0  0  0
   88.9104   91.0739  -50.6811 C   0  0  0  0  0  0  0  0  0  0  0  0
   89.7797   90.0508  -50.7266 F   0  0  0  0  0  0  0  0  0  0  0  0
   87.6133   90.8703  -50.2155 C   0  0  0  0  0  0  0  0  0  0  0  0
   87.0902   89.1339  -49.6571 Br  0  0  0  0  0  0  0  0  0  0  0  0
   84.8260   92.4408  -49.7080 H   0  0  0  0  0  0  0  0  0  0  0  0
 16 17  1  0
 17 18  2  0
 18 15  1  0
 15  1  1  0
  1  2  1  0
  2  3  1  0
  3  4  1  0
  4  7  1  0
  7  8  1  0
  8  9  1  0
  9 10  1  0
 10 11  1  0
 10 12  1  0
 12 13  1  0
  4  5  1  0
  5  6  1  0
 18 19  1  0
 19 20  2  0
 20 21  1  0
 20 22  1  0
 22 23  1  0
 22 24  2  0
 24 25  1  0
 24 17  1  0
  6  1  1  0
 13  7  1  0
 16 26  1  0
 11 14  1  0
M  END
> <minimizedAffinity>
-4.63240

> <CNNscore>
0.3772761524

> <CNNaffinity>
3.9978399277

> <CNN_VS>
1.5082896948

> <CNNaffinity_variance>
0.5182049870

$$$$



 26 28  0  0  0  0  0  0  0  0999 V2000
   88.0377   98.5086  -44.8145 N   0  0  0  0  0  0  0  0  0  0  0  0
   87.0295   98.6167  -43.7559 C   0  0  0  0  0  0  0  0  0  0  0  0
   85.6731   98.0999  -44.2527 C   0  0  0  0  0  0  0  0  0  0  0  0
   85.4130   98.4318  -45.7384 C   0  0  0  0  0  0  0  0  0  0  0  0
   86.2239   99.6665  -46.1503 C   0  0  0  0  0  0  0  0  0  0  0  0
   87.7263   99.4319  -45.9307 C   0  0  0  0  0  0  0  0  0  0  0  0
   83.9880   98.5234  -46.1100 N   0  0  0  0  0  0  0  0  0  0  0  0
   83.2420   99.6127  -45.4669 C   0  0  0  0  0  0  0  0  0  0  0  0
   81.7261   99.3974  -45.4529 C   0  0  0  0  0  0  0  0  0  0  0  0
   81.2732   98.6641  -46.7061 C   0  0  0  0  0  0  0  0  0  0  0  0
   79.8584   98.4879  -46.6851 O   0  0  0  0  0  0  0  0  0  0  0  0
   81.9736   97.3104  -46.8433 C   0  0  0  0  0  0  0  0  0  0  0  0
   83.2894   97.2405  -46.0615 C   0  0  0  0  0  0  0  0  0  0  0  0
   79.6111   97.9485  -45.9177 H   0  0  0  0  0  0  0  0  0  0  0  0
   89.3945   98.7508  -44.2824 C   0  0  0  0  0  0  0  0  0  0  0  0
   89.7896   96.3905  -45.9328 O   0  0  0  0  0  0  0  0  0  0  0  0
   90.2142   96.3454  -44.6298 C   0  0  0  0  0  0  0  0  0  0  0  0
   90.0798   97.4822  -43.8090 C   0  0  0  0  0  0  0  0  0  0  0  0
   90.5307   97.4039  -42.4812 C   0  0  0  0  0  0  0  0  0  0  0  0
   91.1099   96.2285  -41.9974 C   0  0  0  0  0  0  0  0  0  0  0  0
   91.6519   96.1747  -40.3631 Cl  0  0  0  0  0  0  0  0  0  0  0  0
   91.2386   95.1148  -42.8244 C   0  0  0  0  0  0  0  0  0  0  0  0
   91.7983   93.9919  -42.3447 F   0  0  0  0  0  0  0  0  0  0  0  0
   90.7888   95.1654  -44.1419 C   0  0  0  0  0  0  0  0  0  0  0  0
   90.9847   93.6361  -45.2481 Br  0  0  0  0  0  0  0  0  0  0  0  0
   89.4032   97.1736  -46.2728 H   0  0  0  0  0  0  0  0  0  0  0  0
 16 17  1  0
 17 18  2  0
 18 15  1  0
 15  1  1  0
  1  2  1  0
  2  3  1  0
  3  4  1  0
  4  7  1  0
  7  8  1  0
  8  9  1  0
  9 10  1  0
 10 11  1  0
 10 12  1  0
 12 13  1  0
  4  5  1  0
  5  6  1  0
 18 19  1  0
 19 20  2  0
 20 21  1  0
 20 22  1  0
 22 23  1  0
 22 24  2  0
 24 25  1  0
 24 17  1  0
  6  1  1  0
 13  7  1  0
 16 26  1  0
 11 14  1  0
M  END
> <minimizedAffinity>
-5.44102

> <CNNscore>
0.3165899515

> <CNNaffinity>
4.8182315826

> <CNN_VS>
1.5254037380

> <CNNaffinity_variance>
0.4286178648

$$$$
