


 50 53  0  0  0  0  0  0  0  0999 V2000
   -6.6012   25.1614   -4.3631 C   0  0  0  0  0  0  0  0  0  0  0  0
   -7.4446   27.4000   -4.8213 N   0  0  0  0  0  0  0  0  0  0  0  0
   -7.7313   26.0526   -4.8695 C   0  0  0  0  0  0  0  0  0  0  0  0
   -8.7801   25.6066   -5.3253 O   0  0  0  0  0  0  0  0  0  0  0  0
   -6.6648   27.7194   -4.3122 H   0  0  0  0  0  0  0  0  0  0  0  0
   -8.2968   28.3531   -5.5248 C   0  0  0  0  0  0  0  0  0  0  0  0
   -8.3130   29.6883   -4.7940 C   0  0  0  0  0  0  0  0  0  0  0  0
   -8.6801   28.6446   -7.9425 N   0  0  0  0  0  0  0  0  0  0  0  0
   -7.7274   28.5275   -6.9489 C   0  0  0  0  0  0  0  0  0  0  0  0
   -6.5183   28.5874   -7.1754 O   0  0  0  0  0  0  0  0  0  0  0  0
   -9.6212   28.4246   -7.7552 H   0  0  0  0  0  0  0  0  0  0  0  0
   -7.8762   27.9188  -10.1449 C   0  0  0  0  0  0  0  0  0  0  0  0
   -8.2821   29.0965   -9.2703 C   0  0  0  0  0  0  0  0  0  0  0  0
   -9.4835   29.8242   -9.8990 C   0  0  0  0  0  0  0  0  0  0  0  0
  -10.0810   29.1881  -10.9499 N   0  0  0  0  0  0  0  0  0  0  0  0
   -9.9390   30.8800   -9.4652 O   0  0  0  0  0  0  0  0  0  0  0  0
   -9.7083   28.3428  -11.2899 H   0  0  0  0  0  0  0  0  0  0  0  0
  -10.8844   29.5751  -11.3671 H   0  0  0  0  0  0  0  0  0  0  0  0
   -6.7623   23.7313   -4.9041 C   0  0  0  0  0  0  0  0  0  0  0  0
   -5.5601   23.1856   -5.5855 C   0  0  0  0  0  0  0  0  0  0  0  0
   -4.2064   23.3962   -5.4853 C   0  0  0  0  0  0  0  0  0  0  0  0
   -3.6289   22.5612   -6.4787 C   0  0  0  0  0  0  0  0  0  0  0  0
   -4.5889   21.8555   -7.1006 N   0  0  0  0  0  0  0  0  0  0  0  0
   -5.7876   22.2513   -6.5462 O   0  0  0  0  0  0  0  0  0  0  0  0
   -2.2194   22.4372   -6.8473 C   0  0  0  0  0  0  0  0  0  0  0  0
   -1.2720   23.3615   -6.3869 C   0  0  0  0  0  0  0  0  0  0  0  0
    0.0728   23.2553   -6.7650 C   0  0  0  0  0  0  0  0  0  0  0  0
    0.5079   22.2232   -7.6121 C   0  0  0  0  0  0  0  0  0  0  0  0
   -0.4453   21.2943   -8.0619 C   0  0  0  0  0  0  0  0  0  0  0  0
   -1.7903   21.4013   -7.6877 C   0  0  0  0  0  0  0  0  0  0  0  0
    1.9155   22.1263   -8.0281 C   0  0  0  0  0  0  0  0  0  0  0  0
    2.5286   20.8778   -8.2231 C   0  0  0  0  0  0  0  0  0  0  0  0
    3.8658   20.7954   -8.6166 C   0  0  0  0  0  0  0  0  0  0  0  0
    4.5908   19.2498   -8.8489 Cl  0  0  0  0  0  0  0  0  0  0  0  0
    4.6190   21.9476   -8.8218 C   0  0  0  0  0  0  0  0  0  0  0  0
    4.0229   23.1893   -8.6284 C   0  0  0  0  0  0  0  0  0  0  0  0
    5.0333   24.7657   -8.8969 Br  0  0  0  0  0  0  0  0  0  0  0  0
    2.6854   23.2838   -8.2363 C   0  0  0  0  0  0  0  0  0  0  0  0
   -6.5061   25.2270   -2.8347 C   0  0  0  0  0  0  0  0  0  0  0  0
   -8.1244   25.0893   -2.0442 P   0  0  0  0  0  0  0  0  0  0  0  0
   -9.2278   24.7211   -2.9944 O   0  0  0  0  0  0  0  0  0  0  0  0
   -7.8992   23.8741   -1.0004 O   0  0  0  0  0  0  0  0  0  0  0  0
   -7.7322   23.0538   -1.4904 H   0  0  0  0  0  0  0  0  0  0  0  0
   -8.4155   26.5090   -1.0295 C   0  0  0  0  0  0  0  0  0  0  0  0
   -9.1564   26.4081    0.1568 C   0  0  0  0  0  0  0  0  0  0  0  0
   -9.3708   27.5312    0.9588 C   0  0  0  0  0  0  0  0  0  0  0  0
   -8.8415   28.7624    0.5779 C   0  0  0  0  0  0  0  0  0  0  0  0
   -9.1300   30.2835    1.6635 Br  0  0  0  0  0  0  0  0  0  0  0  0
   -8.1065   28.8828   -0.6005 C   0  0  0  0  0  0  0  0  0  0  0  0
   -7.8962   27.7577   -1.4010 C   0  0  0  0  0  0  0  0  0  0  0  0
 13 12  1  0
 13  8  1  0
  8  9  1  0
  9 10  2  0
  9  6  1  0
  6  7  1  0
  6  2  1  0
  2  3  1  0
  3  4  2  0
  3  1  1  0
  1 19  1  0
 19 20  1  0
 20 21  2  0
 21 22  1  0
 22 25  1  0
 25 26  2  0
 26 27  1  0
 27 28  2  0
 28 31  1  0
 31 32  2  0
 32 33  1  0
 33 34  1  0
 33 35  2  0
 35 36  1  0
 36 37  1  0
 36 38  2  0
 28 29  1  0
 29 30  2  0
 22 23  2  0
 23 24  1  0
  1 39  1  0
 39 40  1  0
 40 41  2  0
 40 42  1  0
 40 44  1  0
 44 45  2  0
 45 46  1  0
 46 47  2  0
 47 48  1  0
 47 49  1  0
 49 50  2  0
 13 14  1  0
 14 15  1  0
 14 16  2  0
 24 20  1  0
 50 44  1  0
 30 25  1  0
 38 31  1  0
  8 11  1  0
  2  5  1  0
 42 43  1  0
 15 17  1  0
 15 18  1  0
M  END
> <minimizedAffinity>
-10.86294

> <CNNscore>
0.8954405785

> <CNNaffinity>
8.4159698486

> <CNN_VS>
7.5360007286

> <CNNaffinity_variance>
0.1461508721

$$$$



 50 53  0  0  0  0  0  0  0  0999 V2000
   -7.0533   25.0668   -4.2366 C   0  0  0  0  0  0  0  0  0  0  0  0
   -7.5006   27.3829   -4.8433 N   0  0  0  0  0  0  0  0  0  0  0  0
   -8.0432   26.1216   -4.7215 C   0  0  0  0  0  0  0  0  0  0  0  0
   -9.2036   25.8593   -5.0238 O   0  0  0  0  0  0  0  0  0  0  0  0
   -6.6205   27.5803   -4.4489 H   0  0  0  0  0  0  0  0  0  0  0  0
   -8.2308   28.4256   -5.5569 C   0  0  0  0  0  0  0  0  0  0  0  0
   -8.0477   29.7685   -4.8640 C   0  0  0  0  0  0  0  0  0  0  0  0
   -8.6294   28.6828   -7.9759 N   0  0  0  0  0  0  0  0  0  0  0  0
   -7.6761   28.4840   -6.9961 C   0  0  0  0  0  0  0  0  0  0  0  0
   -6.4737   28.3906   -7.2462 O   0  0  0  0  0  0  0  0  0  0  0  0
   -9.5858   28.5838   -7.7644 H   0  0  0  0  0  0  0  0  0  0  0  0
   -7.8893   27.7960  -10.1414 C   0  0  0  0  0  0  0  0  0  0  0  0
   -8.2094   29.0403   -9.3255 C   0  0  0  0  0  0  0  0  0  0  0  0
   -9.3625   29.8159   -9.9868 C   0  0  0  0  0  0  0  0  0  0  0  0
   -9.8001   29.3251  -11.1842 N   0  0  0  0  0  0  0  0  0  0  0  0
   -9.9171   30.7807   -9.4653 O   0  0  0  0  0  0  0  0  0  0  0  0
   -9.3490   28.5518  -11.5937 H   0  0  0  0  0  0  0  0  0  0  0  0
  -10.5666   29.7447  -11.6376 H   0  0  0  0  0  0  0  0  0  0  0  0
   -7.2359   23.7581   -5.0227 C   0  0  0  0  0  0  0  0  0  0  0  0
   -5.9846   23.1970   -5.5946 C   0  0  0  0  0  0  0  0  0  0  0  0
   -4.6558   23.5422   -5.5512 C   0  0  0  0  0  0  0  0  0  0  0  0
   -3.9988   22.5817   -6.3658 C   0  0  0  0  0  0  0  0  0  0  0  0
   -4.8874   21.6850   -6.8266 N   0  0  0  0  0  0  0  0  0  0  0  0
   -6.1209   22.0750   -6.3496 O   0  0  0  0  0  0  0  0  0  0  0  0
   -2.5809   22.5124   -6.7164 C   0  0  0  0  0  0  0  0  0  0  0  0
   -1.6509   23.3774   -6.1240 C   0  0  0  0  0  0  0  0  0  0  0  0
   -0.2977   23.3266   -6.4833 C   0  0  0  0  0  0  0  0  0  0  0  0
    0.1633   22.4106   -7.4427 C   0  0  0  0  0  0  0  0  0  0  0  0
   -0.7727   21.5398   -8.0251 C   0  0  0  0  0  0  0  0  0  0  0  0
   -2.1260   21.5917   -7.6697 C   0  0  0  0  0  0  0  0  0  0  0  0
    1.5800   22.3741   -7.8370 C   0  0  0  0  0  0  0  0  0  0  0  0
    2.3202   23.5581   -7.9884 C   0  0  0  0  0  0  0  0  0  0  0  0
    3.6642   23.5139   -8.3645 C   0  0  0  0  0  0  0  0  0  0  0  0
    4.5471   24.9828   -8.5415 Cl  0  0  0  0  0  0  0  0  0  0  0  0
    4.2974   22.2969   -8.5989 C   0  0  0  0  0  0  0  0  0  0  0  0
    3.5731   21.1183   -8.4552 C   0  0  0  0  0  0  0  0  0  0  0  0
    4.4160   19.4555   -8.7756 Br  0  0  0  0  0  0  0  0  0  0  0  0
    2.2284   21.1503   -8.0778 C   0  0  0  0  0  0  0  0  0  0  0  0
   -7.1594   24.8849   -2.7184 C   0  0  0  0  0  0  0  0  0  0  0  0
   -8.3608   26.0128   -1.9787 P   0  0  0  0  0  0  0  0  0  0  0  0
   -8.0306   27.4632   -2.1871 O   0  0  0  0  0  0  0  0  0  0  0  0
   -9.7154   25.6581   -2.7888 O   0  0  0  0  0  0  0  0  0  0  0  0
   -9.6075   25.9017   -3.7215 H   0  0  0  0  0  0  0  0  0  0  0  0
   -8.6901   25.5238   -0.3107 C   0  0  0  0  0  0  0  0  0  0  0  0
   -8.5369   26.4284    0.7498 C   0  0  0  0  0  0  0  0  0  0  0  0
   -8.8114   26.0382    2.0624 C   0  0  0  0  0  0  0  0  0  0  0  0
   -9.2436   24.7390    2.3200 C   0  0  0  0  0  0  0  0  0  0  0  0
   -9.6167   24.2097    4.0966 Br  0  0  0  0  0  0  0  0  0  0  0  0
   -9.3970   23.8245    1.2790 C   0  0  0  0  0  0  0  0  0  0  0  0
   -9.1194   24.2180   -0.0320 C   0  0  0  0  0  0  0  0  0  0  0  0
 13 12  1  0
 13  8  1  0
  8  9  1  0
  9 10  2  0
  9  6  1  0
  6  7  1  0
  6  2  1  0
  2  3  1  0
  3  4  2  0
  3  1  1  0
  1 19  1  0
 19 20  1  0
 20 21  2  0
 21 22  1  0
 22 25  1  0
 25 26  2  0
 26 27  1  0
 27 28  2  0
 28 31  1  0
 31 32  2  0
 32 33  1  0
 33 34  1  0
 33 35  2  0
 35 36  1  0
 36 37  1  0
 36 38  2  0
 28 29  1  0
 29 30  2  0
 22 23  2  0
 23 24  1  0
  1 39  1  0
 39 40  1  0
 40 41  2  0
 40 42  1  0
 40 44  1  0
 44 45  2  0
 45 46  1  0
 46 47  2  0
 47 48  1  0
 47 49  1  0
 49 50  2  0
 13 14  1  0
 14 15  1  0
 14 16  2  0
 24 20  1  0
 50 44  1  0
 30 25  1  0
 38 31  1  0
  8 11  1  0
  2  5  1  0
 42 43  1  0
 15 17  1  0
 15 18  1  0
M  END
> <minimizedAffinity>
-11.06575

> <CNNscore>
0.8166509271

> <CNNaffinity>
8.1694250107

> <CNN_VS>
6.6715683937

> <CNNaffinity_variance>
0.6133970618

$$$$



 50 53  0  0  0  0  0  0  0  0999 V2000
   -8.6863   25.6605   -2.3419 C   0  0  0  0  0  0  0  0  0  0  0  0
   -8.5895   27.2194   -4.2109 N   0  0  0  0  0  0  0  0  0  0  0  0
   -8.3852   27.0649   -2.8565 C   0  0  0  0  0  0  0  0  0  0  0  0
   -8.0411   27.9857   -2.1214 O   0  0  0  0  0  0  0  0  0  0  0  0
   -8.7146   26.4282   -4.7832 H   0  0  0  0  0  0  0  0  0  0  0  0
   -8.6204   28.5557   -4.7965 C   0  0  0  0  0  0  0  0  0  0  0  0
   -7.9304   29.5527   -3.8762 C   0  0  0  0  0  0  0  0  0  0  0  0
   -8.5235   29.1619   -7.1840 N   0  0  0  0  0  0  0  0  0  0  0  0
   -7.8929   28.4877   -6.1561 C   0  0  0  0  0  0  0  0  0  0  0  0
   -6.8191   27.9029   -6.3037 O   0  0  0  0  0  0  0  0  0  0  0  0
   -9.4524   29.4705   -7.0779 H   0  0  0  0  0  0  0  0  0  0  0  0
   -7.8103   28.1781   -9.3164 C   0  0  0  0  0  0  0  0  0  0  0  0
   -7.8039   29.4131   -8.4268 C   0  0  0  0  0  0  0  0  0  0  0  0
   -8.5033   30.5793   -9.1475 C   0  0  0  0  0  0  0  0  0  0  0  0
   -8.8671   31.6337   -8.3589 N   0  0  0  0  0  0  0  0  0  0  0  0
   -8.6798   30.6165  -10.3631 O   0  0  0  0  0  0  0  0  0  0  0  0
   -8.7214   31.5941   -7.3860 H   0  0  0  0  0  0  0  0  0  0  0  0
   -9.2749   32.4332   -8.7634 H   0  0  0  0  0  0  0  0  0  0  0  0
   -9.1631   24.7585   -3.4921 C   0  0  0  0  0  0  0  0  0  0  0  0
   -8.0732   24.1065   -4.2632 C   0  0  0  0  0  0  0  0  0  0  0  0
   -6.7093   24.2536   -4.3327 C   0  0  0  0  0  0  0  0  0  0  0  0
   -6.2883   23.3242   -5.3210 C   0  0  0  0  0  0  0  0  0  0  0  0
   -7.3437   22.6279   -5.7764 N   0  0  0  0  0  0  0  0  0  0  0  0
   -8.4514   23.1218   -5.1205 O   0  0  0  0  0  0  0  0  0  0  0  0
   -4.9380   23.1030   -5.8367 C   0  0  0  0  0  0  0  0  0  0  0  0
   -4.7037   22.1811   -6.8659 C   0  0  0  0  0  0  0  0  0  0  0  0
   -3.4047   21.9516   -7.3379 C   0  0  0  0  0  0  0  0  0  0  0  0
   -2.3053   22.6369   -6.7960 C   0  0  0  0  0  0  0  0  0  0  0  0
   -2.5486   23.5668   -5.7715 C   0  0  0  0  0  0  0  0  0  0  0  0
   -3.8458   23.7946   -5.2962 C   0  0  0  0  0  0  0  0  0  0  0  0
   -0.9390   22.3779   -7.2756 C   0  0  0  0  0  0  0  0  0  0  0  0
   -0.6399   21.2270   -8.0230 C   0  0  0  0  0  0  0  0  0  0  0  0
    0.6604   20.9886   -8.4728 C   0  0  0  0  0  0  0  0  0  0  0  0
    0.9971   19.5685   -9.3884 Cl  0  0  0  0  0  0  0  0  0  0  0  0
    1.6866   21.8847   -8.1886 C   0  0  0  0  0  0  0  0  0  0  0  0
    1.4025   23.0260   -7.4463 C   0  0  0  0  0  0  0  0  0  0  0  0
    2.7863   24.2518   -7.0454 Br  0  0  0  0  0  0  0  0  0  0  0  0
    0.1050   23.2756   -6.9924 C   0  0  0  0  0  0  0  0  0  0  0  0
   -9.6669   25.7159   -1.1651 C   0  0  0  0  0  0  0  0  0  0  0  0
   -8.8294   25.5639    0.4281 P   0  0  0  0  0  0  0  0  0  0  0  0
   -7.6103   24.6876    0.3848 O   0  0  0  0  0  0  0  0  0  0  0  0
   -8.3744   27.0869    0.7285 O   0  0  0  0  0  0  0  0  0  0  0  0
   -7.7196   27.3648    0.0689 H   0  0  0  0  0  0  0  0  0  0  0  0
  -10.0111   25.1876    1.6898 C   0  0  0  0  0  0  0  0  0  0  0  0
   -9.6963   24.3047    2.7328 C   0  0  0  0  0  0  0  0  0  0  0  0
  -10.6303   24.0230    3.7321 C   0  0  0  0  0  0  0  0  0  0  0  0
  -11.8854   24.6266    3.6936 C   0  0  0  0  0  0  0  0  0  0  0  0
  -13.1506   24.2469    5.0466 Br  0  0  0  0  0  0  0  0  0  0  0  0
  -12.2179   25.5033    2.6619 C   0  0  0  0  0  0  0  0  0  0  0  0
  -11.2817   25.7807    1.6632 C   0  0  0  0  0  0  0  0  0  0  0  0
 13 12  1  0
 13  8  1  0
  8  9  1  0
  9 10  2  0
  9  6  1  0
  6  7  1  0
  6  2  1  0
  2  3  1  0
  3  4  2  0
  3  1  1  0
  1 19  1  0
 19 20  1  0
 20 21  2  0
 21 22  1  0
 22 25  1  0
 25 26  2  0
 26 27  1  0
 27 28  2  0
 28 31  1  0
 31 32  2  0
 32 33  1  0
 33 34  1  0
 33 35  2  0
 35 36  1  0
 36 37  1  0
 36 38  2  0
 28 29  1  0
 29 30  2  0
 22 23  2  0
 23 24  1  0
  1 39  1  0
 39 40  1  0
 40 41  2  0
 40 42  1  0
 40 44  1  0
 44 45  2  0
 45 46  1  0
 46 47  2  0
 47 48  1  0
 47 49  1  0
 49 50  2  0
 13 14  1  0
 14 15  1  0
 14 16  2  0
 24 20  1  0
 50 44  1  0
 30 25  1  0
 38 31  1  0
  8 11  1  0
  2  5  1  0
 42 43  1  0
 15 17  1  0
 15 18  1  0
M  END
> <minimizedAffinity>
-9.26989

> <CNNscore>
0.7175418735

> <CNNaffinity>
8.2737207413

> <CNN_VS>
5.9367408752

> <CNNaffinity_variance>
0.3565552235

$$$$



 50 53  0  0  0  0  0  0  0  0999 V2000
   -8.6428   26.1317   -2.8328 C   0  0  0  0  0  0  0  0  0  0  0  0
   -7.7167   28.2889   -3.4823 N   0  0  0  0  0  0  0  0  0  0  0  0
   -8.7326   27.3831   -3.7010 C   0  0  0  0  0  0  0  0  0  0  0  0
   -9.6022   27.5442   -4.5521 O   0  0  0  0  0  0  0  0  0  0  0  0
   -7.1349   28.1949   -2.6937 H   0  0  0  0  0  0  0  0  0  0  0  0
   -7.5038   29.3869   -4.4195 C   0  0  0  0  0  0  0  0  0  0  0  0
   -8.1790   29.0854   -5.7501 C   0  0  0  0  0  0  0  0  0  0  0  0
   -8.1250   31.7637   -4.6238 N   0  0  0  0  0  0  0  0  0  0  0  0
   -8.1035   30.6623   -3.7901 C   0  0  0  0  0  0  0  0  0  0  0  0
   -8.5544   30.6857   -2.6442 O   0  0  0  0  0  0  0  0  0  0  0  0
   -7.6093   31.7608   -5.4624 H   0  0  0  0  0  0  0  0  0  0  0  0
   -8.3086   34.2029   -4.8257 C   0  0  0  0  0  0  0  0  0  0  0  0
   -8.9168   32.9305   -4.2530 C   0  0  0  0  0  0  0  0  0  0  0  0
  -10.3365   32.7325   -4.8130 C   0  0  0  0  0  0  0  0  0  0  0  0
  -11.1671   31.9475   -4.0647 N   0  0  0  0  0  0  0  0  0  0  0  0
  -10.7460   33.2837   -5.8322 O   0  0  0  0  0  0  0  0  0  0  0  0
  -10.8294   31.5102   -3.2498 H   0  0  0  0  0  0  0  0  0  0  0  0
  -12.1035   31.8190   -4.3403 H   0  0  0  0  0  0  0  0  0  0  0  0
   -9.0731   24.8915   -3.6332 C   0  0  0  0  0  0  0  0  0  0  0  0
   -7.9599   24.1594   -4.2909 C   0  0  0  0  0  0  0  0  0  0  0  0
   -6.6259   24.4072   -4.5045 C   0  0  0  0  0  0  0  0  0  0  0  0
   -6.1575   23.2893   -5.2454 C   0  0  0  0  0  0  0  0  0  0  0  0
   -7.1526   22.4025   -5.4175 N   0  0  0  0  0  0  0  0  0  0  0  0
   -8.2720   22.9504   -4.8278 O   0  0  0  0  0  0  0  0  0  0  0  0
   -4.8199   23.0628   -5.7908 C   0  0  0  0  0  0  0  0  0  0  0  0
   -4.6139   22.1496   -6.8337 C   0  0  0  0  0  0  0  0  0  0  0  0
   -3.3268   21.9148   -7.3345 C   0  0  0  0  0  0  0  0  0  0  0  0
   -2.2111   22.5859   -6.8084 C   0  0  0  0  0  0  0  0  0  0  0  0
   -2.4260   23.5072   -5.7699 C   0  0  0  0  0  0  0  0  0  0  0  0
   -3.7113   23.7403   -5.2659 C   0  0  0  0  0  0  0  0  0  0  0  0
   -0.8569   22.3211   -7.3183 C   0  0  0  0  0  0  0  0  0  0  0  0
   -0.5801   21.1703   -8.0745 C   0  0  0  0  0  0  0  0  0  0  0  0
    0.7087   20.9264   -8.5532 C   0  0  0  0  0  0  0  0  0  0  0  0
    1.0181   19.5066   -9.4790 Cl  0  0  0  0  0  0  0  0  0  0  0  0
    1.7455   21.8167   -8.2898 C   0  0  0  0  0  0  0  0  0  0  0  0
    1.4835   22.9578   -7.5390 C   0  0  0  0  0  0  0  0  0  0  0  0
    2.8819   24.1757   -7.1662 Br  0  0  0  0  0  0  0  0  0  0  0  0
    0.1975   23.2129   -7.0563 C   0  0  0  0  0  0  0  0  0  0  0  0
   -9.4308   26.3201   -1.5317 C   0  0  0  0  0  0  0  0  0  0  0  0
   -8.3468   26.5233   -0.1012 P   0  0  0  0  0  0  0  0  0  0  0  0
   -8.7031   25.6319    1.0540 O   0  0  0  0  0  0  0  0  0  0  0  0
   -6.9077   26.0758   -0.6891 O   0  0  0  0  0  0  0  0  0  0  0  0
   -6.9309   25.1336   -0.9184 H   0  0  0  0  0  0  0  0  0  0  0  0
   -8.1679   28.2434    0.2723 C   0  0  0  0  0  0  0  0  0  0  0  0
   -6.9627   28.9146    0.0204 C   0  0  0  0  0  0  0  0  0  0  0  0
   -6.8338   30.2756    0.3060 C   0  0  0  0  0  0  0  0  0  0  0  0
   -7.9133   30.9731    0.8439 C   0  0  0  0  0  0  0  0  0  0  0  0
   -7.7405   32.8160    1.2302 Br  0  0  0  0  0  0  0  0  0  0  0  0
   -9.1176   30.3214    1.1056 C   0  0  0  0  0  0  0  0  0  0  0  0
   -9.2418   28.9597    0.8205 C   0  0  0  0  0  0  0  0  0  0  0  0
 13 12  1  0
 13  8  1  0
  8  9  1  0
  9 10  2  0
  9  6  1  0
  6  7  1  0
  6  2  1  0
  2  3  1  0
  3  4  2  0
  3  1  1  0
  1 19  1  0
 19 20  1  0
 20 21  2  0
 21 22  1  0
 22 25  1  0
 25 26  2  0
 26 27  1  0
 27 28  2  0
 28 31  1  0
 31 32  2  0
 32 33  1  0
 33 34  1  0
 33 35  2  0
 35 36  1  0
 36 37  1  0
 36 38  2  0
 28 29  1  0
 29 30  2  0
 22 23  2  0
 23 24  1  0
  1 39  1  0
 39 40  1  0
 40 41  2  0
 40 42  1  0
 40 44  1  0
 44 45  2  0
 45 46  1  0
 46 47  2  0
 47 48  1  0
 47 49  1  0
 49 50  2  0
 13 14  1  0
 14 15  1  0
 14 16  2  0
 24 20  1  0
 50 44  1  0
 30 25  1  0
 38 31  1  0
  8 11  1  0
  2  5  1  0
 42 43  1  0
 15 17  1  0
 15 18  1  0
M  END
> <minimizedAffinity>
-7.84477

> <CNNscore>
0.5872167349

> <CNNaffinity>
8.0668001175

> <CNN_VS>
4.7369599342

> <CNNaffinity_variance>
0.1761792153

$$$$



 50 53  0  0  0  0  0  0  0  0999 V2000
   -7.6956   28.2066   -3.6373 C   0  0  0  0  0  0  0  0  0  0  0  0
   -7.2005   28.0191   -1.2598 N   0  0  0  0  0  0  0  0  0  0  0  0
   -7.8888   28.7320   -2.2180 C   0  0  0  0  0  0  0  0  0  0  0  0
   -8.5561   29.7295   -1.9604 O   0  0  0  0  0  0  0  0  0  0  0  0
   -6.8068   27.1452   -1.4847 H   0  0  0  0  0  0  0  0  0  0  0  0
   -7.0552   28.5597    0.0878 C   0  0  0  0  0  0  0  0  0  0  0  0
   -6.9061   30.0737    0.0374 C   0  0  0  0  0  0  0  0  0  0  0  0
   -8.5526   26.8122    0.9717 N   0  0  0  0  0  0  0  0  0  0  0  0
   -8.3175   28.1709    0.8866 C   0  0  0  0  0  0  0  0  0  0  0  0
   -9.0404   29.0069    1.4300 O   0  0  0  0  0  0  0  0  0  0  0  0
   -8.0606   26.1868    0.3920 H   0  0  0  0  0  0  0  0  0  0  0  0
  -10.9435   26.4181    1.3612 C   0  0  0  0  0  0  0  0  0  0  0  0
   -9.5342   26.3109    1.9260 C   0  0  0  0  0  0  0  0  0  0  0  0
   -9.1984   24.8372    2.2156 C   0  0  0  0  0  0  0  0  0  0  0  0
   -8.8375   24.5508    3.5015 N   0  0  0  0  0  0  0  0  0  0  0  0
   -9.3008   23.9420    1.3798 O   0  0  0  0  0  0  0  0  0  0  0  0
   -8.7583   25.2751    4.1636 H   0  0  0  0  0  0  0  0  0  0  0  0
   -8.6566   23.6199    3.7663 H   0  0  0  0  0  0  0  0  0  0  0  0
   -7.3711   29.3626   -4.5977 C   0  0  0  0  0  0  0  0  0  0  0  0
   -7.5293   29.0364   -6.0385 C   0  0  0  0  0  0  0  0  0  0  0  0
   -8.3466   29.4768   -7.0508 C   0  0  0  0  0  0  0  0  0  0  0  0
   -7.9849   28.6976   -8.1820 C   0  0  0  0  0  0  0  0  0  0  0  0
   -6.9710   27.8735   -7.8672 N   0  0  0  0  0  0  0  0  0  0  0  0
   -6.6954   28.0835   -6.5326 O   0  0  0  0  0  0  0  0  0  0  0  0
   -8.5806   28.7120   -9.5173 C   0  0  0  0  0  0  0  0  0  0  0  0
   -8.0521   27.9241  -10.5488 C   0  0  0  0  0  0  0  0  0  0  0  0
   -8.6084   27.9620  -11.8340 C   0  0  0  0  0  0  0  0  0  0  0  0
   -9.7076   28.7865  -12.1236 C   0  0  0  0  0  0  0  0  0  0  0  0
  -10.2386   29.5661  -11.0825 C   0  0  0  0  0  0  0  0  0  0  0  0
   -9.6814   29.5321   -9.7985 C   0  0  0  0  0  0  0  0  0  0  0  0
  -10.2761   28.8439  -13.4791 C   0  0  0  0  0  0  0  0  0  0  0  0
   -9.8048   28.0002  -14.4983 C   0  0  0  0  0  0  0  0  0  0  0  0
  -10.3494   28.0628  -15.7825 C   0  0  0  0  0  0  0  0  0  0  0  0
   -9.7516   27.0146  -17.0123 Cl  0  0  0  0  0  0  0  0  0  0  0  0
  -11.3685   28.9628  -16.0798 C   0  0  0  0  0  0  0  0  0  0  0  0
  -11.8406   29.8054  -15.0790 C   0  0  0  0  0  0  0  0  0  0  0  0
  -13.2210   31.0392  -15.4667 Br  0  0  0  0  0  0  0  0  0  0  0  0
  -11.3043   29.7506  -13.7901 C   0  0  0  0  0  0  0  0  0  0  0  0
   -8.9063   27.3741   -4.0738 C   0  0  0  0  0  0  0  0  0  0  0  0
   -8.8609   25.6990   -3.3995 P   0  0  0  0  0  0  0  0  0  0  0  0
   -8.7647   25.6569   -1.9012 O   0  0  0  0  0  0  0  0  0  0  0  0
  -10.2944   25.1024   -3.8535 O   0  0  0  0  0  0  0  0  0  0  0  0
  -11.0037   25.5889   -3.4050 H   0  0  0  0  0  0  0  0  0  0  0  0
   -7.6693   24.7330   -4.2811 C   0  0  0  0  0  0  0  0  0  0  0  0
   -6.2955   24.9738   -4.1355 C   0  0  0  0  0  0  0  0  0  0  0  0
   -5.3609   24.1982   -4.8251 C   0  0  0  0  0  0  0  0  0  0  0  0
   -5.7975   23.1745   -5.6632 C   0  0  0  0  0  0  0  0  0  0  0  0
   -4.5331   22.1230   -6.5965 Br  0  0  0  0  0  0  0  0  0  0  0  0
   -7.1593   22.9237   -5.8240 C   0  0  0  0  0  0  0  0  0  0  0  0
   -8.0909   23.7030   -5.1344 C   0  0  0  0  0  0  0  0  0  0  0  0
 13 12  1  0
 13  8  1  0
  8  9  1  0
  9 10  2  0
  9  6  1  0
  6  7  1  0
  6  2  1  0
  2  3  1  0
  3  4  2  0
  3  1  1  0
  1 19  1  0
 19 20  1  0
 20 21  2  0
 21 22  1  0
 22 25  1  0
 25 26  2  0
 26 27  1  0
 27 28  2  0
 28 31  1  0
 31 32  2  0
 32 33  1  0
 33 34  1  0
 33 35  2  0
 35 36  1  0
 36 37  1  0
 36 38  2  0
 28 29  1  0
 29 30  2  0
 22 23  2  0
 23 24  1  0
  1 39  1  0
 39 40  1  0
 40 41  2  0
 40 42  1  0
 40 44  1  0
 44 45  2  0
 45 46  1  0
 46 47  2  0
 47 48  1  0
 47 49  1  0
 49 50  2  0
 13 14  1  0
 14 15  1  0
 14 16  2  0
 24 20  1  0
 50 44  1  0
 30 25  1  0
 38 31  1  0
  8 11  1  0
  2  5  1  0
 42 43  1  0
 15 17  1  0
 15 18  1  0
M  END
> <minimizedAffinity>
-8.76012

> <CNNscore>
0.4465840757

> <CNNaffinity>
7.5299639702

> <CNN_VS>
3.3627619743

> <CNNaffinity_variance>
0.3803104162

$$$$



 50 53  0  0  0  0  0  0  0  0999 V2000
   -7.5668   24.9130   -4.1375 C   0  0  0  0  0  0  0  0  0  0  0  0
   -7.7177   27.2488   -4.8112 N   0  0  0  0  0  0  0  0  0  0  0  0
   -8.4350   26.1100   -4.5134 C   0  0  0  0  0  0  0  0  0  0  0  0
   -9.6584   26.0489   -4.5923 O   0  0  0  0  0  0  0  0  0  0  0  0
   -6.7600   27.2995   -4.5889 H   0  0  0  0  0  0  0  0  0  0  0  0
   -8.3779   28.3793   -5.4558 C   0  0  0  0  0  0  0  0  0  0  0  0
   -8.1607   29.6504   -4.6470 C   0  0  0  0  0  0  0  0  0  0  0  0
   -8.7006   28.6364   -7.8862 N   0  0  0  0  0  0  0  0  0  0  0  0
   -7.7731   28.5315   -6.8677 C   0  0  0  0  0  0  0  0  0  0  0  0
   -6.5585   28.5852   -7.0651 O   0  0  0  0  0  0  0  0  0  0  0  0
   -9.6466   28.4213   -7.7192 H   0  0  0  0  0  0  0  0  0  0  0  0
   -7.8193   27.8792  -10.0481 C   0  0  0  0  0  0  0  0  0  0  0  0
   -8.2686   29.0678   -9.2102 C   0  0  0  0  0  0  0  0  0  0  0  0
   -9.4605   29.7649   -9.8896 C   0  0  0  0  0  0  0  0  0  0  0  0
  -10.0143   29.1009  -10.9472 N   0  0  0  0  0  0  0  0  0  0  0  0
   -9.9460   30.8207   -9.4896 O   0  0  0  0  0  0  0  0  0  0  0  0
   -9.6178   28.2558  -11.2600 H   0  0  0  0  0  0  0  0  0  0  0  0
  -10.8099   29.4674  -11.3966 H   0  0  0  0  0  0  0  0  0  0  0  0
   -7.0755   25.0412   -2.6863 C   0  0  0  0  0  0  0  0  0  0  0  0
   -8.1540   25.2008   -1.6769 C   0  0  0  0  0  0  0  0  0  0  0  0
   -9.0071   26.2158   -1.3182 C   0  0  0  0  0  0  0  0  0  0  0  0
   -9.7624   25.6963   -0.2331 C   0  0  0  0  0  0  0  0  0  0  0  0
   -9.4084   24.4217    0.0047 N   0  0  0  0  0  0  0  0  0  0  0  0
   -8.4045   24.1204   -0.8911 O   0  0  0  0  0  0  0  0  0  0  0  0
  -10.7771   26.3773    0.5698 C   0  0  0  0  0  0  0  0  0  0  0  0
  -12.1268   26.0095    0.4851 C   0  0  0  0  0  0  0  0  0  0  0  0
  -13.0996   26.6831    1.2351 C   0  0  0  0  0  0  0  0  0  0  0  0
  -12.7512   27.7411    2.0902 C   0  0  0  0  0  0  0  0  0  0  0  0
  -11.3952   28.0980    2.1778 C   0  0  0  0  0  0  0  0  0  0  0  0
  -10.4222   27.4280    1.4262 C   0  0  0  0  0  0  0  0  0  0  0  0
  -13.7761   28.4637    2.8591 C   0  0  0  0  0  0  0  0  0  0  0  0
  -13.4974   28.9720    4.1384 C   0  0  0  0  0  0  0  0  0  0  0  0
  -14.4770   29.6553    4.8616 C   0  0  0  0  0  0  0  0  0  0  0  0
  -14.1056   30.2684    6.4284 Cl  0  0  0  0  0  0  0  0  0  0  0  0
  -15.7496   29.8453    4.3313 C   0  0  0  0  0  0  0  0  0  0  0  0
  -16.0377   29.3433    3.0666 C   0  0  0  0  0  0  0  0  0  0  0  0
  -17.7640   29.5870    2.3326 Br  0  0  0  0  0  0  0  0  0  0  0  0
  -15.0650   28.6594    2.3333 C   0  0  0  0  0  0  0  0  0  0  0  0
   -6.4313   24.7308   -5.1508 C   0  0  0  0  0  0  0  0  0  0  0  0
   -6.2606   23.0129   -5.6822 P   0  0  0  0  0  0  0  0  0  0  0  0
   -6.8428   22.0237   -4.7134 O   0  0  0  0  0  0  0  0  0  0  0  0
   -7.1248   22.9842   -7.0493 O   0  0  0  0  0  0  0  0  0  0  0  0
   -8.0592   23.1450   -6.8446 H   0  0  0  0  0  0  0  0  0  0  0  0
   -4.5944   22.7094   -6.1938 C   0  0  0  0  0  0  0  0  0  0  0  0
   -4.3102   21.8010   -7.2236 C   0  0  0  0  0  0  0  0  0  0  0  0
   -2.9931   21.5767   -7.6303 C   0  0  0  0  0  0  0  0  0  0  0  0
   -1.9525   22.2637   -7.0089 C   0  0  0  0  0  0  0  0  0  0  0  0
   -0.1688   21.9619   -7.5595 Br  0  0  0  0  0  0  0  0  0  0  0  0
   -2.2154   23.1671   -5.9802 C   0  0  0  0  0  0  0  0  0  0  0  0
   -3.5338   23.3869   -5.5748 C   0  0  0  0  0  0  0  0  0  0  0  0
 13 12  1  0
 13  8  1  0
  8  9  1  0
  9 10  2  0
  9  6  1  0
  6  7  1  0
  6  2  1  0
  2  3  1  0
  3  4  2  0
  3  1  1  0
  1 19  1  0
 19 20  1  0
 20 21  2  0
 21 22  1  0
 22 25  1  0
 25 26  2  0
 26 27  1  0
 27 28  2  0
 28 31  1  0
 31 32  2  0
 32 33  1  0
 33 34  1  0
 33 35  2  0
 35 36  1  0
 36 37  1  0
 36 38  2  0
 28 29  1  0
 29 30  2  0
 22 23  2  0
 23 24  1  0
  1 39  1  0
 39 40  1  0
 40 41  2  0
 40 42  1  0
 40 44  1  0
 44 45  2  0
 45 46  1  0
 46 47  2  0
 47 48  1  0
 47 49  1  0
 49 50  2  0
 13 14  1  0
 14 15  1  0
 14 16  2  0
 24 20  1  0
 50 44  1  0
 30 25  1  0
 38 31  1  0
  8 11  1  0
  2  5  1  0
 42 43  1  0
 15 17  1  0
 15 18  1  0
M  END
> <minimizedAffinity>
-9.78615

> <CNNscore>
0.4428067505

> <CNNaffinity>
7.3302154541

> <CNN_VS>
3.2458689213

> <CNNaffinity_variance>
0.5253008008

$$$$



 50 53  0  0  0  0  0  0  0  0999 V2000
   -6.3343   25.0768   -4.2614 C   0  0  0  0  0  0  0  0  0  0  0  0
   -6.9761   27.3776   -4.7378 N   0  0  0  0  0  0  0  0  0  0  0  0
   -6.9553   26.0870   -5.2214 C   0  0  0  0  0  0  0  0  0  0  0  0
   -7.3533   25.7851   -6.3426 O   0  0  0  0  0  0  0  0  0  0  0  0
   -6.7916   27.5497   -3.7862 H   0  0  0  0  0  0  0  0  0  0  0  0
   -7.2717   28.4889   -5.6362 C   0  0  0  0  0  0  0  0  0  0  0  0
   -8.4118   28.1212   -6.5754 C   0  0  0  0  0  0  0  0  0  0  0  0
   -8.5561   30.5745   -5.3583 N   0  0  0  0  0  0  0  0  0  0  0  0
   -7.6628   29.7025   -4.7665 C   0  0  0  0  0  0  0  0  0  0  0  0
   -7.2340   29.8630   -3.6231 O   0  0  0  0  0  0  0  0  0  0  0  0
   -8.7454   30.5116   -6.3223 H   0  0  0  0  0  0  0  0  0  0  0  0
   -9.2605   31.1674   -3.0832 C   0  0  0  0  0  0  0  0  0  0  0  0
   -9.2166   31.5886   -4.5452 C   0  0  0  0  0  0  0  0  0  0  0  0
   -8.4201   32.8976   -4.6877 C   0  0  0  0  0  0  0  0  0  0  0  0
   -8.8730   33.7693   -5.6369 N   0  0  0  0  0  0  0  0  0  0  0  0
   -7.4718   33.1959   -3.9652 O   0  0  0  0  0  0  0  0  0  0  0  0
   -9.6334   33.5208   -6.2108 H   0  0  0  0  0  0  0  0  0  0  0  0
   -8.4390   34.6461   -5.7472 H   0  0  0  0  0  0  0  0  0  0  0  0
   -6.4899   23.6491   -4.8104 C   0  0  0  0  0  0  0  0  0  0  0  0
   -5.3005   23.1279   -5.5324 C   0  0  0  0  0  0  0  0  0  0  0  0
   -3.9541   23.3987   -5.5100 C   0  0  0  0  0  0  0  0  0  0  0  0
   -3.3911   22.5503   -6.5006 C   0  0  0  0  0  0  0  0  0  0  0  0
   -4.3492   21.7814   -7.0456 N   0  0  0  0  0  0  0  0  0  0  0  0
   -5.5348   22.1482   -6.4449 O   0  0  0  0  0  0  0  0  0  0  0  0
   -1.9977   22.4710   -6.9366 C   0  0  0  0  0  0  0  0  0  0  0  0
   -1.5860   21.4945   -7.8537 C   0  0  0  0  0  0  0  0  0  0  0  0
   -0.2445   21.4041   -8.2476 C   0  0  0  0  0  0  0  0  0  0  0  0
    0.7214   22.2864   -7.7373 C   0  0  0  0  0  0  0  0  0  0  0  0
    0.3000   23.2691   -6.8261 C   0  0  0  0  0  0  0  0  0  0  0  0
   -1.0396   23.3585   -6.4288 C   0  0  0  0  0  0  0  0  0  0  0  0
    2.1339   22.1756   -8.1329 C   0  0  0  0  0  0  0  0  0  0  0  0
    2.7440   20.9211   -8.2958 C   0  0  0  0  0  0  0  0  0  0  0  0
    4.0858   20.8255   -8.6700 C   0  0  0  0  0  0  0  0  0  0  0  0
    4.8069   19.2727   -8.8632 Cl  0  0  0  0  0  0  0  0  0  0  0  0
    4.8467   21.9704   -8.8874 C   0  0  0  0  0  0  0  0  0  0  0  0
    4.2537   23.2181   -8.7257 C   0  0  0  0  0  0  0  0  0  0  0  0
    5.2745   24.7848   -9.0110 Br  0  0  0  0  0  0  0  0  0  0  0  0
    2.9116   23.3257   -8.3530 C   0  0  0  0  0  0  0  0  0  0  0  0
   -6.9059   25.2520   -2.8500 C   0  0  0  0  0  0  0  0  0  0  0  0
   -8.7117   25.2134   -2.8360 P   0  0  0  0  0  0  0  0  0  0  0  0
   -9.3420   26.2743   -3.6924 O   0  0  0  0  0  0  0  0  0  0  0  0
   -9.0335   23.7613   -3.4722 O   0  0  0  0  0  0  0  0  0  0  0  0
   -8.7386   23.7405   -4.3960 H   0  0  0  0  0  0  0  0  0  0  0  0
   -9.2935   25.1155   -1.1681 C   0  0  0  0  0  0  0  0  0  0  0  0
   -8.7700   24.1687   -0.2760 C   0  0  0  0  0  0  0  0  0  0  0  0
   -9.2255   24.1065    1.0428 C   0  0  0  0  0  0  0  0  0  0  0  0
  -10.2072   24.9949    1.4764 C   0  0  0  0  0  0  0  0  0  0  0  0
  -10.8240   24.9126    3.2620 Br  0  0  0  0  0  0  0  0  0  0  0  0
  -10.7427   25.9398    0.6025 C   0  0  0  0  0  0  0  0  0  0  0  0
  -10.2861   25.9973   -0.7163 C   0  0  0  0  0  0  0  0  0  0  0  0
 13 12  1  0
 13  8  1  0
  8  9  1  0
  9 10  2  0
  9  6  1  0
  6  7  1  0
  6  2  1  0
  2  3  1  0
  3  4  2  0
  3  1  1  0
  1 19  1  0
 19 20  1  0
 20 21  2  0
 21 22  1  0
 22 25  1  0
 25 26  2  0
 26 27  1  0
 27 28  2  0
 28 31  1  0
 31 32  2  0
 32 33  1  0
 33 34  1  0
 33 35  2  0
 35 36  1  0
 36 37  1  0
 36 38  2  0
 28 29  1  0
 29 30  2  0
 22 23  2  0
 23 24  1  0
  1 39  1  0
 39 40  1  0
 40 41  2  0
 40 42  1  0
 40 44  1  0
 44 45  2  0
 45 46  1  0
 46 47  2  0
 47 48  1  0
 47 49  1  0
 49 50  2  0
 13 14  1  0
 14 15  1  0
 14 16  2  0
 24 20  1  0
 50 44  1  0
 30 25  1  0
 38 31  1  0
  8 11  1  0
  2  5  1  0
 42 43  1  0
 15 17  1  0
 15 18  1  0
M  END
> <minimizedAffinity>
-10.20219

> <CNNscore>
0.4361594021

> <CNNaffinity>
7.5949406624

> <CNN_VS>
3.3126046658

> <CNNaffinity_variance>
0.4154236317

$$$$



 50 53  0  0  0  0  0  0  0  0999 V2000
   -8.2351   24.7552   -4.8236 C   0  0  0  0  0  0  0  0  0  0  0  0
   -7.6279   27.0330   -5.4363 N   0  0  0  0  0  0  0  0  0  0  0  0
   -8.6310   26.2233   -4.9483 C   0  0  0  0  0  0  0  0  0  0  0  0
   -9.7569   26.6358   -4.6857 O   0  0  0  0  0  0  0  0  0  0  0  0
   -6.7043   26.6957   -5.4878 H   0  0  0  0  0  0  0  0  0  0  0  0
   -7.9346   28.3900   -5.8767 C   0  0  0  0  0  0  0  0  0  0  0  0
   -7.1885   29.4050   -5.0222 C   0  0  0  0  0  0  0  0  0  0  0  0
   -8.5426   28.4899   -8.2636 N   0  0  0  0  0  0  0  0  0  0  0  0
   -7.5033   28.5114   -7.3538 C   0  0  0  0  0  0  0  0  0  0  0  0
   -6.3263   28.6469   -7.6905 O   0  0  0  0  0  0  0  0  0  0  0  0
   -9.4438   28.2125   -7.9803 H   0  0  0  0  0  0  0  0  0  0  0  0
   -7.9638   27.6668  -10.5022 C   0  0  0  0  0  0  0  0  0  0  0  0
   -8.2957   28.8809   -9.6463 C   0  0  0  0  0  0  0  0  0  0  0  0
   -9.5699   29.5614  -10.1772 C   0  0  0  0  0  0  0  0  0  0  0  0
  -10.1625   28.9599  -11.2509 N   0  0  0  0  0  0  0  0  0  0  0  0
  -10.0813   30.5471   -9.6506 O   0  0  0  0  0  0  0  0  0  0  0  0
   -9.7448   28.1707  -11.6656 H   0  0  0  0  0  0  0  0  0  0  0  0
  -11.0073   29.3156  -11.6102 H   0  0  0  0  0  0  0  0  0  0  0  0
   -8.6407   24.2053   -3.4463 C   0  0  0  0  0  0  0  0  0  0  0  0
   -8.3492   25.1111   -2.3052 C   0  0  0  0  0  0  0  0  0  0  0  0
   -8.2620   26.4722   -2.1423 C   0  0  0  0  0  0  0  0  0  0  0  0
   -7.9023   26.6581   -0.7807 C   0  0  0  0  0  0  0  0  0  0  0  0
   -7.8296   25.4693   -0.1582 N   0  0  0  0  0  0  0  0  0  0  0  0
   -8.1023   24.5108   -1.1110 O   0  0  0  0  0  0  0  0  0  0  0  0
   -7.6193   27.9121   -0.0839 C   0  0  0  0  0  0  0  0  0  0  0  0
   -6.7981   28.8878   -0.6648 C   0  0  0  0  0  0  0  0  0  0  0  0
   -6.5068   30.0759    0.0182 C   0  0  0  0  0  0  0  0  0  0  0  0
   -7.0281   30.3220    1.2986 C   0  0  0  0  0  0  0  0  0  0  0  0
   -7.8586   29.3441    1.8708 C   0  0  0  0  0  0  0  0  0  0  0  0
   -8.1478   28.1546    1.1910 C   0  0  0  0  0  0  0  0  0  0  0  0
   -6.7024   31.5590    2.0251 C   0  0  0  0  0  0  0  0  0  0  0  0
   -5.5036   32.2486    1.7797 C   0  0  0  0  0  0  0  0  0  0  0  0
   -5.2021   33.4212    2.4752 C   0  0  0  0  0  0  0  0  0  0  0  0
   -3.7243   34.2459    2.1522 Cl  0  0  0  0  0  0  0  0  0  0  0  0
   -6.0814   33.9298    3.4265 C   0  0  0  0  0  0  0  0  0  0  0  0
   -7.2699   33.2533    3.6800 C   0  0  0  0  0  0  0  0  0  0  0  0
   -8.4739   33.9269    4.9740 Br  0  0  0  0  0  0  0  0  0  0  0  0
   -7.5828   32.0801    2.9892 C   0  0  0  0  0  0  0  0  0  0  0  0
   -6.7467   24.5692   -5.1391 C   0  0  0  0  0  0  0  0  0  0  0  0
   -6.3768   22.9003   -5.7229 P   0  0  0  0  0  0  0  0  0  0  0  0
   -6.9207   21.8185   -4.8341 O   0  0  0  0  0  0  0  0  0  0  0  0
   -7.1456   22.8511   -7.1454 O   0  0  0  0  0  0  0  0  0  0  0  0
   -8.1023   22.9139   -6.9982 H   0  0  0  0  0  0  0  0  0  0  0  0
   -4.6599   22.7783   -6.1322 C   0  0  0  0  0  0  0  0  0  0  0  0
   -3.6989   23.5323   -5.4435 C   0  0  0  0  0  0  0  0  0  0  0  0
   -2.3442   23.4205   -5.7640 C   0  0  0  0  0  0  0  0  0  0  0  0
   -1.9439   22.5501   -6.7756 C   0  0  0  0  0  0  0  0  0  0  0  0
   -0.1099   22.3969   -7.2099 Br  0  0  0  0  0  0  0  0  0  0  0  0
   -2.8855   21.7961   -7.4744 C   0  0  0  0  0  0  0  0  0  0  0  0
   -4.2396   21.9124   -7.1523 C   0  0  0  0  0  0  0  0  0  0  0  0
 13 12  1  0
 13  8  1  0
  8  9  1  0
  9 10  2  0
  9  6  1  0
  6  7  1  0
  6  2  1  0
  2  3  1  0
  3  4  2  0
  3  1  1  0
  1 19  1  0
 19 20  1  0
 20 21  2  0
 21 22  1  0
 22 25  1  0
 25 26  2  0
 26 27  1  0
 27 28  2  0
 28 31  1  0
 31 32  2  0
 32 33  1  0
 33 34  1  0
 33 35  2  0
 35 36  1  0
 36 37  1  0
 36 38  2  0
 28 29  1  0
 29 30  2  0
 22 23  2  0
 23 24  1  0
  1 39  1  0
 39 40  1  0
 40 41  2  0
 40 42  1  0
 40 44  1  0
 44 45  2  0
 45 46  1  0
 46 47  2  0
 47 48  1  0
 47 49  1  0
 49 50  2  0
 13 14  1  0
 14 15  1  0
 14 16  2  0
 24 20  1  0
 50 44  1  0
 30 25  1  0
 38 31  1  0
  8 11  1  0
  2  5  1  0
 42 43  1  0
 15 17  1  0
 15 18  1  0
M  END
> <minimizedAffinity>
-9.28736

> <CNNscore>
0.4319040477

> <CNNaffinity>
7.7367768288

> <CNN_VS>
3.3415453434

> <CNNaffinity_variance>
0.0944541320

$$$$



 50 53  0  0  0  0  0  0  0  0999 V2000
   -7.7584   24.2243   -5.2335 C   0  0  0  0  0  0  0  0  0  0  0  0
   -7.9069   24.5521   -2.8246 N   0  0  0  0  0  0  0  0  0  0  0  0
   -8.6188   24.2888   -3.9752 C   0  0  0  0  0  0  0  0  0  0  0  0
   -9.8401   24.1676   -3.9946 O   0  0  0  0  0  0  0  0  0  0  0  0
   -6.9244   24.4898   -2.8285 H   0  0  0  0  0  0  0  0  0  0  0  0
   -8.6095   24.9230   -1.6005 C   0  0  0  0  0  0  0  0  0  0  0  0
   -8.5893   23.7687   -0.6083 C   0  0  0  0  0  0  0  0  0  0  0  0
   -8.7312   27.0729   -0.4006 N   0  0  0  0  0  0  0  0  0  0  0  0
   -7.8947   26.1548   -1.0056 C   0  0  0  0  0  0  0  0  0  0  0  0
   -6.6713   26.2918   -1.0422 O   0  0  0  0  0  0  0  0  0  0  0  0
   -9.7050   27.0207   -0.5358 H   0  0  0  0  0  0  0  0  0  0  0  0
   -8.1017   29.4434   -0.3092 C   0  0  0  0  0  0  0  0  0  0  0  0
   -8.1619   28.1196    0.4396 C   0  0  0  0  0  0  0  0  0  0  0  0
   -9.0572   28.2634    1.6831 C   0  0  0  0  0  0  0  0  0  0  0  0
   -9.6865   27.1242    2.0981 N   0  0  0  0  0  0  0  0  0  0  0  0
   -9.1686   29.3080    2.3208 O   0  0  0  0  0  0  0  0  0  0  0  0
   -9.5909   26.2924    1.5801 H   0  0  0  0  0  0  0  0  0  0  0  0
  -10.2357   27.1349    2.9151 H   0  0  0  0  0  0  0  0  0  0  0  0
   -6.8920   22.9542   -5.2265 C   0  0  0  0  0  0  0  0  0  0  0  0
   -5.4392   23.1919   -5.4271 C   0  0  0  0  0  0  0  0  0  0  0  0
   -4.4816   22.6968   -6.2783 C   0  0  0  0  0  0  0  0  0  0  0  0
   -3.2752   23.3377   -5.8888 C   0  0  0  0  0  0  0  0  0  0  0  0
   -3.5171   24.2049   -4.8910 N   0  0  0  0  0  0  0  0  0  0  0  0
   -4.8619   24.1064   -4.6036 O   0  0  0  0  0  0  0  0  0  0  0  0
   -1.9300   23.1343   -6.4245 C   0  0  0  0  0  0  0  0  0  0  0  0
   -1.6801   22.1419   -7.3821 C   0  0  0  0  0  0  0  0  0  0  0  0
   -0.3846   21.9316   -7.8721 C   0  0  0  0  0  0  0  0  0  0  0  0
    0.6957   22.7067   -7.4202 C   0  0  0  0  0  0  0  0  0  0  0  0
    0.4363   23.7062   -6.4678 C   0  0  0  0  0  0  0  0  0  0  0  0
   -0.8572   23.9152   -5.9744 C   0  0  0  0  0  0  0  0  0  0  0  0
    2.0597   22.4693   -7.9174 C   0  0  0  0  0  0  0  0  0  0  0  0
    2.5446   21.1648   -8.1067 C   0  0  0  0  0  0  0  0  0  0  0  0
    3.8413   20.9490   -8.5775 C   0  0  0  0  0  0  0  0  0  0  0  0
    4.4083   19.3374   -8.8008 Cl  0  0  0  0  0  0  0  0  0  0  0  0
    4.6803   22.0210   -8.8671 C   0  0  0  0  0  0  0  0  0  0  0  0
    4.2117   23.3171   -8.6801 C   0  0  0  0  0  0  0  0  0  0  0  0
    5.3404   24.7859   -9.0628 Br  0  0  0  0  0  0  0  0  0  0  0  0
    2.9157   23.5450   -8.2110 C   0  0  0  0  0  0  0  0  0  0  0  0
   -6.9467   25.5140   -5.3987 C   0  0  0  0  0  0  0  0  0  0  0  0
   -7.9600   26.9916   -5.1688 P   0  0  0  0  0  0  0  0  0  0  0  0
   -9.4252   26.6978   -5.0178 O   0  0  0  0  0  0  0  0  0  0  0  0
   -7.3946   27.5875   -3.7752 O   0  0  0  0  0  0  0  0  0  0  0  0
   -7.5946   26.9696   -3.0546 H   0  0  0  0  0  0  0  0  0  0  0  0
   -7.5328   28.2032   -6.3852 C   0  0  0  0  0  0  0  0  0  0  0  0
   -7.2050   27.8256   -7.6953 C   0  0  0  0  0  0  0  0  0  0  0  0
   -6.8815   28.7892   -8.6530 C   0  0  0  0  0  0  0  0  0  0  0  0
   -6.8870   30.1380   -8.3041 C   0  0  0  0  0  0  0  0  0  0  0  0
   -6.4504   31.4439   -9.6001 Br  0  0  0  0  0  0  0  0  0  0  0  0
   -7.2057   30.5319   -7.0053 C   0  0  0  0  0  0  0  0  0  0  0  0
   -7.5264   29.5650   -6.0498 C   0  0  0  0  0  0  0  0  0  0  0  0
 13 12  1  0
 13  8  1  0
  8  9  1  0
  9 10  2  0
  9  6  1  0
  6  7  1  0
  6  2  1  0
  2  3  1  0
  3  4  2  0
  3  1  1  0
  1 19  1  0
 19 20  1  0
 20 21  2  0
 21 22  1  0
 22 25  1  0
 25 26  2  0
 26 27  1  0
 27 28  2  0
 28 31  1  0
 31 32  2  0
 32 33  1  0
 33 34  1  0
 33 35  2  0
 35 36  1  0
 36 37  1  0
 36 38  2  0
 28 29  1  0
 29 30  2  0
 22 23  2  0
 23 24  1  0
  1 39  1  0
 39 40  1  0
 40 41  2  0
 40 42  1  0
 40 44  1  0
 44 45  2  0
 45 46  1  0
 46 47  2  0
 47 48  1  0
 47 49  1  0
 49 50  2  0
 13 14  1  0
 14 15  1  0
 14 16  2  0
 24 20  1  0
 50 44  1  0
 30 25  1  0
 38 31  1  0
  8 11  1  0
  2  5  1  0
 42 43  1  0
 15 17  1  0
 15 18  1  0
M  END
> <minimizedAffinity>
-11.02320

> <CNNscore>
0.4225699306

> <CNNaffinity>
7.5042166710

> <CNN_VS>
3.1710562706

> <CNNaffinity_variance>
0.8022468686

$$$$
