


 16 17  0  0  0  0  0  0  0  0999 V2000
   29.6230  -23.4457  -30.9245 N   0  0  0  0  0  0  0  0  0  0  0  0
   29.7117  -24.7285  -31.0442 C   0  0  0  0  0  0  0  0  0  0  0  0
   29.5594  -25.6280  -32.5614 S   0  0  0  0  0  0  0  0  0  0  0  0
   29.4646  -27.2240  -31.7031 C   0  0  0  0  0  0  0  0  0  0  0  0
   30.2096  -26.9860  -30.3967 C   0  0  0  0  0  0  0  0  0  0  0  0
   29.9373  -25.6070  -30.0059 N   0  0  0  0  0  0  0  0  0  0  0  0
   29.1663  -22.0347  -32.9308 N   0  0  0  0  0  0  0  0  0  0  0  0
   29.3985  -22.6919  -32.0047 C   0  0  0  0  0  0  0  0  0  0  0  0
   30.2914  -25.1726  -28.6643 C   0  0  0  0  0  0  0  0  0  0  0  0
   30.8281  -26.3060  -27.8307 C   0  0  0  0  0  0  0  0  0  0  0  0
   32.1988  -26.4701  -27.6028 C   0  0  0  0  0  0  0  0  0  0  0  0
   32.6496  -27.5440  -26.8392 C   0  0  0  0  0  0  0  0  0  0  0  0
   31.7058  -28.4178  -26.3306 C   0  0  0  0  0  0  0  0  0  0  0  0
   32.1743  -29.7680  -25.3837 Cl  0  0  0  0  0  0  0  0  0  0  0  0
   30.3765  -28.2991  -26.5232 N   0  0  0  0  0  0  0  0  0  0  0  0
   29.9701  -27.2464  -27.2654 C   0  0  0  0  0  0  0  0  0  0  0  0
  7  8  3  0
  8  1  1  0
  1  2  2  0
  2  3  1  0
  3  4  1  0
  4  5  1  0
  5  6  1  0
  6  9  1  0
  9 10  1  0
 10 11  2  0
 11 12  1  0
 12 13  2  0
 13 14  1  0
 13 15  1  0
 15 16  2  0
  6  2  1  0
 16 10  1  0
M  END
> <minimizedAffinity>
-6.35407

> <CNNscore>
0.8878705502

> <CNNaffinity>
6.9230899811

> <CNN_VS>
6.1468076706

> <CNNaffinity_variance>
0.2068756074

$$$$



 16 17  0  0  0  0  0  0  0  0999 V2000
   30.1471  -28.8111  -26.9432 N   0  0  0  0  0  0  0  0  0  0  0  0
   31.0423  -27.8906  -26.8046 C   0  0  0  0  0  0  0  0  0  0  0  0
   32.7181  -28.1601  -26.3015 S   0  0  0  0  0  0  0  0  0  0  0  0
   33.0210  -26.3865  -26.0665 C   0  0  0  0  0  0  0  0  0  0  0  0
   32.0347  -25.7145  -27.0121 C   0  0  0  0  0  0  0  0  0  0  0  0
   30.8355  -26.5454  -27.0241 N   0  0  0  0  0  0  0  0  0  0  0  0
   30.7196  -31.2024  -26.5207 N   0  0  0  0  0  0  0  0  0  0  0  0
   30.4624  -30.0864  -26.6986 C   0  0  0  0  0  0  0  0  0  0  0  0
   29.6205  -26.0190  -27.6245 C   0  0  0  0  0  0  0  0  0  0  0  0
   29.7571  -25.8533  -29.1150 C   0  0  0  0  0  0  0  0  0  0  0  0
   29.6369  -24.6037  -29.7329 C   0  0  0  0  0  0  0  0  0  0  0  0
   29.7537  -24.5021  -31.1169 C   0  0  0  0  0  0  0  0  0  0  0  0
   29.9871  -25.6618  -31.8336 C   0  0  0  0  0  0  0  0  0  0  0  0
   30.1403  -25.6274  -33.5407 Cl  0  0  0  0  0  0  0  0  0  0  0  0
   30.1108  -26.8859  -31.2817 N   0  0  0  0  0  0  0  0  0  0  0  0
   29.9954  -26.9517  -29.9376 C   0  0  0  0  0  0  0  0  0  0  0  0
  7  8  3  0
  8  1  1  0
  1  2  2  0
  2  3  1  0
  3  4  1  0
  4  5  1  0
  5  6  1  0
  6  9  1  0
  9 10  1  0
 10 11  2  0
 11 12  1  0
 12 13  2  0
 13 14  1  0
 13 15  1  0
 15 16  2  0
  6  2  1  0
 16 10  1  0
M  END
> <minimizedAffinity>
-6.79244

> <CNNscore>
0.8664436936

> <CNNaffinity>
7.2289891243

> <CNN_VS>
6.2635121346

> <CNNaffinity_variance>
0.3843035698

$$$$



 16 17  0  0  0  0  0  0  0  0999 V2000
   37.3602  -15.8647  -36.1529 N   0  0  0  0  0  0  0  0  0  0  0  0
   38.3470  -16.2515  -35.4151 C   0  0  0  0  0  0  0  0  0  0  0  0
   38.3295  -16.3412  -33.6471 S   0  0  0  0  0  0  0  0  0  0  0  0
   40.1228  -16.6040  -33.5591 C   0  0  0  0  0  0  0  0  0  0  0  0
   40.4680  -17.2485  -34.8947 C   0  0  0  0  0  0  0  0  0  0  0  0
   39.5777  -16.6556  -35.8869 N   0  0  0  0  0  0  0  0  0  0  0  0
   35.2139  -15.2012  -35.0675 N   0  0  0  0  0  0  0  0  0  0  0  0
   36.2109  -15.4914  -35.5825 C   0  0  0  0  0  0  0  0  0  0  0  0
   39.8518  -16.8736  -37.2981 C   0  0  0  0  0  0  0  0  0  0  0  0
   39.1727  -18.1135  -37.8167 C   0  0  0  0  0  0  0  0  0  0  0  0
   38.2142  -18.0593  -38.8346 C   0  0  0  0  0  0  0  0  0  0  0  0
   37.6001  -19.2310  -39.2699 C   0  0  0  0  0  0  0  0  0  0  0  0
   37.9706  -20.4188  -38.6659 C   0  0  0  0  0  0  0  0  0  0  0  0
   37.2618  -21.9066  -39.1383 Cl  0  0  0  0  0  0  0  0  0  0  0  0
   38.8887  -20.5193  -37.6834 N   0  0  0  0  0  0  0  0  0  0  0  0
   39.4684  -19.3664  -37.2848 C   0  0  0  0  0  0  0  0  0  0  0  0
  7  8  3  0
  8  1  1  0
  1  2  2  0
  2  3  1  0
  3  4  1  0
  4  5  1  0
  5  6  1  0
  6  9  1  0
  9 10  1  0
 10 11  2  0
 11 12  1  0
 12 13  2  0
 13 14  1  0
 13 15  1  0
 15 16  2  0
  6  2  1  0
 16 10  1  0
M  END
> <minimizedAffinity>
-5.82016

> <CNNscore>
0.8428444266

> <CNNaffinity>
5.0249495506

> <CNN_VS>
4.2352509499

> <CNNaffinity_variance>
0.8781365752

$$$$



 16 17  0  0  0  0  0  0  0  0999 V2000
   30.7101  -26.9324  -31.5932 N   0  0  0  0  0  0  0  0  0  0  0  0
   30.2241  -26.1716  -30.6697 C   0  0  0  0  0  0  0  0  0  0  0  0
   29.3718  -24.6445  -30.9449 S   0  0  0  0  0  0  0  0  0  0  0  0
   29.4227  -24.2023  -29.1857 C   0  0  0  0  0  0  0  0  0  0  0  0
   29.4977  -25.5438  -28.4693 C   0  0  0  0  0  0  0  0  0  0  0  0
   30.2935  -26.4257  -29.3165 N   0  0  0  0  0  0  0  0  0  0  0  0
   30.4703  -26.3150  -33.9986 N   0  0  0  0  0  0  0  0  0  0  0  0
   30.5851  -26.5817  -32.8765 C   0  0  0  0  0  0  0  0  0  0  0  0
   30.7649  -27.6885  -28.7714 C   0  0  0  0  0  0  0  0  0  0  0  0
   31.3595  -27.5200  -27.3982 C   0  0  0  0  0  0  0  0  0  0  0  0
   32.0089  -26.3415  -27.0145 C   0  0  0  0  0  0  0  0  0  0  0  0
   32.5587  -26.2383  -25.7391 C   0  0  0  0  0  0  0  0  0  0  0  0
   32.4372  -27.3249  -24.8920 C   0  0  0  0  0  0  0  0  0  0  0  0
   33.0883  -27.2839  -23.3066 Cl  0  0  0  0  0  0  0  0  0  0  0  0
   31.8201  -28.4788  -25.2177 N   0  0  0  0  0  0  0  0  0  0  0  0
   31.2949  -28.5475  -26.4601 C   0  0  0  0  0  0  0  0  0  0  0  0
  7  8  3  0
  8  1  1  0
  1  2  2  0
  2  3  1  0
  3  4  1  0
  4  5  1  0
  5  6  1  0
  6  9  1  0
  9 10  1  0
 10 11  2  0
 11 12  1  0
 12 13  2  0
 13 14  1  0
 13 15  1  0
 15 16  2  0
  6  2  1  0
 16 10  1  0
M  END
> <minimizedAffinity>
-6.07463

> <CNNscore>
0.6287394166

> <CNNaffinity>
6.7818737030

> <CNN_VS>
4.2640314102

> <CNNaffinity_variance>
0.6628575921

$$$$



 16 17  0  0  0  0  0  0  0  0999 V2000
   31.9289  -26.1708  -25.7137 N   0  0  0  0  0  0  0  0  0  0  0  0
   31.3080  -27.0407  -26.4387 C   0  0  0  0  0  0  0  0  0  0  0  0
   31.1945  -28.7721  -26.0875 S   0  0  0  0  0  0  0  0  0  0  0  0
   30.5155  -29.1458  -27.7283 C   0  0  0  0  0  0  0  0  0  0  0  0
   29.8311  -27.8522  -28.1486 C   0  0  0  0  0  0  0  0  0  0  0  0
   30.6338  -26.7604  -27.6082 N   0  0  0  0  0  0  0  0  0  0  0  0
   33.1137  -26.9231  -23.6509 N   0  0  0  0  0  0  0  0  0  0  0  0
   32.5522  -26.5601  -24.5977 C   0  0  0  0  0  0  0  0  0  0  0  0
   30.3819  -25.4054  -28.0713 C   0  0  0  0  0  0  0  0  0  0  0  0
   30.1587  -25.3533  -29.5596 C   0  0  0  0  0  0  0  0  0  0  0  0
   30.4209  -26.4528  -30.3843 C   0  0  0  0  0  0  0  0  0  0  0  0
   30.2157  -26.3518  -31.7580 C   0  0  0  0  0  0  0  0  0  0  0  0
   29.7538  -25.1472  -32.2566 C   0  0  0  0  0  0  0  0  0  0  0  0
   29.4778  -24.9357  -33.9353 Cl  0  0  0  0  0  0  0  0  0  0  0  0
   29.4870  -24.0627  -31.5010 N   0  0  0  0  0  0  0  0  0  0  0  0
   29.6933  -24.1924  -30.1726 C   0  0  0  0  0  0  0  0  0  0  0  0
  7  8  3  0
  8  1  1  0
  1  2  2  0
  2  3  1  0
  3  4  1  0
  4  5  1  0
  5  6  1  0
  6  9  1  0
  9 10  1  0
 10 11  2  0
 11 12  1  0
 12 13  2  0
 13 14  1  0
 13 15  1  0
 15 16  2  0
  6  2  1  0
 16 10  1  0
M  END
> <minimizedAffinity>
-4.44045

> <CNNscore>
0.5759634972

> <CNNaffinity>
6.3315320015

> <CNN_VS>
3.6467313766

> <CNNaffinity_variance>
0.2834413052

$$$$



 16 17  0  0  0  0  0  0  0  0999 V2000
   26.8405  -30.8257  -33.4956 N   0  0  0  0  0  0  0  0  0  0  0  0
   26.0915  -30.6444  -34.5318 C   0  0  0  0  0  0  0  0  0  0  0  0
   26.6453  -30.0454  -36.1030 S   0  0  0  0  0  0  0  0  0  0  0  0
   24.9498  -29.8083  -36.7044 C   0  0  0  0  0  0  0  0  0  0  0  0
   24.1305  -30.8135  -35.9064 C   0  0  0  0  0  0  0  0  0  0  0  0
   24.7351  -30.8863  -34.5806 N   0  0  0  0  0  0  0  0  0  0  0  0
   29.2816  -30.3178  -33.5854 N   0  0  0  0  0  0  0  0  0  0  0  0
   28.1469  -30.5532  -33.5646 C   0  0  0  0  0  0  0  0  0  0  0  0
   24.0122  -31.5586  -33.5132 C   0  0  0  0  0  0  0  0  0  0  0  0
   24.1102  -33.0570  -33.6260 C   0  0  0  0  0  0  0  0  0  0  0  0
   24.7121  -33.6766  -34.7268 C   0  0  0  0  0  0  0  0  0  0  0  0
   24.7639  -35.0666  -34.7955 C   0  0  0  0  0  0  0  0  0  0  0  0
   24.2078  -35.7873  -33.7542 C   0  0  0  0  0  0  0  0  0  0  0  0
   24.2250  -37.5016  -33.7605 Cl  0  0  0  0  0  0  0  0  0  0  0  0
   23.6191  -35.2341  -32.6745 N   0  0  0  0  0  0  0  0  0  0  0  0
   23.5867  -33.8844  -32.6354 C   0  0  0  0  0  0  0  0  0  0  0  0
  7  8  3  0
  8  1  1  0
  1  2  2  0
  2  3  1  0
  3  4  1  0
  4  5  1  0
  5  6  1  0
  6  9  1  0
  9 10  1  0
 10 11  2  0
 11 12  1  0
 12 13  2  0
 13 14  1  0
 13 15  1  0
 15 16  2  0
  6  2  1  0
 16 10  1  0
M  END
> <minimizedAffinity>
-3.98323

> <CNNscore>
0.4256969392

> <CNNaffinity>
4.5973296165

> <CNN_VS>
1.9570691586

> <CNNaffinity_variance>
0.0406093746

$$$$



 16 17  0  0  0  0  0  0  0  0999 V2000
   20.8556  -32.6900  -33.9312 N   0  0  0  0  0  0  0  0  0  0  0  0
   21.0975  -31.7646  -33.0635 C   0  0  0  0  0  0  0  0  0  0  0  0
   21.4267  -32.0335  -31.3449 S   0  0  0  0  0  0  0  0  0  0  0  0
   21.2732  -30.2683  -30.9533 C   0  0  0  0  0  0  0  0  0  0  0  0
   21.6329  -29.5679  -32.2566 C   0  0  0  0  0  0  0  0  0  0  0  0
   21.1358  -30.4138  -33.3363 N   0  0  0  0  0  0  0  0  0  0  0  0
   20.7920  -35.0839  -33.2311 N   0  0  0  0  0  0  0  0  0  0  0  0
   20.8414  -33.9706  -33.5497 C   0  0  0  0  0  0  0  0  0  0  0  0
   21.0912  -29.8775  -34.6870 C   0  0  0  0  0  0  0  0  0  0  0  0
   22.4659  -29.7614  -35.2905 C   0  0  0  0  0  0  0  0  0  0  0  0
   22.7011  -29.0212  -36.4543 C   0  0  0  0  0  0  0  0  0  0  0  0
   23.9870  -28.9568  -36.9854 C   0  0  0  0  0  0  0  0  0  0  0  0
   24.9938  -29.6402  -36.3278 C   0  0  0  0  0  0  0  0  0  0  0  0
   26.6041  -29.6173  -36.9154 Cl  0  0  0  0  0  0  0  0  0  0  0  0
   24.8144  -30.3645  -35.2046 N   0  0  0  0  0  0  0  0  0  0  0  0
   23.5573  -30.4056  -34.7125 C   0  0  0  0  0  0  0  0  0  0  0  0
  7  8  3  0
  8  1  1  0
  1  2  2  0
  2  3  1  0
  3  4  1  0
  4  5  1  0
  5  6  1  0
  6  9  1  0
  9 10  1  0
 10 11  2  0
 11 12  1  0
 12 13  2  0
 13 14  1  0
 13 15  1  0
 15 16  2  0
  6  2  1  0
 16 10  1  0
M  END
> <minimizedAffinity>
-3.90950

> <CNNscore>
0.4026773572

> <CNNaffinity>
4.6217169762

> <CNN_VS>
1.8610607386

> <CNNaffinity_variance>
0.1974099874

$$$$



 16 17  0  0  0  0  0  0  0  0999 V2000
   27.1596  -30.7952  -33.9120 N   0  0  0  0  0  0  0  0  0  0  0  0
   26.3054  -30.5535  -34.8499 C   0  0  0  0  0  0  0  0  0  0  0  0
   26.6907  -29.8552  -36.4304 S   0  0  0  0  0  0  0  0  0  0  0  0
   24.9415  -29.5894  -36.8331 C   0  0  0  0  0  0  0  0  0  0  0  0
   24.2096  -30.6463  -36.0171 C   0  0  0  0  0  0  0  0  0  0  0  0
   24.9511  -30.7985  -34.7699 N   0  0  0  0  0  0  0  0  0  0  0  0
   29.5779  -30.2689  -34.2277 N   0  0  0  0  0  0  0  0  0  0  0  0
   28.4518  -30.5127  -34.1018 C   0  0  0  0  0  0  0  0  0  0  0  0
   24.3440  -31.5394  -33.6761 C   0  0  0  0  0  0  0  0  0  0  0  0
   23.1035  -30.8606  -33.1586 C   0  0  0  0  0  0  0  0  0  0  0  0
   23.1537  -29.6135  -32.5262 C   0  0  0  0  0  0  0  0  0  0  0  0
   21.9817  -29.0324  -32.0483 C   0  0  0  0  0  0  0  0  0  0  0  0
   20.7978  -29.7259  -32.2222 C   0  0  0  0  0  0  0  0  0  0  0  0
   19.3101  -29.0851  -31.6609 Cl  0  0  0  0  0  0  0  0  0  0  0  0
   20.7013  -30.9280  -32.8255 N   0  0  0  0  0  0  0  0  0  0  0  0
   21.8543  -31.4644  -33.2805 C   0  0  0  0  0  0  0  0  0  0  0  0
  7  8  3  0
  8  1  1  0
  1  2  2  0
  2  3  1  0
  3  4  1  0
  4  5  1  0
  5  6  1  0
  6  9  1  0
  9 10  1  0
 10 11  2  0
 11 12  1  0
 12 13  2  0
 13 14  1  0
 13 15  1  0
 15 16  2  0
  6  2  1  0
 16 10  1  0
M  END
> <minimizedAffinity>
-4.71002

> <CNNscore>
0.3878992498

> <CNNaffinity>
4.6465115547

> <CNN_VS>
1.8023782969

> <CNNaffinity_variance>
0.0774023309

$$$$



 16 17  0  0  0  0  0  0  0  0999 V2000
   37.8244  -15.8439  -35.6131 N   0  0  0  0  0  0  0  0  0  0  0  0
   38.7793  -15.4301  -36.3778 C   0  0  0  0  0  0  0  0  0  0  0  0
   40.1395  -14.4212  -35.8619 S   0  0  0  0  0  0  0  0  0  0  0  0
   40.6619  -14.1052  -37.5706 C   0  0  0  0  0  0  0  0  0  0  0  0
   40.1545  -15.3158  -38.3423 C   0  0  0  0  0  0  0  0  0  0  0  0
   38.8920  -15.7061  -37.7238 N   0  0  0  0  0  0  0  0  0  0  0  0
   37.8360  -15.2502  -33.1899 N   0  0  0  0  0  0  0  0  0  0  0  0
   37.8176  -15.5100  -34.3193 C   0  0  0  0  0  0  0  0  0  0  0  0
   38.0378  -16.6616  -38.4101 C   0  0  0  0  0  0  0  0  0  0  0  0
   38.3362  -18.0788  -37.9976 C   0  0  0  0  0  0  0  0  0  0  0  0
   38.0619  -19.1649  -38.8359 C   0  0  0  0  0  0  0  0  0  0  0  0
   38.3392  -20.4596  -38.4040 C   0  0  0  0  0  0  0  0  0  0  0  0
   38.8830  -20.6184  -37.1423 C   0  0  0  0  0  0  0  0  0  0  0  0
   39.2512  -22.1771  -36.5309 Cl  0  0  0  0  0  0  0  0  0  0  0  0
   39.1645  -19.6027  -36.3012 N   0  0  0  0  0  0  0  0  0  0  0  0
   38.8870  -18.3592  -36.7494 C   0  0  0  0  0  0  0  0  0  0  0  0
  7  8  3  0
  8  1  1  0
  1  2  2  0
  2  3  1  0
  3  4  1  0
  4  5  1  0
  5  6  1  0
  6  9  1  0
  9 10  1  0
 10 11  2  0
 11 12  1  0
 12 13  2  0
 13 14  1  0
 13 15  1  0
 15 16  2  0
  6  2  1  0
 16 10  1  0
M  END
> <minimizedAffinity>
-4.59301

> <CNNscore>
0.3509478569

> <CNNaffinity>
4.1408257484

> <CNN_VS>
1.4532139301

> <CNNaffinity_variance>
0.4908263683

$$$$
