


 43 45  0  0  0  0  0  0  0  0999 V2000
   50.3495    7.1576    3.3850 C   0  0  0  0  0  0  0  0  0  0  0  0
   51.3955    7.3220    4.2699 C   0  0  0  0  0  0  0  0  0  0  0  0
   51.8784    5.8096    4.9254 S   0  0  0  0  0  0  0  0  0  0  0  0
   50.7349    4.9236    3.9985 C   0  0  0  0  0  0  0  0  0  0  0  0
   49.9789    5.7873    3.2284 C   0  0  0  0  0  0  0  0  0  0  0  0
   48.5949    5.2592    2.0398 Br  0  0  0  0  0  0  0  0  0  0  0  0
   50.7252    3.4548    4.0885 C   0  0  0  0  0  0  0  0  0  0  0  0
   49.6468    2.7883    4.6784 C   0  0  0  0  0  0  0  0  0  0  0  0
   49.6760    1.4056    4.8398 C   0  0  0  0  0  0  0  0  0  0  0  0
   50.7625    0.6670    4.3697 C   0  0  0  0  0  0  0  0  0  0  0  0
   51.8142    1.2834    3.6846 C   0  0  0  0  0  0  0  0  0  0  0  0
   51.7959    2.6866    3.5967 C   0  0  0  0  0  0  0  0  0  0  0  0
   52.9421    0.6059    3.1953 N   0  0  0  0  0  0  0  0  0  0  0  0
   52.9363   -0.3770    3.1408 H   0  0  0  0  0  0  0  0  0  0  0  0
   54.1330    1.3544    2.7631 C   0  0  0  0  0  0  0  0  0  0  0  0
   55.3873    0.7276    3.3966 C   0  0  0  0  0  0  0  0  0  0  0  0
   56.6878    1.0189    2.6266 C   0  0  0  0  0  0  0  0  0  0  0  0
   57.8528    0.2893    3.3267 C   0  0  0  0  0  0  0  0  0  0  0  0
   57.0093    2.5280    2.6658 C   0  0  0  0  0  0  0  0  0  0  0  0
   56.5954    0.5272    1.1555 C   0  0  0  0  0  0  0  0  0  0  0  0
   55.1613    0.4027    0.5694 C   0  0  0  0  0  0  0  0  0  0  0  0
   55.2176    0.6982   -0.9446 C   0  0  0  0  0  0  0  0  0  0  0  0
   54.6294   -1.0398    0.7207 C   0  0  0  0  0  0  0  0  0  0  0  0
   54.1917    1.4050    1.2239 C   0  0  0  0  0  0  0  0  0  0  0  0
   52.0956    8.5051    4.7192 C   0  0  0  0  0  0  0  0  0  0  0  0
   51.7638    9.6774    4.5967 O   0  0  0  0  0  0  0  0  0  0  0  0
   53.2788    8.2263    5.3076 O   0  0  0  0  0  0  0  0  0  0  0  0
   53.5521    7.3361    5.4115 H   0  0  0  0  0  0  0  0  0  0  0  0
   49.8795    8.1874    2.6444 O   0  0  0  0  0  0  0  0  0  0  0  0
   48.4697    8.3786    2.7599 C   0  0  0  0  0  0  0  0  0  0  0  0
   48.0887    9.6783    2.0272 C   0  0  0  0  0  0  0  0  0  0  0  0
   48.0343    9.6390    0.4734 C   0  0  0  0  0  0  0  0  0  0  0  0
   49.3921    9.9511   -0.1875 C   0  0  0  0  0  0  0  0  0  0  0  0
   47.6412    8.1994    0.0347 C   0  0  0  0  0  0  0  0  0  0  0  0
   46.9241   10.5784   -0.1234 C   0  0  0  0  0  0  0  0  0  0  0  0
   45.3741   10.4286    0.1581 C   0  0  0  0  0  0  0  0  0  0  0  0
   45.0440    8.9327    0.2402 C   0  0  0  0  0  0  0  0  0  0  0  0
   44.9353   11.1371    1.4479 C   0  0  0  0  0  0  0  0  0  0  0  0
   44.6600   11.1119   -1.0701 C   0  0  0  0  0  0  0  0  0  0  0  0
   46.3455   12.7579   -2.0618 C   0  0  0  0  0  0  0  0  0  0  0  0
   44.9088   12.5877   -1.5315 C   0  0  0  0  0  0  0  0  0  0  0  0
   43.9205   13.1316   -2.5705 C   0  0  0  0  0  0  0  0  0  0  0  0
   44.7712   13.4811   -0.2749 C   0  0  0  0  0  0  0  0  0  0  0  0
 40 41  1  0
 41 42  1  0
 41 43  1  0
 41 39  1  0
 39 36  1  0
 36 37  1  0
 36 38  1  0
 36 35  1  0
 35 32  1  0
 32 33  1  0
 32 34  1  0
 32 31  1  0
 31 30  1  0
 30 29  1  0
 29  1  1  0
  1  2  2  0
  2 25  1  0
 25 26  2  0
 25 27  1  0
  2  3  1  0
  3  4  1  0
  4  7  1  0
  7  8  2  0
  8  9  1  0
  9 10  2  0
 10 11  1  0
 11 13  1  0
 13 15  1  0
 15 16  1  0
 16 17  1  0
 17 18  1  0
 17 19  1  0
 17 20  1  0
 20 21  1  0
 21 22  1  0
 21 23  1  0
 21 24  1  0
 11 12  2  0
  4  5  2  0
  5  6  1  0
  5  1  1  0
 12  7  1  0
 24 15  1  0
 27 28  1  0
 13 14  1  0
M  END
> <minimizedAffinity>
-6.32039

> <CNNscore>
0.3458455205

> <CNNaffinity>
6.4628138542

> <CNN_VS>
2.2351353168

> <CNNaffinity_variance>
0.4762962759

$$$$



 43 45  0  0  0  0  0  0  0  0999 V2000
   44.8806   14.5976    1.5703 C   0  0  0  0  0  0  0  0  0  0  0  0
   44.6522   15.7879    2.2300 C   0  0  0  0  0  0  0  0  0  0  0  0
   44.0338   16.9710    1.1492 S   0  0  0  0  0  0  0  0  0  0  0  0
   44.0180   15.8930   -0.1885 C   0  0  0  0  0  0  0  0  0  0  0  0
   44.5124   14.6595    0.1919 C   0  0  0  0  0  0  0  0  0  0  0  0
   44.6788   13.1528   -0.9523 Br  0  0  0  0  0  0  0  0  0  0  0  0
   43.4763   16.3578   -1.4753 C   0  0  0  0  0  0  0  0  0  0  0  0
   42.2519   15.8729   -1.9452 C   0  0  0  0  0  0  0  0  0  0  0  0
   41.7804   16.2479   -3.2006 C   0  0  0  0  0  0  0  0  0  0  0  0
   42.5040   17.1500   -3.9812 C   0  0  0  0  0  0  0  0  0  0  0  0
   43.6818   17.7353   -3.5063 C   0  0  0  0  0  0  0  0  0  0  0  0
   44.1736   17.2878   -2.2673 C   0  0  0  0  0  0  0  0  0  0  0  0
   44.4656   18.6396   -4.2400 N   0  0  0  0  0  0  0  0  0  0  0  0
   44.4194   19.6020   -4.0380 H   0  0  0  0  0  0  0  0  0  0  0  0
   45.3556   18.1594   -5.3089 C   0  0  0  0  0  0  0  0  0  0  0  0
   45.8218   19.3537   -6.1597 C   0  0  0  0  0  0  0  0  0  0  0  0
   47.1396   19.1057   -6.9152 C   0  0  0  0  0  0  0  0  0  0  0  0
   47.5247   20.3911   -7.6761 C   0  0  0  0  0  0  0  0  0  0  0  0
   46.9539   17.9935   -7.9693 C   0  0  0  0  0  0  0  0  0  0  0  0
   48.2893   18.7336   -5.9384 C   0  0  0  0  0  0  0  0  0  0  0  0
   47.8536   18.1211   -4.5780 C   0  0  0  0  0  0  0  0  0  0  0  0
   48.9414   17.1314   -4.1093 C   0  0  0  0  0  0  0  0  0  0  0  0
   47.7501   19.2144   -3.4913 C   0  0  0  0  0  0  0  0  0  0  0  0
   46.5218   17.3565   -4.7003 C   0  0  0  0  0  0  0  0  0  0  0  0
   44.8587   16.1766    3.6077 C   0  0  0  0  0  0  0  0  0  0  0  0
   44.5483   15.5684    4.6241 O   0  0  0  0  0  0  0  0  0  0  0  0
   45.4360   17.3911    3.7321 O   0  0  0  0  0  0  0  0  0  0  0  0
   45.6815   17.8738    2.9674 H   0  0  0  0  0  0  0  0  0  0  0  0
   45.2474   13.4781    2.2352 O   0  0  0  0  0  0  0  0  0  0  0  0
   46.6586   13.2656    2.2632 C   0  0  0  0  0  0  0  0  0  0  0  0
   46.9296   11.8299    2.7492 C   0  0  0  0  0  0  0  0  0  0  0  0
   47.1257   10.7292    1.6680 C   0  0  0  0  0  0  0  0  0  0  0  0
   45.8095   10.3175    0.9782 C   0  0  0  0  0  0  0  0  0  0  0  0
   48.0571   11.2952    0.5582 C   0  0  0  0  0  0  0  0  0  0  0  0
   47.8580    9.4527    2.2210 C   0  0  0  0  0  0  0  0  0  0  0  0
   48.0803    8.1183    1.3998 C   0  0  0  0  0  0  0  0  0  0  0  0
   47.4054    6.9693    2.1600 C   0  0  0  0  0  0  0  0  0  0  0  0
   47.5249    8.2031   -0.0294 C   0  0  0  0  0  0  0  0  0  0  0  0
   49.6436    7.9271    1.3314 C   0  0  0  0  0  0  0  0  0  0  0  0
   49.9330    5.4741    1.9895 C   0  0  0  0  0  0  0  0  0  0  0  0
   50.4512    6.9090    2.2055 C   0  0  0  0  0  0  0  0  0  0  0  0
   51.9723    6.9302    2.0102 C   0  0  0  0  0  0  0  0  0  0  0  0
   50.1867    7.2780    3.6854 C   0  0  0  0  0  0  0  0  0  0  0  0
 40 41  1  0
 41 42  1  0
 41 43  1  0
 41 39  1  0
 39 36  1  0
 36 37  1  0
 36 38  1  0
 36 35  1  0
 35 32  1  0
 32 33  1  0
 32 34  1  0
 32 31  1  0
 31 30  1  0
 30 29  1  0
 29  1  1  0
  1  2  2  0
  2 25  1  0
 25 26  2  0
 25 27  1  0
  2  3  1  0
  3  4  1  0
  4  7  1  0
  7  8  2  0
  8  9  1  0
  9 10  2  0
 10 11  1  0
 11 13  1  0
 13 15  1  0
 15 16  1  0
 16 17  1  0
 17 18  1  0
 17 19  1  0
 17 20  1  0
 20 21  1  0
 21 22  1  0
 21 23  1  0
 21 24  1  0
 11 12  2  0
  4  5  2  0
  5  6  1  0
  5  1  1  0
 12  7  1  0
 24 15  1  0
 27 28  1  0
 13 14  1  0
M  END
> <minimizedAffinity>
-7.01602

> <CNNscore>
0.2729729414

> <CNNaffinity>
6.5317840576

> <CNN_VS>
1.7830003500

> <CNNaffinity_variance>
0.2415211797

$$$$



 43 45  0  0  0  0  0  0  0  0999 V2000
   44.9892   14.1515    0.7436 C   0  0  0  0  0  0  0  0  0  0  0  0
   44.6584   15.2159    1.5571 C   0  0  0  0  0  0  0  0  0  0  0  0
   43.7938   16.4083    0.6735 S   0  0  0  0  0  0  0  0  0  0  0  0
   43.8098   15.4936   -0.7807 C   0  0  0  0  0  0  0  0  0  0  0  0
   44.4987   14.3107   -0.5881 C   0  0  0  0  0  0  0  0  0  0  0  0
   44.7695   12.9796   -1.9154 Br  0  0  0  0  0  0  0  0  0  0  0  0
   43.1010   16.0136   -1.9607 C   0  0  0  0  0  0  0  0  0  0  0  0
   43.8156   16.4628   -3.0755 C   0  0  0  0  0  0  0  0  0  0  0  0
   43.1490   17.0328   -4.1570 C   0  0  0  0  0  0  0  0  0  0  0  0
   41.7563   17.1167   -4.1578 C   0  0  0  0  0  0  0  0  0  0  0  0
   40.9990   16.5882   -3.1078 C   0  0  0  0  0  0  0  0  0  0  0  0
   41.6966   16.0822   -1.9967 C   0  0  0  0  0  0  0  0  0  0  0  0
   39.5983   16.6473   -3.0369 N   0  0  0  0  0  0  0  0  0  0  0  0
   39.1637   17.3988   -2.5724 H   0  0  0  0  0  0  0  0  0  0  0  0
   38.7749   15.5942   -3.6518 C   0  0  0  0  0  0  0  0  0  0  0  0
   39.4561   14.2296   -3.4483 C   0  0  0  0  0  0  0  0  0  0  0  0
   38.4911   13.0328   -3.5206 C   0  0  0  0  0  0  0  0  0  0  0  0
   39.2836   11.7390   -3.2423 C   0  0  0  0  0  0  0  0  0  0  0  0
   37.8986   12.9049   -4.9401 C   0  0  0  0  0  0  0  0  0  0  0  0
   37.3514   13.1621   -2.4724 C   0  0  0  0  0  0  0  0  0  0  0  0
   37.0283   14.6053   -1.9943 C   0  0  0  0  0  0  0  0  0  0  0  0
   35.5240   14.6910   -1.6593 C   0  0  0  0  0  0  0  0  0  0  0  0
   37.7925   14.9369   -0.6933 C   0  0  0  0  0  0  0  0  0  0  0  0
   37.3433   15.6479   -3.0838 C   0  0  0  0  0  0  0  0  0  0  0  0
   44.9280   15.4763    2.9540 C   0  0  0  0  0  0  0  0  0  0  0  0
   44.1783   15.9521    3.7972 O   0  0  0  0  0  0  0  0  0  0  0  0
   46.1947   15.1743    3.3119 O   0  0  0  0  0  0  0  0  0  0  0  0
   46.7851   14.8094    2.6824 H   0  0  0  0  0  0  0  0  0  0  0  0
   45.5611   13.0307    1.2406 O   0  0  0  0  0  0  0  0  0  0  0  0
   44.6818   11.9069    1.2756 C   0  0  0  0  0  0  0  0  0  0  0  0
   45.5258   10.6207    1.2108 C   0  0  0  0  0  0  0  0  0  0  0  0
   47.0240   10.7220    1.6161 C   0  0  0  0  0  0  0  0  0  0  0  0
   47.9425   11.1192    0.4429 C   0  0  0  0  0  0  0  0  0  0  0  0
   47.1642   11.8350    2.6937 C   0  0  0  0  0  0  0  0  0  0  0  0
   47.5641    9.4102    2.2936 C   0  0  0  0  0  0  0  0  0  0  0  0
   47.8706    8.0622    1.5234 C   0  0  0  0  0  0  0  0  0  0  0  0
   46.9309    7.9765    0.3139 C   0  0  0  0  0  0  0  0  0  0  0  0
   49.3324    7.9622    1.0637 C   0  0  0  0  0  0  0  0  0  0  0  0
   47.5810    6.9134    2.5635 C   0  0  0  0  0  0  0  0  0  0  0  0
   48.9601    6.0757    4.5459 C   0  0  0  0  0  0  0  0  0  0  0  0
   48.6432    5.8713    3.0519 C   0  0  0  0  0  0  0  0  0  0  0  0
   48.2864    4.3996    2.8093 C   0  0  0  0  0  0  0  0  0  0  0  0
   49.9442    6.1509    2.2611 C   0  0  0  0  0  0  0  0  0  0  0  0
 40 41  1  0
 41 42  1  0
 41 43  1  0
 41 39  1  0
 39 36  1  0
 36 37  1  0
 36 38  1  0
 36 35  1  0
 35 32  1  0
 32 33  1  0
 32 34  1  0
 32 31  1  0
 31 30  1  0
 30 29  1  0
 29  1  1  0
  1  2  2  0
  2 25  1  0
 25 26  2  0
 25 27  1  0
  2  3  1  0
  3  4  1  0
  4  7  1  0
  7  8  2  0
  8  9  1  0
  9 10  2  0
 10 11  1  0
 11 13  1  0
 13 15  1  0
 15 16  1  0
 16 17  1  0
 17 18  1  0
 17 19  1  0
 17 20  1  0
 20 21  1  0
 21 22  1  0
 21 23  1  0
 21 24  1  0
 11 12  2  0
  4  5  2  0
  5  6  1  0
  5  1  1  0
 12  7  1  0
 24 15  1  0
 27 28  1  0
 13 14  1  0
M  END
> <minimizedAffinity>
-7.29052

> <CNNscore>
0.2573512793

> <CNNaffinity>
6.2378768921

> <CNN_VS>
1.6053255796

> <CNNaffinity_variance>
1.1094418764

$$$$



 43 45  0  0  0  0  0  0  0  0999 V2000
   44.6129   14.7653    1.4713 C   0  0  0  0  0  0  0  0  0  0  0  0
   45.2698   15.1267    2.6298 C   0  0  0  0  0  0  0  0  0  0  0  0
   46.5305   14.0150    2.9838 S   0  0  0  0  0  0  0  0  0  0  0  0
   46.2431   13.0777    1.5729 C   0  0  0  0  0  0  0  0  0  0  0  0
   45.1744   13.5990    0.8680 C   0  0  0  0  0  0  0  0  0  0  0  0
   44.4973   12.8959   -0.7611 Br  0  0  0  0  0  0  0  0  0  0  0  0
   47.1308   11.9425    1.2752 C   0  0  0  0  0  0  0  0  0  0  0  0
   47.9806   11.9797    0.1655 C   0  0  0  0  0  0  0  0  0  0  0  0
   48.7580   10.8725   -0.1643 C   0  0  0  0  0  0  0  0  0  0  0  0
   48.7315    9.7321    0.6393 C   0  0  0  0  0  0  0  0  0  0  0  0
   47.9723    9.6915    1.8129 C   0  0  0  0  0  0  0  0  0  0  0  0
   47.1427   10.7934    2.0862 C   0  0  0  0  0  0  0  0  0  0  0  0
   47.8894    8.5762    2.6612 N   0  0  0  0  0  0  0  0  0  0  0  0
   47.8465    8.7059    3.6362 H   0  0  0  0  0  0  0  0  0  0  0  0
   47.8661    7.2146    2.1038 C   0  0  0  0  0  0  0  0  0  0  0  0
   48.9662    7.0813    1.0362 C   0  0  0  0  0  0  0  0  0  0  0  0
   49.4240    5.6329    0.7887 C   0  0  0  0  0  0  0  0  0  0  0  0
   50.5630    5.6436   -0.2516 C   0  0  0  0  0  0  0  0  0  0  0  0
   48.2711    4.7995    0.1899 C   0  0  0  0  0  0  0  0  0  0  0  0
   49.9411    4.9726    2.0967 C   0  0  0  0  0  0  0  0  0  0  0  0
   49.3992    5.5758    3.4227 C   0  0  0  0  0  0  0  0  0  0  0  0
   49.3116    4.4530    4.4782 C   0  0  0  0  0  0  0  0  0  0  0  0
   50.3734    6.6362    3.9824 C   0  0  0  0  0  0  0  0  0  0  0  0
   47.9941    6.1800    3.2388 C   0  0  0  0  0  0  0  0  0  0  0  0
   45.0609   16.2232    3.5494 C   0  0  0  0  0  0  0  0  0  0  0  0
   45.1848   17.4237    3.3419 O   0  0  0  0  0  0  0  0  0  0  0  0
   44.7259   15.8132    4.7917 O   0  0  0  0  0  0  0  0  0  0  0  0
   44.6260   14.8993    4.9724 H   0  0  0  0  0  0  0  0  0  0  0  0
   43.6649   15.5561    0.9182 O   0  0  0  0  0  0  0  0  0  0  0  0
   44.1458   16.3562   -0.1616 C   0  0  0  0  0  0  0  0  0  0  0  0
   43.1964   16.1836   -1.3615 C   0  0  0  0  0  0  0  0  0  0  0  0
   43.6325   16.8042   -2.7192 C   0  0  0  0  0  0  0  0  0  0  0  0
   44.4922   18.0739   -2.5557 C   0  0  0  0  0  0  0  0  0  0  0  0
   44.5077   15.7628   -3.4736 C   0  0  0  0  0  0  0  0  0  0  0  0
   42.4189   17.1032   -3.6728 C   0  0  0  0  0  0  0  0  0  0  0  0
   41.1767   16.1435   -3.8735 C   0  0  0  0  0  0  0  0  0  0  0  0
   40.3875   16.6299   -5.0958 C   0  0  0  0  0  0  0  0  0  0  0  0
   41.5867   14.6755   -4.0604 C   0  0  0  0  0  0  0  0  0  0  0  0
   40.3311   16.2746   -2.5495 C   0  0  0  0  0  0  0  0  0  0  0  0
   38.3073   16.1504   -0.9930 C   0  0  0  0  0  0  0  0  0  0  0  0
   38.8336   15.8388   -2.4072 C   0  0  0  0  0  0  0  0  0  0  0  0
   37.8711   16.4301   -3.4447 C   0  0  0  0  0  0  0  0  0  0  0  0
   38.7935   14.3019   -2.5870 C   0  0  0  0  0  0  0  0  0  0  0  0
 40 41  1  0
 41 42  1  0
 41 43  1  0
 41 39  1  0
 39 36  1  0
 36 37  1  0
 36 38  1  0
 36 35  1  0
 35 32  1  0
 32 33  1  0
 32 34  1  0
 32 31  1  0
 31 30  1  0
 30 29  1  0
 29  1  1  0
  1  2  2  0
  2 25  1  0
 25 26  2  0
 25 27  1  0
  2  3  1  0
  3  4  1  0
  4  7  1  0
  7  8  2  0
  8  9  1  0
  9 10  2  0
 10 11  1  0
 11 13  1  0
 13 15  1  0
 15 16  1  0
 16 17  1  0
 17 18  1  0
 17 19  1  0
 17 20  1  0
 20 21  1  0
 21 22  1  0
 21 23  1  0
 21 24  1  0
 11 12  2  0
  4  5  2  0
  5  6  1  0
  5  1  1  0
 12  7  1  0
 24 15  1  0
 27 28  1  0
 13 14  1  0
M  END
> <minimizedAffinity>
-7.60102

> <CNNscore>
0.2525597811

> <CNNaffinity>
6.6766562462

> <CNN_VS>
1.6862548590

> <CNNaffinity_variance>
0.2331867218

$$$$



 43 45  0  0  0  0  0  0  0  0999 V2000
   50.1844    6.6261    3.4020 C   0  0  0  0  0  0  0  0  0  0  0  0
   51.2957    6.7959    4.2022 C   0  0  0  0  0  0  0  0  0  0  0  0
   51.7614    5.3051    4.9171 S   0  0  0  0  0  0  0  0  0  0  0  0
   50.5206    4.4176    4.1268 C   0  0  0  0  0  0  0  0  0  0  0  0
   49.7482    5.2670    3.3569 C   0  0  0  0  0  0  0  0  0  0  0  0
   48.2639    4.7316    2.2999 Br  0  0  0  0  0  0  0  0  0  0  0  0
   50.4574    2.9588    4.3091 C   0  0  0  0  0  0  0  0  0  0  0  0
   49.7225    2.4077    5.3633 C   0  0  0  0  0  0  0  0  0  0  0  0
   49.7318    1.0332    5.5860 C   0  0  0  0  0  0  0  0  0  0  0  0
   50.4370    0.1882    4.7283 C   0  0  0  0  0  0  0  0  0  0  0  0
   51.1019    0.6888    3.6046 C   0  0  0  0  0  0  0  0  0  0  0  0
   51.1368    2.0850    3.4412 C   0  0  0  0  0  0  0  0  0  0  0  0
   51.8391   -0.0996    2.7072 N   0  0  0  0  0  0  0  0  0  0  0  0
   51.4626   -0.9478    2.3786 H   0  0  0  0  0  0  0  0  0  0  0  0
   53.1707    0.3327    2.2541 C   0  0  0  0  0  0  0  0  0  0  0  0
   53.3863    1.8073    2.6371 C   0  0  0  0  0  0  0  0  0  0  0  0
   54.8667    2.2150    2.7429 C   0  0  0  0  0  0  0  0  0  0  0  0
   54.9443    3.6898    3.1888 C   0  0  0  0  0  0  0  0  0  0  0  0
   55.5499    2.1225    1.3620 C   0  0  0  0  0  0  0  0  0  0  0  0
   55.6225    1.3346    3.7763 C   0  0  0  0  0  0  0  0  0  0  0  0
   55.0091   -0.0664    4.0532 C   0  0  0  0  0  0  0  0  0  0  0  0
   56.1507   -1.0490    4.3908 C   0  0  0  0  0  0  0  0  0  0  0  0
   54.0797   -0.0250    5.2866 C   0  0  0  0  0  0  0  0  0  0  0  0
   54.2506   -0.6064    2.8260 C   0  0  0  0  0  0  0  0  0  0  0  0
   52.0731    7.9710    4.5283 C   0  0  0  0  0  0  0  0  0  0  0  0
   51.8899    9.1274    4.1697 O   0  0  0  0  0  0  0  0  0  0  0  0
   53.1489    7.6953    5.2966 O   0  0  0  0  0  0  0  0  0  0  0  0
   53.3081    6.8171    5.5821 H   0  0  0  0  0  0  0  0  0  0  0  0
   49.7058    7.6299    2.6318 O   0  0  0  0  0  0  0  0  0  0  0  0
   48.3742    8.0215    2.9646 C   0  0  0  0  0  0  0  0  0  0  0  0
   48.0870    9.3875    2.3144 C   0  0  0  0  0  0  0  0  0  0  0  0
   47.4967    9.3896    0.8754 C   0  0  0  0  0  0  0  0  0  0  0  0
   48.4357   10.0367   -0.1626 C   0  0  0  0  0  0  0  0  0  0  0  0
   47.2854    7.9137    0.4320 C   0  0  0  0  0  0  0  0  0  0  0  0
   46.0766   10.0594    0.7981 C   0  0  0  0  0  0  0  0  0  0  0  0
   45.7993   11.5159    0.2450 C   0  0  0  0  0  0  0  0  0  0  0  0
   45.4986   12.4327    1.4377 C   0  0  0  0  0  0  0  0  0  0  0  0
   46.9770   12.0753   -0.5664 C   0  0  0  0  0  0  0  0  0  0  0  0
   44.5478   11.3701   -0.7025 C   0  0  0  0  0  0  0  0  0  0  0  0
   43.9319    8.8894   -0.7180 C   0  0  0  0  0  0  0  0  0  0  0  0
   44.2515   10.1165   -1.5932 C   0  0  0  0  0  0  0  0  0  0  0  0
   43.1418   10.2938   -2.6370 C   0  0  0  0  0  0  0  0  0  0  0  0
   45.5510    9.8018   -2.3733 C   0  0  0  0  0  0  0  0  0  0  0  0
 40 41  1  0
 41 42  1  0
 41 43  1  0
 41 39  1  0
 39 36  1  0
 36 37  1  0
 36 38  1  0
 36 35  1  0
 35 32  1  0
 32 33  1  0
 32 34  1  0
 32 31  1  0
 31 30  1  0
 30 29  1  0
 29  1  1  0
  1  2  2  0
  2 25  1  0
 25 26  2  0
 25 27  1  0
  2  3  1  0
  3  4  1  0
  4  7  1  0
  7  8  2  0
  8  9  1  0
  9 10  2  0
 10 11  1  0
 11 13  1  0
 13 15  1  0
 15 16  1  0
 16 17  1  0
 17 18  1  0
 17 19  1  0
 17 20  1  0
 20 21  1  0
 21 22  1  0
 21 23  1  0
 21 24  1  0
 11 12  2  0
  4  5  2  0
  5  6  1  0
  5  1  1  0
 12  7  1  0
 24 15  1  0
 27 28  1  0
 13 14  1  0
M  END
> <minimizedAffinity>
-6.32968

> <CNNscore>
0.2088645548

> <CNNaffinity>
6.5717415810

> <CNN_VS>
1.3726038933

> <CNNaffinity_variance>
0.4866898954

$$$$



 43 45  0  0  0  0  0  0  0  0999 V2000
   44.6650   14.6602    1.1511 C   0  0  0  0  0  0  0  0  0  0  0  0
   45.2336   15.0395    2.3498 C   0  0  0  0  0  0  0  0  0  0  0  0
   46.3819   13.8737    2.8718 S   0  0  0  0  0  0  0  0  0  0  0  0
   46.1667   12.8853    1.4831 C   0  0  0  0  0  0  0  0  0  0  0  0
   45.2037   13.4334    0.6567 C   0  0  0  0  0  0  0  0  0  0  0  0
   44.6365   12.6908   -0.9966 Br  0  0  0  0  0  0  0  0  0  0  0  0
   47.0032   11.6854    1.3226 C   0  0  0  0  0  0  0  0  0  0  0  0
   46.9645   10.6622    2.2747 C   0  0  0  0  0  0  0  0  0  0  0  0
   47.8174    9.5667    2.1671 C   0  0  0  0  0  0  0  0  0  0  0  0
   48.6854    9.4574    1.0802 C   0  0  0  0  0  0  0  0  0  0  0  0
   48.6840   10.4080    0.0546 C   0  0  0  0  0  0  0  0  0  0  0  0
   47.8656   11.5392    0.2211 C   0  0  0  0  0  0  0  0  0  0  0  0
   49.5361   10.3678   -1.0601 N   0  0  0  0  0  0  0  0  0  0  0  0
   49.3011    9.8077   -1.8349 H   0  0  0  0  0  0  0  0  0  0  0  0
   50.7780   11.1568   -1.0790 C   0  0  0  0  0  0  0  0  0  0  0  0
   51.9229   10.2930   -1.6363 C   0  0  0  0  0  0  0  0  0  0  0  0
   53.0877   11.1065   -2.2284 C   0  0  0  0  0  0  0  0  0  0  0  0
   54.1338   10.1290   -2.8028 C   0  0  0  0  0  0  0  0  0  0  0  0
   53.7897   11.9233   -1.1228 C   0  0  0  0  0  0  0  0  0  0  0  0
   52.5993   12.0479   -3.3640 C   0  0  0  0  0  0  0  0  0  0  0  0
   51.0986   12.4495   -3.3155 C   0  0  0  0  0  0  0  0  0  0  0  0
   50.9466   13.8692   -3.9019 C   0  0  0  0  0  0  0  0  0  0  0  0
   50.2498   11.5103   -4.2009 C   0  0  0  0  0  0  0  0  0  0  0  0
   50.5603   12.4601   -1.8721 C   0  0  0  0  0  0  0  0  0  0  0  0
   45.0115   16.1917    3.1954 C   0  0  0  0  0  0  0  0  0  0  0  0
   45.0597   17.3773    2.8931 O   0  0  0  0  0  0  0  0  0  0  0  0
   44.7612   15.8620    4.4809 O   0  0  0  0  0  0  0  0  0  0  0  0
   44.7200   14.9608    4.7339 H   0  0  0  0  0  0  0  0  0  0  0  0
   43.8251   15.4774    0.4752 O   0  0  0  0  0  0  0  0  0  0  0  0
   43.9099   15.3389   -0.9429 C   0  0  0  0  0  0  0  0  0  0  0  0
   43.3595   16.6204   -1.5953 C   0  0  0  0  0  0  0  0  0  0  0  0
   43.8396   16.9580   -3.0356 C   0  0  0  0  0  0  0  0  0  0  0  0
   44.1681   15.7054   -3.8729 C   0  0  0  0  0  0  0  0  0  0  0  0
   42.6891   17.7019   -3.7721 C   0  0  0  0  0  0  0  0  0  0  0  0
   45.0613   17.9470   -3.0568 C   0  0  0  0  0  0  0  0  0  0  0  0
   46.2500   17.8840   -4.0996 C   0  0  0  0  0  0  0  0  0  0  0  0
   46.8687   16.4816   -4.0374 C   0  0  0  0  0  0  0  0  0  0  0  0
   45.7973   18.1976   -5.5331 C   0  0  0  0  0  0  0  0  0  0  0  0
   47.2729   18.9888   -3.6322 C   0  0  0  0  0  0  0  0  0  0  0  0
   49.5416   19.9898   -3.0121 C   0  0  0  0  0  0  0  0  0  0  0  0
   48.8232   18.9055   -3.8380 C   0  0  0  0  0  0  0  0  0  0  0  0
   49.4579   17.5415   -3.5396 C   0  0  0  0  0  0  0  0  0  0  0  0
   49.0953   19.2064   -5.3319 C   0  0  0  0  0  0  0  0  0  0  0  0
 40 41  1  0
 41 42  1  0
 41 43  1  0
 41 39  1  0
 39 36  1  0
 36 37  1  0
 36 38  1  0
 36 35  1  0
 35 32  1  0
 32 33  1  0
 32 34  1  0
 32 31  1  0
 31 30  1  0
 30 29  1  0
 29  1  1  0
  1  2  2  0
  2 25  1  0
 25 26  2  0
 25 27  1  0
  2  3  1  0
  3  4  1  0
  4  7  1  0
  7  8  2  0
  8  9  1  0
  9 10  2  0
 10 11  1  0
 11 13  1  0
 13 15  1  0
 15 16  1  0
 16 17  1  0
 17 18  1  0
 17 19  1  0
 17 20  1  0
 20 21  1  0
 21 22  1  0
 21 23  1  0
 21 24  1  0
 11 12  2  0
  4  5  2  0
  5  6  1  0
  5  1  1  0
 12  7  1  0
 24 15  1  0
 27 28  1  0
 13 14  1  0
M  END
> <minimizedAffinity>
-6.97559

> <CNNscore>
0.1965351254

> <CNNaffinity>
6.6884236336

> <CNN_VS>
1.3145102262

> <CNNaffinity_variance>
0.0736231282

$$$$



 43 45  0  0  0  0  0  0  0  0999 V2000
   44.6817   14.3715    1.0431 C   0  0  0  0  0  0  0  0  0  0  0  0
   45.2588   14.7894    2.2249 C   0  0  0  0  0  0  0  0  0  0  0  0
   46.5353   13.7352    2.6822 S   0  0  0  0  0  0  0  0  0  0  0  0
   46.3615   12.7483    1.2867 C   0  0  0  0  0  0  0  0  0  0  0  0
   45.3170   13.2099    0.5078 C   0  0  0  0  0  0  0  0  0  0  0  0
   44.7585   12.4365   -1.1344 Br  0  0  0  0  0  0  0  0  0  0  0  0
   47.3038   11.6384    1.0736 C   0  0  0  0  0  0  0  0  0  0  0  0
   48.1587   11.6373   -0.0329 C   0  0  0  0  0  0  0  0  0  0  0  0
   48.9897   10.5477   -0.2803 C   0  0  0  0  0  0  0  0  0  0  0  0
   49.0114    9.4671    0.6021 C   0  0  0  0  0  0  0  0  0  0  0  0
   48.2467    9.4736    1.7729 C   0  0  0  0  0  0  0  0  0  0  0  0
   47.3641   10.5513    1.9642 C   0  0  0  0  0  0  0  0  0  0  0  0
   48.2105    8.4184    2.6979 N   0  0  0  0  0  0  0  0  0  0  0  0
   47.3498    8.1353    3.0829 H   0  0  0  0  0  0  0  0  0  0  0  0
   49.4498    7.7324    3.0963 C   0  0  0  0  0  0  0  0  0  0  0  0
   49.1227    6.6572    4.1473 C   0  0  0  0  0  0  0  0  0  0  0  0
   50.1648    5.5275    4.2303 C   0  0  0  0  0  0  0  0  0  0  0  0
   49.6916    4.4916    5.2709 C   0  0  0  0  0  0  0  0  0  0  0  0
   51.5186    6.0802    4.7244 C   0  0  0  0  0  0  0  0  0  0  0  0
   50.3417    4.8203    2.8582 C   0  0  0  0  0  0  0  0  0  0  0  0
   49.9595    5.6593    1.6069 C   0  0  0  0  0  0  0  0  0  0  0  0
   50.8622    5.2326    0.4298 C   0  0  0  0  0  0  0  0  0  0  0  0
   48.5037    5.3722    1.1767 C   0  0  0  0  0  0  0  0  0  0  0  0
   50.1608    7.1669    1.8514 C   0  0  0  0  0  0  0  0  0  0  0  0
   44.9598   15.9033    3.0976 C   0  0  0  0  0  0  0  0  0  0  0  0
   44.6420   15.8789    4.2799 O   0  0  0  0  0  0  0  0  0  0  0  0
   45.0149   17.0966    2.4676 O   0  0  0  0  0  0  0  0  0  0  0  0
   45.2558   17.1381    1.5631 H   0  0  0  0  0  0  0  0  0  0  0  0
   43.7396   15.1110    0.4142 O   0  0  0  0  0  0  0  0  0  0  0  0
   43.9060   15.1651   -1.0023 C   0  0  0  0  0  0  0  0  0  0  0  0
   43.7043   16.6197   -1.4653 C   0  0  0  0  0  0  0  0  0  0  0  0
   44.1328   16.9789   -2.9166 C   0  0  0  0  0  0  0  0  0  0  0  0
   44.5398   15.7468   -3.7497 C   0  0  0  0  0  0  0  0  0  0  0  0
   42.9173   17.6280   -3.6383 C   0  0  0  0  0  0  0  0  0  0  0  0
   45.2765   18.0564   -2.9675 C   0  0  0  0  0  0  0  0  0  0  0  0
   46.4218   18.0997   -4.0587 C   0  0  0  0  0  0  0  0  0  0  0  0
   47.0384   16.6989   -4.1627 C   0  0  0  0  0  0  0  0  0  0  0  0
   45.9124   18.5552   -5.4339 C   0  0  0  0  0  0  0  0  0  0  0  0
   47.4660   19.1532   -3.5246 C   0  0  0  0  0  0  0  0  0  0  0  0
   49.7385   20.2232   -3.0512 C   0  0  0  0  0  0  0  0  0  0  0  0
   49.0073   19.0887   -3.7943 C   0  0  0  0  0  0  0  0  0  0  0  0
   49.6818   17.7519   -3.4619 C   0  0  0  0  0  0  0  0  0  0  0  0
   49.2088   19.3246   -5.3109 C   0  0  0  0  0  0  0  0  0  0  0  0
 40 41  1  0
 41 42  1  0
 41 43  1  0
 41 39  1  0
 39 36  1  0
 36 37  1  0
 36 38  1  0
 36 35  1  0
 35 32  1  0
 32 33  1  0
 32 34  1  0
 32 31  1  0
 31 30  1  0
 30 29  1  0
 29  1  1  0
  1  2  2  0
  2 25  1  0
 25 26  2  0
 25 27  1  0
  2  3  1  0
  3  4  1  0
  4  7  1  0
  7  8  2  0
  8  9  1  0
  9 10  2  0
 10 11  1  0
 11 13  1  0
 13 15  1  0
 15 16  1  0
 16 17  1  0
 17 18  1  0
 17 19  1  0
 17 20  1  0
 20 21  1  0
 21 22  1  0
 21 23  1  0
 21 24  1  0
 11 12  2  0
  4  5  2  0
  5  6  1  0
  5  1  1  0
 12  7  1  0
 24 15  1  0
 27 28  1  0
 13 14  1  0
M  END
> <minimizedAffinity>
-7.51651

> <CNNscore>
0.1899960339

> <CNNaffinity>
6.4314703941

> <CNN_VS>
1.2219538689

> <CNNaffinity_variance>
0.2125742882

$$$$



 43 45  0  0  0  0  0  0  0  0999 V2000
   44.7738   14.1336    1.3079 C   0  0  0  0  0  0  0  0  0  0  0  0
   45.4499   14.6219    2.4074 C   0  0  0  0  0  0  0  0  0  0  0  0
   46.7082   13.5487    2.8711 S   0  0  0  0  0  0  0  0  0  0  0  0
   46.3943   12.4560    1.5830 C   0  0  0  0  0  0  0  0  0  0  0  0
   45.3189   12.9005    0.8368 C   0  0  0  0  0  0  0  0  0  0  0  0
   44.6136   12.0182   -0.6899 Br  0  0  0  0  0  0  0  0  0  0  0  0
   47.2702   11.2867    1.4074 C   0  0  0  0  0  0  0  0  0  0  0  0
   48.1959   11.2458    0.3603 C   0  0  0  0  0  0  0  0  0  0  0  0
   48.9648   10.1053    0.1435 C   0  0  0  0  0  0  0  0  0  0  0  0
   48.8521    9.0098    1.0003 C   0  0  0  0  0  0  0  0  0  0  0  0
   48.0121    9.0485    2.1176 C   0  0  0  0  0  0  0  0  0  0  0  0
   47.1949   10.1819    2.2747 C   0  0  0  0  0  0  0  0  0  0  0  0
   47.8407    7.9817    3.0137 N   0  0  0  0  0  0  0  0  0  0  0  0
   47.3551    8.1258    3.8579 H   0  0  0  0  0  0  0  0  0  0  0  0
   48.3815    6.6496    2.7002 C   0  0  0  0  0  0  0  0  0  0  0  0
   49.1531    6.7120    1.3705 C   0  0  0  0  0  0  0  0  0  0  0  0
   50.2069    5.6021    1.2072 C   0  0  0  0  0  0  0  0  0  0  0  0
   50.9455    5.8123   -0.1307 C   0  0  0  0  0  0  0  0  0  0  0  0
   49.5248    4.2193    1.1361 C   0  0  0  0  0  0  0  0  0  0  0  0
   51.2422    5.6315    2.3655 C   0  0  0  0  0  0  0  0  0  0  0  0
   50.7612    6.2864    3.6905 C   0  0  0  0  0  0  0  0  0  0  0  0
   51.4642    5.5861    4.8728 C   0  0  0  0  0  0  0  0  0  0  0  0
   51.1719    7.7746    3.7482 C   0  0  0  0  0  0  0  0  0  0  0  0
   49.2389    6.1409    3.8755 C   0  0  0  0  0  0  0  0  0  0  0  0
   45.2615   15.8196    3.1958 C   0  0  0  0  0  0  0  0  0  0  0  0
   45.1458   15.9198    4.4107 O   0  0  0  0  0  0  0  0  0  0  0  0
   45.1693   16.9373    2.4434 O   0  0  0  0  0  0  0  0  0  0  0  0
   45.2548   16.8834    1.5119 H   0  0  0  0  0  0  0  0  0  0  0  0
   43.8230   14.8623    0.6795 O   0  0  0  0  0  0  0  0  0  0  0  0
   44.2021   15.2916   -0.6279 C   0  0  0  0  0  0  0  0  0  0  0  0
   43.1008   16.2153   -1.1801 C   0  0  0  0  0  0  0  0  0  0  0  0
   42.6068   15.9579   -2.6321 C   0  0  0  0  0  0  0  0  0  0  0  0
   43.0115   14.5712   -3.1719 C   0  0  0  0  0  0  0  0  0  0  0  0
   41.0520   16.0051   -2.6347 C   0  0  0  0  0  0  0  0  0  0  0  0
   43.0631   17.0746   -3.6402 C   0  0  0  0  0  0  0  0  0  0  0  0
   44.5690   17.4765   -3.9141 C   0  0  0  0  0  0  0  0  0  0  0  0
   44.9392   18.6241   -2.9657 C   0  0  0  0  0  0  0  0  0  0  0  0
   45.5393   16.3016   -3.7243 C   0  0  0  0  0  0  0  0  0  0  0  0
   44.6096   17.9361   -5.4215 C   0  0  0  0  0  0  0  0  0  0  0  0
   43.0762   18.5973   -7.3568 C   0  0  0  0  0  0  0  0  0  0  0  0
   43.7066   19.0618   -6.0297 C   0  0  0  0  0  0  0  0  0  0  0  0
   42.6034   19.5956   -5.1075 C   0  0  0  0  0  0  0  0  0  0  0  0
   44.6349   20.2577   -6.3527 C   0  0  0  0  0  0  0  0  0  0  0  0
 40 41  1  0
 41 42  1  0
 41 43  1  0
 41 39  1  0
 39 36  1  0
 36 37  1  0
 36 38  1  0
 36 35  1  0
 35 32  1  0
 32 33  1  0
 32 34  1  0
 32 31  1  0
 31 30  1  0
 30 29  1  0
 29  1  1  0
  1  2  2  0
  2 25  1  0
 25 26  2  0
 25 27  1  0
  2  3  1  0
  3  4  1  0
  4  7  1  0
  7  8  2  0
  8  9  1  0
  9 10  2  0
 10 11  1  0
 11 13  1  0
 13 15  1  0
 15 16  1  0
 16 17  1  0
 17 18  1  0
 17 19  1  0
 17 20  1  0
 20 21  1  0
 21 22  1  0
 21 23  1  0
 21 24  1  0
 11 12  2  0
  4  5  2  0
  5  6  1  0
  5  1  1  0
 12  7  1  0
 24 15  1  0
 27 28  1  0
 13 14  1  0
M  END
> <minimizedAffinity>
-6.85102

> <CNNscore>
0.1810202748

> <CNNaffinity>
6.3839268684

> <CNN_VS>
1.1556202173

> <CNNaffinity_variance>
0.3240761757

$$$$



 43 45  0  0  0  0  0  0  0  0999 V2000
   44.6159   14.6788    1.4544 C   0  0  0  0  0  0  0  0  0  0  0  0
   45.2447   15.0211    2.6340 C   0  0  0  0  0  0  0  0  0  0  0  0
   46.5354   13.9387    2.9693 S   0  0  0  0  0  0  0  0  0  0  0  0
   46.2980   13.0413    1.5235 C   0  0  0  0  0  0  0  0  0  0  0  0
   45.2230   13.5521    0.8206 C   0  0  0  0  0  0  0  0  0  0  0  0
   44.5916   12.8838   -0.8411 Br  0  0  0  0  0  0  0  0  0  0  0  0
   47.2260   11.9457    1.2012 C   0  0  0  0  0  0  0  0  0  0  0  0
   48.0573   12.0281    0.0800 C   0  0  0  0  0  0  0  0  0  0  0  0
   48.8735   10.9564   -0.2725 C   0  0  0  0  0  0  0  0  0  0  0  0
   48.9042    9.8078    0.5191 C   0  0  0  0  0  0  0  0  0  0  0  0
   48.1644    9.7248    1.7028 C   0  0  0  0  0  0  0  0  0  0  0  0
   47.2955   10.7898    1.9996 C   0  0  0  0  0  0  0  0  0  0  0  0
   48.1384    8.5986    2.5402 N   0  0  0  0  0  0  0  0  0  0  0  0
   47.2828    8.2883    2.9155 H   0  0  0  0  0  0  0  0  0  0  0  0
   49.3808    7.8784    2.8611 C   0  0  0  0  0  0  0  0  0  0  0  0
   49.1414    6.9636    4.0749 C   0  0  0  0  0  0  0  0  0  0  0  0
   50.1213    5.7804    4.1682 C   0  0  0  0  0  0  0  0  0  0  0  0
   49.7382    4.9137    5.3854 C   0  0  0  0  0  0  0  0  0  0  0  0
   51.5582    6.2900    4.4090 C   0  0  0  0  0  0  0  0  0  0  0  0
   50.0703    4.9025    2.8871 C   0  0  0  0  0  0  0  0  0  0  0  0
   49.5678    5.6102    1.5978 C   0  0  0  0  0  0  0  0  0  0  0  0
   50.2767    4.9815    0.3793 C   0  0  0  0  0  0  0  0  0  0  0  0
   48.0534    5.3785    1.3987 C   0  0  0  0  0  0  0  0  0  0  0  0
   49.8832    7.1179    1.6184 C   0  0  0  0  0  0  0  0  0  0  0  0
   44.9878   16.0786    3.5867 C   0  0  0  0  0  0  0  0  0  0  0  0
   44.7526   15.9822    4.7846 O   0  0  0  0  0  0  0  0  0  0  0  0
   44.9792   17.3058    3.0231 O   0  0  0  0  0  0  0  0  0  0  0  0
   45.1565   17.4023    2.1081 H   0  0  0  0  0  0  0  0  0  0  0  0
   43.6506   15.4574    0.9140 O   0  0  0  0  0  0  0  0  0  0  0  0
   44.1279   16.3365   -0.1042 C   0  0  0  0  0  0  0  0  0  0  0  0
   43.2511   16.1583   -1.3574 C   0  0  0  0  0  0  0  0  0  0  0  0
   43.7191   16.8531   -2.6678 C   0  0  0  0  0  0  0  0  0  0  0  0
   44.5121   18.1511   -2.4143 C   0  0  0  0  0  0  0  0  0  0  0  0
   44.6737   15.8830   -3.4210 C   0  0  0  0  0  0  0  0  0  0  0  0
   42.5373   17.1382   -3.6644 C   0  0  0  0  0  0  0  0  0  0  0  0
   41.2659   16.2121   -3.8385 C   0  0  0  0  0  0  0  0  0  0  0  0
   40.4907   16.2079   -2.5147 C   0  0  0  0  0  0  0  0  0  0  0  0
   40.3515   16.6708   -4.9837 C   0  0  0  0  0  0  0  0  0  0  0  0
   41.8358   14.7823   -4.1795 C   0  0  0  0  0  0  0  0  0  0  0  0
   39.7152   13.6006   -3.3794 C   0  0  0  0  0  0  0  0  0  0  0  0
   40.9699   13.4802   -4.2656 C   0  0  0  0  0  0  0  0  0  0  0  0
   40.5500   13.0571   -5.6788 C   0  0  0  0  0  0  0  0  0  0  0  0
   41.8313   12.3286   -3.6930 C   0  0  0  0  0  0  0  0  0  0  0  0
 40 41  1  0
 41 42  1  0
 41 43  1  0
 41 39  1  0
 39 36  1  0
 36 37  1  0
 36 38  1  0
 36 35  1  0
 35 32  1  0
 32 33  1  0
 32 34  1  0
 32 31  1  0
 31 30  1  0
 30 29  1  0
 29  1  1  0
  1  2  2  0
  2 25  1  0
 25 26  2  0
 25 27  1  0
  2  3  1  0
  3  4  1  0
  4  7  1  0
  7  8  2  0
  8  9  1  0
  9 10  2  0
 10 11  1  0
 11 13  1  0
 13 15  1  0
 15 16  1  0
 16 17  1  0
 17 18  1  0
 17 19  1  0
 17 20  1  0
 20 21  1  0
 21 22  1  0
 21 23  1  0
 21 24  1  0
 11 12  2  0
  4  5  2  0
  5  6  1  0
  5  1  1  0
 12  7  1  0
 24 15  1  0
 27 28  1  0
 13 14  1  0
M  END
> <minimizedAffinity>
-7.25223

> <CNNscore>
0.1742015928

> <CNNaffinity>
6.4254131317

> <CNN_VS>
1.1193171740

> <CNNaffinity_variance>
0.2553350925

$$$$
