


 31 33  0  0  0  0  0  0  0  0999 V2000
   12.3831   52.9587   89.6595 C   0  0  0  0  0  0  0  0  0  0  0  0
   12.7252   51.8695   90.1102 O   0  0  0  0  0  0  0  0  0  0  0  0
   11.5008   53.0937   88.6047 N   0  0  0  0  0  0  0  0  0  0  0  0
   11.1855   53.9914   88.3520 H   0  0  0  0  0  0  0  0  0  0  0  0
   12.9794   54.0300   92.7388 C   0  0  0  0  0  0  0  0  0  0  0  0
   13.6421   54.1051   93.7717 O   0  0  0  0  0  0  0  0  0  0  0  0
   13.5733   54.2058   91.5040 N   0  0  0  0  0  0  0  0  0  0  0  0
   14.9863   54.5369   91.3938 C   0  0  0  0  0  0  0  0  0  0  0  0
   15.0327   55.4448   90.1675 C   0  0  0  0  0  0  0  0  0  0  0  0
   14.6155   56.7768   90.4778 O   0  0  0  0  0  0  0  0  0  0  0  0
   13.9990   54.8210   89.2408 C   0  0  0  0  0  0  0  0  0  0  0  0
   12.9095   54.3032   90.1972 C   0  0  0  0  0  0  0  0  0  0  0  0
   13.7201   56.7566   90.8504 H   0  0  0  0  0  0  0  0  0  0  0  0
   11.4741   53.7671   92.7410 C   0  0  0  0  0  0  0  0  0  0  0  0
   11.1836   52.4655   94.9200 C   0  0  0  0  0  0  0  0  0  0  0  0
   10.7592   53.7057   94.1157 C   0  0  0  0  0  0  0  0  0  0  0  0
   11.0069   54.9803   94.9397 C   0  0  0  0  0  0  0  0  0  0  0  0
    9.2414   53.6008   93.8483 C   0  0  0  0  0  0  0  0  0  0  0  0
   11.0309   51.9437   87.8642 C   0  0  0  0  0  0  0  0  0  0  0  0
   11.8718   51.7328   86.6314 C   0  0  0  0  0  0  0  0  0  0  0  0
   12.5588   52.8071   86.0537 C   0  0  0  0  0  0  0  0  0  0  0  0
   13.3177   52.6256   84.8930 C   0  0  0  0  0  0  0  0  0  0  0  0
   13.4061   51.3690   84.2779 C   0  0  0  0  0  0  0  0  0  0  0  0
   12.7098   50.2981   84.8574 C   0  0  0  0  0  0  0  0  0  0  0  0
   11.9482   50.4771   86.0184 C   0  0  0  0  0  0  0  0  0  0  0  0
   14.1950   51.1717   83.0692 C   0  0  0  0  0  0  0  0  0  0  0  0
   14.1156   50.3596   81.9588 C   0  0  0  0  0  0  0  0  0  0  0  0
   15.1610   50.6082   81.1067 N   0  0  0  0  0  0  0  0  0  0  0  0
   15.8440   51.5557   81.7162 C   0  0  0  0  0  0  0  0  0  0  0  0
   16.9641   52.0916   81.2041 F   0  0  0  0  0  0  0  0  0  0  0  0
   15.3139   51.9480   82.9146 O   0  0  0  0  0  0  0  0  0  0  0  0
 15 16  1  0
 16 17  1  0
 16 18  1  0
 16 14  1  0
 14  5  1  0
  5  6  2  0
  5  7  1  0
  7  8  1  0
  8  9  1  0
  9 10  1  0
  9 11  1  0
 11 12  1  0
 12  1  1  0
  1  2  2  0
  1  3  1  0
  3 19  1  0
 19 20  1  0
 20 21  2  0
 21 22  1  0
 22 23  2  0
 23 26  1  0
 26 27  2  0
 27 28  1  0
 28 29  2  0
 29 30  1  0
 29 31  1  0
 23 24  1  0
 24 25  2  0
 12  7  1  0
 25 20  1  0
 31 26  1  0
 10 13  1  0
  3  4  1  0
M  END
> <minimizedAffinity>
-8.16692

> <CNNscore>
0.9673936963

> <CNNaffinity>
6.5540175438

> <CNN_VS>
6.3403153419

> <CNNaffinity_variance>
0.2517041862

$$$$



 31 33  0  0  0  0  0  0  0  0999 V2000
   14.0022   54.3051   89.7590 C   0  0  0  0  0  0  0  0  0  0  0  0
   15.2164   54.4302   89.8868 O   0  0  0  0  0  0  0  0  0  0  0  0
   13.3653   54.3516   88.5337 N   0  0  0  0  0  0  0  0  0  0  0  0
   12.4042   54.1448   88.4819 H   0  0  0  0  0  0  0  0  0  0  0  0
   12.4415   51.6176   90.9110 C   0  0  0  0  0  0  0  0  0  0  0  0
   12.3822   50.5569   91.5300 O   0  0  0  0  0  0  0  0  0  0  0  0
   13.0252   52.7344   91.4773 N   0  0  0  0  0  0  0  0  0  0  0  0
   13.5372   52.7016   92.8393 C   0  0  0  0  0  0  0  0  0  0  0  0
   13.2578   54.1141   93.3463 C   0  0  0  0  0  0  0  0  0  0  0  0
   11.8903   54.2789   93.7302 O   0  0  0  0  0  0  0  0  0  0  0  0
   13.5198   54.9759   92.1195 C   0  0  0  0  0  0  0  0  0  0  0  0
   13.0399   54.1036   90.9453 C   0  0  0  0  0  0  0  0  0  0  0  0
   11.3157   54.0697   92.9772 H   0  0  0  0  0  0  0  0  0  0  0  0
   11.8639   51.7872   89.5065 C   0  0  0  0  0  0  0  0  0  0  0  0
   10.0279   53.5133   89.0865 C   0  0  0  0  0  0  0  0  0  0  0  0
   10.3383   52.0367   89.3842 C   0  0  0  0  0  0  0  0  0  0  0  0
    9.7019   51.1364   88.3121 C   0  0  0  0  0  0  0  0  0  0  0  0
    9.6968   51.6821   90.7438 C   0  0  0  0  0  0  0  0  0  0  0  0
   14.0810   54.6978   87.3256 C   0  0  0  0  0  0  0  0  0  0  0  0
   13.8243   53.6732   86.2506 C   0  0  0  0  0  0  0  0  0  0  0  0
   12.7235   52.8134   86.3438 C   0  0  0  0  0  0  0  0  0  0  0  0
   12.4948   51.8406   85.3653 C   0  0  0  0  0  0  0  0  0  0  0  0
   13.3613   51.6989   84.2724 C   0  0  0  0  0  0  0  0  0  0  0  0
   14.4664   52.5586   84.1883 C   0  0  0  0  0  0  0  0  0  0  0  0
   14.6986   53.5324   85.1670 C   0  0  0  0  0  0  0  0  0  0  0  0
   13.1295   50.6886   83.2488 C   0  0  0  0  0  0  0  0  0  0  0  0
   13.6320   50.4196   81.9942 C   0  0  0  0  0  0  0  0  0  0  0  0
   13.0335   49.3040   81.4667 N   0  0  0  0  0  0  0  0  0  0  0  0
   12.1890   48.9277   82.4052 C   0  0  0  0  0  0  0  0  0  0  0  0
   11.3918   47.8539   82.2808 F   0  0  0  0  0  0  0  0  0  0  0  0
   12.1945   49.7234   83.5178 O   0  0  0  0  0  0  0  0  0  0  0  0
 15 16  1  0
 16 17  1  0
 16 18  1  0
 16 14  1  0
 14  5  1  0
  5  6  2  0
  5  7  1  0
  7  8  1  0
  8  9  1  0
  9 10  1  0
  9 11  1  0
 11 12  1  0
 12  1  1  0
  1  2  2  0
  1  3  1  0
  3 19  1  0
 19 20  1  0
 20 21  2  0
 21 22  1  0
 22 23  2  0
 23 26  1  0
 26 27  2  0
 27 28  1  0
 28 29  2  0
 29 30  1  0
 29 31  1  0
 23 24  1  0
 24 25  2  0
 12  7  1  0
 25 20  1  0
 31 26  1  0
 10 13  1  0
  3  4  1  0
M  END
> <minimizedAffinity>
-6.34003

> <CNNscore>
0.5946697593

> <CNNaffinity>
6.0822830200

> <CNN_VS>
3.6169497967

> <CNNaffinity_variance>
0.0327416845

$$$$



 31 33  0  0  0  0  0  0  0  0999 V2000
   12.2986   53.3067   89.0616 C   0  0  0  0  0  0  0  0  0  0  0  0
   13.2552   53.6297   89.7594 O   0  0  0  0  0  0  0  0  0  0  0  0
   12.3149   53.3784   87.6818 N   0  0  0  0  0  0  0  0  0  0  0  0
   11.5573   53.0117   87.1711 H   0  0  0  0  0  0  0  0  0  0  0  0
   10.9124   53.6336   92.0544 C   0  0  0  0  0  0  0  0  0  0  0  0
   10.3044   54.2504   92.9270 O   0  0  0  0  0  0  0  0  0  0  0  0
   10.4491   53.6096   90.7532 N   0  0  0  0  0  0  0  0  0  0  0  0
    9.2026   54.2677   90.3906 C   0  0  0  0  0  0  0  0  0  0  0  0
    8.6382   53.3599   89.3008 C   0  0  0  0  0  0  0  0  0  0  0  0
    8.0115   52.1982   89.8504 O   0  0  0  0  0  0  0  0  0  0  0  0
    9.8827   52.9214   88.5424 C   0  0  0  0  0  0  0  0  0  0  0  0
   10.9601   52.8044   89.6358 C   0  0  0  0  0  0  0  0  0  0  0  0
    8.6503   51.7141   90.3968 H   0  0  0  0  0  0  0  0  0  0  0  0
   12.1874   52.8410   92.3398 C   0  0  0  0  0  0  0  0  0  0  0  0
   13.9693   52.4055   94.1179 C   0  0  0  0  0  0  0  0  0  0  0  0
   13.2256   53.4755   93.3011 C   0  0  0  0  0  0  0  0  0  0  0  0
   14.2328   54.3571   92.5440 C   0  0  0  0  0  0  0  0  0  0  0  0
   12.4554   54.3773   94.2908 C   0  0  0  0  0  0  0  0  0  0  0  0
   13.4215   53.9809   86.9720 C   0  0  0  0  0  0  0  0  0  0  0  0
   13.7003   53.2282   85.6965 C   0  0  0  0  0  0  0  0  0  0  0  0
   12.7999   52.2594   85.2378 C   0  0  0  0  0  0  0  0  0  0  0  0
   13.0656   51.5359   84.0707 C   0  0  0  0  0  0  0  0  0  0  0  0
   14.2381   51.7583   83.3352 C   0  0  0  0  0  0  0  0  0  0  0  0
   15.1397   52.7253   83.8037 C   0  0  0  0  0  0  0  0  0  0  0  0
   14.8771   53.4499   84.9724 C   0  0  0  0  0  0  0  0  0  0  0  0
   14.5217   51.0094   82.1182 C   0  0  0  0  0  0  0  0  0  0  0  0
   15.5177   51.0116   81.1660 C   0  0  0  0  0  0  0  0  0  0  0  0
   15.2691   50.0609   80.2094 N   0  0  0  0  0  0  0  0  0  0  0  0
   14.1375   49.5109   80.6004 C   0  0  0  0  0  0  0  0  0  0  0  0
   13.5382   48.5170   79.9244 F   0  0  0  0  0  0  0  0  0  0  0  0
   13.6262   50.0378   81.7544 O   0  0  0  0  0  0  0  0  0  0  0  0
 15 16  1  0
 16 17  1  0
 16 18  1  0
 16 14  1  0
 14  5  1  0
  5  6  2  0
  5  7  1  0
  7  8  1  0
  8  9  1  0
  9 10  1  0
  9 11  1  0
 11 12  1  0
 12  1  1  0
  1  2  2  0
  1  3  1  0
  3 19  1  0
 19 20  1  0
 20 21  2  0
 21 22  1  0
 22 23  2  0
 23 26  1  0
 26 27  2  0
 27 28  1  0
 28 29  2  0
 29 30  1  0
 29 31  1  0
 23 24  1  0
 24 25  2  0
 12  7  1  0
 25 20  1  0
 31 26  1  0
 10 13  1  0
  3  4  1  0
M  END
> <minimizedAffinity>
-7.30993

> <CNNscore>
0.5836340785

> <CNNaffinity>
5.8336768150

> <CNN_VS>
3.4047327042

> <CNNaffinity_variance>
0.1375707239

$$$$



 31 33  0  0  0  0  0  0  0  0999 V2000
   11.4757   52.3128   88.1165 C   0  0  0  0  0  0  0  0  0  0  0  0
   12.1630   51.3063   88.2617 O   0  0  0  0  0  0  0  0  0  0  0  0
   11.9352   53.5852   88.3977 N   0  0  0  0  0  0  0  0  0  0  0  0
   11.3755   54.3616   88.1670 H   0  0  0  0  0  0  0  0  0  0  0  0
   10.0722   50.9677   85.4320 C   0  0  0  0  0  0  0  0  0  0  0  0
    9.6262   50.0306   84.7729 O   0  0  0  0  0  0  0  0  0  0  0  0
    9.7037   51.1415   86.7521 N   0  0  0  0  0  0  0  0  0  0  0  0
    8.7381   50.2533   87.3823 C   0  0  0  0  0  0  0  0  0  0  0  0
    7.9941   51.1787   88.3417 C   0  0  0  0  0  0  0  0  0  0  0  0
    7.0140   51.9686   87.6635 O   0  0  0  0  0  0  0  0  0  0  0  0
    9.0925   52.1039   88.8454 C   0  0  0  0  0  0  0  0  0  0  0  0
   10.0156   52.2803   87.6260 C   0  0  0  0  0  0  0  0  0  0  0  0
    7.4426   52.4827   86.9614 H   0  0  0  0  0  0  0  0  0  0  0  0
   11.0291   52.0062   84.8482 C   0  0  0  0  0  0  0  0  0  0  0  0
   12.6490   51.2570   83.0202 C   0  0  0  0  0  0  0  0  0  0  0  0
   12.4732   51.5460   84.5205 C   0  0  0  0  0  0  0  0  0  0  0  0
   13.5149   52.5772   84.9857 C   0  0  0  0  0  0  0  0  0  0  0  0
   12.7301   50.2314   85.2898 C   0  0  0  0  0  0  0  0  0  0  0  0
   13.2209   53.8004   89.0239 C   0  0  0  0  0  0  0  0  0  0  0  0
   13.0512   54.0521   90.5001 C   0  0  0  0  0  0  0  0  0  0  0  0
   14.0843   54.6410   91.2387 C   0  0  0  0  0  0  0  0  0  0  0  0
   13.9459   54.8512   92.6145 C   0  0  0  0  0  0  0  0  0  0  0  0
   12.7751   54.4749   93.2876 C   0  0  0  0  0  0  0  0  0  0  0  0
   11.7464   53.8790   92.5434 C   0  0  0  0  0  0  0  0  0  0  0  0
   11.8828   53.6660   91.1664 C   0  0  0  0  0  0  0  0  0  0  0  0
   12.6230   54.6912   94.7202 C   0  0  0  0  0  0  0  0  0  0  0  0
   12.1175   55.6929   95.5203 C   0  0  0  0  0  0  0  0  0  0  0  0
   12.2315   55.3532   96.8440 N   0  0  0  0  0  0  0  0  0  0  0  0
   12.7997   54.1649   96.8152 C   0  0  0  0  0  0  0  0  0  0  0  0
   13.0916   53.4691   97.9264 F   0  0  0  0  0  0  0  0  0  0  0  0
   13.0655   53.6998   95.5566 O   0  0  0  0  0  0  0  0  0  0  0  0
 15 16  1  0
 16 17  1  0
 16 18  1  0
 16 14  1  0
 14  5  1  0
  5  6  2  0
  5  7  1  0
  7  8  1  0
  8  9  1  0
  9 10  1  0
  9 11  1  0
 11 12  1  0
 12  1  1  0
  1  2  2  0
  1  3  1  0
  3 19  1  0
 19 20  1  0
 20 21  2  0
 21 22  1  0
 22 23  2  0
 23 26  1  0
 26 27  2  0
 27 28  1  0
 28 29  2  0
 29 30  1  0
 29 31  1  0
 23 24  1  0
 24 25  2  0
 12  7  1  0
 25 20  1  0
 31 26  1  0
 10 13  1  0
  3  4  1  0
M  END
> <minimizedAffinity>
-5.90478

> <CNNscore>
0.5103886127

> <CNNaffinity>
5.7074866295

> <CNN_VS>
2.9130361080

> <CNNaffinity_variance>
0.0121932579

$$$$



 31 33  0  0  0  0  0  0  0  0999 V2000
   13.1612   53.2936   85.8656 C   0  0  0  0  0  0  0  0  0  0  0  0
   14.1747   53.4172   85.1843 O   0  0  0  0  0  0  0  0  0  0  0  0
   13.0400   53.8201   87.1373 N   0  0  0  0  0  0  0  0  0  0  0  0
   12.1699   53.7767   87.5959 H   0  0  0  0  0  0  0  0  0  0  0  0
   12.7508   50.1750   84.8207 C   0  0  0  0  0  0  0  0  0  0  0  0
   12.6338   48.9624   84.9867 O   0  0  0  0  0  0  0  0  0  0  0  0
   12.0099   51.0658   85.5730 N   0  0  0  0  0  0  0  0  0  0  0  0
   11.0332   50.5941   86.5435 C   0  0  0  0  0  0  0  0  0  0  0  0
    9.9361   51.6530   86.4706 C   0  0  0  0  0  0  0  0  0  0  0  0
    9.0881   51.4607   85.3356 O   0  0  0  0  0  0  0  0  0  0  0  0
   10.7187   52.9433   86.2728 C   0  0  0  0  0  0  0  0  0  0  0  0
   11.9129   52.5211   85.3978 C   0  0  0  0  0  0  0  0  0  0  0  0
    9.6232   51.4716   84.5266 H   0  0  0  0  0  0  0  0  0  0  0  0
   13.6864   50.7785   83.7740 C   0  0  0  0  0  0  0  0  0  0  0  0
   14.4361   51.0699   81.3492 C   0  0  0  0  0  0  0  0  0  0  0  0
   13.3154   50.5802   82.2815 C   0  0  0  0  0  0  0  0  0  0  0  0
   12.9752   49.1124   81.9734 C   0  0  0  0  0  0  0  0  0  0  0  0
   12.0567   51.4291   81.9966 C   0  0  0  0  0  0  0  0  0  0  0  0
   14.1644   54.4335   87.8088 C   0  0  0  0  0  0  0  0  0  0  0  0
   13.9551   54.4229   89.3012 C   0  0  0  0  0  0  0  0  0  0  0  0
   14.9180   54.9775   90.1526 C   0  0  0  0  0  0  0  0  0  0  0  0
   14.7449   54.9455   91.5401 C   0  0  0  0  0  0  0  0  0  0  0  0
   13.6091   54.3555   92.1121 C   0  0  0  0  0  0  0  0  0  0  0  0
   12.6513   53.7953   91.2541 C   0  0  0  0  0  0  0  0  0  0  0  0
   12.8226   53.8245   89.8650 C   0  0  0  0  0  0  0  0  0  0  0  0
   13.4212   54.3189   93.5563 C   0  0  0  0  0  0  0  0  0  0  0  0
   13.5871   53.3798   94.5509 C   0  0  0  0  0  0  0  0  0  0  0  0
   13.2505   53.9083   95.7708 N   0  0  0  0  0  0  0  0  0  0  0  0
   12.8903   55.1438   95.4888 C   0  0  0  0  0  0  0  0  0  0  0  0
   12.4812   56.0157   96.4251 F   0  0  0  0  0  0  0  0  0  0  0  0
   12.9700   55.4630   94.1612 O   0  0  0  0  0  0  0  0  0  0  0  0
 15 16  1  0
 16 17  1  0
 16 18  1  0
 16 14  1  0
 14  5  1  0
  5  6  2  0
  5  7  1  0
  7  8  1  0
  8  9  1  0
  9 10  1  0
  9 11  1  0
 11 12  1  0
 12  1  1  0
  1  2  2  0
  1  3  1  0
  3 19  1  0
 19 20  1  0
 20 21  2  0
 21 22  1  0
 22 23  2  0
 23 26  1  0
 26 27  2  0
 27 28  1  0
 28 29  2  0
 29 30  1  0
 29 31  1  0
 23 24  1  0
 24 25  2  0
 12  7  1  0
 25 20  1  0
 31 26  1  0
 10 13  1  0
  3  4  1  0
M  END
> <minimizedAffinity>
-7.50478

> <CNNscore>
0.4279222488

> <CNNaffinity>
5.5774860382

> <CNN_VS>
2.3867304325

> <CNNaffinity_variance>
0.1915755272

$$$$



 31 33  0  0  0  0  0  0  0  0999 V2000
   13.4067   53.8658   89.0447 C   0  0  0  0  0  0  0  0  0  0  0  0
   14.5222   54.2003   89.4323 O   0  0  0  0  0  0  0  0  0  0  0  0
   13.0607   53.8056   87.7083 N   0  0  0  0  0  0  0  0  0  0  0  0
   12.1852   53.4344   87.4534 H   0  0  0  0  0  0  0  0  0  0  0  0
   12.0395   50.9515   89.8341 C   0  0  0  0  0  0  0  0  0  0  0  0
   12.0030   49.8745   90.4259 O   0  0  0  0  0  0  0  0  0  0  0  0
   12.3226   52.1212   90.5126 N   0  0  0  0  0  0  0  0  0  0  0  0
   12.5323   52.1185   91.9529 C   0  0  0  0  0  0  0  0  0  0  0  0
   11.9513   53.4614   92.3879 C   0  0  0  0  0  0  0  0  0  0  0  0
   10.5244   53.4206   92.4687 O   0  0  0  0  0  0  0  0  0  0  0  0
   12.3417   54.3890   91.2461 C   0  0  0  0  0  0  0  0  0  0  0  0
   12.2533   53.4946   89.9963 C   0  0  0  0  0  0  0  0  0  0  0  0
   10.1593   53.1562   91.6098 H   0  0  0  0  0  0  0  0  0  0  0  0
   11.7559   51.0817   88.3382 C   0  0  0  0  0  0  0  0  0  0  0  0
   10.0988   50.0164   86.7115 C   0  0  0  0  0  0  0  0  0  0  0  0
   10.2768   51.0010   87.8795 C   0  0  0  0  0  0  0  0  0  0  0  0
    9.3444   50.6175   89.0407 C   0  0  0  0  0  0  0  0  0  0  0  0
    9.8646   52.4046   87.3834 C   0  0  0  0  0  0  0  0  0  0  0  0
   13.9577   54.2763   86.6762 C   0  0  0  0  0  0  0  0  0  0  0  0
   13.9287   53.3465   85.4904 C   0  0  0  0  0  0  0  0  0  0  0  0
   12.8286   52.5072   85.2787 C   0  0  0  0  0  0  0  0  0  0  0  0
   12.8068   51.6207   84.1971 C   0  0  0  0  0  0  0  0  0  0  0  0
   13.8841   51.5469   83.3030 C   0  0  0  0  0  0  0  0  0  0  0  0
   14.9865   52.3854   83.5245 C   0  0  0  0  0  0  0  0  0  0  0  0
   15.0116   53.2726   84.6071 C   0  0  0  0  0  0  0  0  0  0  0  0
   13.8687   50.6267   82.1737 C   0  0  0  0  0  0  0  0  0  0  0  0
   14.7127   50.3367   81.1237 C   0  0  0  0  0  0  0  0  0  0  0  0
   14.1786   49.3477   80.3379 N   0  0  0  0  0  0  0  0  0  0  0  0
   13.0330   49.0655   80.9242 C   0  0  0  0  0  0  0  0  0  0  0  0
   12.1871   48.1311   80.4600 F   0  0  0  0  0  0  0  0  0  0  0  0
   12.7796   49.8043   82.0471 O   0  0  0  0  0  0  0  0  0  0  0  0
 15 16  1  0
 16 17  1  0
 16 18  1  0
 16 14  1  0
 14  5  1  0
  5  6  2  0
  5  7  1  0
  7  8  1  0
  8  9  1  0
  9 10  1  0
  9 11  1  0
 11 12  1  0
 12  1  1  0
  1  2  2  0
  1  3  1  0
  3 19  1  0
 19 20  1  0
 20 21  2  0
 21 22  1  0
 22 23  2  0
 23 26  1  0
 26 27  2  0
 27 28  1  0
 28 29  2  0
 29 30  1  0
 29 31  1  0
 23 24  1  0
 24 25  2  0
 12  7  1  0
 25 20  1  0
 31 26  1  0
 10 13  1  0
  3  4  1  0
M  END
> <minimizedAffinity>
-6.76161

> <CNNscore>
0.2920451760

> <CNNaffinity>
5.5218825340

> <CNN_VS>
1.6126391888

> <CNNaffinity_variance>
0.1085872650

$$$$



 31 33  0  0  0  0  0  0  0  0999 V2000
   10.0823   53.7960   89.4893 C   0  0  0  0  0  0  0  0  0  0  0  0
    8.9122   54.1221   89.3135 O   0  0  0  0  0  0  0  0  0  0  0  0
   10.8577   53.2136   88.5049 N   0  0  0  0  0  0  0  0  0  0  0  0
   11.8168   53.0662   88.6711 H   0  0  0  0  0  0  0  0  0  0  0  0
   10.2055   51.9166   92.2167 C   0  0  0  0  0  0  0  0  0  0  0  0
   10.5974   50.9575   92.8785 O   0  0  0  0  0  0  0  0  0  0  0  0
   11.1007   52.7146   91.5307 N   0  0  0  0  0  0  0  0  0  0  0  0
   12.5338   52.4749   91.6154 C   0  0  0  0  0  0  0  0  0  0  0  0
   13.1232   53.8810   91.5399 C   0  0  0  0  0  0  0  0  0  0  0  0
   13.0353   54.5609   92.7946 O   0  0  0  0  0  0  0  0  0  0  0  0
   12.2072   54.5830   90.5476 C   0  0  0  0  0  0  0  0  0  0  0  0
   10.8214   53.9747   90.8293 C   0  0  0  0  0  0  0  0  0  0  0  0
   12.1085   54.5972   93.0785 H   0  0  0  0  0  0  0  0  0  0  0  0
    8.7314   52.3083   92.1232 C   0  0  0  0  0  0  0  0  0  0  0  0
    7.6027   50.0481   92.5034 C   0  0  0  0  0  0  0  0  0  0  0  0
    7.7441   51.2539   91.5593 C   0  0  0  0  0  0  0  0  0  0  0  0
    6.3628   51.8673   91.2750 C   0  0  0  0  0  0  0  0  0  0  0  0
    8.3212   50.7429   90.2207 C   0  0  0  0  0  0  0  0  0  0  0  0
   10.2897   52.8161   87.2357 C   0  0  0  0  0  0  0  0  0  0  0  0
   11.3819   52.5375   86.2352 C   0  0  0  0  0  0  0  0  0  0  0  0
   12.5696   53.2780   86.2628 C   0  0  0  0  0  0  0  0  0  0  0  0
   13.5759   53.0455   85.3197 C   0  0  0  0  0  0  0  0  0  0  0  0
   13.4199   52.0716   84.3235 C   0  0  0  0  0  0  0  0  0  0  0  0
   12.2248   51.3379   84.2967 C   0  0  0  0  0  0  0  0  0  0  0  0
   11.2152   51.5695   85.2385 C   0  0  0  0  0  0  0  0  0  0  0  0
   14.4637   51.8230   83.3381 C   0  0  0  0  0  0  0  0  0  0  0  0
   15.7937   52.1565   83.2018 C   0  0  0  0  0  0  0  0  0  0  0  0
   16.3023   51.6358   82.0395 N   0  0  0  0  0  0  0  0  0  0  0  0
   15.2771   51.0059   81.5029 C   0  0  0  0  0  0  0  0  0  0  0  0
   15.3556   50.3487   80.3342 F   0  0  0  0  0  0  0  0  0  0  0  0
   14.1263   51.0772   82.2388 O   0  0  0  0  0  0  0  0  0  0  0  0
 15 16  1  0
 16 17  1  0
 16 18  1  0
 16 14  1  0
 14  5  1  0
  5  6  2  0
  5  7  1  0
  7  8  1  0
  8  9  1  0
  9 10  1  0
  9 11  1  0
 11 12  1  0
 12  1  1  0
  1  2  2  0
  1  3  1  0
  3 19  1  0
 19 20  1  0
 20 21  2  0
 21 22  1  0
 22 23  2  0
 23 26  1  0
 26 27  2  0
 27 28  1  0
 28 29  2  0
 29 30  1  0
 29 31  1  0
 23 24  1  0
 24 25  2  0
 12  7  1  0
 25 20  1  0
 31 26  1  0
 10 13  1  0
  3  4  1  0
M  END
> <minimizedAffinity>
-5.71121

> <CNNscore>
0.2766648531

> <CNNaffinity>
5.3392500877

> <CNN_VS>
1.4771828651

> <CNNaffinity_variance>
0.1598382145

$$$$



 31 33  0  0  0  0  0  0  0  0999 V2000
   12.7512   52.8849   90.5190 C   0  0  0  0  0  0  0  0  0  0  0  0
   13.6127   53.7428   90.6873 O   0  0  0  0  0  0  0  0  0  0  0  0
   12.0087   52.7810   89.3583 N   0  0  0  0  0  0  0  0  0  0  0  0
   11.4041   52.0131   89.2402 H   0  0  0  0  0  0  0  0  0  0  0  0
   10.5421   52.9297   92.9895 C   0  0  0  0  0  0  0  0  0  0  0  0
    9.4075   52.8496   93.4563 O   0  0  0  0  0  0  0  0  0  0  0  0
   11.0122   51.9759   92.1076 N   0  0  0  0  0  0  0  0  0  0  0  0
   10.1990   50.8235   91.7486 C   0  0  0  0  0  0  0  0  0  0  0  0
   11.2329   49.7148   91.5696 C   0  0  0  0  0  0  0  0  0  0  0  0
   11.6603   49.1806   92.8251 O   0  0  0  0  0  0  0  0  0  0  0  0
   12.4078   50.4424   90.9318 C   0  0  0  0  0  0  0  0  0  0  0  0
   12.3777   51.8364   91.5843 C   0  0  0  0  0  0  0  0  0  0  0  0
   12.0210   49.8942   93.3742 H   0  0  0  0  0  0  0  0  0  0  0  0
   11.5098   54.0529   93.3598 C   0  0  0  0  0  0  0  0  0  0  0  0
   12.1505   52.6282   95.3813 C   0  0  0  0  0  0  0  0  0  0  0  0
   12.0971   54.0489   94.7949 C   0  0  0  0  0  0  0  0  0  0  0  0
   13.4941   54.6905   94.8363 C   0  0  0  0  0  0  0  0  0  0  0  0
   11.1598   54.8944   95.6853 C   0  0  0  0  0  0  0  0  0  0  0  0
   12.1013   53.7766   88.3135 C   0  0  0  0  0  0  0  0  0  0  0  0
   12.5278   53.1390   87.0162 C   0  0  0  0  0  0  0  0  0  0  0  0
   11.9705   51.9201   86.6123 C   0  0  0  0  0  0  0  0  0  0  0  0
   12.3822   51.3075   85.4243 C   0  0  0  0  0  0  0  0  0  0  0  0
   13.3632   51.8940   84.6125 C   0  0  0  0  0  0  0  0  0  0  0  0
   13.9229   53.1118   85.0261 C   0  0  0  0  0  0  0  0  0  0  0  0
   13.5138   53.7265   86.2155 C   0  0  0  0  0  0  0  0  0  0  0  0
   13.7968   51.2627   83.3734 C   0  0  0  0  0  0  0  0  0  0  0  0
   13.3343   50.2441   82.5687 C   0  0  0  0  0  0  0  0  0  0  0  0
   14.1643   50.0695   81.4910 N   0  0  0  0  0  0  0  0  0  0  0  0
   15.1027   50.9773   81.6673 C   0  0  0  0  0  0  0  0  0  0  0  0
   16.1280   51.1411   80.8153 F   0  0  0  0  0  0  0  0  0  0  0  0
   14.9424   51.7397   82.7916 O   0  0  0  0  0  0  0  0  0  0  0  0
 15 16  1  0
 16 17  1  0
 16 18  1  0
 16 14  1  0
 14  5  1  0
  5  6  2  0
  5  7  1  0
  7  8  1  0
  8  9  1  0
  9 10  1  0
  9 11  1  0
 11 12  1  0
 12  1  1  0
  1  2  2  0
  1  3  1  0
  3 19  1  0
 19 20  1  0
 20 21  2  0
 21 22  1  0
 22 23  2  0
 23 26  1  0
 26 27  2  0
 27 28  1  0
 28 29  2  0
 29 30  1  0
 29 31  1  0
 23 24  1  0
 24 25  2  0
 12  7  1  0
 25 20  1  0
 31 26  1  0
 10 13  1  0
  3  4  1  0
M  END
> <minimizedAffinity>
-5.63248

> <CNNscore>
0.2618213892

> <CNNaffinity>
5.3781905174

> <CNN_VS>
1.4081252813

> <CNNaffinity_variance>
0.1842949241

$$$$



 31 33  0  0  0  0  0  0  0  0999 V2000
   12.2707   50.6652   89.9350 C   0  0  0  0  0  0  0  0  0  0  0  0
   12.8987   51.6815   90.2164 O   0  0  0  0  0  0  0  0  0  0  0  0
   11.4844   50.5549   88.8041 N   0  0  0  0  0  0  0  0  0  0  0  0
   11.0854   49.6838   88.5777 H   0  0  0  0  0  0  0  0  0  0  0  0
   14.4768   48.2208   90.3140 C   0  0  0  0  0  0  0  0  0  0  0  0
   15.5128   47.7288   90.7571 O   0  0  0  0  0  0  0  0  0  0  0  0
   13.6029   48.8947   91.1452 N   0  0  0  0  0  0  0  0  0  0  0  0
   13.8571   48.9948   92.5748 C   0  0  0  0  0  0  0  0  0  0  0  0
   12.4549   48.9583   93.1771 C   0  0  0  0  0  0  0  0  0  0  0  0
   11.9369   47.6269   93.2346 O   0  0  0  0  0  0  0  0  0  0  0  0
   11.6307   49.7518   92.1734 C   0  0  0  0  0  0  0  0  0  0  0  0
   12.2639   49.4005   90.8149 C   0  0  0  0  0  0  0  0  0  0  0  0
   11.9327   47.2428   92.3439 H   0  0  0  0  0  0  0  0  0  0  0  0
   14.0707   48.1062   88.8454 C   0  0  0  0  0  0  0  0  0  0  0  0
   12.6669   46.0156   89.2761 C   0  0  0  0  0  0  0  0  0  0  0  0
   13.6572   46.7059   88.3232 C   0  0  0  0  0  0  0  0  0  0  0  0
   13.0618   46.7831   86.9074 C   0  0  0  0  0  0  0  0  0  0  0  0
   14.9330   45.8377   88.2549 C   0  0  0  0  0  0  0  0  0  0  0  0
   11.2354   51.6921   87.9462 C   0  0  0  0  0  0  0  0  0  0  0  0
   11.9793   51.5413   86.6441 C   0  0  0  0  0  0  0  0  0  0  0  0
   12.1165   50.2802   86.0520 C   0  0  0  0  0  0  0  0  0  0  0  0
   12.8302   50.1274   84.8590 C   0  0  0  0  0  0  0  0  0  0  0  0
   13.4282   51.2284   84.2300 C   0  0  0  0  0  0  0  0  0  0  0  0
   13.2932   52.4882   84.8318 C   0  0  0  0  0  0  0  0  0  0  0  0
   12.5805   52.6438   86.0268 C   0  0  0  0  0  0  0  0  0  0  0  0
   14.1726   51.0777   82.9868 C   0  0  0  0  0  0  0  0  0  0  0  0
   14.0788   50.2762   81.8698 C   0  0  0  0  0  0  0  0  0  0  0  0
   15.0765   50.5771   80.9782 N   0  0  0  0  0  0  0  0  0  0  0  0
   15.7461   51.5442   81.5715 C   0  0  0  0  0  0  0  0  0  0  0  0
   16.8212   52.1311   81.0202 F   0  0  0  0  0  0  0  0  0  0  0  0
   15.2519   51.9005   82.7961 O   0  0  0  0  0  0  0  0  0  0  0  0
 15 16  1  0
 16 17  1  0
 16 18  1  0
 16 14  1  0
 14  5  1  0
  5  6  2  0
  5  7  1  0
  7  8  1  0
  8  9  1  0
  9 10  1  0
  9 11  1  0
 11 12  1  0
 12  1  1  0
  1  2  2  0
  1  3  1  0
  3 19  1  0
 19 20  1  0
 20 21  2  0
 21 22  1  0
 22 23  2  0
 23 26  1  0
 26 27  2  0
 27 28  1  0
 28 29  2  0
 29 30  1  0
 29 31  1  0
 23 24  1  0
 24 25  2  0
 12  7  1  0
 25 20  1  0
 31 26  1  0
 10 13  1  0
  3  4  1  0
M  END
> <minimizedAffinity>
-5.92125

> <CNNscore>
0.2401279211

> <CNNaffinity>
4.5757126808

> <CNN_VS>
1.0987564325

> <CNNaffinity_variance>
0.8952820897

$$$$
