


 25 27  0  0  0  0  0  0  0  0999 V2000
   56.0148   39.1349   20.5284 C   0  0  0  0  0  0  0  0  0  0  0  0
   56.3951   38.7630   19.2890 N   0  0  0  0  0  0  0  0  0  0  0  0
   55.4620   39.3205   18.4915 N   0  0  0  0  0  0  0  0  0  0  0  0
   54.4633   39.9565   19.1628 C   0  0  0  0  0  0  0  0  0  0  0  0
   53.3190   40.6203   18.7701 C   0  0  0  0  0  0  0  0  0  0  0  0
   52.8923   40.7333   17.4578 N   0  0  0  0  0  0  0  0  0  0  0  0
   52.5710   41.1829   19.7334 N   0  0  0  0  0  0  0  0  0  0  0  0
   52.9774   41.0631   21.0143 C   0  0  0  0  0  0  0  0  0  0  0  0
   54.0609   40.4228   21.4806 N   0  0  0  0  0  0  0  0  0  0  0  0
   54.8072   39.8756   20.4980 C   0  0  0  0  0  0  0  0  0  0  0  0
   55.4996   39.2718   17.5089 H   0  0  0  0  0  0  0  0  0  0  0  0
   53.4213   40.3304   16.7318 H   0  0  0  0  0  0  0  0  0  0  0  0
   52.0599   41.2164   17.2507 H   0  0  0  0  0  0  0  0  0  0  0  0
   57.5289   37.4140   21.6239 C   0  0  0  0  0  0  0  0  0  0  0  0
   58.7768   37.6406   22.4811 C   0  0  0  0  0  0  0  0  0  0  0  0
   59.1220   39.0890   22.1460 C   0  0  0  0  0  0  0  0  0  0  0  0
   57.8662   39.7780   21.9411 O   0  0  0  0  0  0  0  0  0  0  0  0
   56.8272   38.7809   21.7402 C   0  0  0  0  0  0  0  0  0  0  0  0
   59.9577   39.2349   20.8705 C   0  0  0  0  0  0  0  0  0  0  0  0
   61.3314   39.4146   21.2154 O   0  0  0  0  0  0  0  0  0  0  0  0
   61.4272   40.2145   21.7555 H   0  0  0  0  0  0  0  0  0  0  0  0
   55.3838   36.4262   21.9912 C   0  0  0  0  0  0  0  0  0  0  0  0
   56.7923   36.2737   22.0737 O   0  0  0  0  0  0  0  0  0  0  0  0
   58.4765   37.5886   23.8886 O   0  0  0  0  0  0  0  0  0  0  0  0
   57.3472   38.3749   24.2456 C   0  0  0  0  0  0  0  0  0  0  0  0
 22 23  1  0
 14 23  1  0
 14 15  1  0
 15 24  1  0
 24 25  1  0
 15 16  1  0
 16 19  1  0
 19 20  1  0
 16 17  1  0
 17 18  1  0
 18  1  1  0
  1  2  2  0
  2  3  1  0
  3  4  1  0
  4  5  2  0
  5  6  1  0
  5  7  1  0
  7  8  2  0
  8  9  1  0
  9 10  2  0
 18 14  1  0
 10  1  1  0
 10  4  1  0
 20 21  1  0
  3 11  1  0
  6 12  1  0
  6 13  1  0
M  END
> <minimizedAffinity>
-7.13203

> <CNNscore>
0.8889330626

> <CNNaffinity>
6.7534751892

> <CNN_VS>
6.0033874512

> <CNNaffinity_variance>
0.0758692175

$$$$



 25 27  0  0  0  0  0  0  0  0999 V2000
   56.1253   39.0116   19.9361 C   0  0  0  0  0  0  0  0  0  0  0  0
   56.3432   38.8061   18.6210 N   0  0  0  0  0  0  0  0  0  0  0  0
   55.3037   39.4263   18.0277 N   0  0  0  0  0  0  0  0  0  0  0  0
   54.3933   39.9433   18.8973 C   0  0  0  0  0  0  0  0  0  0  0  0
   53.1965   40.6129   18.7429 C   0  0  0  0  0  0  0  0  0  0  0  0
   52.5973   40.8712   17.5217 N   0  0  0  0  0  0  0  0  0  0  0  0
   52.5746   41.0295   19.8580 N   0  0  0  0  0  0  0  0  0  0  0  0
   53.1496   40.7676   21.0501 C   0  0  0  0  0  0  0  0  0  0  0  0
   54.2953   40.1103   21.2878 N   0  0  0  0  0  0  0  0  0  0  0  0
   54.9129   39.7114   20.1558 C   0  0  0  0  0  0  0  0  0  0  0  0
   55.2111   39.4990   17.0502 H   0  0  0  0  0  0  0  0  0  0  0  0
   53.0314   40.5771   16.6884 H   0  0  0  0  0  0  0  0  0  0  0  0
   51.7373   41.3490   17.4867 H   0  0  0  0  0  0  0  0  0  0  0  0
   56.8872   39.2042   22.3520 C   0  0  0  0  0  0  0  0  0  0  0  0
   57.3645   38.1001   23.2989 C   0  0  0  0  0  0  0  0  0  0  0  0
   56.8564   36.8466   22.5917 C   0  0  0  0  0  0  0  0  0  0  0  0
   56.9491   37.1055   21.1711 O   0  0  0  0  0  0  0  0  0  0  0  0
   57.0972   38.5389   20.9780 C   0  0  0  0  0  0  0  0  0  0  0  0
   55.3977   36.5132   22.9197 C   0  0  0  0  0  0  0  0  0  0  0  0
   55.3477   35.6409   24.0489 O   0  0  0  0  0  0  0  0  0  0  0  0
   55.8268   34.8221   23.8464 H   0  0  0  0  0  0  0  0  0  0  0  0
   58.4272   40.8285   21.5143 C   0  0  0  0  0  0  0  0  0  0  0  0
   57.5898   40.4273   22.5875 O   0  0  0  0  0  0  0  0  0  0  0  0
   58.8014   38.0136   23.3396 O   0  0  0  0  0  0  0  0  0  0  0  0
   59.3512   37.3555   22.2058 C   0  0  0  0  0  0  0  0  0  0  0  0
 22 23  1  0
 14 23  1  0
 14 15  1  0
 15 24  1  0
 24 25  1  0
 15 16  1  0
 16 19  1  0
 19 20  1  0
 16 17  1  0
 17 18  1  0
 18  1  1  0
  1  2  2  0
  2  3  1  0
  3  4  1  0
  4  5  2  0
  5  6  1  0
  5  7  1  0
  7  8  2  0
  8  9  1  0
  9 10  2  0
 18 14  1  0
 10  1  1  0
 10  4  1  0
 20 21  1  0
  3 11  1  0
  6 12  1  0
  6 13  1  0
M  END
> <minimizedAffinity>
-7.52748

> <CNNscore>
0.7838540673

> <CNNaffinity>
6.5264434814

> <CNN_VS>
5.1157793999

> <CNNaffinity_variance>
0.0060442537

$$$$



 25 27  0  0  0  0  0  0  0  0999 V2000
   61.7686   32.3466   28.8125 C   0  0  0  0  0  0  0  0  0  0  0  0
   60.6103   32.2177   29.4914 N   0  0  0  0  0  0  0  0  0  0  0  0
   60.8987   32.7234   30.7073 N   0  0  0  0  0  0  0  0  0  0  0  0
   62.1999   33.0902   30.8638 C   0  0  0  0  0  0  0  0  0  0  0  0
   62.9272   33.6094   31.9155 C   0  0  0  0  0  0  0  0  0  0  0  0
   62.4171   33.8342   33.1829 N   0  0  0  0  0  0  0  0  0  0  0  0
   64.2175   33.9040   31.6870 N   0  0  0  0  0  0  0  0  0  0  0  0
   64.7208   33.6735   30.4567 C   0  0  0  0  0  0  0  0  0  0  0  0
   64.0908   33.1573   29.3900 N   0  0  0  0  0  0  0  0  0  0  0  0
   62.7925   32.8801   29.6340 C   0  0  0  0  0  0  0  0  0  0  0  0
   60.2264   32.8191   31.4201 H   0  0  0  0  0  0  0  0  0  0  0  0
   61.4746   33.6272   33.3780 H   0  0  0  0  0  0  0  0  0  0  0  0
   62.9968   34.2011   33.8889 H   0  0  0  0  0  0  0  0  0  0  0  0
   62.1504   30.4603   27.1541 C   0  0  0  0  0  0  0  0  0  0  0  0
   61.4720   30.2177   25.8034 C   0  0  0  0  0  0  0  0  0  0  0  0
   60.2392   31.1110   25.9128 C   0  0  0  0  0  0  0  0  0  0  0  0
   60.6352   32.2721   26.6801 O   0  0  0  0  0  0  0  0  0  0  0  0
   61.8795   31.9624   27.3654 C   0  0  0  0  0  0  0  0  0  0  0  0
   59.0661   30.4415   26.6352 C   0  0  0  0  0  0  0  0  0  0  0  0
   57.8795   30.5806   25.8535 O   0  0  0  0  0  0  0  0  0  0  0  0
   57.6839   31.5222   25.7274 H   0  0  0  0  0  0  0  0  0  0  0  0
   63.7103   28.6531   27.2646 C   0  0  0  0  0  0  0  0  0  0  0  0
   63.5208   30.0526   27.1253 O   0  0  0  0  0  0  0  0  0  0  0  0
   62.2640   30.7165   24.7089 O   0  0  0  0  0  0  0  0  0  0  0  0
   62.4816   29.7466   23.6927 C   0  0  0  0  0  0  0  0  0  0  0  0
 22 23  1  0
 14 23  1  0
 14 15  1  0
 15 24  1  0
 24 25  1  0
 15 16  1  0
 16 19  1  0
 19 20  1  0
 16 17  1  0
 17 18  1  0
 18  1  1  0
  1  2  2  0
  2  3  1  0
  3  4  1  0
  4  5  2  0
  5  6  1  0
  5  7  1  0
  7  8  2  0
  8  9  1  0
  9 10  2  0
 18 14  1  0
 10  1  1  0
 10  4  1  0
 20 21  1  0
  3 11  1  0
  6 12  1  0
  6 13  1  0
M  END
> <minimizedAffinity>
-5.13896

> <CNNscore>
0.2964935303

> <CNNaffinity>
3.7239482403

> <CNN_VS>
1.1041265726

> <CNNaffinity_variance>
0.2546146214

$$$$



 25 27  0  0  0  0  0  0  0  0999 V2000
   61.9375   32.7510   28.5629 C   0  0  0  0  0  0  0  0  0  0  0  0
   63.0533   33.1111   27.8963 N   0  0  0  0  0  0  0  0  0  0  0  0
   63.9237   33.4173   28.8792 N   0  0  0  0  0  0  0  0  0  0  0  0
   63.3954   33.3510   30.1317 C   0  0  0  0  0  0  0  0  0  0  0  0
   63.8933   33.6023   31.3940 C   0  0  0  0  0  0  0  0  0  0  0  0
   65.1679   34.0782   31.6510 N   0  0  0  0  0  0  0  0  0  0  0  0
   63.0762   33.3761   32.4356 N   0  0  0  0  0  0  0  0  0  0  0  0
   61.8291   32.9250   32.1874 C   0  0  0  0  0  0  0  0  0  0  0  0
   61.2635   32.6736   30.9966 N   0  0  0  0  0  0  0  0  0  0  0  0
   62.1032   32.8934   29.9629 C   0  0  0  0  0  0  0  0  0  0  0  0
   64.8600   33.6672   28.7060 H   0  0  0  0  0  0  0  0  0  0  0  0
   65.7876   34.2528   30.9062 H   0  0  0  0  0  0  0  0  0  0  0  0
   65.4544   34.2421   32.5785 H   0  0  0  0  0  0  0  0  0  0  0  0
   61.0283   31.2081   26.7609 C   0  0  0  0  0  0  0  0  0  0  0  0
   59.7453   30.3731   26.7698 C   0  0  0  0  0  0  0  0  0  0  0  0
   59.3994   30.3556   28.2563 C   0  0  0  0  0  0  0  0  0  0  0  0
   59.8060   31.6368   28.7919 O   0  0  0  0  0  0  0  0  0  0  0  0
   60.7151   32.2592   27.8432 C   0  0  0  0  0  0  0  0  0  0  0  0
   60.1315   29.2600   29.0375 C   0  0  0  0  0  0  0  0  0  0  0  0
   59.3361   28.8524   30.1509 O   0  0  0  0  0  0  0  0  0  0  0  0
   59.1806   29.6127   30.7328 H   0  0  0  0  0  0  0  0  0  0  0  0
   62.2547   30.9191   24.7300 C   0  0  0  0  0  0  0  0  0  0  0  0
   61.3150   31.7020   25.4498 O   0  0  0  0  0  0  0  0  0  0  0  0
   58.6666   31.0414   26.0890 O   0  0  0  0  0  0  0  0  0  0  0  0
   58.2771   30.3876   24.8883 C   0  0  0  0  0  0  0  0  0  0  0  0
 22 23  1  0
 14 23  1  0
 14 15  1  0
 15 24  1  0
 24 25  1  0
 15 16  1  0
 16 19  1  0
 19 20  1  0
 16 17  1  0
 17 18  1  0
 18  1  1  0
  1  2  2  0
  2  3  1  0
  3  4  1  0
  4  5  2  0
  5  6  1  0
  5  7  1  0
  7  8  2  0
  8  9  1  0
  9 10  2  0
 18 14  1  0
 10  1  1  0
 10  4  1  0
 20 21  1  0
  3 11  1  0
  6 12  1  0
  6 13  1  0
M  END
> <minimizedAffinity>
-5.26948

> <CNNscore>
0.2624124587

> <CNNaffinity>
3.6381194592

> <CNN_VS>
0.9546878934

> <CNNaffinity_variance>
0.5487154126

$$$$



 25 27  0  0  0  0  0  0  0  0999 V2000
   59.0047   30.2828   25.1215 C   0  0  0  0  0  0  0  0  0  0  0  0
   58.2785   29.5268   25.9702 N   0  0  0  0  0  0  0  0  0  0  0  0
   58.7005   29.9241   27.1874 N   0  0  0  0  0  0  0  0  0  0  0  0
   59.7142   30.8318   27.1568 C   0  0  0  0  0  0  0  0  0  0  0  0
   60.4550   31.4710   28.1299 C   0  0  0  0  0  0  0  0  0  0  0  0
   60.3241   31.2411   29.4889 N   0  0  0  0  0  0  0  0  0  0  0  0
   61.3679   32.3672   27.7208 N   0  0  0  0  0  0  0  0  0  0  0  0
   61.5069   32.5836   26.3964 C   0  0  0  0  0  0  0  0  0  0  0  0
   60.8434   31.9947   25.3892 N   0  0  0  0  0  0  0  0  0  0  0  0
   59.9214   31.1077   25.8194 C   0  0  0  0  0  0  0  0  0  0  0  0
   58.3094   29.5870   28.0256 H   0  0  0  0  0  0  0  0  0  0  0  0
   59.6628   30.5895   29.8165 H   0  0  0  0  0  0  0  0  0  0  0  0
   60.8924   31.7293   30.1277 H   0  0  0  0  0  0  0  0  0  0  0  0
   58.6249   28.7742   23.1131 C   0  0  0  0  0  0  0  0  0  0  0  0
   57.7226   29.0029   21.8977 C   0  0  0  0  0  0  0  0  0  0  0  0
   56.8052   30.1146   22.3998 C   0  0  0  0  0  0  0  0  0  0  0  0
   57.6042   30.9506   23.2696 O   0  0  0  0  0  0  0  0  0  0  0  0
   58.8024   30.2129   23.6356 C   0  0  0  0  0  0  0  0  0  0  0  0
   55.6089   29.5978   23.2050 C   0  0  0  0  0  0  0  0  0  0  0  0
   56.0080   28.4721   23.9873 O   0  0  0  0  0  0  0  0  0  0  0  0
   56.3290   27.7687   23.4015 H   0  0  0  0  0  0  0  0  0  0  0  0
   61.0023   28.8396   22.8781 C   0  0  0  0  0  0  0  0  0  0  0  0
   59.8159   28.0717   22.7484 O   0  0  0  0  0  0  0  0  0  0  0  0
   58.4572   29.5301   20.7770 O   0  0  0  0  0  0  0  0  0  0  0  0
   57.7748   29.3706   19.5401 C   0  0  0  0  0  0  0  0  0  0  0  0
 22 23  1  0
 14 23  1  0
 14 15  1  0
 15 24  1  0
 24 25  1  0
 15 16  1  0
 16 19  1  0
 19 20  1  0
 16 17  1  0
 17 18  1  0
 18  1  1  0
  1  2  2  0
  2  3  1  0
  3  4  1  0
  4  5  2  0
  5  6  1  0
  5  7  1  0
  7  8  2  0
  8  9  1  0
  9 10  2  0
 18 14  1  0
 10  1  1  0
 10  4  1  0
 20 21  1  0
  3 11  1  0
  6 12  1  0
  6 13  1  0
M  END
> <minimizedAffinity>
-4.61663

> <CNNscore>
0.2431475520

> <CNNaffinity>
3.9627521038

> <CNN_VS>
0.9635334611

> <CNNaffinity_variance>
0.5004048944

$$$$



 25 27  0  0  0  0  0  0  0  0999 V2000
   59.8622   30.2083   27.7115 C   0  0  0  0  0  0  0  0  0  0  0  0
   59.6298   30.7837   28.9091 N   0  0  0  0  0  0  0  0  0  0  0  0
   60.5665   31.7505   28.9822 N   0  0  0  0  0  0  0  0  0  0  0  0
   61.4337   31.7665   27.9334 C   0  0  0  0  0  0  0  0  0  0  0  0
   62.5341   32.5358   27.6142 C   0  0  0  0  0  0  0  0  0  0  0  0
   63.0585   33.5256   28.4281 N   0  0  0  0  0  0  0  0  0  0  0  0
   63.1352   32.2942   26.4377 N   0  0  0  0  0  0  0  0  0  0  0  0
   62.6344   31.3212   25.6485 C   0  0  0  0  0  0  0  0  0  0  0  0
   61.5856   30.5194   25.8905 N   0  0  0  0  0  0  0  0  0  0  0  0
   60.9862   30.7856   27.0702 C   0  0  0  0  0  0  0  0  0  0  0  0
   60.6187   32.3894   29.7294 H   0  0  0  0  0  0  0  0  0  0  0  0
   62.6377   33.7235   29.2958 H   0  0  0  0  0  0  0  0  0  0  0  0
   63.8521   34.0314   28.1390 H   0  0  0  0  0  0  0  0  0  0  0  0
   58.8179   29.1449   25.6541 C   0  0  0  0  0  0  0  0  0  0  0  0
   58.6250   27.6604   25.3341 C   0  0  0  0  0  0  0  0  0  0  0  0
   59.5882   27.0048   26.3199 C   0  0  0  0  0  0  0  0  0  0  0  0
   59.5733   27.8175   27.5170 O   0  0  0  0  0  0  0  0  0  0  0  0
   58.9887   29.1067   27.1851 C   0  0  0  0  0  0  0  0  0  0  0  0
   61.0304   26.9395   25.8079 C   0  0  0  0  0  0  0  0  0  0  0  0
   61.0285   26.7518   24.3925 O   0  0  0  0  0  0  0  0  0  0  0  0
   60.5732   25.9229   24.1769 H   0  0  0  0  0  0  0  0  0  0  0  0
   58.1370   30.9952   24.3034 C   0  0  0  0  0  0  0  0  0  0  0  0
   57.7339   29.9285   25.1482 O   0  0  0  0  0  0  0  0  0  0  0  0
   57.2993   27.2083   25.6688 O   0  0  0  0  0  0  0  0  0  0  0  0
   56.5842   26.7045   24.5482 C   0  0  0  0  0  0  0  0  0  0  0  0
 22 23  1  0
 14 23  1  0
 14 15  1  0
 15 24  1  0
 24 25  1  0
 15 16  1  0
 16 19  1  0
 19 20  1  0
 16 17  1  0
 17 18  1  0
 18  1  1  0
  1  2  2  0
  2  3  1  0
  3  4  1  0
  4  5  2  0
  5  6  1  0
  5  7  1  0
  7  8  2  0
  8  9  1  0
  9 10  2  0
 18 14  1  0
 10  1  1  0
 10  4  1  0
 20 21  1  0
  3 11  1  0
  6 12  1  0
  6 13  1  0
M  END
> <minimizedAffinity>
-4.21726

> <CNNscore>
0.1726069152

> <CNNaffinity>
3.3373203278

> <CNN_VS>
0.5760445595

> <CNNaffinity_variance>
0.6501162052

$$$$



 25 27  0  0  0  0  0  0  0  0999 V2000
   63.0966   31.7939   28.4573 C   0  0  0  0  0  0  0  0  0  0  0  0
   62.6040   33.0475   28.3867 N   0  0  0  0  0  0  0  0  0  0  0  0
   63.4205   33.7538   29.1940 N   0  0  0  0  0  0  0  0  0  0  0  0
   64.3540   33.0016   29.8384 C   0  0  0  0  0  0  0  0  0  0  0  0
   65.3451   33.2868   30.7553 C   0  0  0  0  0  0  0  0  0  0  0  0
   65.5702   34.5404   31.2983 N   0  0  0  0  0  0  0  0  0  0  0  0
   66.1326   32.2722   31.1479 N   0  0  0  0  0  0  0  0  0  0  0  0
   65.9071   31.0468   30.6304 C   0  0  0  0  0  0  0  0  0  0  0  0
   64.9590   30.6824   29.7532 N   0  0  0  0  0  0  0  0  0  0  0  0
   64.1863   31.7169   29.3598 C   0  0  0  0  0  0  0  0  0  0  0  0
   63.3479   34.7290   29.3077 H   0  0  0  0  0  0  0  0  0  0  0  0
   65.0078   35.3021   31.0283 H   0  0  0  0  0  0  0  0  0  0  0  0
   66.2926   34.6702   31.9545 H   0  0  0  0  0  0  0  0  0  0  0  0
   63.2829   30.4187   26.3293 C   0  0  0  0  0  0  0  0  0  0  0  0
   63.0555   28.9175   26.1335 C   0  0  0  0  0  0  0  0  0  0  0  0
   63.1280   28.4050   27.5693 C   0  0  0  0  0  0  0  0  0  0  0  0
   62.5604   29.4387   28.4079 O   0  0  0  0  0  0  0  0  0  0  0  0
   62.5177   30.6739   27.6422 C   0  0  0  0  0  0  0  0  0  0  0  0
   64.5586   28.1376   28.0474 C   0  0  0  0  0  0  0  0  0  0  0  0
   65.3728   27.7616   26.9365 O   0  0  0  0  0  0  0  0  0  0  0  0
   65.0141   26.9570   26.5304 H   0  0  0  0  0  0  0  0  0  0  0  0
   61.5459   31.6920   25.2934 C   0  0  0  0  0  0  0  0  0  0  0  0
   62.8570   31.1603   25.1831 O   0  0  0  0  0  0  0  0  0  0  0  0
   61.7298   28.6356   25.6468 O   0  0  0  0  0  0  0  0  0  0  0  0
   61.7265   27.8147   24.4861 C   0  0  0  0  0  0  0  0  0  0  0  0
 22 23  1  0
 14 23  1  0
 14 15  1  0
 15 24  1  0
 24 25  1  0
 15 16  1  0
 16 19  1  0
 19 20  1  0
 16 17  1  0
 17 18  1  0
 18  1  1  0
  1  2  2  0
  2  3  1  0
  3  4  1  0
  4  5  2  0
  5  6  1  0
  5  7  1  0
  7  8  2  0
  8  9  1  0
  9 10  2  0
 18 14  1  0
 10  1  1  0
 10  4  1  0
 20 21  1  0
  3 11  1  0
  6 12  1  0
  6 13  1  0
M  END
> <minimizedAffinity>
-5.37492

> <CNNscore>
0.1693207026

> <CNNaffinity>
3.7631664276

> <CNN_VS>
0.6371819973

> <CNNaffinity_variance>
0.4023468196

$$$$



 25 27  0  0  0  0  0  0  0  0999 V2000
   60.5538   38.0140   21.2423 C   0  0  0  0  0  0  0  0  0  0  0  0
   60.9563   38.6312   22.3720 N   0  0  0  0  0  0  0  0  0  0  0  0
   62.2924   38.4510   22.3717 N   0  0  0  0  0  0  0  0  0  0  0  0
   62.7505   37.6818   21.3466 C   0  0  0  0  0  0  0  0  0  0  0  0
   63.9993   37.2236   20.9791 C   0  0  0  0  0  0  0  0  0  0  0  0
   65.1579   37.4457   21.7039 N   0  0  0  0  0  0  0  0  0  0  0  0
   64.0846   36.5074   19.8461 N   0  0  0  0  0  0  0  0  0  0  0  0
   62.9551   36.2782   19.1447 C   0  0  0  0  0  0  0  0  0  0  0  0
   61.7057   36.6697   19.4398 N   0  0  0  0  0  0  0  0  0  0  0  0
   61.6414   37.3993   20.5736 C   0  0  0  0  0  0  0  0  0  0  0  0
   62.8851   38.8419   23.0537 H   0  0  0  0  0  0  0  0  0  0  0  0
   65.1242   37.9674   22.5382 H   0  0  0  0  0  0  0  0  0  0  0  0
   66.0153   37.0819   21.3851 H   0  0  0  0  0  0  0  0  0  0  0  0
   58.1399   37.5997   21.9174 C   0  0  0  0  0  0  0  0  0  0  0  0
   56.8884   38.3987   21.5450 C   0  0  0  0  0  0  0  0  0  0  0  0
   57.4948   39.7117   21.0571 C   0  0  0  0  0  0  0  0  0  0  0  0
   58.7420   39.3755   20.4051 O   0  0  0  0  0  0  0  0  0  0  0  0
   59.1173   38.0294   20.8063 C   0  0  0  0  0  0  0  0  0  0  0  0
   57.8009   40.6971   22.1893 C   0  0  0  0  0  0  0  0  0  0  0  0
   57.6237   40.0496   23.4493 O   0  0  0  0  0  0  0  0  0  0  0  0
   56.7069   39.7432   23.5293 H   0  0  0  0  0  0  0  0  0  0  0  0
   56.7768   35.8932   22.8877 C   0  0  0  0  0  0  0  0  0  0  0  0
   57.8518   36.2023   22.0143 O   0  0  0  0  0  0  0  0  0  0  0  0
   56.1901   37.8117   20.4307 O   0  0  0  0  0  0  0  0  0  0  0  0
   55.6744   38.7791   19.5256 C   0  0  0  0  0  0  0  0  0  0  0  0
 22 23  1  0
 14 23  1  0
 14 15  1  0
 15 24  1  0
 24 25  1  0
 15 16  1  0
 16 19  1  0
 19 20  1  0
 16 17  1  0
 17 18  1  0
 18  1  1  0
  1  2  2  0
  2  3  1  0
  3  4  1  0
  4  5  2  0
  5  6  1  0
  5  7  1  0
  7  8  2  0
  8  9  1  0
  9 10  2  0
 18 14  1  0
 10  1  1  0
 10  4  1  0
 20 21  1  0
  3 11  1  0
  6 12  1  0
  6 13  1  0
M  END
> <minimizedAffinity>
-6.11888

> <CNNscore>
0.1490144730

> <CNNaffinity>
4.5965003967

> <CNN_VS>
0.6849451065

> <CNNaffinity_variance>
0.5691592097

$$$$



 25 27  0  0  0  0  0  0  0  0999 V2000
   59.4459   29.1670   22.8165 C   0  0  0  0  0  0  0  0  0  0  0  0
   60.4870   28.8049   22.0391 N   0  0  0  0  0  0  0  0  0  0  0  0
   60.0002   28.9167   20.7869 N   0  0  0  0  0  0  0  0  0  0  0  0
   58.6819   29.2500   20.7293 C   0  0  0  0  0  0  0  0  0  0  0  0
   57.7870   29.4364   19.6954 C   0  0  0  0  0  0  0  0  0  0  0  0
   58.0876   29.2450   18.3575 N   0  0  0  0  0  0  0  0  0  0  0  0
   56.5414   29.8200   20.0195 N   0  0  0  0  0  0  0  0  0  0  0  0
   56.2419   29.9944   21.3234 C   0  0  0  0  0  0  0  0  0  0  0  0
   57.0430   29.8178   22.3857 N   0  0  0  0  0  0  0  0  0  0  0  0
   58.2937   29.4459   22.0403 C   0  0  0  0  0  0  0  0  0  0  0  0
   60.5506   28.7700   19.9839 H   0  0  0  0  0  0  0  0  0  0  0  0
   58.9929   28.9639   18.0917 H   0  0  0  0  0  0  0  0  0  0  0  0
   57.3961   29.3900   17.6720 H   0  0  0  0  0  0  0  0  0  0  0  0
   60.7611   28.4472   24.8674 C   0  0  0  0  0  0  0  0  0  0  0  0
   61.1229   29.2634   26.1109 C   0  0  0  0  0  0  0  0  0  0  0  0
   60.8899   30.6902   25.6216 C   0  0  0  0  0  0  0  0  0  0  0  0
   59.7707   30.6371   24.7060 O   0  0  0  0  0  0  0  0  0  0  0  0
   59.5715   29.2524   24.3101 C   0  0  0  0  0  0  0  0  0  0  0  0
   62.0893   31.2789   24.8723 C   0  0  0  0  0  0  0  0  0  0  0  0
   63.2348   31.2767   25.7243 O   0  0  0  0  0  0  0  0  0  0  0  0
   63.0531   31.8132   26.5118 H   0  0  0  0  0  0  0  0  0  0  0  0
   59.1441   26.7057   25.1207 C   0  0  0  0  0  0  0  0  0  0  0  0
   60.5108   27.0793   25.2011 O   0  0  0  0  0  0  0  0  0  0  0  0
   60.2018   29.0281   27.1927 O   0  0  0  0  0  0  0  0  0  0  0  0
   60.2340   30.0482   28.1822 C   0  0  0  0  0  0  0  0  0  0  0  0
 22 23  1  0
 14 23  1  0
 14 15  1  0
 15 24  1  0
 24 25  1  0
 15 16  1  0
 16 19  1  0
 19 20  1  0
 16 17  1  0
 17 18  1  0
 18  1  1  0
  1  2  2  0
  2  3  1  0
  3  4  1  0
  4  5  2  0
  5  6  1  0
  5  7  1  0
  7  8  2  0
  8  9  1  0
  9 10  2  0
 18 14  1  0
 10  1  1  0
 10  4  1  0
 20 21  1  0
  3 11  1  0
  6 12  1  0
  6 13  1  0
M  END
> <minimizedAffinity>
-4.31347

> <CNNscore>
0.1469561905

> <CNNaffinity>
4.3755822182

> <CNN_VS>
0.6430189013

> <CNNaffinity_variance>
0.0105857998

$$$$
