


 26 29  0  0  0  0  0  0  0  0999 V2000
    8.9966   57.4552   -0.7089 C   0  0  0  0  0  0  0  0  0  0  0  0
    9.0465   58.7123   -1.1195 N   0  0  0  0  0  0  0  0  0  0  0  0
    7.8987   59.2946   -0.6644 C   0  0  0  0  0  0  0  0  0  0  0  0
    7.4279   60.6135   -0.7958 C   0  0  0  0  0  0  0  0  0  0  0  0
    6.2443   61.0318   -0.2612 N   0  0  0  0  0  0  0  0  0  0  0  0
    5.5644   60.0879    0.4077 C   0  0  0  0  0  0  0  0  0  0  0  0
    4.3655   60.2463    1.0420 N   0  0  0  0  0  0  0  0  0  0  0  0
    4.0086   59.0560    1.6118 C   0  0  0  0  0  0  0  0  0  0  0  0
    2.8898   58.8464    2.3180 F   0  0  0  0  0  0  0  0  0  0  0  0
    4.9733   58.1055    1.3521 C   0  0  0  0  0  0  0  0  0  0  0  0
    5.9552   58.7740    0.5809 C   0  0  0  0  0  0  0  0  0  0  0  0
    7.1386   58.3662    0.0313 C   0  0  0  0  0  0  0  0  0  0  0  0
    7.8129   57.1911   -0.0105 N   0  0  0  0  0  0  0  0  0  0  0  0
    3.8441   61.0804    1.0824 H   0  0  0  0  0  0  0  0  0  0  0  0
    7.4672   55.8696    0.5089 C   0  0  0  0  0  0  0  0  0  0  0  0
    7.3851   55.8240    2.0418 C   0  0  0  0  0  0  0  0  0  0  0  0
    7.0232   54.4308    2.5556 C   0  0  0  0  0  0  0  0  0  0  0  0
    5.7708   53.8677    1.8720 C   0  0  0  0  0  0  0  0  0  0  0  0
    5.9594   53.8309    0.3501 C   0  0  0  0  0  0  0  0  0  0  0  0
    6.2882   55.2091   -0.2230 C   0  0  0  0  0  0  0  0  0  0  0  0
    5.4735   52.5166    2.3825 C   0  0  0  0  0  0  0  0  0  0  0  0
    5.2339   51.4559    2.7859 N   0  0  0  0  0  0  0  0  0  0  0  0
   11.1088   57.0110   -1.9802 C   0  0  0  0  0  0  0  0  0  0  0  0
   10.1018   56.4711   -0.9779 C   0  0  0  0  0  0  0  0  0  0  0  0
   10.7781   56.2559    0.2634 O   0  0  0  0  0  0  0  0  0  0  0  0
   11.1375   57.0972    0.5859 H   0  0  0  0  0  0  0  0  0  0  0  0
 24 23  1  0
 24 25  1  0
 24  1  1  0
  1  2  2  0
  2  3  1  0
  3  4  2  0
  4  5  1  0
  5  6  2  0
  6  7  1  0
  7  8  1  0
  8  9  1  0
  8 10  2  0
 10 11  1  0
 11 12  2  0
 12 13  1  0
 15 13  1  0
 15 16  1  0
 16 17  1  0
 17 18  1  0
 18 21  1  0
 21 22  3  0
 18 19  1  0
 19 20  1  0
 13  1  1  0
 20 15  1  0
 12  3  1  0
 11  6  1  0
 25 26  1  0
  7 14  1  0
M  END
> <minimizedAffinity>
-9.55670

> <CNNscore>
0.9961258769

> <CNNaffinity>
8.1880693436

> <CNN_VS>
8.1563482285

> <CNNaffinity_variance>
0.1062964126

$$$$



 26 29  0  0  0  0  0  0  0  0999 V2000
    5.7069   56.4298    1.5720 C   0  0  0  0  0  0  0  0  0  0  0  0
    4.9678   57.5134    1.3960 N   0  0  0  0  0  0  0  0  0  0  0  0
    5.7176   58.3488    0.6190 C   0  0  0  0  0  0  0  0  0  0  0  0
    5.4319   59.6300    0.1136 C   0  0  0  0  0  0  0  0  0  0  0  0
    6.3068   60.3282   -0.6665 N   0  0  0  0  0  0  0  0  0  0  0  0
    7.4619   59.6947   -0.9217 C   0  0  0  0  0  0  0  0  0  0  0  0
    8.4961   60.1652   -1.6792 N   0  0  0  0  0  0  0  0  0  0  0  0
    9.4862   59.2230   -1.7057 C   0  0  0  0  0  0  0  0  0  0  0  0
   10.6490   59.3476   -2.3590 F   0  0  0  0  0  0  0  0  0  0  0  0
    9.1074   58.1257   -0.9615 C   0  0  0  0  0  0  0  0  0  0  0  0
    7.8194   58.4410   -0.4641 C   0  0  0  0  0  0  0  0  0  0  0  0
    6.9371   57.7571    0.3249 C   0  0  0  0  0  0  0  0  0  0  0  0
    6.9513   56.5507    0.9429 N   0  0  0  0  0  0  0  0  0  0  0  0
    8.5240   61.0390   -2.1318 H   0  0  0  0  0  0  0  0  0  0  0  0
    7.9905   55.5263    1.0198 C   0  0  0  0  0  0  0  0  0  0  0  0
    7.8573   54.4461   -0.0636 C   0  0  0  0  0  0  0  0  0  0  0  0
    8.9561   53.3889    0.0423 C   0  0  0  0  0  0  0  0  0  0  0  0
   10.3567   54.0117    0.0975 C   0  0  0  0  0  0  0  0  0  0  0  0
   10.4623   54.9947    1.2704 C   0  0  0  0  0  0  0  0  0  0  0  0
    9.4067   56.0974    1.1946 C   0  0  0  0  0  0  0  0  0  0  0  0
   11.3804   52.9575    0.2210 C   0  0  0  0  0  0  0  0  0  0  0  0
   12.1886   52.1318    0.3223 N   0  0  0  0  0  0  0  0  0  0  0  0
    6.0133   55.0475    3.6383 C   0  0  0  0  0  0  0  0  0  0  0  0
    5.2243   55.2388    2.3535 C   0  0  0  0  0  0  0  0  0  0  0  0
    3.8607   55.4937    2.7000 O   0  0  0  0  0  0  0  0  0  0  0  0
    3.8086   56.3007    3.2357 H   0  0  0  0  0  0  0  0  0  0  0  0
 24 23  1  0
 24 25  1  0
 24  1  1  0
  1  2  2  0
  2  3  1  0
  3  4  2  0
  4  5  1  0
  5  6  2  0
  6  7  1  0
  7  8  1  0
  8  9  1  0
  8 10  2  0
 10 11  1  0
 11 12  2  0
 12 13  1  0
 15 13  1  0
 15 16  1  0
 16 17  1  0
 17 18  1  0
 18 21  1  0
 21 22  3  0
 18 19  1  0
 19 20  1  0
 13  1  1  0
 20 15  1  0
 12  3  1  0
 11  6  1  0
 25 26  1  0
  7 14  1  0
M  END
> <minimizedAffinity>
-8.00477

> <CNNscore>
0.8632482886

> <CNNaffinity>
7.3845534325

> <CNN_VS>
6.3747029305

> <CNNaffinity_variance>
0.0882019624

$$$$



 26 29  0  0  0  0  0  0  0  0999 V2000
    5.8618   56.5507    1.4753 C   0  0  0  0  0  0  0  0  0  0  0  0
    5.1439   57.6608    1.5335 N   0  0  0  0  0  0  0  0  0  0  0  0
    5.8160   58.5747    0.7740 C   0  0  0  0  0  0  0  0  0  0  0  0
    5.5118   59.9146    0.4730 C   0  0  0  0  0  0  0  0  0  0  0  0
    6.3029   60.6907   -0.3230 N   0  0  0  0  0  0  0  0  0  0  0  0
    7.3933   60.0742   -0.8044 C   0  0  0  0  0  0  0  0  0  0  0  0
    8.3372   60.6186   -1.6274 N   0  0  0  0  0  0  0  0  0  0  0  0
    9.2829   59.6699   -1.9002 C   0  0  0  0  0  0  0  0  0  0  0  0
   10.3559   59.8558   -2.6804 F   0  0  0  0  0  0  0  0  0  0  0  0
    8.9653   58.4938   -1.2541 C   0  0  0  0  0  0  0  0  0  0  0  0
    7.7634   58.7664   -0.5565 C   0  0  0  0  0  0  0  0  0  0  0  0
    6.9666   58.0036    0.2511 C   0  0  0  0  0  0  0  0  0  0  0  0
    7.0186   56.7283    0.7079 N   0  0  0  0  0  0  0  0  0  0  0  0
    8.3368   61.5423   -1.9681 H   0  0  0  0  0  0  0  0  0  0  0  0
    8.0234   55.6840    0.5200 C   0  0  0  0  0  0  0  0  0  0  0  0
    9.2236   55.8209    1.4682 C   0  0  0  0  0  0  0  0  0  0  0  0
   10.2573   54.7168    1.2482 C   0  0  0  0  0  0  0  0  0  0  0  0
    9.6275   53.3185    1.2777 C   0  0  0  0  0  0  0  0  0  0  0  0
    8.5136   53.2081    0.2289 C   0  0  0  0  0  0  0  0  0  0  0  0
    7.4310   54.2691    0.4248 C   0  0  0  0  0  0  0  0  0  0  0  0
   10.6565   52.2893    1.0399 C   0  0  0  0  0  0  0  0  0  0  0  0
   11.4657   51.4811    0.8468 N   0  0  0  0  0  0  0  0  0  0  0  0
    6.1751   55.0772    3.4766 C   0  0  0  0  0  0  0  0  0  0  0  0
    5.4429   55.2787    2.1601 C   0  0  0  0  0  0  0  0  0  0  0  0
    4.0456   55.3977    2.4394 O   0  0  0  0  0  0  0  0  0  0  0  0
    3.8950   56.1639    3.0148 H   0  0  0  0  0  0  0  0  0  0  0  0
 24 23  1  0
 24 25  1  0
 24  1  1  0
  1  2  2  0
  2  3  1  0
  3  4  2  0
  4  5  1  0
  5  6  2  0
  6  7  1  0
  7  8  1  0
  8  9  1  0
  8 10  2  0
 10 11  1  0
 11 12  2  0
 12 13  1  0
 15 13  1  0
 15 16  1  0
 16 17  1  0
 17 18  1  0
 18 21  1  0
 21 22  3  0
 18 19  1  0
 19 20  1  0
 13  1  1  0
 20 15  1  0
 12  3  1  0
 11  6  1  0
 25 26  1  0
  7 14  1  0
M  END
> <minimizedAffinity>
-8.65727

> <CNNscore>
0.8590892553

> <CNNaffinity>
7.3360514641

> <CNN_VS>
6.3023228645

> <CNNaffinity_variance>
0.0428575762

$$$$



 26 29  0  0  0  0  0  0  0  0999 V2000
    6.1869   55.4875    1.8207 C   0  0  0  0  0  0  0  0  0  0  0  0
    5.2416   56.3930    2.0153 N   0  0  0  0  0  0  0  0  0  0  0  0
    5.6229   57.4856    1.2911 C   0  0  0  0  0  0  0  0  0  0  0  0
    4.9973   58.7338    1.1205 C   0  0  0  0  0  0  0  0  0  0  0  0
    5.5226   59.7228    0.3411 N   0  0  0  0  0  0  0  0  0  0  0  0
    6.6820   59.4107   -0.2583 C   0  0  0  0  0  0  0  0  0  0  0  0
    7.4062   60.2125   -1.0932 N   0  0  0  0  0  0  0  0  0  0  0  0
    8.5181   59.5308   -1.5029 C   0  0  0  0  0  0  0  0  0  0  0  0
    9.4529   60.0121   -2.3328 F   0  0  0  0  0  0  0  0  0  0  0  0
    8.5313   58.2739   -0.9357 C   0  0  0  0  0  0  0  0  0  0  0  0
    7.3599   58.2124   -0.1421 C   0  0  0  0  0  0  0  0  0  0  0  0
    6.8270   57.2341    0.6503 C   0  0  0  0  0  0  0  0  0  0  0  0
    7.2059   55.9797    0.9973 N   0  0  0  0  0  0  0  0  0  0  0  0
    7.1671   61.1304   -1.3568 H   0  0  0  0  0  0  0  0  0  0  0  0
    8.4039   55.2136    0.6605 C   0  0  0  0  0  0  0  0  0  0  0  0
    9.5430   55.3942    1.6744 C   0  0  0  0  0  0  0  0  0  0  0  0
   10.7818   54.5827    1.2960 C   0  0  0  0  0  0  0  0  0  0  0  0
   10.4498   53.1100    1.0247 C   0  0  0  0  0  0  0  0  0  0  0  0
    9.3905   52.9919   -0.0784 C   0  0  0  0  0  0  0  0  0  0  0  0
    8.1129   53.7571    0.2657 C   0  0  0  0  0  0  0  0  0  0  0  0
   11.6687   52.3731    0.6432 C   0  0  0  0  0  0  0  0  0  0  0  0
   12.6253   51.7884    0.3462 N   0  0  0  0  0  0  0  0  0  0  0  0
    5.9464   53.0359    1.3666 C   0  0  0  0  0  0  0  0  0  0  0  0
    6.1268   54.1116    2.4251 C   0  0  0  0  0  0  0  0  0  0  0  0
    7.3789   53.8897    3.0790 O   0  0  0  0  0  0  0  0  0  0  0  0
    8.0975   53.9494    2.4302 H   0  0  0  0  0  0  0  0  0  0  0  0
 24 23  1  0
 24 25  1  0
 24  1  1  0
  1  2  2  0
  2  3  1  0
  3  4  2  0
  4  5  1  0
  5  6  2  0
  6  7  1  0
  7  8  1  0
  8  9  1  0
  8 10  2  0
 10 11  1  0
 11 12  2  0
 12 13  1  0
 15 13  1  0
 15 16  1  0
 16 17  1  0
 17 18  1  0
 18 21  1  0
 21 22  3  0
 18 19  1  0
 19 20  1  0
 13  1  1  0
 20 15  1  0
 12  3  1  0
 11  6  1  0
 25 26  1  0
  7 14  1  0
M  END
> <minimizedAffinity>
-7.98827

> <CNNscore>
0.7434549332

> <CNNaffinity>
7.1797504425

> <CNN_VS>
5.3378210068

> <CNNaffinity_variance>
0.0894251838

$$$$



 26 29  0  0  0  0  0  0  0  0999 V2000
    5.0923   58.3997    0.6874 C   0  0  0  0  0  0  0  0  0  0  0  0
    5.4309   59.5644    0.1581 N   0  0  0  0  0  0  0  0  0  0  0  0
    6.6868   59.3884   -0.3473 C   0  0  0  0  0  0  0  0  0  0  0  0
    7.5329   60.2831   -1.0271 C   0  0  0  0  0  0  0  0  0  0  0  0
    8.7718   59.9307   -1.4772 N   0  0  0  0  0  0  0  0  0  0  0  0
    9.1203   58.6591   -1.2273 C   0  0  0  0  0  0  0  0  0  0  0  0
   10.2934   58.0546   -1.5780 N   0  0  0  0  0  0  0  0  0  0  0  0
   10.2631   56.7556   -1.1533 C   0  0  0  0  0  0  0  0  0  0  0  0
   11.2481   55.8653   -1.3309 F   0  0  0  0  0  0  0  0  0  0  0  0
    9.0666   56.4995   -0.5173 C   0  0  0  0  0  0  0  0  0  0  0  0
    8.3509   57.7205   -0.5671 C   0  0  0  0  0  0  0  0  0  0  0  0
    7.1157   58.0905   -0.1127 C   0  0  0  0  0  0  0  0  0  0  0  0
    6.1232   57.4614    0.5631 N   0  0  0  0  0  0  0  0  0  0  0  0
   11.0384   58.4837   -2.0578 H   0  0  0  0  0  0  0  0  0  0  0  0
    6.0445   56.1079    1.1084 C   0  0  0  0  0  0  0  0  0  0  0  0
    6.1312   55.0156    0.0325 C   0  0  0  0  0  0  0  0  0  0  0  0
    6.0453   53.6121    0.6318 C   0  0  0  0  0  0  0  0  0  0  0  0
    7.0472   53.4073    1.7749 C   0  0  0  0  0  0  0  0  0  0  0  0
    6.8338   54.4579    2.8719 C   0  0  0  0  0  0  0  0  0  0  0  0
    6.9456   55.8839    2.3332 C   0  0  0  0  0  0  0  0  0  0  0  0
    6.9131   52.0497    2.3350 C   0  0  0  0  0  0  0  0  0  0  0  0
    6.8054   50.9800    2.7699 N   0  0  0  0  0  0  0  0  0  0  0  0
    3.4742   56.6782    1.5196 C   0  0  0  0  0  0  0  0  0  0  0  0
    3.7520   58.1599    1.3265 C   0  0  0  0  0  0  0  0  0  0  0  0
    3.7890   58.7793    2.6147 O   0  0  0  0  0  0  0  0  0  0  0  0
    4.4985   58.3826    3.1440 H   0  0  0  0  0  0  0  0  0  0  0  0
 24 23  1  0
 24 25  1  0
 24  1  1  0
  1  2  2  0
  2  3  1  0
  3  4  2  0
  4  5  1  0
  5  6  2  0
  6  7  1  0
  7  8  1  0
  8  9  1  0
  8 10  2  0
 10 11  1  0
 11 12  2  0
 12 13  1  0
 15 13  1  0
 15 16  1  0
 16 17  1  0
 17 18  1  0
 18 21  1  0
 21 22  3  0
 18 19  1  0
 19 20  1  0
 13  1  1  0
 20 15  1  0
 12  3  1  0
 11  6  1  0
 25 26  1  0
  7 14  1  0
M  END
> <minimizedAffinity>
-8.83195

> <CNNscore>
0.7243079543

> <CNNaffinity>
7.3310356140

> <CNN_VS>
5.3099274635

> <CNNaffinity_variance>
0.2579694986

$$$$



 26 29  0  0  0  0  0  0  0  0999 V2000
    8.8169   57.3966   -0.7559 C   0  0  0  0  0  0  0  0  0  0  0  0
    8.3914   58.6387   -0.9218 N   0  0  0  0  0  0  0  0  0  0  0  0
    7.1282   58.6677   -0.4051 C   0  0  0  0  0  0  0  0  0  0  0  0
    6.2057   59.7248   -0.3030 C   0  0  0  0  0  0  0  0  0  0  0  0
    4.9717   59.5763    0.2598 N   0  0  0  0  0  0  0  0  0  0  0  0
    4.7065   58.3427    0.7164 C   0  0  0  0  0  0  0  0  0  0  0  0
    3.5563   57.9328    1.3279 N   0  0  0  0  0  0  0  0  0  0  0  0
    3.6776   56.6103    1.6521 C   0  0  0  0  0  0  0  0  0  0  0  0
    2.7384   55.8803    2.2680 F   0  0  0  0  0  0  0  0  0  0  0  0
    4.9115   56.1421    1.2520 C   0  0  0  0  0  0  0  0  0  0  0  0
    5.5540   57.2534    0.6537 C   0  0  0  0  0  0  0  0  0  0  0  0
    6.7835   57.4142    0.0780 C   0  0  0  0  0  0  0  0  0  0  0  0
    7.8367   56.5947   -0.1601 N   0  0  0  0  0  0  0  0  0  0  0  0
    2.7694   58.4969    1.5060 H   0  0  0  0  0  0  0  0  0  0  0  0
    8.0142   55.1660    0.0904 C   0  0  0  0  0  0  0  0  0  0  0  0
    9.4862   54.7567    0.2454 C   0  0  0  0  0  0  0  0  0  0  0  0
    9.6407   53.2584    0.5053 C   0  0  0  0  0  0  0  0  0  0  0  0
    8.7603   52.7773    1.6655 C   0  0  0  0  0  0  0  0  0  0  0  0
    7.2875   53.1122    1.3978 C   0  0  0  0  0  0  0  0  0  0  0  0
    7.0697   54.6072    1.1665 C   0  0  0  0  0  0  0  0  0  0  0  0
    8.9259   51.3256    1.8648 C   0  0  0  0  0  0  0  0  0  0  0  0
    9.0548   50.1828    2.0155 N   0  0  0  0  0  0  0  0  0  0  0  0
   10.5139   57.3494   -2.5978 C   0  0  0  0  0  0  0  0  0  0  0  0
   10.1933   56.9506   -1.1666 C   0  0  0  0  0  0  0  0  0  0  0  0
   11.1200   57.6107   -0.3005 O   0  0  0  0  0  0  0  0  0  0  0  0
   11.0261   58.5711   -0.3982 H   0  0  0  0  0  0  0  0  0  0  0  0
 24 23  1  0
 24 25  1  0
 24  1  1  0
  1  2  2  0
  2  3  1  0
  3  4  2  0
  4  5  1  0
  5  6  2  0
  6  7  1  0
  7  8  1  0
  8  9  1  0
  8 10  2  0
 10 11  1  0
 11 12  2  0
 12 13  1  0
 15 13  1  0
 15 16  1  0
 16 17  1  0
 17 18  1  0
 18 21  1  0
 21 22  3  0
 18 19  1  0
 19 20  1  0
 13  1  1  0
 20 15  1  0
 12  3  1  0
 11  6  1  0
 25 26  1  0
  7 14  1  0
M  END
> <minimizedAffinity>
-8.49014

> <CNNscore>
0.6388610005

> <CNNaffinity>
7.1188640594

> <CNN_VS>
4.5479645729

> <CNNaffinity_variance>
0.0322484933

$$$$



 26 29  0  0  0  0  0  0  0  0999 V2000
   10.3026   54.7843    0.2347 C   0  0  0  0  0  0  0  0  0  0  0  0
   10.8044   55.8016   -0.4470 N   0  0  0  0  0  0  0  0  0  0  0  0
    9.7900   56.7086   -0.5559 C   0  0  0  0  0  0  0  0  0  0  0  0
    9.7566   57.9743   -1.1686 C   0  0  0  0  0  0  0  0  0  0  0  0
    8.6431   58.7628   -1.1746 N   0  0  0  0  0  0  0  0  0  0  0  0
    7.5804   58.2401   -0.5434 C   0  0  0  0  0  0  0  0  0  0  0  0
    6.3548   58.8241   -0.3965 N   0  0  0  0  0  0  0  0  0  0  0  0
    5.5473   57.9796    0.3130 C   0  0  0  0  0  0  0  0  0  0  0  0
    4.2746   58.2318    0.6462 F   0  0  0  0  0  0  0  0  0  0  0  0
    6.2398   56.8314    0.6353 C   0  0  0  0  0  0  0  0  0  0  0  0
    7.5306   57.0082    0.0801 C   0  0  0  0  0  0  0  0  0  0  0  0
    8.6507   56.2245    0.0696 C   0  0  0  0  0  0  0  0  0  0  0  0
    8.9564   54.9959    0.5538 N   0  0  0  0  0  0  0  0  0  0  0  0
    6.0955   59.7079   -0.7443 H   0  0  0  0  0  0  0  0  0  0  0  0
    8.1351   54.0113    1.2549 C   0  0  0  0  0  0  0  0  0  0  0  0
    7.0401   54.6456    2.1250 C   0  0  0  0  0  0  0  0  0  0  0  0
    6.1988   53.5928    2.8460 C   0  0  0  0  0  0  0  0  0  0  0  0
    5.6575   52.5259    1.8861 C   0  0  0  0  0  0  0  0  0  0  0  0
    6.8081   51.8482    1.1312 C   0  0  0  0  0  0  0  0  0  0  0  0
    7.6627   52.8541    0.3606 C   0  0  0  0  0  0  0  0  0  0  0  0
    4.8721   51.5221    2.6278 C   0  0  0  0  0  0  0  0  0  0  0  0
    4.2519   50.7372    3.2148 N   0  0  0  0  0  0  0  0  0  0  0  0
   11.8504   52.9996   -0.5982 C   0  0  0  0  0  0  0  0  0  0  0  0
   11.1181   53.5753    0.6028 C   0  0  0  0  0  0  0  0  0  0  0  0
   12.0927   54.0059    1.5564 O   0  0  0  0  0  0  0  0  0  0  0  0
   12.6530   54.6909    1.1593 H   0  0  0  0  0  0  0  0  0  0  0  0
 24 23  1  0
 24 25  1  0
 24  1  1  0
  1  2  2  0
  2  3  1  0
  3  4  2  0
  4  5  1  0
  5  6  2  0
  6  7  1  0
  7  8  1  0
  8  9  1  0
  8 10  2  0
 10 11  1  0
 11 12  2  0
 12 13  1  0
 15 13  1  0
 15 16  1  0
 16 17  1  0
 17 18  1  0
 18 21  1  0
 21 22  3  0
 18 19  1  0
 19 20  1  0
 13  1  1  0
 20 15  1  0
 12  3  1  0
 11  6  1  0
 25 26  1  0
  7 14  1  0
M  END
> <minimizedAffinity>
-8.28457

> <CNNscore>
0.3201453090

> <CNNaffinity>
6.3881077766

> <CNN_VS>
2.0451226234

> <CNNaffinity_variance>
0.2342954874

$$$$



 26 29  0  0  0  0  0  0  0  0999 V2000
    9.2463   55.4161    0.4237 C   0  0  0  0  0  0  0  0  0  0  0  0
    8.2866   54.8879    1.1662 N   0  0  0  0  0  0  0  0  0  0  0  0
    7.2943   55.8246    1.2070 C   0  0  0  0  0  0  0  0  0  0  0  0
    6.0386   55.7999    1.8403 C   0  0  0  0  0  0  0  0  0  0  0  0
    5.1543   56.8364    1.7677 N   0  0  0  0  0  0  0  0  0  0  0  0
    5.5721   57.8821    1.0378 C   0  0  0  0  0  0  0  0  0  0  0  0
    4.8795   59.0345    0.7992 N   0  0  0  0  0  0  0  0  0  0  0  0
    5.6396   59.8485    0.0066 C   0  0  0  0  0  0  0  0  0  0  0  0
    5.2709   61.0606   -0.4285 F   0  0  0  0  0  0  0  0  0  0  0  0
    6.8406   59.2340   -0.2791 C   0  0  0  0  0  0  0  0  0  0  0  0
    6.7866   57.9856    0.3874 C   0  0  0  0  0  0  0  0  0  0  0  0
    7.6670   56.9435    0.4771 C   0  0  0  0  0  0  0  0  0  0  0  0
    8.9117   56.7059   -0.0043 N   0  0  0  0  0  0  0  0  0  0  0  0
    3.9807   59.2446    1.1417 H   0  0  0  0  0  0  0  0  0  0  0  0
    9.8101   57.5465   -0.7927 C   0  0  0  0  0  0  0  0  0  0  0  0
   10.7815   56.7405   -1.6675 C   0  0  0  0  0  0  0  0  0  0  0  0
   11.7083   57.6453   -2.4790 C   0  0  0  0  0  0  0  0  0  0  0  0
   10.9351   58.7098   -3.2674 C   0  0  0  0  0  0  0  0  0  0  0  0
   10.0724   59.5571   -2.3237 C   0  0  0  0  0  0  0  0  0  0  0  0
    9.0986   58.7037   -1.5116 C   0  0  0  0  0  0  0  0  0  0  0  0
   11.8697   59.5706   -4.0159 C   0  0  0  0  0  0  0  0  0  0  0  0
   12.6001   60.2489   -4.6089 N   0  0  0  0  0  0  0  0  0  0  0  0
   11.1977   54.1503    1.3534 C   0  0  0  0  0  0  0  0  0  0  0  0
   10.5183   54.6808    0.1017 C   0  0  0  0  0  0  0  0  0  0  0  0
   10.1579   53.5659   -0.7179 O   0  0  0  0  0  0  0  0  0  0  0  0
    9.5430   52.9935   -0.2330 H   0  0  0  0  0  0  0  0  0  0  0  0
 24 23  1  0
 24 25  1  0
 24  1  1  0
  1  2  2  0
  2  3  1  0
  3  4  2  0
  4  5  1  0
  5  6  2  0
  6  7  1  0
  7  8  1  0
  8  9  1  0
  8 10  2  0
 10 11  1  0
 11 12  2  0
 12 13  1  0
 15 13  1  0
 15 16  1  0
 16 17  1  0
 17 18  1  0
 18 21  1  0
 21 22  3  0
 18 19  1  0
 19 20  1  0
 13  1  1  0
 20 15  1  0
 12  3  1  0
 11  6  1  0
 25 26  1  0
  7 14  1  0
M  END
> <minimizedAffinity>
-8.78976

> <CNNscore>
0.2909977138

> <CNNaffinity>
5.5888977051

> <CNN_VS>
1.6263564825

> <CNNaffinity_variance>
0.6617581248

$$$$



 26 29  0  0  0  0  0  0  0  0999 V2000
    7.2730   59.2734   -0.3797 C   0  0  0  0  0  0  0  0  0  0  0  0
    7.7929   60.2665   -1.0829 N   0  0  0  0  0  0  0  0  0  0  0  0
    8.9102   59.7529   -1.6759 C   0  0  0  0  0  0  0  0  0  0  0  0
    9.8444   60.3518   -2.5402 C   0  0  0  0  0  0  0  0  0  0  0  0
   10.9132   59.6773   -3.0543 N   0  0  0  0  0  0  0  0  0  0  0  0
   11.0019   58.3926   -2.6769 C   0  0  0  0  0  0  0  0  0  0  0  0
   11.9637   57.4997   -3.0545 N   0  0  0  0  0  0  0  0  0  0  0  0
   11.7004   56.2944   -2.4657 C   0  0  0  0  0  0  0  0  0  0  0  0
   12.4381   55.1867   -2.6183 F   0  0  0  0  0  0  0  0  0  0  0  0
   10.5616   56.3898   -1.6940 C   0  0  0  0  0  0  0  0  0  0  0  0
   10.1300   57.7314   -1.8333 C   0  0  0  0  0  0  0  0  0  0  0  0
    9.0692   58.4225   -1.3176 C   0  0  0  0  0  0  0  0  0  0  0  0
    8.0509   58.1141   -0.4777 N   0  0  0  0  0  0  0  0  0  0  0  0
   12.7218   57.6924   -3.6522 H   0  0  0  0  0  0  0  0  0  0  0  0
    7.7433   56.8798    0.2416 C   0  0  0  0  0  0  0  0  0  0  0  0
    7.0781   55.8140   -0.6415 C   0  0  0  0  0  0  0  0  0  0  0  0
    6.7676   54.5361    0.1373 C   0  0  0  0  0  0  0  0  0  0  0  0
    7.9916   54.0067    0.8950 C   0  0  0  0  0  0  0  0  0  0  0  0
    8.5401   55.0781    1.8460 C   0  0  0  0  0  0  0  0  0  0  0  0
    8.9025   56.3688    1.1119 C   0  0  0  0  0  0  0  0  0  0  0  0
    7.6396   52.7882    1.6471 C   0  0  0  0  0  0  0  0  0  0  0  0
    7.3611   51.8333    2.2437 N   0  0  0  0  0  0  0  0  0  0  0  0
    5.5294   60.8626    0.4622 C   0  0  0  0  0  0  0  0  0  0  0  0
    5.9989   59.4182    0.4065 C   0  0  0  0  0  0  0  0  0  0  0  0
    5.0020   58.6500   -0.2723 O   0  0  0  0  0  0  0  0  0  0  0  0
    4.8904   58.9897   -1.1740 H   0  0  0  0  0  0  0  0  0  0  0  0
 24 23  1  0
 24 25  1  0
 24  1  1  0
  1  2  2  0
  2  3  1  0
  3  4  2  0
  4  5  1  0
  5  6  2  0
  6  7  1  0
  7  8  1  0
  8  9  1  0
  8 10  2  0
 10 11  1  0
 11 12  2  0
 12 13  1  0
 15 13  1  0
 15 16  1  0
 16 17  1  0
 17 18  1  0
 18 21  1  0
 21 22  3  0
 18 19  1  0
 19 20  1  0
 13  1  1  0
 20 15  1  0
 12  3  1  0
 11  6  1  0
 25 26  1  0
  7 14  1  0
M  END
> <minimizedAffinity>
-7.51272

> <CNNscore>
0.2703259885

> <CNNaffinity>
6.2016940117

> <CNN_VS>
1.6764791012

> <CNNaffinity_variance>
0.1937967688

$$$$
