


 20 20  0  0  0  0  0  0  0  0999 V2000
  -26.5158    0.1940   26.8428 C   0  0  0  0  0  0  0  0  0  0  0  0
  -25.5577    1.2303   27.4637 C   0  0  0  0  0  0  0  0  0  0  0  0
  -25.4171    0.9348   28.8604 O   0  0  0  0  0  0  0  0  0  0  0  0
  -26.1312    2.6508   27.2491 C   0  0  0  0  0  0  0  0  0  0  0  0
  -27.4330    2.7116   28.0111 N   0  0  0  0  0  0  0  0  0  0  0  0
  -28.4612    1.6800   27.6181 C   0  0  0  0  0  0  0  0  0  0  0  0
  -27.8833    0.2518   27.5755 C   0  0  0  0  0  0  0  0  0  0  0  0
  -26.2869    0.9725   29.2881 H   0  0  0  0  0  0  0  0  0  0  0  0
  -27.8411    3.6347   27.8638 H   0  0  0  0  0  0  0  0  0  0  0  0
  -27.1984    2.5181   28.9847 H   0  0  0  0  0  0  0  0  0  0  0  0
  -25.2117    3.7471   27.8186 C   0  0  0  0  0  0  0  0  0  0  0  0
  -25.3187    3.7667   29.2443 O   0  0  0  0  0  0  0  0  0  0  0  0
  -26.2367    3.9516   29.4971 H   0  0  0  0  0  0  0  0  0  0  0  0
  -29.1643    2.1726   26.3406 C   0  0  0  0  0  0  0  0  0  0  0  0
  -29.1945    3.6110   26.3967 O   0  0  0  0  0  0  0  0  0  0  0  0
  -29.6704    3.8936   27.1933 H   0  0  0  0  0  0  0  0  0  0  0  0
  -26.4971   -0.6144   24.5903 C   0  0  0  0  0  0  0  0  0  0  0  0
  -26.6276    0.5156   25.4497 O   0  0  0  0  0  0  0  0  0  0  0  0
  -28.8627   -0.6157   26.9916 O   0  0  0  0  0  0  0  0  0  0  0  0
  -30.0330   -0.7676   27.7922 C   0  0  0  0  0  0  0  0  0  0  0  0
 17 18  1  0
 18  1  1  0
  1  2  1  0
  2  3  1  0
  2  4  1  0
  4 11  1  0
 11 12  1  0
  4  5  1  0
  5  6  1  0
  6 14  1  0
 14 15  1  0
  6  7  1  0
  7 19  1  0
 19 20  1  0
  7  1  1  0
  3  8  1  0
 12 13  1  0
  5  9  1  0
  5 10  1  0
 15 16  1  0
M  CHG 1   5   1
M  END
> <minimizedAffinity>
-6.10968

> <CNNscore>
0.6987827420

> <CNNaffinity>
5.6691474915

> <CNN_VS>
3.9615023136

> <CNNaffinity_variance>
0.3753728867

$$$$



 20 20  0  0  0  0  0  0  0  0999 V2000
  -26.7316   -0.1823   26.4845 C   0  0  0  0  0  0  0  0  0  0  0  0
  -25.8189    0.9187   27.0609 C   0  0  0  0  0  0  0  0  0  0  0  0
  -25.4734    0.5600   28.4062 O   0  0  0  0  0  0  0  0  0  0  0  0
  -26.5626    2.2743   27.0186 C   0  0  0  0  0  0  0  0  0  0  0  0
  -27.7576    2.1411   27.9316 N   0  0  0  0  0  0  0  0  0  0  0  0
  -28.7113    1.0233   27.5895 C   0  0  0  0  0  0  0  0  0  0  0  0
  -27.9946   -0.3244   27.3760 C   0  0  0  0  0  0  0  0  0  0  0  0
  -26.2817    0.4728   28.9353 H   0  0  0  0  0  0  0  0  0  0  0  0
  -28.2769    3.0185   27.9004 H   0  0  0  0  0  0  0  0  0  0  0  0
  -27.3834    1.9190   28.8541 H   0  0  0  0  0  0  0  0  0  0  0  0
  -25.7010    3.4335   27.5529 C   0  0  0  0  0  0  0  0  0  0  0  0
  -25.7089    3.4144   28.9826 O   0  0  0  0  0  0  0  0  0  0  0  0
  -26.6192    3.5147   29.3022 H   0  0  0  0  0  0  0  0  0  0  0  0
  -29.6176    1.5062   26.4430 C   0  0  0  0  0  0  0  0  0  0  0  0
  -30.8035    0.6900   26.4628 O   0  0  0  0  0  0  0  0  0  0  0  0
  -30.5570   -0.2413   26.3499 H   0  0  0  0  0  0  0  0  0  0  0  0
  -26.5199   -0.6728   24.1517 C   0  0  0  0  0  0  0  0  0  0  0  0
  -27.0509    0.2054   25.1412 O   0  0  0  0  0  0  0  0  0  0  0  0
  -28.9417   -1.2626   26.8510 O   0  0  0  0  0  0  0  0  0  0  0  0
  -28.5414   -2.6216   27.0135 C   0  0  0  0  0  0  0  0  0  0  0  0
 17 18  1  0
 18  1  1  0
  1  2  1  0
  2  3  1  0
  2  4  1  0
  4 11  1  0
 11 12  1  0
  4  5  1  0
  5  6  1  0
  6 14  1  0
 14 15  1  0
  6  7  1  0
  7 19  1  0
 19 20  1  0
  7  1  1  0
  3  8  1  0
 12 13  1  0
  5  9  1  0
  5 10  1  0
 15 16  1  0
M  CHG 1   5   1
M  END
> <minimizedAffinity>
-5.16359

> <CNNscore>
0.3427217901

> <CNNaffinity>
4.7988376617

> <CNN_VS>
1.6446661949

> <CNNaffinity_variance>
0.0904693007

$$$$



 20 20  0  0  0  0  0  0  0  0999 V2000
  -25.9707   -0.8843   26.2598 C   0  0  0  0  0  0  0  0  0  0  0  0
  -26.5442   -1.0411   24.8371 C   0  0  0  0  0  0  0  0  0  0  0  0
  -25.9433   -0.0463   23.9962 O   0  0  0  0  0  0  0  0  0  0  0  0
  -28.0816   -0.8774   24.8840 C   0  0  0  0  0  0  0  0  0  0  0  0
  -28.3525    0.5370   25.3371 N   0  0  0  0  0  0  0  0  0  0  0  0
  -27.7569    0.9140   26.6709 C   0  0  0  0  0  0  0  0  0  0  0  0
  -26.2633    0.5493   26.7787 C   0  0  0  0  0  0  0  0  0  0  0  0
  -26.1382    0.8359   24.3491 H   0  0  0  0  0  0  0  0  0  0  0  0
  -29.3633    0.6599   25.3977 H   0  0  0  0  0  0  0  0  0  0  0  0
  -27.9067    1.1432   24.6485 H   0  0  0  0  0  0  0  0  0  0  0  0
  -28.7327   -1.0508   23.4992 C   0  0  0  0  0  0  0  0  0  0  0  0
  -28.2856   -0.0092   22.6277 O   0  0  0  0  0  0  0  0  0  0  0  0
  -28.5369    0.8517   22.9972 H   0  0  0  0  0  0  0  0  0  0  0  0
  -28.6776    0.3641   27.7749 C   0  0  0  0  0  0  0  0  0  0  0  0
  -28.3857    1.0968   28.9794 O   0  0  0  0  0  0  0  0  0  0  0  0
  -27.4505    0.9815   29.2094 H   0  0  0  0  0  0  0  0  0  0  0  0
  -26.1586   -3.2183   26.7546 C   0  0  0  0  0  0  0  0  0  0  0  0
  -26.5870   -1.8954   27.0688 O   0  0  0  0  0  0  0  0  0  0  0  0
  -25.8466    0.7441   28.1357 O   0  0  0  0  0  0  0  0  0  0  0  0
  -25.1791    1.9859   28.3498 C   0  0  0  0  0  0  0  0  0  0  0  0
 17 18  1  0
 18  1  1  0
  1  2  1  0
  2  3  1  0
  2  4  1  0
  4 11  1  0
 11 12  1  0
  4  5  1  0
  5  6  1  0
  6 14  1  0
 14 15  1  0
  6  7  1  0
  7 19  1  0
 19 20  1  0
  7  1  1  0
  3  8  1  0
 12 13  1  0
  5  9  1  0
  5 10  1  0
 15 16  1  0
M  CHG 1   5   1
M  END
> <minimizedAffinity>
-5.97009

> <CNNscore>
0.2747752070

> <CNNaffinity>
3.1439807415

> <CNN_VS>
0.8638879657

> <CNNaffinity_variance>
1.0979422331

$$$$



 20 20  0  0  0  0  0  0  0  0999 V2000
  -26.6146    0.4315   26.1744 C   0  0  0  0  0  0  0  0  0  0  0  0
  -28.0360   -0.1463   26.0225 C   0  0  0  0  0  0  0  0  0  0  0  0
  -28.7396    0.6368   25.0481 O   0  0  0  0  0  0  0  0  0  0  0  0
  -28.7533   -0.1082   27.3923 C   0  0  0  0  0  0  0  0  0  0  0  0
  -28.8852    1.3472   27.7714 N   0  0  0  0  0  0  0  0  0  0  0  0
  -27.5889    2.1147   27.8510 C   0  0  0  0  0  0  0  0  0  0  0  0
  -26.7063    1.9210   26.6024 C   0  0  0  0  0  0  0  0  0  0  0  0
  -28.7747    1.5611   25.3402 H   0  0  0  0  0  0  0  0  0  0  0  0
  -29.3358    1.3948   28.6852 H   0  0  0  0  0  0  0  0  0  0  0  0
  -29.4255    1.7844   27.0249 H   0  0  0  0  0  0  0  0  0  0  0  0
  -30.1741   -0.6985   27.3275 C   0  0  0  0  0  0  0  0  0  0  0  0
  -31.0801    0.2911   26.8334 O   0  0  0  0  0  0  0  0  0  0  0  0
  -31.0759    1.0584   27.4268 H   0  0  0  0  0  0  0  0  0  0  0  0
  -26.9337    1.8014   29.2081 C   0  0  0  0  0  0  0  0  0  0  0  0
  -26.4256    3.0416   29.7341 O   0  0  0  0  0  0  0  0  0  0  0  0
  -25.7848    3.4186   29.1111 H   0  0  0  0  0  0  0  0  0  0  0  0
  -25.5718   -1.6663   26.6642 C   0  0  0  0  0  0  0  0  0  0  0  0
  -25.9405   -0.3771   27.1484 O   0  0  0  0  0  0  0  0  0  0  0  0
  -25.4233    2.5044   26.8599 O   0  0  0  0  0  0  0  0  0  0  0  0
  -25.3769    3.9061   26.6017 C   0  0  0  0  0  0  0  0  0  0  0  0
 17 18  1  0
 18  1  1  0
  1  2  1  0
  2  3  1  0
  2  4  1  0
  4 11  1  0
 11 12  1  0
  4  5  1  0
  5  6  1  0
  6 14  1  0
 14 15  1  0
  6  7  1  0
  7 19  1  0
 19 20  1  0
  7  1  1  0
  3  8  1  0
 12 13  1  0
  5  9  1  0
  5 10  1  0
 15 16  1  0
M  CHG 1   5   1
M  END
> <minimizedAffinity>
-5.16544

> <CNNscore>
0.2645192444

> <CNNaffinity>
3.3698999882

> <CNN_VS>
0.8914033771

> <CNNaffinity_variance>
0.7894217372

$$$$



 20 20  0  0  0  0  0  0  0  0999 V2000
  -33.3482    2.6503   20.0411 C   0  0  0  0  0  0  0  0  0  0  0  0
  -33.5616    4.0990   20.5240 C   0  0  0  0  0  0  0  0  0  0  0  0
  -33.1652    4.9887   19.4709 O   0  0  0  0  0  0  0  0  0  0  0  0
  -32.7257    4.3407   21.8028 C   0  0  0  0  0  0  0  0  0  0  0  0
  -31.2763    4.1956   21.4063 N   0  0  0  0  0  0  0  0  0  0  0  0
  -30.9031    2.8681   20.7944 C   0  0  0  0  0  0  0  0  0  0  0  0
  -31.8572    2.4483   19.6590 C   0  0  0  0  0  0  0  0  0  0  0  0
  -32.2331    4.8343   19.2509 H   0  0  0  0  0  0  0  0  0  0  0  0
  -30.7065    4.3283   22.2418 H   0  0  0  0  0  0  0  0  0  0  0  0
  -31.1113    4.8952   20.6826 H   0  0  0  0  0  0  0  0  0  0  0  0
  -32.9101    5.7628   22.3644 C   0  0  0  0  0  0  0  0  0  0  0  0
  -34.1553    6.2980   21.9090 O   0  0  0  0  0  0  0  0  0  0  0  0
  -34.1579    6.3308   20.9395 H   0  0  0  0  0  0  0  0  0  0  0  0
  -30.7112    1.8552   21.9373 C   0  0  0  0  0  0  0  0  0  0  0  0
  -29.5848    1.0281   21.5909 O   0  0  0  0  0  0  0  0  0  0  0  0
  -29.7592    0.5808   20.7480 H   0  0  0  0  0  0  0  0  0  0  0  0
  -34.8784    0.9693   20.7899 C   0  0  0  0  0  0  0  0  0  0  0  0
  -33.7594    1.7913   21.1134 O   0  0  0  0  0  0  0  0  0  0  0  0
  -31.5566    1.0964   19.2917 O   0  0  0  0  0  0  0  0  0  0  0  0
  -32.2214    0.6717   18.1038 C   0  0  0  0  0  0  0  0  0  0  0  0
 17 18  1  0
 18  1  1  0
  1  2  1  0
  2  3  1  0
  2  4  1  0
  4 11  1  0
 11 12  1  0
  4  5  1  0
  5  6  1  0
  6 14  1  0
 14 15  1  0
  6  7  1  0
  7 19  1  0
 19 20  1  0
  7  1  1  0
  3  8  1  0
 12 13  1  0
  5  9  1  0
  5 10  1  0
 15 16  1  0
M  CHG 1   5   1
M  END
> <minimizedAffinity>
-3.66658

> <CNNscore>
0.2571755350

> <CNNaffinity>
2.7999725342

> <CNN_VS>
0.7200844288

> <CNNaffinity_variance>
0.4845510423

$$$$



 20 20  0  0  0  0  0  0  0  0999 V2000
  -32.1810   -7.6769   36.2148 C   0  0  0  0  0  0  0  0  0  0  0  0
  -31.0052   -7.3379   37.1528 C   0  0  0  0  0  0  0  0  0  0  0  0
  -31.4822   -7.3731   38.5052 O   0  0  0  0  0  0  0  0  0  0  0  0
  -30.4502   -5.9396   36.7932 C   0  0  0  0  0  0  0  0  0  0  0  0
  -31.5579   -4.9509   37.0664 N   0  0  0  0  0  0  0  0  0  0  0  0
  -32.8446   -5.1985   36.3188 C   0  0  0  0  0  0  0  0  0  0  0  0
  -33.3297   -6.6566   36.4381 C   0  0  0  0  0  0  0  0  0  0  0  0
  -32.2015   -6.7310   38.6112 H   0  0  0  0  0  0  0  0  0  0  0  0
  -31.2205   -4.0222   36.8133 H   0  0  0  0  0  0  0  0  0  0  0  0
  -31.7844   -5.0488   38.0562 H   0  0  0  0  0  0  0  0  0  0  0  0
  -29.2494   -5.5411   37.6712 C   0  0  0  0  0  0  0  0  0  0  0  0
  -28.6282   -6.7185   38.1930 O   0  0  0  0  0  0  0  0  0  0  0  0
  -29.2693   -7.2126   38.7276 H   0  0  0  0  0  0  0  0  0  0  0  0
  -32.6787   -4.6465   34.8917 C   0  0  0  0  0  0  0  0  0  0  0  0
  -32.4027   -3.2382   35.0073 O   0  0  0  0  0  0  0  0  0  0  0  0
  -33.1343   -2.8024   35.4719 H   0  0  0  0  0  0  0  0  0  0  0  0
  -32.0139   -8.7822   34.0987 C   0  0  0  0  0  0  0  0  0  0  0  0
  -31.6677   -7.6386   34.8762 O   0  0  0  0  0  0  0  0  0  0  0  0
  -34.4235   -6.8454   35.5321 O   0  0  0  0  0  0  0  0  0  0  0  0
  -35.6852   -6.4742   36.0833 C   0  0  0  0  0  0  0  0  0  0  0  0
 17 18  1  0
 18  1  1  0
  1  2  1  0
  2  3  1  0
  2  4  1  0
  4 11  1  0
 11 12  1  0
  4  5  1  0
  5  6  1  0
  6 14  1  0
 14 15  1  0
  6  7  1  0
  7 19  1  0
 19 20  1  0
  7  1  1  0
  3  8  1  0
 12 13  1  0
  5  9  1  0
  5 10  1  0
 15 16  1  0
M  CHG 1   5   1
M  END
> <minimizedAffinity>
-3.99004

> <CNNscore>
0.2487597018

> <CNNaffinity>
2.6520364285

> <CNN_VS>
0.6597197652

> <CNNaffinity_variance>
0.8287178874

$$$$



 20 20  0  0  0  0  0  0  0  0999 V2000
  -31.4050   -0.2974   21.1086 C   0  0  0  0  0  0  0  0  0  0  0  0
  -30.3893   -0.9762   20.1679 C   0  0  0  0  0  0  0  0  0  0  0  0
  -29.2955   -1.4611   20.9593 O   0  0  0  0  0  0  0  0  0  0  0  0
  -29.9046    0.0469   19.1138 C   0  0  0  0  0  0  0  0  0  0  0  0
  -29.1790    1.1348   19.8682 N   0  0  0  0  0  0  0  0  0  0  0  0
  -29.9899    1.8377   20.9285 C   0  0  0  0  0  0  0  0  0  0  0  0
  -30.7056    0.8560   21.8771 C   0  0  0  0  0  0  0  0  0  0  0  0
  -28.8840   -0.7200   21.4308 H   0  0  0  0  0  0  0  0  0  0  0  0
  -28.8704    1.8340   19.1928 H   0  0  0  0  0  0  0  0  0  0  0  0
  -28.4132    0.6736   20.3594 H   0  0  0  0  0  0  0  0  0  0  0  0
  -28.9057   -0.5674   18.1157 C   0  0  0  0  0  0  0  0  0  0  0  0
  -27.6588    0.1273   18.1997 O   0  0  0  0  0  0  0  0  0  0  0  0
  -27.7952    1.0635   17.9854 H   0  0  0  0  0  0  0  0  0  0  0  0
  -30.8760    2.8859   20.2320 C   0  0  0  0  0  0  0  0  0  0  0  0
  -30.0882    3.4847   19.1861 O   0  0  0  0  0  0  0  0  0  0  0  0
  -29.2958    3.8912   19.5706 H   0  0  0  0  0  0  0  0  0  0  0  0
  -33.4341   -0.8443   19.9634 C   0  0  0  0  0  0  0  0  0  0  0  0
  -32.4841    0.1683   20.2866 O   0  0  0  0  0  0  0  0  0  0  0  0
  -31.6092    1.6013   22.7021 O   0  0  0  0  0  0  0  0  0  0  0  0
  -32.1645    0.8348   23.7688 C   0  0  0  0  0  0  0  0  0  0  0  0
 17 18  1  0
 18  1  1  0
  1  2  1  0
  2  3  1  0
  2  4  1  0
  4 11  1  0
 11 12  1  0
  4  5  1  0
  5  6  1  0
  6 14  1  0
 14 15  1  0
  6  7  1  0
  7 19  1  0
 19 20  1  0
  7  1  1  0
  3  8  1  0
 12 13  1  0
  5  9  1  0
  5 10  1  0
 15 16  1  0
M  CHG 1   5   1
M  END
> <minimizedAffinity>
-3.81479

> <CNNscore>
0.2313306481

> <CNNaffinity>
2.0900328159

> <CNN_VS>
0.4834886491

> <CNNaffinity_variance>
1.5571535826

$$$$



 20 20  0  0  0  0  0  0  0  0999 V2000
  -28.4689   -0.8199   26.0895 C   0  0  0  0  0  0  0  0  0  0  0  0
  -29.5485   -0.0587   25.2943 C   0  0  0  0  0  0  0  0  0  0  0  0
  -28.9600    0.4168   24.0755 O   0  0  0  0  0  0  0  0  0  0  0  0
  -30.0833    1.1137   26.1499 C   0  0  0  0  0  0  0  0  0  0  0  0
  -28.9228    2.0542   26.3690 N   0  0  0  0  0  0  0  0  0  0  0  0
  -27.7136    1.4452   27.0342 C   0  0  0  0  0  0  0  0  0  0  0  0
  -27.2709    0.1269   26.3695 C   0  0  0  0  0  0  0  0  0  0  0  0
  -28.2125    0.9991   24.2830 H   0  0  0  0  0  0  0  0  0  0  0  0
  -29.2482    2.8251   26.9524 H   0  0  0  0  0  0  0  0  0  0  0  0
  -28.6167    2.3442   25.4402 H   0  0  0  0  0  0  0  0  0  0  0  0
  -31.1908    1.9070   25.4318 C   0  0  0  0  0  0  0  0  0  0  0  0
  -30.7882    3.2722   25.2956 O   0  0  0  0  0  0  0  0  0  0  0  0
  -30.6357    3.6536   26.1744 H   0  0  0  0  0  0  0  0  0  0  0  0
  -27.9808    1.3923   28.5491 C   0  0  0  0  0  0  0  0  0  0  0  0
  -26.7028    1.4386   29.2105 O   0  0  0  0  0  0  0  0  0  0  0  0
  -26.1614    0.6876   28.9209 H   0  0  0  0  0  0  0  0  0  0  0  0
  -29.3284   -2.6903   27.3103 C   0  0  0  0  0  0  0  0  0  0  0  0
  -29.0923   -1.2845   27.2946 O   0  0  0  0  0  0  0  0  0  0  0  0
  -26.2651   -0.4787   27.1907 O   0  0  0  0  0  0  0  0  0  0  0  0
  -25.6505   -1.6152   26.5870 C   0  0  0  0  0  0  0  0  0  0  0  0
 17 18  1  0
 18  1  1  0
  1  2  1  0
  2  3  1  0
  2  4  1  0
  4 11  1  0
 11 12  1  0
  4  5  1  0
  5  6  1  0
  6 14  1  0
 14 15  1  0
  6  7  1  0
  7 19  1  0
 19 20  1  0
  7  1  1  0
  3  8  1  0
 12 13  1  0
  5  9  1  0
  5 10  1  0
 15 16  1  0
M  CHG 1   5   1
M  END
> <minimizedAffinity>
-5.40298

> <CNNscore>
0.2284569442

> <CNNaffinity>
2.8445217609

> <CNN_VS>
0.6498507261

> <CNNaffinity_variance>
1.2710249424

$$$$



 20 20  0  0  0  0  0  0  0  0999 V2000
  -30.7712    1.1836   19.1485 C   0  0  0  0  0  0  0  0  0  0  0  0
  -31.2437    2.5474   19.6909 C   0  0  0  0  0  0  0  0  0  0  0  0
  -30.2414    3.5268   19.3845 O   0  0  0  0  0  0  0  0  0  0  0  0
  -31.4709    2.4404   21.2172 C   0  0  0  0  0  0  0  0  0  0  0  0
  -30.1266    2.1391   21.8347 N   0  0  0  0  0  0  0  0  0  0  0  0
  -29.4483    0.8900   21.3296 C   0  0  0  0  0  0  0  0  0  0  0  0
  -29.4058    0.8182   19.7905 C   0  0  0  0  0  0  0  0  0  0  0  0
  -29.4007    3.2678   19.7932 H   0  0  0  0  0  0  0  0  0  0  0  0
  -30.2577    2.0409   22.8415 H   0  0  0  0  0  0  0  0  0  0  0  0
  -29.5175    2.9148   21.5746 H   0  0  0  0  0  0  0  0  0  0  0  0
  -31.9744    3.7606   21.8296 C   0  0  0  0  0  0  0  0  0  0  0  0
  -30.9599    4.7607   21.7078 O   0  0  0  0  0  0  0  0  0  0  0  0
  -30.1620    4.4707   22.1770 H   0  0  0  0  0  0  0  0  0  0  0  0
  -30.0724   -0.3159   22.0544 C   0  0  0  0  0  0  0  0  0  0  0  0
  -29.0579   -1.3339   22.1423 O   0  0  0  0  0  0  0  0  0  0  0  0
  -28.7614   -1.5726   21.2501 H   0  0  0  0  0  0  0  0  0  0  0  0
  -32.5789   -0.1611   18.3413 C   0  0  0  0  0  0  0  0  0  0  0  0
  -31.7971    0.2332   19.4662 O   0  0  0  0  0  0  0  0  0  0  0  0
  -28.9447   -0.4841   19.4106 O   0  0  0  0  0  0  0  0  0  0  0  0
  -28.6967   -0.6108   18.0120 C   0  0  0  0  0  0  0  0  0  0  0  0
 17 18  1  0
 18  1  1  0
  1  2  1  0
  2  3  1  0
  2  4  1  0
  4 11  1  0
 11 12  1  0
  4  5  1  0
  5  6  1  0
  6 14  1  0
 14 15  1  0
  6  7  1  0
  7 19  1  0
 19 20  1  0
  7  1  1  0
  3  8  1  0
 12 13  1  0
  5  9  1  0
  5 10  1  0
 15 16  1  0
M  CHG 1   5   1
M  END
> <minimizedAffinity>
-4.02299

> <CNNscore>
0.2170916200

> <CNNaffinity>
2.2395954132

> <CNN_VS>
0.4861973822

> <CNNaffinity_variance>
1.1655958891

$$$$
