


 38 40  0  0  0  0  0  0  0  0999 V2000
   13.7704    8.9774    0.2412 C   0  0  0  0  0  0  0  0  0  0  0  0
   14.8267    9.0749    1.3331 C   0  0  0  0  0  0  0  0  0  0  0  0
   14.6717    8.0805    2.3350 O   0  0  0  0  0  0  0  0  0  0  0  0
   14.5963   10.4833    1.8584 C   0  0  0  0  0  0  0  0  0  0  0  0
   14.3300   11.2862    0.6918 O   0  0  0  0  0  0  0  0  0  0  0  0
   13.7837   10.4109   -0.3312 C   0  0  0  0  0  0  0  0  0  0  0  0
   13.7849    8.1474    2.7224 H   0  0  0  0  0  0  0  0  0  0  0  0
   14.5696   10.5485   -1.5435 N   0  0  0  0  0  0  0  0  0  0  0  0
   15.8177   11.0959   -1.6797 C   0  0  0  0  0  0  0  0  0  0  0  0
   16.2154   11.1020   -2.9368 N   0  0  0  0  0  0  0  0  0  0  0  0
   15.1632   10.5676   -3.6478 C   0  0  0  0  0  0  0  0  0  0  0  0
   14.9675   10.3139   -5.0160 C   0  0  0  0  0  0  0  0  0  0  0  0
   15.9102   10.6081   -5.9901 N   0  0  0  0  0  0  0  0  0  0  0  0
   13.8102    9.7325   -5.4060 N   0  0  0  0  0  0  0  0  0  0  0  0
   12.8818    9.4588   -4.4669 C   0  0  0  0  0  0  0  0  0  0  0  0
   12.9511    9.6637   -3.1338 N   0  0  0  0  0  0  0  0  0  0  0  0
   14.1299   10.2174   -2.7974 C   0  0  0  0  0  0  0  0  0  0  0  0
   16.7626   11.0314   -5.7383 H   0  0  0  0  0  0  0  0  0  0  0  0
   15.7268   10.3936   -6.9333 H   0  0  0  0  0  0  0  0  0  0  0  0
   12.6044    8.7467    2.3055 C   0  0  0  0  0  0  0  0  0  0  0  0
   12.5164    8.6607    0.8862 O   0  0  0  0  0  0  0  0  0  0  0  0
   15.7979   11.0192    2.6308 C   0  0  0  0  0  0  0  0  0  0  0  0
   16.8940   10.1301    2.4685 O   0  0  0  0  0  0  0  0  0  0  0  0
   17.4896    9.3238    3.7464 S   0  0  0  0  0  0  0  0  0  0  0  0
   17.2680    7.9022    3.6136 O   0  0  0  0  0  0  0  0  0  0  0  0
   18.8166    9.8369    4.0091 O   0  0  0  0  0  0  0  0  0  0  0  0
   16.5871    9.8706    5.0197 N   0  0  0  0  0  0  0  0  0  0  0  0
   16.5087    9.2323    6.2640 C   0  0  0  0  0  0  0  0  0  0  0  0
   17.1898    8.2563    6.5482 O   0  0  0  0  0  0  0  0  0  0  0  0
   16.0707   10.6995    4.8948 H   0  0  0  0  0  0  0  0  0  0  0  0
   15.4755    9.8273    7.2533 C   0  0  0  0  0  0  0  0  0  0  0  0
   16.0753   10.0154    8.5937 N   0  0  0  0  0  0  0  0  0  0  0  0
   16.3365    9.1081    8.9797 H   0  0  0  0  0  0  0  0  0  0  0  0
   15.3975   10.4645    9.2095 H   0  0  0  0  0  0  0  0  0  0  0  0
   14.1140    9.0626    7.2833 C   0  0  0  0  0  0  0  0  0  0  0  0
   13.1244    9.6256    8.3258 C   0  0  0  0  0  0  0  0  0  0  0  0
   14.3447    7.5704    7.5989 C   0  0  0  0  0  0  0  0  0  0  0  0
   13.4474    9.1483    5.8897 C   0  0  0  0  0  0  0  0  0  0  0  0
 20 21  1  0
  1 21  1  0
  1  2  1  0
  2  3  1  0
  2  4  1  0
  4 22  1  0
 22 23  1  0
 23 24  1  0
 24 25  2  0
 24 26  2  0
 24 27  1  0
 27 28  1  0
 28 29  2  0
 28 31  1  0
 31 32  1  0
 31 35  1  0
 35 36  1  0
 35 37  1  0
 35 38  1  0
  4  5  1  0
  5  6  1  0
  6  8  1  0
  8  9  1  0
  9 10  2  0
 10 11  1  0
 11 12  2  0
 12 13  1  0
 12 14  1  0
 14 15  2  0
 15 16  1  0
 16 17  2  0
  6  1  1  0
 17  8  1  0
 17 11  1  0
  3  7  1  0
 27 30  1  0
 32 33  1  0
 32 34  1  0
 13 18  1  0
 13 19  1  0
M  END
> <minimizedAffinity>
-9.32482

> <CNNscore>
0.9333099723

> <CNNaffinity>
6.3508238792

> <CNN_VS>
5.9272871017

> <CNNaffinity_variance>
0.4664055407

$$$$



 38 40  0  0  0  0  0  0  0  0999 V2000
   14.2502    8.8504    0.5253 C   0  0  0  0  0  0  0  0  0  0  0  0
   15.3091    9.1915    1.5644 C   0  0  0  0  0  0  0  0  0  0  0  0
   15.3638    8.2446    2.6213 O   0  0  0  0  0  0  0  0  0  0  0  0
   14.8537   10.5668    2.0268 C   0  0  0  0  0  0  0  0  0  0  0  0
   14.4123   11.2432    0.8334 O   0  0  0  0  0  0  0  0  0  0  0  0
   13.9936   10.2294   -0.1194 C   0  0  0  0  0  0  0  0  0  0  0  0
   14.4925    8.1795    3.0425 H   0  0  0  0  0  0  0  0  0  0  0  0
   14.7023   10.4307   -1.3697 N   0  0  0  0  0  0  0  0  0  0  0  0
   15.9253   11.0175   -1.5586 C   0  0  0  0  0  0  0  0  0  0  0  0
   16.2475   11.0780   -2.8358 N   0  0  0  0  0  0  0  0  0  0  0  0
   15.1694   10.5387   -3.5030 C   0  0  0  0  0  0  0  0  0  0  0  0
   14.8996   10.3267   -4.8656 C   0  0  0  0  0  0  0  0  0  0  0  0
   15.7749   10.6808   -5.8819 N   0  0  0  0  0  0  0  0  0  0  0  0
   13.7369    9.7266   -5.2081 N   0  0  0  0  0  0  0  0  0  0  0  0
   12.8733    9.3946   -4.2269 C   0  0  0  0  0  0  0  0  0  0  0  0
   13.0161    9.5555   -2.8936 N   0  0  0  0  0  0  0  0  0  0  0  0
   14.1978   10.1305   -2.6069 C   0  0  0  0  0  0  0  0  0  0  0  0
   16.6294   11.1191   -5.6652 H   0  0  0  0  0  0  0  0  0  0  0  0
   15.5416   10.4937   -6.8199 H   0  0  0  0  0  0  0  0  0  0  0  0
   12.2598    9.4169    1.7049 C   0  0  0  0  0  0  0  0  0  0  0  0
   13.0931    8.3596    1.2388 O   0  0  0  0  0  0  0  0  0  0  0  0
   15.9683   11.3458    2.7187 C   0  0  0  0  0  0  0  0  0  0  0  0
   17.1000   10.5021    2.8792 O   0  0  0  0  0  0  0  0  0  0  0  0
   18.5052   10.8711    2.1533 S   0  0  0  0  0  0  0  0  0  0  0  0
   18.6520   10.1523    0.9086 O   0  0  0  0  0  0  0  0  0  0  0  0
   18.6531   12.3099    2.1900 O   0  0  0  0  0  0  0  0  0  0  0  0
   19.6554   10.3210    3.2064 N   0  0  0  0  0  0  0  0  0  0  0  0
   21.0157   10.1970    2.8962 C   0  0  0  0  0  0  0  0  0  0  0  0
   21.4879   10.5848    1.8360 O   0  0  0  0  0  0  0  0  0  0  0  0
   19.3649   10.0636    4.1112 H   0  0  0  0  0  0  0  0  0  0  0  0
   21.8843    9.5052    3.9765 C   0  0  0  0  0  0  0  0  0  0  0  0
   23.3018    9.9153    3.8567 N   0  0  0  0  0  0  0  0  0  0  0  0
   23.6725    9.5995    2.9604 H   0  0  0  0  0  0  0  0  0  0  0  0
   23.8419    9.4974    4.6143 H   0  0  0  0  0  0  0  0  0  0  0  0
   21.6892    7.9574    4.0508 C   0  0  0  0  0  0  0  0  0  0  0  0
   22.8510    7.2326    4.7635 C   0  0  0  0  0  0  0  0  0  0  0  0
   21.5537    7.3660    2.6326 C   0  0  0  0  0  0  0  0  0  0  0  0
   20.3819    7.6420    4.8160 C   0  0  0  0  0  0  0  0  0  0  0  0
 20 21  1  0
  1 21  1  0
  1  2  1  0
  2  3  1  0
  2  4  1  0
  4 22  1  0
 22 23  1  0
 23 24  1  0
 24 25  2  0
 24 26  2  0
 24 27  1  0
 27 28  1  0
 28 29  2  0
 28 31  1  0
 31 32  1  0
 31 35  1  0
 35 36  1  0
 35 37  1  0
 35 38  1  0
  4  5  1  0
  5  6  1  0
  6  8  1  0
  8  9  1  0
  9 10  2  0
 10 11  1  0
 11 12  2  0
 12 13  1  0
 12 14  1  0
 14 15  2  0
 15 16  1  0
 16 17  2  0
  6  1  1  0
 17  8  1  0
 17 11  1  0
  3  7  1  0
 27 30  1  0
 32 33  1  0
 32 34  1  0
 13 18  1  0
 13 19  1  0
M  END
> <minimizedAffinity>
-8.33902

> <CNNscore>
0.5108069181

> <CNNaffinity>
5.1716580391

> <CNN_VS>
2.6417186260

> <CNNaffinity_variance>
0.7091146111

$$$$



 38 40  0  0  0  0  0  0  0  0999 V2000
   16.1578   11.3649    1.9878 C   0  0  0  0  0  0  0  0  0  0  0  0
   15.2968   11.3838    3.2431 C   0  0  0  0  0  0  0  0  0  0  0  0
   15.7079   12.3744    4.1739 O   0  0  0  0  0  0  0  0  0  0  0  0
   15.4848    9.9681    3.7657 C   0  0  0  0  0  0  0  0  0  0  0  0
   15.4766    9.1261    2.5964 O   0  0  0  0  0  0  0  0  0  0  0  0
   15.9188    9.9304    1.4700 C   0  0  0  0  0  0  0  0  0  0  0  0
   16.6377   12.2303    4.4098 H   0  0  0  0  0  0  0  0  0  0  0  0
   14.9301    9.8489    0.4108 N   0  0  0  0  0  0  0  0  0  0  0  0
   13.6331    9.4185    0.5016 C   0  0  0  0  0  0  0  0  0  0  0  0
   13.0297    9.4310   -0.6707 N   0  0  0  0  0  0  0  0  0  0  0  0
   13.9901    9.8541   -1.5634 C   0  0  0  0  0  0  0  0  0  0  0  0
   13.9736   10.0680   -2.9520 C   0  0  0  0  0  0  0  0  0  0  0  0
   12.8573    9.8487   -3.7457 N   0  0  0  0  0  0  0  0  0  0  0  0
   15.0957   10.5329   -3.5473 N   0  0  0  0  0  0  0  0  0  0  0  0
   16.1902   10.7326   -2.7851 C   0  0  0  0  0  0  0  0  0  0  0  0
   16.3292   10.5549   -1.4535 N   0  0  0  0  0  0  0  0  0  0  0  0
   15.1795   10.1188   -0.9085 C   0  0  0  0  0  0  0  0  0  0  0  0
   12.0253    9.5107   -3.3424 H   0  0  0  0  0  0  0  0  0  0  0  0
   12.8971   10.0311   -4.7124 H   0  0  0  0  0  0  0  0  0  0  0  0
   18.3672   11.9533    1.3197 C   0  0  0  0  0  0  0  0  0  0  0  0
   17.5261   11.5720    2.4044 O   0  0  0  0  0  0  0  0  0  0  0  0
   14.3877    9.5594    4.7440 C   0  0  0  0  0  0  0  0  0  0  0  0
   14.8950    8.5733    5.6321 O   0  0  0  0  0  0  0  0  0  0  0  0
   16.3035    8.8144    6.4039 S   0  0  0  0  0  0  0  0  0  0  0  0
   16.7004    7.6371    7.1416 O   0  0  0  0  0  0  0  0  0  0  0  0
   17.2160    9.4344    5.4678 O   0  0  0  0  0  0  0  0  0  0  0  0
   15.9636   10.0143    7.4899 N   0  0  0  0  0  0  0  0  0  0  0  0
   15.3630    9.8035    8.7376 C   0  0  0  0  0  0  0  0  0  0  0  0
   15.1269    8.6853    9.1749 O   0  0  0  0  0  0  0  0  0  0  0  0
   16.1990   10.9379    7.2431 H   0  0  0  0  0  0  0  0  0  0  0  0
   14.9869   11.0864    9.5204 C   0  0  0  0  0  0  0  0  0  0  0  0
   15.9677   11.3550   10.5965 N   0  0  0  0  0  0  0  0  0  0  0  0
   15.9400   10.5972   11.2787 H   0  0  0  0  0  0  0  0  0  0  0  0
   15.7351   12.2352   11.0565 H   0  0  0  0  0  0  0  0  0  0  0  0
   13.5037   11.1185   10.0090 C   0  0  0  0  0  0  0  0  0  0  0  0
   12.8496    9.7211   10.0557 C   0  0  0  0  0  0  0  0  0  0  0  0
   12.6545   12.0143    9.0837 C   0  0  0  0  0  0  0  0  0  0  0  0
   13.4457   11.7264   11.4306 C   0  0  0  0  0  0  0  0  0  0  0  0
 20 21  1  0
  1 21  1  0
  1  2  1  0
  2  3  1  0
  2  4  1  0
  4 22  1  0
 22 23  1  0
 23 24  1  0
 24 25  2  0
 24 26  2  0
 24 27  1  0
 27 28  1  0
 28 29  2  0
 28 31  1  0
 31 32  1  0
 31 35  1  0
 35 36  1  0
 35 37  1  0
 35 38  1  0
  4  5  1  0
  5  6  1  0
  6  8  1  0
  8  9  1  0
  9 10  2  0
 10 11  1  0
 11 12  2  0
 12 13  1  0
 12 14  1  0
 14 15  2  0
 15 16  1  0
 16 17  2  0
  6  1  1  0
 17  8  1  0
 17 11  1  0
  3  7  1  0
 27 30  1  0
 32 33  1  0
 32 34  1  0
 13 18  1  0
 13 19  1  0
M  END
> <minimizedAffinity>
-9.09868

> <CNNscore>
0.3073983192

> <CNNaffinity>
5.9544739723

> <CNN_VS>
1.8303953409

> <CNNaffinity_variance>
0.2821294963

$$$$



 38 40  0  0  0  0  0  0  0  0999 V2000
   21.6749    8.9514    2.2086 C   0  0  0  0  0  0  0  0  0  0  0  0
   20.1944    8.7286    1.9331 C   0  0  0  0  0  0  0  0  0  0  0  0
   19.7396    9.4303    0.7853 O   0  0  0  0  0  0  0  0  0  0  0  0
   19.5631    9.2322    3.2217 C   0  0  0  0  0  0  0  0  0  0  0  0
   20.4331    8.7759    4.2759 O   0  0  0  0  0  0  0  0  0  0  0  0
   21.7634    8.6182    3.7132 C   0  0  0  0  0  0  0  0  0  0  0  0
   19.9196   10.3774    0.8929 H   0  0  0  0  0  0  0  0  0  0  0  0
   22.2389    7.2747    3.9870 N   0  0  0  0  0  0  0  0  0  0  0  0
   21.5281    6.1049    3.9415 C   0  0  0  0  0  0  0  0  0  0  0  0
   22.2643    5.0703    4.2966 N   0  0  0  0  0  0  0  0  0  0  0  0
   23.4944    5.6001    4.6197 C   0  0  0  0  0  0  0  0  0  0  0  0
   24.6935    5.0222    5.0699 C   0  0  0  0  0  0  0  0  0  0  0  0
   24.8468    3.6633    5.3021 N   0  0  0  0  0  0  0  0  0  0  0  0
   25.7635    5.8257    5.2674 N   0  0  0  0  0  0  0  0  0  0  0  0
   25.6176    7.1503    5.0599 C   0  0  0  0  0  0  0  0  0  0  0  0
   24.5214    7.8181    4.6400 N   0  0  0  0  0  0  0  0  0  0  0  0
   23.4974    6.9708    4.4333 C   0  0  0  0  0  0  0  0  0  0  0  0
   24.0869    3.0520    5.1674 H   0  0  0  0  0  0  0  0  0  0  0  0
   25.7155    3.3100    5.6017 H   0  0  0  0  0  0  0  0  0  0  0  0
   22.6059   10.9812    3.0377 C   0  0  0  0  0  0  0  0  0  0  0  0
   21.9547   10.3442    1.9424 O   0  0  0  0  0  0  0  0  0  0  0  0
   18.1434    8.7086    3.4165 C   0  0  0  0  0  0  0  0  0  0  0  0
   17.2437    9.4963    2.6494 O   0  0  0  0  0  0  0  0  0  0  0  0
   15.6890    9.6337    3.0986 S   0  0  0  0  0  0  0  0  0  0  0  0
   15.2432   11.0056    3.0162 O   0  0  0  0  0  0  0  0  0  0  0  0
   14.9472    8.5815    2.4384 O   0  0  0  0  0  0  0  0  0  0  0  0
   15.6922    9.1863    4.6906 N   0  0  0  0  0  0  0  0  0  0  0  0
   15.5632   10.0791    5.7622 C   0  0  0  0  0  0  0  0  0  0  0  0
   15.3349   11.2707    5.6034 O   0  0  0  0  0  0  0  0  0  0  0  0
   15.7913    8.2292    4.8990 H   0  0  0  0  0  0  0  0  0  0  0  0
   15.7596    9.4622    7.1697 C   0  0  0  0  0  0  0  0  0  0  0  0
   16.6470    8.2787    7.1084 N   0  0  0  0  0  0  0  0  0  0  0  0
   16.2047    7.5508    6.5472 H   0  0  0  0  0  0  0  0  0  0  0  0
   16.8114    7.9278    8.0520 H   0  0  0  0  0  0  0  0  0  0  0  0
   14.4255    9.1997    7.9382 C   0  0  0  0  0  0  0  0  0  0  0  0
   13.8907   10.4492    8.6702 C   0  0  0  0  0  0  0  0  0  0  0  0
   14.6197    8.0800    8.9812 C   0  0  0  0  0  0  0  0  0  0  0  0
   13.3435    8.7257    6.9390 C   0  0  0  0  0  0  0  0  0  0  0  0
 20 21  1  0
  1 21  1  0
  1  2  1  0
  2  3  1  0
  2  4  1  0
  4 22  1  0
 22 23  1  0
 23 24  1  0
 24 25  2  0
 24 26  2  0
 24 27  1  0
 27 28  1  0
 28 29  2  0
 28 31  1  0
 31 32  1  0
 31 35  1  0
 35 36  1  0
 35 37  1  0
 35 38  1  0
  4  5  1  0
  5  6  1  0
  6  8  1  0
  8  9  1  0
  9 10  2  0
 10 11  1  0
 11 12  2  0
 12 13  1  0
 12 14  1  0
 14 15  2  0
 15 16  1  0
 16 17  2  0
  6  1  1  0
 17  8  1  0
 17 11  1  0
  3  7  1  0
 27 30  1  0
 32 33  1  0
 32 34  1  0
 13 18  1  0
 13 19  1  0
M  END
> <minimizedAffinity>
-8.54380

> <CNNscore>
0.1077642143

> <CNNaffinity>
5.1752223969

> <CNN_VS>
0.5577037930

> <CNNaffinity_variance>
0.4770151079

$$$$



 38 40  0  0  0  0  0  0  0  0999 V2000
   21.1096   10.1306    1.6832 C   0  0  0  0  0  0  0  0  0  0  0  0
   19.8684   10.5814    0.9259 C   0  0  0  0  0  0  0  0  0  0  0  0
   20.1801   11.3374   -0.2351 O   0  0  0  0  0  0  0  0  0  0  0  0
   19.1424   11.3971    1.9843 C   0  0  0  0  0  0  0  0  0  0  0  0
   19.3164   10.6666    3.2141 O   0  0  0  0  0  0  0  0  0  0  0  0
   20.5392    9.8907    3.0974 C   0  0  0  0  0  0  0  0  0  0  0  0
   20.7160   12.1065    0.0141 H   0  0  0  0  0  0  0  0  0  0  0  0
   20.2470    8.4977    3.3809 N   0  0  0  0  0  0  0  0  0  0  0  0
   19.0407    7.9422    3.7156 C   0  0  0  0  0  0  0  0  0  0  0  0
   19.1458    6.6494    3.9529 N   0  0  0  0  0  0  0  0  0  0  0  0
   20.4851    6.3649    3.7993 C   0  0  0  0  0  0  0  0  0  0  0  0
   21.2282    5.1784    3.9201 C   0  0  0  0  0  0  0  0  0  0  0  0
   20.6680    3.9580    4.2682 N   0  0  0  0  0  0  0  0  0  0  0  0
   22.5555    5.2186    3.6632 N   0  0  0  0  0  0  0  0  0  0  0  0
   23.1105    6.4046    3.3405 C   0  0  0  0  0  0  0  0  0  0  0  0
   22.5059    7.6044    3.2039 N   0  0  0  0  0  0  0  0  0  0  0  0
   21.1862    7.5030    3.4435 C   0  0  0  0  0  0  0  0  0  0  0  0
   19.7046    3.8958    4.4613 H   0  0  0  0  0  0  0  0  0  0  0  0
   21.2338    3.1542    4.3223 H   0  0  0  0  0  0  0  0  0  0  0  0
   21.4654   12.4249    1.1506 C   0  0  0  0  0  0  0  0  0  0  0  0
   22.0501   11.2276    1.6547 O   0  0  0  0  0  0  0  0  0  0  0  0
   17.6629   11.5830    1.6610 C   0  0  0  0  0  0  0  0  0  0  0  0
   16.8812   10.9182    2.6436 O   0  0  0  0  0  0  0  0  0  0  0  0
   15.8403   11.7569    3.5659 S   0  0  0  0  0  0  0  0  0  0  0  0
   16.2140   13.1508    3.6360 O   0  0  0  0  0  0  0  0  0  0  0  0
   14.5009   11.3766    3.1723 O   0  0  0  0  0  0  0  0  0  0  0  0
   16.0200   11.0974    5.0717 N   0  0  0  0  0  0  0  0  0  0  0  0
   15.9235    9.7282    5.3509 C   0  0  0  0  0  0  0  0  0  0  0  0
   15.7944    8.8843    4.4743 O   0  0  0  0  0  0  0  0  0  0  0  0
   16.2072   11.7075    5.8214 H   0  0  0  0  0  0  0  0  0  0  0  0
   15.9607    9.3511    6.8531 C   0  0  0  0  0  0  0  0  0  0  0  0
   16.7250    8.1010    7.0650 N   0  0  0  0  0  0  0  0  0  0  0  0
   16.2497    7.3286    6.5981 H   0  0  0  0  0  0  0  0  0  0  0  0
   16.7888    7.9067    8.0643 H   0  0  0  0  0  0  0  0  0  0  0  0
   14.5580    9.3461    7.5400 C   0  0  0  0  0  0  0  0  0  0  0  0
   14.4705    8.3722    8.7344 C   0  0  0  0  0  0  0  0  0  0  0  0
   13.4653    8.9567    6.5233 C   0  0  0  0  0  0  0  0  0  0  0  0
   14.2337   10.7694    8.0530 C   0  0  0  0  0  0  0  0  0  0  0  0
 20 21  1  0
  1 21  1  0
  1  2  1  0
  2  3  1  0
  2  4  1  0
  4 22  1  0
 22 23  1  0
 23 24  1  0
 24 25  2  0
 24 26  2  0
 24 27  1  0
 27 28  1  0
 28 29  2  0
 28 31  1  0
 31 32  1  0
 31 35  1  0
 35 36  1  0
 35 37  1  0
 35 38  1  0
  4  5  1  0
  5  6  1  0
  6  8  1  0
  8  9  1  0
  9 10  2  0
 10 11  1  0
 11 12  2  0
 12 13  1  0
 12 14  1  0
 14 15  2  0
 15 16  1  0
 16 17  2  0
  6  1  1  0
 17  8  1  0
 17 11  1  0
  3  7  1  0
 27 30  1  0
 32 33  1  0
 32 34  1  0
 13 18  1  0
 13 19  1  0
M  END
> <minimizedAffinity>
-8.90573

> <CNNscore>
0.1060204059

> <CNNaffinity>
5.1668505669

> <CNN_VS>
0.5477916002

> <CNNaffinity_variance>
0.5526102185

$$$$



 38 40  0  0  0  0  0  0  0  0999 V2000
   14.4042    9.1962    0.3718 C   0  0  0  0  0  0  0  0  0  0  0  0
   13.9970    8.4488    1.6340 C   0  0  0  0  0  0  0  0  0  0  0  0
   13.2381    7.2808    1.3577 O   0  0  0  0  0  0  0  0  0  0  0  0
   13.1988    9.5100    2.3752 C   0  0  0  0  0  0  0  0  0  0  0  0
   13.9166   10.7419    2.1662 O   0  0  0  0  0  0  0  0  0  0  0  0
   14.6540   10.6173    0.9206 C   0  0  0  0  0  0  0  0  0  0  0  0
   12.4510    7.5206    0.8440 H   0  0  0  0  0  0  0  0  0  0  0  0
   16.0540   10.9110    1.1657 N   0  0  0  0  0  0  0  0  0  0  0  0
   16.6545   11.2099    2.3598 C   0  0  0  0  0  0  0  0  0  0  0  0
   17.9384   11.4704    2.2106 N   0  0  0  0  0  0  0  0  0  0  0  0
   18.1692   11.3700    0.8560 C   0  0  0  0  0  0  0  0  0  0  0  0
   19.3220   11.5358    0.0699 C   0  0  0  0  0  0  0  0  0  0  0  0
   20.5597   11.8817    0.5921 N   0  0  0  0  0  0  0  0  0  0  0  0
   19.2302   11.3268   -1.2633 N   0  0  0  0  0  0  0  0  0  0  0  0
   18.0267   11.0066   -1.7808 C   0  0  0  0  0  0  0  0  0  0  0  0
   16.8550   10.8299   -1.1329 N   0  0  0  0  0  0  0  0  0  0  0  0
   17.0078   11.0228    0.1895 C   0  0  0  0  0  0  0  0  0  0  0  0
   20.6593   12.0404    1.5586 H   0  0  0  0  0  0  0  0  0  0  0  0
   21.3386   11.9684   -0.0038 H   0  0  0  0  0  0  0  0  0  0  0  0
   13.2695   10.2553   -1.4351 C   0  0  0  0  0  0  0  0  0  0  0  0
   13.2781    9.1526   -0.5331 O   0  0  0  0  0  0  0  0  0  0  0  0
   13.0616    9.2004    3.8629 C   0  0  0  0  0  0  0  0  0  0  0  0
   14.0894    9.8716    4.5782 O   0  0  0  0  0  0  0  0  0  0  0  0
   14.8400    9.1352    5.8159 S   0  0  0  0  0  0  0  0  0  0  0  0
   14.0897    7.9871    6.2701 O   0  0  0  0  0  0  0  0  0  0  0  0
   16.2379    9.0051    5.4662 O   0  0  0  0  0  0  0  0  0  0  0  0
   14.8299   10.2684    7.0203 N   0  0  0  0  0  0  0  0  0  0  0  0
   15.1992   10.0138    8.3472 C   0  0  0  0  0  0  0  0  0  0  0  0
   15.6611    8.9398    8.7085 O   0  0  0  0  0  0  0  0  0  0  0  0
   14.5457   11.1822    6.7894 H   0  0  0  0  0  0  0  0  0  0  0  0
   14.9553   11.1773    9.3407 C   0  0  0  0  0  0  0  0  0  0  0  0
   16.0419   11.2518   10.3437 N   0  0  0  0  0  0  0  0  0  0  0  0
   16.0424   10.4023   10.9081 H   0  0  0  0  0  0  0  0  0  0  0  0
   15.8929   12.0608   10.9469 H   0  0  0  0  0  0  0  0  0  0  0  0
   13.5262   11.1833    9.9709 C   0  0  0  0  0  0  0  0  0  0  0  0
   13.5173   11.6216   11.4511 C   0  0  0  0  0  0  0  0  0  0  0  0
   12.8966    9.7778    9.8838 C   0  0  0  0  0  0  0  0  0  0  0  0
   12.6195   12.1522    9.1752 C   0  0  0  0  0  0  0  0  0  0  0  0
 20 21  1  0
  1 21  1  0
  1  2  1  0
  2  3  1  0
  2  4  1  0
  4 22  1  0
 22 23  1  0
 23 24  1  0
 24 25  2  0
 24 26  2  0
 24 27  1  0
 27 28  1  0
 28 29  2  0
 28 31  1  0
 31 32  1  0
 31 35  1  0
 35 36  1  0
 35 37  1  0
 35 38  1  0
  4  5  1  0
  5  6  1  0
  6  8  1  0
  8  9  1  0
  9 10  2  0
 10 11  1  0
 11 12  2  0
 12 13  1  0
 12 14  1  0
 14 15  2  0
 15 16  1  0
 16 17  2  0
  6  1  1  0
 17  8  1  0
 17 11  1  0
  3  7  1  0
 27 30  1  0
 32 33  1  0
 32 34  1  0
 13 18  1  0
 13 19  1  0
M  END
> <minimizedAffinity>
-9.59622

> <CNNscore>
0.0783232674

> <CNNaffinity>
5.4692940712

> <CNN_VS>
0.4283729792

> <CNNaffinity_variance>
0.7860983014

$$$$



 38 40  0  0  0  0  0  0  0  0999 V2000
   23.8593   10.1847    4.5054 C   0  0  0  0  0  0  0  0  0  0  0  0
   22.7900    9.9460    3.4485 C   0  0  0  0  0  0  0  0  0  0  0  0
   22.7940   10.9378    2.4322 O   0  0  0  0  0  0  0  0  0  0  0  0
   21.5209    9.9639    4.2861 C   0  0  0  0  0  0  0  0  0  0  0  0
   21.8566    9.2660    5.5013 O   0  0  0  0  0  0  0  0  0  0  0  0
   23.2889    9.3992    5.7057 C   0  0  0  0  0  0  0  0  0  0  0  0
   22.6759   11.8128    2.8339 H   0  0  0  0  0  0  0  0  0  0  0  0
   23.8702    8.0797    5.8697 N   0  0  0  0  0  0  0  0  0  0  0  0
   25.0057    7.7398    6.5561 C   0  0  0  0  0  0  0  0  0  0  0  0
   25.2697    6.4516    6.4587 N   0  0  0  0  0  0  0  0  0  0  0  0
   24.2810    5.9440    5.6443 C   0  0  0  0  0  0  0  0  0  0  0  0
   24.0121    4.6517    5.1625 C   0  0  0  0  0  0  0  0  0  0  0  0
   24.8009    3.5483    5.4533 N   0  0  0  0  0  0  0  0  0  0  0  0
   22.9158    4.4645    4.3928 N   0  0  0  0  0  0  0  0  0  0  0  0
   22.1532    5.5354    4.0919 C   0  0  0  0  0  0  0  0  0  0  0  0
   22.3146    6.8174    4.4848 N   0  0  0  0  0  0  0  0  0  0  0  0
   23.4010    6.9426    5.2678 C   0  0  0  0  0  0  0  0  0  0  0  0
   25.6055    3.6516    6.0110 H   0  0  0  0  0  0  0  0  0  0  0  0
   24.5561    2.6618    5.1018 H   0  0  0  0  0  0  0  0  0  0  0  0
   25.2356   12.1069    4.7970 C   0  0  0  0  0  0  0  0  0  0  0  0
   23.9021   11.6072    4.7569 O   0  0  0  0  0  0  0  0  0  0  0  0
   20.3468    9.2964    3.5763 C   0  0  0  0  0  0  0  0  0  0  0  0
   19.4611    8.7527    4.5450 O   0  0  0  0  0  0  0  0  0  0  0  0
   17.8635    9.0241    4.4365 S   0  0  0  0  0  0  0  0  0  0  0  0
   17.5944   10.3300    3.8801 O   0  0  0  0  0  0  0  0  0  0  0  0
   17.2563    7.8435    3.8612 O   0  0  0  0  0  0  0  0  0  0  0  0
   17.3494    9.0162    6.0082 N   0  0  0  0  0  0  0  0  0  0  0  0
   16.0065    8.9413    6.3995 C   0  0  0  0  0  0  0  0  0  0  0  0
   15.0954    8.7733    5.6002 O   0  0  0  0  0  0  0  0  0  0  0  0
   18.0322    9.0676    6.7155 H   0  0  0  0  0  0  0  0  0  0  0  0
   15.7447    9.1163    7.9165 C   0  0  0  0  0  0  0  0  0  0  0  0
   15.7239    7.8050    8.6035 N   0  0  0  0  0  0  0  0  0  0  0  0
   14.9448    7.2489    8.2512 H   0  0  0  0  0  0  0  0  0  0  0  0
   15.6125    7.9487    9.6072 H   0  0  0  0  0  0  0  0  0  0  0  0
   14.5077   10.0108    8.2468 C   0  0  0  0  0  0  0  0  0  0  0  0
   14.7151   10.8970    9.4937 C   0  0  0  0  0  0  0  0  0  0  0  0
   13.2609    9.1340    8.4843 C   0  0  0  0  0  0  0  0  0  0  0  0
   14.2073   10.9347    7.0426 C   0  0  0  0  0  0  0  0  0  0  0  0
 20 21  1  0
  1 21  1  0
  1  2  1  0
  2  3  1  0
  2  4  1  0
  4 22  1  0
 22 23  1  0
 23 24  1  0
 24 25  2  0
 24 26  2  0
 24 27  1  0
 27 28  1  0
 28 29  2  0
 28 31  1  0
 31 32  1  0
 31 35  1  0
 35 36  1  0
 35 37  1  0
 35 38  1  0
  4  5  1  0
  5  6  1  0
  6  8  1  0
  8  9  1  0
  9 10  2  0
 10 11  1  0
 11 12  2  0
 12 13  1  0
 12 14  1  0
 14 15  2  0
 15 16  1  0
 16 17  2  0
  6  1  1  0
 17  8  1  0
 17 11  1  0
  3  7  1  0
 27 30  1  0
 32 33  1  0
 32 34  1  0
 13 18  1  0
 13 19  1  0
M  END
> <minimizedAffinity>
-8.48260

> <CNNscore>
0.0716108084

> <CNNaffinity>
4.6896314621

> <CNN_VS>
0.3358283043

> <CNNaffinity_variance>
0.6661623716

$$$$



 38 40  0  0  0  0  0  0  0  0999 V2000
   20.6862   11.2879    0.7296 C   0  0  0  0  0  0  0  0  0  0  0  0
   19.2584   11.1491    0.2201 C   0  0  0  0  0  0  0  0  0  0  0  0
   19.0745   11.7362   -1.0597 O   0  0  0  0  0  0  0  0  0  0  0  0
   18.4723   11.8566    1.3129 C   0  0  0  0  0  0  0  0  0  0  0  0
   19.1033   11.4680    2.5487 O   0  0  0  0  0  0  0  0  0  0  0  0
   20.4871   11.1382    2.2531 C   0  0  0  0  0  0  0  0  0  0  0  0
   19.3263   12.6723   -1.0252 H   0  0  0  0  0  0  0  0  0  0  0  0
   20.7750    9.8060    2.7517 N   0  0  0  0  0  0  0  0  0  0  0  0
   19.9658    8.7016    2.7174 C   0  0  0  0  0  0  0  0  0  0  0  0
   20.5281    7.6640    3.3053 N   0  0  0  0  0  0  0  0  0  0  0  0
   21.7387    8.1287    3.7708 C   0  0  0  0  0  0  0  0  0  0  0  0
   22.7868    7.5169    4.4791 C   0  0  0  0  0  0  0  0  0  0  0  0
   22.7632    6.1904    4.8842 N   0  0  0  0  0  0  0  0  0  0  0  0
   23.8877    8.2493    4.7639 N   0  0  0  0  0  0  0  0  0  0  0  0
   23.9112    9.5443    4.3881 C   0  0  0  0  0  0  0  0  0  0  0  0
   22.9685   10.2404    3.7168 N   0  0  0  0  0  0  0  0  0  0  0  0
   21.9098    9.4598    3.4357 C   0  0  0  0  0  0  0  0  0  0  0  0
   21.9763    5.6309    4.6919 H   0  0  0  0  0  0  0  0  0  0  0  0
   23.5333    5.8085    5.3641 H   0  0  0  0  0  0  0  0  0  0  0  0
   22.2020   13.0625    1.2066 C   0  0  0  0  0  0  0  0  0  0  0  0
   21.1427   12.6107    0.3680 O   0  0  0  0  0  0  0  0  0  0  0  0
   16.9954   11.4738    1.3068 C   0  0  0  0  0  0  0  0  0  0  0  0
   16.6438   10.9415    2.5763 O   0  0  0  0  0  0  0  0  0  0  0  0
   15.5881   11.7265    3.5287 S   0  0  0  0  0  0  0  0  0  0  0  0
   15.8888   13.1385    3.5852 O   0  0  0  0  0  0  0  0  0  0  0  0
   14.2596   11.2740    3.1767 O   0  0  0  0  0  0  0  0  0  0  0  0
   15.8484   11.0823    5.0293 N   0  0  0  0  0  0  0  0  0  0  0  0
   15.8632    9.7096    5.3078 C   0  0  0  0  0  0  0  0  0  0  0  0
   15.7816    8.8585    4.4325 O   0  0  0  0  0  0  0  0  0  0  0  0
   16.0033   11.7047    5.7762 H   0  0  0  0  0  0  0  0  0  0  0  0
   15.9597    9.3361    6.8083 C   0  0  0  0  0  0  0  0  0  0  0  0
   16.7671    8.1093    6.9962 N   0  0  0  0  0  0  0  0  0  0  0  0
   16.3001    7.3226    6.5452 H   0  0  0  0  0  0  0  0  0  0  0  0
   16.8686    7.9185    7.9930 H   0  0  0  0  0  0  0  0  0  0  0  0
   14.5805    9.2906    7.5399 C   0  0  0  0  0  0  0  0  0  0  0  0
   14.5339    8.2550    8.6837 C   0  0  0  0  0  0  0  0  0  0  0  0
   13.4552    8.9516    6.5406 C   0  0  0  0  0  0  0  0  0  0  0  0
   14.2714   10.6839    8.1374 C   0  0  0  0  0  0  0  0  0  0  0  0
 20 21  1  0
  1 21  1  0
  1  2  1  0
  2  3  1  0
  2  4  1  0
  4 22  1  0
 22 23  1  0
 23 24  1  0
 24 25  2  0
 24 26  2  0
 24 27  1  0
 27 28  1  0
 28 29  2  0
 28 31  1  0
 31 32  1  0
 31 35  1  0
 35 36  1  0
 35 37  1  0
 35 38  1  0
  4  5  1  0
  5  6  1  0
  6  8  1  0
  8  9  1  0
  9 10  2  0
 10 11  1  0
 11 12  2  0
 12 13  1  0
 12 14  1  0
 14 15  2  0
 15 16  1  0
 16 17  2  0
  6  1  1  0
 17  8  1  0
 17 11  1  0
  3  7  1  0
 27 30  1  0
 32 33  1  0
 32 34  1  0
 13 18  1  0
 13 19  1  0
M  END
> <minimizedAffinity>
-8.80572

> <CNNscore>
0.0704989806

> <CNNaffinity>
4.9336142540

> <CNN_VS>
0.3478147686

> <CNNaffinity_variance>
0.5113027692

$$$$



 38 40  0  0  0  0  0  0  0  0999 V2000
   14.4837    9.0521    2.1679 C   0  0  0  0  0  0  0  0  0  0  0  0
   15.8939    9.3830    2.6363 C   0  0  0  0  0  0  0  0  0  0  0  0
   16.3736    8.4720    3.6144 O   0  0  0  0  0  0  0  0  0  0  0  0
   15.7144   10.7920    3.1793 C   0  0  0  0  0  0  0  0  0  0  0  0
   14.8204   11.4449    2.2568 O   0  0  0  0  0  0  0  0  0  0  0  0
   14.0090   10.4176    1.6265 C   0  0  0  0  0  0  0  0  0  0  0  0
   15.7658    8.4596    4.3703 H   0  0  0  0  0  0  0  0  0  0  0  0
   14.1177   10.5442    0.1849 N   0  0  0  0  0  0  0  0  0  0  0  0
   13.1118   10.4889   -0.7429 C   0  0  0  0  0  0  0  0  0  0  0  0
   13.5739   10.5942   -1.9733 N   0  0  0  0  0  0  0  0  0  0  0  0
   14.9418   10.6858   -1.8354 C   0  0  0  0  0  0  0  0  0  0  0  0
   15.9879   10.8120   -2.7650 C   0  0  0  0  0  0  0  0  0  0  0  0
   15.7894   10.8570   -4.1372 N   0  0  0  0  0  0  0  0  0  0  0  0
   17.2543   10.9176   -2.3019 N   0  0  0  0  0  0  0  0  0  0  0  0
   17.4569   10.8578   -0.9699 C   0  0  0  0  0  0  0  0  0  0  0  0
   16.5400   10.7296    0.0133 N   0  0  0  0  0  0  0  0  0  0  0  0
   15.2987   10.6561   -0.4993 C   0  0  0  0  0  0  0  0  0  0  0  0
   14.8795   10.7829   -4.5057 H   0  0  0  0  0  0  0  0  0  0  0  0
   16.5585   10.9632   -4.7426 H   0  0  0  0  0  0  0  0  0  0  0  0
   12.3393    8.8992    3.1938 C   0  0  0  0  0  0  0  0  0  0  0  0
   13.7329    8.6372    3.3311 O   0  0  0  0  0  0  0  0  0  0  0  0
   17.0366   11.5455    3.2885 C   0  0  0  0  0  0  0  0  0  0  0  0
   18.1037   10.6109    3.3673 O   0  0  0  0  0  0  0  0  0  0  0  0
   19.4292   10.8031    2.4487 S   0  0  0  0  0  0  0  0  0  0  0  0
   19.6397    9.6578    1.5934 O   0  0  0  0  0  0  0  0  0  0  0  0
   19.3855   12.1368    1.8895 O   0  0  0  0  0  0  0  0  0  0  0  0
   20.6677   10.8655    3.5427 N   0  0  0  0  0  0  0  0  0  0  0  0
   22.0106   10.6185    3.2303 C   0  0  0  0  0  0  0  0  0  0  0  0
   22.3970   10.4304    2.0846 O   0  0  0  0  0  0  0  0  0  0  0  0
   20.4465   11.0910    4.4752 H   0  0  0  0  0  0  0  0  0  0  0  0
   22.9770   10.5686    4.4402 C   0  0  0  0  0  0  0  0  0  0  0  0
   24.3161   11.0787    4.0679 N   0  0  0  0  0  0  0  0  0  0  0  0
   24.7274   10.4695    3.3606 H   0  0  0  0  0  0  0  0  0  0  0  0
   24.9154   11.0946    4.8931 H   0  0  0  0  0  0  0  0  0  0  0  0
   23.0178    9.1841    5.1618 C   0  0  0  0  0  0  0  0  0  0  0  0
   24.4424    8.7566    5.5750 C   0  0  0  0  0  0  0  0  0  0  0  0
   22.4344    8.0866    4.2481 C   0  0  0  0  0  0  0  0  0  0  0  0
   22.1433    9.2449    6.4368 C   0  0  0  0  0  0  0  0  0  0  0  0
 20 21  1  0
  1 21  1  0
  1  2  1  0
  2  3  1  0
  2  4  1  0
  4 22  1  0
 22 23  1  0
 23 24  1  0
 24 25  2  0
 24 26  2  0
 24 27  1  0
 27 28  1  0
 28 29  2  0
 28 31  1  0
 31 32  1  0
 31 35  1  0
 35 36  1  0
 35 37  1  0
 35 38  1  0
  4  5  1  0
  5  6  1  0
  6  8  1  0
  8  9  1  0
  9 10  2  0
 10 11  1  0
 11 12  2  0
 12 13  1  0
 12 14  1  0
 14 15  2  0
 15 16  1  0
 16 17  2  0
  6  1  1  0
 17  8  1  0
 17 11  1  0
  3  7  1  0
 27 30  1  0
 32 33  1  0
 32 34  1  0
 13 18  1  0
 13 19  1  0
M  END
> <minimizedAffinity>
-8.36836

> <CNNscore>
0.0656731427

> <CNNaffinity>
4.2904691696

> <CNN_VS>
0.2817685902

> <CNNaffinity_variance>
1.2867797613

$$$$
