


 20 20  0  0  0  0  0  0  0  0999 V2000
    3.3613   14.4072   23.9679 C   0  0  0  0  0  0  0  0  0  0  0  0
    3.3208   13.4833   24.9490 C   0  0  0  0  0  0  0  0  0  0  0  0
    2.8050   12.0692   24.7894 C   0  0  0  0  0  0  0  0  0  0  0  0
    1.9183   11.9621   23.5371 C   0  0  0  0  0  0  0  0  0  0  0  0
    2.6050   12.5698   22.3106 C   0  0  0  0  0  0  0  0  0  0  0  0
    2.9296   14.0736   22.5448 C   0  0  0  0  0  0  0  0  0  0  0  0
    1.8989   11.6734   25.9948 C   0  0  0  0  0  0  0  0  0  0  0  0
    2.1284   11.8587   27.1813 O   0  0  0  0  0  0  0  0  0  0  0  0
    0.7522   11.0472   25.6403 O   0  0  0  0  0  0  0  0  0  0  0  0
    0.5607   10.8972   24.7354 H   0  0  0  0  0  0  0  0  0  0  0  0
    3.8976   11.1688   24.5647 O   0  0  0  0  0  0  0  0  0  0  0  0
    3.8884   10.4729   23.3250 C   0  0  0  0  0  0  0  0  0  0  0  0
    1.7016   12.4698   21.1860 O   0  0  0  0  0  0  0  0  0  0  0  0
    1.0107   11.2267   21.1393 C   0  0  0  0  0  0  0  0  0  0  0  0
    3.9976   14.5045   21.6820 O   0  0  0  0  0  0  0  0  0  0  0  0
    3.5902   15.4344   20.6890 C   0  0  0  0  0  0  0  0  0  0  0  0
    3.8322   15.8425   24.1726 C   0  0  0  0  0  0  0  0  0  0  0  0
    3.8044   16.4156   25.5961 C   0  0  0  0  0  0  0  0  0  0  0  0
    2.3546   17.5153   27.0959 C   0  0  0  0  0  0  0  0  0  0  0  0
    2.4570   16.5576   26.0511 O   0  0  0  0  0  0  0  0  0  0  0  0
 19 20  1  0
 20 18  1  0
 18 17  1  0
 17  1  1  0
  1  2  2  0
  2  3  1  0
  3 11  1  0
 11 12  1  0
  3  7  1  0
  7  8  2  0
  7  9  1  0
  3  4  1  0
  4  5  1  0
  5 13  1  0
 13 14  1  0
  5  6  1  0
  6 15  1  0
 15 16  1  0
  6  1  1  0
  9 10  1  0
M  END
> <minimizedAffinity>
-5.84517

> <CNNscore>
0.6704837084

> <CNNaffinity>
4.7595424652

> <CNN_VS>
3.1911957264

> <CNNaffinity_variance>
0.1272168905

$$$$



 20 20  0  0  0  0  0  0  0  0999 V2000
    3.4566   14.5553   24.3652 C   0  0  0  0  0  0  0  0  0  0  0  0
    3.1134   13.3493   24.8608 C   0  0  0  0  0  0  0  0  0  0  0  0
    2.6645   12.1654   24.0312 C   0  0  0  0  0  0  0  0  0  0  0  0
    2.2033   12.6320   22.6400 C   0  0  0  0  0  0  0  0  0  0  0  0
    3.2353   13.5569   21.9885 C   0  0  0  0  0  0  0  0  0  0  0  0
    3.4797   14.8197   22.8644 C   0  0  0  0  0  0  0  0  0  0  0  0
    1.4311   11.4705   24.6842 C   0  0  0  0  0  0  0  0  0  0  0  0
    1.2966   11.1596   25.8590 O   0  0  0  0  0  0  0  0  0  0  0  0
    0.4328   11.1880   23.8143 O   0  0  0  0  0  0  0  0  0  0  0  0
    0.5195   11.4194   22.9105 H   0  0  0  0  0  0  0  0  0  0  0  0
    3.7692   11.2832   23.7939 O   0  0  0  0  0  0  0  0  0  0  0  0
    3.6503   10.4222   22.6688 C   0  0  0  0  0  0  0  0  0  0  0  0
    2.7192   13.9855   20.7076 O   0  0  0  0  0  0  0  0  0  0  0  0
    3.6624   14.7386   19.9541 C   0  0  0  0  0  0  0  0  0  0  0  0
    4.7626   15.4022   22.5716 O   0  0  0  0  0  0  0  0  0  0  0  0
    4.6833   16.6538   21.9054 C   0  0  0  0  0  0  0  0  0  0  0  0
    3.8489   15.7478   25.2300 C   0  0  0  0  0  0  0  0  0  0  0  0
    2.8246   16.8762   25.4119 C   0  0  0  0  0  0  0  0  0  0  0  0
    2.1544   18.3709   27.1082 C   0  0  0  0  0  0  0  0  0  0  0  0
    2.4864   17.0258   26.7925 O   0  0  0  0  0  0  0  0  0  0  0  0
 19 20  1  0
 20 18  1  0
 18 17  1  0
 17  1  1  0
  1  2  2  0
  2  3  1  0
  3 11  1  0
 11 12  1  0
  3  7  1  0
  7  8  2  0
  7  9  1  0
  3  4  1  0
  4  5  1  0
  5 13  1  0
 13 14  1  0
  5  6  1  0
  6 15  1  0
 15 16  1  0
  6  1  1  0
  9 10  1  0
M  END
> <minimizedAffinity>
-5.05860

> <CNNscore>
0.4865823984

> <CNNaffinity>
4.1949138641

> <CNN_VS>
2.0411713123

> <CNNaffinity_variance>
0.8247501254

$$$$



 20 20  0  0  0  0  0  0  0  0999 V2000
   -6.6444   14.9767   20.9817 C   0  0  0  0  0  0  0  0  0  0  0  0
   -5.9038   16.0112   20.5354 C   0  0  0  0  0  0  0  0  0  0  0  0
   -5.5381   16.2564   19.0872 C   0  0  0  0  0  0  0  0  0  0  0  0
   -5.7055   14.9653   18.2680 C   0  0  0  0  0  0  0  0  0  0  0  0
   -7.0704   14.3170   18.5164 C   0  0  0  0  0  0  0  0  0  0  0  0
   -7.2497   13.9605   20.0206 C   0  0  0  0  0  0  0  0  0  0  0  0
   -4.0373   16.6581   18.9578 C   0  0  0  0  0  0  0  0  0  0  0  0
   -3.4900   17.6329   19.4528 O   0  0  0  0  0  0  0  0  0  0  0  0
   -3.3046   15.8141   18.1938 O   0  0  0  0  0  0  0  0  0  0  0  0
   -3.7083   15.0623   17.8068 H   0  0  0  0  0  0  0  0  0  0  0  0
   -6.4442   17.2017   18.5038 O   0  0  0  0  0  0  0  0  0  0  0  0
   -6.1465   17.6148   17.1763 C   0  0  0  0  0  0  0  0  0  0  0  0
   -7.1407   13.0939   17.7482 O   0  0  0  0  0  0  0  0  0  0  0  0
   -7.7631   13.2708   16.4808 C   0  0  0  0  0  0  0  0  0  0  0  0
   -8.6451   13.8600   20.3573 O   0  0  0  0  0  0  0  0  0  0  0  0
   -9.4576   14.8377   19.7241 C   0  0  0  0  0  0  0  0  0  0  0  0
   -6.9479   14.7230   22.4539 C   0  0  0  0  0  0  0  0  0  0  0  0
   -6.3781   13.4529   23.1003 C   0  0  0  0  0  0  0  0  0  0  0  0
   -6.9675   11.8889   24.7638 C   0  0  0  0  0  0  0  0  0  0  0  0
   -6.9343   13.2629   24.4031 O   0  0  0  0  0  0  0  0  0  0  0  0
 19 20  1  0
 20 18  1  0
 18 17  1  0
 17  1  1  0
  1  2  2  0
  2  3  1  0
  3 11  1  0
 11 12  1  0
  3  7  1  0
  7  8  2  0
  7  9  1  0
  3  4  1  0
  4  5  1  0
  5 13  1  0
 13 14  1  0
  5  6  1  0
  6 15  1  0
 15 16  1  0
  6  1  1  0
  9 10  1  0
M  END
> <minimizedAffinity>
-4.27384

> <CNNscore>
0.3650187552

> <CNNaffinity>
3.8764932156

> <CNN_VS>
1.4149926901

> <CNNaffinity_variance>
0.3136586249

$$$$



 20 20  0  0  0  0  0  0  0  0999 V2000
   11.7221   22.5492   31.3403 C   0  0  0  0  0  0  0  0  0  0  0  0
   12.6843   22.5957   30.3970 C   0  0  0  0  0  0  0  0  0  0  0  0
   12.5027   23.1432   28.9976 C   0  0  0  0  0  0  0  0  0  0  0  0
   11.0087   23.2006   28.6361 C   0  0  0  0  0  0  0  0  0  0  0  0
   10.1917   23.8835   29.7366 C   0  0  0  0  0  0  0  0  0  0  0  0
   10.3326   23.1214   31.0861 C   0  0  0  0  0  0  0  0  0  0  0  0
   13.1651   22.2012   27.9467 C   0  0  0  0  0  0  0  0  0  0  0  0
   14.2175   22.3849   27.3521 O   0  0  0  0  0  0  0  0  0  0  0  0
   12.4544   21.0786   27.6870 O   0  0  0  0  0  0  0  0  0  0  0  0
   11.6457   20.9222   28.1338 H   0  0  0  0  0  0  0  0  0  0  0  0
   12.9654   24.4985   28.9351 O   0  0  0  0  0  0  0  0  0  0  0  0
   14.0333   24.8348   29.8114 C   0  0  0  0  0  0  0  0  0  0  0  0
    8.7990   23.8657   29.3481 O   0  0  0  0  0  0  0  0  0  0  0  0
    8.2457   25.1694   29.2097 C   0  0  0  0  0  0  0  0  0  0  0  0
   10.0392   23.9905   32.1948 O   0  0  0  0  0  0  0  0  0  0  0  0
    8.7749   23.7460   32.7936 C   0  0  0  0  0  0  0  0  0  0  0  0
   11.9180   21.9383   32.7231 C   0  0  0  0  0  0  0  0  0  0  0  0
   11.2605   20.5821   33.0133 C   0  0  0  0  0  0  0  0  0  0  0  0
   11.5845   21.1932   35.2678 C   0  0  0  0  0  0  0  0  0  0  0  0
   11.6053   20.1304   34.3247 O   0  0  0  0  0  0  0  0  0  0  0  0
 19 20  1  0
 20 18  1  0
 18 17  1  0
 17  1  1  0
  1  2  2  0
  2  3  1  0
  3 11  1  0
 11 12  1  0
  3  7  1  0
  7  8  2  0
  7  9  1  0
  3  4  1  0
  4  5  1  0
  5 13  1  0
 13 14  1  0
  5  6  1  0
  6 15  1  0
 15 16  1  0
  6  1  1  0
  9 10  1  0
M  END
> <minimizedAffinity>
-3.40025

> <CNNscore>
0.3530052006

> <CNNaffinity>
4.1710453033

> <CNN_VS>
1.4724006653

> <CNNaffinity_variance>
0.3704683483

$$$$



 20 20  0  0  0  0  0  0  0  0999 V2000
   10.3919   23.0355   32.0401 C   0  0  0  0  0  0  0  0  0  0  0  0
    9.3915   23.5737   32.7663 C   0  0  0  0  0  0  0  0  0  0  0  0
    8.9395   23.0780   34.1231 C   0  0  0  0  0  0  0  0  0  0  0  0
    9.4262   21.6374   34.3549 C   0  0  0  0  0  0  0  0  0  0  0  0
   10.9201   21.4947   34.0504 C   0  0  0  0  0  0  0  0  0  0  0  0
   11.2237   21.8745   32.5721 C   0  0  0  0  0  0  0  0  0  0  0  0
    7.3833   23.0255   34.2007 C   0  0  0  0  0  0  0  0  0  0  0  0
    6.7063   22.4655   35.0509 O   0  0  0  0  0  0  0  0  0  0  0  0
    6.7587   23.6716   33.1881 O   0  0  0  0  0  0  0  0  0  0  0  0
    7.2624   24.1059   32.5281 H   0  0  0  0  0  0  0  0  0  0  0  0
    9.5460   23.8600   35.1602 O   0  0  0  0  0  0  0  0  0  0  0  0
    9.3620   25.2668   35.0702 C   0  0  0  0  0  0  0  0  0  0  0  0
   11.2964   20.1130   34.2508 O   0  0  0  0  0  0  0  0  0  0  0  0
   12.1123   19.9223   35.4009 C   0  0  0  0  0  0  0  0  0  0  0  0
   12.6028   22.2547   32.4169 O   0  0  0  0  0  0  0  0  0  0  0  0
   13.1011   23.0464   33.4854 C   0  0  0  0  0  0  0  0  0  0  0  0
   10.7869   23.5197   30.6496 C   0  0  0  0  0  0  0  0  0  0  0  0
   10.0603   24.7449   30.0781 C   0  0  0  0  0  0  0  0  0  0  0  0
    7.7672   25.0528   29.6226 C   0  0  0  0  0  0  0  0  0  0  0  0
    8.9465   24.3378   29.2803 O   0  0  0  0  0  0  0  0  0  0  0  0
 19 20  1  0
 20 18  1  0
 18 17  1  0
 17  1  1  0
  1  2  2  0
  2  3  1  0
  3 11  1  0
 11 12  1  0
  3  7  1  0
  7  8  2  0
  7  9  1  0
  3  4  1  0
  4  5  1  0
  5 13  1  0
 13 14  1  0
  5  6  1  0
  6 15  1  0
 15 16  1  0
  6  1  1  0
  9 10  1  0
M  END
> <minimizedAffinity>
-3.37035

> <CNNscore>
0.2967194021

> <CNNaffinity>
3.8689601421

> <CNN_VS>
1.1479955912

> <CNNaffinity_variance>
0.1528851688

$$$$



 20 20  0  0  0  0  0  0  0  0999 V2000
    1.7097   20.6812   24.0815 C   0  0  0  0  0  0  0  0  0  0  0  0
    1.3435   21.9689   24.2418 C   0  0  0  0  0  0  0  0  0  0  0  0
    1.6478   23.0860   23.2667 C   0  0  0  0  0  0  0  0  0  0  0  0
    2.8006   22.6805   22.3326 C   0  0  0  0  0  0  0  0  0  0  0  0
    2.5644   21.2977   21.7185 C   0  0  0  0  0  0  0  0  0  0  0  0
    2.4373   20.2128   22.8269 C   0  0  0  0  0  0  0  0  0  0  0  0
    2.1325   24.3606   24.0222 C   0  0  0  0  0  0  0  0  0  0  0  0
    1.5104   25.0055   24.8540 O   0  0  0  0  0  0  0  0  0  0  0  0
    3.3767   24.7670   23.6761 O   0  0  0  0  0  0  0  0  0  0  0  0
    3.8673   24.2843   23.0403 H   0  0  0  0  0  0  0  0  0  0  0  0
    0.5208   23.3126   22.4102 O   0  0  0  0  0  0  0  0  0  0  0  0
    0.6170   24.4279   21.5337 C   0  0  0  0  0  0  0  0  0  0  0  0
    3.7010   20.9675   20.8879 O   0  0  0  0  0  0  0  0  0  0  0  0
    4.1799   22.0776   20.1375 C   0  0  0  0  0  0  0  0  0  0  0  0
    1.7149   19.0681   22.3387 O   0  0  0  0  0  0  0  0  0  0  0  0
    2.5459   17.9620   22.0181 C   0  0  0  0  0  0  0  0  0  0  0  0
    1.4398   19.5880   25.1091 C   0  0  0  0  0  0  0  0  0  0  0  0
    1.2434   20.0053   26.5729 C   0  0  0  0  0  0  0  0  0  0  0  0
   -0.5740   19.8158   28.0636 C   0  0  0  0  0  0  0  0  0  0  0  0
   -0.1255   20.3345   26.8190 O   0  0  0  0  0  0  0  0  0  0  0  0
 19 20  1  0
 20 18  1  0
 18 17  1  0
 17  1  1  0
  1  2  2  0
  2  3  1  0
  3 11  1  0
 11 12  1  0
  3  7  1  0
  7  8  2  0
  7  9  1  0
  3  4  1  0
  4  5  1  0
  5 13  1  0
 13 14  1  0
  5  6  1  0
  6 15  1  0
 15 16  1  0
  6  1  1  0
  9 10  1  0
M  END
> <minimizedAffinity>
-4.45776

> <CNNscore>
0.2901677787

> <CNNaffinity>
3.4514167309

> <CNN_VS>
1.0014898777

> <CNNaffinity_variance>
1.5395450592

$$$$



 20 20  0  0  0  0  0  0  0  0999 V2000
    6.0321   14.9493   16.1735 C   0  0  0  0  0  0  0  0  0  0  0  0
    6.3760   15.7246   17.2217 C   0  0  0  0  0  0  0  0  0  0  0  0
    7.7718   16.2398   17.4997 C   0  0  0  0  0  0  0  0  0  0  0  0
    8.8117   15.4070   16.7309 C   0  0  0  0  0  0  0  0  0  0  0  0
    8.4311   15.2590   15.2550 C   0  0  0  0  0  0  0  0  0  0  0  0
    7.0482   14.5610   15.1060 C   0  0  0  0  0  0  0  0  0  0  0  0
    8.1261   16.0851   19.0100 C   0  0  0  0  0  0  0  0  0  0  0  0
    9.0088   15.3901   19.4924 O   0  0  0  0  0  0  0  0  0  0  0  0
    7.3347   16.8060   19.8387 O   0  0  0  0  0  0  0  0  0  0  0  0
    6.6535   17.3439   19.4856 H   0  0  0  0  0  0  0  0  0  0  0  0
    7.9102   17.5783   17.0055 O   0  0  0  0  0  0  0  0  0  0  0  0
    9.1355   18.2325   17.3089 C   0  0  0  0  0  0  0  0  0  0  0  0
    9.4277   14.4355   14.6075 O   0  0  0  0  0  0  0  0  0  0  0  0
   10.2288   15.1605   13.6815 C   0  0  0  0  0  0  0  0  0  0  0  0
    6.4503   14.8810   13.8368 O   0  0  0  0  0  0  0  0  0  0  0  0
    6.6088   16.2402   13.4570 C   0  0  0  0  0  0  0  0  0  0  0  0
    4.6290   14.3967   15.9508 C   0  0  0  0  0  0  0  0  0  0  0  0
    3.4753   15.3968   15.7942 C   0  0  0  0  0  0  0  0  0  0  0  0
    2.8651   16.9398   17.4697 C   0  0  0  0  0  0  0  0  0  0  0  0
    2.8054   15.5859   17.0424 O   0  0  0  0  0  0  0  0  0  0  0  0
 19 20  1  0
 20 18  1  0
 18 17  1  0
 17  1  1  0
  1  2  2  0
  2  3  1  0
  3 11  1  0
 11 12  1  0
  3  7  1  0
  7  8  2  0
  7  9  1  0
  3  4  1  0
  4  5  1  0
  5 13  1  0
 13 14  1  0
  5  6  1  0
  6 15  1  0
 15 16  1  0
  6  1  1  0
  9 10  1  0
M  END
> <minimizedAffinity>
-3.36680

> <CNNscore>
0.2546443641

> <CNNaffinity>
2.8760366440

> <CNN_VS>
0.7323665023

> <CNNaffinity_variance>
0.8554830551

$$$$



 20 20  0  0  0  0  0  0  0  0999 V2000
    3.4743   15.1369   21.4887 C   0  0  0  0  0  0  0  0  0  0  0  0
    3.0969   13.8427   21.5133 C   0  0  0  0  0  0  0  0  0  0  0  0
    2.8497   13.0341   22.7688 C   0  0  0  0  0  0  0  0  0  0  0  0
    3.5210   13.7067   23.9783 C   0  0  0  0  0  0  0  0  0  0  0  0
    3.1709   15.1954   24.0575 C   0  0  0  0  0  0  0  0  0  0  0  0
    3.6317   15.9427   22.7726 C   0  0  0  0  0  0  0  0  0  0  0  0
    3.4937   11.6194   22.6492 C   0  0  0  0  0  0  0  0  0  0  0  0
    3.8769   10.9044   23.5641 O   0  0  0  0  0  0  0  0  0  0  0  0
    3.6363   11.1843   21.3752 O   0  0  0  0  0  0  0  0  0  0  0  0
    3.3480   11.7197   20.6623 H   0  0  0  0  0  0  0  0  0  0  0  0
    1.4486   13.0101   23.0711 O   0  0  0  0  0  0  0  0  0  0  0  0
    0.9061   11.7424   23.4172 C   0  0  0  0  0  0  0  0  0  0  0  0
    3.8653   15.7674   25.1895 O   0  0  0  0  0  0  0  0  0  0  0  0
    3.0159   16.5456   26.0249 C   0  0  0  0  0  0  0  0  0  0  0  0
    2.8772   17.1543   22.5900 O   0  0  0  0  0  0  0  0  0  0  0  0
    1.9678   17.1025   21.5004 C   0  0  0  0  0  0  0  0  0  0  0  0
    3.7729   15.9096   20.2090 C   0  0  0  0  0  0  0  0  0  0  0  0
    5.1553   15.7347   19.5656 C   0  0  0  0  0  0  0  0  0  0  0  0
    7.3453   16.6086   19.5977 C   0  0  0  0  0  0  0  0  0  0  0  0
    6.1558   16.3938   20.3449 O   0  0  0  0  0  0  0  0  0  0  0  0
 19 20  1  0
 20 18  1  0
 18 17  1  0
 17  1  1  0
  1  2  2  0
  2  3  1  0
  3 11  1  0
 11 12  1  0
  3  7  1  0
  7  8  2  0
  7  9  1  0
  3  4  1  0
  4  5  1  0
  5 13  1  0
 13 14  1  0
  5  6  1  0
  6 15  1  0
 15 16  1  0
  6  1  1  0
  9 10  1  0
M  END
> <minimizedAffinity>
-4.48280

> <CNNscore>
0.2250159234

> <CNNaffinity>
3.8440456390

> <CNN_VS>
0.8649714589

> <CNNaffinity_variance>
0.2248311788

$$$$



 20 20  0  0  0  0  0  0  0  0999 V2000
    6.0887   14.9578   16.3677 C   0  0  0  0  0  0  0  0  0  0  0  0
    4.9654   15.3928   16.9734 C   0  0  0  0  0  0  0  0  0  0  0  0
    4.9134   16.4681   18.0376 C   0  0  0  0  0  0  0  0  0  0  0  0
    6.3029   16.6638   18.6676 C   0  0  0  0  0  0  0  0  0  0  0  0
    7.3854   16.8289   17.5971 C   0  0  0  0  0  0  0  0  0  0  0  0
    7.4467   15.5786   16.6726 C   0  0  0  0  0  0  0  0  0  0  0  0
    3.9671   16.0459   19.2023 C   0  0  0  0  0  0  0  0  0  0  0  0
    2.7468   15.9757   19.1718 O   0  0  0  0  0  0  0  0  0  0  0  0
    4.6108   15.7482   20.3555 O   0  0  0  0  0  0  0  0  0  0  0  0
    5.5457   15.7969   20.3962 H   0  0  0  0  0  0  0  0  0  0  0  0
    4.5785   17.7303   17.4463 O   0  0  0  0  0  0  0  0  0  0  0  0
    4.4478   18.8252   18.3437 C   0  0  0  0  0  0  0  0  0  0  0  0
    8.6636   16.9676   18.2589 O   0  0  0  0  0  0  0  0  0  0  0  0
    9.0991   15.7640   18.8806 C   0  0  0  0  0  0  0  0  0  0  0  0
    8.0380   15.9120   15.4038 O   0  0  0  0  0  0  0  0  0  0  0  0
    9.3274   15.3496   15.2089 C   0  0  0  0  0  0  0  0  0  0  0  0
    6.1173   13.8316   15.3406 C   0  0  0  0  0  0  0  0  0  0  0  0
    4.7772   13.2982   14.8162 C   0  0  0  0  0  0  0  0  0  0  0  0
    4.8815   11.6152   13.1677 C   0  0  0  0  0  0  0  0  0  0  0  0
    4.8639   11.8946   14.5608 O   0  0  0  0  0  0  0  0  0  0  0  0
 19 20  1  0
 20 18  1  0
 18 17  1  0
 17  1  1  0
  1  2  2  0
  2  3  1  0
  3 11  1  0
 11 12  1  0
  3  7  1  0
  7  8  2  0
  7  9  1  0
  3  4  1  0
  4  5  1  0
  5 13  1  0
 13 14  1  0
  5  6  1  0
  6 15  1  0
 15 16  1  0
  6  1  1  0
  9 10  1  0
M  END
> <minimizedAffinity>
-3.49955

> <CNNscore>
0.2155106664

> <CNNaffinity>
3.0165565014

> <CNN_VS>
0.6501001120

> <CNNaffinity_variance>
0.5911188722

$$$$
