


 45 48  0  0  0  0  0  0  0  0999 V2000
   47.7085    9.2021    1.6721 C   0  0  0  0  0  0  0  0  0  0  0  0
   47.7234   10.3152    2.5192 C   0  0  0  0  0  0  0  0  0  0  0  0
   47.1439   11.5157    2.1121 C   0  0  0  0  0  0  0  0  0  0  0  0
   46.5160   11.6094    0.8672 C   0  0  0  0  0  0  0  0  0  0  0  0
   46.4142   10.5000    0.0238 C   0  0  0  0  0  0  0  0  0  0  0  0
   47.0565    9.3156    0.4309 C   0  0  0  0  0  0  0  0  0  0  0  0
   49.5456    5.9161    2.0225 C   0  0  0  0  0  0  0  0  0  0  0  0
   49.5180    6.1670    3.3840 C   0  0  0  0  0  0  0  0  0  0  0  0
   48.7382    7.6567    3.7015 S   0  0  0  0  0  0  0  0  0  0  0  0
   48.3869    7.9516    2.0443 C   0  0  0  0  0  0  0  0  0  0  0  0
   48.8464    6.9067    1.2692 C   0  0  0  0  0  0  0  0  0  0  0  0
   48.5829    6.7347   -0.6055 Br  0  0  0  0  0  0  0  0  0  0  0  0
   50.0748    5.3656    4.4577 C   0  0  0  0  0  0  0  0  0  0  0  0
   49.5640    4.3710    4.9689 O   0  0  0  0  0  0  0  0  0  0  0  0
   51.2794    5.8044    4.8753 O   0  0  0  0  0  0  0  0  0  0  0  0
   51.6638    6.5630    4.4820 H   0  0  0  0  0  0  0  0  0  0  0  0
   50.0978    4.7774    1.5279 O   0  0  0  0  0  0  0  0  0  0  0  0
   49.1604    3.6979    1.4095 C   0  0  0  0  0  0  0  0  0  0  0  0
   49.7414    2.4473    2.0916 C   0  0  0  0  0  0  0  0  0  0  0  0
   48.6840    1.3386    2.5787 N   0  0  0  0  0  0  0  0  0  0  0  0
   47.5772    2.1037    3.2973 C   0  0  0  0  0  0  0  0  0  0  0  0
   49.3418    0.3704    3.5447 C   0  0  0  0  0  0  0  0  0  0  0  0
   48.2212    0.6784    1.2878 C   0  0  0  0  0  0  0  0  0  0  0  0
   47.0464    1.2987   -0.7721 C   0  0  0  0  0  0  0  0  0  0  0  0
   46.8324    0.8928    0.7190 N   0  0  0  0  0  0  0  0  0  0  0  0
   46.0186   -0.4079    0.6652 C   0  0  0  0  0  0  0  0  0  0  0  0
   46.0049    2.0000    1.3377 C   0  0  0  0  0  0  0  0  0  0  0  0
   45.8254   10.5214   -1.2439 N   0  0  0  0  0  0  0  0  0  0  0  0
   46.2783   10.0655   -1.9897 H   0  0  0  0  0  0  0  0  0  0  0  0
   44.5465   11.2072   -1.4944 C   0  0  0  0  0  0  0  0  0  0  0  0
   44.1817   11.0549   -2.9771 C   0  0  0  0  0  0  0  0  0  0  0  0
   42.9864   11.9249   -3.3369 C   0  0  0  0  0  0  0  0  0  0  0  0
   43.1981   13.3277   -2.9247 N   0  0  0  0  0  0  0  0  0  0  0  0
   44.4698   13.6448   -2.2569 C   0  0  0  0  0  0  0  0  0  0  0  0
   44.6624   12.6854   -1.0849 C   0  0  0  0  0  0  0  0  0  0  0  0
   42.3918   14.5422   -3.7970 S   0  0  0  0  0  0  0  0  0  0  0  0
   43.3139   14.9903   -4.8201 O   0  0  0  0  0  0  0  0  0  0  0  0
   41.0814   14.0177   -4.1247 O   0  0  0  0  0  0  0  0  0  0  0  0
   42.2105   15.8321   -2.5488 C   0  0  0  0  0  0  0  0  0  0  0  0
   42.8839   17.0911   -3.0291 C   0  0  0  0  0  0  0  0  0  0  0  0
   42.2386   17.9415   -3.9414 C   0  0  0  0  0  0  0  0  0  0  0  0
   42.8600   19.1112   -4.3837 C   0  0  0  0  0  0  0  0  0  0  0  0
   44.1293   19.4442   -3.9208 C   0  0  0  0  0  0  0  0  0  0  0  0
   44.7783   18.6106   -3.0101 C   0  0  0  0  0  0  0  0  0  0  0  0
   44.1612   17.4404   -2.5652 C   0  0  0  0  0  0  0  0  0  0  0  0
 24 25  1  0
 25 26  1  0
 25 27  1  0
 25 23  1  0
 23 20  1  0
 20 21  1  0
 20 22  1  0
 20 19  1  0
 19 18  1  0
 18 17  1  0
 17  7  1  0
  7  8  2  0
  8 13  1  0
 13 14  2  0
 13 15  1  0
  8  9  1  0
  9 10  1  0
 10  1  1  0
  1  2  2  0
  2  3  1  0
  3  4  2  0
  4  5  1  0
  5 28  1  0
 28 30  1  0
 30 31  1  0
 31 32  1  0
 32 33  1  0
 33 36  1  0
 36 37  2  0
 36 38  2  0
 36 39  1  0
 39 40  1  0
 40 41  2  0
 41 42  1  0
 42 43  2  0
 43 44  1  0
 44 45  2  0
 33 34  1  0
 34 35  1  0
  5  6  2  0
 10 11  2  0
 11 12  1  0
 11  7  1  0
  6  1  1  0
 35 30  1  0
 45 40  1  0
 15 16  1  0
 28 29  1  0
M  CHG 1  20   1
M  CHG 1  25   1
M  END
> <minimizedAffinity>
-5.67089

> <CNNscore>
0.2859213650

> <CNNaffinity>
5.8775424957

> <CNN_VS>
1.6805149317

> <CNNaffinity_variance>
0.2305423617

$$$$



 45 48  0  0  0  0  0  0  0  0999 V2000
   47.3313   11.7153    0.9653 C   0  0  0  0  0  0  0  0  0  0  0  0
   48.2636   11.7080   -0.0776 C   0  0  0  0  0  0  0  0  0  0  0  0
   49.1466   10.6394   -0.2231 C   0  0  0  0  0  0  0  0  0  0  0  0
   49.0882    9.5520    0.6525 C   0  0  0  0  0  0  0  0  0  0  0  0
   48.1228    9.4866    1.6604 C   0  0  0  0  0  0  0  0  0  0  0  0
   47.2804   10.6024    1.8240 C   0  0  0  0  0  0  0  0  0  0  0  0
   44.7338   14.4609    1.0657 C   0  0  0  0  0  0  0  0  0  0  0  0
   45.3388   14.8449    2.2506 C   0  0  0  0  0  0  0  0  0  0  0  0
   46.6434   13.8016    2.6210 S   0  0  0  0  0  0  0  0  0  0  0  0
   46.4475   12.8691    1.1898 C   0  0  0  0  0  0  0  0  0  0  0  0
   45.4075   13.3718    0.4351 C   0  0  0  0  0  0  0  0  0  0  0  0
   44.8954   12.7404   -1.2831 Br  0  0  0  0  0  0  0  0  0  0  0  0
   44.9700   15.9324    3.1375 C   0  0  0  0  0  0  0  0  0  0  0  0
   44.6457   15.8347    4.3193 O   0  0  0  0  0  0  0  0  0  0  0  0
   45.0262   17.1416    2.5436 O   0  0  0  0  0  0  0  0  0  0  0  0
   45.2741   17.2099    1.6425 H   0  0  0  0  0  0  0  0  0  0  0  0
   43.6831   15.1547    0.5550 O   0  0  0  0  0  0  0  0  0  0  0  0
   44.0521   16.0360   -0.5152 C   0  0  0  0  0  0  0  0  0  0  0  0
   42.9718   15.9821   -1.6092 C   0  0  0  0  0  0  0  0  0  0  0  0
   43.3485   16.6475   -3.0234 N   0  0  0  0  0  0  0  0  0  0  0  0
   44.3105   17.7879   -2.7059 C   0  0  0  0  0  0  0  0  0  0  0  0
   42.1052   17.2034   -3.6929 C   0  0  0  0  0  0  0  0  0  0  0  0
   43.9951   15.5123   -3.8043 C   0  0  0  0  0  0  0  0  0  0  0  0
   44.5055   17.1949   -5.5119 C   0  0  0  0  0  0  0  0  0  0  0  0
   44.4126   15.6591   -5.2542 N   0  0  0  0  0  0  0  0  0  0  0  0
   45.8297   15.1259   -5.5084 C   0  0  0  0  0  0  0  0  0  0  0  0
   43.4574   15.1184   -6.2976 C   0  0  0  0  0  0  0  0  0  0  0  0
   48.0175    8.4469    2.5889 N   0  0  0  0  0  0  0  0  0  0  0  0
   47.2235    7.8652    2.5681 H   0  0  0  0  0  0  0  0  0  0  0  0
   49.0615    8.1979    3.5972 C   0  0  0  0  0  0  0  0  0  0  0  0
   50.3180    7.6686    2.8930 C   0  0  0  0  0  0  0  0  0  0  0  0
   51.3493    7.1900    3.9042 C   0  0  0  0  0  0  0  0  0  0  0  0
   50.7611    6.2279    4.8586 N   0  0  0  0  0  0  0  0  0  0  0  0
   49.3358    5.9051    4.6914 C   0  0  0  0  0  0  0  0  0  0  0  0
   48.5383    7.2064    4.6505 C   0  0  0  0  0  0  0  0  0  0  0  0
   51.7946    5.0832    5.5711 S   0  0  0  0  0  0  0  0  0  0  0  0
   53.1304    5.3935    5.1051 O   0  0  0  0  0  0  0  0  0  0  0  0
   51.4655    5.0479    6.9818 O   0  0  0  0  0  0  0  0  0  0  0  0
   51.2331    3.5516    4.8006 C   0  0  0  0  0  0  0  0  0  0  0  0
   52.1698    2.4320    5.1725 C   0  0  0  0  0  0  0  0  0  0  0  0
   53.1151    1.9567    4.2493 C   0  0  0  0  0  0  0  0  0  0  0  0
   53.9870    0.9221    4.5946 C   0  0  0  0  0  0  0  0  0  0  0  0
   53.9253    0.3522    5.8626 C   0  0  0  0  0  0  0  0  0  0  0  0
   52.9945    0.8195    6.7905 C   0  0  0  0  0  0  0  0  0  0  0  0
   52.1209    1.8533    6.4499 C   0  0  0  0  0  0  0  0  0  0  0  0
 24 25  1  0
 25 26  1  0
 25 27  1  0
 25 23  1  0
 23 20  1  0
 20 21  1  0
 20 22  1  0
 20 19  1  0
 19 18  1  0
 18 17  1  0
 17  7  1  0
  7  8  2  0
  8 13  1  0
 13 14  2  0
 13 15  1  0
  8  9  1  0
  9 10  1  0
 10  1  1  0
  1  2  2  0
  2  3  1  0
  3  4  2  0
  4  5  1  0
  5 28  1  0
 28 30  1  0
 30 31  1  0
 31 32  1  0
 32 33  1  0
 33 36  1  0
 36 37  2  0
 36 38  2  0
 36 39  1  0
 39 40  1  0
 40 41  2  0
 41 42  1  0
 42 43  2  0
 43 44  1  0
 44 45  2  0
 33 34  1  0
 34 35  1  0
  5  6  2  0
 10 11  2  0
 11 12  1  0
 11  7  1  0
  6  1  1  0
 35 30  1  0
 45 40  1  0
 15 16  1  0
 28 29  1  0
M  CHG 1  20   1
M  CHG 1  25   1
M  END
> <minimizedAffinity>
-7.59175

> <CNNscore>
0.2762565017

> <CNNaffinity>
6.3917579651

> <CNN_VS>
1.7657647133

> <CNNaffinity_variance>
0.0863668099

$$$$



 45 48  0  0  0  0  0  0  0  0999 V2000
   46.5582   10.7513    1.2371 C   0  0  0  0  0  0  0  0  0  0  0  0
   46.1146    9.8224    0.2898 C   0  0  0  0  0  0  0  0  0  0  0  0
   46.7238    8.5725    0.1927 C   0  0  0  0  0  0  0  0  0  0  0  0
   47.7622    8.2247    1.0606 C   0  0  0  0  0  0  0  0  0  0  0  0
   48.1838    9.0953    2.0688 C   0  0  0  0  0  0  0  0  0  0  0  0
   47.5938   10.3726    2.1104 C   0  0  0  0  0  0  0  0  0  0  0  0
   44.7289   14.0470    0.9407 C   0  0  0  0  0  0  0  0  0  0  0  0
   45.3972   14.4013    2.1006 C   0  0  0  0  0  0  0  0  0  0  0  0
   46.3951   13.1168    2.6317 S   0  0  0  0  0  0  0  0  0  0  0  0
   45.9885   12.1055    1.3018 C   0  0  0  0  0  0  0  0  0  0  0  0
   45.1160   12.7608    0.4574 C   0  0  0  0  0  0  0  0  0  0  0  0
   44.4819   12.0849   -1.2022 Br  0  0  0  0  0  0  0  0  0  0  0  0
   45.3020   15.6396    2.8509 C   0  0  0  0  0  0  0  0  0  0  0  0
   44.3317   16.0313    3.4962 O   0  0  0  0  0  0  0  0  0  0  0  0
   46.4313   16.3748    2.8035 O   0  0  0  0  0  0  0  0  0  0  0  0
   47.1676   16.0712    2.3101 H   0  0  0  0  0  0  0  0  0  0  0  0
   43.8910   14.9164    0.3178 O   0  0  0  0  0  0  0  0  0  0  0  0
   44.2715   15.1987   -1.0364 C   0  0  0  0  0  0  0  0  0  0  0  0
   43.2922   16.2243   -1.6328 C   0  0  0  0  0  0  0  0  0  0  0  0
   43.0101   16.1136   -3.2117 N   0  0  0  0  0  0  0  0  0  0  0  0
   44.3560   15.7965   -3.8555 C   0  0  0  0  0  0  0  0  0  0  0  0
   42.4888   17.4339   -3.7485 C   0  0  0  0  0  0  0  0  0  0  0  0
   42.0032   14.9781   -3.3275 C   0  0  0  0  0  0  0  0  0  0  0  0
   39.8561   13.8186   -3.5584 C   0  0  0  0  0  0  0  0  0  0  0  0
   40.5367   15.2208   -3.6249 N   0  0  0  0  0  0  0  0  0  0  0  0
   39.8503   16.0493   -2.5297 C   0  0  0  0  0  0  0  0  0  0  0  0
   40.2011   15.7825   -4.9907 C   0  0  0  0  0  0  0  0  0  0  0  0
   49.2304    8.8299    2.9567 N   0  0  0  0  0  0  0  0  0  0  0  0
   49.6318    9.5749    3.4598 H   0  0  0  0  0  0  0  0  0  0  0  0
   49.7489    7.4667    3.1602 C   0  0  0  0  0  0  0  0  0  0  0  0
   49.1706    6.9034    4.4652 C   0  0  0  0  0  0  0  0  0  0  0  0
   49.8399    5.5882    4.8356 C   0  0  0  0  0  0  0  0  0  0  0  0
   51.3114    5.7192    4.8531 N   0  0  0  0  0  0  0  0  0  0  0  0
   51.8703    7.0381    4.5188 C   0  0  0  0  0  0  0  0  0  0  0  0
   51.2867    7.4956    3.1841 C   0  0  0  0  0  0  0  0  0  0  0  0
   52.1896    4.6771    5.8673 S   0  0  0  0  0  0  0  0  0  0  0  0
   53.5738    5.0946    5.7814 O   0  0  0  0  0  0  0  0  0  0  0  0
   51.4810    4.6324    7.1305 O   0  0  0  0  0  0  0  0  0  0  0  0
   51.9896    3.0928    5.0278 C   0  0  0  0  0  0  0  0  0  0  0  0
   50.8017    2.3677    5.6043 C   0  0  0  0  0  0  0  0  0  0  0  0
   49.6937    2.0603    4.7982 C   0  0  0  0  0  0  0  0  0  0  0  0
   48.5941    1.3840    5.3304 C   0  0  0  0  0  0  0  0  0  0  0  0
   48.5885    1.0078    6.6702 C   0  0  0  0  0  0  0  0  0  0  0  0
   49.6855    1.3025    7.4798 C   0  0  0  0  0  0  0  0  0  0  0  0
   50.7869    1.9782    6.9522 C   0  0  0  0  0  0  0  0  0  0  0  0
 24 25  1  0
 25 26  1  0
 25 27  1  0
 25 23  1  0
 23 20  1  0
 20 21  1  0
 20 22  1  0
 20 19  1  0
 19 18  1  0
 18 17  1  0
 17  7  1  0
  7  8  2  0
  8 13  1  0
 13 14  2  0
 13 15  1  0
  8  9  1  0
  9 10  1  0
 10  1  1  0
  1  2  2  0
  2  3  1  0
  3  4  2  0
  4  5  1  0
  5 28  1  0
 28 30  1  0
 30 31  1  0
 31 32  1  0
 32 33  1  0
 33 36  1  0
 36 37  2  0
 36 38  2  0
 36 39  1  0
 39 40  1  0
 40 41  2  0
 41 42  1  0
 42 43  2  0
 43 44  1  0
 44 45  2  0
 33 34  1  0
 34 35  1  0
  5  6  2  0
 10 11  2  0
 11 12  1  0
 11  7  1  0
  6  1  1  0
 35 30  1  0
 45 40  1  0
 15 16  1  0
 28 29  1  0
M  CHG 1  20   1
M  CHG 1  25   1
M  END
> <minimizedAffinity>
-7.88190

> <CNNscore>
0.2517275810

> <CNNaffinity>
6.3474745750

> <CNN_VS>
1.5978344679

> <CNNaffinity_variance>
0.2107447833

$$$$



 45 48  0  0  0  0  0  0  0  0999 V2000
   45.3402   10.7636    0.2295 C   0  0  0  0  0  0  0  0  0  0  0  0
   45.0498   11.8757    1.0269 C   0  0  0  0  0  0  0  0  0  0  0  0
   45.8572   12.1867    2.1197 C   0  0  0  0  0  0  0  0  0  0  0  0
   46.9811   11.4088    2.4103 C   0  0  0  0  0  0  0  0  0  0  0  0
   47.3476   10.3352    1.5947 C   0  0  0  0  0  0  0  0  0  0  0  0
   46.4858   10.0054    0.5317 C   0  0  0  0  0  0  0  0  0  0  0  0
   43.2650   10.2585   -2.8904 C   0  0  0  0  0  0  0  0  0  0  0  0
   42.9728    9.0105   -2.3664 C   0  0  0  0  0  0  0  0  0  0  0  0
   43.7650    8.7921   -0.8655 S   0  0  0  0  0  0  0  0  0  0  0  0
   44.4559   10.3666   -0.8763 C   0  0  0  0  0  0  0  0  0  0  0  0
   44.0613   11.0495   -2.0085 C   0  0  0  0  0  0  0  0  0  0  0  0
   44.4797   12.8629   -2.3958 Br  0  0  0  0  0  0  0  0  0  0  0  0
   42.1581    7.9596   -2.9468 C   0  0  0  0  0  0  0  0  0  0  0  0
   40.9625    8.0297   -3.2245 O   0  0  0  0  0  0  0  0  0  0  0  0
   42.8501    6.8290   -3.1935 O   0  0  0  0  0  0  0  0  0  0  0  0
   43.7611    6.7813   -2.9798 H   0  0  0  0  0  0  0  0  0  0  0  0
   42.7312   10.6686   -4.0707 O   0  0  0  0  0  0  0  0  0  0  0  0
   43.5832   10.4148   -5.1967 C   0  0  0  0  0  0  0  0  0  0  0  0
   42.7886    9.6493   -6.2688 C   0  0  0  0  0  0  0  0  0  0  0  0
   43.4286    8.2687   -6.7875 N   0  0  0  0  0  0  0  0  0  0  0  0
   44.6351    8.0049   -5.8922 C   0  0  0  0  0  0  0  0  0  0  0  0
   43.8856    8.4071   -8.2279 C   0  0  0  0  0  0  0  0  0  0  0  0
   42.3096    7.2529   -6.6069 C   0  0  0  0  0  0  0  0  0  0  0  0
   40.2232    6.0683   -7.1085 C   0  0  0  0  0  0  0  0  0  0  0  0
   41.4483    6.7802   -7.7613 N   0  0  0  0  0  0  0  0  0  0  0  0
   40.8518    7.9487   -8.5587 C   0  0  0  0  0  0  0  0  0  0  0  0
   42.0654    5.7677   -8.7034 C   0  0  0  0  0  0  0  0  0  0  0  0
   48.4403    9.4968    1.8339 N   0  0  0  0  0  0  0  0  0  0  0  0
   49.3344    9.7780    1.5326 H   0  0  0  0  0  0  0  0  0  0  0  0
   48.2908    8.2046    2.5243 C   0  0  0  0  0  0  0  0  0  0  0  0
   49.2914    8.1419    3.6860 C   0  0  0  0  0  0  0  0  0  0  0  0
   49.3322    6.7486    4.2961 C   0  0  0  0  0  0  0  0  0  0  0  0
   49.5631    5.7160    3.2651 N   0  0  0  0  0  0  0  0  0  0  0  0
   49.7041    6.1770    1.8754 C   0  0  0  0  0  0  0  0  0  0  0  0
   48.5054    7.0553    1.5246 C   0  0  0  0  0  0  0  0  0  0  0  0
   50.3199    4.2720    3.7426 S   0  0  0  0  0  0  0  0  0  0  0  0
   51.7454    4.5239    3.6971 O   0  0  0  0  0  0  0  0  0  0  0  0
   49.6581    3.8380    4.9564 O   0  0  0  0  0  0  0  0  0  0  0  0
   49.8663    3.1576    2.3982 C   0  0  0  0  0  0  0  0  0  0  0  0
   48.6463    2.3673    2.7938 C   0  0  0  0  0  0  0  0  0  0  0  0
   48.7782    1.1285    3.4416 C   0  0  0  0  0  0  0  0  0  0  0  0
   47.6480    0.3974    3.8129 C   0  0  0  0  0  0  0  0  0  0  0  0
   46.3765    0.8940    3.5425 C   0  0  0  0  0  0  0  0  0  0  0  0
   46.2323    2.1260    2.9047 C   0  0  0  0  0  0  0  0  0  0  0  0
   47.3590    2.8604    2.5317 C   0  0  0  0  0  0  0  0  0  0  0  0
 24 25  1  0
 25 26  1  0
 25 27  1  0
 25 23  1  0
 23 20  1  0
 20 21  1  0
 20 22  1  0
 20 19  1  0
 19 18  1  0
 18 17  1  0
 17  7  1  0
  7  8  2  0
  8 13  1  0
 13 14  2  0
 13 15  1  0
  8  9  1  0
  9 10  1  0
 10  1  1  0
  1  2  2  0
  2  3  1  0
  3  4  2  0
  4  5  1  0
  5 28  1  0
 28 30  1  0
 30 31  1  0
 31 32  1  0
 32 33  1  0
 33 36  1  0
 36 37  2  0
 36 38  2  0
 36 39  1  0
 39 40  1  0
 40 41  2  0
 41 42  1  0
 42 43  2  0
 43 44  1  0
 44 45  2  0
 33 34  1  0
 34 35  1  0
  5  6  2  0
 10 11  2  0
 11 12  1  0
 11  7  1  0
  6  1  1  0
 35 30  1  0
 45 40  1  0
 15 16  1  0
 28 29  1  0
M  CHG 1  20   1
M  CHG 1  25   1
M  END
> <minimizedAffinity>
-5.86814

> <CNNscore>
0.2300793678

> <CNNaffinity>
5.2556791306

> <CNN_VS>
1.2092233896

> <CNNaffinity_variance>
0.8564154506

$$$$



 45 48  0  0  0  0  0  0  0  0999 V2000
   46.6391   10.5795    1.0833 C   0  0  0  0  0  0  0  0  0  0  0  0
   46.0680    9.6362    0.2224 C   0  0  0  0  0  0  0  0  0  0  0  0
   46.6581    8.3837    0.0619 C   0  0  0  0  0  0  0  0  0  0  0  0
   47.8074    8.0479    0.7823 C   0  0  0  0  0  0  0  0  0  0  0  0
   48.3651    8.9340    1.7075 C   0  0  0  0  0  0  0  0  0  0  0  0
   47.7863   10.2130    1.8099 C   0  0  0  0  0  0  0  0  0  0  0  0
   44.8315   13.8972    0.9377 C   0  0  0  0  0  0  0  0  0  0  0  0
   45.5361   14.2115    2.0876 C   0  0  0  0  0  0  0  0  0  0  0  0
   46.5374   12.9037    2.5512 S   0  0  0  0  0  0  0  0  0  0  0  0
   46.0836   11.9358    1.2045 C   0  0  0  0  0  0  0  0  0  0  0  0
   45.1930   12.6229    0.4055 C   0  0  0  0  0  0  0  0  0  0  0  0
   44.5052   12.0019   -1.2542 Br  0  0  0  0  0  0  0  0  0  0  0  0
   45.4736   15.4276    2.8765 C   0  0  0  0  0  0  0  0  0  0  0  0
   44.5301   15.8023    3.5699 O   0  0  0  0  0  0  0  0  0  0  0  0
   46.6025   16.1618    2.8069 O   0  0  0  0  0  0  0  0  0  0  0  0
   47.3184   15.8712    2.2768 H   0  0  0  0  0  0  0  0  0  0  0  0
   43.9837   14.7916    0.3653 O   0  0  0  0  0  0  0  0  0  0  0  0
   44.4129   15.2296   -0.9316 C   0  0  0  0  0  0  0  0  0  0  0  0
   43.4702   16.3395   -1.4275 C   0  0  0  0  0  0  0  0  0  0  0  0
   43.3314   16.5050   -3.0206 N   0  0  0  0  0  0  0  0  0  0  0  0
   41.8425   16.3766   -3.3261 C   0  0  0  0  0  0  0  0  0  0  0  0
   44.0931   15.4032   -3.7340 C   0  0  0  0  0  0  0  0  0  0  0  0
   43.8863   17.8951   -3.2965 C   0  0  0  0  0  0  0  0  0  0  0  0
   45.0331   19.3562   -4.8959 C   0  0  0  0  0  0  0  0  0  0  0  0
   43.6981   18.5947   -4.6281 N   0  0  0  0  0  0  0  0  0  0  0  0
   43.5645   17.6031   -5.7926 C   0  0  0  0  0  0  0  0  0  0  0  0
   42.6017   19.6368   -4.7027 C   0  0  0  0  0  0  0  0  0  0  0  0
   49.5252    8.6810    2.4452 N   0  0  0  0  0  0  0  0  0  0  0  0
   50.1027    9.4355    2.7029 H   0  0  0  0  0  0  0  0  0  0  0  0
   49.9073    7.3169    2.8476 C   0  0  0  0  0  0  0  0  0  0  0  0
   49.3565    7.0393    4.2527 C   0  0  0  0  0  0  0  0  0  0  0  0
   49.9040    5.7314    4.8046 C   0  0  0  0  0  0  0  0  0  0  0  0
   51.3791    5.6924    4.7332 N   0  0  0  0  0  0  0  0  0  0  0  0
   52.0531    6.8677    4.1604 C   0  0  0  0  0  0  0  0  0  0  0  0
   51.4377    7.1712    2.7964 C   0  0  0  0  0  0  0  0  0  0  0  0
   52.2040    4.7306    5.8648 S   0  0  0  0  0  0  0  0  0  0  0  0
   53.5742    5.1998    5.8775 O   0  0  0  0  0  0  0  0  0  0  0  0
   51.3910    4.7109    7.0641 O   0  0  0  0  0  0  0  0  0  0  0  0
   52.1356    3.1053    5.0846 C   0  0  0  0  0  0  0  0  0  0  0  0
   50.8925    2.3850    5.5377 C   0  0  0  0  0  0  0  0  0  0  0  0
   50.7670    1.9453    6.8654 C   0  0  0  0  0  0  0  0  0  0  0  0
   49.6132    1.2817    7.2876 C   0  0  0  0  0  0  0  0  0  0  0  0
   48.5743    1.0506    6.3912 C   0  0  0  0  0  0  0  0  0  0  0  0
   48.6846    1.4875    5.0711 C   0  0  0  0  0  0  0  0  0  0  0  0
   49.8359    2.1512    4.6445 C   0  0  0  0  0  0  0  0  0  0  0  0
 24 25  1  0
 25 26  1  0
 25 27  1  0
 25 23  1  0
 23 20  1  0
 20 21  1  0
 20 22  1  0
 20 19  1  0
 19 18  1  0
 18 17  1  0
 17  7  1  0
  7  8  2  0
  8 13  1  0
 13 14  2  0
 13 15  1  0
  8  9  1  0
  9 10  1  0
 10  1  1  0
  1  2  2  0
  2  3  1  0
  3  4  2  0
  4  5  1  0
  5 28  1  0
 28 30  1  0
 30 31  1  0
 31 32  1  0
 32 33  1  0
 33 36  1  0
 36 37  2  0
 36 38  2  0
 36 39  1  0
 39 40  1  0
 40 41  2  0
 41 42  1  0
 42 43  2  0
 43 44  1  0
 44 45  2  0
 33 34  1  0
 34 35  1  0
  5  6  2  0
 10 11  2  0
 11 12  1  0
 11  7  1  0
  6  1  1  0
 35 30  1  0
 45 40  1  0
 15 16  1  0
 28 29  1  0
M  CHG 1  20   1
M  CHG 1  25   1
M  END
> <minimizedAffinity>
-7.69576

> <CNNscore>
0.2042410970

> <CNNaffinity>
6.2676272392

> <CNN_VS>
1.2801070213

> <CNNaffinity_variance>
0.2025156766

$$$$



 45 48  0  0  0  0  0  0  0  0999 V2000
   45.4889   10.6572    0.1306 C   0  0  0  0  0  0  0  0  0  0  0  0
   45.0828   11.7347    0.9251 C   0  0  0  0  0  0  0  0  0  0  0  0
   45.8016   12.0732    2.0703 C   0  0  0  0  0  0  0  0  0  0  0  0
   46.9512   11.3591    2.4183 C   0  0  0  0  0  0  0  0  0  0  0  0
   47.4318   10.3250    1.6109 C   0  0  0  0  0  0  0  0  0  0  0  0
   46.6582    9.9639    0.4918 C   0  0  0  0  0  0  0  0  0  0  0  0
   43.7739    9.9879   -3.1719 C   0  0  0  0  0  0  0  0  0  0  0  0
   43.2155    8.8902   -2.5389 C   0  0  0  0  0  0  0  0  0  0  0  0
   43.7628    8.7910   -0.9207 S   0  0  0  0  0  0  0  0  0  0  0  0
   44.6995   10.2285   -1.0337 C   0  0  0  0  0  0  0  0  0  0  0  0
   44.5707   10.7805   -2.2917 C   0  0  0  0  0  0  0  0  0  0  0  0
   45.3282   12.4335   -2.8458 Br  0  0  0  0  0  0  0  0  0  0  0  0
   42.3193    7.8923   -3.0923 C   0  0  0  0  0  0  0  0  0  0  0  0
   42.6379    6.9221   -3.7769 O   0  0  0  0  0  0  0  0  0  0  0  0
   41.0273    8.1051   -2.7706 O   0  0  0  0  0  0  0  0  0  0  0  0
   40.7904    8.8463   -2.2486 H   0  0  0  0  0  0  0  0  0  0  0  0
   43.4700   10.2861   -4.4622 O   0  0  0  0  0  0  0  0  0  0  0  0
   42.1555   10.8380   -4.6219 C   0  0  0  0  0  0  0  0  0  0  0  0
   42.2747   12.3083   -5.0589 C   0  0  0  0  0  0  0  0  0  0  0  0
   41.0808   13.2886   -4.6136 N   0  0  0  0  0  0  0  0  0  0  0  0
   40.0837   12.4164   -3.8574 C   0  0  0  0  0  0  0  0  0  0  0  0
   40.4073   13.8883   -5.8342 C   0  0  0  0  0  0  0  0  0  0  0  0
   41.7641   14.3256   -3.7337 C   0  0  0  0  0  0  0  0  0  0  0  0
   43.7413   15.7443   -4.0269 C   0  0  0  0  0  0  0  0  0  0  0  0
   42.2006   15.6778   -4.2622 N   0  0  0  0  0  0  0  0  0  0  0  0
   42.0243   15.7925   -5.7830 C   0  0  0  0  0  0  0  0  0  0  0  0
   41.6213   16.8978   -3.5770 C   0  0  0  0  0  0  0  0  0  0  0  0
   48.5572    9.5496    1.9048 N   0  0  0  0  0  0  0  0  0  0  0  0
   49.4524    9.9446    1.7958 H   0  0  0  0  0  0  0  0  0  0  0  0
   48.4406    8.1583    2.3730 C   0  0  0  0  0  0  0  0  0  0  0  0
   48.9362    8.0775    3.8230 C   0  0  0  0  0  0  0  0  0  0  0  0
   49.0427    6.6311    4.2833 C   0  0  0  0  0  0  0  0  0  0  0  0
   49.8460    5.8243    3.3418 N   0  0  0  0  0  0  0  0  0  0  0  0
   50.3852    6.5143    2.1599 C   0  0  0  0  0  0  0  0  0  0  0  0
   49.2422    7.2303    1.4443 C   0  0  0  0  0  0  0  0  0  0  0  0
   50.6608    4.4657    3.9549 S   0  0  0  0  0  0  0  0  0  0  0  0
   51.8398    4.9672    4.6303 O   0  0  0  0  0  0  0  0  0  0  0  0
   49.6697    3.6618    4.6413 O   0  0  0  0  0  0  0  0  0  0  0  0
   51.1541    3.6188    2.4402 C   0  0  0  0  0  0  0  0  0  0  0  0
   52.6496    3.4379    2.4327 C   0  0  0  0  0  0  0  0  0  0  0  0
   53.4800    4.3891    1.8184 C   0  0  0  0  0  0  0  0  0  0  0  0
   54.8667    4.2248    1.8151 C   0  0  0  0  0  0  0  0  0  0  0  0
   55.4384    3.1116    2.4238 C   0  0  0  0  0  0  0  0  0  0  0  0
   54.6245    2.1626    3.0422 C   0  0  0  0  0  0  0  0  0  0  0  0
   53.2380    2.3226    3.0482 C   0  0  0  0  0  0  0  0  0  0  0  0
 24 25  1  0
 25 26  1  0
 25 27  1  0
 25 23  1  0
 23 20  1  0
 20 21  1  0
 20 22  1  0
 20 19  1  0
 19 18  1  0
 18 17  1  0
 17  7  1  0
  7  8  2  0
  8 13  1  0
 13 14  2  0
 13 15  1  0
  8  9  1  0
  9 10  1  0
 10  1  1  0
  1  2  2  0
  2  3  1  0
  3  4  2  0
  4  5  1  0
  5 28  1  0
 28 30  1  0
 30 31  1  0
 31 32  1  0
 32 33  1  0
 33 36  1  0
 36 37  2  0
 36 38  2  0
 36 39  1  0
 39 40  1  0
 40 41  2  0
 41 42  1  0
 42 43  2  0
 43 44  1  0
 44 45  2  0
 33 34  1  0
 34 35  1  0
  5  6  2  0
 10 11  2  0
 11 12  1  0
 11  7  1  0
  6  1  1  0
 35 30  1  0
 45 40  1  0
 15 16  1  0
 28 29  1  0
M  CHG 1  20   1
M  CHG 1  25   1
M  END
> <minimizedAffinity>
-5.76808

> <CNNscore>
0.1791157722

> <CNNaffinity>
5.4350376129

> <CNN_VS>
0.9735009670

> <CNNaffinity_variance>
0.6669562459

$$$$



 45 48  0  0  0  0  0  0  0  0999 V2000
   45.1941   10.7240   -0.0496 C   0  0  0  0  0  0  0  0  0  0  0  0
   44.7532   11.6224    0.9279 C   0  0  0  0  0  0  0  0  0  0  0  0
   45.5715   11.9397    2.0108 C   0  0  0  0  0  0  0  0  0  0  0  0
   46.8510   11.3874    2.1136 C   0  0  0  0  0  0  0  0  0  0  0  0
   47.3567   10.5452    1.1200 C   0  0  0  0  0  0  0  0  0  0  0  0
   46.4917   10.1938    0.0666 C   0  0  0  0  0  0  0  0  0  0  0  0
   43.0800   10.2042   -3.1408 C   0  0  0  0  0  0  0  0  0  0  0  0
   42.9226    8.9058   -2.6860 C   0  0  0  0  0  0  0  0  0  0  0  0
   43.7778    8.6777   -1.2216 S   0  0  0  0  0  0  0  0  0  0  0  0
   44.3172   10.3090   -1.1547 C   0  0  0  0  0  0  0  0  0  0  0  0
   43.8255   11.0154   -2.2332 C   0  0  0  0  0  0  0  0  0  0  0  0
   44.0596   12.8798   -2.5205 Br  0  0  0  0  0  0  0  0  0  0  0  0
   42.1925    7.8172   -3.3081 C   0  0  0  0  0  0  0  0  0  0  0  0
   41.0088    7.8257   -3.6404 O   0  0  0  0  0  0  0  0  0  0  0  0
   42.9544    6.7266   -3.5276 O   0  0  0  0  0  0  0  0  0  0  0  0
   43.8559    6.7258   -3.2723 H   0  0  0  0  0  0  0  0  0  0  0  0
   42.4739   10.6290   -4.2803 O   0  0  0  0  0  0  0  0  0  0  0  0
   41.5126   11.6702   -4.0566 C   0  0  0  0  0  0  0  0  0  0  0  0
   40.1423   11.0372   -3.7597 C   0  0  0  0  0  0  0  0  0  0  0  0
   38.8512   11.9473   -4.0586 N   0  0  0  0  0  0  0  0  0  0  0  0
   37.6430   11.0952   -3.6830 C   0  0  0  0  0  0  0  0  0  0  0  0
   38.7846   12.3009   -5.5329 C   0  0  0  0  0  0  0  0  0  0  0  0
   39.0381   13.1596   -3.1576 C   0  0  0  0  0  0  0  0  0  0  0  0
   38.3318   15.4605   -3.6213 C   0  0  0  0  0  0  0  0  0  0  0  0
   37.9215   14.1480   -2.8845 N   0  0  0  0  0  0  0  0  0  0  0  0
   36.5970   13.7235   -3.5345 C   0  0  0  0  0  0  0  0  0  0  0  0
   37.6918   14.5360   -1.4388 C   0  0  0  0  0  0  0  0  0  0  0  0
   48.6137    9.9352    1.1643 N   0  0  0  0  0  0  0  0  0  0  0  0
   49.3961   10.4256    0.8230 H   0  0  0  0  0  0  0  0  0  0  0  0
   48.7997    8.5791    1.7077 C   0  0  0  0  0  0  0  0  0  0  0  0
   48.8088    8.6534    3.2403 C   0  0  0  0  0  0  0  0  0  0  0  0
   49.2143    7.3191    3.8487 C   0  0  0  0  0  0  0  0  0  0  0  0
   50.4857    6.8306    3.2764 N   0  0  0  0  0  0  0  0  0  0  0  0
   51.1251    7.6701    2.2517 C   0  0  0  0  0  0  0  0  0  0  0  0
   50.1037    7.9755    1.1586 C   0  0  0  0  0  0  0  0  0  0  0  0
   51.4487    5.8112    4.2352 S   0  0  0  0  0  0  0  0  0  0  0  0
   51.9381    4.7680    3.3578 O   0  0  0  0  0  0  0  0  0  0  0  0
   52.3483    6.6692    4.9796 O   0  0  0  0  0  0  0  0  0  0  0  0
   50.2306    5.1157    5.3699 C   0  0  0  0  0  0  0  0  0  0  0  0
   50.6669    3.7357    5.7876 C   0  0  0  0  0  0  0  0  0  0  0  0
   51.8145    3.5591    6.5773 C   0  0  0  0  0  0  0  0  0  0  0  0
   52.2171    2.2807    6.9690 C   0  0  0  0  0  0  0  0  0  0  0  0
   51.4800    1.1671    6.5779 C   0  0  0  0  0  0  0  0  0  0  0  0
   50.3349    1.3299    5.7982 C   0  0  0  0  0  0  0  0  0  0  0  0
   49.9286    2.6057    5.4042 C   0  0  0  0  0  0  0  0  0  0  0  0
 24 25  1  0
 25 26  1  0
 25 27  1  0
 25 23  1  0
 23 20  1  0
 20 21  1  0
 20 22  1  0
 20 19  1  0
 19 18  1  0
 18 17  1  0
 17  7  1  0
  7  8  2  0
  8 13  1  0
 13 14  2  0
 13 15  1  0
  8  9  1  0
  9 10  1  0
 10  1  1  0
  1  2  2  0
  2  3  1  0
  3  4  2  0
  4  5  1  0
  5 28  1  0
 28 30  1  0
 30 31  1  0
 31 32  1  0
 32 33  1  0
 33 36  1  0
 36 37  2  0
 36 38  2  0
 36 39  1  0
 39 40  1  0
 40 41  2  0
 41 42  1  0
 42 43  2  0
 43 44  1  0
 44 45  2  0
 33 34  1  0
 34 35  1  0
  5  6  2  0
 10 11  2  0
 11 12  1  0
 11  7  1  0
  6  1  1  0
 35 30  1  0
 45 40  1  0
 15 16  1  0
 28 29  1  0
M  CHG 1  20   1
M  CHG 1  25   1
M  END
> <minimizedAffinity>
-7.17384

> <CNNscore>
0.1699886918

> <CNNaffinity>
5.2854156494

> <CNN_VS>
0.8984608650

> <CNNaffinity_variance>
0.8098802567

$$$$



 45 48  0  0  0  0  0  0  0  0999 V2000
   52.1958   15.5824   -2.5721 C   0  0  0  0  0  0  0  0  0  0  0  0
   51.8442   16.9064   -2.8553 C   0  0  0  0  0  0  0  0  0  0  0  0
   50.6012   17.1992   -3.4137 C   0  0  0  0  0  0  0  0  0  0  0  0
   49.6833   16.1764   -3.6672 C   0  0  0  0  0  0  0  0  0  0  0  0
   49.9669   14.8506   -3.3294 C   0  0  0  0  0  0  0  0  0  0  0  0
   51.2494   14.5719   -2.8205 C   0  0  0  0  0  0  0  0  0  0  0  0
   55.8428   15.0431   -1.7331 C   0  0  0  0  0  0  0  0  0  0  0  0
   55.3788   14.4546   -0.5688 C   0  0  0  0  0  0  0  0  0  0  0  0
   53.6688   14.4929   -0.5201 S   0  0  0  0  0  0  0  0  0  0  0  0
   53.5322   15.2407   -2.0624 C   0  0  0  0  0  0  0  0  0  0  0  0
   54.7848   15.4345   -2.6078 C   0  0  0  0  0  0  0  0  0  0  0  0
   55.1284   16.1209   -4.3467 Br  0  0  0  0  0  0  0  0  0  0  0  0
   56.1501   13.8947    0.5253 C   0  0  0  0  0  0  0  0  0  0  0  0
   57.1169   14.4138    1.0795 O   0  0  0  0  0  0  0  0  0  0  0  0
   55.6950   12.6926    0.9324 O   0  0  0  0  0  0  0  0  0  0  0  0
   54.9577   12.3019    0.5062 H   0  0  0  0  0  0  0  0  0  0  0  0
   57.1722   15.1116   -2.0055 O   0  0  0  0  0  0  0  0  0  0  0  0
   57.7444   13.8444   -2.3590 C   0  0  0  0  0  0  0  0  0  0  0  0
   57.9565   13.7931   -3.8818 C   0  0  0  0  0  0  0  0  0  0  0  0
   57.5856   12.4098   -4.6121 N   0  0  0  0  0  0  0  0  0  0  0  0
   57.7110   12.6801   -6.1081 C   0  0  0  0  0  0  0  0  0  0  0  0
   56.1591   12.0071   -4.2867 C   0  0  0  0  0  0  0  0  0  0  0  0
   58.6223   11.4266   -4.0876 C   0  0  0  0  0  0  0  0  0  0  0  0
   57.5912    9.6353   -2.7701 C   0  0  0  0  0  0  0  0  0  0  0  0
   58.3888    9.9287   -4.0783 N   0  0  0  0  0  0  0  0  0  0  0  0
   57.4650    9.4769   -5.2182 C   0  0  0  0  0  0  0  0  0  0  0  0
   59.6186    9.0466   -4.0235 C   0  0  0  0  0  0  0  0  0  0  0  0
   49.1126   13.7717   -3.5744 N   0  0  0  0  0  0  0  0  0  0  0  0
   48.7788   13.6235   -4.4887 H   0  0  0  0  0  0  0  0  0  0  0  0
   48.6982   12.8506   -2.5027 C   0  0  0  0  0  0  0  0  0  0  0  0
   49.2103   11.4419   -2.8309 C   0  0  0  0  0  0  0  0  0  0  0  0
   48.6279   10.4129   -1.8733 C   0  0  0  0  0  0  0  0  0  0  0  0
   47.1545   10.5041   -1.8160 N   0  0  0  0  0  0  0  0  0  0  0  0
   46.5143   11.5322   -2.6508 C   0  0  0  0  0  0  0  0  0  0  0  0
   47.1671   12.8808   -2.3571 C   0  0  0  0  0  0  0  0  0  0  0  0
   46.2867    9.0996   -1.4155 S   0  0  0  0  0  0  0  0  0  0  0  0
   44.9568    9.2716   -1.9629 O   0  0  0  0  0  0  0  0  0  0  0  0
   47.1248    7.9754   -1.7807 O   0  0  0  0  0  0  0  0  0  0  0  0
   46.2125    9.2142    0.3834 C   0  0  0  0  0  0  0  0  0  0  0  0
   46.0114   10.6521    0.7850 C   0  0  0  0  0  0  0  0  0  0  0  0
   44.7451   11.2505    0.6838 C   0  0  0  0  0  0  0  0  0  0  0  0
   44.5566   12.5819    1.0603 C   0  0  0  0  0  0  0  0  0  0  0  0
   45.6277   13.3288    1.5413 C   0  0  0  0  0  0  0  0  0  0  0  0
   46.8892   12.7440    1.6519 C   0  0  0  0  0  0  0  0  0  0  0  0
   47.0825   11.4137    1.2768 C   0  0  0  0  0  0  0  0  0  0  0  0
 24 25  1  0
 25 26  1  0
 25 27  1  0
 25 23  1  0
 23 20  1  0
 20 21  1  0
 20 22  1  0
 20 19  1  0
 19 18  1  0
 18 17  1  0
 17  7  1  0
  7  8  2  0
  8 13  1  0
 13 14  2  0
 13 15  1  0
  8  9  1  0
  9 10  1  0
 10  1  1  0
  1  2  2  0
  2  3  1  0
  3  4  2  0
  4  5  1  0
  5 28  1  0
 28 30  1  0
 30 31  1  0
 31 32  1  0
 32 33  1  0
 33 36  1  0
 36 37  2  0
 36 38  2  0
 36 39  1  0
 39 40  1  0
 40 41  2  0
 41 42  1  0
 42 43  2  0
 43 44  1  0
 44 45  2  0
 33 34  1  0
 34 35  1  0
  5  6  2  0
 10 11  2  0
 11 12  1  0
 11  7  1  0
  6  1  1  0
 35 30  1  0
 45 40  1  0
 15 16  1  0
 28 29  1  0
M  CHG 1  20   1
M  CHG 1  25   1
M  END
> <minimizedAffinity>
-5.53131

> <CNNscore>
0.1543716043

> <CNNaffinity>
4.4373764992

> <CNN_VS>
0.6850049496

> <CNNaffinity_variance>
1.3702579737

$$$$



 45 48  0  0  0  0  0  0  0  0999 V2000
   46.2172   10.2579    0.0403 C   0  0  0  0  0  0  0  0  0  0  0  0
   46.2608   11.6289    0.3148 C   0  0  0  0  0  0  0  0  0  0  0  0
   46.9291   12.0983    1.4444 C   0  0  0  0  0  0  0  0  0  0  0  0
   47.5873   11.2068    2.2957 C   0  0  0  0  0  0  0  0  0  0  0  0
   47.6306    9.8386    2.0159 C   0  0  0  0  0  0  0  0  0  0  0  0
   46.9008    9.3816    0.9025 C   0  0  0  0  0  0  0  0  0  0  0  0
   44.7381    9.0445   -3.2209 C   0  0  0  0  0  0  0  0  0  0  0  0
   43.7021    8.5516   -2.4456 C   0  0  0  0  0  0  0  0  0  0  0  0
   43.9816    8.8876   -0.7912 S   0  0  0  0  0  0  0  0  0  0  0  0
   45.4476    9.7322   -1.0972 C   0  0  0  0  0  0  0  0  0  0  0  0
   45.6993    9.7689   -2.4534 C   0  0  0  0  0  0  0  0  0  0  0  0
   47.1426   10.6934   -3.2754 Br  0  0  0  0  0  0  0  0  0  0  0  0
   42.5299    7.8126   -2.8755 C   0  0  0  0  0  0  0  0  0  0  0  0
   41.3565    8.1302   -2.6915 O   0  0  0  0  0  0  0  0  0  0  0  0
   42.8333    6.6855   -3.5505 O   0  0  0  0  0  0  0  0  0  0  0  0
   43.7293    6.4484   -3.6877 H   0  0  0  0  0  0  0  0  0  0  0  0
   44.7277    8.9156   -4.5735 O   0  0  0  0  0  0  0  0  0  0  0  0
   43.6925    9.6798   -5.2078 C   0  0  0  0  0  0  0  0  0  0  0  0
   44.1677   11.1334   -5.3743 C   0  0  0  0  0  0  0  0  0  0  0  0
   43.2276   12.2731   -4.7403 N   0  0  0  0  0  0  0  0  0  0  0  0
   42.0240   11.5431   -4.1528 C   0  0  0  0  0  0  0  0  0  0  0  0
   42.7621   13.2337   -5.8191 C   0  0  0  0  0  0  0  0  0  0  0  0
   44.1067   12.9323   -3.6871 C   0  0  0  0  0  0  0  0  0  0  0  0
   44.2883   14.2828   -1.6497 C   0  0  0  0  0  0  0  0  0  0  0  0
   43.8157   14.3143   -3.1361 N   0  0  0  0  0  0  0  0  0  0  0  0
   44.6726   15.3991   -3.8040 C   0  0  0  0  0  0  0  0  0  0  0  0
   42.3639   14.7441   -3.1028 C   0  0  0  0  0  0  0  0  0  0  0  0
   48.2453    8.8836    2.8308 N   0  0  0  0  0  0  0  0  0  0  0  0
   48.0333    8.8666    3.7921 H   0  0  0  0  0  0  0  0  0  0  0  0
   49.2015    7.9021    2.2911 C   0  0  0  0  0  0  0  0  0  0  0  0
   48.4614    6.5872    2.0119 C   0  0  0  0  0  0  0  0  0  0  0  0
   49.4387    5.4753    1.6603 C   0  0  0  0  0  0  0  0  0  0  0  0
   50.4990    5.3477    2.6811 N   0  0  0  0  0  0  0  0  0  0  0  0
   50.4476    6.2774    3.8198 C   0  0  0  0  0  0  0  0  0  0  0  0
   50.3583    7.7049    3.2856 C   0  0  0  0  0  0  0  0  0  0  0  0
   51.2296    3.8273    2.8818 S   0  0  0  0  0  0  0  0  0  0  0  0
   50.2289    2.9697    3.4825 O   0  0  0  0  0  0  0  0  0  0  0  0
   51.8596    3.4993    1.6187 O   0  0  0  0  0  0  0  0  0  0  0  0
   52.5114    4.1933    4.0974 C   0  0  0  0  0  0  0  0  0  0  0  0
   52.8336    2.9445    4.8759 C   0  0  0  0  0  0  0  0  0  0  0  0
   53.5516    1.8965    4.2778 C   0  0  0  0  0  0  0  0  0  0  0  0
   53.8548    0.7405    5.0000 C   0  0  0  0  0  0  0  0  0  0  0  0
   53.4458    0.6185    6.3245 C   0  0  0  0  0  0  0  0  0  0  0  0
   52.7368    1.6550    6.9316 C   0  0  0  0  0  0  0  0  0  0  0  0
   52.4315    2.8123    6.2138 C   0  0  0  0  0  0  0  0  0  0  0  0
 24 25  1  0
 25 26  1  0
 25 27  1  0
 25 23  1  0
 23 20  1  0
 20 21  1  0
 20 22  1  0
 20 19  1  0
 19 18  1  0
 18 17  1  0
 17  7  1  0
  7  8  2  0
  8 13  1  0
 13 14  2  0
 13 15  1  0
  8  9  1  0
  9 10  1  0
 10  1  1  0
  1  2  2  0
  2  3  1  0
  3  4  2  0
  4  5  1  0
  5 28  1  0
 28 30  1  0
 30 31  1  0
 31 32  1  0
 32 33  1  0
 33 36  1  0
 36 37  2  0
 36 38  2  0
 36 39  1  0
 39 40  1  0
 40 41  2  0
 41 42  1  0
 42 43  2  0
 43 44  1  0
 44 45  2  0
 33 34  1  0
 34 35  1  0
  5  6  2  0
 10 11  2  0
 11 12  1  0
 11  7  1  0
  6  1  1  0
 35 30  1  0
 45 40  1  0
 15 16  1  0
 28 29  1  0
M  CHG 1  20   1
M  CHG 1  25   1
M  END
> <minimizedAffinity>
-5.80637

> <CNNscore>
0.1514237374

> <CNNaffinity>
5.0436215401

> <CNN_VS>
0.7637240291

> <CNNaffinity_variance>
0.9526615143

$$$$
