


 39 41  0  0  0  0  0  0  0  0999 V2000
   52.5384    6.2262    2.3806 C   0  0  0  0  0  0  0  0  0  0  0  0
   52.0145    6.8657    3.4880 C   0  0  0  0  0  0  0  0  0  0  0  0
   50.4873    7.5673    3.1123 S   0  0  0  0  0  0  0  0  0  0  0  0
   50.4977    6.9662    1.5054 C   0  0  0  0  0  0  0  0  0  0  0  0
   51.6539    6.2573    1.2639 C   0  0  0  0  0  0  0  0  0  0  0  0
   52.0783    5.3812   -0.3662 Br  0  0  0  0  0  0  0  0  0  0  0  0
   49.3644    7.2735    0.6290 C   0  0  0  0  0  0  0  0  0  0  0  0
   49.0202    6.4066   -0.4109 C   0  0  0  0  0  0  0  0  0  0  0  0
   47.9420    6.7063   -1.2403 C   0  0  0  0  0  0  0  0  0  0  0  0
   47.2102    7.8820   -1.0470 C   0  0  0  0  0  0  0  0  0  0  0  0
   47.5487    8.7894   -0.0401 C   0  0  0  0  0  0  0  0  0  0  0  0
   48.6107    8.4444    0.8142 C   0  0  0  0  0  0  0  0  0  0  0  0
   46.8293    9.9563    0.2484 N   0  0  0  0  0  0  0  0  0  0  0  0
   45.9455    9.8798    0.6754 H   0  0  0  0  0  0  0  0  0  0  0  0
   47.3543   11.2874   -0.0671 C   0  0  0  0  0  0  0  0  0  0  0  0
   46.9355   12.3037    1.0112 C   0  0  0  0  0  0  0  0  0  0  0  0
   45.4669   12.7865    0.9649 C   0  0  0  0  0  0  0  0  0  0  0  0
   44.4942   11.7492    1.5525 C   0  0  0  0  0  0  0  0  0  0  0  0
   45.3490   14.0366    1.8729 C   0  0  0  0  0  0  0  0  0  0  0  0
   45.0774   13.2021   -0.4732 C   0  0  0  0  0  0  0  0  0  0  0  0
   45.4809   12.2500   -1.6265 C   0  0  0  0  0  0  0  0  0  0  0  0
   45.3860   13.0501   -2.9516 C   0  0  0  0  0  0  0  0  0  0  0  0
   44.5114   11.0634   -1.7776 C   0  0  0  0  0  0  0  0  0  0  0  0
   46.9408   11.7667   -1.4669 C   0  0  0  0  0  0  0  0  0  0  0  0
   52.5113    7.0361    4.8341 C   0  0  0  0  0  0  0  0  0  0  0  0
   53.1034    7.9960    5.3086 O   0  0  0  0  0  0  0  0  0  0  0  0
   52.2722    5.9658    5.6237 O   0  0  0  0  0  0  0  0  0  0  0  0
   51.8202    5.2210    5.2789 H   0  0  0  0  0  0  0  0  0  0  0  0
   53.7353    5.5882    2.3808 O   0  0  0  0  0  0  0  0  0  0  0  0
   53.6238    4.2564    2.8899 C   0  0  0  0  0  0  0  0  0  0  0  0
   54.9610    3.5207    2.7456 C   0  0  0  0  0  0  0  0  0  0  0  0
   54.9330    1.9898    2.4981 C   0  0  0  0  0  0  0  0  0  0  0  0
   53.4742    1.5200    2.2652 C   0  0  0  0  0  0  0  0  0  0  0  0
   55.7359    1.6006    1.2402 C   0  0  0  0  0  0  0  0  0  0  0  0
   55.4442    1.1936    3.7522 C   0  0  0  0  0  0  0  0  0  0  0  0
   53.6190   -0.6297    4.0189 C   0  0  0  0  0  0  0  0  0  0  0  0
   54.5090    0.4011    4.7224 C   0  0  0  0  0  0  0  0  0  0  0  0
   55.2944   -0.2888    5.8539 C   0  0  0  0  0  0  0  0  0  0  0  0
   53.5781    1.4423    5.3968 C   0  0  0  0  0  0  0  0  0  0  0  0
 36 37  1  0
 37 38  1  0
 37 39  1  0
 37 35  1  0
 35 32  1  0
 32 33  1  0
 32 34  1  0
 32 31  1  0
 31 30  1  0
 30 29  1  0
 29  1  1  0
  1  2  2  0
  2 25  1  0
 25 26  2  0
 25 27  1  0
  2  3  1  0
  3  4  1  0
  4  7  1  0
  7  8  2  0
  8  9  1  0
  9 10  2  0
 10 11  1  0
 11 13  1  0
 13 15  1  0
 15 16  1  0
 16 17  1  0
 17 18  1  0
 17 19  1  0
 17 20  1  0
 20 21  1  0
 21 22  1  0
 21 23  1  0
 21 24  1  0
 11 12  2  0
  4  5  2  0
  5  6  1  0
  5  1  1  0
 12  7  1  0
 24 15  1  0
 27 28  1  0
 13 14  1  0
M  END
> <minimizedAffinity>
-6.41158

> <CNNscore>
0.3182849586

> <CNNaffinity>
5.8139081001

> <CNN_VS>
1.8504794836

> <CNNaffinity_variance>
0.1754244119

$$$$



 39 41  0  0  0  0  0  0  0  0999 V2000
   52.3433    6.5660    2.3053 C   0  0  0  0  0  0  0  0  0  0  0  0
   51.8467    6.7831    3.5766 C   0  0  0  0  0  0  0  0  0  0  0  0
   50.2195    7.3418    3.5005 S   0  0  0  0  0  0  0  0  0  0  0  0
   50.1596    7.2319    1.7894 C   0  0  0  0  0  0  0  0  0  0  0  0
   51.3662    6.7904    1.2927 C   0  0  0  0  0  0  0  0  0  0  0  0
   51.7466    6.4842   -0.5421 Br  0  0  0  0  0  0  0  0  0  0  0  0
   48.9248    7.6148    1.0998 C   0  0  0  0  0  0  0  0  0  0  0  0
   48.4174    6.8223    0.0674 C   0  0  0  0  0  0  0  0  0  0  0  0
   47.2434    7.1936   -0.5838 C   0  0  0  0  0  0  0  0  0  0  0  0
   46.5769    8.3675   -0.2194 C   0  0  0  0  0  0  0  0  0  0  0  0
   47.0753    9.2027    0.7836 C   0  0  0  0  0  0  0  0  0  0  0  0
   48.2354    8.7848    1.4591 C   0  0  0  0  0  0  0  0  0  0  0  0
   46.4339   10.3615    1.2399 N   0  0  0  0  0  0  0  0  0  0  0  0
   46.8906   10.9328    1.8988 H   0  0  0  0  0  0  0  0  0  0  0  0
   45.1028   10.7479    0.7645 C   0  0  0  0  0  0  0  0  0  0  0  0
   45.1243   11.0061   -0.7533 C   0  0  0  0  0  0  0  0  0  0  0  0
   45.7607   12.3386   -1.2132 C   0  0  0  0  0  0  0  0  0  0  0  0
   47.2983   12.2875   -1.1914 C   0  0  0  0  0  0  0  0  0  0  0  0
   45.3675   12.5665   -2.6946 C   0  0  0  0  0  0  0  0  0  0  0  0
   45.2048   13.5202   -0.3841 C   0  0  0  0  0  0  0  0  0  0  0  0
   45.1233   13.3396    1.1521 C   0  0  0  0  0  0  0  0  0  0  0  0
   44.1656   14.4279    1.7032 C   0  0  0  0  0  0  0  0  0  0  0  0
   46.4774   13.5761    1.8459 C   0  0  0  0  0  0  0  0  0  0  0  0
   44.5357   11.9582    1.5218 C   0  0  0  0  0  0  0  0  0  0  0  0
   52.4365    6.6300    4.8868 C   0  0  0  0  0  0  0  0  0  0  0  0
   52.4058    5.6534    5.6233 O   0  0  0  0  0  0  0  0  0  0  0  0
   53.0841    7.7394    5.3062 O   0  0  0  0  0  0  0  0  0  0  0  0
   53.1188    8.4975    4.7567 H   0  0  0  0  0  0  0  0  0  0  0  0
   53.6031    6.1285    2.0582 O   0  0  0  0  0  0  0  0  0  0  0  0
   53.6291    4.7272    1.7730 C   0  0  0  0  0  0  0  0  0  0  0  0
   54.2824    3.9634    2.9305 C   0  0  0  0  0  0  0  0  0  0  0  0
   55.2056    2.7645    2.5897 C   0  0  0  0  0  0  0  0  0  0  0  0
   54.9967    1.6279    3.6230 C   0  0  0  0  0  0  0  0  0  0  0  0
   54.8844    2.1737    1.2019 C   0  0  0  0  0  0  0  0  0  0  0  0
   56.7231    3.1591    2.6883 C   0  0  0  0  0  0  0  0  0  0  0  0
   58.0459    0.9692    2.2626 C   0  0  0  0  0  0  0  0  0  0  0  0
   57.8631    2.4451    1.8917 C   0  0  0  0  0  0  0  0  0  0  0  0
   57.6745    2.5699    0.3678 C   0  0  0  0  0  0  0  0  0  0  0  0
   59.1821    3.1833    2.2393 C   0  0  0  0  0  0  0  0  0  0  0  0
 36 37  1  0
 37 38  1  0
 37 39  1  0
 37 35  1  0
 35 32  1  0
 32 33  1  0
 32 34  1  0
 32 31  1  0
 31 30  1  0
 30 29  1  0
 29  1  1  0
  1  2  2  0
  2 25  1  0
 25 26  2  0
 25 27  1  0
  2  3  1  0
  3  4  1  0
  4  7  1  0
  7  8  2  0
  8  9  1  0
  9 10  2  0
 10 11  1  0
 11 13  1  0
 13 15  1  0
 15 16  1  0
 16 17  1  0
 17 18  1  0
 17 19  1  0
 17 20  1  0
 20 21  1  0
 21 22  1  0
 21 23  1  0
 21 24  1  0
 11 12  2  0
  4  5  2  0
  5  6  1  0
  5  1  1  0
 12  7  1  0
 24 15  1  0
 27 28  1  0
 13 14  1  0
M  END
> <minimizedAffinity>
-6.91434

> <CNNscore>
0.2962010205

> <CNNaffinity>
5.9986915588

> <CNN_VS>
1.7768185139

> <CNNaffinity_variance>
0.2000955790

$$$$



 39 41  0  0  0  0  0  0  0  0999 V2000
   44.9160   14.1997    1.3489 C   0  0  0  0  0  0  0  0  0  0  0  0
   44.8524   15.3763    2.0709 C   0  0  0  0  0  0  0  0  0  0  0  0
   44.2261   16.6492    1.0945 S   0  0  0  0  0  0  0  0  0  0  0  0
   43.9822   15.6222   -0.2580 C   0  0  0  0  0  0  0  0  0  0  0  0
   44.3866   14.3380    0.0332 C   0  0  0  0  0  0  0  0  0  0  0  0
   44.2675   12.8594   -1.1519 Br  0  0  0  0  0  0  0  0  0  0  0  0
   43.4307   16.1945   -1.4890 C   0  0  0  0  0  0  0  0  0  0  0  0
   44.2409   16.9461   -2.3434 C   0  0  0  0  0  0  0  0  0  0  0  0
   43.7089   17.4876   -3.5113 C   0  0  0  0  0  0  0  0  0  0  0  0
   42.3600   17.2958   -3.8257 C   0  0  0  0  0  0  0  0  0  0  0  0
   41.5121   16.5806   -2.9764 C   0  0  0  0  0  0  0  0  0  0  0  0
   42.0807   16.0036   -1.8272 C   0  0  0  0  0  0  0  0  0  0  0  0
   40.1676   16.3005   -3.2525 N   0  0  0  0  0  0  0  0  0  0  0  0
   39.4672   16.8096   -2.7839 H   0  0  0  0  0  0  0  0  0  0  0  0
   39.7736   15.2717   -4.2186 C   0  0  0  0  0  0  0  0  0  0  0  0
   38.5887   15.7576   -5.0734 C   0  0  0  0  0  0  0  0  0  0  0  0
   37.2023   15.7553   -4.3879 C   0  0  0  0  0  0  0  0  0  0  0  0
   37.0200   16.9527   -3.4390 C   0  0  0  0  0  0  0  0  0  0  0  0
   36.1268   15.9239   -5.4907 C   0  0  0  0  0  0  0  0  0  0  0  0
   36.9504   14.4046   -3.6774 C   0  0  0  0  0  0  0  0  0  0  0  0
   38.0988   13.8262   -2.8138 C   0  0  0  0  0  0  0  0  0  0  0  0
   37.7962   12.3241   -2.5744 C   0  0  0  0  0  0  0  0  0  0  0  0
   38.1692   14.4720   -1.4178 C   0  0  0  0  0  0  0  0  0  0  0  0
   39.4553   13.9262   -3.5488 C   0  0  0  0  0  0  0  0  0  0  0  0
   45.2082   15.6975    3.4340 C   0  0  0  0  0  0  0  0  0  0  0  0
   44.4697   15.8234    4.4014 O   0  0  0  0  0  0  0  0  0  0  0  0
   46.5364   15.8802    3.6030 O   0  0  0  0  0  0  0  0  0  0  0  0
   47.1184   15.7883    2.8745 H   0  0  0  0  0  0  0  0  0  0  0  0
   45.3754   13.0308    1.8610 O   0  0  0  0  0  0  0  0  0  0  0  0
   46.7564   12.8249    1.5511 C   0  0  0  0  0  0  0  0  0  0  0  0
   47.2791   11.5747    2.2681 C   0  0  0  0  0  0  0  0  0  0  0  0
   47.6439   10.3355    1.4096 C   0  0  0  0  0  0  0  0  0  0  0  0
   46.3583    9.7185    0.8015 C   0  0  0  0  0  0  0  0  0  0  0  0
   48.5634   10.7097    0.2296 C   0  0  0  0  0  0  0  0  0  0  0  0
   48.2922    9.2007    2.2816 C   0  0  0  0  0  0  0  0  0  0  0  0
   47.5419    6.8217    1.5716 C   0  0  0  0  0  0  0  0  0  0  0  0
   48.7104    7.8024    1.7216 C   0  0  0  0  0  0  0  0  0  0  0  0
   49.4606    7.9129    0.3806 C   0  0  0  0  0  0  0  0  0  0  0  0
   49.7074    7.1919    2.7408 C   0  0  0  0  0  0  0  0  0  0  0  0
 36 37  1  0
 37 38  1  0
 37 39  1  0
 37 35  1  0
 35 32  1  0
 32 33  1  0
 32 34  1  0
 32 31  1  0
 31 30  1  0
 30 29  1  0
 29  1  1  0
  1  2  2  0
  2 25  1  0
 25 26  2  0
 25 27  1  0
  2  3  1  0
  3  4  1  0
  4  7  1  0
  7  8  2  0
  8  9  1  0
  9 10  2  0
 10 11  1  0
 11 13  1  0
 13 15  1  0
 15 16  1  0
 16 17  1  0
 17 18  1  0
 17 19  1  0
 17 20  1  0
 20 21  1  0
 21 22  1  0
 21 23  1  0
 21 24  1  0
 11 12  2  0
  4  5  2  0
  5  6  1  0
  5  1  1  0
 12  7  1  0
 24 15  1  0
 27 28  1  0
 13 14  1  0
M  END
> <minimizedAffinity>
-6.76061

> <CNNscore>
0.2573178411

> <CNNaffinity>
6.3578448296

> <CNN_VS>
1.6359869242

> <CNNaffinity_variance>
0.1695893258

$$$$



 39 41  0  0  0  0  0  0  0  0999 V2000
   44.2283   14.5864   -0.6278 C   0  0  0  0  0  0  0  0  0  0  0  0
   44.4167   14.8013    0.7244 C   0  0  0  0  0  0  0  0  0  0  0  0
   44.9015   13.3443    1.5040 S   0  0  0  0  0  0  0  0  0  0  0  0
   44.9221   12.4527    0.0383 C   0  0  0  0  0  0  0  0  0  0  0  0
   44.5512   13.2547   -1.0184 C   0  0  0  0  0  0  0  0  0  0  0  0
   44.4685   12.7025   -2.8331 Br  0  0  0  0  0  0  0  0  0  0  0  0
   45.2852   11.0338    0.0798 C   0  0  0  0  0  0  0  0  0  0  0  0
   44.4697   10.0778   -0.5304 C   0  0  0  0  0  0  0  0  0  0  0  0
   44.8213    8.7307   -0.4858 C   0  0  0  0  0  0  0  0  0  0  0  0
   45.9813    8.3274    0.1825 C   0  0  0  0  0  0  0  0  0  0  0  0
   46.8010    9.2520    0.8347 C   0  0  0  0  0  0  0  0  0  0  0  0
   46.4523   10.6105    0.7372 C   0  0  0  0  0  0  0  0  0  0  0  0
   48.0048    8.9296    1.4744 N   0  0  0  0  0  0  0  0  0  0  0  0
   48.8557    9.1558    1.0340 H   0  0  0  0  0  0  0  0  0  0  0  0
   48.0340    8.2653    2.7802 C   0  0  0  0  0  0  0  0  0  0  0  0
   49.4318    8.3817    3.4152 C   0  0  0  0  0  0  0  0  0  0  0  0
   50.5280    7.4583    2.8339 C   0  0  0  0  0  0  0  0  0  0  0  0
   51.0821    7.9822    1.4975 C   0  0  0  0  0  0  0  0  0  0  0  0
   51.7251    7.4644    3.8178 C   0  0  0  0  0  0  0  0  0  0  0  0
   50.0098    6.0052    2.7208 C   0  0  0  0  0  0  0  0  0  0  0  0
   48.5998    5.7943    2.1154 C   0  0  0  0  0  0  0  0  0  0  0  0
   48.1336    4.3651    2.4964 C   0  0  0  0  0  0  0  0  0  0  0  0
   48.6062    5.8417    0.5763 C   0  0  0  0  0  0  0  0  0  0  0  0
   47.5828    6.7987    2.7047 C   0  0  0  0  0  0  0  0  0  0  0  0
   44.2784   15.9812    1.5469 C   0  0  0  0  0  0  0  0  0  0  0  0
   43.3826   16.8145    1.5336 O   0  0  0  0  0  0  0  0  0  0  0  0
   45.3000   16.1400    2.4169 O   0  0  0  0  0  0  0  0  0  0  0  0
   45.9956   15.5126    2.4424 H   0  0  0  0  0  0  0  0  0  0  0  0
   43.8385   15.5557   -1.4927 O   0  0  0  0  0  0  0  0  0  0  0  0
   42.7391   15.1301   -2.3024 C   0  0  0  0  0  0  0  0  0  0  0  0
   41.7228   16.2676   -2.4555 C   0  0  0  0  0  0  0  0  0  0  0  0
   40.3206   15.9268   -3.0244 C   0  0  0  0  0  0  0  0  0  0  0  0
   39.2210   16.5203   -2.1070 C   0  0  0  0  0  0  0  0  0  0  0  0
   40.1110   16.5338   -4.4264 C   0  0  0  0  0  0  0  0  0  0  0  0
   40.0687   14.3762   -3.0466 C   0  0  0  0  0  0  0  0  0  0  0  0
   38.0059   13.9142   -1.5439 C   0  0  0  0  0  0  0  0  0  0  0  0
   38.6553   13.7207   -2.9188 C   0  0  0  0  0  0  0  0  0  0  0  0
   37.6873   14.2062   -4.0145 C   0  0  0  0  0  0  0  0  0  0  0  0
   38.8471   12.1972   -3.1370 C   0  0  0  0  0  0  0  0  0  0  0  0
 36 37  1  0
 37 38  1  0
 37 39  1  0
 37 35  1  0
 35 32  1  0
 32 33  1  0
 32 34  1  0
 32 31  1  0
 31 30  1  0
 30 29  1  0
 29  1  1  0
  1  2  2  0
  2 25  1  0
 25 26  2  0
 25 27  1  0
  2  3  1  0
  3  4  1  0
  4  7  1  0
  7  8  2  0
  8  9  1  0
  9 10  2  0
 10 11  1  0
 11 13  1  0
 13 15  1  0
 15 16  1  0
 16 17  1  0
 17 18  1  0
 17 19  1  0
 17 20  1  0
 20 21  1  0
 21 22  1  0
 21 23  1  0
 21 24  1  0
 11 12  2  0
  4  5  2  0
  5  6  1  0
  5  1  1  0
 12  7  1  0
 24 15  1  0
 27 28  1  0
 13 14  1  0
M  END
> <minimizedAffinity>
-7.09103

> <CNNscore>
0.2504335642

> <CNNaffinity>
6.0251908302

> <CNN_VS>
1.5089100599

> <CNNaffinity_variance>
0.4689339101

$$$$



 39 41  0  0  0  0  0  0  0  0999 V2000
   44.9269   14.0161    1.1716 C   0  0  0  0  0  0  0  0  0  0  0  0
   44.8151   15.1354    1.9746 C   0  0  0  0  0  0  0  0  0  0  0  0
   44.1704   16.4574    1.0789 S   0  0  0  0  0  0  0  0  0  0  0  0
   43.9823   15.5243   -0.3485 C   0  0  0  0  0  0  0  0  0  0  0  0
   44.4186   14.2342   -0.1415 C   0  0  0  0  0  0  0  0  0  0  0  0
   44.3653   12.8422   -1.4317 Br  0  0  0  0  0  0  0  0  0  0  0  0
   43.4376   16.1683   -1.5467 C   0  0  0  0  0  0  0  0  0  0  0  0
   44.2588   16.9479   -2.3648 C   0  0  0  0  0  0  0  0  0  0  0  0
   43.7332   17.5576   -3.5016 C   0  0  0  0  0  0  0  0  0  0  0  0
   42.3802   17.4063   -3.8202 C   0  0  0  0  0  0  0  0  0  0  0  0
   41.5220   16.6638   -3.0052 C   0  0  0  0  0  0  0  0  0  0  0  0
   42.0834   16.0191   -1.8890 C   0  0  0  0  0  0  0  0  0  0  0  0
   40.1719   16.4222   -3.2901 N   0  0  0  0  0  0  0  0  0  0  0  0
   39.8751   16.4157   -4.2287 H   0  0  0  0  0  0  0  0  0  0  0  0
   39.1887   16.1789   -2.2312 C   0  0  0  0  0  0  0  0  0  0  0  0
   38.9308   14.6696   -2.0688 C   0  0  0  0  0  0  0  0  0  0  0  0
   38.0467   14.0049   -3.1498 C   0  0  0  0  0  0  0  0  0  0  0  0
   38.8205   13.7411   -4.4533 C   0  0  0  0  0  0  0  0  0  0  0  0
   37.6203   12.6112   -2.6235 C   0  0  0  0  0  0  0  0  0  0  0  0
   36.7655   14.8374   -3.3904 C   0  0  0  0  0  0  0  0  0  0  0  0
   36.9271   16.3705   -3.5413 C   0  0  0  0  0  0  0  0  0  0  0  0
   35.5303   17.0127   -3.3371 C   0  0  0  0  0  0  0  0  0  0  0  0
   37.3787   16.7791   -4.9555 C   0  0  0  0  0  0  0  0  0  0  0  0
   37.8749   16.9412   -2.4614 C   0  0  0  0  0  0  0  0  0  0  0  0
   45.1356   15.3672    3.3643 C   0  0  0  0  0  0  0  0  0  0  0  0
   46.1055   14.9701    3.9957 O   0  0  0  0  0  0  0  0  0  0  0  0
   44.2082   16.1156    4.0014 O   0  0  0  0  0  0  0  0  0  0  0  0
   43.4583   16.4292    3.5352 H   0  0  0  0  0  0  0  0  0  0  0  0
   45.4105   12.8266    1.6083 O   0  0  0  0  0  0  0  0  0  0  0  0
   46.8141   12.7047    1.3622 C   0  0  0  0  0  0  0  0  0  0  0  0
   47.3716   11.4686    2.0773 C   0  0  0  0  0  0  0  0  0  0  0  0
   47.5230   10.1566    1.2639 C   0  0  0  0  0  0  0  0  0  0  0  0
   48.0111    9.0146    2.1916 C   0  0  0  0  0  0  0  0  0  0  0  0
   46.1789    9.7011    0.6607 C   0  0  0  0  0  0  0  0  0  0  0  0
   48.6163   10.2954    0.1442 C   0  0  0  0  0  0  0  0  0  0  0  0
   50.0628    9.2058   -1.7125 C   0  0  0  0  0  0  0  0  0  0  0  0
   48.6527    9.4218   -1.1517 C   0  0  0  0  0  0  0  0  0  0  0  0
   47.9667    8.0568   -0.9531 C   0  0  0  0  0  0  0  0  0  0  0  0
   47.8315   10.1809   -2.2264 C   0  0  0  0  0  0  0  0  0  0  0  0
 36 37  1  0
 37 38  1  0
 37 39  1  0
 37 35  1  0
 35 32  1  0
 32 33  1  0
 32 34  1  0
 32 31  1  0
 31 30  1  0
 30 29  1  0
 29  1  1  0
  1  2  2  0
  2 25  1  0
 25 26  2  0
 25 27  1  0
  2  3  1  0
  3  4  1  0
  4  7  1  0
  7  8  2  0
  8  9  1  0
  9 10  2  0
 10 11  1  0
 11 13  1  0
 13 15  1  0
 15 16  1  0
 16 17  1  0
 17 18  1  0
 17 19  1  0
 17 20  1  0
 20 21  1  0
 21 22  1  0
 21 23  1  0
 21 24  1  0
 11 12  2  0
  4  5  2  0
  5  6  1  0
  5  1  1  0
 12  7  1  0
 24 15  1  0
 27 28  1  0
 13 14  1  0
M  END
> <minimizedAffinity>
-6.67894

> <CNNscore>
0.2317212075

> <CNNaffinity>
6.2634220123

> <CNN_VS>
1.4513677359

> <CNNaffinity_variance>
0.2676669657

$$$$



 39 41  0  0  0  0  0  0  0  0999 V2000
   44.6514   14.4088    1.1807 C   0  0  0  0  0  0  0  0  0  0  0  0
   45.2688   14.8537    2.3343 C   0  0  0  0  0  0  0  0  0  0  0  0
   46.5139   13.7633    2.8102 S   0  0  0  0  0  0  0  0  0  0  0  0
   46.2726   12.7428    1.4523 C   0  0  0  0  0  0  0  0  0  0  0  0
   45.2506   13.2238    0.6639 C   0  0  0  0  0  0  0  0  0  0  0  0
   44.6611   12.4380   -0.9609 Br  0  0  0  0  0  0  0  0  0  0  0  0
   47.1086   11.5480    1.3094 C   0  0  0  0  0  0  0  0  0  0  0  0
   46.9809   10.4849    2.2066 C   0  0  0  0  0  0  0  0  0  0  0  0
   47.7800    9.3529    2.0645 C   0  0  0  0  0  0  0  0  0  0  0  0
   48.7236    9.2816    1.0351 C   0  0  0  0  0  0  0  0  0  0  0  0
   48.9036   10.3407    0.1419 C   0  0  0  0  0  0  0  0  0  0  0  0
   48.0546   11.4534    0.2752 C   0  0  0  0  0  0  0  0  0  0  0  0
   49.7871   10.3180   -0.9450 N   0  0  0  0  0  0  0  0  0  0  0  0
   49.4232   10.2245   -1.8550 H   0  0  0  0  0  0  0  0  0  0  0  0
   51.2372   10.4294   -0.7665 C   0  0  0  0  0  0  0  0  0  0  0  0
   51.8322   11.4239   -1.7802 C   0  0  0  0  0  0  0  0  0  0  0  0
   51.9717   10.9188   -3.2354 C   0  0  0  0  0  0  0  0  0  0  0  0
   50.6308   10.9389   -3.9897 C   0  0  0  0  0  0  0  0  0  0  0  0
   52.8966   11.9040   -3.9936 C   0  0  0  0  0  0  0  0  0  0  0  0
   52.6358    9.5221   -3.2637 C   0  0  0  0  0  0  0  0  0  0  0  0
   52.1166    8.4632   -2.2594 C   0  0  0  0  0  0  0  0  0  0  0  0
   53.1804    7.3383   -2.1704 C   0  0  0  0  0  0  0  0  0  0  0  0
   50.8202    7.7836   -2.7373 C   0  0  0  0  0  0  0  0  0  0  0  0
   51.9464    9.0690   -0.8472 C   0  0  0  0  0  0  0  0  0  0  0  0
   45.0514   16.0172    3.1631 C   0  0  0  0  0  0  0  0  0  0  0  0
   44.7174   16.0591    4.3395 O   0  0  0  0  0  0  0  0  0  0  0  0
   45.2470   17.1793    2.5020 O   0  0  0  0  0  0  0  0  0  0  0  0
   45.5030   17.1683    1.6007 H   0  0  0  0  0  0  0  0  0  0  0  0
   43.6290   15.0651    0.5778 O   0  0  0  0  0  0  0  0  0  0  0  0
   44.1041   16.0563   -0.3372 C   0  0  0  0  0  0  0  0  0  0  0  0
   44.1525   15.4846   -1.7589 C   0  0  0  0  0  0  0  0  0  0  0  0
   43.1600   16.0471   -2.8097 C   0  0  0  0  0  0  0  0  0  0  0  0
   43.5457   17.5040   -3.1724 C   0  0  0  0  0  0  0  0  0  0  0  0
   43.1952   15.2343   -4.1198 C   0  0  0  0  0  0  0  0  0  0  0  0
   41.6976   16.1205   -2.2402 C   0  0  0  0  0  0  0  0  0  0  0  0
   40.3729   16.6287   -4.4113 C   0  0  0  0  0  0  0  0  0  0  0  0
   40.4155   15.8488   -3.0924 C   0  0  0  0  0  0  0  0  0  0  0  0
   40.2139   14.3485   -3.3787 C   0  0  0  0  0  0  0  0  0  0  0  0
   39.2047   16.3058   -2.2377 C   0  0  0  0  0  0  0  0  0  0  0  0
 36 37  1  0
 37 38  1  0
 37 39  1  0
 37 35  1  0
 35 32  1  0
 32 33  1  0
 32 34  1  0
 32 31  1  0
 31 30  1  0
 30 29  1  0
 29  1  1  0
  1  2  2  0
  2 25  1  0
 25 26  2  0
 25 27  1  0
  2  3  1  0
  3  4  1  0
  4  7  1  0
  7  8  2  0
  8  9  1  0
  9 10  2  0
 10 11  1  0
 11 13  1  0
 13 15  1  0
 15 16  1  0
 16 17  1  0
 17 18  1  0
 17 19  1  0
 17 20  1  0
 20 21  1  0
 21 22  1  0
 21 23  1  0
 21 24  1  0
 11 12  2  0
  4  5  2  0
  5  6  1  0
  5  1  1  0
 12  7  1  0
 24 15  1  0
 27 28  1  0
 13 14  1  0
M  END
> <minimizedAffinity>
-6.15592

> <CNNscore>
0.2199655771

> <CNNaffinity>
6.3241996765

> <CNN_VS>
1.3911062479

> <CNNaffinity_variance>
0.0307028424

$$$$



 39 41  0  0  0  0  0  0  0  0999 V2000
   44.7080   14.6290    1.3928 C   0  0  0  0  0  0  0  0  0  0  0  0
   45.4301   15.0948    2.4751 C   0  0  0  0  0  0  0  0  0  0  0  0
   46.6913   13.9932    2.8770 S   0  0  0  0  0  0  0  0  0  0  0  0
   46.3157   12.9382    1.5772 C   0  0  0  0  0  0  0  0  0  0  0  0
   45.2388   13.4170    0.8641 C   0  0  0  0  0  0  0  0  0  0  0  0
   44.4977   12.5959   -0.6791 Br  0  0  0  0  0  0  0  0  0  0  0  0
   47.1143   11.7224    1.4010 C   0  0  0  0  0  0  0  0  0  0  0  0
   47.0013   10.6654    2.3073 C   0  0  0  0  0  0  0  0  0  0  0  0
   47.7646    9.5133    2.1334 C   0  0  0  0  0  0  0  0  0  0  0  0
   48.6581    9.4155    1.0623 C   0  0  0  0  0  0  0  0  0  0  0  0
   48.8235   10.4673    0.1577 C   0  0  0  0  0  0  0  0  0  0  0  0
   48.0094   11.6013    0.3251 C   0  0  0  0  0  0  0  0  0  0  0  0
   49.6555   10.4194   -0.9683 N   0  0  0  0  0  0  0  0  0  0  0  0
   50.5026   10.9211   -0.9585 H   0  0  0  0  0  0  0  0  0  0  0  0
   49.3013    9.6442   -2.1602 C   0  0  0  0  0  0  0  0  0  0  0  0
   50.5066    9.5345   -3.1121 C   0  0  0  0  0  0  0  0  0  0  0  0
   50.8449   10.7973   -3.9385 C   0  0  0  0  0  0  0  0  0  0  0  0
   51.5881   11.8563   -3.1056 C   0  0  0  0  0  0  0  0  0  0  0  0
   51.8264   10.3805   -5.0628 C   0  0  0  0  0  0  0  0  0  0  0  0
   49.5705   11.3679   -4.6040 C   0  0  0  0  0  0  0  0  0  0  0  0
   48.3000   11.4914   -3.7266 C   0  0  0  0  0  0  0  0  0  0  0  0
   47.0865   11.6592   -4.6775 C   0  0  0  0  0  0  0  0  0  0  0  0
   48.3181   12.7481   -2.8370 C   0  0  0  0  0  0  0  0  0  0  0  0
   48.0735   10.2122   -2.8884 C   0  0  0  0  0  0  0  0  0  0  0  0
   45.3060   16.2867    3.2826 C   0  0  0  0  0  0  0  0  0  0  0  0
   45.7404   17.4072    3.0531 O   0  0  0  0  0  0  0  0  0  0  0  0
   44.6221   16.0777    4.4291 O   0  0  0  0  0  0  0  0  0  0  0  0
   44.2814   15.2266    4.6230 H   0  0  0  0  0  0  0  0  0  0  0  0
   43.6498   15.2884    0.8590 O   0  0  0  0  0  0  0  0  0  0  0  0
   44.0520   16.1661   -0.1962 C   0  0  0  0  0  0  0  0  0  0  0  0
   43.2019   15.9147   -1.4469 C   0  0  0  0  0  0  0  0  0  0  0  0
   43.8224   16.2347   -2.8320 C   0  0  0  0  0  0  0  0  0  0  0  0
   44.8062   15.1090   -3.2416 C   0  0  0  0  0  0  0  0  0  0  0  0
   42.7468   16.3136   -3.9343 C   0  0  0  0  0  0  0  0  0  0  0  0
   44.6744   17.5540   -2.7912 C   0  0  0  0  0  0  0  0  0  0  0  0
   45.6908   17.2300   -5.1553 C   0  0  0  0  0  0  0  0  0  0  0  0
   45.3038   18.2248   -4.0552 C   0  0  0  0  0  0  0  0  0  0  0  0
   44.3929   19.3158   -4.6497 C   0  0  0  0  0  0  0  0  0  0  0  0
   46.6009   18.9342   -3.5865 C   0  0  0  0  0  0  0  0  0  0  0  0
 36 37  1  0
 37 38  1  0
 37 39  1  0
 37 35  1  0
 35 32  1  0
 32 33  1  0
 32 34  1  0
 32 31  1  0
 31 30  1  0
 30 29  1  0
 29  1  1  0
  1  2  2  0
  2 25  1  0
 25 26  2  0
 25 27  1  0
  2  3  1  0
  3  4  1  0
  4  7  1  0
  7  8  2  0
  8  9  1  0
  9 10  2  0
 10 11  1  0
 11 13  1  0
 13 15  1  0
 15 16  1  0
 16 17  1  0
 17 18  1  0
 17 19  1  0
 17 20  1  0
 20 21  1  0
 21 22  1  0
 21 23  1  0
 21 24  1  0
 11 12  2  0
  4  5  2  0
  5  6  1  0
  5  1  1  0
 12  7  1  0
 24 15  1  0
 27 28  1  0
 13 14  1  0
M  END
> <minimizedAffinity>
-6.18834

> <CNNscore>
0.1962131411

> <CNNaffinity>
6.5068192482

> <CNN_VS>
1.2767233849

> <CNNaffinity_variance>
0.2282365113

$$$$



 39 41  0  0  0  0  0  0  0  0999 V2000
   44.8662   14.5083    1.6200 C   0  0  0  0  0  0  0  0  0  0  0  0
   44.6510   15.7423    2.2036 C   0  0  0  0  0  0  0  0  0  0  0  0
   44.0499   16.8619    1.0413 S   0  0  0  0  0  0  0  0  0  0  0  0
   44.0165   15.6910   -0.2122 C   0  0  0  0  0  0  0  0  0  0  0  0
   44.4702   14.4759    0.2516 C   0  0  0  0  0  0  0  0  0  0  0  0
   44.5724   12.8827   -0.7762 Br  0  0  0  0  0  0  0  0  0  0  0  0
   43.5616   16.0958   -1.5449 C   0  0  0  0  0  0  0  0  0  0  0  0
   42.2133   15.9882   -1.8941 C   0  0  0  0  0  0  0  0  0  0  0  0
   41.7889   16.3743   -3.1634 C   0  0  0  0  0  0  0  0  0  0  0  0
   42.7108   16.8552   -4.0982 C   0  0  0  0  0  0  0  0  0  0  0  0
   44.0720   16.9421   -3.7956 C   0  0  0  0  0  0  0  0  0  0  0  0
   44.4711   16.5914   -2.4939 C   0  0  0  0  0  0  0  0  0  0  0  0
   45.0430   17.4655   -4.6592 N   0  0  0  0  0  0  0  0  0  0  0  0
   45.4314   16.8828   -5.3512 H   0  0  0  0  0  0  0  0  0  0  0  0
   45.4971   18.8552   -4.5621 C   0  0  0  0  0  0  0  0  0  0  0  0
   45.7668   19.4353   -5.9628 C   0  0  0  0  0  0  0  0  0  0  0  0
   47.0708   18.9757   -6.6558 C   0  0  0  0  0  0  0  0  0  0  0  0
   46.9452   17.5641   -7.2552 C   0  0  0  0  0  0  0  0  0  0  0  0
   47.3298   19.9215   -7.8557 C   0  0  0  0  0  0  0  0  0  0  0  0
   48.2709   19.0932   -5.6870 C   0  0  0  0  0  0  0  0  0  0  0  0
   48.0815   18.5568   -4.2463 C   0  0  0  0  0  0  0  0  0  0  0  0
   49.2101   19.1581   -3.3688 C   0  0  0  0  0  0  0  0  0  0  0  0
   48.2465   17.0284   -4.1601 C   0  0  0  0  0  0  0  0  0  0  0  0
   46.7271   19.0105   -3.6548 C   0  0  0  0  0  0  0  0  0  0  0  0
   44.8400   16.2224    3.5533 C   0  0  0  0  0  0  0  0  0  0  0  0
   44.5638   15.6600    4.6043 O   0  0  0  0  0  0  0  0  0  0  0  0
   45.3861   17.4575    3.6019 O   0  0  0  0  0  0  0  0  0  0  0  0
   45.6046   17.9047    2.8080 H   0  0  0  0  0  0  0  0  0  0  0  0
   45.3439   13.4336    2.2956 O   0  0  0  0  0  0  0  0  0  0  0  0
   46.7286   13.2080    2.0181 C   0  0  0  0  0  0  0  0  0  0  0  0
   47.1633   11.8442    2.5670 C   0  0  0  0  0  0  0  0  0  0  0  0
   47.3494   10.6754    1.5645 C   0  0  0  0  0  0  0  0  0  0  0  0
   48.2415   11.1323    0.3819 C   0  0  0  0  0  0  0  0  0  0  0  0
   48.0543    9.4698    2.2185 C   0  0  0  0  0  0  0  0  0  0  0  0
   45.9816   10.2403    0.9258 C   0  0  0  0  0  0  0  0  0  0  0  0
   46.2074    9.6656   -1.5932 C   0  0  0  0  0  0  0  0  0  0  0  0
   45.8473    9.1567   -0.1929 C   0  0  0  0  0  0  0  0  0  0  0  0
   46.6709    7.8927    0.1192 C   0  0  0  0  0  0  0  0  0  0  0  0
   44.3585    8.7230   -0.2197 C   0  0  0  0  0  0  0  0  0  0  0  0
 36 37  1  0
 37 38  1  0
 37 39  1  0
 37 35  1  0
 35 32  1  0
 32 33  1  0
 32 34  1  0
 32 31  1  0
 31 30  1  0
 30 29  1  0
 29  1  1  0
  1  2  2  0
  2 25  1  0
 25 26  2  0
 25 27  1  0
  2  3  1  0
  3  4  1  0
  4  7  1  0
  7  8  2  0
  8  9  1  0
  9 10  2  0
 10 11  1  0
 11 13  1  0
 13 15  1  0
 15 16  1  0
 16 17  1  0
 17 18  1  0
 17 19  1  0
 17 20  1  0
 20 21  1  0
 21 22  1  0
 21 23  1  0
 21 24  1  0
 11 12  2  0
  4  5  2  0
  5  6  1  0
  5  1  1  0
 12  7  1  0
 24 15  1  0
 27 28  1  0
 13 14  1  0
M  END
> <minimizedAffinity>
-7.08965

> <CNNscore>
0.1884209365

> <CNNaffinity>
6.0919404030

> <CNN_VS>
1.1478490829

> <CNNaffinity_variance>
0.3198516369

$$$$



 39 41  0  0  0  0  0  0  0  0999 V2000
   51.9981   12.6053   -2.2233 C   0  0  0  0  0  0  0  0  0  0  0  0
   53.2579   12.6528   -1.6571 C   0  0  0  0  0  0  0  0  0  0  0  0
   53.8013   14.2821   -1.5322 S   0  0  0  0  0  0  0  0  0  0  0  0
   52.3410   14.9199   -2.1680 C   0  0  0  0  0  0  0  0  0  0  0  0
   51.4667   13.9022   -2.4804 C   0  0  0  0  0  0  0  0  0  0  0  0
   49.7163   14.1402   -3.1764 Br  0  0  0  0  0  0  0  0  0  0  0  0
   52.2096   16.3717   -2.3160 C   0  0  0  0  0  0  0  0  0  0  0  0
   51.2868   16.9095   -3.2163 C   0  0  0  0  0  0  0  0  0  0  0  0
   51.1686   18.2907   -3.3518 C   0  0  0  0  0  0  0  0  0  0  0  0
   51.9826   19.1443   -2.6009 C   0  0  0  0  0  0  0  0  0  0  0  0
   52.9412   18.6409   -1.7179 C   0  0  0  0  0  0  0  0  0  0  0  0
   53.0111   17.2454   -1.5624 C   0  0  0  0  0  0  0  0  0  0  0  0
   53.7508   19.4327   -0.8932 N   0  0  0  0  0  0  0  0  0  0  0  0
   53.8087   19.2199    0.0663 H   0  0  0  0  0  0  0  0  0  0  0  0
   54.5140   20.5683   -1.4175 C   0  0  0  0  0  0  0  0  0  0  0  0
   55.6034   20.0843   -2.3921 C   0  0  0  0  0  0  0  0  0  0  0  0
   56.8552   19.4373   -1.7548 C   0  0  0  0  0  0  0  0  0  0  0  0
   56.5979   17.9873   -1.3087 C   0  0  0  0  0  0  0  0  0  0  0  0
   57.9539   19.3543   -2.8443 C   0  0  0  0  0  0  0  0  0  0  0  0
   57.3922   20.3158   -0.6005 C   0  0  0  0  0  0  0  0  0  0  0  0
   56.3622   20.8682    0.4160 C   0  0  0  0  0  0  0  0  0  0  0  0
   57.0398   22.0309    1.1869 C   0  0  0  0  0  0  0  0  0  0  0  0
   55.9678   19.8274    1.4800 C   0  0  0  0  0  0  0  0  0  0  0  0
   55.1173   21.4368   -0.3031 C   0  0  0  0  0  0  0  0  0  0  0  0
   54.1466   11.6173   -1.1819 C   0  0  0  0  0  0  0  0  0  0  0  0
   54.3170   10.4952   -1.6389 O   0  0  0  0  0  0  0  0  0  0  0  0
   54.8471   11.9856   -0.0866 O   0  0  0  0  0  0  0  0  0  0  0  0
   54.7306   12.8407    0.2784 H   0  0  0  0  0  0  0  0  0  0  0  0
   51.3220   11.4516   -2.4498 O   0  0  0  0  0  0  0  0  0  0  0  0
   50.8676   10.8576   -1.2307 C   0  0  0  0  0  0  0  0  0  0  0  0
   49.3620   11.0888   -1.0581 C   0  0  0  0  0  0  0  0  0  0  0  0
   48.5557   10.0695   -0.2116 C   0  0  0  0  0  0  0  0  0  0  0  0
   47.4491    9.4202   -1.0816 C   0  0  0  0  0  0  0  0  0  0  0  0
   49.4494    8.9242    0.3057 C   0  0  0  0  0  0  0  0  0  0  0  0
   47.8079   10.7719    0.9782 C   0  0  0  0  0  0  0  0  0  0  0  0
   46.4991   12.3453   -0.6151 C   0  0  0  0  0  0  0  0  0  0  0  0
   46.6035   11.7514    0.7942 C   0  0  0  0  0  0  0  0  0  0  0  0
   45.2603   11.1005    1.1755 C   0  0  0  0  0  0  0  0  0  0  0  0
   46.8262   12.9254    1.7829 C   0  0  0  0  0  0  0  0  0  0  0  0
 36 37  1  0
 37 38  1  0
 37 39  1  0
 37 35  1  0
 35 32  1  0
 32 33  1  0
 32 34  1  0
 32 31  1  0
 31 30  1  0
 30 29  1  0
 29  1  1  0
  1  2  2  0
  2 25  1  0
 25 26  2  0
 25 27  1  0
  2  3  1  0
  3  4  1  0
  4  7  1  0
  7  8  2  0
  8  9  1  0
  9 10  2  0
 10 11  1  0
 11 13  1  0
 13 15  1  0
 15 16  1  0
 16 17  1  0
 17 18  1  0
 17 19  1  0
 17 20  1  0
 20 21  1  0
 21 22  1  0
 21 23  1  0
 21 24  1  0
 11 12  2  0
  4  5  2  0
  5  6  1  0
  5  1  1  0
 12  7  1  0
 24 15  1  0
 27 28  1  0
 13 14  1  0
M  END
> <minimizedAffinity>
-5.66857

> <CNNscore>
0.1834896058

> <CNNaffinity>
5.0721344948

> <CNN_VS>
0.9306839705

> <CNNaffinity_variance>
0.9413437843

$$$$
