


 32 34  0  0  0  0  0  0  0  0999 V2000
   46.2995   15.0496    3.3690 C   0  0  0  0  0  0  0  0  0  0  0  0
   45.3194   15.9254    2.9360 C   0  0  0  0  0  0  0  0  0  0  0  0
   44.6014   15.3651    1.4778 S   0  0  0  0  0  0  0  0  0  0  0  0
   45.4782   13.8935    1.5072 C   0  0  0  0  0  0  0  0  0  0  0  0
   46.3324   13.8561    2.5880 C   0  0  0  0  0  0  0  0  0  0  0  0
   47.4143   12.3644    3.0452 Br  0  0  0  0  0  0  0  0  0  0  0  0
   45.2416   12.9072    0.4525 C   0  0  0  0  0  0  0  0  0  0  0  0
   44.7560   13.3119   -0.7937 C   0  0  0  0  0  0  0  0  0  0  0  0
   44.5621   12.3729   -1.8038 C   0  0  0  0  0  0  0  0  0  0  0  0
   44.8396   11.0223   -1.5708 C   0  0  0  0  0  0  0  0  0  0  0  0
   45.2869   10.5794   -0.3211 C   0  0  0  0  0  0  0  0  0  0  0  0
   45.5166   11.5473    0.6695 C   0  0  0  0  0  0  0  0  0  0  0  0
   45.6464    9.2549   -0.0529 N   0  0  0  0  0  0  0  0  0  0  0  0
   45.0188    8.6569    0.4138 H   0  0  0  0  0  0  0  0  0  0  0  0
   46.9532    8.7643   -0.4670 C   0  0  0  0  0  0  0  0  0  0  0  0
   47.6577    8.1609    0.7272 C   0  0  0  0  0  0  0  0  0  0  0  0
   48.3217    6.9298    0.6226 C   0  0  0  0  0  0  0  0  0  0  0  0
   48.9607    6.3735    1.7336 C   0  0  0  0  0  0  0  0  0  0  0  0
   48.9333    7.0433    2.9553 C   0  0  0  0  0  0  0  0  0  0  0  0
   49.7971    6.2886    4.4580 Br  0  0  0  0  0  0  0  0  0  0  0  0
   48.2708    8.2623    3.0788 C   0  0  0  0  0  0  0  0  0  0  0  0
   47.6329    8.8178    1.9677 C   0  0  0  0  0  0  0  0  0  0  0  0
   44.8478   17.1771    3.4825 C   0  0  0  0  0  0  0  0  0  0  0  0
   44.5896   18.2149    2.8868 O   0  0  0  0  0  0  0  0  0  0  0  0
   44.6419   17.1147    4.8171 O   0  0  0  0  0  0  0  0  0  0  0  0
   44.8356   16.3262    5.2847 H   0  0  0  0  0  0  0  0  0  0  0  0
   47.0419   15.2952    4.4790 O   0  0  0  0  0  0  0  0  0  0  0  0
   48.1403   16.1676    4.2333 C   0  0  0  0  0  0  0  0  0  0  0  0
   49.1401   18.2240    5.1767 O   0  0  0  0  0  0  0  0  0  0  0  0
   48.2502   17.3916    5.1348 C   0  0  0  0  0  0  0  0  0  0  0  0
   47.1960   17.4931    5.9758 O   0  0  0  0  0  0  0  0  0  0  0  0
   46.5102   16.8553    5.9465 H   0  0  0  0  0  0  0  0  0  0  0  0
 29 30  2  0
 30 31  1  0
 30 28  1  0
 28 27  1  0
 27  1  1  0
  1  2  2  0
  2 23  1  0
 23 24  2  0
 23 25  1  0
  2  3  1  0
  3  4  1  0
  4  7  1  0
  7  8  2  0
  8  9  1  0
  9 10  2  0
 10 11  1  0
 11 13  1  0
 13 15  1  0
 15 16  1  0
 16 17  2  0
 17 18  1  0
 18 19  2  0
 19 20  1  0
 19 21  1  0
 21 22  2  0
 11 12  2  0
  4  5  2  0
  5  6  1  0
  5  1  1  0
 12  7  1  0
 22 16  1  0
 31 32  1  0
 25 26  1  0
 13 14  1  0
M  END
> <minimizedAffinity>
-8.81662

> <CNNscore>
0.9699642658

> <CNNaffinity>
6.5335178375

> <CNN_VS>
6.3372788429

> <CNNaffinity_variance>
0.0844187215

$$$$



 32 34  0  0  0  0  0  0  0  0999 V2000
   46.3219   15.0268    3.3593 C   0  0  0  0  0  0  0  0  0  0  0  0
   45.3253   15.9052    2.9714 C   0  0  0  0  0  0  0  0  0  0  0  0
   44.5410   15.3474    1.5468 S   0  0  0  0  0  0  0  0  0  0  0  0
   45.4148   13.8738    1.5359 C   0  0  0  0  0  0  0  0  0  0  0  0
   46.3167   13.8337    2.5771 C   0  0  0  0  0  0  0  0  0  0  0  0
   47.4147   12.3393    2.9842 Br  0  0  0  0  0  0  0  0  0  0  0  0
   45.1285   12.8886    0.4924 C   0  0  0  0  0  0  0  0  0  0  0  0
   45.0430   11.5308    0.8107 C   0  0  0  0  0  0  0  0  0  0  0  0
   44.7396   10.6010   -0.1808 C   0  0  0  0  0  0  0  0  0  0  0  0
   44.5329   11.0207   -1.4985 C   0  0  0  0  0  0  0  0  0  0  0  0
   44.6528   12.3678   -1.8574 C   0  0  0  0  0  0  0  0  0  0  0  0
   44.9168   13.2935   -0.8355 C   0  0  0  0  0  0  0  0  0  0  0  0
   44.3888   12.8527   -3.1422 N   0  0  0  0  0  0  0  0  0  0  0  0
   44.7414   12.3810   -3.9310 H   0  0  0  0  0  0  0  0  0  0  0  0
   43.5899   14.0587   -3.3077 C   0  0  0  0  0  0  0  0  0  0  0  0
   44.5105   15.2549   -3.3984 C   0  0  0  0  0  0  0  0  0  0  0  0
   45.6931   15.1955   -4.1504 C   0  0  0  0  0  0  0  0  0  0  0  0
   46.5440   16.3014   -4.2200 C   0  0  0  0  0  0  0  0  0  0  0  0
   46.2188   17.4695   -3.5331 C   0  0  0  0  0  0  0  0  0  0  0  0
   47.3719   18.9646   -3.6271 Br  0  0  0  0  0  0  0  0  0  0  0  0
   45.0528   17.5424   -2.7745 C   0  0  0  0  0  0  0  0  0  0  0  0
   44.2027   16.4367   -2.7059 C   0  0  0  0  0  0  0  0  0  0  0  0
   44.8819   17.1577    3.5393 C   0  0  0  0  0  0  0  0  0  0  0  0
   44.6498   18.2118    2.9617 O   0  0  0  0  0  0  0  0  0  0  0  0
   44.6707   17.0762    4.8720 O   0  0  0  0  0  0  0  0  0  0  0  0
   44.8445   16.2750    5.3258 H   0  0  0  0  0  0  0  0  0  0  0  0
   47.1142   15.2701    4.4348 O   0  0  0  0  0  0  0  0  0  0  0  0
   48.1686   16.1854    4.1549 C   0  0  0  0  0  0  0  0  0  0  0  0
   49.2181   18.1773    5.1793 O   0  0  0  0  0  0  0  0  0  0  0  0
   48.3041   17.3744    5.0988 C   0  0  0  0  0  0  0  0  0  0  0  0
   47.2430   17.4797    5.9306 O   0  0  0  0  0  0  0  0  0  0  0  0
   46.5387   16.8645    5.8718 H   0  0  0  0  0  0  0  0  0  0  0  0
 29 30  2  0
 30 31  1  0
 30 28  1  0
 28 27  1  0
 27  1  1  0
  1  2  2  0
  2 23  1  0
 23 24  2  0
 23 25  1  0
  2  3  1  0
  3  4  1  0
  4  7  1  0
  7  8  2  0
  8  9  1  0
  9 10  2  0
 10 11  1  0
 11 13  1  0
 13 15  1  0
 15 16  1  0
 16 17  2  0
 17 18  1  0
 18 19  2  0
 19 20  1  0
 19 21  1  0
 21 22  2  0
 11 12  2  0
  4  5  2  0
  5  6  1  0
  5  1  1  0
 12  7  1  0
 22 16  1  0
 31 32  1  0
 25 26  1  0
 13 14  1  0
M  END
> <minimizedAffinity>
-8.66517

> <CNNscore>
0.9309492111

> <CNNaffinity>
6.6456570625

> <CNN_VS>
6.1867690086

> <CNNaffinity_variance>
0.0060248435

$$$$



 32 34  0  0  0  0  0  0  0  0999 V2000
   46.2404   15.1171    3.3004 C   0  0  0  0  0  0  0  0  0  0  0  0
   45.2417   15.9969    2.9212 C   0  0  0  0  0  0  0  0  0  0  0  0
   44.4653   15.4563    1.4857 S   0  0  0  0  0  0  0  0  0  0  0  0
   45.3452   13.9866    1.4572 C   0  0  0  0  0  0  0  0  0  0  0  0
   46.2432   13.9353    2.5013 C   0  0  0  0  0  0  0  0  0  0  0  0
   47.3457   12.4396    2.8914 Br  0  0  0  0  0  0  0  0  0  0  0  0
   45.0671   13.0153    0.3986 C   0  0  0  0  0  0  0  0  0  0  0  0
   44.7687   13.4504   -0.8953 C   0  0  0  0  0  0  0  0  0  0  0  0
   44.5355   12.5210   -1.9059 C   0  0  0  0  0  0  0  0  0  0  0  0
   44.5858   11.1517   -1.6270 C   0  0  0  0  0  0  0  0  0  0  0  0
   44.8405   10.6845   -0.3329 C   0  0  0  0  0  0  0  0  0  0  0  0
   45.1151   11.6367    0.6615 C   0  0  0  0  0  0  0  0  0  0  0  0
   44.9720    9.3300   -0.0111 N   0  0  0  0  0  0  0  0  0  0  0  0
   44.2511    8.6969   -0.2320 H   0  0  0  0  0  0  0  0  0  0  0  0
   46.1800    8.8603    0.6521 C   0  0  0  0  0  0  0  0  0  0  0  0
   47.3619    9.0609   -0.2697 C   0  0  0  0  0  0  0  0  0  0  0  0
   48.4109    9.9220    0.0847 C   0  0  0  0  0  0  0  0  0  0  0  0
   49.4938   10.1106   -0.7776 C   0  0  0  0  0  0  0  0  0  0  0  0
   49.5295    9.4433   -2.0005 C   0  0  0  0  0  0  0  0  0  0  0  0
   50.9949    9.7007   -3.1668 Br  0  0  0  0  0  0  0  0  0  0  0  0
   48.4917    8.5916   -2.3718 C   0  0  0  0  0  0  0  0  0  0  0  0
   47.4100    8.4033   -1.5091 C   0  0  0  0  0  0  0  0  0  0  0  0
   44.7909   17.2392    3.5052 C   0  0  0  0  0  0  0  0  0  0  0  0
   44.5187   18.2890    2.9372 O   0  0  0  0  0  0  0  0  0  0  0  0
   44.6242   17.1520    4.8438 O   0  0  0  0  0  0  0  0  0  0  0  0
   44.8289   16.3541    5.2904 H   0  0  0  0  0  0  0  0  0  0  0  0
   47.0275   15.3481    4.3825 O   0  0  0  0  0  0  0  0  0  0  0  0
   48.1948   16.1024    4.0720 C   0  0  0  0  0  0  0  0  0  0  0  0
   49.1765   17.8182    5.5589 O   0  0  0  0  0  0  0  0  0  0  0  0
   48.3308   17.4563    4.7585 C   0  0  0  0  0  0  0  0  0  0  0  0
   47.3452   18.3071    4.3927 O   0  0  0  0  0  0  0  0  0  0  0  0
   46.6936   18.0326    3.7779 H   0  0  0  0  0  0  0  0  0  0  0  0
 29 30  2  0
 30 31  1  0
 30 28  1  0
 28 27  1  0
 27  1  1  0
  1  2  2  0
  2 23  1  0
 23 24  2  0
 23 25  1  0
  2  3  1  0
  3  4  1  0
  4  7  1  0
  7  8  2  0
  8  9  1  0
  9 10  2  0
 10 11  1  0
 11 13  1  0
 13 15  1  0
 15 16  1  0
 16 17  2  0
 17 18  1  0
 18 19  2  0
 19 20  1  0
 19 21  1  0
 21 22  2  0
 11 12  2  0
  4  5  2  0
  5  6  1  0
  5  1  1  0
 12  7  1  0
 22 16  1  0
 31 32  1  0
 25 26  1  0
 13 14  1  0
M  END
> <minimizedAffinity>
-8.17275

> <CNNscore>
0.9100658894

> <CNNaffinity>
6.4581418037

> <CNN_VS>
5.8773345947

> <CNNaffinity_variance>
0.1172109544

$$$$



 32 34  0  0  0  0  0  0  0  0999 V2000
   46.3169   14.9511    3.3212 C   0  0  0  0  0  0  0  0  0  0  0  0
   45.3254   15.8416    2.9477 C   0  0  0  0  0  0  0  0  0  0  0  0
   44.5300   15.3055    1.5209 S   0  0  0  0  0  0  0  0  0  0  0  0
   45.3921   13.8253    1.4897 C   0  0  0  0  0  0  0  0  0  0  0  0
   46.2985   13.7667    2.5261 C   0  0  0  0  0  0  0  0  0  0  0  0
   47.3865   12.2593    2.9117 Br  0  0  0  0  0  0  0  0  0  0  0  0
   45.0931   12.8539    0.4370 C   0  0  0  0  0  0  0  0  0  0  0  0
   45.0789   11.4865    0.7243 C   0  0  0  0  0  0  0  0  0  0  0  0
   44.7632   10.5685   -0.2742 C   0  0  0  0  0  0  0  0  0  0  0  0
   44.4728   11.0101   -1.5689 C   0  0  0  0  0  0  0  0  0  0  0  0
   44.5197   12.3691   -1.8987 C   0  0  0  0  0  0  0  0  0  0  0  0
   44.7977   13.2807   -0.8679 C   0  0  0  0  0  0  0  0  0  0  0  0
   44.1711   12.8727   -3.1558 N   0  0  0  0  0  0  0  0  0  0  0  0
   43.9574   12.2567   -3.8935 H   0  0  0  0  0  0  0  0  0  0  0  0
   44.1256   14.3123   -3.3686 C   0  0  0  0  0  0  0  0  0  0  0  0
   42.7122   14.8021   -3.1467 C   0  0  0  0  0  0  0  0  0  0  0  0
   42.4678   16.0105   -2.4778 C   0  0  0  0  0  0  0  0  0  0  0  0
   41.1587   16.4505   -2.2668 C   0  0  0  0  0  0  0  0  0  0  0  0
   40.0883   15.6810   -2.7187 C   0  0  0  0  0  0  0  0  0  0  0  0
   38.3175   16.2771   -2.4313 Br  0  0  0  0  0  0  0  0  0  0  0  0
   40.3132   14.4741   -3.3769 C   0  0  0  0  0  0  0  0  0  0  0  0
   41.6220   14.0354   -3.5878 C   0  0  0  0  0  0  0  0  0  0  0  0
   44.8946   17.0912    3.5313 C   0  0  0  0  0  0  0  0  0  0  0  0
   44.6859   18.1583    2.9688 O   0  0  0  0  0  0  0  0  0  0  0  0
   44.6661   16.9909    4.8599 O   0  0  0  0  0  0  0  0  0  0  0  0
   44.8219   16.1796    5.3021 H   0  0  0  0  0  0  0  0  0  0  0  0
   47.1161   15.1764    4.3956 O   0  0  0  0  0  0  0  0  0  0  0  0
   48.0885   16.1907    4.1641 C   0  0  0  0  0  0  0  0  0  0  0  0
   47.2558   17.6883    5.9479 O   0  0  0  0  0  0  0  0  0  0  0  0
   48.1233   17.3392    5.1654 C   0  0  0  0  0  0  0  0  0  0  0  0
   49.2916   18.0183    5.1117 O   0  0  0  0  0  0  0  0  0  0  0  0
   49.9605   17.7529    4.5116 H   0  0  0  0  0  0  0  0  0  0  0  0
 29 30  2  0
 30 31  1  0
 30 28  1  0
 28 27  1  0
 27  1  1  0
  1  2  2  0
  2 23  1  0
 23 24  2  0
 23 25  1  0
  2  3  1  0
  3  4  1  0
  4  7  1  0
  7  8  2  0
  8  9  1  0
  9 10  2  0
 10 11  1  0
 11 13  1  0
 13 15  1  0
 15 16  1  0
 16 17  2  0
 17 18  1  0
 18 19  2  0
 19 20  1  0
 19 21  1  0
 21 22  2  0
 11 12  2  0
  4  5  2  0
  5  6  1  0
  5  1  1  0
 12  7  1  0
 22 16  1  0
 31 32  1  0
 25 26  1  0
 13 14  1  0
M  END
> <minimizedAffinity>
-8.90883

> <CNNscore>
0.9016757011

> <CNNaffinity>
6.5243544579

> <CNN_VS>
5.8828520775

> <CNNaffinity_variance>
0.1018774733

$$$$



 32 34  0  0  0  0  0  0  0  0999 V2000
   46.3182   14.9242    3.3019 C   0  0  0  0  0  0  0  0  0  0  0  0
   45.3322   15.8136    2.9118 C   0  0  0  0  0  0  0  0  0  0  0  0
   44.5398   15.2607    1.4898 S   0  0  0  0  0  0  0  0  0  0  0  0
   45.3953   13.7764    1.4832 C   0  0  0  0  0  0  0  0  0  0  0  0
   46.2975   13.7286    2.5239 C   0  0  0  0  0  0  0  0  0  0  0  0
   47.3771   12.2221    2.9353 Br  0  0  0  0  0  0  0  0  0  0  0  0
   45.0959   12.7912    0.4434 C   0  0  0  0  0  0  0  0  0  0  0  0
   45.0725   11.4283    0.7507 C   0  0  0  0  0  0  0  0  0  0  0  0
   44.7564   10.4975   -0.2358 C   0  0  0  0  0  0  0  0  0  0  0  0
   44.4749   10.9217   -1.5382 C   0  0  0  0  0  0  0  0  0  0  0  0
   44.5312   12.2754   -1.8877 C   0  0  0  0  0  0  0  0  0  0  0  0
   44.8094   13.2005   -0.8690 C   0  0  0  0  0  0  0  0  0  0  0  0
   44.1917   12.7624   -3.1538 N   0  0  0  0  0  0  0  0  0  0  0  0
   44.4655   13.6683   -3.4250 H   0  0  0  0  0  0  0  0  0  0  0  0
   43.4313   11.9233   -4.0691 C   0  0  0  0  0  0  0  0  0  0  0  0
   41.9594   12.0406   -3.7429 C   0  0  0  0  0  0  0  0  0  0  0  0
   41.1941   10.9003   -3.4576 C   0  0  0  0  0  0  0  0  0  0  0  0
   39.8322   11.0160   -3.1682 C   0  0  0  0  0  0  0  0  0  0  0  0
   39.2286   12.2720   -3.1687 C   0  0  0  0  0  0  0  0  0  0  0  0
   37.3854   12.4268   -2.7783 Br  0  0  0  0  0  0  0  0  0  0  0  0
   39.9721   13.4137   -3.4586 C   0  0  0  0  0  0  0  0  0  0  0  0
   41.3333   13.2971   -3.7472 C   0  0  0  0  0  0  0  0  0  0  0  0
   44.9049   17.0734    3.4758 C   0  0  0  0  0  0  0  0  0  0  0  0
   44.7077   18.1345    2.8979 O   0  0  0  0  0  0  0  0  0  0  0  0
   44.6650   16.9918    4.8036 O   0  0  0  0  0  0  0  0  0  0  0  0
   44.8119   16.1853    5.2575 H   0  0  0  0  0  0  0  0  0  0  0  0
   47.1144   15.1613    4.3760 O   0  0  0  0  0  0  0  0  0  0  0  0
   48.0832   16.1776    4.1383 C   0  0  0  0  0  0  0  0  0  0  0  0
   47.2750   17.6655    5.9415 O   0  0  0  0  0  0  0  0  0  0  0  0
   48.1337   17.3172    5.1491 C   0  0  0  0  0  0  0  0  0  0  0  0
   49.3060   17.9890    5.0915 O   0  0  0  0  0  0  0  0  0  0  0  0
   49.9683   17.7244    4.4838 H   0  0  0  0  0  0  0  0  0  0  0  0
 29 30  2  0
 30 31  1  0
 30 28  1  0
 28 27  1  0
 27  1  1  0
  1  2  2  0
  2 23  1  0
 23 24  2  0
 23 25  1  0
  2  3  1  0
  3  4  1  0
  4  7  1  0
  7  8  2  0
  8  9  1  0
  9 10  2  0
 10 11  1  0
 11 13  1  0
 13 15  1  0
 15 16  1  0
 16 17  2  0
 17 18  1  0
 18 19  2  0
 19 20  1  0
 19 21  1  0
 21 22  2  0
 11 12  2  0
  4  5  2  0
  5  6  1  0
  5  1  1  0
 12  7  1  0
 22 16  1  0
 31 32  1  0
 25 26  1  0
 13 14  1  0
M  END
> <minimizedAffinity>
-8.62778

> <CNNscore>
0.9006274343

> <CNNaffinity>
6.3686556816

> <CNN_VS>
5.7357859612

> <CNNaffinity_variance>
0.1122844815

$$$$



 32 34  0  0  0  0  0  0  0  0999 V2000
   45.8612   15.3204    2.6157 C   0  0  0  0  0  0  0  0  0  0  0  0
   45.0149   15.4804    1.5324 C   0  0  0  0  0  0  0  0  0  0  0  0
   44.9646   14.0492    0.5811 S   0  0  0  0  0  0  0  0  0  0  0  0
   45.9377   13.1739    1.6865 C   0  0  0  0  0  0  0  0  0  0  0  0
   46.3258   13.9770    2.7370 C   0  0  0  0  0  0  0  0  0  0  0  0
   47.3309   13.3735    4.2304 Br  0  0  0  0  0  0  0  0  0  0  0  0
   46.2314   11.7670    1.4112 C   0  0  0  0  0  0  0  0  0  0  0  0
   45.5546   11.0931    0.3912 C   0  0  0  0  0  0  0  0  0  0  0  0
   45.8604    9.7632    0.1132 C   0  0  0  0  0  0  0  0  0  0  0  0
   46.8345    9.0946    0.8612 C   0  0  0  0  0  0  0  0  0  0  0  0
   47.5000    9.7286    1.9162 C   0  0  0  0  0  0  0  0  0  0  0  0
   47.2079   11.0814    2.1519 C   0  0  0  0  0  0  0  0  0  0  0  0
   48.5302    9.1329    2.6506 N   0  0  0  0  0  0  0  0  0  0  0  0
   49.4326    9.5266    2.6458 H   0  0  0  0  0  0  0  0  0  0  0  0
   48.2621    7.9278    3.4223 C   0  0  0  0  0  0  0  0  0  0  0  0
   49.5736    7.2639    3.7771 C   0  0  0  0  0  0  0  0  0  0  0  0
   49.6405    6.3077    4.8010 C   0  0  0  0  0  0  0  0  0  0  0  0
   50.8582    5.7072    5.1304 C   0  0  0  0  0  0  0  0  0  0  0  0
   52.0153    6.0647    4.4409 C   0  0  0  0  0  0  0  0  0  0  0  0
   53.6625    5.2523    4.8886 Br  0  0  0  0  0  0  0  0  0  0  0  0
   51.9681    7.0191    3.4274 C   0  0  0  0  0  0  0  0  0  0  0  0
   50.7505    7.6184    3.0986 C   0  0  0  0  0  0  0  0  0  0  0  0
   44.2268   16.6095    1.0946 C   0  0  0  0  0  0  0  0  0  0  0  0
   43.5826   16.7288    0.0605 O   0  0  0  0  0  0  0  0  0  0  0  0
   44.2004   17.6074    2.0062 O   0  0  0  0  0  0  0  0  0  0  0  0
   44.6892   17.5283    2.8017 H   0  0  0  0  0  0  0  0  0  0  0  0
   46.1015   16.3281    3.4935 O   0  0  0  0  0  0  0  0  0  0  0  0
   47.4802   16.6735    3.5820 C   0  0  0  0  0  0  0  0  0  0  0  0
   47.2819   17.5389    5.8907 O   0  0  0  0  0  0  0  0  0  0  0  0
   47.9447   17.2810    4.9003 C   0  0  0  0  0  0  0  0  0  0  0  0
   49.2695   17.5527    4.8899 O   0  0  0  0  0  0  0  0  0  0  0  0
   49.7821   17.3560    4.1306 H   0  0  0  0  0  0  0  0  0  0  0  0
 29 30  2  0
 30 31  1  0
 30 28  1  0
 28 27  1  0
 27  1  1  0
  1  2  2  0
  2 23  1  0
 23 24  2  0
 23 25  1  0
  2  3  1  0
  3  4  1  0
  4  7  1  0
  7  8  2  0
  8  9  1  0
  9 10  2  0
 10 11  1  0
 11 13  1  0
 13 15  1  0
 15 16  1  0
 16 17  2  0
 17 18  1  0
 18 19  2  0
 19 20  1  0
 19 21  1  0
 21 22  2  0
 11 12  2  0
  4  5  2  0
  5  6  1  0
  5  1  1  0
 12  7  1  0
 22 16  1  0
 31 32  1  0
 25 26  1  0
 13 14  1  0
M  END
> <minimizedAffinity>
-8.06670

> <CNNscore>
0.8556578159

> <CNNaffinity>
6.4684906006

> <CNN_VS>
5.5348143578

> <CNNaffinity_variance>
0.0349207446

$$$$



 32 34  0  0  0  0  0  0  0  0999 V2000
   46.4484   15.0090    3.4741 C   0  0  0  0  0  0  0  0  0  0  0  0
   45.4399   15.9358    3.2762 C   0  0  0  0  0  0  0  0  0  0  0  0
   44.5708   15.5927    1.8330 S   0  0  0  0  0  0  0  0  0  0  0  0
   45.4284   14.1355    1.5575 C   0  0  0  0  0  0  0  0  0  0  0  0
   46.3875   13.9428    2.5282 C   0  0  0  0  0  0  0  0  0  0  0  0
   47.4923   12.4036    2.6497 Br  0  0  0  0  0  0  0  0  0  0  0  0
   45.0740   13.3134    0.3999 C   0  0  0  0  0  0  0  0  0  0  0  0
   44.8129   13.9123   -0.8353 C   0  0  0  0  0  0  0  0  0  0  0  0
   44.5066   13.1227   -1.9409 C   0  0  0  0  0  0  0  0  0  0  0  0
   44.4462   11.7313   -1.8161 C   0  0  0  0  0  0  0  0  0  0  0  0
   44.6611   11.1041   -0.5839 C   0  0  0  0  0  0  0  0  0  0  0  0
   45.0106   11.9147    0.5078 C   0  0  0  0  0  0  0  0  0  0  0  0
   44.6828    9.7161   -0.4154 N   0  0  0  0  0  0  0  0  0  0  0  0
   44.3711    9.3153    0.4280 H   0  0  0  0  0  0  0  0  0  0  0  0
   45.1684    8.8664   -1.4934 C   0  0  0  0  0  0  0  0  0  0  0  0
   44.0101    8.4933   -2.3911 C   0  0  0  0  0  0  0  0  0  0  0  0
   44.2168    8.2086   -3.7489 C   0  0  0  0  0  0  0  0  0  0  0  0
   43.1399    7.8758   -4.5743 C   0  0  0  0  0  0  0  0  0  0  0  0
   41.8508    7.8320   -4.0466 C   0  0  0  0  0  0  0  0  0  0  0  0
   40.3944    7.3828   -5.1650 Br  0  0  0  0  0  0  0  0  0  0  0  0
   41.6269    8.1207   -2.7024 C   0  0  0  0  0  0  0  0  0  0  0  0
   42.7040    8.4528   -1.8782 C   0  0  0  0  0  0  0  0  0  0  0  0
   45.0413   17.0925    4.0449 C   0  0  0  0  0  0  0  0  0  0  0  0
   44.5348   17.1245    5.1589 O   0  0  0  0  0  0  0  0  0  0  0  0
   45.3337   18.2553    3.4204 O   0  0  0  0  0  0  0  0  0  0  0  0
   45.7216   18.2444    2.5676 H   0  0  0  0  0  0  0  0  0  0  0  0
   47.3027   15.0918    4.5263 O   0  0  0  0  0  0  0  0  0  0  0  0
   48.3859   15.9869    4.2958 C   0  0  0  0  0  0  0  0  0  0  0  0
   49.2165   18.1686    5.1137 O   0  0  0  0  0  0  0  0  0  0  0  0
   48.3830   17.2788    5.1046 C   0  0  0  0  0  0  0  0  0  0  0  0
   47.2922   17.3728    5.8984 O   0  0  0  0  0  0  0  0  0  0  0  0
   46.6495   16.6910    5.8941 H   0  0  0  0  0  0  0  0  0  0  0  0
 29 30  2  0
 30 31  1  0
 30 28  1  0
 28 27  1  0
 27  1  1  0
  1  2  2  0
  2 23  1  0
 23 24  2  0
 23 25  1  0
  2  3  1  0
  3  4  1  0
  4  7  1  0
  7  8  2  0
  8  9  1  0
  9 10  2  0
 10 11  1  0
 11 13  1  0
 13 15  1  0
 15 16  1  0
 16 17  2  0
 17 18  1  0
 18 19  2  0
 19 20  1  0
 19 21  1  0
 21 22  2  0
 11 12  2  0
  4  5  2  0
  5  6  1  0
  5  1  1  0
 12  7  1  0
 22 16  1  0
 31 32  1  0
 25 26  1  0
 13 14  1  0
M  END
> <minimizedAffinity>
-8.65221

> <CNNscore>
0.7982819080

> <CNNaffinity>
6.1767239571

> <CNN_VS>
4.9307670593

> <CNNaffinity_variance>
0.0992280468

$$$$



 32 34  0  0  0  0  0  0  0  0999 V2000
   45.8608   15.4736    2.7843 C   0  0  0  0  0  0  0  0  0  0  0  0
   45.0317   15.5014    1.6766 C   0  0  0  0  0  0  0  0  0  0  0  0
   45.1585   14.0382    0.7828 S   0  0  0  0  0  0  0  0  0  0  0  0
   46.1888   13.3140    1.9444 C   0  0  0  0  0  0  0  0  0  0  0  0
   46.4615   14.1929    2.9701 C   0  0  0  0  0  0  0  0  0  0  0  0
   47.4843   13.7568    4.5090 Br  0  0  0  0  0  0  0  0  0  0  0  0
   46.6368   11.9371    1.7327 C   0  0  0  0  0  0  0  0  0  0  0  0
   47.7533   11.4473    2.4155 C   0  0  0  0  0  0  0  0  0  0  0  0
   48.1565   10.1268    2.2337 C   0  0  0  0  0  0  0  0  0  0  0  0
   47.4549    9.2916    1.3587 C   0  0  0  0  0  0  0  0  0  0  0  0
   46.3586    9.7639    0.6287 C   0  0  0  0  0  0  0  0  0  0  0  0
   45.9426   11.0848    0.8588 C   0  0  0  0  0  0  0  0  0  0  0  0
   45.5785    8.9566   -0.2051 N   0  0  0  0  0  0  0  0  0  0  0  0
   45.9892    8.2058   -0.6919 H   0  0  0  0  0  0  0  0  0  0  0  0
   44.1561    9.2316   -0.3499 C   0  0  0  0  0  0  0  0  0  0  0  0
   43.7088    8.8157   -1.7332 C   0  0  0  0  0  0  0  0  0  0  0  0
   42.3860    8.4135   -1.9695 C   0  0  0  0  0  0  0  0  0  0  0  0
   41.9835    8.0199   -3.2481 C   0  0  0  0  0  0  0  0  0  0  0  0
   42.9037    8.0213   -4.2947 C   0  0  0  0  0  0  0  0  0  0  0  0
   42.3578    7.4871   -6.0240 Br  0  0  0  0  0  0  0  0  0  0  0  0
   44.2234    8.4092   -4.0754 C   0  0  0  0  0  0  0  0  0  0  0  0
   44.6246    8.8030   -2.7972 C   0  0  0  0  0  0  0  0  0  0  0  0
   44.1407   16.5227    1.1758 C   0  0  0  0  0  0  0  0  0  0  0  0
   43.2945   17.1584    1.7911 O   0  0  0  0  0  0  0  0  0  0  0  0
   44.3496   16.7970   -0.1313 O   0  0  0  0  0  0  0  0  0  0  0  0
   44.9943   16.3175   -0.6134 H   0  0  0  0  0  0  0  0  0  0  0  0
   45.9696   16.5335    3.6260 O   0  0  0  0  0  0  0  0  0  0  0  0
   47.2678   17.1186    3.6207 C   0  0  0  0  0  0  0  0  0  0  0  0
   48.9645   17.8878    5.2481 O   0  0  0  0  0  0  0  0  0  0  0  0
   47.8288   17.5387    4.9741 C   0  0  0  0  0  0  0  0  0  0  0  0
   46.8917   17.4792    5.9474 O   0  0  0  0  0  0  0  0  0  0  0  0
   46.0179   17.2114    5.7408 H   0  0  0  0  0  0  0  0  0  0  0  0
 29 30  2  0
 30 31  1  0
 30 28  1  0
 28 27  1  0
 27  1  1  0
  1  2  2  0
  2 23  1  0
 23 24  2  0
 23 25  1  0
  2  3  1  0
  3  4  1  0
  4  7  1  0
  7  8  2  0
  8  9  1  0
  9 10  2  0
 10 11  1  0
 11 13  1  0
 13 15  1  0
 15 16  1  0
 16 17  2  0
 17 18  1  0
 18 19  2  0
 19 20  1  0
 19 21  1  0
 21 22  2  0
 11 12  2  0
  4  5  2  0
  5  6  1  0
  5  1  1  0
 12  7  1  0
 22 16  1  0
 31 32  1  0
 25 26  1  0
 13 14  1  0
M  END
> <minimizedAffinity>
-7.94961

> <CNNscore>
0.7326614857

> <CNNaffinity>
6.1762504578

> <CNN_VS>
4.5251007080

> <CNNaffinity_variance>
0.0246848520

$$$$



 32 34  0  0  0  0  0  0  0  0999 V2000
   45.9552   14.3889    1.9948 C   0  0  0  0  0  0  0  0  0  0  0  0
   46.8174   14.0343    3.0176 C   0  0  0  0  0  0  0  0  0  0  0  0
   47.3083   12.3941    2.8607 S   0  0  0  0  0  0  0  0  0  0  0  0
   46.5046   12.2045    1.3596 C   0  0  0  0  0  0  0  0  0  0  0  0
   45.8406   13.3610    1.0121 C   0  0  0  0  0  0  0  0  0  0  0  0
   44.9054   13.6079   -0.6215 Br  0  0  0  0  0  0  0  0  0  0  0  0
   46.6031   10.9225    0.6607 C   0  0  0  0  0  0  0  0  0  0  0  0
   45.4654   10.1327    0.4754 C   0  0  0  0  0  0  0  0  0  0  0  0
   45.5594    8.9283   -0.2176 C   0  0  0  0  0  0  0  0  0  0  0  0
   46.7928    8.4995   -0.7179 C   0  0  0  0  0  0  0  0  0  0  0  0
   47.9577    9.2470   -0.5126 C   0  0  0  0  0  0  0  0  0  0  0  0
   47.8337   10.4781    0.1507 C   0  0  0  0  0  0  0  0  0  0  0  0
   49.2024    8.9031   -1.0492 N   0  0  0  0  0  0  0  0  0  0  0  0
   49.8930    8.4978   -0.4764 H   0  0  0  0  0  0  0  0  0  0  0  0
   49.4722    9.1471   -2.4590 C   0  0  0  0  0  0  0  0  0  0  0  0
   49.5071   10.6385   -2.7064 C   0  0  0  0  0  0  0  0  0  0  0  0
   48.5068   11.2642   -3.4650 C   0  0  0  0  0  0  0  0  0  0  0  0
   48.5524   12.6409   -3.6985 C   0  0  0  0  0  0  0  0  0  0  0  0
   49.6017   13.3968   -3.1792 C   0  0  0  0  0  0  0  0  0  0  0  0
   49.6626   15.2593   -3.4973 Br  0  0  0  0  0  0  0  0  0  0  0  0
   50.6079   12.7899   -2.4313 C   0  0  0  0  0  0  0  0  0  0  0  0
   50.5612   11.4140   -2.1980 C   0  0  0  0  0  0  0  0  0  0  0  0
   47.3240   14.7853    4.1433 C   0  0  0  0  0  0  0  0  0  0  0  0
   48.1154   15.7192    4.1370 O   0  0  0  0  0  0  0  0  0  0  0  0
   46.7823   14.3886    5.3166 O   0  0  0  0  0  0  0  0  0  0  0  0
   46.1752   13.6751    5.3349 H   0  0  0  0  0  0  0  0  0  0  0  0
   45.3953   15.6239    1.9240 O   0  0  0  0  0  0  0  0  0  0  0  0
   44.4152   15.8503    2.9320 C   0  0  0  0  0  0  0  0  0  0  0  0
   44.6821   17.1599    5.0134 O   0  0  0  0  0  0  0  0  0  0  0  0
   44.6062   17.0895    3.7985 C   0  0  0  0  0  0  0  0  0  0  0  0
   44.6798   18.2168    3.0550 O   0  0  0  0  0  0  0  0  0  0  0  0
   44.6219   18.1666    2.1211 H   0  0  0  0  0  0  0  0  0  0  0  0
 29 30  2  0
 30 31  1  0
 30 28  1  0
 28 27  1  0
 27  1  1  0
  1  2  2  0
  2 23  1  0
 23 24  2  0
 23 25  1  0
  2  3  1  0
  3  4  1  0
  4  7  1  0
  7  8  2  0
  8  9  1  0
  9 10  2  0
 10 11  1  0
 11 13  1  0
 13 15  1  0
 15 16  1  0
 16 17  2  0
 17 18  1  0
 18 19  2  0
 19 20  1  0
 19 21  1  0
 21 22  2  0
 11 12  2  0
  4  5  2  0
  5  6  1  0
  5  1  1  0
 12  7  1  0
 22 16  1  0
 31 32  1  0
 25 26  1  0
 13 14  1  0
M  END
> <minimizedAffinity>
-5.94392

> <CNNscore>
0.7092441320

> <CNNaffinity>
6.2487959862

> <CNN_VS>
4.4319219589

> <CNNaffinity_variance>
0.0812969059

$$$$
