


 20 21  0  0  0  0  0  0  0  0999 V2000
    4.1785  -21.6289   27.9934 C   0  0  0  0  0  0  0  0  0  0  0  0
    5.6648  -21.6517   28.4609 C   0  0  0  0  0  0  0  0  0  0  0  0
    6.0656  -23.0792   28.9163 C   0  0  0  0  0  0  0  0  0  0  0  0
    5.8686  -24.1238   27.7786 C   0  0  0  0  0  0  0  0  0  0  0  0
    4.9519  -23.6685   26.7340 N   0  0  0  0  0  0  0  0  0  0  0  0
    4.4323  -24.7177   25.8636 C   0  0  0  0  0  0  0  0  0  0  0  0
    3.1869  -24.0851   25.2339 C   0  0  0  0  0  0  0  0  0  0  0  0
    3.0364  -22.7335   25.9363 C   0  0  0  0  0  0  0  0  0  0  0  0
    3.6574  -21.7267   25.1316 O   0  0  0  0  0  0  0  0  0  0  0  0
    3.7945  -22.9356   27.2552 C   0  0  0  0  0  0  0  0  0  0  0  0
    4.5813  -21.9706   24.9645 H   0  0  0  0  0  0  0  0  0  0  0  0
    5.3365  -23.4488   30.1366 N   0  0  0  0  0  0  0  0  0  0  0  0
    5.9799  -23.7887   31.3001 C   0  0  0  0  0  0  0  0  0  0  0  0
    5.0585  -24.1902   32.4197 C   0  0  0  0  0  0  0  0  0  0  0  0
    7.1998  -23.7905   31.4250 O   0  0  0  0  0  0  0  0  0  0  0  0
    4.3522  -23.4529   30.1192 H   0  0  0  0  0  0  0  0  0  0  0  0
    1.9771  -21.5817   28.9292 C   0  0  0  0  0  0  0  0  0  0  0  0
    3.3739  -21.5167   29.1972 O   0  0  0  0  0  0  0  0  0  0  0  0
    6.5704  -21.2183   27.4299 O   0  0  0  0  0  0  0  0  0  0  0  0
    7.8417  -20.8237   27.9276 C   0  0  0  0  0  0  0  0  0  0  0  0
 17 18  1  0
  1 18  1  0
  1  2  1  0
  2 19  1  0
 19 20  1  0
  2  3  1  0
  3 12  1  0
 12 13  1  0
 13 14  1  0
 13 15  2  0
  3  4  1  0
  4  5  1  0
  5  6  1  0
  6  7  1  0
  7  8  1  0
  8  9  1  0
  8 10  1  0
 10  1  1  0
 10  5  1  0
 12 16  1  0
  9 11  1  0
M  END
> <minimizedAffinity>
-4.18693

> <CNNscore>
0.6678779721

> <CNNaffinity>
3.2853221893

> <CNN_VS>
2.1941943169

> <CNNaffinity_variance>
0.8663148284

$$$$



 20 21  0  0  0  0  0  0  0  0999 V2000
    3.7885  -25.2710   37.7040 C   0  0  0  0  0  0  0  0  0  0  0  0
    2.8174  -24.1411   37.2472 C   0  0  0  0  0  0  0  0  0  0  0  0
    1.3610  -24.6714   37.1903 C   0  0  0  0  0  0  0  0  0  0  0  0
    0.8943  -25.2238   38.5691 C   0  0  0  0  0  0  0  0  0  0  0  0
    2.0055  -25.5560   39.4601 N   0  0  0  0  0  0  0  0  0  0  0  0
    1.6624  -26.4185   40.5856 C   0  0  0  0  0  0  0  0  0  0  0  0
    3.0123  -26.9894   41.0320 C   0  0  0  0  0  0  0  0  0  0  0  0
    4.0150  -26.4826   39.9923 C   0  0  0  0  0  0  0  0  0  0  0  0
    4.6288  -25.2901   40.4904 O   0  0  0  0  0  0  0  0  0  0  0  0
    3.1355  -26.1854   38.7704 C   0  0  0  0  0  0  0  0  0  0  0  0
    3.9426  -24.6404   40.7092 H   0  0  0  0  0  0  0  0  0  0  0  0
    1.2228  -25.6689   36.1211 N   0  0  0  0  0  0  0  0  0  0  0  0
    0.7689  -25.3421   34.8680 C   0  0  0  0  0  0  0  0  0  0  0  0
    0.6448  -26.5134   33.9321 C   0  0  0  0  0  0  0  0  0  0  0  0
    0.4663  -24.2021   34.5322 O   0  0  0  0  0  0  0  0  0  0  0  0
    1.4641  -26.6045   36.3101 H   0  0  0  0  0  0  0  0  0  0  0  0
    4.8397  -25.3452   35.5560 C   0  0  0  0  0  0  0  0  0  0  0  0
    4.0780  -26.0627   36.5214 O   0  0  0  0  0  0  0  0  0  0  0  0
    2.8639  -22.9943   38.1154 O   0  0  0  0  0  0  0  0  0  0  0  0
    4.1821  -22.5149   38.3435 C   0  0  0  0  0  0  0  0  0  0  0  0
 17 18  1  0
  1 18  1  0
  1  2  1  0
  2 19  1  0
 19 20  1  0
  2  3  1  0
  3 12  1  0
 12 13  1  0
 13 14  1  0
 13 15  2  0
  3  4  1  0
  4  5  1  0
  5  6  1  0
  6  7  1  0
  7  8  1  0
  8  9  1  0
  8 10  1  0
 10  1  1  0
 10  5  1  0
 12 16  1  0
  9 11  1  0
M  END
> <minimizedAffinity>
-3.96522

> <CNNscore>
0.5127747059

> <CNNaffinity>
3.7939271927

> <CNN_VS>
1.9454299212

> <CNNaffinity_variance>
0.1572329998

$$$$



 20 21  0  0  0  0  0  0  0  0999 V2000
    9.9468  -26.0854   37.9730 C   0  0  0  0  0  0  0  0  0  0  0  0
   10.3289  -25.9366   39.4764 C   0  0  0  0  0  0  0  0  0  0  0  0
    9.5604  -26.9756   40.3341 C   0  0  0  0  0  0  0  0  0  0  0  0
    9.8519  -28.4334   39.8717 C   0  0  0  0  0  0  0  0  0  0  0  0
   10.3751  -28.5091   38.5081 N   0  0  0  0  0  0  0  0  0  0  0  0
   10.3041  -29.8279   37.8882 C   0  0  0  0  0  0  0  0  0  0  0  0
   10.4316  -29.5336   36.3899 C   0  0  0  0  0  0  0  0  0  0  0  0
   10.4269  -28.0062   36.2890 C   0  0  0  0  0  0  0  0  0  0  0  0
   11.7807  -27.5452   36.2477 O   0  0  0  0  0  0  0  0  0  0  0  0
    9.7312  -27.5697   37.5853 C   0  0  0  0  0  0  0  0  0  0  0  0
   12.2588  -27.8762   37.0240 H   0  0  0  0  0  0  0  0  0  0  0  0
    8.1230  -26.6740   40.3340 N   0  0  0  0  0  0  0  0  0  0  0  0
    7.3487  -26.7946   41.4605 C   0  0  0  0  0  0  0  0  0  0  0  0
    5.8908  -26.4943   41.2419 C   0  0  0  0  0  0  0  0  0  0  0  0
    7.7890  -27.1373   42.5526 O   0  0  0  0  0  0  0  0  0  0  0  0
    7.7002  -26.3749   39.4966 H   0  0  0  0  0  0  0  0  0  0  0  0
    8.6244  -24.6927   36.5461 C   0  0  0  0  0  0  0  0  0  0  0  0
    8.6960  -25.3686   37.7972 O   0  0  0  0  0  0  0  0  0  0  0  0
   11.7412  -26.0973   39.7014 O   0  0  0  0  0  0  0  0  0  0  0  0
   12.5418  -25.2899   38.8490 C   0  0  0  0  0  0  0  0  0  0  0  0
 17 18  1  0
  1 18  1  0
  1  2  1  0
  2 19  1  0
 19 20  1  0
  2  3  1  0
  3 12  1  0
 12 13  1  0
 13 14  1  0
 13 15  2  0
  3  4  1  0
  4  5  1  0
  5  6  1  0
  6  7  1  0
  7  8  1  0
  8  9  1  0
  8 10  1  0
 10  1  1  0
 10  5  1  0
 12 16  1  0
  9 11  1  0
M  END
> <minimizedAffinity>
-3.82783

> <CNNscore>
0.4242742658

> <CNNaffinity>
3.5505173206

> <CNN_VS>
1.5063930750

> <CNNaffinity_variance>
0.5617504716

$$$$



 20 21  0  0  0  0  0  0  0  0999 V2000
   -6.3617  -21.5807   44.6363 C   0  0  0  0  0  0  0  0  0  0  0  0
   -6.1280  -20.1828   45.2843 C   0  0  0  0  0  0  0  0  0  0  0  0
   -7.4493  -19.3709   45.3074 C   0  0  0  0  0  0  0  0  0  0  0  0
   -8.5713  -20.1176   46.0871 C   0  0  0  0  0  0  0  0  0  0  0  0
   -8.3207  -21.5524   46.2193 N   0  0  0  0  0  0  0  0  0  0  0  0
   -9.4830  -22.3545   46.5856 C   0  0  0  0  0  0  0  0  0  0  0  0
   -9.0865  -23.7775   46.1791 C   0  0  0  0  0  0  0  0  0  0  0  0
   -7.7391  -23.6212   45.4699 C   0  0  0  0  0  0  0  0  0  0  0  0
   -6.6925  -23.8599   46.4157 O   0  0  0  0  0  0  0  0  0  0  0  0
   -7.7499  -22.1566   45.0119 C   0  0  0  0  0  0  0  0  0  0  0  0
   -6.7984  -23.2626   47.1727 H   0  0  0  0  0  0  0  0  0  0  0  0
   -7.8620  -19.0290   43.9399 N   0  0  0  0  0  0  0  0  0  0  0  0
   -9.1319  -19.2654   43.4768 C   0  0  0  0  0  0  0  0  0  0  0  0
   -9.3405  -18.8971   42.0331 C   0  0  0  0  0  0  0  0  0  0  0  0
  -10.0238  -19.7540   44.1622 O   0  0  0  0  0  0  0  0  0  0  0  0
   -7.2047  -18.6158   43.3345 H   0  0  0  0  0  0  0  0  0  0  0  0
   -5.0016  -21.5474   42.6683 C   0  0  0  0  0  0  0  0  0  0  0  0
   -6.3117  -21.3775   43.1992 O   0  0  0  0  0  0  0  0  0  0  0  0
   -5.6149  -20.2793   46.6253 O   0  0  0  0  0  0  0  0  0  0  0  0
   -4.2162  -20.5255   46.6758 C   0  0  0  0  0  0  0  0  0  0  0  0
 17 18  1  0
  1 18  1  0
  1  2  1  0
  2 19  1  0
 19 20  1  0
  2  3  1  0
  3 12  1  0
 12 13  1  0
 13 14  1  0
 13 15  2  0
  3  4  1  0
  4  5  1  0
  5  6  1  0
  6  7  1  0
  7  8  1  0
  8  9  1  0
  8 10  1  0
 10  1  1  0
 10  5  1  0
 12 16  1  0
  9 11  1  0
M  END
> <minimizedAffinity>
-3.83553

> <CNNscore>
0.3752581775

> <CNNaffinity>
3.8064510822

> <CNN_VS>
1.4284019470

> <CNNaffinity_variance>
0.3744570315

$$$$



 20 21  0  0  0  0  0  0  0  0999 V2000
    0.3625  -29.0879   36.8792 C   0  0  0  0  0  0  0  0  0  0  0  0
   -0.5999  -28.2411   35.9931 C   0  0  0  0  0  0  0  0  0  0  0  0
    0.0146  -28.0217   34.5860 C   0  0  0  0  0  0  0  0  0  0  0  0
    0.3164  -29.3718   33.8717 C   0  0  0  0  0  0  0  0  0  0  0  0
    0.4055  -30.5022   34.7954 N   0  0  0  0  0  0  0  0  0  0  0  0
    1.0527  -31.6940   34.2575 C   0  0  0  0  0  0  0  0  0  0  0  0
    1.4478  -32.4891   35.5061 C   0  0  0  0  0  0  0  0  0  0  0  0
    1.0942  -31.5741   36.6813 C   0  0  0  0  0  0  0  0  0  0  0  0
   -0.2054  -31.9282   37.1634 O   0  0  0  0  0  0  0  0  0  0  0  0
    1.0898  -30.1755   36.0498 C   0  0  0  0  0  0  0  0  0  0  0  0
   -0.8445  -31.8806   36.4352 H   0  0  0  0  0  0  0  0  0  0  0  0
    1.2061  -27.1677   34.6773 N   0  0  0  0  0  0  0  0  0  0  0  0
    1.2035  -25.8593   34.2635 C   0  0  0  0  0  0  0  0  0  0  0  0
    2.5355  -25.1709   34.3868 C   0  0  0  0  0  0  0  0  0  0  0  0
    0.2146  -25.2932   33.8102 O   0  0  0  0  0  0  0  0  0  0  0  0
    2.0354  -27.5472   35.0483 H   0  0  0  0  0  0  0  0  0  0  0  0
    0.8082  -27.2904   38.3940 C   0  0  0  0  0  0  0  0  0  0  0  0
    1.3496  -28.1632   37.4079 O   0  0  0  0  0  0  0  0  0  0  0  0
   -1.8935  -28.8548   35.8479 O   0  0  0  0  0  0  0  0  0  0  0  0
   -1.9365  -29.8408   34.8254 C   0  0  0  0  0  0  0  0  0  0  0  0
 17 18  1  0
  1 18  1  0
  1  2  1  0
  2 19  1  0
 19 20  1  0
  2  3  1  0
  3 12  1  0
 12 13  1  0
 13 14  1  0
 13 15  2  0
  3  4  1  0
  4  5  1  0
  5  6  1  0
  6  7  1  0
  7  8  1  0
  8  9  1  0
  8 10  1  0
 10  1  1  0
 10  5  1  0
 12 16  1  0
  9 11  1  0
M  END
> <minimizedAffinity>
-6.15336

> <CNNscore>
0.3695510030

> <CNNaffinity>
5.0735335350

> <CNN_VS>
1.8749294281

> <CNNaffinity_variance>
0.0503867008

$$$$



 20 21  0  0  0  0  0  0  0  0999 V2000
    4.6102  -21.9403   25.7915 C   0  0  0  0  0  0  0  0  0  0  0  0
    5.5177  -23.0260   26.4441 C   0  0  0  0  0  0  0  0  0  0  0  0
    5.7724  -22.6907   27.9369 C   0  0  0  0  0  0  0  0  0  0  0  0
    4.4421  -22.5831   28.7387 C   0  0  0  0  0  0  0  0  0  0  0  0
    3.2753  -22.3562   27.8867 N   0  0  0  0  0  0  0  0  0  0  0  0
    2.0865  -21.8699   28.5786 C   0  0  0  0  0  0  0  0  0  0  0  0
    1.2333  -21.2675   27.4575 C   0  0  0  0  0  0  0  0  0  0  0  0
    2.1129  -21.3515   26.2076 C   0  0  0  0  0  0  0  0  0  0  0  0
    1.7789  -22.5439   25.4909 O   0  0  0  0  0  0  0  0  0  0  0  0
    3.5341  -21.4287   26.7815 C   0  0  0  0  0  0  0  0  0  0  0  0
    1.8728  -23.3107   26.0775 H   0  0  0  0  0  0  0  0  0  0  0  0
    6.5871  -21.4742   28.0546 N   0  0  0  0  0  0  0  0  0  0  0  0
    7.4569  -21.2727   29.0967 C   0  0  0  0  0  0  0  0  0  0  0  0
    8.1564  -19.9410   29.0674 C   0  0  0  0  0  0  0  0  0  0  0  0
    7.6424  -22.0890   29.9929 O   0  0  0  0  0  0  0  0  0  0  0  0
    6.5064  -20.7794   27.3618 H   0  0  0  0  0  0  0  0  0  0  0  0
    6.3997  -21.1738   24.4007 C   0  0  0  0  0  0  0  0  0  0  0  0
    5.4849  -20.8362   25.4382 O   0  0  0  0  0  0  0  0  0  0  0  0
    4.9480  -24.3444   26.3516 O   0  0  0  0  0  0  0  0  0  0  0  0
    4.3676  -24.6183   25.0837 C   0  0  0  0  0  0  0  0  0  0  0  0
 17 18  1  0
  1 18  1  0
  1  2  1  0
  2 19  1  0
 19 20  1  0
  2  3  1  0
  3 12  1  0
 12 13  1  0
 13 14  1  0
 13 15  2  0
  3  4  1  0
  4  5  1  0
  5  6  1  0
  6  7  1  0
  7  8  1  0
  8  9  1  0
  8 10  1  0
 10  1  1  0
 10  5  1  0
 12 16  1  0
  9 11  1  0
M  END
> <minimizedAffinity>
-3.83117

> <CNNscore>
0.3399139047

> <CNNaffinity>
3.0692212582

> <CNN_VS>
1.0432709455

> <CNNaffinity_variance>
0.4823839962

$$$$



 20 21  0  0  0  0  0  0  0  0999 V2000
   -0.1328  -27.5705   34.9497 C   0  0  0  0  0  0  0  0  0  0  0  0
   -0.7276  -29.0108   34.9529 C   0  0  0  0  0  0  0  0  0  0  0  0
    0.3119  -30.0229   35.5013 C   0  0  0  0  0  0  0  0  0  0  0  0
    0.7716  -29.6535   36.9423 C   0  0  0  0  0  0  0  0  0  0  0  0
    0.5161  -28.2550   37.2852 N   0  0  0  0  0  0  0  0  0  0  0  0
    1.2530  -27.7546   38.4407 C   0  0  0  0  0  0  0  0  0  0  0  0
    1.1969  -26.2322   38.2772 C   0  0  0  0  0  0  0  0  0  0  0  0
    0.5239  -26.0084   36.9207 C   0  0  0  0  0  0  0  0  0  0  0  0
   -0.8747  -25.7940   37.1325 O   0  0  0  0  0  0  0  0  0  0  0  0
    0.7771  -27.3283   36.1799 C   0  0  0  0  0  0  0  0  0  0  0  0
   -1.2456  -26.5428   37.6252 H   0  0  0  0  0  0  0  0  0  0  0  0
    1.4452  -30.1427   34.5746 N   0  0  0  0  0  0  0  0  0  0  0  0
    1.4809  -31.0859   33.5785 C   0  0  0  0  0  0  0  0  0  0  0  0
    2.7511  -31.0837   32.7723 C   0  0  0  0  0  0  0  0  0  0  0  0
    0.5730  -31.8823   33.3657 O   0  0  0  0  0  0  0  0  0  0  0  0
    2.2056  -29.5249   34.6715 H   0  0  0  0  0  0  0  0  0  0  0  0
    1.3199  -26.2017   33.6305 C   0  0  0  0  0  0  0  0  0  0  0  0
    0.6703  -27.4635   33.7444 O   0  0  0  0  0  0  0  0  0  0  0  0
   -1.9307  -29.1051   35.7369 O   0  0  0  0  0  0  0  0  0  0  0  0
   -2.4781  -30.4161   35.7712 C   0  0  0  0  0  0  0  0  0  0  0  0
 17 18  1  0
  1 18  1  0
  1  2  1  0
  2 19  1  0
 19 20  1  0
  2  3  1  0
  3 12  1  0
 12 13  1  0
 13 14  1  0
 13 15  2  0
  3  4  1  0
  4  5  1  0
  5  6  1  0
  6  7  1  0
  7  8  1  0
  8  9  1  0
  8 10  1  0
 10  1  1  0
 10  5  1  0
 12 16  1  0
  9 11  1  0
M  END
> <minimizedAffinity>
-5.61640

> <CNNscore>
0.3397850096

> <CNNaffinity>
4.9977278709

> <CNN_VS>
1.6981530190

> <CNNaffinity_variance>
0.1399014890

$$$$



 20 21  0  0  0  0  0  0  0  0999 V2000
    1.7711  -26.1025   36.2285 C   0  0  0  0  0  0  0  0  0  0  0  0
    0.3118  -26.1513   36.7730 C   0  0  0  0  0  0  0  0  0  0  0  0
    0.1452  -27.3312   37.7658 C   0  0  0  0  0  0  0  0  0  0  0  0
    1.1366  -27.2230   38.9615 C   0  0  0  0  0  0  0  0  0  0  0  0
    2.2791  -26.3536   38.6827 N   0  0  0  0  0  0  0  0  0  0  0  0
    3.4134  -26.5099   39.5867 C   0  0  0  0  0  0  0  0  0  0  0  0
    4.5840  -25.8956   38.8122 C   0  0  0  0  0  0  0  0  0  0  0  0
    4.0081  -25.5581   37.4347 C   0  0  0  0  0  0  0  0  0  0  0  0
    3.6020  -24.1862   37.4311 O   0  0  0  0  0  0  0  0  0  0  0  0
    2.7985  -26.4953   37.3193 C   0  0  0  0  0  0  0  0  0  0  0  0
    2.9761  -24.0324   38.1560 H   0  0  0  0  0  0  0  0  0  0  0  0
    0.2705  -28.6132   37.0599 N   0  0  0  0  0  0  0  0  0  0  0  0
   -0.7404  -29.1257   36.2862 C   0  0  0  0  0  0  0  0  0  0  0  0
   -0.4398  -30.4753   35.6934 C   0  0  0  0  0  0  0  0  0  0  0  0
   -1.8099  -28.5545   36.1023 O   0  0  0  0  0  0  0  0  0  0  0  0
    1.1087  -29.1225   37.1449 H   0  0  0  0  0  0  0  0  0  0  0  0
    1.0161  -26.7183   34.0433 C   0  0  0  0  0  0  0  0  0  0  0  0
    1.8370  -27.0739   35.1509 O   0  0  0  0  0  0  0  0  0  0  0  0
   -0.0687  -24.9293   37.4310 O   0  0  0  0  0  0  0  0  0  0  0  0
    0.1373  -23.7725   36.6317 C   0  0  0  0  0  0  0  0  0  0  0  0
 17 18  1  0
  1 18  1  0
  1  2  1  0
  2 19  1  0
 19 20  1  0
  2  3  1  0
  3 12  1  0
 12 13  1  0
 13 14  1  0
 13 15  2  0
  3  4  1  0
  4  5  1  0
  5  6  1  0
  6  7  1  0
  7  8  1  0
  8  9  1  0
  8 10  1  0
 10  1  1  0
 10  5  1  0
 12 16  1  0
  9 11  1  0
M  END
> <minimizedAffinity>
-5.20307

> <CNNscore>
0.3124408126

> <CNNaffinity>
3.4944527149

> <CNN_VS>
1.0918096304

> <CNNaffinity_variance>
0.9469046593

$$$$



 20 21  0  0  0  0  0  0  0  0999 V2000
    0.8617  -25.4666   39.4029 C   0  0  0  0  0  0  0  0  0  0  0  0
    1.9865  -24.3948   39.2820 C   0  0  0  0  0  0  0  0  0  0  0  0
    3.3482  -25.0731   38.9798 C   0  0  0  0  0  0  0  0  0  0  0  0
    3.2958  -25.9132   37.6699 C   0  0  0  0  0  0  0  0  0  0  0  0
    1.9344  -26.2665   37.2690 N   0  0  0  0  0  0  0  0  0  0  0  0
    1.8350  -27.3499   36.2969 C   0  0  0  0  0  0  0  0  0  0  0  0
    0.3861  -27.8293   36.4327 C   0  0  0  0  0  0  0  0  0  0  0  0
   -0.1819  -27.0317   37.6092 C   0  0  0  0  0  0  0  0  0  0  0  0
   -0.8652  -25.8835   37.0976 O   0  0  0  0  0  0  0  0  0  0  0  0
    1.0709  -26.6264   38.3974 C   0  0  0  0  0  0  0  0  0  0  0  0
   -0.2599  -25.3680   36.5420 H   0  0  0  0  0  0  0  0  0  0  0  0
    3.7860  -25.8734   40.1310 N   0  0  0  0  0  0  0  0  0  0  0  0
    5.1119  -26.0705   40.4249 C   0  0  0  0  0  0  0  0  0  0  0  0
    5.3546  -26.9654   41.6096 C   0  0  0  0  0  0  0  0  0  0  0  0
    6.0304  -25.5834   39.7745 O   0  0  0  0  0  0  0  0  0  0  0  0
    3.1046  -26.2827   40.7119 H   0  0  0  0  0  0  0  0  0  0  0  0
    0.6329  -25.0210   41.7424 C   0  0  0  0  0  0  0  0  0  0  0  0
    0.9459  -25.9956   40.7528 O   0  0  0  0  0  0  0  0  0  0  0  0
    1.7101  -23.4237   38.2565 O   0  0  0  0  0  0  0  0  0  0  0  0
    1.3888  -22.1386   38.7711 C   0  0  0  0  0  0  0  0  0  0  0  0
 17 18  1  0
  1 18  1  0
  1  2  1  0
  2 19  1  0
 19 20  1  0
  2  3  1  0
  3 12  1  0
 12 13  1  0
 13 14  1  0
 13 15  2  0
  3  4  1  0
  4  5  1  0
  5  6  1  0
  6  7  1  0
  7  8  1  0
  8  9  1  0
  8 10  1  0
 10  1  1  0
 10  5  1  0
 12 16  1  0
  9 11  1  0
M  END
> <minimizedAffinity>
-4.37570

> <CNNscore>
0.2824536562

> <CNNaffinity>
3.5111961365

> <CNN_VS>
0.9917501807

> <CNNaffinity_variance>
0.4815129340

$$$$
