


 34 34  0  0  0  0  0  0  0  0999 V2000
   -0.4998   34.8982   98.8056 C   0  0  0  0  0  0  0  0  0  0  0  0
    0.8792   34.7247   99.2638 N   0  0  0  0  0  0  0  0  0  0  0  0
    1.4011   35.5867   99.1057 H   0  0  0  0  0  0  0  0  0  0  0  0
    1.3164   33.9627   98.7455 H   0  0  0  0  0  0  0  0  0  0  0  0
   -0.5547   35.2161   97.2887 C   0  0  0  0  0  0  0  0  0  0  0  0
   -1.2646   34.2276   96.3198 C   0  0  0  0  0  0  0  0  0  0  0  0
   -2.0587   35.0193   95.2471 C   0  0  0  0  0  0  0  0  0  0  0  0
   -2.2753   33.3197   97.0487 C   0  0  0  0  0  0  0  0  0  0  0  0
   -0.2263   33.3567   95.5118 C   0  0  0  0  0  0  0  0  0  0  0  0
   -0.3997   31.8446   95.1735 C   0  0  0  0  0  0  0  0  0  0  0  0
   -0.4796   30.9894   96.4683 C   0  0  0  0  0  0  0  0  0  0  0  0
   -1.6732   31.5469   94.3643 C   0  0  0  0  0  0  0  0  0  0  0  0
    0.8721   31.2877   94.4136 C   0  0  0  0  0  0  0  0  0  0  0  0
   -0.1052   28.9120   94.3153 C   0  0  0  0  0  0  0  0  0  0  0  0
    0.9502   29.8790   93.7381 C   0  0  0  0  0  0  0  0  0  0  0  0
    0.5903   30.0719   92.2416 C   0  0  0  0  0  0  0  0  0  0  0  0
    2.3358   29.2244   93.7901 C   0  0  0  0  0  0  0  0  0  0  0  0
   -1.1895   36.0541   99.5868 C   0  0  0  0  0  0  0  0  0  0  0  0
   -2.6564   35.8253   99.9287 C   0  0  0  0  0  0  0  0  0  0  0  0
   -3.6114   36.0218   98.9031 C   0  0  0  0  0  0  0  0  0  0  0  0
   -4.9785   35.8461   99.1297 C   0  0  0  0  0  0  0  0  0  0  0  0
   -6.0650   36.1293   97.8228 Cl  0  0  0  0  0  0  0  0  0  0  0  0
   -5.3914   35.4766  100.4005 C   0  0  0  0  0  0  0  0  0  0  0  0
   -4.4814   35.2955  101.4463 C   0  0  0  0  0  0  0  0  0  0  0  0
   -3.1022   35.4751  101.2255 C   0  0  0  0  0  0  0  0  0  0  0  0
   -6.7900   35.2828  100.6829 N   0  0  0  0  0  0  0  0  0  0  0  0
   -7.3137   36.0617  101.4909 O   0  0  0  0  0  0  0  0  0  0  0  0
   -7.3655   34.3790  100.0631 O   0  0  0  0  0  0  0  0  0  0  0  0
   -2.1739   35.2938  102.4125 C   0  0  0  0  0  0  0  0  0  0  0  0
   -2.4529   34.0521  103.2570 C   0  0  0  0  0  0  0  0  0  0  0  0
   -3.0809   34.3379  104.5948 C   0  0  0  0  0  0  0  0  0  0  0  0
   -3.9343   33.6581  105.1429 O   0  0  0  0  0  0  0  0  0  0  0  0
   -2.5541   35.3998  105.2321 O   0  0  0  0  0  0  0  0  0  0  0  0
   -1.8992   35.9213  104.8112 H   0  0  0  0  0  0  0  0  0  0  0  0
 14 15  1  0
 15 16  1  0
 15 17  1  0
 15 13  1  0
 13 10  1  0
 10 11  1  0
 10 12  1  0
 10  9  1  0
  9  6  1  0
  6  7  1  0
  6  8  1  0
  6  5  1  0
  5  1  1  0
  1  2  1  0
  1 18  1  0
 18 19  1  0
 19 20  2  0
 20 21  1  0
 21 22  1  0
 21 23  2  0
 23 26  1  0
 26 27  2  0
 26 28  1  0
 23 24  1  0
 24 25  2  0
 25 29  1  0
 29 30  1  0
 30 31  1  0
 31 32  2  0
 31 33  1  0
 25 19  1  0
  2  3  1  0
  2  4  1  0
 33 34  1  0
M  CHG 1  26   1
M  CHG 1  28  -1
M  END
> <minimizedAffinity>
-8.49916

> <CNNscore>
0.5969465971

> <CNNaffinity>
6.6250686646

> <CNN_VS>
3.9548122883

> <CNNaffinity_variance>
0.2267740220

$$$$



 34 34  0  0  0  0  0  0  0  0999 V2000
   -0.8427   34.5745   98.1396 C   0  0  0  0  0  0  0  0  0  0  0  0
    0.5747   34.3327   98.4123 N   0  0  0  0  0  0  0  0  0  0  0  0
    1.1155   35.1598   98.1595 H   0  0  0  0  0  0  0  0  0  0  0  0
    0.8955   33.5356   97.8626 H   0  0  0  0  0  0  0  0  0  0  0  0
   -1.0871   34.8612   96.6352 C   0  0  0  0  0  0  0  0  0  0  0  0
   -1.8649   33.8281   95.7706 C   0  0  0  0  0  0  0  0  0  0  0  0
   -2.4442   32.7106   96.6781 C   0  0  0  0  0  0  0  0  0  0  0  0
   -0.9602   33.1386   94.7298 C   0  0  0  0  0  0  0  0  0  0  0  0
   -3.1152   34.4824   95.0649 C   0  0  0  0  0  0  0  0  0  0  0  0
   -3.4620   34.3423   93.5513 C   0  0  0  0  0  0  0  0  0  0  0  0
   -2.3629   34.9912   92.6653 C   0  0  0  0  0  0  0  0  0  0  0  0
   -3.5970   32.8804   93.0934 C   0  0  0  0  0  0  0  0  0  0  0  0
   -4.7774   35.1484   93.1976 C   0  0  0  0  0  0  0  0  0  0  0  0
   -4.3035   36.8185   95.0935 C   0  0  0  0  0  0  0  0  0  0  0  0
   -5.2032   36.4880   93.8838 C   0  0  0  0  0  0  0  0  0  0  0  0
   -4.9744   37.6214   92.8497 C   0  0  0  0  0  0  0  0  0  0  0  0
   -6.6769   36.5478   94.3029 C   0  0  0  0  0  0  0  0  0  0  0  0
   -1.3564   35.7849   98.9721 C   0  0  0  0  0  0  0  0  0  0  0  0
   -2.7741   35.6491   99.5131 C   0  0  0  0  0  0  0  0  0  0  0  0
   -3.8411   35.6848   98.5843 C   0  0  0  0  0  0  0  0  0  0  0  0
   -5.1729   35.5793   98.9919 C   0  0  0  0  0  0  0  0  0  0  0  0
   -6.4030   35.6541   97.7877 Cl  0  0  0  0  0  0  0  0  0  0  0  0
   -5.4365   35.4440  100.3463 C   0  0  0  0  0  0  0  0  0  0  0  0
   -4.4118   35.4281  101.2973 C   0  0  0  0  0  0  0  0  0  0  0  0
   -3.0673   35.5382  100.8933 C   0  0  0  0  0  0  0  0  0  0  0  0
   -6.7932   35.3310  100.8153 N   0  0  0  0  0  0  0  0  0  0  0  0
   -7.4590   34.3791  100.3861 O   0  0  0  0  0  0  0  0  0  0  0  0
   -7.1707   36.1713  101.6421 O   0  0  0  0  0  0  0  0  0  0  0  0
   -2.0082   35.5460  101.9804 C   0  0  0  0  0  0  0  0  0  0  0  0
   -0.9535   36.6413  101.8359 C   0  0  0  0  0  0  0  0  0  0  0  0
   -1.0607   37.7459  102.8528 C   0  0  0  0  0  0  0  0  0  0  0  0
   -0.1464   38.1770  103.5378 O   0  0  0  0  0  0  0  0  0  0  0  0
   -2.2732   38.3275  102.9050 O   0  0  0  0  0  0  0  0  0  0  0  0
   -2.9746   37.9964  102.3792 H   0  0  0  0  0  0  0  0  0  0  0  0
 14 15  1  0
 15 16  1  0
 15 17  1  0
 15 13  1  0
 13 10  1  0
 10 11  1  0
 10 12  1  0
 10  9  1  0
  9  6  1  0
  6  7  1  0
  6  8  1  0
  6  5  1  0
  5  1  1  0
  1  2  1  0
  1 18  1  0
 18 19  1  0
 19 20  2  0
 20 21  1  0
 21 22  1  0
 21 23  2  0
 23 26  1  0
 26 27  2  0
 26 28  1  0
 23 24  1  0
 24 25  2  0
 25 29  1  0
 29 30  1  0
 30 31  1  0
 31 32  2  0
 31 33  1  0
 25 19  1  0
  2  3  1  0
  2  4  1  0
 33 34  1  0
M  CHG 1  26   1
M  CHG 1  28  -1
M  END
> <minimizedAffinity>
-8.00848

> <CNNscore>
0.4151781499

> <CNNaffinity>
6.6606688499

> <CNN_VS>
2.7653641701

> <CNNaffinity_variance>
0.1675045341

$$$$



 34 34  0  0  0  0  0  0  0  0999 V2000
   -1.4865   34.4303   98.6648 C   0  0  0  0  0  0  0  0  0  0  0  0
   -0.0495   34.3439   98.9282 N   0  0  0  0  0  0  0  0  0  0  0  0
    0.3928   35.2332   98.6960 H   0  0  0  0  0  0  0  0  0  0  0  0
    0.3569   33.6028   98.3573 H   0  0  0  0  0  0  0  0  0  0  0  0
   -1.7693   34.7260   97.1689 C   0  0  0  0  0  0  0  0  0  0  0  0
   -3.0374   34.1309   96.4925 C   0  0  0  0  0  0  0  0  0  0  0  0
   -3.4506   35.0090   95.2816 C   0  0  0  0  0  0  0  0  0  0  0  0
   -4.2449   34.0886   97.4503 C   0  0  0  0  0  0  0  0  0  0  0  0
   -2.7604   32.6978   95.8934 C   0  0  0  0  0  0  0  0  0  0  0  0
   -1.3499   32.1322   95.5448 C   0  0  0  0  0  0  0  0  0  0  0  0
   -0.3790   33.2722   95.1303 C   0  0  0  0  0  0  0  0  0  0  0  0
   -0.6885   31.3889   96.7175 C   0  0  0  0  0  0  0  0  0  0  0  0
   -1.4179   31.1931   94.2726 C   0  0  0  0  0  0  0  0  0  0  0  0
    1.0662   30.5387   94.3703 C   0  0  0  0  0  0  0  0  0  0  0  0
   -0.3455   30.1120   93.9150 C   0  0  0  0  0  0  0  0  0  0  0  0
   -0.6968   28.8374   94.7263 C   0  0  0  0  0  0  0  0  0  0  0  0
   -0.3136   29.7126   92.4350 C   0  0  0  0  0  0  0  0  0  0  0  0
   -2.1300   35.5529   99.5296 C   0  0  0  0  0  0  0  0  0  0  0  0
   -1.2300   36.1403  100.6095 C   0  0  0  0  0  0  0  0  0  0  0  0
   -0.3503   37.1849  100.2391 C   0  0  0  0  0  0  0  0  0  0  0  0
    0.5183   37.7744  101.1605 C   0  0  0  0  0  0  0  0  0  0  0  0
    1.5664   39.0257  100.6087 Cl  0  0  0  0  0  0  0  0  0  0  0  0
    0.5087   37.3055  102.4652 C   0  0  0  0  0  0  0  0  0  0  0  0
   -0.3286   36.2597  102.8650 C   0  0  0  0  0  0  0  0  0  0  0  0
   -1.2037   35.6583  101.9400 C   0  0  0  0  0  0  0  0  0  0  0  0
    1.3854   37.8818  103.4514 N   0  0  0  0  0  0  0  0  0  0  0  0
    2.4497   37.2886  103.6728 O   0  0  0  0  0  0  0  0  0  0  0  0
    1.0225   38.9465  103.9679 O   0  0  0  0  0  0  0  0  0  0  0  0
   -2.0612   34.5075  102.4337 C   0  0  0  0  0  0  0  0  0  0  0  0
   -2.4980   34.6176  103.8932 C   0  0  0  0  0  0  0  0  0  0  0  0
   -3.8587   34.0415  104.1803 C   0  0  0  0  0  0  0  0  0  0  0  0
   -4.8992   34.3558  103.6238 O   0  0  0  0  0  0  0  0  0  0  0  0
   -3.8510   33.0370  105.0760 O   0  0  0  0  0  0  0  0  0  0  0  0
   -3.0525   32.7961  105.5028 H   0  0  0  0  0  0  0  0  0  0  0  0
 14 15  1  0
 15 16  1  0
 15 17  1  0
 15 13  1  0
 13 10  1  0
 10 11  1  0
 10 12  1  0
 10  9  1  0
  9  6  1  0
  6  7  1  0
  6  8  1  0
  6  5  1  0
  5  1  1  0
  1  2  1  0
  1 18  1  0
 18 19  1  0
 19 20  2  0
 20 21  1  0
 21 22  1  0
 21 23  2  0
 23 26  1  0
 26 27  2  0
 26 28  1  0
 23 24  1  0
 24 25  2  0
 25 29  1  0
 29 30  1  0
 30 31  1  0
 31 32  2  0
 31 33  1  0
 25 19  1  0
  2  3  1  0
  2  4  1  0
 33 34  1  0
M  CHG 1  26   1
M  CHG 1  28  -1
M  END
> <minimizedAffinity>
-7.46336

> <CNNscore>
0.3091911674

> <CNNaffinity>
6.4478378296

> <CNN_VS>
1.9936145544

> <CNNaffinity_variance>
0.1713526249

$$$$



 34 34  0  0  0  0  0  0  0  0999 V2000
   -0.9370   34.4763   98.4392 C   0  0  0  0  0  0  0  0  0  0  0  0
    0.4380   34.4397   97.9394 N   0  0  0  0  0  0  0  0  0  0  0  0
    0.7169   35.3748   97.6425 H   0  0  0  0  0  0  0  0  0  0  0  0
    0.4948   33.8002   97.1468 H   0  0  0  0  0  0  0  0  0  0  0  0
   -1.9255   34.9403   97.3381 C   0  0  0  0  0  0  0  0  0  0  0  0
   -2.9575   33.9328   96.7552 C   0  0  0  0  0  0  0  0  0  0  0  0
   -2.3054   32.5317   96.6149 C   0  0  0  0  0  0  0  0  0  0  0  0
   -3.4467   34.3438   95.3520 C   0  0  0  0  0  0  0  0  0  0  0  0
   -4.1837   33.7268   97.7265 C   0  0  0  0  0  0  0  0  0  0  0  0
   -4.9854   34.8762   98.4100 C   0  0  0  0  0  0  0  0  0  0  0  0
   -4.3563   35.2570   99.7788 C   0  0  0  0  0  0  0  0  0  0  0  0
   -5.0350   36.1633   97.5696 C   0  0  0  0  0  0  0  0  0  0  0  0
   -6.4521   34.4033   98.7706 C   0  0  0  0  0  0  0  0  0  0  0  0
   -8.9078   33.9749   98.1425 C   0  0  0  0  0  0  0  0  0  0  0  0
   -7.7524   34.9982   98.1364 C   0  0  0  0  0  0  0  0  0  0  0  0
   -8.2058   36.1709   99.0450 C   0  0  0  0  0  0  0  0  0  0  0  0
   -7.5695   35.5644   96.7233 C   0  0  0  0  0  0  0  0  0  0  0  0
   -1.0471   35.4434   99.6536 C   0  0  0  0  0  0  0  0  0  0  0  0
   -0.1597   35.0993  100.8432 C   0  0  0  0  0  0  0  0  0  0  0  0
    1.2407   35.0871  100.6401 C   0  0  0  0  0  0  0  0  0  0  0  0
    2.1291   34.7716  101.6707 C   0  0  0  0  0  0  0  0  0  0  0  0
    3.8160   34.7635  101.3197 Cl  0  0  0  0  0  0  0  0  0  0  0  0
    1.6061   34.4580  102.9158 C   0  0  0  0  0  0  0  0  0  0  0  0
    0.2281   34.4362  103.1506 C   0  0  0  0  0  0  0  0  0  0  0  0
   -0.6732   34.7492  102.1148 C   0  0  0  0  0  0  0  0  0  0  0  0
    2.4816   34.1267  104.0098 N   0  0  0  0  0  0  0  0  0  0  0  0
    2.8403   32.9452  104.1049 O   0  0  0  0  0  0  0  0  0  0  0  0
    2.8384   35.0586  104.7423 O   0  0  0  0  0  0  0  0  0  0  0  0
   -2.1558   34.6747  102.4306 C   0  0  0  0  0  0  0  0  0  0  0  0
   -2.4829   34.2668  103.8657 C   0  0  0  0  0  0  0  0  0  0  0  0
   -3.9392   33.9778  104.1137 C   0  0  0  0  0  0  0  0  0  0  0  0
   -4.3930   33.3622  105.0655 O   0  0  0  0  0  0  0  0  0  0  0  0
   -4.7706   34.5461  103.2210 O   0  0  0  0  0  0  0  0  0  0  0  0
   -4.4220   35.0184  102.4906 H   0  0  0  0  0  0  0  0  0  0  0  0
 14 15  1  0
 15 16  1  0
 15 17  1  0
 15 13  1  0
 13 10  1  0
 10 11  1  0
 10 12  1  0
 10  9  1  0
  9  6  1  0
  6  7  1  0
  6  8  1  0
  6  5  1  0
  5  1  1  0
  1  2  1  0
  1 18  1  0
 18 19  1  0
 19 20  2  0
 20 21  1  0
 21 22  1  0
 21 23  2  0
 23 26  1  0
 26 27  2  0
 26 28  1  0
 23 24  1  0
 24 25  2  0
 25 29  1  0
 29 30  1  0
 30 31  1  0
 31 32  2  0
 31 33  1  0
 25 19  1  0
  2  3  1  0
  2  4  1  0
 33 34  1  0
M  CHG 1  26   1
M  CHG 1  28  -1
M  END
> <minimizedAffinity>
-7.95107

> <CNNscore>
0.1898088604

> <CNNaffinity>
6.3531374931

> <CNN_VS>
1.2058818340

> <CNNaffinity_variance>
0.5543365479

$$$$



 34 34  0  0  0  0  0  0  0  0999 V2000
   -2.3991   35.3142   95.7955 C   0  0  0  0  0  0  0  0  0  0  0  0
   -3.3063   36.4445   95.5925 N   0  0  0  0  0  0  0  0  0  0  0  0
   -4.1533   36.3038   96.1432 H   0  0  0  0  0  0  0  0  0  0  0  0
   -3.5504   36.5113   94.6044 H   0  0  0  0  0  0  0  0  0  0  0  0
   -3.0472   33.9813   95.3393 C   0  0  0  0  0  0  0  0  0  0  0  0
   -2.6444   33.3571   93.9725 C   0  0  0  0  0  0  0  0  0  0  0  0
   -1.6946   34.3204   93.2122 C   0  0  0  0  0  0  0  0  0  0  0  0
   -3.8629   33.1135   93.0598 C   0  0  0  0  0  0  0  0  0  0  0  0
   -1.8228   32.0233   94.1604 C   0  0  0  0  0  0  0  0  0  0  0  0
   -0.7071   31.8035   95.2271 C   0  0  0  0  0  0  0  0  0  0  0  0
    0.2777   33.0050   95.2593 C   0  0  0  0  0  0  0  0  0  0  0  0
   -1.2568   31.6405   96.6541 C   0  0  0  0  0  0  0  0  0  0  0  0
    0.1997   30.5633   94.8469 C   0  0  0  0  0  0  0  0  0  0  0  0
    2.2006   29.3017   93.8401 C   0  0  0  0  0  0  0  0  0  0  0  0
    1.6605   30.6730   94.2984 C   0  0  0  0  0  0  0  0  0  0  0  0
    1.6040   31.5637   93.0296 C   0  0  0  0  0  0  0  0  0  0  0  0
    2.6560   31.3248   95.2655 C   0  0  0  0  0  0  0  0  0  0  0  0
   -2.0085   35.1952   97.2973 C   0  0  0  0  0  0  0  0  0  0  0  0
   -3.1745   35.2165   98.2776 C   0  0  0  0  0  0  0  0  0  0  0  0
   -4.4254   34.7332   97.8258 C   0  0  0  0  0  0  0  0  0  0  0  0
   -5.5514   34.7259   98.6523 C   0  0  0  0  0  0  0  0  0  0  0  0
   -7.0352   34.1364   98.0042 Cl  0  0  0  0  0  0  0  0  0  0  0  0
   -5.4221   35.2156   99.9428 C   0  0  0  0  0  0  0  0  0  0  0  0
   -4.2097   35.7233  100.4191 C   0  0  0  0  0  0  0  0  0  0  0  0
   -3.0717   35.7373   99.5897 C   0  0  0  0  0  0  0  0  0  0  0  0
   -6.5542   35.2282  100.8325 N   0  0  0  0  0  0  0  0  0  0  0  0
   -6.4444   35.8912  101.8728 O   0  0  0  0  0  0  0  0  0  0  0  0
   -7.5610   34.6089  100.4651 O   0  0  0  0  0  0  0  0  0  0  0  0
   -1.7971   36.3319  100.1600 C   0  0  0  0  0  0  0  0  0  0  0  0
   -1.7153   36.3225  101.6852 C   0  0  0  0  0  0  0  0  0  0  0  0
   -1.4853   37.6752  102.3040 C   0  0  0  0  0  0  0  0  0  0  0  0
   -0.5451   37.9825  103.0199 O   0  0  0  0  0  0  0  0  0  0  0  0
   -2.3800   38.6085  101.9301 O   0  0  0  0  0  0  0  0  0  0  0  0
   -3.1014   38.3725  101.3808 H   0  0  0  0  0  0  0  0  0  0  0  0
 14 15  1  0
 15 16  1  0
 15 17  1  0
 15 13  1  0
 13 10  1  0
 10 11  1  0
 10 12  1  0
 10  9  1  0
  9  6  1  0
  6  7  1  0
  6  8  1  0
  6  5  1  0
  5  1  1  0
  1  2  1  0
  1 18  1  0
 18 19  1  0
 19 20  2  0
 20 21  1  0
 21 22  1  0
 21 23  2  0
 23 26  1  0
 26 27  2  0
 26 28  1  0
 23 24  1  0
 24 25  2  0
 25 29  1  0
 29 30  1  0
 30 31  1  0
 31 32  2  0
 31 33  1  0
 25 19  1  0
  2  3  1  0
  2  4  1  0
 33 34  1  0
M  CHG 1  26   1
M  CHG 1  28  -1
M  END
> <minimizedAffinity>
-7.55476

> <CNNscore>
0.1522778720

> <CNNaffinity>
5.5672879219

> <CNN_VS>
0.8477747440

> <CNNaffinity_variance>
0.7035078406

$$$$



 34 34  0  0  0  0  0  0  0  0999 V2000
   -2.5401   33.8981   95.9628 C   0  0  0  0  0  0  0  0  0  0  0  0
   -2.9072   32.9312   96.9983 N   0  0  0  0  0  0  0  0  0  0  0  0
   -2.0662   32.6133   97.4801 H   0  0  0  0  0  0  0  0  0  0  0  0
   -3.3747   32.1333   96.5680 H   0  0  0  0  0  0  0  0  0  0  0  0
   -1.5980   33.2638   94.9068 C   0  0  0  0  0  0  0  0  0  0  0  0
   -0.3972   32.3908   95.3714 C   0  0  0  0  0  0  0  0  0  0  0  0
    0.0276   31.4282   94.2308 C   0  0  0  0  0  0  0  0  0  0  0  0
   -0.7488   31.5156   96.5911 C   0  0  0  0  0  0  0  0  0  0  0  0
    0.8788   33.2682   95.6738 C   0  0  0  0  0  0  0  0  0  0  0  0
    2.3404   32.8806   95.2938 C   0  0  0  0  0  0  0  0  0  0  0  0
    3.3562   33.9073   95.8669 C   0  0  0  0  0  0  0  0  0  0  0  0
    2.7580   31.4985   95.8235 C   0  0  0  0  0  0  0  0  0  0  0  0
    2.5530   32.9514   93.7270 C   0  0  0  0  0  0  0  0  0  0  0  0
    3.3077   30.7521   92.6308 C   0  0  0  0  0  0  0  0  0  0  0  0
    3.6949   32.2101   92.9567 C   0  0  0  0  0  0  0  0  0  0  0  0
    3.8649   32.9297   91.5930 C   0  0  0  0  0  0  0  0  0  0  0  0
    5.0584   32.2395   93.6576 C   0  0  0  0  0  0  0  0  0  0  0  0
   -1.8286   35.1283   96.5971 C   0  0  0  0  0  0  0  0  0  0  0  0
   -2.0149   35.2851   98.1010 C   0  0  0  0  0  0  0  0  0  0  0  0
   -0.9340   34.9261   98.9407 C   0  0  0  0  0  0  0  0  0  0  0  0
   -1.0202   35.0262  100.3313 C   0  0  0  0  0  0  0  0  0  0  0  0
    0.3426   34.5455  101.2698 Cl  0  0  0  0  0  0  0  0  0  0  0  0
   -2.2060   35.4843  100.8846 C   0  0  0  0  0  0  0  0  0  0  0  0
   -3.3045   35.8266  100.0904 C   0  0  0  0  0  0  0  0  0  0  0  0
   -3.2255   35.7240   98.6882 C   0  0  0  0  0  0  0  0  0  0  0  0
   -2.3429   35.6054  102.3128 N   0  0  0  0  0  0  0  0  0  0  0  0
   -2.9004   34.6717  102.9054 O   0  0  0  0  0  0  0  0  0  0  0  0
   -1.8546   36.6145  102.8377 O   0  0  0  0  0  0  0  0  0  0  0  0
   -4.4656   36.0812   97.8893 C   0  0  0  0  0  0  0  0  0  0  0  0
   -5.7863   35.7114   98.5615 C   0  0  0  0  0  0  0  0  0  0  0  0
   -6.2186   34.2864   98.3414 C   0  0  0  0  0  0  0  0  0  0  0  0
   -5.6301   33.4582   97.6642 O   0  0  0  0  0  0  0  0  0  0  0  0
   -7.3078   33.9288   99.0463 O   0  0  0  0  0  0  0  0  0  0  0  0
   -7.7592   34.5646   99.5659 H   0  0  0  0  0  0  0  0  0  0  0  0
 14 15  1  0
 15 16  1  0
 15 17  1  0
 15 13  1  0
 13 10  1  0
 10 11  1  0
 10 12  1  0
 10  9  1  0
  9  6  1  0
  6  7  1  0
  6  8  1  0
  6  5  1  0
  5  1  1  0
  1  2  1  0
  1 18  1  0
 18 19  1  0
 19 20  2  0
 20 21  1  0
 21 22  1  0
 21 23  2  0
 23 26  1  0
 26 27  2  0
 26 28  1  0
 23 24  1  0
 24 25  2  0
 25 29  1  0
 29 30  1  0
 30 31  1  0
 31 32  2  0
 31 33  1  0
 25 19  1  0
  2  3  1  0
  2  4  1  0
 33 34  1  0
M  CHG 1  26   1
M  CHG 1  28  -1
M  END
> <minimizedAffinity>
-6.88331

> <CNNscore>
0.1298854947

> <CNNaffinity>
5.6477389336

> <CNN_VS>
0.7335593700

> <CNNaffinity_variance>
0.3568309844

$$$$



 34 34  0  0  0  0  0  0  0  0999 V2000
   -2.7827   35.4879   95.3663 C   0  0  0  0  0  0  0  0  0  0  0  0
   -3.7817   36.5559   95.3087 N   0  0  0  0  0  0  0  0  0  0  0  0
   -4.5946   36.2331   94.7840 H   0  0  0  0  0  0  0  0  0  0  0  0
   -3.3807   37.3720   94.8465 H   0  0  0  0  0  0  0  0  0  0  0  0
   -2.3038   35.0860   93.9471 C   0  0  0  0  0  0  0  0  0  0  0  0
   -3.3510   34.7393   92.8503 C   0  0  0  0  0  0  0  0  0  0  0  0
   -3.5498   33.2020   92.7779 C   0  0  0  0  0  0  0  0  0  0  0  0
   -2.9040   35.2014   91.4489 C   0  0  0  0  0  0  0  0  0  0  0  0
   -4.7735   35.3280   93.1956 C   0  0  0  0  0  0  0  0  0  0  0  0
   -5.6800   36.1161   92.2016 C   0  0  0  0  0  0  0  0  0  0  0  0
   -5.9672   35.2783   90.9249 C   0  0  0  0  0  0  0  0  0  0  0  0
   -7.0445   36.4988   92.7989 C   0  0  0  0  0  0  0  0  0  0  0  0
   -4.9382   37.4071   91.6647 C   0  0  0  0  0  0  0  0  0  0  0  0
   -4.4862   39.9190   91.3574 C   0  0  0  0  0  0  0  0  0  0  0  0
   -5.5482   38.8473   91.6826 C   0  0  0  0  0  0  0  0  0  0  0  0
   -6.5949   38.9120   90.5395 C   0  0  0  0  0  0  0  0  0  0  0  0
   -6.2737   39.2150   92.9825 C   0  0  0  0  0  0  0  0  0  0  0  0
   -3.3711   34.2322   96.0727 C   0  0  0  0  0  0  0  0  0  0  0  0
   -4.1340   34.5076   97.3624 C   0  0  0  0  0  0  0  0  0  0  0  0
   -5.5269   34.2583   97.3712 C   0  0  0  0  0  0  0  0  0  0  0  0
   -6.3074   34.4931   98.5056 C   0  0  0  0  0  0  0  0  0  0  0  0
   -7.9988   34.1780   98.4115 Cl  0  0  0  0  0  0  0  0  0  0  0  0
   -5.6845   34.9900   99.6401 C   0  0  0  0  0  0  0  0  0  0  0  0
   -4.3152   35.2713   99.6642 C   0  0  0  0  0  0  0  0  0  0  0  0
   -3.5235   35.0408   98.5226 C   0  0  0  0  0  0  0  0  0  0  0  0
   -6.4466   35.2475  100.8343 N   0  0  0  0  0  0  0  0  0  0  0  0
   -5.8460   35.7700  101.7829 O   0  0  0  0  0  0  0  0  0  0  0  0
   -7.6510   34.9638  100.8009 O   0  0  0  0  0  0  0  0  0  0  0  0
   -2.0510   35.3985   98.6082 C   0  0  0  0  0  0  0  0  0  0  0  0
   -1.4878   35.4486  100.0271 C   0  0  0  0  0  0  0  0  0  0  0  0
   -0.8704   36.7684  100.4049 C   0  0  0  0  0  0  0  0  0  0  0  0
   -1.4486   37.6991  100.9438 O   0  0  0  0  0  0  0  0  0  0  0  0
    0.4553   36.8369  100.1833 O   0  0  0  0  0  0  0  0  0  0  0  0
    0.8988   36.1226   99.7698 H   0  0  0  0  0  0  0  0  0  0  0  0
 14 15  1  0
 15 16  1  0
 15 17  1  0
 15 13  1  0
 13 10  1  0
 10 11  1  0
 10 12  1  0
 10  9  1  0
  9  6  1  0
  6  7  1  0
  6  8  1  0
  6  5  1  0
  5  1  1  0
  1  2  1  0
  1 18  1  0
 18 19  1  0
 19 20  2  0
 20 21  1  0
 21 22  1  0
 21 23  2  0
 23 26  1  0
 26 27  2  0
 26 28  1  0
 23 24  1  0
 24 25  2  0
 25 29  1  0
 29 30  1  0
 30 31  1  0
 31 32  2  0
 31 33  1  0
 25 19  1  0
  2  3  1  0
  2  4  1  0
 33 34  1  0
M  CHG 1  26   1
M  CHG 1  28  -1
M  END
> <minimizedAffinity>
-7.21639

> <CNNscore>
0.1068410501

> <CNNaffinity>
5.4631781578

> <CNN_VS>
0.5836917162

> <CNNaffinity_variance>
0.5361819863

$$$$



 34 34  0  0  0  0  0  0  0  0999 V2000
   -3.1979   35.5417   95.2089 C   0  0  0  0  0  0  0  0  0  0  0  0
   -4.3734   36.2435   94.6917 N   0  0  0  0  0  0  0  0  0  0  0  0
   -4.8888   35.6265   94.0638 H   0  0  0  0  0  0  0  0  0  0  0  0
   -4.0758   37.0755   94.1822 H   0  0  0  0  0  0  0  0  0  0  0  0
   -2.2412   35.1226   94.0626 C   0  0  0  0  0  0  0  0  0  0  0  0
   -2.8164   34.4318   92.7930 C   0  0  0  0  0  0  0  0  0  0  0  0
   -3.0493   35.4863   91.6786 C   0  0  0  0  0  0  0  0  0  0  0  0
   -4.1748   33.7538   93.0617 C   0  0  0  0  0  0  0  0  0  0  0  0
   -1.7964   33.3957   92.1803 C   0  0  0  0  0  0  0  0  0  0  0  0
   -1.6575   31.9080   92.6259 C   0  0  0  0  0  0  0  0  0  0  0  0
   -2.8056   31.0409   92.0391 C   0  0  0  0  0  0  0  0  0  0  0  0
   -0.3368   31.2615   92.1755 C   0  0  0  0  0  0  0  0  0  0  0  0
   -1.8248   31.7714   94.1938 C   0  0  0  0  0  0  0  0  0  0  0  0
   -1.1237   31.8321   96.6663 C   0  0  0  0  0  0  0  0  0  0  0  0
   -0.6345   31.7154   95.2071 C   0  0  0  0  0  0  0  0  0  0  0  0
    0.0087   30.3100   95.0756 C   0  0  0  0  0  0  0  0  0  0  0  0
    0.4710   32.7458   94.9475 C   0  0  0  0  0  0  0  0  0  0  0  0
   -3.6281   34.2695   95.9952 C   0  0  0  0  0  0  0  0  0  0  0  0
   -4.3358   34.5298   97.3190 C   0  0  0  0  0  0  0  0  0  0  0  0
   -5.7333   34.3147   97.3736 C   0  0  0  0  0  0  0  0  0  0  0  0
   -6.4654   34.5389   98.5418 C   0  0  0  0  0  0  0  0  0  0  0  0
   -8.1666   34.2681   98.5032 Cl  0  0  0  0  0  0  0  0  0  0  0  0
   -5.7887   34.9906   99.6644 C   0  0  0  0  0  0  0  0  0  0  0  0
   -4.4128   35.2374   99.6444 C   0  0  0  0  0  0  0  0  0  0  0  0
   -3.6696   35.0173   98.4687 C   0  0  0  0  0  0  0  0  0  0  0  0
   -6.4997   35.2355  100.8924 N   0  0  0  0  0  0  0  0  0  0  0  0
   -5.8806   35.8160  101.7943 O   0  0  0  0  0  0  0  0  0  0  0  0
   -7.6856   34.8830  100.9316 O   0  0  0  0  0  0  0  0  0  0  0  0
   -2.1863   35.3364   98.5081 C   0  0  0  0  0  0  0  0  0  0  0  0
   -1.5780   35.3705   99.9087 C   0  0  0  0  0  0  0  0  0  0  0  0
   -0.9704   36.6936  100.2908 C   0  0  0  0  0  0  0  0  0  0  0  0
   -1.5605   37.6260  100.8136 O   0  0  0  0  0  0  0  0  0  0  0  0
    0.3591   36.7638  100.0937 O   0  0  0  0  0  0  0  0  0  0  0  0
    0.8116   36.0482   99.6925 H   0  0  0  0  0  0  0  0  0  0  0  0
 14 15  1  0
 15 16  1  0
 15 17  1  0
 15 13  1  0
 13 10  1  0
 10 11  1  0
 10 12  1  0
 10  9  1  0
  9  6  1  0
  6  7  1  0
  6  8  1  0
  6  5  1  0
  5  1  1  0
  1  2  1  0
  1 18  1  0
 18 19  1  0
 19 20  2  0
 20 21  1  0
 21 22  1  0
 21 23  2  0
 23 26  1  0
 26 27  2  0
 26 28  1  0
 23 24  1  0
 24 25  2  0
 25 29  1  0
 29 30  1  0
 30 31  1  0
 31 32  2  0
 31 33  1  0
 25 19  1  0
  2  3  1  0
  2  4  1  0
 33 34  1  0
M  CHG 1  26   1
M  CHG 1  28  -1
M  END
> <minimizedAffinity>
-6.82102

> <CNNscore>
0.1051368490

> <CNNaffinity>
5.4733500481

> <CNN_VS>
0.5754507780

> <CNNaffinity_variance>
0.7622228265

$$$$



 34 34  0  0  0  0  0  0  0  0999 V2000
   -2.8473   35.5569   99.8540 C   0  0  0  0  0  0  0  0  0  0  0  0
   -1.5806   35.0973   99.2828 N   0  0  0  0  0  0  0  0  0  0  0  0
   -1.0633   35.8962   98.9160 H   0  0  0  0  0  0  0  0  0  0  0  0
   -1.7677   34.4377   98.5276 H   0  0  0  0  0  0  0  0  0  0  0  0
   -3.7324   36.2458   98.7831 C   0  0  0  0  0  0  0  0  0  0  0  0
   -4.9778   35.5035   98.2195 C   0  0  0  0  0  0  0  0  0  0  0  0
   -5.6412   36.3566   97.1059 C   0  0  0  0  0  0  0  0  0  0  0  0
   -6.0510   35.2602   99.2994 C   0  0  0  0  0  0  0  0  0  0  0  0
   -4.5807   34.1445   97.5231 C   0  0  0  0  0  0  0  0  0  0  0  0
   -3.5464   34.0025   96.3650 C   0  0  0  0  0  0  0  0  0  0  0  0
   -4.2525   33.6452   95.0278 C   0  0  0  0  0  0  0  0  0  0  0  0
   -2.7393   35.2871   96.1125 C   0  0  0  0  0  0  0  0  0  0  0  0
   -2.5682   32.7867   96.6290 C   0  0  0  0  0  0  0  0  0  0  0  0
   -0.0823   33.4283   96.4980 C   0  0  0  0  0  0  0  0  0  0  0  0
   -1.2091   32.5696   95.8857 C   0  0  0  0  0  0  0  0  0  0  0  0
   -0.7992   31.0905   96.1104 C   0  0  0  0  0  0  0  0  0  0  0  0
   -1.2691   32.7979   94.3706 C   0  0  0  0  0  0  0  0  0  0  0  0
   -2.5864   36.5622  101.0131 C   0  0  0  0  0  0  0  0  0  0  0  0
   -1.1635   36.5745  101.5573 C   0  0  0  0  0  0  0  0  0  0  0  0
   -0.3238   37.6509  101.1848 C   0  0  0  0  0  0  0  0  0  0  0  0
    0.9983   37.7375  101.6271 C   0  0  0  0  0  0  0  0  0  0  0  0
    1.9480   39.0760  101.1023 Cl  0  0  0  0  0  0  0  0  0  0  0  0
    1.4845   36.7296  102.4454 C   0  0  0  0  0  0  0  0  0  0  0  0
    0.6942   35.6377  102.8167 C   0  0  0  0  0  0  0  0  0  0  0  0
   -0.6382   35.5423  102.3709 C   0  0  0  0  0  0  0  0  0  0  0  0
    2.8406   36.7749  102.9273 N   0  0  0  0  0  0  0  0  0  0  0  0
    3.7396   36.5989  102.0940 O   0  0  0  0  0  0  0  0  0  0  0  0
    2.9988   37.0278  104.1287 O   0  0  0  0  0  0  0  0  0  0  0  0
   -1.4288   34.3148  102.7854 C   0  0  0  0  0  0  0  0  0  0  0  0
   -2.1146   34.4267  104.1455 C   0  0  0  0  0  0  0  0  0  0  0  0
   -3.6027   34.2027  104.1121 C   0  0  0  0  0  0  0  0  0  0  0  0
   -4.3470   34.4868  103.1868 O   0  0  0  0  0  0  0  0  0  0  0  0
   -4.0834   33.5515  105.1873 O   0  0  0  0  0  0  0  0  0  0  0  0
   -3.5121   33.3337  105.8973 H   0  0  0  0  0  0  0  0  0  0  0  0
 14 15  1  0
 15 16  1  0
 15 17  1  0
 15 13  1  0
 13 10  1  0
 10 11  1  0
 10 12  1  0
 10  9  1  0
  9  6  1  0
  6  7  1  0
  6  8  1  0
  6  5  1  0
  5  1  1  0
  1  2  1  0
  1 18  1  0
 18 19  1  0
 19 20  2  0
 20 21  1  0
 21 22  1  0
 21 23  2  0
 23 26  1  0
 26 27  2  0
 26 28  1  0
 23 24  1  0
 24 25  2  0
 25 29  1  0
 29 30  1  0
 30 31  1  0
 31 32  2  0
 31 33  1  0
 25 19  1  0
  2  3  1  0
  2  4  1  0
 33 34  1  0
M  CHG 1  26   1
M  CHG 1  28  -1
M  END
> <minimizedAffinity>
-8.45901

> <CNNscore>
0.1008599252

> <CNNaffinity>
5.8450598717

> <CNN_VS>
0.5895323157

> <CNNaffinity_variance>
0.5251787901

$$$$
