


 19 21  0  0  0  0  0  0  0  0999 V2000
    2.3486   18.5593  -12.6396 C   0  0  0  0  0  0  0  0  0  0  0  0
    1.6186   18.8862  -13.7992 C   0  0  0  0  0  0  0  0  0  0  0  0
    1.3491   20.2131  -14.0551 C   0  0  0  0  0  0  0  0  0  0  0  0
    1.7780   21.2112  -13.2157 C   0  0  0  0  0  0  0  0  0  0  0  0
    2.5046   20.9406  -12.0772 C   0  0  0  0  0  0  0  0  0  0  0  0
    2.7965   19.5991  -11.7876 C   0  0  0  0  0  0  0  0  0  0  0  0
    3.8575   19.2842  -10.2382 Br  0  0  0  0  0  0  0  0  0  0  0  0
    1.4096   22.4468  -13.6475 O   0  0  0  0  0  0  0  0  0  0  0  0
    0.7057   22.1119  -14.8621 C   0  0  0  0  0  0  0  0  0  0  0  0
    0.6548   20.6937  -15.1204 O   0  0  0  0  0  0  0  0  0  0  0  0
    1.5106   13.8226  -12.4321 C   0  0  0  0  0  0  0  0  0  0  0  0
    2.2405   15.0547  -12.2585 N   0  0  0  0  0  0  0  0  0  0  0  0
    1.6569   16.2197  -12.6031 N   0  0  0  0  0  0  0  0  0  0  0  0
    2.6037   17.1449  -12.3794 C   0  0  0  0  0  0  0  0  0  0  0  0
    3.7705   16.5521  -11.8273 C   0  0  0  0  0  0  0  0  0  0  0  0
    3.5073   15.2065  -11.7525 C   0  0  0  0  0  0  0  0  0  0  0  0
    4.2718   14.1896  -11.3025 N   0  0  0  0  0  0  0  0  0  0  0  0
    5.1738   14.3698  -10.9517 H   0  0  0  0  0  0  0  0  0  0  0  0
    3.9276   13.2675  -11.3252 H   0  0  0  0  0  0  0  0  0  0  0  0
 11 12  1  0
 12 13  1  0
 13 14  2  0
 14  1  1  0
  1  2  2  0
  2  3  1  0
  3  4  2  0
  4  5  1  0
  5  6  2  0
  6  7  1  0
  4  8  1  0
  8  9  1  0
  9 10  1  0
 14 15  1  0
 15 16  2  0
 16 17  1  0
 16 12  1  0
  6  1  1  0
 10  3  1  0
 17 18  1  0
 17 19  1  0
M  END
> <minimizedAffinity>
-5.14237

> <CNNscore>
0.8189289570

> <CNNaffinity>
4.3980560303

> <CNN_VS>
3.6016955376

> <CNNaffinity_variance>
0.0350899212

$$$$



 19 21  0  0  0  0  0  0  0  0999 V2000
    0.0186   10.4857   -7.0022 C   0  0  0  0  0  0  0  0  0  0  0  0
   -1.0163   10.7570   -6.0859 C   0  0  0  0  0  0  0  0  0  0  0  0
   -1.2249   12.0622   -5.6962 C   0  0  0  0  0  0  0  0  0  0  0  0
   -0.4575   13.0916   -6.1821 C   0  0  0  0  0  0  0  0  0  0  0  0
    0.5572   12.8760   -7.0883 C   0  0  0  0  0  0  0  0  0  0  0  0
    0.7957   11.5580   -7.5062 C   0  0  0  0  0  0  0  0  0  0  0  0
    2.1658   11.3226   -8.8072 Br  0  0  0  0  0  0  0  0  0  0  0  0
   -0.8254   14.2981   -5.6741 O   0  0  0  0  0  0  0  0  0  0  0  0
   -1.9203   13.9102   -4.8176 C   0  0  0  0  0  0  0  0  0  0  0  0
   -2.1716   12.4898   -4.8193 O   0  0  0  0  0  0  0  0  0  0  0  0
    1.6989    6.7405   -9.5186 C   0  0  0  0  0  0  0  0  0  0  0  0
    0.9469    7.4299   -8.4987 N   0  0  0  0  0  0  0  0  0  0  0  0
    0.9672    8.7771   -8.4631 N   0  0  0  0  0  0  0  0  0  0  0  0
    0.2335    9.0924   -7.3839 C   0  0  0  0  0  0  0  0  0  0  0  0
   -0.3031    7.9251   -6.7778 C   0  0  0  0  0  0  0  0  0  0  0  0
    0.1652    6.8689   -7.5199 C   0  0  0  0  0  0  0  0  0  0  0  0
   -0.0420    5.5427   -7.3811 N   0  0  0  0  0  0  0  0  0  0  0  0
   -0.6158    5.2075   -6.6547 H   0  0  0  0  0  0  0  0  0  0  0  0
    0.3806    4.9103   -8.0062 H   0  0  0  0  0  0  0  0  0  0  0  0
 11 12  1  0
 12 13  1  0
 13 14  2  0
 14  1  1  0
  1  2  2  0
  2  3  1  0
  3  4  2  0
  4  5  1  0
  5  6  2  0
  6  7  1  0
  4  8  1  0
  8  9  1  0
  9 10  1  0
 14 15  1  0
 15 16  2  0
 16 17  1  0
 16 12  1  0
  6  1  1  0
 10  3  1  0
 17 18  1  0
 17 19  1  0
M  END
> <minimizedAffinity>
-7.58739

> <CNNscore>
0.7934502363

> <CNNaffinity>
4.2799892426

> <CNN_VS>
3.3959584236

> <CNNaffinity_variance>
1.1098480225

$$$$



 19 21  0  0  0  0  0  0  0  0999 V2000
    3.4319   17.0782  -12.3031 C   0  0  0  0  0  0  0  0  0  0  0  0
    4.3387   16.0449  -12.6103 C   0  0  0  0  0  0  0  0  0  0  0  0
    5.6128   16.1110  -12.0896 C   0  0  0  0  0  0  0  0  0  0  0  0
    6.0092   17.1481  -11.2821 C   0  0  0  0  0  0  0  0  0  0  0  0
    5.1541   18.1739  -10.9450 C   0  0  0  0  0  0  0  0  0  0  0  0
    3.8489   18.1367  -11.4585 C   0  0  0  0  0  0  0  0  0  0  0  0
    2.6885   19.5434  -10.9105 Br  0  0  0  0  0  0  0  0  0  0  0  0
    7.3005   17.0243  -10.8744 O   0  0  0  0  0  0  0  0  0  0  0  0
    7.6694   15.7833  -11.5121 C   0  0  0  0  0  0  0  0  0  0  0  0
    6.6047   15.2042  -12.2942 O   0  0  0  0  0  0  0  0  0  0  0  0
   -0.9220   15.2700  -13.2808 C   0  0  0  0  0  0  0  0  0  0  0  0
    0.1785   16.2003  -13.3446 N   0  0  0  0  0  0  0  0  0  0  0  0
    1.3121   15.9266  -12.6686 N   0  0  0  0  0  0  0  0  0  0  0  0
    2.0941   16.9964  -12.8836 C   0  0  0  0  0  0  0  0  0  0  0  0
    1.4608   17.9189  -13.7586 C   0  0  0  0  0  0  0  0  0  0  0  0
    0.2318   17.3785  -14.0467 C   0  0  0  0  0  0  0  0  0  0  0  0
   -0.7652   17.8413  -14.8295 N   0  0  0  0  0  0  0  0  0  0  0  0
   -0.6604   18.6964  -15.3061 H   0  0  0  0  0  0  0  0  0  0  0  0
   -1.5974   17.3239  -14.9241 H   0  0  0  0  0  0  0  0  0  0  0  0
 11 12  1  0
 12 13  1  0
 13 14  2  0
 14  1  1  0
  1  2  2  0
  2  3  1  0
  3  4  2  0
  4  5  1  0
  5  6  2  0
  6  7  1  0
  4  8  1  0
  8  9  1  0
  9 10  1  0
 14 15  1  0
 15 16  2  0
 16 17  1  0
 16 12  1  0
  6  1  1  0
 10  3  1  0
 17 18  1  0
 17 19  1  0
M  END
> <minimizedAffinity>
-5.01822

> <CNNscore>
0.7607927918

> <CNNaffinity>
4.4235248566

> <CNN_VS>
3.3653857708

> <CNNaffinity_variance>
0.0533352382

$$$$



 19 21  0  0  0  0  0  0  0  0999 V2000
    0.1279   10.8704   -7.2345 C   0  0  0  0  0  0  0  0  0  0  0  0
    0.0100   12.2742   -7.2339 C   0  0  0  0  0  0  0  0  0  0  0  0
   -0.7600   12.8696   -6.2585 C   0  0  0  0  0  0  0  0  0  0  0  0
   -1.4016   12.1313   -5.2952 C   0  0  0  0  0  0  0  0  0  0  0  0
   -1.3058   10.7580   -5.2488 C   0  0  0  0  0  0  0  0  0  0  0  0
   -0.5288   10.1203   -6.2277 C   0  0  0  0  0  0  0  0  0  0  0  0
   -0.3768    8.2280   -6.0805 Br  0  0  0  0  0  0  0  0  0  0  0  0
   -2.1062   12.9078   -4.4294 O   0  0  0  0  0  0  0  0  0  0  0  0
   -1.8266   14.2229   -4.9541 C   0  0  0  0  0  0  0  0  0  0  0  0
   -0.9809   14.2040   -6.1224 O   0  0  0  0  0  0  0  0  0  0  0  0
    2.9831   10.6111  -11.1026 C   0  0  0  0  0  0  0  0  0  0  0  0
    2.1724   10.1291  -10.0111 N   0  0  0  0  0  0  0  0  0  0  0  0
    1.5336   11.0169   -9.2234 N   0  0  0  0  0  0  0  0  0  0  0  0
    0.9324   10.2615   -8.2906 C   0  0  0  0  0  0  0  0  0  0  0  0
    1.1490    8.8801   -8.5408 C   0  0  0  0  0  0  0  0  0  0  0  0
    1.9440    8.8223   -9.6590 C   0  0  0  0  0  0  0  0  0  0  0  0
    2.4419    7.7588  -10.3239 N   0  0  0  0  0  0  0  0  0  0  0  0
    2.2379    6.8462  -10.0160 H   0  0  0  0  0  0  0  0  0  0  0  0
    3.0092    7.8956  -11.1168 H   0  0  0  0  0  0  0  0  0  0  0  0
 11 12  1  0
 12 13  1  0
 13 14  2  0
 14  1  1  0
  1  2  2  0
  2  3  1  0
  3  4  2  0
  4  5  1  0
  5  6  2  0
  6  7  1  0
  4  8  1  0
  8  9  1  0
  9 10  1  0
 14 15  1  0
 15 16  2  0
 16 17  1  0
 16 12  1  0
  6  1  1  0
 10  3  1  0
 17 18  1  0
 17 19  1  0
M  END
> <minimizedAffinity>
-6.86529

> <CNNscore>
0.7218030691

> <CNNaffinity>
3.9889209270

> <CNN_VS>
2.8792154789

> <CNNaffinity_variance>
0.5956063867

$$$$



 19 21  0  0  0  0  0  0  0  0999 V2000
    0.1824   10.9231   -7.2846 C   0  0  0  0  0  0  0  0  0  0  0  0
    0.0699   12.3267   -7.2439 C   0  0  0  0  0  0  0  0  0  0  0  0
   -0.7117   12.8961   -6.2622 C   0  0  0  0  0  0  0  0  0  0  0  0
   -1.3698   12.1322   -5.3305 C   0  0  0  0  0  0  0  0  0  0  0  0
   -1.2798   10.7578   -5.3236 C   0  0  0  0  0  0  0  0  0  0  0  0
   -0.4915   10.1461   -6.3100 C   0  0  0  0  0  0  0  0  0  0  0  0
   -0.3489    8.2497   -6.2170 Br  0  0  0  0  0  0  0  0  0  0  0  0
   -2.0836   12.8857   -4.4520 O   0  0  0  0  0  0  0  0  0  0  0  0
   -1.7916   14.2146   -4.9333 C   0  0  0  0  0  0  0  0  0  0  0  0
   -0.9294   14.2269   -6.0896 O   0  0  0  0  0  0  0  0  0  0  0  0
    2.4429    7.5324   -9.8488 C   0  0  0  0  0  0  0  0  0  0  0  0
    2.0230    8.8609   -9.4752 N   0  0  0  0  0  0  0  0  0  0  0  0
    1.2596    9.0256   -8.3767 N   0  0  0  0  0  0  0  0  0  0  0  0
    0.9995   10.3424   -8.3469 C   0  0  0  0  0  0  0  0  0  0  0  0
    1.6647   11.0141   -9.4071 C   0  0  0  0  0  0  0  0  0  0  0  0
    2.3230   10.0381  -10.1140 C   0  0  0  0  0  0  0  0  0  0  0  0
    3.1054   10.1292  -11.2097 N   0  0  0  0  0  0  0  0  0  0  0  0
    3.2799   11.0077  -11.6183 H   0  0  0  0  0  0  0  0  0  0  0  0
    3.5017    9.3171  -11.6005 H   0  0  0  0  0  0  0  0  0  0  0  0
 11 12  1  0
 12 13  1  0
 13 14  2  0
 14  1  1  0
  1  2  2  0
  2  3  1  0
  3  4  2  0
  4  5  1  0
  5  6  2  0
  6  7  1  0
  4  8  1  0
  8  9  1  0
  9 10  1  0
 14 15  1  0
 15 16  2  0
 16 17  1  0
 16 12  1  0
  6  1  1  0
 10  3  1  0
 17 18  1  0
 17 19  1  0
M  END
> <minimizedAffinity>
-6.93171

> <CNNscore>
0.6968608499

> <CNNaffinity>
3.9484846592

> <CNN_VS>
2.7515444756

> <CNNaffinity_variance>
0.5195823312

$$$$



 19 21  0  0  0  0  0  0  0  0999 V2000
    0.6844   17.6224  -14.0255 C   0  0  0  0  0  0  0  0  0  0  0  0
    0.2918   18.9140  -14.4278 C   0  0  0  0  0  0  0  0  0  0  0  0
    0.9395   19.9995  -13.8791 C   0  0  0  0  0  0  0  0  0  0  0  0
    1.9517   19.8488  -12.9639 C   0  0  0  0  0  0  0  0  0  0  0  0
    2.3773   18.6059  -12.5498 C   0  0  0  0  0  0  0  0  0  0  0  0
    1.7386   17.4793  -13.0897 C   0  0  0  0  0  0  0  0  0  0  0  0
    2.4074   15.7856  -12.5334 Br  0  0  0  0  0  0  0  0  0  0  0  0
    2.4570   21.0406  -12.5477 O   0  0  0  0  0  0  0  0  0  0  0  0
    1.6512   21.9604  -13.3141 C   0  0  0  0  0  0  0  0  0  0  0  0
    0.6782   21.3051  -14.1535 O   0  0  0  0  0  0  0  0  0  0  0  0
   -2.1858   13.7612  -14.2144 C   0  0  0  0  0  0  0  0  0  0  0  0
   -1.2752   14.7687  -14.7009 N   0  0  0  0  0  0  0  0  0  0  0  0
   -0.7782   15.6783  -13.8392 N   0  0  0  0  0  0  0  0  0  0  0  0
   -0.0310   16.4887  -14.6055 C   0  0  0  0  0  0  0  0  0  0  0  0
   -0.0126   16.0372  -15.9522 C   0  0  0  0  0  0  0  0  0  0  0  0
   -0.8154   14.9236  -15.9848 C   0  0  0  0  0  0  0  0  0  0  0  0
   -1.1400   14.1094  -17.0107 N   0  0  0  0  0  0  0  0  0  0  0  0
   -0.7734   14.2788  -17.9086 H   0  0  0  0  0  0  0  0  0  0  0  0
   -1.7434   13.3459  -16.8614 H   0  0  0  0  0  0  0  0  0  0  0  0
 11 12  1  0
 12 13  1  0
 13 14  2  0
 14  1  1  0
  1  2  2  0
  2  3  1  0
  3  4  2  0
  4  5  1  0
  5  6  2  0
  6  7  1  0
  4  8  1  0
  8  9  1  0
  9 10  1  0
 14 15  1  0
 15 16  2  0
 16 17  1  0
 16 12  1  0
  6  1  1  0
 10  3  1  0
 17 18  1  0
 17 19  1  0
M  END
> <minimizedAffinity>
-4.36149

> <CNNscore>
0.6581151485

> <CNNaffinity>
4.3613018990

> <CNN_VS>
2.8702387810

> <CNNaffinity_variance>
0.0622275025

$$$$



 19 21  0  0  0  0  0  0  0  0999 V2000
    2.8431   17.4327  -12.3490 C   0  0  0  0  0  0  0  0  0  0  0  0
    2.8253   18.7117  -11.7589 C   0  0  0  0  0  0  0  0  0  0  0  0
    3.9611   19.1568  -11.1179 C   0  0  0  0  0  0  0  0  0  0  0  0
    5.0979   18.3901  -11.0492 C   0  0  0  0  0  0  0  0  0  0  0  0
    5.1659   17.1390  -11.6213 C   0  0  0  0  0  0  0  0  0  0  0  0
    4.0263   16.6560  -12.2822 C   0  0  0  0  0  0  0  0  0  0  0  0
    4.1936   14.9498  -13.1105 Br  0  0  0  0  0  0  0  0  0  0  0  0
    6.1028   19.0110  -10.3757 O   0  0  0  0  0  0  0  0  0  0  0  0
    5.4697   20.2625  -10.0354 C   0  0  0  0  0  0  0  0  0  0  0  0
    4.1056   20.3563  -10.4949 O   0  0  0  0  0  0  0  0  0  0  0  0
   -1.1913   14.8949  -13.0307 C   0  0  0  0  0  0  0  0  0  0  0  0
   -0.1495   15.8460  -13.3320 N   0  0  0  0  0  0  0  0  0  0  0  0
    0.8769   15.9931  -12.4708 N   0  0  0  0  0  0  0  0  0  0  0  0
    1.6207   16.9751  -13.0044 C   0  0  0  0  0  0  0  0  0  0  0  0
    1.0818   17.3996  -14.2482 C   0  0  0  0  0  0  0  0  0  0  0  0
   -0.0535   16.6511  -14.4394 C   0  0  0  0  0  0  0  0  0  0  0  0
   -0.9392   16.6503  -15.4575 N   0  0  0  0  0  0  0  0  0  0  0  0
   -0.8094   17.2552  -16.2233 H   0  0  0  0  0  0  0  0  0  0  0  0
   -1.7151   16.0448  -15.4345 H   0  0  0  0  0  0  0  0  0  0  0  0
 11 12  1  0
 12 13  1  0
 13 14  2  0
 14  1  1  0
  1  2  2  0
  2  3  1  0
  3  4  2  0
  4  5  1  0
  5  6  2  0
  6  7  1  0
  4  8  1  0
  8  9  1  0
  9 10  1  0
 14 15  1  0
 15 16  2  0
 16 17  1  0
 16 12  1  0
  6  1  1  0
 10  3  1  0
 17 18  1  0
 17 19  1  0
M  END
> <minimizedAffinity>
-4.66928

> <CNNscore>
0.6378957033

> <CNNaffinity>
4.4782814980

> <CNN_VS>
2.8566765785

> <CNNaffinity_variance>
0.3253072202

$$$$



 19 21  0  0  0  0  0  0  0  0999 V2000
    4.4274   20.9268  -12.1996 C   0  0  0  0  0  0  0  0  0  0  0  0
    5.3380   21.8543  -12.7428 C   0  0  0  0  0  0  0  0  0  0  0  0
    6.5214   22.0832  -12.0749 C   0  0  0  0  0  0  0  0  0  0  0  0
    6.8295   21.4287  -10.9081 C   0  0  0  0  0  0  0  0  0  0  0  0
    5.9759   20.5051  -10.3461 C   0  0  0  0  0  0  0  0  0  0  0  0
    4.7621   20.2485  -11.0016 C   0  0  0  0  0  0  0  0  0  0  0  0
    3.6480   18.9176  -10.2186 Br  0  0  0  0  0  0  0  0  0  0  0  0
    8.0407   21.7959  -10.4111 O   0  0  0  0  0  0  0  0  0  0  0  0
    8.4643   22.7521  -11.4056 C   0  0  0  0  0  0  0  0  0  0  0  0
    7.4985   22.9467  -12.4591 O   0  0  0  0  0  0  0  0  0  0  0  0
    1.3452   19.0266  -15.3731 C   0  0  0  0  0  0  0  0  0  0  0  0
    1.8054   19.9057  -14.3261 N   0  0  0  0  0  0  0  0  0  0  0  0
    3.0875   19.8283  -13.9176 N   0  0  0  0  0  0  0  0  0  0  0  0
    3.1712   20.7168  -12.9147 C   0  0  0  0  0  0  0  0  0  0  0  0
    1.9390   21.4018  -12.7409 C   0  0  0  0  0  0  0  0  0  0  0  0
    1.0789   20.8660  -13.6675 C   0  0  0  0  0  0  0  0  0  0  0  0
   -0.2122   21.1558  -13.9324 N   0  0  0  0  0  0  0  0  0  0  0  0
   -0.6741   21.8585  -13.4204 H   0  0  0  0  0  0  0  0  0  0  0  0
   -0.6923   20.6646  -14.6378 H   0  0  0  0  0  0  0  0  0  0  0  0
 11 12  1  0
 12 13  1  0
 13 14  2  0
 14  1  1  0
  1  2  2  0
  2  3  1  0
  3  4  2  0
  4  5  1  0
  5  6  2  0
  6  7  1  0
  4  8  1  0
  8  9  1  0
  9 10  1  0
 14 15  1  0
 15 16  2  0
 16 17  1  0
 16 12  1  0
  6  1  1  0
 10  3  1  0
 17 18  1  0
 17 19  1  0
M  END
> <minimizedAffinity>
-4.45727

> <CNNscore>
0.5744452477

> <CNNaffinity>
4.1010508537

> <CNN_VS>
2.3558292389

> <CNNaffinity_variance>
0.2149320394

$$$$



 19 21  0  0  0  0  0  0  0  0999 V2000
    2.7924   17.4853  -12.6169 C   0  0  0  0  0  0  0  0  0  0  0  0
    2.7251   18.6595  -11.8415 C   0  0  0  0  0  0  0  0  0  0  0  0
    3.8592   19.0768  -11.1793 C   0  0  0  0  0  0  0  0  0  0  0  0
    5.0407   18.3827  -11.2642 C   0  0  0  0  0  0  0  0  0  0  0  0
    5.1571   17.2366  -12.0193 C   0  0  0  0  0  0  0  0  0  0  0  0
    4.0206   16.7846  -12.7068 C   0  0  0  0  0  0  0  0  0  0  0  0
    4.2518   15.2335  -13.7866 Br  0  0  0  0  0  0  0  0  0  0  0  0
    6.0354   18.9604  -10.5391 O   0  0  0  0  0  0  0  0  0  0  0  0
    5.3455   20.1049   -9.9941 C   0  0  0  0  0  0  0  0  0  0  0  0
    3.9599   20.1780  -10.3886 O   0  0  0  0  0  0  0  0  0  0  0  0
   -0.6621   17.3455  -15.9678 C   0  0  0  0  0  0  0  0  0  0  0  0
    0.0266   16.9948  -14.7499 N   0  0  0  0  0  0  0  0  0  0  0  0
    1.1604   17.6467  -14.4235 N   0  0  0  0  0  0  0  0  0  0  0  0
    1.5719   17.0522  -13.2924 C   0  0  0  0  0  0  0  0  0  0  0  0
    0.6454   16.0593  -12.8761 C   0  0  0  0  0  0  0  0  0  0  0  0
   -0.3443   16.0481  -13.8279 C   0  0  0  0  0  0  0  0  0  0  0  0
   -1.4630   15.2988  -13.9174 N   0  0  0  0  0  0  0  0  0  0  0  0
   -1.6690   14.6363  -13.2190 H   0  0  0  0  0  0  0  0  0  0  0  0
   -2.0733   15.4147  -14.6812 H   0  0  0  0  0  0  0  0  0  0  0  0
 11 12  1  0
 12 13  1  0
 13 14  2  0
 14  1  1  0
  1  2  2  0
  2  3  1  0
  3  4  2  0
  4  5  1  0
  5  6  2  0
  6  7  1  0
  4  8  1  0
  8  9  1  0
  9 10  1  0
 14 15  1  0
 15 16  2  0
 16 17  1  0
 16 12  1  0
  6  1  1  0
 10  3  1  0
 17 18  1  0
 17 19  1  0
M  END
> <minimizedAffinity>
-4.61555

> <CNNscore>
0.5463680625

> <CNNaffinity>
4.3234772682

> <CNN_VS>
2.3622097969

> <CNNaffinity_variance>
0.1095037386

$$$$
