


 26 27  0  0  0  0  0  0  0  0999 V2000
   14.2471    2.7829   38.6595 C   0  0  0  0  0  0  0  0  0  0  0  0
   14.2780    3.1290   40.1486 C   0  0  0  0  0  0  0  0  0  0  0  0
   15.3625    3.3567   40.6979 O   0  0  0  0  0  0  0  0  0  0  0  0
   12.9792    3.0543   40.9633 C   0  0  0  0  0  0  0  0  0  0  0  0
   11.7845    3.6963   40.2283 C   0  0  0  0  0  0  0  0  0  0  0  0
   11.9254    3.7871   38.7066 C   0  0  0  0  0  0  0  0  0  0  0  0
   12.8051    2.6889   38.0874 C   0  0  0  0  0  0  0  0  0  0  0  0
   12.1676    1.3150   38.4291 C   0  0  0  0  0  0  0  0  0  0  0  0
   12.6234    0.4861   39.2026 O   0  0  0  0  0  0  0  0  0  0  0  0
   11.0087    1.0760   37.7836 O   0  0  0  0  0  0  0  0  0  0  0  0
   10.6622    1.7139   37.1912 H   0  0  0  0  0  0  0  0  0  0  0  0
   13.0785    3.6956   42.2433 O   0  0  0  0  0  0  0  0  0  0  0  0
   14.3929    3.6659   42.7880 C   0  0  0  0  0  0  0  0  0  0  0  0
   10.5914    2.9106   40.4570 O   0  0  0  0  0  0  0  0  0  0  0  0
   10.7198    1.9921   41.5374 C   0  0  0  0  0  0  0  0  0  0  0  0
   12.8055    2.9299   36.6657 O   0  0  0  0  0  0  0  0  0  0  0  0
   13.4013    1.9167   35.8616 C   0  0  0  0  0  0  0  0  0  0  0  0
   15.2381    3.7057   37.8926 C   0  0  0  0  0  0  0  0  0  0  0  0
   18.9902    1.9928   36.5557 C   0  0  0  0  0  0  0  0  0  0  0  0
   18.0084    2.3471   35.6329 C   0  0  0  0  0  0  0  0  0  0  0  0
   16.7955    2.8935   36.0695 C   0  0  0  0  0  0  0  0  0  0  0  0
   16.5470    3.1042   37.4325 C   0  0  0  0  0  0  0  0  0  0  0  0
   17.5321    2.7285   38.3528 C   0  0  0  0  0  0  0  0  0  0  0  0
   18.7424    2.1834   37.9154 C   0  0  0  0  0  0  0  0  0  0  0  0
   20.6313    0.3484   37.0539 C   0  0  0  0  0  0  0  0  0  0  0  0
   20.2137    1.4554   36.2654 O   0  0  0  0  0  0  0  0  0  0  0  0
 25 26  1  0
 26 19  1  0
 19 20  2  0
 20 21  1  0
 21 22  2  0
 22 18  1  0
  1 18  1  0
  1  2  1  0
  2  3  2  0
  2  4  1  0
  4 12  1  0
 12 13  1  0
  4  5  1  0
  5 14  1  0
 14 15  1  0
  5  6  1  0
  6  7  1  0
  7 16  1  0
 16 17  1  0
  7  8  1  0
  8  9  2  0
  8 10  1  0
 22 23  1  0
 23 24  2  0
 24 19  1  0
  7  1  1  0
 10 11  1  0
M  END
> <minimizedAffinity>
-7.84516

> <CNNscore>
0.6578848958

> <CNNaffinity>
5.3804268837

> <CNN_VS>
3.5397014618

> <CNNaffinity_variance>
0.1722850055

$$$$



 26 27  0  0  0  0  0  0  0  0999 V2000
   21.7248    1.0925   38.2742 C   0  0  0  0  0  0  0  0  0  0  0  0
   21.5706    2.3336   39.1539 C   0  0  0  0  0  0  0  0  0  0  0  0
   21.6491    3.4564   38.6411 O   0  0  0  0  0  0  0  0  0  0  0  0
   21.4573    2.1653   40.6754 C   0  0  0  0  0  0  0  0  0  0  0  0
   20.4902    1.0311   41.0727 C   0  0  0  0  0  0  0  0  0  0  0  0
   20.2543   -0.0333   39.9979 C   0  0  0  0  0  0  0  0  0  0  0  0
   21.4365   -0.2315   39.0354 C   0  0  0  0  0  0  0  0  0  0  0  0
   22.6702   -0.6618   39.8743 C   0  0  0  0  0  0  0  0  0  0  0  0
   23.7879   -0.1724   39.8081 O   0  0  0  0  0  0  0  0  0  0  0  0
   22.4200   -1.6686   40.7349 O   0  0  0  0  0  0  0  0  0  0  0  0
   21.5617   -2.0415   40.7830 H   0  0  0  0  0  0  0  0  0  0  0  0
   21.0072    3.3536   41.3425 O   0  0  0  0  0  0  0  0  0  0  0  0
   21.8748    3.7753   42.3888 C   0  0  0  0  0  0  0  0  0  0  0  0
   21.0201    0.3146   42.2124 O   0  0  0  0  0  0  0  0  0  0  0  0
   20.0158   -0.3270   42.9916 C   0  0  0  0  0  0  0  0  0  0  0  0
   21.0364   -1.2690   38.1174 O   0  0  0  0  0  0  0  0  0  0  0  0
   19.9761   -2.1134   38.5543 C   0  0  0  0  0  0  0  0  0  0  0  0
   20.9551    1.3055   36.9385 C   0  0  0  0  0  0  0  0  0  0  0  0
   16.9129    2.8599   37.1477 C   0  0  0  0  0  0  0  0  0  0  0  0
   17.4626    2.4875   35.9229 C   0  0  0  0  0  0  0  0  0  0  0  0
   18.7707    1.9927   35.8590 C   0  0  0  0  0  0  0  0  0  0  0  0
   19.5473    1.8520   37.0171 C   0  0  0  0  0  0  0  0  0  0  0  0
   18.9927    2.2454   38.2402 C   0  0  0  0  0  0  0  0  0  0  0  0
   17.6867    2.7390   38.3023 C   0  0  0  0  0  0  0  0  0  0  0  0
   14.9275    2.8233   38.4524 C   0  0  0  0  0  0  0  0  0  0  0  0
   15.6534    3.3523   37.3502 O   0  0  0  0  0  0  0  0  0  0  0  0
 25 26  1  0
 26 19  1  0
 19 20  2  0
 20 21  1  0
 21 22  2  0
 22 18  1  0
  1 18  1  0
  1  2  1  0
  2  3  2  0
  2  4  1  0
  4 12  1  0
 12 13  1  0
  4  5  1  0
  5 14  1  0
 14 15  1  0
  5  6  1  0
  6  7  1  0
  7 16  1  0
 16 17  1  0
  7  8  1  0
  8  9  2  0
  8 10  1  0
 22 23  1  0
 23 24  2  0
 24 19  1  0
  7  1  1  0
 10 11  1  0
M  END
> <minimizedAffinity>
-5.81923

> <CNNscore>
0.3108342588

> <CNNaffinity>
3.8768184185

> <CNN_VS>
1.2050479650

> <CNNaffinity_variance>
0.7680757642

$$$$



 26 27  0  0  0  0  0  0  0  0999 V2000
   10.3848   -7.6938   33.8660 C   0  0  0  0  0  0  0  0  0  0  0  0
    9.0770   -8.4553   33.6475 C   0  0  0  0  0  0  0  0  0  0  0  0
    8.6784   -8.6617   32.4950 O   0  0  0  0  0  0  0  0  0  0  0  0
    8.2154   -8.8302   34.8613 C   0  0  0  0  0  0  0  0  0  0  0  0
    9.0516   -9.4057   36.0227 C   0  0  0  0  0  0  0  0  0  0  0  0
   10.5328   -9.0192   36.0160 C   0  0  0  0  0  0  0  0  0  0  0  0
   10.8284   -7.6629   35.3552 C   0  0  0  0  0  0  0  0  0  0  0  0
   10.0508   -6.5697   36.1368 C   0  0  0  0  0  0  0  0  0  0  0  0
   10.0896   -6.3878   37.3445 O   0  0  0  0  0  0  0  0  0  0  0  0
    9.2837   -5.7828   35.3562 O   0  0  0  0  0  0  0  0  0  0  0  0
    9.2564   -5.9252   34.4305 H   0  0  0  0  0  0  0  0  0  0  0  0
    7.2001   -9.7973   34.5554 O   0  0  0  0  0  0  0  0  0  0  0  0
    5.9080   -9.4242   35.0206 C   0  0  0  0  0  0  0  0  0  0  0  0
    8.5342   -8.9207   37.2838 O   0  0  0  0  0  0  0  0  0  0  0  0
    8.2559   -9.9603   38.2162 C   0  0  0  0  0  0  0  0  0  0  0  0
   12.2537   -7.4696   35.4572 O   0  0  0  0  0  0  0  0  0  0  0  0
   12.9215   -8.2585   36.4369 C   0  0  0  0  0  0  0  0  0  0  0  0
   11.4458   -8.1806   32.8369 C   0  0  0  0  0  0  0  0  0  0  0  0
   12.9108   -5.3113   29.9352 C   0  0  0  0  0  0  0  0  0  0  0  0
   12.4750   -6.5693   29.5247 C   0  0  0  0  0  0  0  0  0  0  0  0
   12.0093   -7.4953   30.4659 C   0  0  0  0  0  0  0  0  0  0  0  0
   11.9615   -7.1773   31.8299 C   0  0  0  0  0  0  0  0  0  0  0  0
   12.4181   -5.9177   32.2343 C   0  0  0  0  0  0  0  0  0  0  0  0
   12.8825   -4.9944   31.2936 C   0  0  0  0  0  0  0  0  0  0  0  0
   12.6996   -4.1125   27.8947 C   0  0  0  0  0  0  0  0  0  0  0  0
   13.3840   -4.3173   29.1240 O   0  0  0  0  0  0  0  0  0  0  0  0
 25 26  1  0
 26 19  1  0
 19 20  2  0
 20 21  1  0
 21 22  2  0
 22 18  1  0
  1 18  1  0
  1  2  1  0
  2  3  2  0
  2  4  1  0
  4 12  1  0
 12 13  1  0
  4  5  1  0
  5 14  1  0
 14 15  1  0
  5  6  1  0
  6  7  1  0
  7 16  1  0
 16 17  1  0
  7  8  1  0
  8  9  2  0
  8 10  1  0
 22 23  1  0
 23 24  2  0
 24 19  1  0
  7  1  1  0
 10 11  1  0
M  END
> <minimizedAffinity>
-4.33877

> <CNNscore>
0.2399268746

> <CNNaffinity>
4.0807209015

> <CNN_VS>
0.9790745974

> <CNNaffinity_variance>
0.2678356767

$$$$



 26 27  0  0  0  0  0  0  0  0999 V2000
   21.9369   -0.3782   40.4711 C   0  0  0  0  0  0  0  0  0  0  0  0
   20.6354   -0.1998   41.2536 C   0  0  0  0  0  0  0  0  0  0  0  0
   20.3826    0.8941   41.7726 O   0  0  0  0  0  0  0  0  0  0  0  0
   19.7326   -1.4174   41.4956 C   0  0  0  0  0  0  0  0  0  0  0  0
   19.5511   -2.2779   40.2283 C   0  0  0  0  0  0  0  0  0  0  0  0
   20.6512   -2.1291   39.1741 C   0  0  0  0  0  0  0  0  0  0  0  0
   22.0268   -1.7500   39.7462 C   0  0  0  0  0  0  0  0  0  0  0  0
   22.4582   -2.8662   40.7356 C   0  0  0  0  0  0  0  0  0  0  0  0
   22.4772   -4.0649   40.4995 O   0  0  0  0  0  0  0  0  0  0  0  0
   22.8357   -2.4066   41.9452 O   0  0  0  0  0  0  0  0  0  0  0  0
   22.8198   -1.4866   42.1227 H   0  0  0  0  0  0  0  0  0  0  0  0
   18.4195   -1.0638   41.9545 O   0  0  0  0  0  0  0  0  0  0  0  0
   18.3193   -0.9893   43.3721 C   0  0  0  0  0  0  0  0  0  0  0  0
   19.5498   -3.6797   40.5862 O   0  0  0  0  0  0  0  0  0  0  0  0
   19.2984   -3.9082   41.9690 C   0  0  0  0  0  0  0  0  0  0  0  0
   22.9221   -1.6715   38.6185 O   0  0  0  0  0  0  0  0  0  0  0  0
   24.3044   -1.8580   38.9056 C   0  0  0  0  0  0  0  0  0  0  0  0
   22.1940    0.8847   39.5987 C   0  0  0  0  0  0  0  0  0  0  0  0
   19.2404    1.9078   36.5940 C   0  0  0  0  0  0  0  0  0  0  0  0
   19.0936    2.3510   37.9067 C   0  0  0  0  0  0  0  0  0  0  0  0
   20.0461    2.0124   38.8753 C   0  0  0  0  0  0  0  0  0  0  0  0
   21.1651    1.2350   38.5475 C   0  0  0  0  0  0  0  0  0  0  0  0
   21.2944    0.7797   37.2305 C   0  0  0  0  0  0  0  0  0  0  0  0
   20.3428    1.1187   36.2647 C   0  0  0  0  0  0  0  0  0  0  0  0
   17.1055    2.6771   35.8901 C   0  0  0  0  0  0  0  0  0  0  0  0
   18.3899    2.1675   35.5552 O   0  0  0  0  0  0  0  0  0  0  0  0
 25 26  1  0
 26 19  1  0
 19 20  2  0
 20 21  1  0
 21 22  2  0
 22 18  1  0
  1 18  1  0
  1  2  1  0
  2  3  2  0
  2  4  1  0
  4 12  1  0
 12 13  1  0
  4  5  1  0
  5 14  1  0
 14 15  1  0
  5  6  1  0
  6  7  1  0
  7 16  1  0
 16 17  1  0
  7  8  1  0
  8  9  2  0
  8 10  1  0
 22 23  1  0
 23 24  2  0
 24 19  1  0
  7  1  1  0
 10 11  1  0
M  END
> <minimizedAffinity>
-5.45501

> <CNNscore>
0.2232254446

> <CNNaffinity>
3.1117031574

> <CNN_VS>
0.6946113110

> <CNNaffinity_variance>
1.4631344080

$$$$



 26 27  0  0  0  0  0  0  0  0999 V2000
   18.5944    1.9044   39.0286 C   0  0  0  0  0  0  0  0  0  0  0  0
   19.7740    1.2428   38.3153 C   0  0  0  0  0  0  0  0  0  0  0  0
   19.6961    1.0037   37.1042 O   0  0  0  0  0  0  0  0  0  0  0  0
   20.9772    0.7648   39.1399 C   0  0  0  0  0  0  0  0  0  0  0  0
   21.4237    1.8044   40.1884 C   0  0  0  0  0  0  0  0  0  0  0  0
   20.3516    2.8148   40.6049 C   0  0  0  0  0  0  0  0  0  0  0  0
   18.9117    2.2862   40.5014 C   0  0  0  0  0  0  0  0  0  0  0  0
   18.7888    1.0467   41.4283 C   0  0  0  0  0  0  0  0  0  0  0  0
   18.2565   -0.0145   41.1390 O   0  0  0  0  0  0  0  0  0  0  0  0
   19.3395    1.2199   42.6463 O   0  0  0  0  0  0  0  0  0  0  0  0
   19.7468    2.0349   42.8647 H   0  0  0  0  0  0  0  0  0  0  0  0
   22.1262    0.4589   38.3362 O   0  0  0  0  0  0  0  0  0  0  0  0
   22.7861   -0.7390   38.7297 C   0  0  0  0  0  0  0  0  0  0  0  0
   21.8112    1.1312   41.4089 O   0  0  0  0  0  0  0  0  0  0  0  0
   22.9584    1.7035   42.0286 C   0  0  0  0  0  0  0  0  0  0  0  0
   18.0577    3.3607   40.9434 O   0  0  0  0  0  0  0  0  0  0  0  0
   16.9003    2.9754   41.6783 C   0  0  0  0  0  0  0  0  0  0  0  0
   18.0128    3.0339   38.1299 C   0  0  0  0  0  0  0  0  0  0  0  0
   14.0231    2.4733   36.5276 C   0  0  0  0  0  0  0  0  0  0  0  0
   15.1423    2.1885   35.7483 C   0  0  0  0  0  0  0  0  0  0  0  0
   16.4288    2.3777   36.2673 C   0  0  0  0  0  0  0  0  0  0  0  0
   16.6190    2.8441   37.5751 C   0  0  0  0  0  0  0  0  0  0  0  0
   15.4887    3.1443   38.3438 C   0  0  0  0  0  0  0  0  0  0  0  0
   14.2052    2.9548   37.8244 C   0  0  0  0  0  0  0  0  0  0  0  0
   11.7741    2.0660   37.1766 C   0  0  0  0  0  0  0  0  0  0  0  0
   12.7175    2.3311   36.1465 O   0  0  0  0  0  0  0  0  0  0  0  0
 25 26  1  0
 26 19  1  0
 19 20  2  0
 20 21  1  0
 21 22  2  0
 22 18  1  0
  1 18  1  0
  1  2  1  0
  2  3  2  0
  2  4  1  0
  4 12  1  0
 12 13  1  0
  4  5  1  0
  5 14  1  0
 14 15  1  0
  5  6  1  0
  6  7  1  0
  7 16  1  0
 16 17  1  0
  7  8  1  0
  8  9  2  0
  8 10  1  0
 22 23  1  0
 23 24  2  0
 24 19  1  0
  7  1  1  0
 10 11  1  0
M  END
> <minimizedAffinity>
-6.70385

> <CNNscore>
0.2188545167

> <CNNaffinity>
3.7080123425

> <CNN_VS>
0.8115152717

> <CNNaffinity_variance>
1.0362396240

$$$$



 26 27  0  0  0  0  0  0  0  0999 V2000
   17.8893    8.2836   45.1342 C   0  0  0  0  0  0  0  0  0  0  0  0
   17.6086    6.7937   44.9359 C   0  0  0  0  0  0  0  0  0  0  0  0
   18.3940    6.1103   44.2682 O   0  0  0  0  0  0  0  0  0  0  0  0
   16.2897    6.2033   45.4535 C   0  0  0  0  0  0  0  0  0  0  0  0
   15.9445    6.6891   46.8763 C   0  0  0  0  0  0  0  0  0  0  0  0
   16.6031    8.0061   47.2952 C   0  0  0  0  0  0  0  0  0  0  0  0
   16.9046    8.9603   46.1282 C   0  0  0  0  0  0  0  0  0  0  0  0
   15.5614    9.2976   45.4259 C   0  0  0  0  0  0  0  0  0  0  0  0
   14.5088    9.5678   45.9846 O   0  0  0  0  0  0  0  0  0  0  0  0
   15.6292    9.2751   44.0799 O   0  0  0  0  0  0  0  0  0  0  0  0
   16.4381    9.0675   43.6550 H   0  0  0  0  0  0  0  0  0  0  0  0
   16.2888    4.7686   45.4881 O   0  0  0  0  0  0  0  0  0  0  0  0
   15.6211    4.1787   44.3784 C   0  0  0  0  0  0  0  0  0  0  0  0
   14.5204    6.9222   46.9804 O   0  0  0  0  0  0  0  0  0  0  0  0
   13.7796    5.7503   47.3051 C   0  0  0  0  0  0  0  0  0  0  0  0
   17.5013   10.1348   46.7147 O   0  0  0  0  0  0  0  0  0  0  0  0
   17.4109   11.3303   45.9461 C   0  0  0  0  0  0  0  0  0  0  0  0
   19.4063    8.4926   45.4113 C   0  0  0  0  0  0  0  0  0  0  0  0
   21.9596    9.4762   42.0479 C   0  0  0  0  0  0  0  0  0  0  0  0
   22.3778    8.5538   43.0046 C   0  0  0  0  0  0  0  0  0  0  0  0
   21.5531    8.2444   44.0928 C   0  0  0  0  0  0  0  0  0  0  0  0
   20.2941    8.8426   44.2383 C   0  0  0  0  0  0  0  0  0  0  0  0
   19.8905    9.7811   43.2819 C   0  0  0  0  0  0  0  0  0  0  0  0
   20.7148   10.0888   42.1961 C   0  0  0  0  0  0  0  0  0  0  0  0
   23.8009    9.0856   40.5980 C   0  0  0  0  0  0  0  0  0  0  0  0
   22.6619    9.8646   40.9407 O   0  0  0  0  0  0  0  0  0  0  0  0
 25 26  1  0
 26 19  1  0
 19 20  2  0
 20 21  1  0
 21 22  2  0
 22 18  1  0
  1 18  1  0
  1  2  1  0
  2  3  2  0
  2  4  1  0
  4 12  1  0
 12 13  1  0
  4  5  1  0
  5 14  1  0
 14 15  1  0
  5  6  1  0
  6  7  1  0
  7 16  1  0
 16 17  1  0
  7  8  1  0
  8  9  2  0
  8 10  1  0
 22 23  1  0
 23 24  2  0
 24 19  1  0
  7  1  1  0
 10 11  1  0
M  END
> <minimizedAffinity>
-4.23401

> <CNNscore>
0.2048171014

> <CNNaffinity>
3.1107683182

> <CNN_VS>
0.6371385455

> <CNNaffinity_variance>
0.8947135806

$$$$



 26 27  0  0  0  0  0  0  0  0999 V2000
   21.8528    1.7194   40.2611 C   0  0  0  0  0  0  0  0  0  0  0  0
   22.3128    2.7382   41.3043 C   0  0  0  0  0  0  0  0  0  0  0  0
   21.5368    3.6306   41.6666 O   0  0  0  0  0  0  0  0  0  0  0  0
   23.7716    2.7171   41.7812 C   0  0  0  0  0  0  0  0  0  0  0  0
   24.2726    1.2898   42.0830 C   0  0  0  0  0  0  0  0  0  0  0  0
   23.5061    0.1658   41.3810 C   0  0  0  0  0  0  0  0  0  0  0  0
   22.8782    0.5729   40.0381 C   0  0  0  0  0  0  0  0  0  0  0  0
   24.0219    1.0353   39.0953 C   0  0  0  0  0  0  0  0  0  0  0  0
   24.0237    2.0507   38.4154 O   0  0  0  0  0  0  0  0  0  0  0  0
   25.0793    0.1999   39.0703 O   0  0  0  0  0  0  0  0  0  0  0  0
   25.0744   -0.5778   39.5929 H   0  0  0  0  0  0  0  0  0  0  0  0
   23.9893    3.4976   42.9657 O   0  0  0  0  0  0  0  0  0  0  0  0
   23.8352    2.7520   44.1680 C   0  0  0  0  0  0  0  0  0  0  0  0
   25.6443    1.1509   41.6442 O   0  0  0  0  0  0  0  0  0  0  0  0
   26.4352    0.3462   42.5127 C   0  0  0  0  0  0  0  0  0  0  0  0
   22.2208   -0.6054   39.5295 O   0  0  0  0  0  0  0  0  0  0  0  0
   21.8859   -0.5843   38.1455 C   0  0  0  0  0  0  0  0  0  0  0  0
   20.3887    1.2897   40.5671 C   0  0  0  0  0  0  0  0  0  0  0  0
   17.2470    2.8572   38.0232 C   0  0  0  0  0  0  0  0  0  0  0  0
   17.0558    2.7577   39.3996 C   0  0  0  0  0  0  0  0  0  0  0  0
   18.0704    2.2444   40.2165 C   0  0  0  0  0  0  0  0  0  0  0  0
   19.2951    1.8319   39.6744 C   0  0  0  0  0  0  0  0  0  0  0  0
   19.4709    1.9191   38.2888 C   0  0  0  0  0  0  0  0  0  0  0  0
   18.4573    2.4319   37.4748 C   0  0  0  0  0  0  0  0  0  0  0  0
   15.0302    2.8005   37.1698 C   0  0  0  0  0  0  0  0  0  0  0  0
   16.3445    3.3403   37.1164 O   0  0  0  0  0  0  0  0  0  0  0  0
 25 26  1  0
 26 19  1  0
 19 20  2  0
 20 21  1  0
 21 22  2  0
 22 18  1  0
  1 18  1  0
  1  2  1  0
  2  3  2  0
  2  4  1  0
  4 12  1  0
 12 13  1  0
  4  5  1  0
  5 14  1  0
 14 15  1  0
  5  6  1  0
  6  7  1  0
  7 16  1  0
 16 17  1  0
  7  8  1  0
  8  9  2  0
  8 10  1  0
 22 23  1  0
 23 24  2  0
 24 19  1  0
  7  1  1  0
 10 11  1  0
M  END
> <minimizedAffinity>
-4.43669

> <CNNscore>
0.2011700124

> <CNNaffinity>
3.5418512821

> <CNN_VS>
0.7125142813

> <CNNaffinity_variance>
0.5890257955

$$$$



 26 27  0  0  0  0  0  0  0  0999 V2000
   20.2947    2.4511   40.1014 C   0  0  0  0  0  0  0  0  0  0  0  0
   20.5218    2.9493   41.5290 C   0  0  0  0  0  0  0  0  0  0  0  0
   19.5743    3.4263   42.1649 O   0  0  0  0  0  0  0  0  0  0  0  0
   21.9475    2.9736   42.0972 C   0  0  0  0  0  0  0  0  0  0  0  0
   22.7276    1.6792   41.7881 C   0  0  0  0  0  0  0  0  0  0  0  0
   22.2177    0.8800   40.5861 C   0  0  0  0  0  0  0  0  0  0  0  0
   21.5368    1.7332   39.5036 C   0  0  0  0  0  0  0  0  0  0  0  0
   22.5729    2.7679   38.9872 C   0  0  0  0  0  0  0  0  0  0  0  0
   23.6809    2.5109   38.5406 O   0  0  0  0  0  0  0  0  0  0  0  0
   22.1516    4.0460   39.0637 O   0  0  0  0  0  0  0  0  0  0  0  0
   21.3014    4.2394   39.4067 H   0  0  0  0  0  0  0  0  0  0  0  0
   21.9847    3.1565   43.5202 O   0  0  0  0  0  0  0  0  0  0  0  0
   22.5013    4.4234   43.9121 C   0  0  0  0  0  0  0  0  0  0  0  0
   24.1039    2.0007   41.4792 O   0  0  0  0  0  0  0  0  0  0  0  0
   24.9486    0.8563   41.4116 C   0  0  0  0  0  0  0  0  0  0  0  0
   21.1424    0.8181   38.4613 O   0  0  0  0  0  0  0  0  0  0  0  0
   21.0342    1.3716   37.1536 C   0  0  0  0  0  0  0  0  0  0  0  0
   18.9465    1.6769   40.0312 C   0  0  0  0  0  0  0  0  0  0  0  0
   15.5223    3.7283   38.3384 C   0  0  0  0  0  0  0  0  0  0  0  0
   16.5652    3.3024   37.5187 C   0  0  0  0  0  0  0  0  0  0  0  0
   17.6723    2.6466   38.0704 C   0  0  0  0  0  0  0  0  0  0  0  0
   17.7516    2.3963   39.4471 C   0  0  0  0  0  0  0  0  0  0  0  0
   16.7075    2.8437   40.2644 C   0  0  0  0  0  0  0  0  0  0  0  0
   15.6030    3.4981   39.7121 C   0  0  0  0  0  0  0  0  0  0  0  0
   13.2247    3.5761   37.7525 C   0  0  0  0  0  0  0  0  0  0  0  0
   14.3880    4.3741   37.9306 O   0  0  0  0  0  0  0  0  0  0  0  0
 25 26  1  0
 26 19  1  0
 19 20  2  0
 20 21  1  0
 21 22  2  0
 22 18  1  0
  1 18  1  0
  1  2  1  0
  2  3  2  0
  2  4  1  0
  4 12  1  0
 12 13  1  0
  4  5  1  0
  5 14  1  0
 14 15  1  0
  5  6  1  0
  6  7  1  0
  7 16  1  0
 16 17  1  0
  7  8  1  0
  8  9  2  0
  8 10  1  0
 22 23  1  0
 23 24  2  0
 24 19  1  0
  7  1  1  0
 10 11  1  0
M  END
> <minimizedAffinity>
-5.45508

> <CNNscore>
0.2008439451

> <CNNaffinity>
3.0216739178

> <CNN_VS>
0.6068848968

> <CNNaffinity_variance>
1.4852609634

$$$$



 26 27  0  0  0  0  0  0  0  0999 V2000
   19.8830   -1.6561   40.0350 C   0  0  0  0  0  0  0  0  0  0  0  0
   20.7482   -2.6003   40.8703 C   0  0  0  0  0  0  0  0  0  0  0  0
   21.2990   -3.5638   40.3243 O   0  0  0  0  0  0  0  0  0  0  0  0
   20.8072   -2.4143   42.3928 C   0  0  0  0  0  0  0  0  0  0  0  0
   20.9767   -0.9362   42.8000 C   0  0  0  0  0  0  0  0  0  0  0  0
   20.5250    0.0860   41.7537 C   0  0  0  0  0  0  0  0  0  0  0  0
   19.4009   -0.4107   40.8300 C   0  0  0  0  0  0  0  0  0  0  0  0
   18.1753   -0.7653   41.7149 C   0  0  0  0  0  0  0  0  0  0  0  0
   17.7236   -0.0809   42.6208 O   0  0  0  0  0  0  0  0  0  0  0  0
   17.6021   -1.9452   41.4048 O   0  0  0  0  0  0  0  0  0  0  0  0
   17.9512   -2.4673   40.7095 H   0  0  0  0  0  0  0  0  0  0  0  0
   21.8775   -3.1450   43.0094 O   0  0  0  0  0  0  0  0  0  0  0  0
   21.4367   -4.0432   44.0215 C   0  0  0  0  0  0  0  0  0  0  0  0
   20.1804   -0.6593   43.9757 O   0  0  0  0  0  0  0  0  0  0  0  0
   20.5575    0.5412   44.6422 C   0  0  0  0  0  0  0  0  0  0  0  0
   19.1058    0.6809   39.9352 O   0  0  0  0  0  0  0  0  0  0  0  0
   19.3655    1.9875   40.4385 C   0  0  0  0  0  0  0  0  0  0  0  0
   20.5837   -1.3801   38.6731 C   0  0  0  0  0  0  0  0  0  0  0  0
   24.0081    1.2794   38.6722 C   0  0  0  0  0  0  0  0  0  0  0  0
   22.8247    1.6535   38.0392 C   0  0  0  0  0  0  0  0  0  0  0  0
   21.7237    0.7886   38.0359 C   0  0  0  0  0  0  0  0  0  0  0  0
   21.7825   -0.4584   38.6726 C   0  0  0  0  0  0  0  0  0  0  0  0
   22.9813   -0.8325   39.2903 C   0  0  0  0  0  0  0  0  0  0  0  0
   24.0794    0.0319   39.2929 C   0  0  0  0  0  0  0  0  0  0  0  0
   25.3190    2.8179   39.9211 C   0  0  0  0  0  0  0  0  0  0  0  0
   25.1509    2.0261   38.7522 O   0  0  0  0  0  0  0  0  0  0  0  0
 25 26  1  0
 26 19  1  0
 19 20  2  0
 20 21  1  0
 21 22  2  0
 22 18  1  0
  1 18  1  0
  1  2  1  0
  2  3  2  0
  2  4  1  0
  4 12  1  0
 12 13  1  0
  4  5  1  0
  5 14  1  0
 14 15  1  0
  5  6  1  0
  6  7  1  0
  7 16  1  0
 16 17  1  0
  7  8  1  0
  8  9  2  0
  8 10  1  0
 22 23  1  0
 23 24  2  0
 24 19  1  0
  7  1  1  0
 10 11  1  0
M  END
> <minimizedAffinity>
-4.69019

> <CNNscore>
0.2001934648

> <CNNaffinity>
3.1895563602

> <CNN_VS>
0.6385283470

> <CNNaffinity_variance>
0.8582727313

$$$$
