


 32 35  0  0  0  0  0  0  0  0999 V2000
   -1.3736   -8.3673   40.6764 C   0  0  0  0  0  0  0  0  0  0  0  0
   -0.6965   -9.3841   41.3477 C   0  0  0  0  0  0  0  0  0  0  0  0
    0.0282  -10.3637   40.6604 C   0  0  0  0  0  0  0  0  0  0  0  0
    0.0623  -10.2936   39.2589 C   0  0  0  0  0  0  0  0  0  0  0  0
   -0.6158   -9.2926   38.5631 C   0  0  0  0  0  0  0  0  0  0  0  0
   -1.3402   -8.3157   39.2802 C   0  0  0  0  0  0  0  0  0  0  0  0
   -0.4031   -9.5271   37.1811 C   0  0  0  0  0  0  0  0  0  0  0  0
    0.3917  -10.6500   37.0410 C   0  0  0  0  0  0  0  0  0  0  0  0
    0.6953  -11.0873   38.3156 N   0  0  0  0  0  0  0  0  0  0  0  0
   -2.8289   -6.4933   40.8672 C   0  0  0  0  0  0  0  0  0  0  0  0
   -2.0302   -7.4894   41.4953 O   0  0  0  0  0  0  0  0  0  0  0  0
    0.8476  -11.2993   35.7733 C   0  0  0  0  0  0  0  0  0  0  0  0
    0.6115  -10.3277   34.7038 N   0  0  0  0  0  0  0  0  0  0  0  0
    0.0336   -9.5772   35.0822 H   0  0  0  0  0  0  0  0  0  0  0  0
    2.0017   -9.6313   34.0380 S   0  0  0  0  0  0  0  0  0  0  0  0
    3.1362  -10.4430   34.4051 O   0  0  0  0  0  0  0  0  0  0  0  0
    1.9221   -8.2168   34.3190 O   0  0  0  0  0  0  0  0  0  0  0  0
    1.8672   -9.7554   32.2558 C   0  0  0  0  0  0  0  0  0  0  0  0
    1.2632  -10.7220   31.4584 C   0  0  0  0  0  0  0  0  0  0  0  0
    1.4237  -10.3357   30.1058 C   0  0  0  0  0  0  0  0  0  0  0  0
    1.0464  -10.8584   28.8576 C   0  0  0  0  0  0  0  0  0  0  0  0
    1.3824  -10.1406   27.7005 C   0  0  0  0  0  0  0  0  0  0  0  0
    2.0726   -8.9278   27.7788 C   0  0  0  0  0  0  0  0  0  0  0  0
    2.4578   -8.3943   29.0128 C   0  0  0  0  0  0  0  0  0  0  0  0
    2.1165   -9.1354   30.1418 C   0  0  0  0  0  0  0  0  0  0  0  0
    2.4221   -8.8026   31.4222 O   0  0  0  0  0  0  0  0  0  0  0  0
    1.5614  -12.2094   38.6623 C   0  0  0  0  0  0  0  0  0  0  0  0
    2.5767  -12.4764   37.5460 C   0  0  0  0  0  0  0  0  0  0  0  0
    3.8081  -13.3132   37.9805 N   0  0  0  0  0  0  0  0  0  0  0  0
    4.3600  -12.8496   39.3228 C   0  0  0  0  0  0  0  0  0  0  0  0
    4.8994  -13.1192   36.9202 C   0  0  0  0  0  0  0  0  0  0  0  0
    3.4715  -14.7992   38.0457 C   0  0  0  0  0  0  0  0  0  0  0  0
 10 11  1  0
 11  1  1  0
  1  2  2  0
  2  3  1  0
  3  4  2  0
  4  5  1  0
  5  6  2  0
  5  7  1  0
  7  8  2  0
  8 12  1  0
 12 13  1  0
 13 15  1  0
 15 16  2  0
 15 17  2  0
 15 18  1  0
 18 19  2  0
 19 20  1  0
 20 21  2  0
 21 22  1  0
 22 23  2  0
 23 24  1  0
 24 25  2  0
 25 26  1  0
  8  9  1  0
  9 27  1  0
 27 28  1  0
 28 29  1  0
 29 30  1  0
 29 31  1  0
 29 32  1  0
  6  1  1  0
 26 18  1  0
  9  4  1  0
 25 20  1  0
 13 14  1  0
M  CHG 1  29   1
M  END
> <minimizedAffinity>
-9.99692

> <CNNscore>
0.7623812556

> <CNNaffinity>
6.5345282555

> <CNN_VS>
4.9818019867

> <CNNaffinity_variance>
0.3172864616

$$$$



 32 35  0  0  0  0  0  0  0  0999 V2000
   -1.1835   -8.5264   40.1637 C   0  0  0  0  0  0  0  0  0  0  0  0
   -0.4358   -9.5446   40.7529 C   0  0  0  0  0  0  0  0  0  0  0  0
    0.2937  -10.4596   39.9863 C   0  0  0  0  0  0  0  0  0  0  0  0
    0.2588  -10.3221   38.5898 C   0  0  0  0  0  0  0  0  0  0  0  0
   -0.4904   -9.3186   37.9754 C   0  0  0  0  0  0  0  0  0  0  0  0
   -1.2181   -8.4076   38.7716 C   0  0  0  0  0  0  0  0  0  0  0  0
   -0.3343   -9.4786   36.5753 C   0  0  0  0  0  0  0  0  0  0  0  0
    0.4968  -10.5595   36.3445 C   0  0  0  0  0  0  0  0  0  0  0  0
    0.8773  -11.0434   37.5810 N   0  0  0  0  0  0  0  0  0  0  0  0
   -2.5338   -6.5984   40.5182 C   0  0  0  0  0  0  0  0  0  0  0  0
   -1.8347   -7.7162   41.0535 O   0  0  0  0  0  0  0  0  0  0  0  0
    0.9175  -11.1288   35.0271 C   0  0  0  0  0  0  0  0  0  0  0  0
    0.5673  -10.1303   34.0152 N   0  0  0  0  0  0  0  0  0  0  0  0
   -0.0958   -9.4776   34.4332 H   0  0  0  0  0  0  0  0  0  0  0  0
    1.8646   -9.2353   33.4013 S   0  0  0  0  0  0  0  0  0  0  0  0
    3.0912   -9.8650   33.8254 O   0  0  0  0  0  0  0  0  0  0  0  0
    1.5609   -7.8477   33.6628 O   0  0  0  0  0  0  0  0  0  0  0  0
    1.8284   -9.3866   31.6165 C   0  0  0  0  0  0  0  0  0  0  0  0
    2.2282   -8.4977   30.6241 C   0  0  0  0  0  0  0  0  0  0  0  0
    2.0053   -9.1142   29.3692 C   0  0  0  0  0  0  0  0  0  0  0  0
    2.2015   -8.7599   28.0240 C   0  0  0  0  0  0  0  0  0  0  0  0
    1.8661   -9.6902   27.0295 C   0  0  0  0  0  0  0  0  0  0  0  0
    1.3524  -10.9470   27.3610 C   0  0  0  0  0  0  0  0  0  0  0  0
    1.1485  -11.3152   28.6947 C   0  0  0  0  0  0  0  0  0  0  0  0
    1.4837  -10.3659   29.6575 C   0  0  0  0  0  0  0  0  0  0  0  0
    1.3357  -10.5205   30.9984 O   0  0  0  0  0  0  0  0  0  0  0  0
    1.8024  -12.1435   37.8327 C   0  0  0  0  0  0  0  0  0  0  0  0
    2.2168  -12.8153   36.5192 C   0  0  0  0  0  0  0  0  0  0  0  0
    2.0658  -14.3589   36.5083 N   0  0  0  0  0  0  0  0  0  0  0  0
    1.2828  -14.8576   37.7164 C   0  0  0  0  0  0  0  0  0  0  0  0
    3.4741  -14.9641   36.5662 C   0  0  0  0  0  0  0  0  0  0  0  0
    1.3971  -14.8398   35.2249 C   0  0  0  0  0  0  0  0  0  0  0  0
 10 11  1  0
 11  1  1  0
  1  2  2  0
  2  3  1  0
  3  4  2  0
  4  5  1  0
  5  6  2  0
  5  7  1  0
  7  8  2  0
  8 12  1  0
 12 13  1  0
 13 15  1  0
 15 16  2  0
 15 17  2  0
 15 18  1  0
 18 19  2  0
 19 20  1  0
 20 21  2  0
 21 22  1  0
 22 23  2  0
 23 24  1  0
 24 25  2  0
 25 26  1  0
  8  9  1  0
  9 27  1  0
 27 28  1  0
 28 29  1  0
 29 30  1  0
 29 31  1  0
 29 32  1  0
  6  1  1  0
 26 18  1  0
  9  4  1  0
 25 20  1  0
 13 14  1  0
M  CHG 1  29   1
M  END
> <minimizedAffinity>
-9.61391

> <CNNscore>
0.5980235338

> <CNNaffinity>
6.4451594353

> <CNN_VS>
3.8543570042

> <CNNaffinity_variance>
0.2369307876

$$$$



 32 35  0  0  0  0  0  0  0  0999 V2000
    2.0380   -9.6299   29.0973 C   0  0  0  0  0  0  0  0  0  0  0  0
    3.3443   -9.3479   29.4936 C   0  0  0  0  0  0  0  0  0  0  0  0
    3.7962   -9.6243   30.7884 C   0  0  0  0  0  0  0  0  0  0  0  0
    2.8912  -10.2061   31.6900 C   0  0  0  0  0  0  0  0  0  0  0  0
    1.5757  -10.4879   31.3215 C   0  0  0  0  0  0  0  0  0  0  0  0
    1.1442  -10.1993   30.0085 C   0  0  0  0  0  0  0  0  0  0  0  0
    0.9307  -11.0338   32.4600 C   0  0  0  0  0  0  0  0  0  0  0  0
    1.8399  -11.0839   33.5007 C   0  0  0  0  0  0  0  0  0  0  0  0
    3.0392  -10.6075   33.0081 N   0  0  0  0  0  0  0  0  0  0  0  0
    1.6487  -10.3744   26.8702 C   0  0  0  0  0  0  0  0  0  0  0  0
    1.7582   -9.3018   27.7987 O   0  0  0  0  0  0  0  0  0  0  0  0
    1.6053  -11.5488   34.9027 C   0  0  0  0  0  0  0  0  0  0  0  0
    1.8948  -10.4058   35.7704 N   0  0  0  0  0  0  0  0  0  0  0  0
    2.6994   -9.9125   35.3836 H   0  0  0  0  0  0  0  0  0  0  0  0
    0.6341   -9.2917   35.9454 S   0  0  0  0  0  0  0  0  0  0  0  0
   -0.5088   -9.7811   35.2139 O   0  0  0  0  0  0  0  0  0  0  0  0
    1.2112   -7.9865   35.7225 O   0  0  0  0  0  0  0  0  0  0  0  0
    0.1484   -9.2924   37.6699 C   0  0  0  0  0  0  0  0  0  0  0  0
    0.4875  -10.1567   38.7058 C   0  0  0  0  0  0  0  0  0  0  0  0
   -0.1518   -9.6997   39.8834 C   0  0  0  0  0  0  0  0  0  0  0  0
   -0.2044  -10.1117   41.2255 C   0  0  0  0  0  0  0  0  0  0  0  0
   -0.9574   -9.3508   42.1318 C   0  0  0  0  0  0  0  0  0  0  0  0
   -1.6391   -8.2030   41.7182 C   0  0  0  0  0  0  0  0  0  0  0  0
   -1.5995   -7.7800   40.3858 C   0  0  0  0  0  0  0  0  0  0  0  0
   -0.8501   -8.5618   39.5097 C   0  0  0  0  0  0  0  0  0  0  0  0
   -0.7095   -8.3353   38.1783 O   0  0  0  0  0  0  0  0  0  0  0  0
    4.3037  -10.5320   33.7326 C   0  0  0  0  0  0  0  0  0  0  0  0
    5.2858  -11.5917   33.2218 C   0  0  0  0  0  0  0  0  0  0  0  0
    6.1589  -12.2467   34.3237 N   0  0  0  0  0  0  0  0  0  0  0  0
    5.3358  -12.6114   35.5529 C   0  0  0  0  0  0  0  0  0  0  0  0
    7.2216  -11.2236   34.7441 C   0  0  0  0  0  0  0  0  0  0  0  0
    6.8770  -13.4846   33.7969 C   0  0  0  0  0  0  0  0  0  0  0  0
 10 11  1  0
 11  1  1  0
  1  2  2  0
  2  3  1  0
  3  4  2  0
  4  5  1  0
  5  6  2  0
  5  7  1  0
  7  8  2  0
  8 12  1  0
 12 13  1  0
 13 15  1  0
 15 16  2  0
 15 17  2  0
 15 18  1  0
 18 19  2  0
 19 20  1  0
 20 21  2  0
 21 22  1  0
 22 23  2  0
 23 24  1  0
 24 25  2  0
 25 26  1  0
  8  9  1  0
  9 27  1  0
 27 28  1  0
 28 29  1  0
 29 30  1  0
 29 31  1  0
 29 32  1  0
  6  1  1  0
 26 18  1  0
  9  4  1  0
 25 20  1  0
 13 14  1  0
M  CHG 1  29   1
M  END
> <minimizedAffinity>
-8.74809

> <CNNscore>
0.4553354979

> <CNNaffinity>
6.4714322090

> <CNN_VS>
2.9466729164

> <CNNaffinity_variance>
0.0846067071

$$$$



 32 35  0  0  0  0  0  0  0  0999 V2000
   -0.2506  -10.0986   40.4901 C   0  0  0  0  0  0  0  0  0  0  0  0
    0.3718  -11.3300   40.2918 C   0  0  0  0  0  0  0  0  0  0  0  0
    1.0413  -11.6327   39.1013 C   0  0  0  0  0  0  0  0  0  0  0  0
    1.0766  -10.6503   38.0993 C   0  0  0  0  0  0  0  0  0  0  0  0
    0.4522   -9.4144   38.2688 C   0  0  0  0  0  0  0  0  0  0  0  0
   -0.2170   -9.1336   39.4798 C   0  0  0  0  0  0  0  0  0  0  0  0
    0.6493   -8.6793   37.0725 C   0  0  0  0  0  0  0  0  0  0  0  0
    1.3821   -9.4552   36.1932 C   0  0  0  0  0  0  0  0  0  0  0  0
    1.6640  -10.6405   36.8441 N   0  0  0  0  0  0  0  0  0  0  0  0
   -0.1975   -9.1482   42.6718 C   0  0  0  0  0  0  0  0  0  0  0  0
   -0.8573   -9.9620   41.7090 O   0  0  0  0  0  0  0  0  0  0  0  0
    1.7998   -9.1152   34.7980 C   0  0  0  0  0  0  0  0  0  0  0  0
    0.8175   -9.7388   33.9095 N   0  0  0  0  0  0  0  0  0  0  0  0
    0.4914   -9.0292   33.2533 H   0  0  0  0  0  0  0  0  0  0  0  0
    1.3848  -11.0569   33.0140 S   0  0  0  0  0  0  0  0  0  0  0  0
    0.3885  -12.0991   33.0599 O   0  0  0  0  0  0  0  0  0  0  0  0
    2.7568  -11.2613   33.4164 O   0  0  0  0  0  0  0  0  0  0  0  0
    1.4787  -10.5447   31.2998 C   0  0  0  0  0  0  0  0  0  0  0  0
    1.7570   -9.3021   30.7399 C   0  0  0  0  0  0  0  0  0  0  0  0
    1.7268   -9.4406   29.3312 C   0  0  0  0  0  0  0  0  0  0  0  0
    1.9274   -8.5901   28.2311 C   0  0  0  0  0  0  0  0  0  0  0  0
    1.8322   -9.1296   26.9400 C   0  0  0  0  0  0  0  0  0  0  0  0
    1.5498  -10.4842   26.7433 C   0  0  0  0  0  0  0  0  0  0  0  0
    1.3449  -11.3443   27.8268 C   0  0  0  0  0  0  0  0  0  0  0  0
    1.4381  -10.7758   29.0951 C   0  0  0  0  0  0  0  0  0  0  0  0
    1.2469  -11.4339   30.2673 O   0  0  0  0  0  0  0  0  0  0  0  0
    2.4688  -11.7422   36.3264 C   0  0  0  0  0  0  0  0  0  0  0  0
    2.5483  -12.8824   37.3471 C   0  0  0  0  0  0  0  0  0  0  0  0
    3.9800  -13.4218   37.6016 N   0  0  0  0  0  0  0  0  0  0  0  0
    4.5969  -12.8145   38.8555 C   0  0  0  0  0  0  0  0  0  0  0  0
    4.8467  -13.0248   36.3999 C   0  0  0  0  0  0  0  0  0  0  0  0
    3.9869  -14.9431   37.7072 C   0  0  0  0  0  0  0  0  0  0  0  0
 10 11  1  0
 11  1  1  0
  1  2  2  0
  2  3  1  0
  3  4  2  0
  4  5  1  0
  5  6  2  0
  5  7  1  0
  7  8  2  0
  8 12  1  0
 12 13  1  0
 13 15  1  0
 15 16  2  0
 15 17  2  0
 15 18  1  0
 18 19  2  0
 19 20  1  0
 20 21  2  0
 21 22  1  0
 22 23  2  0
 23 24  1  0
 24 25  2  0
 25 26  1  0
  8  9  1  0
  9 27  1  0
 27 28  1  0
 28 29  1  0
 29 30  1  0
 29 31  1  0
 29 32  1  0
  6  1  1  0
 26 18  1  0
  9  4  1  0
 25 20  1  0
 13 14  1  0
M  CHG 1  29   1
M  END
> <minimizedAffinity>
-8.18796

> <CNNscore>
0.4320703447

> <CNNaffinity>
6.1222624779

> <CNN_VS>
2.6452481747

> <CNNaffinity_variance>
0.4319442809

$$$$



 32 35  0  0  0  0  0  0  0  0999 V2000
    1.7447   -9.6634   28.8730 C   0  0  0  0  0  0  0  0  0  0  0  0
    1.7300  -11.0164   29.2081 C   0  0  0  0  0  0  0  0  0  0  0  0
    1.8031  -11.4458   30.5375 C   0  0  0  0  0  0  0  0  0  0  0  0
    1.8869  -10.4674   31.5404 C   0  0  0  0  0  0  0  0  0  0  0  0
    1.9144   -9.1075   31.2307 C   0  0  0  0  0  0  0  0  0  0  0  0
    1.8394   -8.7000   29.8810 C   0  0  0  0  0  0  0  0  0  0  0  0
    2.0331   -8.4025   32.4551 C   0  0  0  0  0  0  0  0  0  0  0  0
    2.0751   -9.3188   33.4898 C   0  0  0  0  0  0  0  0  0  0  0  0
    1.9516  -10.5714   32.9208 N   0  0  0  0  0  0  0  0  0  0  0  0
    1.6109  -10.5409   26.6643 C   0  0  0  0  0  0  0  0  0  0  0  0
    1.6628   -9.4130   27.5303 O   0  0  0  0  0  0  0  0  0  0  0  0
    2.2315   -9.0456   34.9519 C   0  0  0  0  0  0  0  0  0  0  0  0
    0.9890   -8.4053   35.3873 N   0  0  0  0  0  0  0  0  0  0  0  0
    0.6472   -7.8267   34.6200 H   0  0  0  0  0  0  0  0  0  0  0  0
   -0.2521   -9.4631   35.8365 S   0  0  0  0  0  0  0  0  0  0  0  0
    0.2242  -10.8153   35.6768 O   0  0  0  0  0  0  0  0  0  0  0  0
   -1.4538   -8.9720   35.2032 O   0  0  0  0  0  0  0  0  0  0  0  0
   -0.5357   -9.2482   37.5924 C   0  0  0  0  0  0  0  0  0  0  0  0
   -0.0500   -9.9633   38.6823 C   0  0  0  0  0  0  0  0  0  0  0  0
   -0.5648   -9.3689   39.8596 C   0  0  0  0  0  0  0  0  0  0  0  0
   -0.4482   -9.6032   41.2399 C   0  0  0  0  0  0  0  0  0  0  0  0
   -1.1175   -8.7452   42.1248 C   0  0  0  0  0  0  0  0  0  0  0  0
   -1.8814   -7.6745   41.6523 C   0  0  0  0  0  0  0  0  0  0  0  0
   -2.0101   -7.4282   40.2817 C   0  0  0  0  0  0  0  0  0  0  0  0
   -1.3402   -8.3031   39.4296 C   0  0  0  0  0  0  0  0  0  0  0  0
   -1.3617   -8.2496   38.0730 O   0  0  0  0  0  0  0  0  0  0  0  0
    1.8832  -11.8430   33.6336 C   0  0  0  0  0  0  0  0  0  0  0  0
    3.1326  -12.0491   34.4965 C   0  0  0  0  0  0  0  0  0  0  0  0
    2.9547  -13.0616   35.6579 N   0  0  0  0  0  0  0  0  0  0  0  0
    4.1987  -13.9192   35.8541 C   0  0  0  0  0  0  0  0  0  0  0  0
    1.7867  -13.9867   35.2933 C   0  0  0  0  0  0  0  0  0  0  0  0
    2.6059  -12.3516   36.9617 C   0  0  0  0  0  0  0  0  0  0  0  0
 10 11  1  0
 11  1  1  0
  1  2  2  0
  2  3  1  0
  3  4  2  0
  4  5  1  0
  5  6  2  0
  5  7  1  0
  7  8  2  0
  8 12  1  0
 12 13  1  0
 13 15  1  0
 15 16  2  0
 15 17  2  0
 15 18  1  0
 18 19  2  0
 19 20  1  0
 20 21  2  0
 21 22  1  0
 22 23  2  0
 23 24  1  0
 24 25  2  0
 25 26  1  0
  8  9  1  0
  9 27  1  0
 27 28  1  0
 28 29  1  0
 29 30  1  0
 29 31  1  0
 29 32  1  0
  6  1  1  0
 26 18  1  0
  9  4  1  0
 25 20  1  0
 13 14  1  0
M  CHG 1  29   1
M  END
> <minimizedAffinity>
-7.06109

> <CNNscore>
0.3984252512

> <CNNaffinity>
6.1623873711

> <CNN_VS>
2.4552507401

> <CNNaffinity_variance>
0.1321656853

$$$$



 32 35  0  0  0  0  0  0  0  0999 V2000
   -1.5995   -8.0534   40.7423 C   0  0  0  0  0  0  0  0  0  0  0  0
   -1.6725   -7.8174   39.3704 C   0  0  0  0  0  0  0  0  0  0  0  0
   -1.0006   -8.6265   38.4480 C   0  0  0  0  0  0  0  0  0  0  0  0
   -0.2452   -9.7007   38.9439 C   0  0  0  0  0  0  0  0  0  0  0  0
   -0.1472   -9.9516   40.3126 C   0  0  0  0  0  0  0  0  0  0  0  0
   -0.8349   -9.1200   41.2231 C   0  0  0  0  0  0  0  0  0  0  0  0
    0.7044  -11.0739   40.4717 C   0  0  0  0  0  0  0  0  0  0  0  0
    1.1145  -11.4977   39.2209 C   0  0  0  0  0  0  0  0  0  0  0  0
    0.5019  -10.6727   38.2977 N   0  0  0  0  0  0  0  0  0  0  0  0
   -3.2669   -6.3570   40.8312 C   0  0  0  0  0  0  0  0  0  0  0  0
   -2.3164   -7.1731   41.5060 O   0  0  0  0  0  0  0  0  0  0  0  0
    2.0457  -12.6208   38.8921 C   0  0  0  0  0  0  0  0  0  0  0  0
    1.3333  -13.4851   37.9492 N   0  0  0  0  0  0  0  0  0  0  0  0
    1.1143  -12.9331   37.1199 H   0  0  0  0  0  0  0  0  0  0  0  0
    2.1769  -14.8639   37.4510 S   0  0  0  0  0  0  0  0  0  0  0  0
    1.3668  -15.5679   36.4872 O   0  0  0  0  0  0  0  0  0  0  0  0
    2.6884  -15.4832   38.6514 O   0  0  0  0  0  0  0  0  0  0  0  0
    3.6310  -14.3147   36.5602 C   0  0  0  0  0  0  0  0  0  0  0  0
    4.8209  -14.9759   36.2738 C   0  0  0  0  0  0  0  0  0  0  0  0
    5.6386  -14.0982   35.5217 C   0  0  0  0  0  0  0  0  0  0  0  0
    6.9138  -14.1639   34.9356 C   0  0  0  0  0  0  0  0  0  0  0  0
    7.3821  -13.0509   34.2221 C   0  0  0  0  0  0  0  0  0  0  0  0
    6.6014  -11.8996   34.0874 C   0  0  0  0  0  0  0  0  0  0  0  0
    5.3311  -11.8163   34.6664 C   0  0  0  0  0  0  0  0  0  0  0  0
    4.8988  -12.9350   35.3750 C   0  0  0  0  0  0  0  0  0  0  0  0
    3.7137  -13.0413   36.0291 O   0  0  0  0  0  0  0  0  0  0  0  0
    0.5923  -10.7815   36.8453 C   0  0  0  0  0  0  0  0  0  0  0  0
    0.0903   -9.4993   36.1729 C   0  0  0  0  0  0  0  0  0  0  0  0
    1.1202   -8.8166   35.2355 N   0  0  0  0  0  0  0  0  0  0  0  0
    2.0846   -9.8266   34.6262 C   0  0  0  0  0  0  0  0  0  0  0  0
    1.9325   -7.8266   36.0799 C   0  0  0  0  0  0  0  0  0  0  0  0
    0.4247   -8.0330   34.1275 C   0  0  0  0  0  0  0  0  0  0  0  0
 10 11  1  0
 11  1  1  0
  1  2  2  0
  2  3  1  0
  3  4  2  0
  4  5  1  0
  5  6  2  0
  5  7  1  0
  7  8  2  0
  8 12  1  0
 12 13  1  0
 13 15  1  0
 15 16  2  0
 15 17  2  0
 15 18  1  0
 18 19  2  0
 19 20  1  0
 20 21  2  0
 21 22  1  0
 22 23  2  0
 23 24  1  0
 24 25  2  0
 25 26  1  0
  8  9  1  0
  9 27  1  0
 27 28  1  0
 28 29  1  0
 29 30  1  0
 29 31  1  0
 29 32  1  0
  6  1  1  0
 26 18  1  0
  9  4  1  0
 25 20  1  0
 13 14  1  0
M  CHG 1  29   1
M  END
> <minimizedAffinity>
-8.62947

> <CNNscore>
0.2773669660

> <CNNaffinity>
5.4863657951

> <CNN_VS>
1.5217366219

> <CNNaffinity_variance>
0.6108545065

$$$$



 32 35  0  0  0  0  0  0  0  0999 V2000
    1.9522   -9.5868   29.5271 C   0  0  0  0  0  0  0  0  0  0  0  0
    3.2040   -9.1807   29.9865 C   0  0  0  0  0  0  0  0  0  0  0  0
    3.6909   -9.5726   31.2381 C   0  0  0  0  0  0  0  0  0  0  0  0
    2.8794  -10.4010   32.0289 C   0  0  0  0  0  0  0  0  0  0  0  0
    1.6184  -10.8122   31.5967 C   0  0  0  0  0  0  0  0  0  0  0  0
    1.1499  -10.4029   30.3293 C   0  0  0  0  0  0  0  0  0  0  0  0
    1.0590  -11.6024   32.6325 C   0  0  0  0  0  0  0  0  0  0  0  0
    1.9658  -11.6709   33.6743 C   0  0  0  0  0  0  0  0  0  0  0  0
    3.0837  -10.9622   33.2795 N   0  0  0  0  0  0  0  0  0  0  0  0
    1.7690  -10.0252   27.1946 C   0  0  0  0  0  0  0  0  0  0  0  0
    1.6281   -9.1192   28.2827 O   0  0  0  0  0  0  0  0  0  0  0  0
    1.8006  -12.3608   34.9909 C   0  0  0  0  0  0  0  0  0  0  0  0
    1.6458  -11.3053   35.9935 N   0  0  0  0  0  0  0  0  0  0  0  0
    0.8236  -10.7545   35.7464 H   0  0  0  0  0  0  0  0  0  0  0  0
    1.4556  -11.8415   37.5864 S   0  0  0  0  0  0  0  0  0  0  0  0
    2.7536  -11.8647   38.2153 O   0  0  0  0  0  0  0  0  0  0  0  0
    0.5897  -12.9960   37.5260 O   0  0  0  0  0  0  0  0  0  0  0  0
    0.5082  -10.6002   38.4646 C   0  0  0  0  0  0  0  0  0  0  0  0
   -0.2626   -9.5447   37.9883 C   0  0  0  0  0  0  0  0  0  0  0  0
   -0.8198   -8.8726   39.1029 C   0  0  0  0  0  0  0  0  0  0  0  0
   -1.6692   -7.7697   39.2925 C   0  0  0  0  0  0  0  0  0  0  0  0
   -2.0267   -7.4156   40.6016 C   0  0  0  0  0  0  0  0  0  0  0  0
   -1.5570   -8.1422   41.6992 C   0  0  0  0  0  0  0  0  0  0  0  0
   -0.7089   -9.2410   41.5288 C   0  0  0  0  0  0  0  0  0  0  0  0
   -0.3663   -9.5615   40.2172 C   0  0  0  0  0  0  0  0  0  0  0  0
    0.4625  -10.5708   39.8457 O   0  0  0  0  0  0  0  0  0  0  0  0
    4.3240  -10.8114   34.0335 C   0  0  0  0  0  0  0  0  0  0  0  0
    5.4368  -11.6715   33.4251 C   0  0  0  0  0  0  0  0  0  0  0  0
    6.3737  -12.3429   34.4629 N   0  0  0  0  0  0  0  0  0  0  0  0
    6.9602  -13.6457   33.9336 C   0  0  0  0  0  0  0  0  0  0  0  0
    5.5352  -12.6644   35.7065 C   0  0  0  0  0  0  0  0  0  0  0  0
    7.4988  -11.4024   34.8817 C   0  0  0  0  0  0  0  0  0  0  0  0
 10 11  1  0
 11  1  1  0
  1  2  2  0
  2  3  1  0
  3  4  2  0
  4  5  1  0
  5  6  2  0
  5  7  1  0
  7  8  2  0
  8 12  1  0
 12 13  1  0
 13 15  1  0
 15 16  2  0
 15 17  2  0
 15 18  1  0
 18 19  2  0
 19 20  1  0
 20 21  2  0
 21 22  1  0
 22 23  2  0
 23 24  1  0
 24 25  2  0
 25 26  1  0
  8  9  1  0
  9 27  1  0
 27 28  1  0
 28 29  1  0
 29 30  1  0
 29 31  1  0
 29 32  1  0
  6  1  1  0
 26 18  1  0
  9  4  1  0
 25 20  1  0
 13 14  1  0
M  CHG 1  29   1
M  END
> <minimizedAffinity>
-8.16059

> <CNNscore>
0.2058690041

> <CNNaffinity>
5.6229777336

> <CNN_VS>
1.1575968266

> <CNNaffinity_variance>
0.5261828303

$$$$



 32 35  0  0  0  0  0  0  0  0999 V2000
   -0.0229   -9.9004   40.2823 C   0  0  0  0  0  0  0  0  0  0  0  0
   -0.7524   -9.2633   39.2798 C   0  0  0  0  0  0  0  0  0  0  0  0
   -0.5255   -9.5264   37.9247 C   0  0  0  0  0  0  0  0  0  0  0  0
    0.4644  -10.4652   37.5943 C   0  0  0  0  0  0  0  0  0  0  0  0
    1.2156  -11.1082   38.5783 C   0  0  0  0  0  0  0  0  0  0  0  0
    0.9673  -10.8250   39.9390 C   0  0  0  0  0  0  0  0  0  0  0  0
    2.1359  -11.9572   37.9130 C   0  0  0  0  0  0  0  0  0  0  0  0
    1.9450  -11.8326   36.5491 C   0  0  0  0  0  0  0  0  0  0  0  0
    0.9014  -10.9457   36.3701 N   0  0  0  0  0  0  0  0  0  0  0  0
   -1.4532  -10.2329   42.1558 C   0  0  0  0  0  0  0  0  0  0  0  0
   -0.3702   -9.5333   41.5539 O   0  0  0  0  0  0  0  0  0  0  0  0
    2.7060  -12.5044   35.4508 C   0  0  0  0  0  0  0  0  0  0  0  0
    2.3775  -11.7830   34.2199 N   0  0  0  0  0  0  0  0  0  0  0  0
    1.5810  -11.1760   34.4137 H   0  0  0  0  0  0  0  0  0  0  0  0
    3.6209  -10.8267   33.5870 S   0  0  0  0  0  0  0  0  0  0  0  0
    4.8110  -11.6361   33.4895 O   0  0  0  0  0  0  0  0  0  0  0  0
    3.5772   -9.5749   34.3062 O   0  0  0  0  0  0  0  0  0  0  0  0
    3.1753  -10.4067   31.9033 C   0  0  0  0  0  0  0  0  0  0  0  0
    3.7299   -9.4829   31.0235 C   0  0  0  0  0  0  0  0  0  0  0  0
    3.0158   -9.5581   29.8033 C   0  0  0  0  0  0  0  0  0  0  0  0
    3.0849   -8.9175   28.5549 C   0  0  0  0  0  0  0  0  0  0  0  0
    2.1826   -9.3025   27.5525 C   0  0  0  0  0  0  0  0  0  0  0  0
    1.2358  -10.3050   27.7804 C   0  0  0  0  0  0  0  0  0  0  0  0
    1.1516  -10.9513   29.0178 C   0  0  0  0  0  0  0  0  0  0  0  0
    2.0560  -10.5401   29.9942 C   0  0  0  0  0  0  0  0  0  0  0  0
    2.1177  -11.0232   31.2617 O   0  0  0  0  0  0  0  0  0  0  0  0
    0.3075  -10.5535   35.0961 C   0  0  0  0  0  0  0  0  0  0  0  0
   -0.3862   -9.1925   35.2169 C   0  0  0  0  0  0  0  0  0  0  0  0
    0.2424   -8.0689   34.3521 N   0  0  0  0  0  0  0  0  0  0  0  0
    1.4218   -7.4088   35.0555 C   0  0  0  0  0  0  0  0  0  0  0  0
   -0.8358   -7.0027   34.1202 C   0  0  0  0  0  0  0  0  0  0  0  0
    0.6829   -8.5992   32.9919 C   0  0  0  0  0  0  0  0  0  0  0  0
 10 11  1  0
 11  1  1  0
  1  2  2  0
  2  3  1  0
  3  4  2  0
  4  5  1  0
  5  6  2  0
  5  7  1  0
  7  8  2  0
  8 12  1  0
 12 13  1  0
 13 15  1  0
 15 16  2  0
 15 17  2  0
 15 18  1  0
 18 19  2  0
 19 20  1  0
 20 21  2  0
 21 22  1  0
 22 23  2  0
 23 24  1  0
 24 25  2  0
 25 26  1  0
  8  9  1  0
  9 27  1  0
 27 28  1  0
 28 29  1  0
 29 30  1  0
 29 31  1  0
 29 32  1  0
  6  1  1  0
 26 18  1  0
  9  4  1  0
 25 20  1  0
 13 14  1  0
M  CHG 1  29   1
M  END
> <minimizedAffinity>
-7.26005

> <CNNscore>
0.1831416339

> <CNNaffinity>
5.8418350220

> <CNN_VS>
1.0698832273

> <CNNaffinity_variance>
0.5044376850

$$$$



 32 35  0  0  0  0  0  0  0  0999 V2000
   -1.0732   -8.7974   40.5687 C   0  0  0  0  0  0  0  0  0  0  0  0
   -1.3146   -8.3738   39.2628 C   0  0  0  0  0  0  0  0  0  0  0  0
   -0.7395   -9.0182   38.1623 C   0  0  0  0  0  0  0  0  0  0  0  0
    0.0936  -10.1209   38.4080 C   0  0  0  0  0  0  0  0  0  0  0  0
    0.3598  -10.5576   39.7059 C   0  0  0  0  0  0  0  0  0  0  0  0
   -0.2329   -9.8900   40.7996 C   0  0  0  0  0  0  0  0  0  0  0  0
    1.2493  -11.6569   39.6025 C   0  0  0  0  0  0  0  0  0  0  0  0
    1.5167  -11.8841   38.2649 C   0  0  0  0  0  0  0  0  0  0  0  0
    0.7800  -10.9623   37.5470 N   0  0  0  0  0  0  0  0  0  0  0  0
   -2.4998   -6.9627   41.0836 C   0  0  0  0  0  0  0  0  0  0  0  0
   -1.7136   -8.0620   41.5287 O   0  0  0  0  0  0  0  0  0  0  0  0
    2.4271  -12.9123   37.6728 C   0  0  0  0  0  0  0  0  0  0  0  0
    3.7920  -12.4812   37.9803 N   0  0  0  0  0  0  0  0  0  0  0  0
    3.7367  -11.7161   38.6526 H   0  0  0  0  0  0  0  0  0  0  0  0
    4.7998  -13.6747   38.6293 S   0  0  0  0  0  0  0  0  0  0  0  0
    4.4524  -14.9386   38.0269 O   0  0  0  0  0  0  0  0  0  0  0  0
    4.8148  -13.4613   40.0577 O   0  0  0  0  0  0  0  0  0  0  0  0
    6.4718  -13.3198   38.0926 C   0  0  0  0  0  0  0  0  0  0  0  0
    7.6961  -13.6761   38.6487 C   0  0  0  0  0  0  0  0  0  0  0  0
    8.7202  -13.1586   37.8193 C   0  0  0  0  0  0  0  0  0  0  0  0
   10.1249  -13.1785   37.8222 C   0  0  0  0  0  0  0  0  0  0  0  0
   10.8069  -12.5481   36.7711 C   0  0  0  0  0  0  0  0  0  0  0  0
   10.1116  -11.9164   35.7363 C   0  0  0  0  0  0  0  0  0  0  0  0
    8.7136  -11.8850   35.7190 C   0  0  0  0  0  0  0  0  0  0  0  0
    8.0668  -12.5127   36.7811 C   0  0  0  0  0  0  0  0  0  0  0  0
    6.7219  -12.5687   36.9596 O   0  0  0  0  0  0  0  0  0  0  0  0
    0.6989  -10.8622   36.0934 C   0  0  0  0  0  0  0  0  0  0  0  0
    0.0324   -9.5468   35.6765 C   0  0  0  0  0  0  0  0  0  0  0  0
    0.9412   -8.5948   34.8559 N   0  0  0  0  0  0  0  0  0  0  0  0
    1.9374   -7.8605   35.7448 C   0  0  0  0  0  0  0  0  0  0  0  0
    0.0372   -7.5524   34.1856 C   0  0  0  0  0  0  0  0  0  0  0  0
    1.6856   -9.3496   33.7597 C   0  0  0  0  0  0  0  0  0  0  0  0
 10 11  1  0
 11  1  1  0
  1  2  2  0
  2  3  1  0
  3  4  2  0
  4  5  1  0
  5  6  2  0
  5  7  1  0
  7  8  2  0
  8 12  1  0
 12 13  1  0
 13 15  1  0
 15 16  2  0
 15 17  2  0
 15 18  1  0
 18 19  2  0
 19 20  1  0
 20 21  2  0
 21 22  1  0
 22 23  2  0
 23 24  1  0
 24 25  2  0
 25 26  1  0
  8  9  1  0
  9 27  1  0
 27 28  1  0
 28 29  1  0
 29 30  1  0
 29 31  1  0
 29 32  1  0
  6  1  1  0
 26 18  1  0
  9  4  1  0
 25 20  1  0
 13 14  1  0
M  CHG 1  29   1
M  END
> <minimizedAffinity>
-9.31495

> <CNNscore>
0.1649194509

> <CNNaffinity>
5.3465600014

> <CNN_VS>
0.8817517161

> <CNNaffinity_variance>
0.8110475540

$$$$
