


 34 36  0  0  0  0  0  0  0  0999 V2000
    0.2279   30.1945    8.3375 C   0  0  0  0  0  0  0  0  0  0  0  0
    0.6189   28.8766    8.4316 C   0  0  0  0  0  0  0  0  0  0  0  0
    1.5897   28.3270    7.6760 N   0  0  0  0  0  0  0  0  0  0  0  0
    2.1716   29.1237    6.7715 C   0  0  0  0  0  0  0  0  0  0  0  0
    1.8621   30.4138    6.6097 N   0  0  0  0  0  0  0  0  0  0  0  0
    0.8888   30.9422    7.3738 C   0  0  0  0  0  0  0  0  0  0  0  0
    0.6444   32.3144    7.1851 N   0  0  0  0  0  0  0  0  0  0  0  0
    1.1343   32.8106    6.4901 H   0  0  0  0  0  0  0  0  0  0  0  0
   -0.0164   32.7787    7.7481 H   0  0  0  0  0  0  0  0  0  0  0  0
   -0.8502   30.7588    9.1779 C   0  0  0  0  0  0  0  0  0  0  0  0
   -0.9049   31.9608    9.4227 O   0  0  0  0  0  0  0  0  0  0  0  0
   -1.6588   29.2343   10.9777 C   0  0  0  0  0  0  0  0  0  0  0  0
   -2.6425   28.3978   11.5111 C   0  0  0  0  0  0  0  0  0  0  0  0
   -3.8324   28.1976   10.8075 C   0  0  0  0  0  0  0  0  0  0  0  0
   -5.0369   27.1619   11.4690 Cl  0  0  0  0  0  0  0  0  0  0  0  0
   -4.0435   28.8433    9.5897 C   0  0  0  0  0  0  0  0  0  0  0  0
   -5.1868   28.6655    8.9115 F   0  0  0  0  0  0  0  0  0  0  0  0
   -3.0708   29.6905    9.0720 C   0  0  0  0  0  0  0  0  0  0  0  0
   -3.2878   30.3172    7.9063 F   0  0  0  0  0  0  0  0  0  0  0  0
   -1.8819   29.8942    9.7661 C   0  0  0  0  0  0  0  0  0  0  0  0
    0.1424   28.2828   12.0570 C   0  0  0  0  0  0  0  0  0  0  0  0
   -0.5275   29.4955   11.7009 O   0  0  0  0  0  0  0  0  0  0  0  0
    3.1669   28.6416    5.9445 N   0  0  0  0  0  0  0  0  0  0  0  0
    3.7175   29.2559    5.4072 H   0  0  0  0  0  0  0  0  0  0  0  0
    3.3824   27.2020    5.8865 C   0  0  0  0  0  0  0  0  0  0  0  0
    4.3159   26.7172    7.0077 C   0  0  0  0  0  0  0  0  0  0  0  0
    5.7555   26.5692    6.5357 C   0  0  0  0  0  0  0  0  0  0  0  0
    5.8444   25.6229    5.4024 N   0  0  0  0  0  0  0  0  0  0  0  0
    4.6648   25.5253    4.5180 C   0  0  0  0  0  0  0  0  0  0  0  0
    3.9244   26.8541    4.4929 C   0  0  0  0  0  0  0  0  0  0  0  0
    6.8494   24.2735    5.5407 S   0  0  0  0  0  0  0  0  0  0  0  0
    5.8387   22.9815    4.8442 C   0  0  0  0  0  0  0  0  0  0  0  0
    7.9838   24.4662    4.6636 O   0  0  0  0  0  0  0  0  0  0  0  0
    7.0236   23.9867    6.9480 O   0  0  0  0  0  0  0  0  0  0  0  0
 21 22  1  0
 22 12  1  0
 12 13  2  0
 13 14  1  0
 14 15  1  0
 14 16  2  0
 16 17  1  0
 16 18  1  0
 18 19  1  0
 18 20  2  0
 20 10  1  0
 10 11  2  0
 10  1  1  0
  1  2  2  0
  2  3  1  0
  3  4  2  0
  4 23  1  0
 23 25  1  0
 25 26  1  0
 26 27  1  0
 27 28  1  0
 28 31  1  0
 31 32  1  0
 31 33  2  0
 31 34  2  0
 28 29  1  0
 29 30  1  0
  4  5  1  0
  5  6  2  0
  6  7  1  0
 20 12  1  0
  6  1  1  0
 30 25  1  0
 23 24  1  0
  7  8  1  0
  7  9  1  0
M  END
> <minimizedAffinity>
-8.72466

> <CNNscore>
0.9842548370

> <CNNaffinity>
7.8081359863

> <CNN_VS>
7.6851954460

> <CNNaffinity_variance>
0.0577411465

$$$$



 34 36  0  0  0  0  0  0  0  0999 V2000
    0.2180   29.9455    8.4187 C   0  0  0  0  0  0  0  0  0  0  0  0
    0.5769   28.6159    8.3765 C   0  0  0  0  0  0  0  0  0  0  0  0
    1.4648   28.1066    7.5002 N   0  0  0  0  0  0  0  0  0  0  0  0
    1.9921   28.9597    6.6139 C   0  0  0  0  0  0  0  0  0  0  0  0
    1.7080   30.2652    6.5798 N   0  0  0  0  0  0  0  0  0  0  0  0
    0.8176   30.7527    7.4630 C   0  0  0  0  0  0  0  0  0  0  0  0
    0.5985   32.1407    7.4030 N   0  0  0  0  0  0  0  0  0  0  0  0
    1.0428   32.6796    6.7092 H   0  0  0  0  0  0  0  0  0  0  0  0
    0.0007   32.5733    8.0547 H   0  0  0  0  0  0  0  0  0  0  0  0
   -0.7693   30.4650    9.3895 C   0  0  0  0  0  0  0  0  0  0  0  0
   -0.7037   31.6162    9.8115 O   0  0  0  0  0  0  0  0  0  0  0  0
   -3.1294   29.6626    9.3342 C   0  0  0  0  0  0  0  0  0  0  0  0
   -4.1528   28.8604    9.8452 C   0  0  0  0  0  0  0  0  0  0  0  0
   -3.8991   28.0371   10.9447 C   0  0  0  0  0  0  0  0  0  0  0  0
   -5.1664   27.0561   11.5711 Cl  0  0  0  0  0  0  0  0  0  0  0  0
   -2.6276   28.0032   11.5161 C   0  0  0  0  0  0  0  0  0  0  0  0
   -2.3714   27.2085   12.5656 F   0  0  0  0  0  0  0  0  0  0  0  0
   -1.6067   28.7877   10.9923 C   0  0  0  0  0  0  0  0  0  0  0  0
   -0.3837   28.7389   11.5403 F   0  0  0  0  0  0  0  0  0  0  0  0
   -1.8516   29.6117    9.8979 C   0  0  0  0  0  0  0  0  0  0  0  0
   -4.4660   29.8997    7.4708 C   0  0  0  0  0  0  0  0  0  0  0  0
   -3.3520   30.4089    8.2095 O   0  0  0  0  0  0  0  0  0  0  0  0
    2.9005   28.5229    5.6700 N   0  0  0  0  0  0  0  0  0  0  0  0
    2.6410   28.4322    4.7246 H   0  0  0  0  0  0  0  0  0  0  0  0
    4.2521   28.1996    6.1069 C   0  0  0  0  0  0  0  0  0  0  0  0
    4.8305   26.9999    5.3388 C   0  0  0  0  0  0  0  0  0  0  0  0
    4.6773   25.6950    6.1075 C   0  0  0  0  0  0  0  0  0  0  0  0
    5.3417   25.7785    7.4263 N   0  0  0  0  0  0  0  0  0  0  0  0
    5.4106   27.1127    8.0575 C   0  0  0  0  0  0  0  0  0  0  0  0
    4.2205   27.9543    7.6221 C   0  0  0  0  0  0  0  0  0  0  0  0
    6.5395   24.6529    7.8113 S   0  0  0  0  0  0  0  0  0  0  0  0
    7.1566   24.1985    6.2025 C   0  0  0  0  0  0  0  0  0  0  0  0
    7.5999   25.3464    8.5099 O   0  0  0  0  0  0  0  0  0  0  0  0
    5.8950   23.4897    8.3811 O   0  0  0  0  0  0  0  0  0  0  0  0
 21 22  1  0
 22 12  1  0
 12 13  2  0
 13 14  1  0
 14 15  1  0
 14 16  2  0
 16 17  1  0
 16 18  1  0
 18 19  1  0
 18 20  2  0
 20 10  1  0
 10 11  2  0
 10  1  1  0
  1  2  2  0
  2  3  1  0
  3  4  2  0
  4 23  1  0
 23 25  1  0
 25 26  1  0
 26 27  1  0
 27 28  1  0
 28 31  1  0
 31 32  1  0
 31 33  2  0
 31 34  2  0
 28 29  1  0
 29 30  1  0
  4  5  1  0
  5  6  2  0
  6  7  1  0
 20 12  1  0
  6  1  1  0
 30 25  1  0
 23 24  1  0
  7  8  1  0
  7  9  1  0
M  END
> <minimizedAffinity>
-8.64930

> <CNNscore>
0.9378896952

> <CNNaffinity>
7.7574467659

> <CNN_VS>
7.2756295204

> <CNNaffinity_variance>
0.0167325083

$$$$



 34 36  0  0  0  0  0  0  0  0999 V2000
   -0.5430   29.4671   10.0564 C   0  0  0  0  0  0  0  0  0  0  0  0
    0.4671   28.5453   10.2256 C   0  0  0  0  0  0  0  0  0  0  0  0
    1.4708   28.3633    9.3453 N   0  0  0  0  0  0  0  0  0  0  0  0
    1.4446   29.1162    8.2390 C   0  0  0  0  0  0  0  0  0  0  0  0
    0.5090   30.0375    7.9896 N   0  0  0  0  0  0  0  0  0  0  0  0
   -0.4851   30.2021    8.8813 C   0  0  0  0  0  0  0  0  0  0  0  0
   -1.4101   31.2180    8.5807 N   0  0  0  0  0  0  0  0  0  0  0  0
   -1.3354   31.7175    7.7356 H   0  0  0  0  0  0  0  0  0  0  0  0
   -2.1322   31.4298    9.2155 H   0  0  0  0  0  0  0  0  0  0  0  0
   -1.6343   29.6301   11.0411 C   0  0  0  0  0  0  0  0  0  0  0  0
   -1.7096   30.6302   11.7496 O   0  0  0  0  0  0  0  0  0  0  0  0
   -3.9393   28.7462   10.6911 C   0  0  0  0  0  0  0  0  0  0  0  0
   -4.9042   27.7554   10.8892 C   0  0  0  0  0  0  0  0  0  0  0  0
   -4.5870   26.6266   11.6483 C   0  0  0  0  0  0  0  0  0  0  0  0
   -5.7828   25.4134   11.8918 Cl  0  0  0  0  0  0  0  0  0  0  0  0
   -3.3098   26.4819   12.1888 C   0  0  0  0  0  0  0  0  0  0  0  0
   -2.9924   25.3970   12.9106 F   0  0  0  0  0  0  0  0  0  0  0  0
   -2.3463   27.4602   11.9727 C   0  0  0  0  0  0  0  0  0  0  0  0
   -1.1168   27.3065   12.4857 F   0  0  0  0  0  0  0  0  0  0  0  0
   -2.6548   28.5886   11.2188 C   0  0  0  0  0  0  0  0  0  0  0  0
   -4.3537   29.4002    8.5197 C   0  0  0  0  0  0  0  0  0  0  0  0
   -4.2208   29.8131    9.8827 O   0  0  0  0  0  0  0  0  0  0  0  0
    2.4257   28.9876    7.2757 N   0  0  0  0  0  0  0  0  0  0  0  0
    2.7863   29.7791    6.8146 H   0  0  0  0  0  0  0  0  0  0  0  0
    2.9140   27.6522    6.9584 C   0  0  0  0  0  0  0  0  0  0  0  0
    3.4177   26.9145    8.2097 C   0  0  0  0  0  0  0  0  0  0  0  0
    4.9280   27.0163    8.3701 C   0  0  0  0  0  0  0  0  0  0  0  0
    5.6226   26.4681    7.1848 N   0  0  0  0  0  0  0  0  0  0  0  0
    4.9150   26.5635    5.8912 C   0  0  0  0  0  0  0  0  0  0  0  0
    4.0053   27.7829    5.8865 C   0  0  0  0  0  0  0  0  0  0  0  0
    6.7318   25.2130    7.3947 S   0  0  0  0  0  0  0  0  0  0  0  0
    7.4614   25.0837    5.7741 C   0  0  0  0  0  0  0  0  0  0  0  0
    7.7596   25.6691    8.3052 O   0  0  0  0  0  0  0  0  0  0  0  0
    5.9898   23.9959    7.6426 O   0  0  0  0  0  0  0  0  0  0  0  0
 21 22  1  0
 22 12  1  0
 12 13  2  0
 13 14  1  0
 14 15  1  0
 14 16  2  0
 16 17  1  0
 16 18  1  0
 18 19  1  0
 18 20  2  0
 20 10  1  0
 10 11  2  0
 10  1  1  0
  1  2  2  0
  2  3  1  0
  3  4  2  0
  4 23  1  0
 23 25  1  0
 25 26  1  0
 26 27  1  0
 27 28  1  0
 28 31  1  0
 31 32  1  0
 31 33  2  0
 31 34  2  0
 28 29  1  0
 29 30  1  0
  4  5  1  0
  5  6  2  0
  6  7  1  0
 20 12  1  0
  6  1  1  0
 30 25  1  0
 23 24  1  0
  7  8  1  0
  7  9  1  0
M  END
> <minimizedAffinity>
-8.75067

> <CNNscore>
0.7490090132

> <CNNaffinity>
7.3241066933

> <CNN_VS>
5.4858217239

> <CNNaffinity_variance>
0.0296579208

$$$$



 34 36  0  0  0  0  0  0  0  0999 V2000
   -0.1831   28.6733   10.3399 C   0  0  0  0  0  0  0  0  0  0  0  0
   -0.4459   29.3730    9.1823 C   0  0  0  0  0  0  0  0  0  0  0  0
    0.3670   29.3766    8.1078 N   0  0  0  0  0  0  0  0  0  0  0  0
    1.5011   28.6729    8.2090 C   0  0  0  0  0  0  0  0  0  0  0  0
    1.8395   27.9611    9.2884 N   0  0  0  0  0  0  0  0  0  0  0  0
    1.0140   27.9724   10.3509 C   0  0  0  0  0  0  0  0  0  0  0  0
    1.4066   27.1671   11.4350 N   0  0  0  0  0  0  0  0  0  0  0  0
    2.2645   26.6851   11.4049 H   0  0  0  0  0  0  0  0  0  0  0  0
    0.8235   27.0853   12.2240 H   0  0  0  0  0  0  0  0  0  0  0  0
   -1.0958   28.7029   11.5032 C   0  0  0  0  0  0  0  0  0  0  0  0
   -0.8573   29.4036   12.4829 O   0  0  0  0  0  0  0  0  0  0  0  0
   -3.5131   28.3513   11.0033 C   0  0  0  0  0  0  0  0  0  0  0  0
   -4.6638   27.5611   11.0610 C   0  0  0  0  0  0  0  0  0  0  0  0
   -4.6114   26.3120   11.6840 C   0  0  0  0  0  0  0  0  0  0  0  0
   -6.0344   25.3471   11.7552 Cl  0  0  0  0  0  0  0  0  0  0  0  0
   -3.4134   25.8501   12.2282 C   0  0  0  0  0  0  0  0  0  0  0  0
   -3.3505   24.6480   12.8195 F   0  0  0  0  0  0  0  0  0  0  0  0
   -2.2659   26.6307   12.1511 C   0  0  0  0  0  0  0  0  0  0  0  0
   -1.1153   26.1728   12.6659 F   0  0  0  0  0  0  0  0  0  0  0  0
   -2.3101   27.8769   11.5333 C   0  0  0  0  0  0  0  0  0  0  0  0
   -3.9488   30.6080   11.1824 C   0  0  0  0  0  0  0  0  0  0  0  0
   -3.5407   29.5386   10.3245 O   0  0  0  0  0  0  0  0  0  0  0  0
    2.4000   28.6308    7.1617 N   0  0  0  0  0  0  0  0  0  0  0  0
    2.6159   29.4434    6.6496 H   0  0  0  0  0  0  0  0  0  0  0  0
    3.0213   27.3547    6.8330 C   0  0  0  0  0  0  0  0  0  0  0  0
    3.6426   26.6851    8.0697 C   0  0  0  0  0  0  0  0  0  0  0  0
    5.1371   26.9526    8.1805 C   0  0  0  0  0  0  0  0  0  0  0  0
    5.8492   26.4756    6.9750 N   0  0  0  0  0  0  0  0  0  0  0  0
    5.0944   26.4842    5.7047 C   0  0  0  0  0  0  0  0  0  0  0  0
    4.0569   27.5966    5.7257 C   0  0  0  0  0  0  0  0  0  0  0  0
    7.0953   25.3507    7.1528 S   0  0  0  0  0  0  0  0  0  0  0  0
    6.1977   23.8184    7.3006 C   0  0  0  0  0  0  0  0  0  0  0  0
    7.8410   25.3065    5.9136 O   0  0  0  0  0  0  0  0  0  0  0  0
    7.7492   25.6026    8.4185 O   0  0  0  0  0  0  0  0  0  0  0  0
 21 22  1  0
 22 12  1  0
 12 13  2  0
 13 14  1  0
 14 15  1  0
 14 16  2  0
 16 17  1  0
 16 18  1  0
 18 19  1  0
 18 20  2  0
 20 10  1  0
 10 11  2  0
 10  1  1  0
  1  2  2  0
  2  3  1  0
  3  4  2  0
  4 23  1  0
 23 25  1  0
 25 26  1  0
 26 27  1  0
 27 28  1  0
 28 31  1  0
 31 32  1  0
 31 33  2  0
 31 34  2  0
 28 29  1  0
 29 30  1  0
  4  5  1  0
  5  6  2  0
  6  7  1  0
 20 12  1  0
  6  1  1  0
 30 25  1  0
 23 24  1  0
  7  8  1  0
  7  9  1  0
M  END
> <minimizedAffinity>
-8.79176

> <CNNscore>
0.3183048964

> <CNNaffinity>
6.9102377892

> <CNN_VS>
2.1995625496

> <CNNaffinity_variance>
0.1247845590

$$$$



 34 36  0  0  0  0  0  0  0  0999 V2000
    1.0207   27.7971    8.5047 C   0  0  0  0  0  0  0  0  0  0  0  0
    1.2450   28.1841    7.2014 C   0  0  0  0  0  0  0  0  0  0  0  0
    2.4699   28.2805    6.6484 N   0  0  0  0  0  0  0  0  0  0  0  0
    3.5117   28.0045    7.4422 C   0  0  0  0  0  0  0  0  0  0  0  0
    3.3928   27.6183    8.7162 N   0  0  0  0  0  0  0  0  0  0  0  0
    2.1605   27.5299    9.2490 C   0  0  0  0  0  0  0  0  0  0  0  0
    2.1036   27.0745   10.5784 N   0  0  0  0  0  0  0  0  0  0  0  0
    2.9355   26.8959   11.0736 H   0  0  0  0  0  0  0  0  0  0  0  0
    1.2318   26.9343   11.0138 H   0  0  0  0  0  0  0  0  0  0  0  0
   -0.3395   27.7135    9.0791 C   0  0  0  0  0  0  0  0  0  0  0  0
   -0.9819   26.6675    9.0472 O   0  0  0  0  0  0  0  0  0  0  0  0
   -1.9642   28.7407   10.6673 C   0  0  0  0  0  0  0  0  0  0  0  0
   -2.5754   29.8685   11.2209 C   0  0  0  0  0  0  0  0  0  0  0  0
   -2.2191   31.1394   10.7640 C   0  0  0  0  0  0  0  0  0  0  0  0
   -2.9803   32.5230   11.4475 Cl  0  0  0  0  0  0  0  0  0  0  0  0
   -1.2463   31.2813    9.7750 C   0  0  0  0  0  0  0  0  0  0  0  0
   -0.8901   32.4978    9.3369 F   0  0  0  0  0  0  0  0  0  0  0  0
   -0.6261   30.1579    9.2409 C   0  0  0  0  0  0  0  0  0  0  0  0
    0.3174   30.3047    8.2992 F   0  0  0  0  0  0  0  0  0  0  0  0
   -0.9764   28.8880    9.6896 C   0  0  0  0  0  0  0  0  0  0  0  0
   -1.6944   27.3350   12.4745 C   0  0  0  0  0  0  0  0  0  0  0  0
   -2.2521   27.5005   11.1677 O   0  0  0  0  0  0  0  0  0  0  0  0
    4.8042   28.0902    6.9638 N   0  0  0  0  0  0  0  0  0  0  0  0
    5.3477   28.8958    7.1212 H   0  0  0  0  0  0  0  0  0  0  0  0
    5.3441   26.9595    6.2205 C   0  0  0  0  0  0  0  0  0  0  0  0
    5.1060   27.1023    4.7083 C   0  0  0  0  0  0  0  0  0  0  0  0
    3.8769   26.3341    4.2431 C   0  0  0  0  0  0  0  0  0  0  0  0
    3.9980   24.8968    4.5704 N   0  0  0  0  0  0  0  0  0  0  0  0
    4.7947   24.5473    5.7647 C   0  0  0  0  0  0  0  0  0  0  0  0
    4.7221   25.6740    6.7842 C   0  0  0  0  0  0  0  0  0  0  0  0
    3.8919   23.7626    3.3245 S   0  0  0  0  0  0  0  0  0  0  0  0
    5.5158   23.8538    2.5964 C   0  0  0  0  0  0  0  0  0  0  0  0
    3.7496   22.4520    3.9207 O   0  0  0  0  0  0  0  0  0  0  0  0
    2.9433   24.2552    2.3495 O   0  0  0  0  0  0  0  0  0  0  0  0
 21 22  1  0
 22 12  1  0
 12 13  2  0
 13 14  1  0
 14 15  1  0
 14 16  2  0
 16 17  1  0
 16 18  1  0
 18 19  1  0
 18 20  2  0
 20 10  1  0
 10 11  2  0
 10  1  1  0
  1  2  2  0
  2  3  1  0
  3  4  2  0
  4 23  1  0
 23 25  1  0
 25 26  1  0
 26 27  1  0
 27 28  1  0
 28 31  1  0
 31 32  1  0
 31 33  2  0
 31 34  2  0
 28 29  1  0
 29 30  1  0
  4  5  1  0
  5  6  2  0
  6  7  1  0
 20 12  1  0
  6  1  1  0
 30 25  1  0
 23 24  1  0
  7  8  1  0
  7  9  1  0
M  END
> <minimizedAffinity>
-8.72742

> <CNNscore>
0.2935969234

> <CNNaffinity>
6.5103702545

> <CNN_VS>
1.9114246368

> <CNNaffinity_variance>
0.6280907393

$$$$



 34 36  0  0  0  0  0  0  0  0999 V2000
    0.9696   28.0861    9.6675 C   0  0  0  0  0  0  0  0  0  0  0  0
    0.5587   28.6427    8.4760 C   0  0  0  0  0  0  0  0  0  0  0  0
    1.3088   28.6558    7.3567 N   0  0  0  0  0  0  0  0  0  0  0  0
    2.5295   28.1139    7.4443 C   0  0  0  0  0  0  0  0  0  0  0  0
    3.0130   27.5481    8.5544 N   0  0  0  0  0  0  0  0  0  0  0  0
    2.2479   27.5471    9.6612 C   0  0  0  0  0  0  0  0  0  0  0  0
    2.7976   26.8962   10.7802 N   0  0  0  0  0  0  0  0  0  0  0  0
    3.7090   26.5266   10.7363 H   0  0  0  0  0  0  0  0  0  0  0  0
    2.2709   26.8101   11.6076 H   0  0  0  0  0  0  0  0  0  0  0  0
    0.1209   28.1008   10.8785 C   0  0  0  0  0  0  0  0  0  0  0  0
    0.5346   27.6721   11.9523 O   0  0  0  0  0  0  0  0  0  0  0  0
   -1.5093   29.9837   10.7592 C   0  0  0  0  0  0  0  0  0  0  0  0
   -2.8252   30.4526   10.7382 C   0  0  0  0  0  0  0  0  0  0  0  0
   -3.8821   29.5437   10.8273 C   0  0  0  0  0  0  0  0  0  0  0  0
   -5.4998   30.1299   10.8058 Cl  0  0  0  0  0  0  0  0  0  0  0  0
   -3.6245   28.1762   10.9181 C   0  0  0  0  0  0  0  0  0  0  0  0
   -4.6326   27.2949   10.9939 F   0  0  0  0  0  0  0  0  0  0  0  0
   -2.3143   27.7121   10.9184 C   0  0  0  0  0  0  0  0  0  0  0  0
   -2.0765   26.3944   10.9932 F   0  0  0  0  0  0  0  0  0  0  0  0
   -1.2557   28.6112   10.8314 C   0  0  0  0  0  0  0  0  0  0  0  0
   -0.8481   31.9300    9.7154 C   0  0  0  0  0  0  0  0  0  0  0  0
   -0.4747   30.8628   10.5917 O   0  0  0  0  0  0  0  0  0  0  0  0
    3.3722   28.0952    6.3505 N   0  0  0  0  0  0  0  0  0  0  0  0
    3.7754   28.9265    6.0104 H   0  0  0  0  0  0  0  0  0  0  0  0
    3.6501   26.8156    5.7120 C   0  0  0  0  0  0  0  0  0  0  0  0
    4.4790   25.8913    6.6190 C   0  0  0  0  0  0  0  0  0  0  0  0
    5.9651   25.9460    6.2939 C   0  0  0  0  0  0  0  0  0  0  0  0
    6.2108   25.5717    4.8841 N   0  0  0  0  0  0  0  0  0  0  0  0
    5.1358   25.8703    3.9154 C   0  0  0  0  0  0  0  0  0  0  0  0
    4.3496   27.0896    4.3731 C   0  0  0  0  0  0  0  0  0  0  0  0
    7.2489   24.2832    4.5491 S   0  0  0  0  0  0  0  0  0  0  0  0
    6.1672   23.1384    3.7156 C   0  0  0  0  0  0  0  0  0  0  0  0
    8.2331   24.7367    3.5904 O   0  0  0  0  0  0  0  0  0  0  0  0
    7.6402   23.6843    5.8066 O   0  0  0  0  0  0  0  0  0  0  0  0
 21 22  1  0
 22 12  1  0
 12 13  2  0
 13 14  1  0
 14 15  1  0
 14 16  2  0
 16 17  1  0
 16 18  1  0
 18 19  1  0
 18 20  2  0
 20 10  1  0
 10 11  2  0
 10  1  1  0
  1  2  2  0
  2  3  1  0
  3  4  2  0
  4 23  1  0
 23 25  1  0
 25 26  1  0
 26 27  1  0
 27 28  1  0
 28 31  1  0
 31 32  1  0
 31 33  2  0
 31 34  2  0
 28 29  1  0
 29 30  1  0
  4  5  1  0
  5  6  2  0
  6  7  1  0
 20 12  1  0
  6  1  1  0
 30 25  1  0
 23 24  1  0
  7  8  1  0
  7  9  1  0
M  END
> <minimizedAffinity>
-7.78932

> <CNNscore>
0.2113210410

> <CNNaffinity>
6.4735493660

> <CNN_VS>
1.3679971695

> <CNNaffinity_variance>
0.4583408833

$$$$



 34 36  0  0  0  0  0  0  0  0999 V2000
   -1.2147   26.5616   10.9140 C   0  0  0  0  0  0  0  0  0  0  0  0
   -1.4185   25.2884   10.4282 C   0  0  0  0  0  0  0  0  0  0  0  0
   -0.7967   24.1941   10.9094 N   0  0  0  0  0  0  0  0  0  0  0  0
    0.0844   24.3888   11.8979 C   0  0  0  0  0  0  0  0  0  0  0  0
    0.3455   25.5843   12.4353 N   0  0  0  0  0  0  0  0  0  0  0  0
   -0.2855   26.6640   11.9389 C   0  0  0  0  0  0  0  0  0  0  0  0
    0.0001   27.8834   12.5790 N   0  0  0  0  0  0  0  0  0  0  0  0
    0.6667   27.9151   13.3028 H   0  0  0  0  0  0  0  0  0  0  0  0
   -0.4666   28.7052   12.3033 H   0  0  0  0  0  0  0  0  0  0  0  0
   -1.9089   27.7402   10.3518 C   0  0  0  0  0  0  0  0  0  0  0  0
   -3.1170   27.9003   10.5022 O   0  0  0  0  0  0  0  0  0  0  0  0
   -1.2519   30.1047    9.9109 C   0  0  0  0  0  0  0  0  0  0  0  0
   -0.5677   31.0539    9.1475 C   0  0  0  0  0  0  0  0  0  0  0  0
    0.1590   30.6435    8.0274 C   0  0  0  0  0  0  0  0  0  0  0  0
    0.9947   31.8196    7.0896 Cl  0  0  0  0  0  0  0  0  0  0  0  0
    0.2156   29.2929    7.6852 C   0  0  0  0  0  0  0  0  0  0  0  0
    0.9189   28.8877    6.6175 F   0  0  0  0  0  0  0  0  0  0  0  0
   -0.4499   28.3492    8.4588 C   0  0  0  0  0  0  0  0  0  0  0  0
   -0.3794   27.0511    8.1293 F   0  0  0  0  0  0  0  0  0  0  0  0
   -1.1773   28.7500    9.5754 C   0  0  0  0  0  0  0  0  0  0  0  0
   -2.5976   31.7234   10.8508 C   0  0  0  0  0  0  0  0  0  0  0  0
   -1.8977   30.4923   11.0527 O   0  0  0  0  0  0  0  0  0  0  0  0
    0.7781   23.3263   12.4428 N   0  0  0  0  0  0  0  0  0  0  0  0
    0.7238   23.1295   13.4059 H   0  0  0  0  0  0  0  0  0  0  0  0
    1.5922   22.5037   11.5579 C   0  0  0  0  0  0  0  0  0  0  0  0
    2.2462   21.3312   12.3071 C   0  0  0  0  0  0  0  0  0  0  0  0
    3.6794   21.6376   12.7185 C   0  0  0  0  0  0  0  0  0  0  0  0
    4.5079   21.9674   11.5384 N   0  0  0  0  0  0  0  0  0  0  0  0
    3.8193   22.5952   10.3917 C   0  0  0  0  0  0  0  0  0  0  0  0
    2.6317   23.4094   10.8827 C   0  0  0  0  0  0  0  0  0  0  0  0
    5.8944   21.0544   11.2316 S   0  0  0  0  0  0  0  0  0  0  0  0
    5.6899   19.6782   12.3451 C   0  0  0  0  0  0  0  0  0  0  0  0
    5.8067   20.5445    9.8805 O   0  0  0  0  0  0  0  0  0  0  0  0
    7.0405   21.8162   11.6780 O   0  0  0  0  0  0  0  0  0  0  0  0
 21 22  1  0
 22 12  1  0
 12 13  2  0
 13 14  1  0
 14 15  1  0
 14 16  2  0
 16 17  1  0
 16 18  1  0
 18 19  1  0
 18 20  2  0
 20 10  1  0
 10 11  2  0
 10  1  1  0
  1  2  2  0
  2  3  1  0
  3  4  2  0
  4 23  1  0
 23 25  1  0
 25 26  1  0
 26 27  1  0
 27 28  1  0
 28 31  1  0
 31 32  1  0
 31 33  2  0
 31 34  2  0
 28 29  1  0
 29 30  1  0
  4  5  1  0
  5  6  2  0
  6  7  1  0
 20 12  1  0
  6  1  1  0
 30 25  1  0
 23 24  1  0
  7  8  1  0
  7  9  1  0
M  END
> <minimizedAffinity>
-7.99230

> <CNNscore>
0.1734597832

> <CNNaffinity>
5.7113785744

> <CNN_VS>
0.9906944633

> <CNNaffinity_variance>
1.3389539719

$$$$



 34 36  0  0  0  0  0  0  0  0999 V2000
   -1.3097   26.5612   11.0469 C   0  0  0  0  0  0  0  0  0  0  0  0
   -1.6557   25.3101   10.5846 C   0  0  0  0  0  0  0  0  0  0  0  0
   -1.0302   24.1752   10.9538 N   0  0  0  0  0  0  0  0  0  0  0  0
    0.0003   24.3037   11.7982 C   0  0  0  0  0  0  0  0  0  0  0  0
    0.4063   25.4732   12.3020 N   0  0  0  0  0  0  0  0  0  0  0  0
   -0.2314   26.5943   11.9191 C   0  0  0  0  0  0  0  0  0  0  0  0
    0.2156   27.7844   12.5208 N   0  0  0  0  0  0  0  0  0  0  0  0
    0.9851   27.7667   13.1347 H   0  0  0  0  0  0  0  0  0  0  0  0
   -0.2409   28.6351   12.3281 H   0  0  0  0  0  0  0  0  0  0  0  0
   -2.0143   27.7857   10.6096 C   0  0  0  0  0  0  0  0  0  0  0  0
   -3.1968   27.9727   10.8825 O   0  0  0  0  0  0  0  0  0  0  0  0
   -1.4134   30.1632   10.1585 C   0  0  0  0  0  0  0  0  0  0  0  0
   -0.7711   31.1274    9.3777 C   0  0  0  0  0  0  0  0  0  0  0  0
   -0.0741   30.7344    8.2328 C   0  0  0  0  0  0  0  0  0  0  0  0
    0.7099   31.9289    7.2738 Cl  0  0  0  0  0  0  0  0  0  0  0  0
   -0.0051   29.3864    7.8826 C   0  0  0  0  0  0  0  0  0  0  0  0
    0.6701   28.9981    6.7909 F   0  0  0  0  0  0  0  0  0  0  0  0
   -0.6285   28.4280    8.6730 C   0  0  0  0  0  0  0  0  0  0  0  0
   -0.5460   27.1327    8.3355 F   0  0  0  0  0  0  0  0  0  0  0  0
   -1.3261   28.8114    9.8145 C   0  0  0  0  0  0  0  0  0  0  0  0
   -2.8302   31.7030   11.1262 C   0  0  0  0  0  0  0  0  0  0  0  0
   -2.0285   30.5347   11.3225 O   0  0  0  0  0  0  0  0  0  0  0  0
    0.7082   23.1955   12.2198 N   0  0  0  0  0  0  0  0  0  0  0  0
    0.8442   23.0189   13.1787 H   0  0  0  0  0  0  0  0  0  0  0  0
    1.2489   22.2941   11.2111 C   0  0  0  0  0  0  0  0  0  0  0  0
    0.1579   21.7833   10.2559 C   0  0  0  0  0  0  0  0  0  0  0  0
   -0.3634   20.4107   10.6572 C   0  0  0  0  0  0  0  0  0  0  0  0
    0.7345   19.4201   10.6961 N   0  0  0  0  0  0  0  0  0  0  0  0
    2.0821   19.9276   11.0269 C   0  0  0  0  0  0  0  0  0  0  0  0
    1.9698   21.1457   11.9313 C   0  0  0  0  0  0  0  0  0  0  0  0
    0.6185   18.0330    9.7409 S   0  0  0  0  0  0  0  0  0  0  0  0
    2.3269   17.6957    9.3623 C   0  0  0  0  0  0  0  0  0  0  0  0
    0.1305   16.9542   10.5725 O   0  0  0  0  0  0  0  0  0  0  0  0
   -0.0439   18.3931    8.5061 O   0  0  0  0  0  0  0  0  0  0  0  0
 21 22  1  0
 22 12  1  0
 12 13  2  0
 13 14  1  0
 14 15  1  0
 14 16  2  0
 16 17  1  0
 16 18  1  0
 18 19  1  0
 18 20  2  0
 20 10  1  0
 10 11  2  0
 10  1  1  0
  1  2  2  0
  2  3  1  0
  3  4  2  0
  4 23  1  0
 23 25  1  0
 25 26  1  0
 26 27  1  0
 27 28  1  0
 28 31  1  0
 31 32  1  0
 31 33  2  0
 31 34  2  0
 28 29  1  0
 29 30  1  0
  4  5  1  0
  5  6  2  0
  6  7  1  0
 20 12  1  0
  6  1  1  0
 30 25  1  0
 23 24  1  0
  7  8  1  0
  7  9  1  0
M  END
> <minimizedAffinity>
-7.80126

> <CNNscore>
0.1603768170

> <CNNaffinity>
6.1850247383

> <CNN_VS>
0.9919345975

> <CNNaffinity_variance>
0.5722766519

$$$$



 34 36  0  0  0  0  0  0  0  0999 V2000
    1.0317   28.5302    9.7338 C   0  0  0  0  0  0  0  0  0  0  0  0
    0.7201   29.3305    8.6563 C   0  0  0  0  0  0  0  0  0  0  0  0
    1.3248   29.2398    7.4556 N   0  0  0  0  0  0  0  0  0  0  0  0
    2.2991   28.3294    7.3401 C   0  0  0  0  0  0  0  0  0  0  0  0
    2.6683   27.5073    8.3271 N   0  0  0  0  0  0  0  0  0  0  0  0
    2.0523   27.6157    9.5184 C   0  0  0  0  0  0  0  0  0  0  0  0
    2.4561   26.6913   10.4985 N   0  0  0  0  0  0  0  0  0  0  0  0
    3.1851   26.0579   10.3071 H   0  0  0  0  0  0  0  0  0  0  0  0
    2.0099   26.6778   11.3759 H   0  0  0  0  0  0  0  0  0  0  0  0
    0.3521   28.6674   11.0401 C   0  0  0  0  0  0  0  0  0  0  0  0
    0.9029   29.2156   11.9909 O   0  0  0  0  0  0  0  0  0  0  0  0
   -1.1924   26.8077   11.6510 C   0  0  0  0  0  0  0  0  0  0  0  0
   -2.4860   26.3090   11.8232 C   0  0  0  0  0  0  0  0  0  0  0  0
   -3.5828   27.1315   11.5556 C   0  0  0  0  0  0  0  0  0  0  0  0
   -5.1729   26.5080   11.7654 Cl  0  0  0  0  0  0  0  0  0  0  0  0
   -3.3865   28.4471   11.1371 C   0  0  0  0  0  0  0  0  0  0  0  0
   -4.4331   29.2477   10.8874 F   0  0  0  0  0  0  0  0  0  0  0  0
   -2.0979   28.9458   10.9862 C   0  0  0  0  0  0  0  0  0  0  0  0
   -1.9189   30.2162   10.5955 F   0  0  0  0  0  0  0  0  0  0  0  0
   -0.9999   28.1325   11.2494 C   0  0  0  0  0  0  0  0  0  0  0  0
   -0.4132   24.6439   11.8099 C   0  0  0  0  0  0  0  0  0  0  0  0
   -0.1174   26.0320   11.9885 O   0  0  0  0  0  0  0  0  0  0  0  0
    2.9826   28.1760    6.1500 N   0  0  0  0  0  0  0  0  0  0  0  0
    2.5746   28.4463    5.2958 H   0  0  0  0  0  0  0  0  0  0  0  0
    4.3221   27.6045    6.1892 C   0  0  0  0  0  0  0  0  0  0  0  0
    4.3736   26.2200    5.5227 C   0  0  0  0  0  0  0  0  0  0  0  0
    4.2722   25.0883    6.5357 C   0  0  0  0  0  0  0  0  0  0  0  0
    5.3604   25.1747    7.5339 N   0  0  0  0  0  0  0  0  0  0  0  0
    5.8801   26.5231    7.8421 C   0  0  0  0  0  0  0  0  0  0  0  0
    4.7810   27.5579    7.6536 C   0  0  0  0  0  0  0  0  0  0  0  0
    6.3989   23.8579    7.7276 S   0  0  0  0  0  0  0  0  0  0  0  0
    7.1980   23.7747    6.1370 C   0  0  0  0  0  0  0  0  0  0  0  0
    7.4022   24.2171    8.7062 O   0  0  0  0  0  0  0  0  0  0  0  0
    5.5902   22.6677    7.8776 O   0  0  0  0  0  0  0  0  0  0  0  0
 21 22  1  0
 22 12  1  0
 12 13  2  0
 13 14  1  0
 14 15  1  0
 14 16  2  0
 16 17  1  0
 16 18  1  0
 18 19  1  0
 18 20  2  0
 20 10  1  0
 10 11  2  0
 10  1  1  0
  1  2  2  0
  2  3  1  0
  3  4  2  0
  4 23  1  0
 23 25  1  0
 25 26  1  0
 26 27  1  0
 27 28  1  0
 28 31  1  0
 31 32  1  0
 31 33  2  0
 31 34  2  0
 28 29  1  0
 29 30  1  0
  4  5  1  0
  5  6  2  0
  6  7  1  0
 20 12  1  0
  6  1  1  0
 30 25  1  0
 23 24  1  0
  7  8  1  0
  7  9  1  0
M  END
> <minimizedAffinity>
-8.18790

> <CNNscore>
0.1577230692

> <CNNaffinity>
6.8052506447

> <CNN_VS>
1.0733450651

> <CNNaffinity_variance>
0.0019581255

$$$$
