


 40 43  0  0  0  0  0  0  0  0999 V2000
   34.5182  -27.7337   -2.5267 C   0  0  0  0  0  0  0  0  0  0  0  0
   33.2101  -27.2423   -2.3743 C   0  0  0  0  0  0  0  0  0  0  0  0
   32.3782  -27.7175   -1.3521 C   0  0  0  0  0  0  0  0  0  0  0  0
   31.0675  -27.2390   -1.1911 C   0  0  0  0  0  0  0  0  0  0  0  0
   30.2520  -27.7266   -0.1694 C   0  0  0  0  0  0  0  0  0  0  0  0
   30.7375  -28.6928    0.7065 C   0  0  0  0  0  0  0  0  0  0  0  0
   32.0423  -29.1689    0.5657 C   0  0  0  0  0  0  0  0  0  0  0  0
   32.8739  -28.6918   -0.4598 C   0  0  0  0  0  0  0  0  0  0  0  0
   34.1919  -29.1586   -0.6115 C   0  0  0  0  0  0  0  0  0  0  0  0
   35.0322  -28.7014   -1.6468 C   0  0  0  0  0  0  0  0  0  0  0  0
   36.4086  -26.4244   -3.2256 N   0  0  0  0  0  0  0  0  0  0  0  0
   35.3264  -27.1703   -3.6346 C   0  0  0  0  0  0  0  0  0  0  0  0
   35.0181  -27.3739   -4.8001 O   0  0  0  0  0  0  0  0  0  0  0  0
   36.5283  -26.2413   -2.2657 H   0  0  0  0  0  0  0  0  0  0  0  0
   37.3731  -25.9029   -4.1653 C   0  0  0  0  0  0  0  0  0  0  0  0
   38.4055  -21.8130   -3.2185 C   0  0  0  0  0  0  0  0  0  0  0  0
   38.0706  -22.7044   -2.1984 C   0  0  0  0  0  0  0  0  0  0  0  0
   37.7281  -24.0277   -2.5031 C   0  0  0  0  0  0  0  0  0  0  0  0
   37.7101  -24.4732   -3.8321 C   0  0  0  0  0  0  0  0  0  0  0  0
   38.0572  -23.5759   -4.8495 C   0  0  0  0  0  0  0  0  0  0  0  0
   38.3949  -22.2559   -4.5424 C   0  0  0  0  0  0  0  0  0  0  0  0
   40.0482  -20.2385   -2.5255 C   0  0  0  0  0  0  0  0  0  0  0  0
   38.7550  -20.5009   -3.0573 O   0  0  0  0  0  0  0  0  0  0  0  0
   36.4335  -29.2732   -1.7561 C   0  0  0  0  0  0  0  0  0  0  0  0
   36.5510  -30.7376   -1.8444 N   0  0  0  0  0  0  0  0  0  0  0  0
   36.7747  -31.3928   -0.5615 C   0  0  0  0  0  0  0  0  0  0  0  0
   35.4917  -31.3628   -2.6357 C   0  0  0  0  0  0  0  0  0  0  0  0
   34.8730  -32.5512   -1.9266 C   0  0  0  0  0  0  0  0  0  0  0  0
   33.8598  -32.3389   -0.9743 C   0  0  0  0  0  0  0  0  0  0  0  0
   33.3028  -33.4156   -0.2828 C   0  0  0  0  0  0  0  0  0  0  0  0
   31.9351  -33.1035    0.9840 Br  0  0  0  0  0  0  0  0  0  0  0  0
   33.7474  -34.7149   -0.5108 C   0  0  0  0  0  0  0  0  0  0  0  0
   34.7689  -34.9385   -1.4354 C   0  0  0  0  0  0  0  0  0  0  0  0
   35.3115  -33.8721   -2.1642 C   0  0  0  0  0  0  0  0  0  0  0  0
   36.3666  -34.1534   -3.1549 C   0  0  0  0  0  0  0  0  0  0  0  0
   36.2136  -34.5240   -4.3030 O   0  0  0  0  0  0  0  0  0  0  0  0
   37.5795  -33.9171   -2.6207 O   0  0  0  0  0  0  0  0  0  0  0  0
   37.6521  -33.6325   -1.7309 H   0  0  0  0  0  0  0  0  0  0  0  0
   35.1641  -36.2307   -1.6708 O   0  0  0  0  0  0  0  0  0  0  0  0
   35.6153  -36.8389   -0.4583 C   0  0  0  0  0  0  0  0  0  0  0  0
 22 23  1  0
 23 16  1  0
 16 17  2  0
 17 18  1  0
 18 19  2  0
 19 15  1  0
 15 11  1  0
 11 12  1  0
 12 13  2  0
 12  1  1  0
  1  2  2  0
  2  3  1  0
  3  4  2  0
  4  5  1  0
  5  6  2  0
  6  7  1  0
  7  8  2  0
  8  9  1  0
  9 10  2  0
 10 24  1  0
 24 25  1  0
 25 26  1  0
 25 27  1  0
 27 28  1  0
 28 29  2  0
 29 30  1  0
 30 31  1  0
 30 32  2  0
 32 33  1  0
 33 39  1  0
 39 40  1  0
 33 34  2  0
 34 35  1  0
 35 36  2  0
 35 37  1  0
 19 20  1  0
 20 21  2  0
 21 16  1  0
 10  1  1  0
 34 28  1  0
  8  3  1  0
 11 14  1  0
 37 38  1  0
M  END
> <minimizedAffinity>
-8.05711

> <CNNscore>
0.6716769338

> <CNNaffinity>
6.0988726616

> <CNN_VS>
4.0964722633

> <CNNaffinity_variance>
0.5770334601

$$$$



 40 43  0  0  0  0  0  0  0  0999 V2000
   33.6260  -31.4683    0.1194 C   0  0  0  0  0  0  0  0  0  0  0  0
   32.3365  -30.9369    0.2945 C   0  0  0  0  0  0  0  0  0  0  0  0
   32.0234  -29.6471   -0.1543 C   0  0  0  0  0  0  0  0  0  0  0  0
   30.7406  -29.1018    0.0183 C   0  0  0  0  0  0  0  0  0  0  0  0
   30.4480  -27.8140   -0.4318 C   0  0  0  0  0  0  0  0  0  0  0  0
   31.4306  -27.0585   -1.0645 C   0  0  0  0  0  0  0  0  0  0  0  0
   32.7066  -27.5923   -1.2534 C   0  0  0  0  0  0  0  0  0  0  0  0
   33.0183  -28.8847   -0.8023 C   0  0  0  0  0  0  0  0  0  0  0  0
   34.2979  -29.4375   -0.9895 C   0  0  0  0  0  0  0  0  0  0  0  0
   34.6300  -30.7269   -0.5265 C   0  0  0  0  0  0  0  0  0  0  0  0
   33.1327  -33.8166   -0.0161 N   0  0  0  0  0  0  0  0  0  0  0  0
   33.8645  -32.8420    0.6236 C   0  0  0  0  0  0  0  0  0  0  0  0
   34.6523  -33.0452    1.5364 O   0  0  0  0  0  0  0  0  0  0  0  0
   32.4576  -33.5492   -0.6809 H   0  0  0  0  0  0  0  0  0  0  0  0
   33.3277  -35.2204    0.2608 C   0  0  0  0  0  0  0  0  0  0  0  0
   30.5954  -36.5843    3.3210 C   0  0  0  0  0  0  0  0  0  0  0  0
   30.2841  -35.4599    2.5553 C   0  0  0  0  0  0  0  0  0  0  0  0
   31.1710  -35.0114    1.5688 C   0  0  0  0  0  0  0  0  0  0  0  0
   32.3828  -35.6781    1.3409 C   0  0  0  0  0  0  0  0  0  0  0  0
   32.6838  -36.8116    2.1060 C   0  0  0  0  0  0  0  0  0  0  0  0
   31.7985  -37.2543    3.0914 C   0  0  0  0  0  0  0  0  0  0  0  0
   30.1148  -38.4572    4.7064 C   0  0  0  0  0  0  0  0  0  0  0  0
   29.8215  -37.1222    4.3116 O   0  0  0  0  0  0  0  0  0  0  0  0
   36.0406  -31.2409   -0.7469 C   0  0  0  0  0  0  0  0  0  0  0  0
   36.2996  -31.9582   -2.0057 N   0  0  0  0  0  0  0  0  0  0  0  0
   35.1221  -32.1177   -2.8502 C   0  0  0  0  0  0  0  0  0  0  0  0
   37.4685  -31.4625   -2.7317 C   0  0  0  0  0  0  0  0  0  0  0  0
   37.1119  -30.3550   -3.7033 C   0  0  0  0  0  0  0  0  0  0  0  0
   36.7401  -29.0922   -3.2078 C   0  0  0  0  0  0  0  0  0  0  0  0
   36.3718  -28.0697   -4.0834 C   0  0  0  0  0  0  0  0  0  0  0  0
   35.8869  -26.3788   -3.3916 Br  0  0  0  0  0  0  0  0  0  0  0  0
   36.3514  -28.2831   -5.4589 C   0  0  0  0  0  0  0  0  0  0  0  0
   36.6947  -29.5383   -5.9638 C   0  0  0  0  0  0  0  0  0  0  0  0
   37.1025  -30.5629   -5.0997 C   0  0  0  0  0  0  0  0  0  0  0  0
   37.4881  -31.8647   -5.6745 C   0  0  0  0  0  0  0  0  0  0  0  0
   38.6126  -32.3162   -5.7772 O   0  0  0  0  0  0  0  0  0  0  0  0
   36.3926  -32.5397   -6.0704 O   0  0  0  0  0  0  0  0  0  0  0  0
   35.5441  -32.1543   -5.9729 H   0  0  0  0  0  0  0  0  0  0  0  0
   36.7038  -29.7137   -7.3242 O   0  0  0  0  0  0  0  0  0  0  0  0
   36.5715  -28.4537   -7.9866 C   0  0  0  0  0  0  0  0  0  0  0  0
 22 23  1  0
 23 16  1  0
 16 17  2  0
 17 18  1  0
 18 19  2  0
 19 15  1  0
 15 11  1  0
 11 12  1  0
 12 13  2  0
 12  1  1  0
  1  2  2  0
  2  3  1  0
  3  4  2  0
  4  5  1  0
  5  6  2  0
  6  7  1  0
  7  8  2  0
  8  9  1  0
  9 10  2  0
 10 24  1  0
 24 25  1  0
 25 26  1  0
 25 27  1  0
 27 28  1  0
 28 29  2  0
 29 30  1  0
 30 31  1  0
 30 32  2  0
 32 33  1  0
 33 39  1  0
 39 40  1  0
 33 34  2  0
 34 35  1  0
 35 36  2  0
 35 37  1  0
 19 20  1  0
 20 21  2  0
 21 16  1  0
 10  1  1  0
 34 28  1  0
  8  3  1  0
 11 14  1  0
 37 38  1  0
M  END
> <minimizedAffinity>
-7.02875

> <CNNscore>
0.3876587152

> <CNNaffinity>
6.4203886986

> <CNN_VS>
2.4889197350

> <CNNaffinity_variance>
0.0481604747

$$$$



 40 43  0  0  0  0  0  0  0  0999 V2000
   31.7090  -33.5279    1.1932 C   0  0  0  0  0  0  0  0  0  0  0  0
   30.8981  -32.3921    1.3611 C   0  0  0  0  0  0  0  0  0  0  0  0
   31.2970  -31.1442    0.8646 C   0  0  0  0  0  0  0  0  0  0  0  0
   30.4990  -30.0002    1.0294 C   0  0  0  0  0  0  0  0  0  0  0  0
   30.9143  -28.7647    0.5314 C   0  0  0  0  0  0  0  0  0  0  0  0
   32.1276  -28.6586   -0.1416 C   0  0  0  0  0  0  0  0  0  0  0  0
   32.9254  -29.7897   -0.3231 C   0  0  0  0  0  0  0  0  0  0  0  0
   32.5240  -31.0391    0.1758 C   0  0  0  0  0  0  0  0  0  0  0  0
   33.3149  -32.1882   -0.0032 C   0  0  0  0  0  0  0  0  0  0  0  0
   32.9328  -33.4454    0.5072 C   0  0  0  0  0  0  0  0  0  0  0  0
   31.3592  -34.9337    3.1109 N   0  0  0  0  0  0  0  0  0  0  0  0
   31.2042  -34.8063    1.7492 C   0  0  0  0  0  0  0  0  0  0  0  0
   30.7027  -35.6505    1.0206 O   0  0  0  0  0  0  0  0  0  0  0  0
   31.8539  -34.2394    3.6033 H   0  0  0  0  0  0  0  0  0  0  0  0
   30.8163  -36.0574    3.8374 C   0  0  0  0  0  0  0  0  0  0  0  0
   33.8235  -39.0916    4.5009 C   0  0  0  0  0  0  0  0  0  0  0  0
   33.5397  -38.1575    5.4981 C   0  0  0  0  0  0  0  0  0  0  0  0
   32.5717  -37.1688    5.2827 C   0  0  0  0  0  0  0  0  0  0  0  0
   31.8807  -37.0985    4.0651 C   0  0  0  0  0  0  0  0  0  0  0  0
   32.1634  -38.0454    3.0730 C   0  0  0  0  0  0  0  0  0  0  0  0
   33.1319  -39.0281    3.2898 C   0  0  0  0  0  0  0  0  0  0  0  0
   35.4793  -40.2061    5.7947 C   0  0  0  0  0  0  0  0  0  0  0  0
   34.7420  -40.1012    4.5825 O   0  0  0  0  0  0  0  0  0  0  0  0
   33.8544  -34.6315    0.2920 C   0  0  0  0  0  0  0  0  0  0  0  0
   33.7994  -35.2883   -1.0239 N   0  0  0  0  0  0  0  0  0  0  0  0
   32.6417  -34.9123   -1.8262 C   0  0  0  0  0  0  0  0  0  0  0  0
   35.0599  -35.2244   -1.7629 C   0  0  0  0  0  0  0  0  0  0  0  0
   36.1456  -34.5105   -0.9823 C   0  0  0  0  0  0  0  0  0  0  0  0
   36.1963  -33.1049   -0.9934 C   0  0  0  0  0  0  0  0  0  0  0  0
   37.2095  -32.4287   -0.3124 C   0  0  0  0  0  0  0  0  0  0  0  0
   37.2480  -30.5390   -0.3346 Br  0  0  0  0  0  0  0  0  0  0  0  0
   38.1948  -33.1299    0.3770 C   0  0  0  0  0  0  0  0  0  0  0  0
   38.1714  -34.5255    0.3768 C   0  0  0  0  0  0  0  0  0  0  0  0
   37.1394  -35.2173   -0.2708 C   0  0  0  0  0  0  0  0  0  0  0  0
   37.1321  -36.6908   -0.2209 C   0  0  0  0  0  0  0  0  0  0  0  0
   36.3711  -37.4398   -0.8028 O   0  0  0  0  0  0  0  0  0  0  0  0
   38.1319  -37.1333    0.5647 O   0  0  0  0  0  0  0  0  0  0  0  0
   38.6957  -36.5209    0.9949 H   0  0  0  0  0  0  0  0  0  0  0  0
   39.1306  -35.1939    1.0941 O   0  0  0  0  0  0  0  0  0  0  0  0
   40.3878  -34.5221    0.9854 C   0  0  0  0  0  0  0  0  0  0  0  0
 22 23  1  0
 23 16  1  0
 16 17  2  0
 17 18  1  0
 18 19  2  0
 19 15  1  0
 15 11  1  0
 11 12  1  0
 12 13  2  0
 12  1  1  0
  1  2  2  0
  2  3  1  0
  3  4  2  0
  4  5  1  0
  5  6  2  0
  6  7  1  0
  7  8  2  0
  8  9  1  0
  9 10  2  0
 10 24  1  0
 24 25  1  0
 25 26  1  0
 25 27  1  0
 27 28  1  0
 28 29  2  0
 29 30  1  0
 30 31  1  0
 30 32  2  0
 32 33  1  0
 33 39  1  0
 39 40  1  0
 33 34  2  0
 34 35  1  0
 35 36  2  0
 35 37  1  0
 19 20  1  0
 20 21  2  0
 21 16  1  0
 10  1  1  0
 34 28  1  0
  8  3  1  0
 11 14  1  0
 37 38  1  0
M  END
> <minimizedAffinity>
-8.23270

> <CNNscore>
0.3260189593

> <CNNaffinity>
5.9643855095

> <CNN_VS>
1.9445027113

> <CNNaffinity_variance>
0.3465510607

$$$$



 40 43  0  0  0  0  0  0  0  0999 V2000
   35.0781  -28.2137   -2.2303 C   0  0  0  0  0  0  0  0  0  0  0  0
   33.7150  -27.8792   -2.1547 C   0  0  0  0  0  0  0  0  0  0  0  0
   32.9181  -28.3439   -1.1002 C   0  0  0  0  0  0  0  0  0  0  0  0
   31.5538  -28.0215   -1.0147 C   0  0  0  0  0  0  0  0  0  0  0  0
   30.7747  -28.4966    0.0409 C   0  0  0  0  0  0  0  0  0  0  0  0
   31.3500  -29.2937    1.0258 C   0  0  0  0  0  0  0  0  0  0  0  0
   32.7076  -29.6122    0.9600 C   0  0  0  0  0  0  0  0  0  0  0  0
   33.5041  -29.1459   -0.0980 C   0  0  0  0  0  0  0  0  0  0  0  0
   34.8740  -29.4549   -0.1754 C   0  0  0  0  0  0  0  0  0  0  0  0
   35.6818  -29.0081   -1.2407 C   0  0  0  0  0  0  0  0  0  0  0  0
   36.8513  -26.8036   -3.0328 N   0  0  0  0  0  0  0  0  0  0  0  0
   35.8431  -27.6741   -3.3800 C   0  0  0  0  0  0  0  0  0  0  0  0
   35.5644  -28.0000   -4.5250 O   0  0  0  0  0  0  0  0  0  0  0  0
   36.9458  -26.5319   -2.0912 H   0  0  0  0  0  0  0  0  0  0  0  0
   37.7741  -26.2779   -4.0112 C   0  0  0  0  0  0  0  0  0  0  0  0
   38.4693  -22.0611   -3.3588 C   0  0  0  0  0  0  0  0  0  0  0  0
   37.9046  -22.8418   -2.3492 C   0  0  0  0  0  0  0  0  0  0  0  0
   37.6711  -24.2063   -2.5608 C   0  0  0  0  0  0  0  0  0  0  0  0
   37.9934  -24.8047   -3.7868 C   0  0  0  0  0  0  0  0  0  0  0  0
   38.5692  -24.0173   -4.7915 C   0  0  0  0  0  0  0  0  0  0  0  0
   38.7975  -22.6560   -4.5784 C   0  0  0  0  0  0  0  0  0  0  0  0
   39.8297  -20.2434   -4.0681 C   0  0  0  0  0  0  0  0  0  0  0  0
   38.7458  -20.7242   -3.2820 O   0  0  0  0  0  0  0  0  0  0  0  0
   37.1461  -29.4055   -1.2630 C   0  0  0  0  0  0  0  0  0  0  0  0
   37.4550  -30.7913   -1.6507 N   0  0  0  0  0  0  0  0  0  0  0  0
   38.1712  -31.5467   -0.6302 C   0  0  0  0  0  0  0  0  0  0  0  0
   36.3104  -31.5123   -2.2067 C   0  0  0  0  0  0  0  0  0  0  0  0
   36.5880  -32.0397   -3.6004 C   0  0  0  0  0  0  0  0  0  0  0  0
   36.9176  -31.1387   -4.6290 C   0  0  0  0  0  0  0  0  0  0  0  0
   37.1403  -31.5990   -5.9275 C   0  0  0  0  0  0  0  0  0  0  0  0
   37.5924  -30.3681   -7.2888 Br  0  0  0  0  0  0  0  0  0  0  0  0
   37.0268  -32.9525   -6.2324 C   0  0  0  0  0  0  0  0  0  0  0  0
   36.6768  -33.8555   -5.2271 C   0  0  0  0  0  0  0  0  0  0  0  0
   36.4871  -33.4132   -3.9114 C   0  0  0  0  0  0  0  0  0  0  0  0
   36.1498  -34.4026   -2.8716 C   0  0  0  0  0  0  0  0  0  0  0  0
   35.0523  -34.8679   -2.6314 O   0  0  0  0  0  0  0  0  0  0  0  0
   37.2588  -34.7672   -2.2011 O   0  0  0  0  0  0  0  0  0  0  0  0
   38.0854  -34.3833   -2.4188 H   0  0  0  0  0  0  0  0  0  0  0  0
   36.6081  -35.1885   -5.5430 O   0  0  0  0  0  0  0  0  0  0  0  0
   36.8540  -35.3799   -6.9382 C   0  0  0  0  0  0  0  0  0  0  0  0
 22 23  1  0
 23 16  1  0
 16 17  2  0
 17 18  1  0
 18 19  2  0
 19 15  1  0
 15 11  1  0
 11 12  1  0
 12 13  2  0
 12  1  1  0
  1  2  2  0
  2  3  1  0
  3  4  2  0
  4  5  1  0
  5  6  2  0
  6  7  1  0
  7  8  2  0
  8  9  1  0
  9 10  2  0
 10 24  1  0
 24 25  1  0
 25 26  1  0
 25 27  1  0
 27 28  1  0
 28 29  2  0
 29 30  1  0
 30 31  1  0
 30 32  2  0
 32 33  1  0
 33 39  1  0
 39 40  1  0
 33 34  2  0
 34 35  1  0
 35 36  2  0
 35 37  1  0
 19 20  1  0
 20 21  2  0
 21 16  1  0
 10  1  1  0
 34 28  1  0
  8  3  1  0
 11 14  1  0
 37 38  1  0
M  END
> <minimizedAffinity>
-7.12369

> <CNNscore>
0.3194812536

> <CNNaffinity>
5.5631160736

> <CNN_VS>
1.7773113251

> <CNNaffinity_variance>
0.3113970757

$$$$



 40 43  0  0  0  0  0  0  0  0999 V2000
   31.6675  -33.5457    1.1391 C   0  0  0  0  0  0  0  0  0  0  0  0
   30.8730  -32.4047    1.3456 C   0  0  0  0  0  0  0  0  0  0  0  0
   31.2751  -31.1519    0.8642 C   0  0  0  0  0  0  0  0  0  0  0  0
   30.4935  -30.0027    1.0674 C   0  0  0  0  0  0  0  0  0  0  0  0
   30.9119  -28.7626    0.5839 C   0  0  0  0  0  0  0  0  0  0  0  0
   32.1118  -28.6567   -0.1128 C   0  0  0  0  0  0  0  0  0  0  0  0
   32.8930  -29.7926   -0.3325 C   0  0  0  0  0  0  0  0  0  0  0  0
   32.4884  -31.0468    0.1514 C   0  0  0  0  0  0  0  0  0  0  0  0
   33.2625  -32.2008   -0.0659 C   0  0  0  0  0  0  0  0  0  0  0  0
   32.8773  -33.4632    0.4289 C   0  0  0  0  0  0  0  0  0  0  0  0
   31.2936  -34.9609    3.0453 N   0  0  0  0  0  0  0  0  0  0  0  0
   31.1604  -34.8289    1.6817 C   0  0  0  0  0  0  0  0  0  0  0  0
   30.6755  -35.6728    0.9417 O   0  0  0  0  0  0  0  0  0  0  0  0
   31.7764  -34.2660    3.5485 H   0  0  0  0  0  0  0  0  0  0  0  0
   30.7447  -36.0904    3.7583 C   0  0  0  0  0  0  0  0  0  0  0  0
   33.7660  -39.0937    4.4947 C   0  0  0  0  0  0  0  0  0  0  0  0
   33.4468  -38.1643    5.4855 C   0  0  0  0  0  0  0  0  0  0  0  0
   32.4742  -37.1855    5.2467 C   0  0  0  0  0  0  0  0  0  0  0  0
   31.8139  -37.1205    4.0119 C   0  0  0  0  0  0  0  0  0  0  0  0
   32.1321  -38.0627    3.0261 C   0  0  0  0  0  0  0  0  0  0  0  0
   33.1051  -39.0354    3.2663 C   0  0  0  0  0  0  0  0  0  0  0  0
   34.8247  -40.7217    5.8682 C   0  0  0  0  0  0  0  0  0  0  0  0
   34.6928  -40.0936    4.5984 O   0  0  0  0  0  0  0  0  0  0  0  0
   33.7809  -34.6549    0.1718 C   0  0  0  0  0  0  0  0  0  0  0  0
   35.0137  -34.4042   -0.5920 N   0  0  0  0  0  0  0  0  0  0  0  0
   36.1621  -35.1766   -0.1342 C   0  0  0  0  0  0  0  0  0  0  0  0
   34.8244  -34.4542   -2.0414 C   0  0  0  0  0  0  0  0  0  0  0  0
   35.6465  -33.4046   -2.7627 C   0  0  0  0  0  0  0  0  0  0  0  0
   35.3884  -32.0417   -2.5292 C   0  0  0  0  0  0  0  0  0  0  0  0
   36.1079  -31.0591   -3.2108 C   0  0  0  0  0  0  0  0  0  0  0  0
   35.7485  -29.2349   -2.8703 Br  0  0  0  0  0  0  0  0  0  0  0  0
   37.0820  -31.4073   -4.1424 C   0  0  0  0  0  0  0  0  0  0  0  0
   37.3324  -32.7557   -4.4022 C   0  0  0  0  0  0  0  0  0  0  0  0
   36.6445  -33.7530   -3.6987 C   0  0  0  0  0  0  0  0  0  0  0  0
   36.9604  -35.1656   -3.9787 C   0  0  0  0  0  0  0  0  0  0  0  0
   37.4527  -35.9720   -3.2131 O   0  0  0  0  0  0  0  0  0  0  0  0
   36.6000  -35.4809   -5.2369 O   0  0  0  0  0  0  0  0  0  0  0  0
   36.2237  -34.8282   -5.7940 H   0  0  0  0  0  0  0  0  0  0  0  0
   38.3227  -33.0745   -5.2961 O   0  0  0  0  0  0  0  0  0  0  0  0
   39.2418  -31.9872   -5.4252 C   0  0  0  0  0  0  0  0  0  0  0  0
 22 23  1  0
 23 16  1  0
 16 17  2  0
 17 18  1  0
 18 19  2  0
 19 15  1  0
 15 11  1  0
 11 12  1  0
 12 13  2  0
 12  1  1  0
  1  2  2  0
  2  3  1  0
  3  4  2  0
  4  5  1  0
  5  6  2  0
  6  7  1  0
  7  8  2  0
  8  9  1  0
  9 10  2  0
 10 24  1  0
 24 25  1  0
 25 26  1  0
 25 27  1  0
 27 28  1  0
 28 29  2  0
 29 30  1  0
 30 31  1  0
 30 32  2  0
 32 33  1  0
 33 39  1  0
 39 40  1  0
 33 34  2  0
 34 35  1  0
 35 36  2  0
 35 37  1  0
 19 20  1  0
 20 21  2  0
 21 16  1  0
 10  1  1  0
 34 28  1  0
  8  3  1  0
 11 14  1  0
 37 38  1  0
M  END
> <minimizedAffinity>
-7.93578

> <CNNscore>
0.3193305731

> <CNNaffinity>
6.0763053894

> <CNN_VS>
1.9403500557

> <CNNaffinity_variance>
0.1598531455

$$$$



 40 43  0  0  0  0  0  0  0  0999 V2000
   34.1135  -27.9833   -2.0739 C   0  0  0  0  0  0  0  0  0  0  0  0
   32.8328  -27.7941   -1.5262 C   0  0  0  0  0  0  0  0  0  0  0  0
   32.3078  -28.7002   -0.5956 C   0  0  0  0  0  0  0  0  0  0  0  0
   31.0279  -28.5261   -0.0440 C   0  0  0  0  0  0  0  0  0  0  0  0
   30.5199  -29.4410    0.8789 C   0  0  0  0  0  0  0  0  0  0  0  0
   31.2859  -30.5363    1.2659 C   0  0  0  0  0  0  0  0  0  0  0  0
   32.5645  -30.7155    0.7348 C   0  0  0  0  0  0  0  0  0  0  0  0
   33.0883  -29.8065   -0.1981 C   0  0  0  0  0  0  0  0  0  0  0  0
   34.3763  -29.9714   -0.7384 C   0  0  0  0  0  0  0  0  0  0  0  0
   34.9082  -29.0765   -1.6888 C   0  0  0  0  0  0  0  0  0  0  0  0
   34.3409  -27.2925   -4.3646 N   0  0  0  0  0  0  0  0  0  0  0  0
   34.5873  -26.9718   -3.0488 C   0  0  0  0  0  0  0  0  0  0  0  0
   35.1487  -25.9536   -2.6708 O   0  0  0  0  0  0  0  0  0  0  0  0
   33.9616  -28.1753   -4.5790 H   0  0  0  0  0  0  0  0  0  0  0  0
   34.6233  -26.3700   -5.4391 C   0  0  0  0  0  0  0  0  0  0  0  0
   36.7696  -28.3699   -8.6145 C   0  0  0  0  0  0  0  0  0  0  0  0
   36.6546  -28.9714   -7.3605 C   0  0  0  0  0  0  0  0  0  0  0  0
   35.9667  -28.3221   -6.3279 C   0  0  0  0  0  0  0  0  0  0  0  0
   35.3913  -27.0608   -6.5352 C   0  0  0  0  0  0  0  0  0  0  0  0
   35.5020  -26.4680   -7.7990 C   0  0  0  0  0  0  0  0  0  0  0  0
   36.1918  -27.1167   -8.8257 C   0  0  0  0  0  0  0  0  0  0  0  0
   36.6967  -28.9069  -10.9305 C   0  0  0  0  0  0  0  0  0  0  0  0
   37.4131  -28.8933   -9.7015 O   0  0  0  0  0  0  0  0  0  0  0  0
   36.2970  -29.3386   -2.2413 C   0  0  0  0  0  0  0  0  0  0  0  0
   37.4313  -28.7887   -1.4817 N   0  0  0  0  0  0  0  0  0  0  0  0
   37.6381  -29.4207   -0.1844 C   0  0  0  0  0  0  0  0  0  0  0  0
   38.6586  -28.6683   -2.2679 C   0  0  0  0  0  0  0  0  0  0  0  0
   39.0057  -27.2240   -2.5700 C   0  0  0  0  0  0  0  0  0  0  0  0
   38.3974  -26.5794   -3.6623 C   0  0  0  0  0  0  0  0  0  0  0  0
   38.7305  -25.2621   -3.9808 C   0  0  0  0  0  0  0  0  0  0  0  0
   37.8902  -24.4160   -5.4473 Br  0  0  0  0  0  0  0  0  0  0  0  0
   39.6785  -24.5672   -3.2350 C   0  0  0  0  0  0  0  0  0  0  0  0
   40.3081  -25.2018   -2.1629 C   0  0  0  0  0  0  0  0  0  0  0  0
   39.9569  -26.5109   -1.8084 C   0  0  0  0  0  0  0  0  0  0  0  0
   40.6216  -27.1351   -0.6498 C   0  0  0  0  0  0  0  0  0  0  0  0
   40.1908  -27.2196    0.4843 O   0  0  0  0  0  0  0  0  0  0  0  0
   41.8107  -27.6478   -1.0180 O   0  0  0  0  0  0  0  0  0  0  0  0
   42.1048  -27.5601   -1.9033 H   0  0  0  0  0  0  0  0  0  0  0  0
   41.2109  -24.4849   -1.4197 O   0  0  0  0  0  0  0  0  0  0  0  0
   41.4390  -23.2061   -2.0167 C   0  0  0  0  0  0  0  0  0  0  0  0
 22 23  1  0
 23 16  1  0
 16 17  2  0
 17 18  1  0
 18 19  2  0
 19 15  1  0
 15 11  1  0
 11 12  1  0
 12 13  2  0
 12  1  1  0
  1  2  2  0
  2  3  1  0
  3  4  2  0
  4  5  1  0
  5  6  2  0
  6  7  1  0
  7  8  2  0
  8  9  1  0
  9 10  2  0
 10 24  1  0
 24 25  1  0
 25 26  1  0
 25 27  1  0
 27 28  1  0
 28 29  2  0
 29 30  1  0
 30 31  1  0
 30 32  2  0
 32 33  1  0
 33 39  1  0
 39 40  1  0
 33 34  2  0
 34 35  1  0
 35 36  2  0
 35 37  1  0
 19 20  1  0
 20 21  2  0
 21 16  1  0
 10  1  1  0
 34 28  1  0
  8  3  1  0
 11 14  1  0
 37 38  1  0
M  END
> <minimizedAffinity>
-7.06519

> <CNNscore>
0.3137618899

> <CNNaffinity>
5.6347985268

> <CNN_VS>
1.7679849863

> <CNNaffinity_variance>
0.7457062602

$$$$



 40 43  0  0  0  0  0  0  0  0999 V2000
   34.2327  -27.9853   -1.8193 C   0  0  0  0  0  0  0  0  0  0  0  0
   32.8999  -27.9041   -1.3804 C   0  0  0  0  0  0  0  0  0  0  0  0
   32.3874  -28.8306   -0.4628 C   0  0  0  0  0  0  0  0  0  0  0  0
   31.0564  -28.7643   -0.0194 C   0  0  0  0  0  0  0  0  0  0  0  0
   30.5622  -29.6981    0.8920 C   0  0  0  0  0  0  0  0  0  0  0  0
   31.3926  -30.7047    1.3754 C   0  0  0  0  0  0  0  0  0  0  0  0
   32.7211  -30.7756    0.9524 C   0  0  0  0  0  0  0  0  0  0  0  0
   33.2323  -29.8465    0.0324 C   0  0  0  0  0  0  0  0  0  0  0  0
   34.5696  -29.9025   -0.3995 C   0  0  0  0  0  0  0  0  0  0  0  0
   35.0915  -28.9871   -1.3357 C   0  0  0  0  0  0  0  0  0  0  0  0
   35.5926  -27.4203   -3.7187 N   0  0  0  0  0  0  0  0  0  0  0  0
   34.6882  -26.9602   -2.7886 C   0  0  0  0  0  0  0  0  0  0  0  0
   34.2714  -25.8123   -2.7272 O   0  0  0  0  0  0  0  0  0  0  0  0
   35.9378  -28.3386   -3.6369 H   0  0  0  0  0  0  0  0  0  0  0  0
   36.0492  -26.5934   -4.8110 C   0  0  0  0  0  0  0  0  0  0  0  0
   39.3530  -24.1274   -3.5096 C   0  0  0  0  0  0  0  0  0  0  0  0
   38.6458  -23.7966   -4.6663 C   0  0  0  0  0  0  0  0  0  0  0  0
   37.5803  -24.5981   -5.0944 C   0  0  0  0  0  0  0  0  0  0  0  0
   37.2136  -25.7436   -4.3744 C   0  0  0  0  0  0  0  0  0  0  0  0
   37.9212  -26.0636   -3.2091 C   0  0  0  0  0  0  0  0  0  0  0  0
   38.9857  -25.2640   -2.7869 C   0  0  0  0  0  0  0  0  0  0  0  0
   40.1919  -22.7624   -1.7515 C   0  0  0  0  0  0  0  0  0  0  0  0
   40.4091  -23.4340   -2.9868 O   0  0  0  0  0  0  0  0  0  0  0  0
   36.5389  -29.1307   -1.7685 C   0  0  0  0  0  0  0  0  0  0  0  0
   36.9726  -30.4651   -2.2127 N   0  0  0  0  0  0  0  0  0  0  0  0
   36.8462  -30.6819   -3.6487 C   0  0  0  0  0  0  0  0  0  0  0  0
   38.2750  -30.8643   -1.6804 C   0  0  0  0  0  0  0  0  0  0  0  0
   39.3299  -29.7955   -1.8869 C   0  0  0  0  0  0  0  0  0  0  0  0
   39.7411  -29.4713   -3.1924 C   0  0  0  0  0  0  0  0  0  0  0  0
   40.7375  -28.5172   -3.4032 C   0  0  0  0  0  0  0  0  0  0  0  0
   41.2637  -28.0923   -5.1682 Br  0  0  0  0  0  0  0  0  0  0  0  0
   41.3522  -27.8803   -2.3287 C   0  0  0  0  0  0  0  0  0  0  0  0
   40.9716  -28.2093   -1.0267 C   0  0  0  0  0  0  0  0  0  0  0  0
   39.9468  -29.1374   -0.8007 C   0  0  0  0  0  0  0  0  0  0  0  0
   39.5515  -29.4342    0.5884 C   0  0  0  0  0  0  0  0  0  0  0  0
   39.8132  -30.4357    1.2266 O   0  0  0  0  0  0  0  0  0  0  0  0
   38.8523  -28.4046    1.1017 O   0  0  0  0  0  0  0  0  0  0  0  0
   38.6728  -27.6511    0.5745 H   0  0  0  0  0  0  0  0  0  0  0  0
   41.5644  -27.5414    0.0144 O   0  0  0  0  0  0  0  0  0  0  0  0
   41.4034  -26.1301   -0.1471 C   0  0  0  0  0  0  0  0  0  0  0  0
 22 23  1  0
 23 16  1  0
 16 17  2  0
 17 18  1  0
 18 19  2  0
 19 15  1  0
 15 11  1  0
 11 12  1  0
 12 13  2  0
 12  1  1  0
  1  2  2  0
  2  3  1  0
  3  4  2  0
  4  5  1  0
  5  6  2  0
  6  7  1  0
  7  8  2  0
  8  9  1  0
  9 10  2  0
 10 24  1  0
 24 25  1  0
 25 26  1  0
 25 27  1  0
 27 28  1  0
 28 29  2  0
 29 30  1  0
 30 31  1  0
 30 32  2  0
 32 33  1  0
 33 39  1  0
 39 40  1  0
 33 34  2  0
 34 35  1  0
 35 36  2  0
 35 37  1  0
 19 20  1  0
 20 21  2  0
 21 16  1  0
 10  1  1  0
 34 28  1  0
  8  3  1  0
 11 14  1  0
 37 38  1  0
M  END
> <minimizedAffinity>
-6.53083

> <CNNscore>
0.2734441757

> <CNNaffinity>
5.2224783897

> <CNN_VS>
1.4280562401

> <CNNaffinity_variance>
0.9319557548

$$$$



 40 43  0  0  0  0  0  0  0  0999 V2000
   33.9844  -28.1590   -2.1737 C   0  0  0  0  0  0  0  0  0  0  0  0
   32.7528  -27.8377   -1.5772 C   0  0  0  0  0  0  0  0  0  0  0  0
   32.1616  -28.6964   -0.6412 C   0  0  0  0  0  0  0  0  0  0  0  0
   30.9293  -28.3903   -0.0410 C   0  0  0  0  0  0  0  0  0  0  0  0
   30.3537  -29.2594    0.8865 C   0  0  0  0  0  0  0  0  0  0  0  0
   31.0045  -30.4406    1.2295 C   0  0  0  0  0  0  0  0  0  0  0  0
   32.2357  -30.7519    0.6498 C   0  0  0  0  0  0  0  0  0  0  0  0
   32.8259  -29.8903   -0.2884 C   0  0  0  0  0  0  0  0  0  0  0  0
   34.0678  -30.1883   -0.8776 C   0  0  0  0  0  0  0  0  0  0  0  0
   34.6639  -29.3412   -1.8336 C   0  0  0  0  0  0  0  0  0  0  0  0
   34.2085  -27.4557   -4.4609 N   0  0  0  0  0  0  0  0  0  0  0  0
   34.5350  -27.1891   -3.1506 C   0  0  0  0  0  0  0  0  0  0  0  0
   35.2205  -26.2475   -2.7786 O   0  0  0  0  0  0  0  0  0  0  0  0
   33.7249  -28.2863   -4.6742 H   0  0  0  0  0  0  0  0  0  0  0  0
   34.5555  -26.5509   -5.5315 C   0  0  0  0  0  0  0  0  0  0  0  0
   37.0443  -28.5520   -8.4456 C   0  0  0  0  0  0  0  0  0  0  0  0
   36.4712  -27.3155   -8.7457 C   0  0  0  0  0  0  0  0  0  0  0  0
   35.6582  -26.6689   -7.8066 C   0  0  0  0  0  0  0  0  0  0  0  0
   35.4034  -27.2543   -6.5587 C   0  0  0  0  0  0  0  0  0  0  0  0
   35.9901  -28.4904   -6.2606 C   0  0  0  0  0  0  0  0  0  0  0  0
   36.7976  -29.1342   -7.2009 C   0  0  0  0  0  0  0  0  0  0  0  0
   37.4590  -29.3871  -10.6338 C   0  0  0  0  0  0  0  0  0  0  0  0
   37.8514  -29.2857   -9.2701 O   0  0  0  0  0  0  0  0  0  0  0  0
   35.9944  -29.7469   -2.4400 C   0  0  0  0  0  0  0  0  0  0  0  0
   36.3526  -31.1726   -2.3685 N   0  0  0  0  0  0  0  0  0  0  0  0
   36.7988  -31.6063   -1.0502 C   0  0  0  0  0  0  0  0  0  0  0  0
   35.3497  -32.0582   -2.9593 C   0  0  0  0  0  0  0  0  0  0  0  0
   35.1807  -33.3402   -2.1683 C   0  0  0  0  0  0  0  0  0  0  0  0
   34.2153  -33.4018   -1.1472 C   0  0  0  0  0  0  0  0  0  0  0  0
   34.0687  -34.5597   -0.3819 C   0  0  0  0  0  0  0  0  0  0  0  0
   32.7562  -34.6197    0.9769 Br  0  0  0  0  0  0  0  0  0  0  0  0
   34.8821  -35.6674   -0.6037 C   0  0  0  0  0  0  0  0  0  0  0  0
   35.8608  -35.6124   -1.5974 C   0  0  0  0  0  0  0  0  0  0  0  0
   35.9945  -34.4708   -2.3985 C   0  0  0  0  0  0  0  0  0  0  0  0
   37.0188  -34.4637   -3.4589 C   0  0  0  0  0  0  0  0  0  0  0  0
   38.1515  -34.0282   -3.3806 O   0  0  0  0  0  0  0  0  0  0  0  0
   36.5374  -35.0468   -4.5727 O   0  0  0  0  0  0  0  0  0  0  0  0
   35.6577  -35.3691   -4.5901 H   0  0  0  0  0  0  0  0  0  0  0  0
   36.6246  -36.7291   -1.8229 O   0  0  0  0  0  0  0  0  0  0  0  0
   37.4860  -36.9730   -0.7084 C   0  0  0  0  0  0  0  0  0  0  0  0
 22 23  1  0
 23 16  1  0
 16 17  2  0
 17 18  1  0
 18 19  2  0
 19 15  1  0
 15 11  1  0
 11 12  1  0
 12 13  2  0
 12  1  1  0
  1  2  2  0
  2  3  1  0
  3  4  2  0
  4  5  1  0
  5  6  2  0
  6  7  1  0
  7  8  2  0
  8  9  1  0
  9 10  2  0
 10 24  1  0
 24 25  1  0
 25 26  1  0
 25 27  1  0
 27 28  1  0
 28 29  2  0
 29 30  1  0
 30 31  1  0
 30 32  2  0
 32 33  1  0
 33 39  1  0
 39 40  1  0
 33 34  2  0
 34 35  1  0
 35 36  2  0
 35 37  1  0
 19 20  1  0
 20 21  2  0
 21 16  1  0
 10  1  1  0
 34 28  1  0
  8  3  1  0
 11 14  1  0
 37 38  1  0
M  END
> <minimizedAffinity>
-7.72133

> <CNNscore>
0.2667751312

> <CNNaffinity>
5.6360430717

> <CNN_VS>
1.5035561323

> <CNNaffinity_variance>
0.6454446316

$$$$



 40 43  0  0  0  0  0  0  0  0999 V2000
   34.1876  -27.8034   -2.0504 C   0  0  0  0  0  0  0  0  0  0  0  0
   32.8533  -27.7119   -1.6178 C   0  0  0  0  0  0  0  0  0  0  0  0
   32.3499  -28.5895   -0.6487 C   0  0  0  0  0  0  0  0  0  0  0  0
   31.0176  -28.5126   -0.2108 C   0  0  0  0  0  0  0  0  0  0  0  0
   30.5326  -29.3976    0.7527 C   0  0  0  0  0  0  0  0  0  0  0  0
   31.3734  -30.3653    1.2940 C   0  0  0  0  0  0  0  0  0  0  0  0
   32.7032  -30.4456    0.8768 C   0  0  0  0  0  0  0  0  0  0  0  0
   33.2053  -29.5656   -0.0950 C   0  0  0  0  0  0  0  0  0  0  0  0
   34.5438  -29.6315   -0.5219 C   0  0  0  0  0  0  0  0  0  0  0  0
   35.0568  -28.7659   -1.5091 C   0  0  0  0  0  0  0  0  0  0  0  0
   34.4908  -27.2694   -4.3740 N   0  0  0  0  0  0  0  0  0  0  0  0
   34.6330  -26.8309   -3.0770 C   0  0  0  0  0  0  0  0  0  0  0  0
   35.0861  -25.7426   -2.7527 O   0  0  0  0  0  0  0  0  0  0  0  0
   34.1983  -28.1952   -4.5368 H   0  0  0  0  0  0  0  0  0  0  0  0
   34.7588  -26.4092   -5.5025 C   0  0  0  0  0  0  0  0  0  0  0  0
   36.8119  -28.5974   -8.6148 C   0  0  0  0  0  0  0  0  0  0  0  0
   36.6391  -29.1700   -7.3539 C   0  0  0  0  0  0  0  0  0  0  0  0
   35.9814  -28.4602   -6.3416 C   0  0  0  0  0  0  0  0  0  0  0  0
   35.4946  -27.1668   -6.5764 C   0  0  0  0  0  0  0  0  0  0  0  0
   35.6626  -26.6027   -7.8470 C   0  0  0  0  0  0  0  0  0  0  0  0
   36.3221  -27.3121   -8.8533 C   0  0  0  0  0  0  0  0  0  0  0  0
   38.2384  -30.3230   -9.4183 C   0  0  0  0  0  0  0  0  0  0  0  0
   37.4345  -29.1796   -9.6839 O   0  0  0  0  0  0  0  0  0  0  0  0
   36.5062  -28.9181   -1.9318 C   0  0  0  0  0  0  0  0  0  0  0  0
   36.7651  -29.6839   -3.1617 N   0  0  0  0  0  0  0  0  0  0  0  0
   38.1499  -29.6289   -3.6138 C   0  0  0  0  0  0  0  0  0  0  0  0
   36.2205  -31.0409   -3.1316 C   0  0  0  0  0  0  0  0  0  0  0  0
   37.0831  -31.9862   -2.3192 C   0  0  0  0  0  0  0  0  0  0  0  0
   37.9698  -31.4636   -1.3605 C   0  0  0  0  0  0  0  0  0  0  0  0
   38.8001  -32.3133   -0.6281 C   0  0  0  0  0  0  0  0  0  0  0  0
   39.9747  -31.5858    0.6618 Br  0  0  0  0  0  0  0  0  0  0  0  0
   38.7773  -33.6887   -0.8413 C   0  0  0  0  0  0  0  0  0  0  0  0
   37.9199  -34.2195   -1.8064 C   0  0  0  0  0  0  0  0  0  0  0  0
   37.0540  -33.3830   -2.5228 C   0  0  0  0  0  0  0  0  0  0  0  0
   36.1406  -33.9857   -3.5107 C   0  0  0  0  0  0  0  0  0  0  0  0
   36.3081  -34.0615   -4.7128 O   0  0  0  0  0  0  0  0  0  0  0  0
   35.0556  -34.4892   -2.8928 O   0  0  0  0  0  0  0  0  0  0  0  0
   34.9663  -34.4088   -1.9635 H   0  0  0  0  0  0  0  0  0  0  0  0
   37.8877  -35.5808   -1.9722 O   0  0  0  0  0  0  0  0  0  0  0  0
   39.1671  -36.1459   -1.6761 C   0  0  0  0  0  0  0  0  0  0  0  0
 22 23  1  0
 23 16  1  0
 16 17  2  0
 17 18  1  0
 18 19  2  0
 19 15  1  0
 15 11  1  0
 11 12  1  0
 12 13  2  0
 12  1  1  0
  1  2  2  0
  2  3  1  0
  3  4  2  0
  4  5  1  0
  5  6  2  0
  6  7  1  0
  7  8  2  0
  8  9  1  0
  9 10  2  0
 10 24  1  0
 24 25  1  0
 25 26  1  0
 25 27  1  0
 27 28  1  0
 28 29  2  0
 29 30  1  0
 30 31  1  0
 30 32  2  0
 32 33  1  0
 33 39  1  0
 39 40  1  0
 33 34  2  0
 34 35  1  0
 35 36  2  0
 35 37  1  0
 19 20  1  0
 20 21  2  0
 21 16  1  0
 10  1  1  0
 34 28  1  0
  8  3  1  0
 11 14  1  0
 37 38  1  0
M  END
> <minimizedAffinity>
-7.16081

> <CNNscore>
0.2579153478

> <CNNaffinity>
5.7601947784

> <CNN_VS>
1.4856426716

> <CNNaffinity_variance>
0.5079877377

$$$$
