


 19 20  0  0  0  0  0  0  0  0999 V2000
   10.3616    4.4844   12.4855 C   0  0  0  0  0  0  0  0  0  0  0  0
    9.1517    5.0351   12.4997 N   0  0  0  0  0  0  0  0  0  0  0  0
    8.2049    4.2957   13.0474 C   0  0  0  0  0  0  0  0  0  0  0  0
    6.9296    4.8193   13.0877 N   0  0  0  0  0  0  0  0  0  0  0  0
    8.3778    3.0793   13.5332 N   0  0  0  0  0  0  0  0  0  0  0  0
    9.6209    2.6118   13.4549 C   0  0  0  0  0  0  0  0  0  0  0  0
   10.6602    3.2797   12.9590 N   0  0  0  0  0  0  0  0  0  0  0  0
    6.7570    5.7226   12.7362 H   0  0  0  0  0  0  0  0  0  0  0  0
    6.1919    4.2898   13.4681 H   0  0  0  0  0  0  0  0  0  0  0  0
    9.8913    1.2841   14.0174 C   0  0  0  0  0  0  0  0  0  0  0  0
   10.6274    1.1829   15.2179 C   0  0  0  0  0  0  0  0  0  0  0  0
   10.9011   -0.0552   15.8059 C   0  0  0  0  0  0  0  0  0  0  0  0
   10.4456   -1.2191   15.1973 C   0  0  0  0  0  0  0  0  0  0  0  0
   10.8131   -2.8964   15.9864 Br  0  0  0  0  0  0  0  0  0  0  0  0
    9.7276   -1.1565   14.0069 C   0  0  0  0  0  0  0  0  0  0  0  0
    9.4551    0.0862   13.4190 C   0  0  0  0  0  0  0  0  0  0  0  0
    8.6123    0.0580   11.9047 Cl  0  0  0  0  0  0  0  0  0  0  0  0
   13.0891    4.8392   12.6899 C   0  0  0  0  0  0  0  0  0  0  0  0
   11.6606    5.4743   11.7791 S   0  0  0  0  0  0  0  0  0  0  0  0
 18 19  1  0
 19  1  1  0
  1  2  2  0
  2  3  1  0
  3  4  1  0
  3  5  2  0
  5  6  1  0
  6 10  1  0
 10 11  2  0
 11 12  1  0
 12 13  2  0
 13 14  1  0
 13 15  1  0
 15 16  2  0
 16 17  1  0
  6  7  2  0
  7  1  1  0
 16 10  1  0
  4  8  1  0
  4  9  1  0
M  END
> <minimizedAffinity>
-7.57931

> <CNNscore>
0.9443815351

> <CNNaffinity>
6.2910666466

> <CNN_VS>
5.9411673546

> <CNNaffinity_variance>
0.1989038587

$$$$



 19 20  0  0  0  0  0  0  0  0999 V2000
   10.4959    4.3469   12.4590 C   0  0  0  0  0  0  0  0  0  0  0  0
    9.3054    4.9370   12.5009 N   0  0  0  0  0  0  0  0  0  0  0  0
    8.3569    4.2447   13.1042 C   0  0  0  0  0  0  0  0  0  0  0  0
    7.1011    4.8107   13.1755 N   0  0  0  0  0  0  0  0  0  0  0  0
    8.5092    3.0376   13.6191 N   0  0  0  0  0  0  0  0  0  0  0  0
    9.7332    2.5277   13.5095 C   0  0  0  0  0  0  0  0  0  0  0  0
   10.7738    3.1470   12.9567 N   0  0  0  0  0  0  0  0  0  0  0  0
    6.9441    5.7087   12.8039 H   0  0  0  0  0  0  0  0  0  0  0  0
    6.3618    4.3166   13.5979 H   0  0  0  0  0  0  0  0  0  0  0  0
    9.9822    1.2084   14.1008 C   0  0  0  0  0  0  0  0  0  0  0  0
    9.5422    0.0543   13.4168 C   0  0  0  0  0  0  0  0  0  0  0  0
    9.7658   -1.2278   13.9266 C   0  0  0  0  0  0  0  0  0  0  0  0
   10.4316   -1.3779   15.1375 C   0  0  0  0  0  0  0  0  0  0  0  0
   10.7362   -3.1084   15.8329 Br  0  0  0  0  0  0  0  0  0  0  0  0
   10.8682   -0.2613   15.8440 C   0  0  0  0  0  0  0  0  0  0  0  0
   10.6422    1.0233   15.3310 C   0  0  0  0  0  0  0  0  0  0  0  0
   11.1639    2.3521   16.3139 Cl  0  0  0  0  0  0  0  0  0  0  0  0
   13.1969    4.8317   12.7364 C   0  0  0  0  0  0  0  0  0  0  0  0
   11.7983    5.2734   11.6769 S   0  0  0  0  0  0  0  0  0  0  0  0
 18 19  1  0
 19  1  1  0
  1  2  2  0
  2  3  1  0
  3  4  1  0
  3  5  2  0
  5  6  1  0
  6 10  1  0
 10 11  2  0
 11 12  1  0
 12 13  2  0
 13 14  1  0
 13 15  1  0
 15 16  2  0
 16 17  1  0
  6  7  2  0
  7  1  1  0
 16 10  1  0
  4  8  1  0
  4  9  1  0
M  END
> <minimizedAffinity>
-7.18446

> <CNNscore>
0.8402484655

> <CNNaffinity>
5.8250956535

> <CNN_VS>
4.8945279121

> <CNNaffinity_variance>
0.0944107547

$$$$



 19 20  0  0  0  0  0  0  0  0999 V2000
    8.9976    1.8470   13.0717 C   0  0  0  0  0  0  0  0  0  0  0  0
    8.0443    2.6681   12.6426 N   0  0  0  0  0  0  0  0  0  0  0  0
    8.1502    3.9167   13.0584 C   0  0  0  0  0  0  0  0  0  0  0  0
    7.1862    4.8114   12.6430 N   0  0  0  0  0  0  0  0  0  0  0  0
    9.0915    4.3701   13.8670 N   0  0  0  0  0  0  0  0  0  0  0  0
    9.9869    3.4652   14.2539 C   0  0  0  0  0  0  0  0  0  0  0  0
   10.0020    2.1905   13.8704 N   0  0  0  0  0  0  0  0  0  0  0  0
    6.4666    4.5150   12.0401 H   0  0  0  0  0  0  0  0  0  0  0  0
    7.2178    5.7465   12.9493 H   0  0  0  0  0  0  0  0  0  0  0  0
   11.0857    3.9128   15.1167 C   0  0  0  0  0  0  0  0  0  0  0  0
   11.0614    3.5810   16.4889 C   0  0  0  0  0  0  0  0  0  0  0  0
   12.0890    3.9685   17.3534 C   0  0  0  0  0  0  0  0  0  0  0  0
   13.1609    4.7026   16.8590 C   0  0  0  0  0  0  0  0  0  0  0  0
   14.5531    5.2308   18.0226 Br  0  0  0  0  0  0  0  0  0  0  0  0
   13.2107    5.0573   15.5143 C   0  0  0  0  0  0  0  0  0  0  0  0
   12.1787    4.6680   14.6495 C   0  0  0  0  0  0  0  0  0  0  0  0
   12.2971    5.2128   13.0084 Cl  0  0  0  0  0  0  0  0  0  0  0  0
    9.5962   -0.7080   13.9207 C   0  0  0  0  0  0  0  0  0  0  0  0
    8.8932    0.1650   12.5004 S   0  0  0  0  0  0  0  0  0  0  0  0
 18 19  1  0
 19  1  1  0
  1  2  2  0
  2  3  1  0
  3  4  1  0
  3  5  2  0
  5  6  1  0
  6 10  1  0
 10 11  2  0
 11 12  1  0
 12 13  2  0
 13 14  1  0
 13 15  1  0
 15 16  2  0
 16 17  1  0
  6  7  2  0
  7  1  1  0
 16 10  1  0
  4  8  1  0
  4  9  1  0
M  END
> <minimizedAffinity>
-6.15377

> <CNNscore>
0.8302812576

> <CNNaffinity>
5.6385459900

> <CNN_VS>
4.6815791130

> <CNNaffinity_variance>
0.0307637397

$$$$



 19 20  0  0  0  0  0  0  0  0999 V2000
    8.9063    2.2932   12.8341 C   0  0  0  0  0  0  0  0  0  0  0  0
    8.2965    3.4726   12.7678 N   0  0  0  0  0  0  0  0  0  0  0  0
    8.9792    4.4862   13.2674 C   0  0  0  0  0  0  0  0  0  0  0  0
    8.3923    5.7336   13.2246 N   0  0  0  0  0  0  0  0  0  0  0  0
   10.1695    4.3941   13.8331 N   0  0  0  0  0  0  0  0  0  0  0  0
   10.6852    3.1681   13.8660 C   0  0  0  0  0  0  0  0  0  0  0  0
   10.1067    2.0804   13.3618 N   0  0  0  0  0  0  0  0  0  0  0  0
    7.5056    5.8466   12.8119 H   0  0  0  0  0  0  0  0  0  0  0  0
    8.8600    6.5111   13.6069 H   0  0  0  0  0  0  0  0  0  0  0  0
   12.0250    3.0026   14.4404 C   0  0  0  0  0  0  0  0  0  0  0  0
   12.7984    1.8811   14.0695 C   0  0  0  0  0  0  0  0  0  0  0  0
   14.0864    1.6816   14.5744 C   0  0  0  0  0  0  0  0  0  0  0  0
   14.6232    2.6018   15.4672 C   0  0  0  0  0  0  0  0  0  0  0  0
   16.3636    2.3375   16.1544 Br  0  0  0  0  0  0  0  0  0  0  0  0
   13.8837    3.7121   15.8636 C   0  0  0  0  0  0  0  0  0  0  0  0
   12.5921    3.9096   15.3564 C   0  0  0  0  0  0  0  0  0  0  0  0
   11.7258    5.2844   15.9591 Cl  0  0  0  0  0  0  0  0  0  0  0  0
    8.9137   -0.4642   12.8926 C   0  0  0  0  0  0  0  0  0  0  0  0
    8.0183    0.9163   12.1401 S   0  0  0  0  0  0  0  0  0  0  0  0
 18 19  1  0
 19  1  1  0
  1  2  2  0
  2  3  1  0
  3  4  1  0
  3  5  2  0
  5  6  1  0
  6 10  1  0
 10 11  2  0
 11 12  1  0
 12 13  2  0
 13 14  1  0
 13 15  1  0
 15 16  2  0
 16 17  1  0
  6  7  2  0
  7  1  1  0
 16 10  1  0
  4  8  1  0
  4  9  1  0
M  END
> <minimizedAffinity>
-5.53841

> <CNNscore>
0.8028389812

> <CNNaffinity>
5.6569175720

> <CNN_VS>
4.5415940285

> <CNNaffinity_variance>
0.0168313980

$$$$



 19 20  0  0  0  0  0  0  0  0999 V2000
    8.4695    2.2670   13.3716 C   0  0  0  0  0  0  0  0  0  0  0  0
    7.9579    3.4727   13.1435 N   0  0  0  0  0  0  0  0  0  0  0  0
    8.7748    4.4827   13.3796 C   0  0  0  0  0  0  0  0  0  0  0  0
    8.2943    5.7567   13.1598 N   0  0  0  0  0  0  0  0  0  0  0  0
   10.0081    4.3696   13.8395 N   0  0  0  0  0  0  0  0  0  0  0  0
   10.4188    3.1222   14.0524 C   0  0  0  0  0  0  0  0  0  0  0  0
    9.6984    2.0280   13.8159 N   0  0  0  0  0  0  0  0  0  0  0  0
    7.3803    5.8858   12.8175 H   0  0  0  0  0  0  0  0  0  0  0  0
    8.8653    6.5369   13.3452 H   0  0  0  0  0  0  0  0  0  0  0  0
   11.7949    2.9235   14.5206 C   0  0  0  0  0  0  0  0  0  0  0  0
   12.5135    4.0264   15.0311 C   0  0  0  0  0  0  0  0  0  0  0  0
   13.8217    3.8913   15.5043 C   0  0  0  0  0  0  0  0  0  0  0  0
   14.4383    2.6460   15.4698 C   0  0  0  0  0  0  0  0  0  0  0  0
   16.2073    2.4566   16.1070 Br  0  0  0  0  0  0  0  0  0  0  0  0
   13.7635    1.5401   14.9619 C   0  0  0  0  0  0  0  0  0  0  0  0
   12.4519    1.6783   14.4873 C   0  0  0  0  0  0  0  0  0  0  0  0
   11.7188    0.2593   13.8141 Cl  0  0  0  0  0  0  0  0  0  0  0  0
    8.2818    0.1160   11.6556 C   0  0  0  0  0  0  0  0  0  0  0  0
    7.3972    0.8881   13.0321 S   0  0  0  0  0  0  0  0  0  0  0  0
 18 19  1  0
 19  1  1  0
  1  2  2  0
  2  3  1  0
  3  4  1  0
  3  5  2  0
  5  6  1  0
  6 10  1  0
 10 11  2  0
 11 12  1  0
 12 13  2  0
 13 14  1  0
 13 15  1  0
 15 16  2  0
 16 17  1  0
  6  7  2  0
  7  1  1  0
 16 10  1  0
  4  8  1  0
  4  9  1  0
M  END
> <minimizedAffinity>
-5.67245

> <CNNscore>
0.7988832593

> <CNNaffinity>
5.7666282654

> <CNN_VS>
4.6068630219

> <CNNaffinity_variance>
0.0205042362

$$$$



 19 20  0  0  0  0  0  0  0  0999 V2000
    8.1545    3.8106   12.9882 C   0  0  0  0  0  0  0  0  0  0  0  0
    9.0380    4.5744   12.3530 N   0  0  0  0  0  0  0  0  0  0  0  0
   10.2786    4.1227   12.3610 C   0  0  0  0  0  0  0  0  0  0  0  0
   11.2364    4.8772   11.7164 N   0  0  0  0  0  0  0  0  0  0  0  0
   10.6802    3.0183   12.9648 N   0  0  0  0  0  0  0  0  0  0  0  0
    9.7229    2.3354   13.5872 C   0  0  0  0  0  0  0  0  0  0  0  0
    8.4356    2.6734   13.6147 N   0  0  0  0  0  0  0  0  0  0  0  0
   10.9799    5.7075   11.2539 H   0  0  0  0  0  0  0  0  0  0  0  0
   12.1767    4.5854   11.7188 H   0  0  0  0  0  0  0  0  0  0  0  0
   10.0932    1.0750   14.2401 C   0  0  0  0  0  0  0  0  0  0  0  0
   10.8833    1.1126   15.4096 C   0  0  0  0  0  0  0  0  0  0  0  0
   11.2528   -0.0565   16.0806 C   0  0  0  0  0  0  0  0  0  0  0  0
   10.8409   -1.2893   15.5880 C   0  0  0  0  0  0  0  0  0  0  0  0
   11.3378   -2.8740   16.4898 Br  0  0  0  0  0  0  0  0  0  0  0  0
   10.0715   -1.3637   14.4309 C   0  0  0  0  0  0  0  0  0  0  0  0
    9.7028   -0.1899   13.7594 C   0  0  0  0  0  0  0  0  0  0  0  0
    8.8008   -0.3879   12.2927 Cl  0  0  0  0  0  0  0  0  0  0  0  0
    5.6528    3.0337   13.8511 C   0  0  0  0  0  0  0  0  0  0  0  0
    6.4700    4.3835   12.9658 S   0  0  0  0  0  0  0  0  0  0  0  0
 18 19  1  0
 19  1  1  0
  1  2  2  0
  2  3  1  0
  3  4  1  0
  3  5  2  0
  5  6  1  0
  6 10  1  0
 10 11  2  0
 11 12  1  0
 12 13  2  0
 13 14  1  0
 13 15  1  0
 15 16  2  0
 16 17  1  0
  6  7  2  0
  7  1  1  0
 16 10  1  0
  4  8  1  0
  4  9  1  0
M  END
> <minimizedAffinity>
-6.69645

> <CNNscore>
0.7489077449

> <CNNaffinity>
5.8400092125

> <CNN_VS>
4.3736281395

> <CNNaffinity_variance>
0.0472393222

$$$$



 19 20  0  0  0  0  0  0  0  0999 V2000
    9.7640    3.6742   13.4531 C   0  0  0  0  0  0  0  0  0  0  0  0
   10.8501    4.3198   13.0397 N   0  0  0  0  0  0  0  0  0  0  0  0
   11.9845    3.6604   13.1856 C   0  0  0  0  0  0  0  0  0  0  0  0
   13.1431    4.2848   12.7731 N   0  0  0  0  0  0  0  0  0  0  0  0
   12.1004    2.4596   13.7244 N   0  0  0  0  0  0  0  0  0  0  0  0
   10.9574    1.9072   14.1226 C   0  0  0  0  0  0  0  0  0  0  0  0
    9.7536    2.4604   13.9928 N   0  0  0  0  0  0  0  0  0  0  0  0
   13.1016    5.1804   12.3663 H   0  0  0  0  0  0  0  0  0  0  0  0
   14.0115    3.8349   12.8854 H   0  0  0  0  0  0  0  0  0  0  0  0
   11.0099    0.5548   14.6888 C   0  0  0  0  0  0  0  0  0  0  0  0
   11.8797    0.2955   15.7703 C   0  0  0  0  0  0  0  0  0  0  0  0
   11.9590   -0.9703   16.3577 C   0  0  0  0  0  0  0  0  0  0  0  0
   11.1700   -2.0045   15.8677 C   0  0  0  0  0  0  0  0  0  0  0  0
   11.2732   -3.7186   16.6567 Br  0  0  0  0  0  0  0  0  0  0  0  0
   10.3106   -1.7869   14.7951 C   0  0  0  0  0  0  0  0  0  0  0  0
   10.2333   -0.5168   14.2073 C   0  0  0  0  0  0  0  0  0  0  0  0
    9.1843   -0.3609   12.8364 Cl  0  0  0  0  0  0  0  0  0  0  0  0
    7.0923    3.1296   13.0381 C   0  0  0  0  0  0  0  0  0  0  0  0
    8.2191    4.5308   13.2394 S   0  0  0  0  0  0  0  0  0  0  0  0
 18 19  1  0
 19  1  1  0
  1  2  2  0
  2  3  1  0
  3  4  1  0
  3  5  2  0
  5  6  1  0
  6 10  1  0
 10 11  2  0
 11 12  1  0
 12 13  2  0
 13 14  1  0
 13 15  1  0
 15 16  2  0
 16 17  1  0
  6  7  2  0
  7  1  1  0
 16 10  1  0
  4  8  1  0
  4  9  1  0
M  END
> <minimizedAffinity>
-6.31377

> <CNNscore>
0.7118706703

> <CNNaffinity>
5.7220225334

> <CNN_VS>
4.0733399391

> <CNNaffinity_variance>
0.0323254280

$$$$



 19 20  0  0  0  0  0  0  0  0999 V2000
   13.9030    2.3482   14.5759 C   0  0  0  0  0  0  0  0  0  0  0  0
   14.7599    3.0801   13.8707 N   0  0  0  0  0  0  0  0  0  0  0  0
   14.2083    3.9199   13.0142 C   0  0  0  0  0  0  0  0  0  0  0  0
   15.0525    4.7038   12.2558 N   0  0  0  0  0  0  0  0  0  0  0  0
   12.9100    4.0467   12.8049 N   0  0  0  0  0  0  0  0  0  0  0  0
   12.1390    3.2566   13.5474 C   0  0  0  0  0  0  0  0  0  0  0  0
   12.5801    2.4005   14.4664 N   0  0  0  0  0  0  0  0  0  0  0  0
   16.0270    4.6406   12.3800 H   0  0  0  0  0  0  0  0  0  0  0  0
   14.6804    5.3266   11.5903 H   0  0  0  0  0  0  0  0  0  0  0  0
   10.6848    3.3792   13.3970 C   0  0  0  0  0  0  0  0  0  0  0  0
   10.0903    4.6571   13.4801 C   0  0  0  0  0  0  0  0  0  0  0  0
    8.7120    4.8337   13.3295 C   0  0  0  0  0  0  0  0  0  0  0  0
    7.9003    3.7294   13.0974 C   0  0  0  0  0  0  0  0  0  0  0  0
    6.0359    3.9610   12.8939 Br  0  0  0  0  0  0  0  0  0  0  0  0
    8.4517    2.4539   13.0218 C   0  0  0  0  0  0  0  0  0  0  0  0
    9.8340    2.2793   13.1739 C   0  0  0  0  0  0  0  0  0  0  0  0
   10.4177    0.6480   13.1295 Cl  0  0  0  0  0  0  0  0  0  0  0  0
   13.4693   -0.1598   15.6385 C   0  0  0  0  0  0  0  0  0  0  0  0
   14.6219    1.2298   15.7585 S   0  0  0  0  0  0  0  0  0  0  0  0
 18 19  1  0
 19  1  1  0
  1  2  2  0
  2  3  1  0
  3  4  1  0
  3  5  2  0
  5  6  1  0
  6 10  1  0
 10 11  2  0
 11 12  1  0
 12 13  2  0
 13 14  1  0
 13 15  1  0
 15 16  2  0
 16 17  1  0
  6  7  2  0
  7  1  1  0
 16 10  1  0
  4  8  1  0
  4  9  1  0
M  END
> <minimizedAffinity>
-6.11502

> <CNNscore>
0.6839532852

> <CNNaffinity>
5.6274733543

> <CNN_VS>
3.8489289284

> <CNNaffinity_variance>
0.1158527359

$$$$



 19 20  0  0  0  0  0  0  0  0999 V2000
   13.3421    2.4354   13.7344 C   0  0  0  0  0  0  0  0  0  0  0  0
   13.6347    1.2523   14.2655 N   0  0  0  0  0  0  0  0  0  0  0  0
   12.5933    0.4950   14.5569 C   0  0  0  0  0  0  0  0  0  0  0  0
   12.8403   -0.7436   15.1113 N   0  0  0  0  0  0  0  0  0  0  0  0
   11.3303    0.8434   14.3867 N   0  0  0  0  0  0  0  0  0  0  0  0
   11.1440    2.0534   13.8660 C   0  0  0  0  0  0  0  0  0  0  0  0
   12.1150    2.8872   13.5000 N   0  0  0  0  0  0  0  0  0  0  0  0
   13.7672   -1.0424   15.2554 H   0  0  0  0  0  0  0  0  0  0  0  0
   12.0897   -1.3288   15.3629 H   0  0  0  0  0  0  0  0  0  0  0  0
    9.7656    2.4848   13.6089 C   0  0  0  0  0  0  0  0  0  0  0  0
    9.4579    3.8623   13.6465 C   0  0  0  0  0  0  0  0  0  0  0  0
    8.1650    4.3300   13.3947 C   0  0  0  0  0  0  0  0  0  0  0  0
    7.1520    3.4233   13.1050 C   0  0  0  0  0  0  0  0  0  0  0  0
    5.4016    4.0489   12.7646 Br  0  0  0  0  0  0  0  0  0  0  0  0
    7.4176    2.0578   13.0717 C   0  0  0  0  0  0  0  0  0  0  0  0
    8.7148    1.5912   13.3252 C   0  0  0  0  0  0  0  0  0  0  0  0
    8.9325   -0.1283   13.3258 Cl  0  0  0  0  0  0  0  0  0  0  0  0
   13.8741    4.9560   12.7493 C   0  0  0  0  0  0  0  0  0  0  0  0
   14.7305    3.4624   13.3055 S   0  0  0  0  0  0  0  0  0  0  0  0
 18 19  1  0
 19  1  1  0
  1  2  2  0
  2  3  1  0
  3  4  1  0
  3  5  2  0
  5  6  1  0
  6 10  1  0
 10 11  2  0
 11 12  1  0
 12 13  2  0
 13 14  1  0
 13 15  1  0
 15 16  2  0
 16 17  1  0
  6  7  2  0
  7  1  1  0
 16 10  1  0
  4  8  1  0
  4  9  1  0
M  END
> <minimizedAffinity>
-6.06424

> <CNNscore>
0.6324817538

> <CNNaffinity>
5.5529208183

> <CNN_VS>
3.5121212006

> <CNNaffinity_variance>
0.0292723924

$$$$
