


 32 33  0  0  0  0  0  0  0  0999 V2000
   28.8895   -0.9712    3.2921 C   0  0  0  0  0  0  0  0  0  0  0  0
   29.4064    0.0946    4.2539 C   0  0  0  0  0  0  0  0  0  0  0  0
   30.4257    0.8189    3.5154 O   0  0  0  0  0  0  0  0  0  0  0  0
   31.1515    0.2161    3.2903 H   0  0  0  0  0  0  0  0  0  0  0  0
   28.2838    1.1261    4.5753 C   0  0  0  0  0  0  0  0  0  0  0  0
   27.3587    0.7672    5.3081 O   0  0  0  0  0  0  0  0  0  0  0  0
   28.4283    2.3836    4.0309 N   0  0  0  0  0  0  0  0  0  0  0  0
   29.2133    2.5194    3.4526 H   0  0  0  0  0  0  0  0  0  0  0  0
   27.5825    3.4997    4.2053 C   0  0  0  0  0  0  0  0  0  0  0  0
   28.0118    4.8251    4.1733 C   0  0  0  0  0  0  0  0  0  0  0  0
   27.1007    5.8717    4.3534 C   0  0  0  0  0  0  0  0  0  0  0  0
   25.7418    5.6098    4.5667 C   0  0  0  0  0  0  0  0  0  0  0  0
   25.2884    4.2813    4.5986 C   0  0  0  0  0  0  0  0  0  0  0  0
   26.2207    3.2384    4.4161 C   0  0  0  0  0  0  0  0  0  0  0  0
   23.8312    3.9632    4.8255 C   0  0  0  0  0  0  0  0  0  0  0  0
   23.4678    4.0923    6.1291 F   0  0  0  0  0  0  0  0  0  0  0  0
   23.4993    2.6883    4.4765 F   0  0  0  0  0  0  0  0  0  0  0  0
   23.0030    4.7678    4.1089 F   0  0  0  0  0  0  0  0  0  0  0  0
   24.8462    6.7183    4.7468 C   0  0  0  0  0  0  0  0  0  0  0  0
   24.1267    7.6174    4.8852 N   0  0  0  0  0  0  0  0  0  0  0  0
   30.1268   -0.4116    5.5025 C   0  0  0  0  0  0  0  0  0  0  0  0
   31.1493    0.7839    6.3127 S   0  0  0  0  0  0  0  0  0  0  0  0
   32.4764    0.2093    6.4440 O   0  0  0  0  0  0  0  0  0  0  0  0
   30.9666    2.0742    5.6825 O   0  0  0  0  0  0  0  0  0  0  0  0
   30.4479    0.9036    7.9419 C   0  0  0  0  0  0  0  0  0  0  0  0
   29.3662    1.7579    8.1794 C   0  0  0  0  0  0  0  0  0  0  0  0
   28.8294    1.8367    9.4660 C   0  0  0  0  0  0  0  0  0  0  0  0
   29.3692    1.0625   10.4926 C   0  0  0  0  0  0  0  0  0  0  0  0
   28.8379    1.1616   11.7198 F   0  0  0  0  0  0  0  0  0  0  0  0
   30.4379    0.2006   10.2476 C   0  0  0  0  0  0  0  0  0  0  0  0
   31.0996   -0.7595   11.5130 Cl  0  0  0  0  0  0  0  0  0  0  0  0
   30.9820    0.1120    8.9664 C   0  0  0  0  0  0  0  0  0  0  0  0
  2  1  1  0
  2  3  1  0
  2 21  1  0
 21 22  1  0
 22 23  2  0
 22 24  2  0
 22 25  1  0
 25 26  2  0
 26 27  1  0
 27 28  2  0
 28 29  1  0
 28 30  1  0
 30 31  1  0
 30 32  2  0
  2  5  1  0
  5  6  2  0
  5  7  1  0
  7  9  1  0
  9 10  2  0
 10 11  1  0
 11 12  2  0
 12 19  1  0
 19 20  3  0
 12 13  1  0
 13 15  1  0
 15 16  1  0
 15 17  1  0
 15 18  1  0
 13 14  2  0
 32 25  1  0
 14  9  1  0
  3  4  1  0
  7  8  1  0
M  END
> <minimizedAffinity>
-10.53435

> <CNNscore>
0.8934834599

> <CNNaffinity>
7.9644203186

> <CNN_VS>
7.1160778999

> <CNNaffinity_variance>
0.0008138208

$$$$



 32 33  0  0  0  0  0  0  0  0999 V2000
   28.9483   -0.9993    3.6127 C   0  0  0  0  0  0  0  0  0  0  0  0
   29.3795    0.1388    4.5331 C   0  0  0  0  0  0  0  0  0  0  0  0
   30.4261    0.8420    3.8127 O   0  0  0  0  0  0  0  0  0  0  0  0
   31.1783    0.2459    3.6717 H   0  0  0  0  0  0  0  0  0  0  0  0
   28.2157    1.1580    4.7180 C   0  0  0  0  0  0  0  0  0  0  0  0
   27.1612    0.7512    5.2120 O   0  0  0  0  0  0  0  0  0  0  0  0
   28.4682    2.4575    4.3355 N   0  0  0  0  0  0  0  0  0  0  0  0
   29.3542    2.6307    3.9428 H   0  0  0  0  0  0  0  0  0  0  0  0
   27.6053    3.5691    4.4409 C   0  0  0  0  0  0  0  0  0  0  0  0
   28.0070    4.8946    4.2868 C   0  0  0  0  0  0  0  0  0  0  0  0
   27.0803    5.9363    4.4055 C   0  0  0  0  0  0  0  0  0  0  0  0
   25.7332    5.6691    4.6785 C   0  0  0  0  0  0  0  0  0  0  0  0
   25.3075    4.3401    4.8334 C   0  0  0  0  0  0  0  0  0  0  0  0
   26.2552    3.3022    4.7115 C   0  0  0  0  0  0  0  0  0  0  0  0
   23.8636    4.0164    5.1275 C   0  0  0  0  0  0  0  0  0  0  0  0
   23.6564    3.7053    6.4345 F   0  0  0  0  0  0  0  0  0  0  0  0
   23.3971    2.9503    4.4180 F   0  0  0  0  0  0  0  0  0  0  0  0
   23.0271    5.0466    4.8352 F   0  0  0  0  0  0  0  0  0  0  0  0
   24.8208    6.7728    4.7917 C   0  0  0  0  0  0  0  0  0  0  0  0
   24.0780    7.6593    4.8785 N   0  0  0  0  0  0  0  0  0  0  0  0
   30.0318   -0.2679    5.8535 C   0  0  0  0  0  0  0  0  0  0  0  0
   31.1772    0.9073    6.5152 S   0  0  0  0  0  0  0  0  0  0  0  0
   32.5164    0.4209    6.2344 O   0  0  0  0  0  0  0  0  0  0  0  0
   30.7805    2.2400    6.1128 O   0  0  0  0  0  0  0  0  0  0  0  0
   30.9209    0.8029    8.2714 C   0  0  0  0  0  0  0  0  0  0  0  0
   31.9247    0.2873    9.0978 C   0  0  0  0  0  0  0  0  0  0  0  0
   31.7037    0.2147   10.4746 C   0  0  0  0  0  0  0  0  0  0  0  0
   30.4954    0.6607   11.0088 C   0  0  0  0  0  0  0  0  0  0  0  0
   30.3075    0.5745   12.3337 F   0  0  0  0  0  0  0  0  0  0  0  0
   29.5033    1.1883   10.1825 C   0  0  0  0  0  0  0  0  0  0  0  0
   28.0148    1.7447   10.8425 Cl  0  0  0  0  0  0  0  0  0  0  0  0
   29.7126    1.2673    8.8058 C   0  0  0  0  0  0  0  0  0  0  0  0
  2  1  1  0
  2  3  1  0
  2 21  1  0
 21 22  1  0
 22 23  2  0
 22 24  2  0
 22 25  1  0
 25 26  2  0
 26 27  1  0
 27 28  2  0
 28 29  1  0
 28 30  1  0
 30 31  1  0
 30 32  2  0
  2  5  1  0
  5  6  2  0
  5  7  1  0
  7  9  1  0
  9 10  2  0
 10 11  1  0
 11 12  2  0
 12 19  1  0
 19 20  3  0
 12 13  1  0
 13 15  1  0
 15 16  1  0
 15 17  1  0
 15 18  1  0
 13 14  2  0
 32 25  1  0
 14  9  1  0
  3  4  1  0
  7  8  1  0
M  END
> <minimizedAffinity>
-10.09363

> <CNNscore>
0.8810864687

> <CNNaffinity>
7.8694205284

> <CNN_VS>
6.9336400032

> <CNNaffinity_variance>
0.0118359933

$$$$



 32 33  0  0  0  0  0  0  0  0999 V2000
   28.6342   -1.0680    2.2200 C   0  0  0  0  0  0  0  0  0  0  0  0
   28.6705   -0.2749    3.5230 C   0  0  0  0  0  0  0  0  0  0  0  0
   29.9839    0.3433    3.5618 O   0  0  0  0  0  0  0  0  0  0  0  0
   30.6652   -0.3465    3.5915 H   0  0  0  0  0  0  0  0  0  0  0  0
   27.6394    0.8922    3.4770 C   0  0  0  0  0  0  0  0  0  0  0  0
   26.5047    0.6478    3.0595 O   0  0  0  0  0  0  0  0  0  0  0  0
   28.0731    2.1161    3.9381 N   0  0  0  0  0  0  0  0  0  0  0  0
   29.0128    2.1633    4.2279 H   0  0  0  0  0  0  0  0  0  0  0  0
   27.3279    3.3098    4.0435 C   0  0  0  0  0  0  0  0  0  0  0  0
   27.8616    4.5874    3.8846 C   0  0  0  0  0  0  0  0  0  0  0  0
   27.0459    5.7180    4.0038 C   0  0  0  0  0  0  0  0  0  0  0  0
   25.6796    5.5896    4.2820 C   0  0  0  0  0  0  0  0  0  0  0  0
   25.1218    4.3110    4.4418 C   0  0  0  0  0  0  0  0  0  0  0  0
   25.9587    3.1820    4.3193 C   0  0  0  0  0  0  0  0  0  0  0  0
   23.6535    4.1362    4.7415 C   0  0  0  0  0  0  0  0  0  0  0  0
   22.8627    4.8628    3.9080 F   0  0  0  0  0  0  0  0  0  0  0  0
   23.3129    4.5254    6.0025 F   0  0  0  0  0  0  0  0  0  0  0  0
   23.2485    2.8436    4.6340 F   0  0  0  0  0  0  0  0  0  0  0  0
   24.8844    6.7805    4.3954 C   0  0  0  0  0  0  0  0  0  0  0  0
   24.2375    7.7394    4.4799 N   0  0  0  0  0  0  0  0  0  0  0  0
   28.5932   -1.0887    4.8137 C   0  0  0  0  0  0  0  0  0  0  0  0
   28.7614   -0.1475    6.3027 S   0  0  0  0  0  0  0  0  0  0  0  0
   28.0051    1.0805    6.1334 O   0  0  0  0  0  0  0  0  0  0  0  0
   28.5197   -1.0078    7.4416 O   0  0  0  0  0  0  0  0  0  0  0  0
   30.4866    0.2802    6.3384 C   0  0  0  0  0  0  0  0  0  0  0  0
   31.4597   -0.7229    6.2818 C   0  0  0  0  0  0  0  0  0  0  0  0
   32.8093   -0.3658    6.3104 C   0  0  0  0  0  0  0  0  0  0  0  0
   33.1707    0.9788    6.3872 C   0  0  0  0  0  0  0  0  0  0  0  0
   34.4738    1.2933    6.4185 F   0  0  0  0  0  0  0  0  0  0  0  0
   32.1969    1.9764    6.4280 C   0  0  0  0  0  0  0  0  0  0  0  0
   32.6430    3.6360    6.5162 Cl  0  0  0  0  0  0  0  0  0  0  0  0
   30.8455    1.6325    6.3988 C   0  0  0  0  0  0  0  0  0  0  0  0
  2  1  1  0
  2  3  1  0
  2 21  1  0
 21 22  1  0
 22 23  2  0
 22 24  2  0
 22 25  1  0
 25 26  2  0
 26 27  1  0
 27 28  2  0
 28 29  1  0
 28 30  1  0
 30 31  1  0
 30 32  2  0
  2  5  1  0
  5  6  2  0
  5  7  1  0
  7  9  1  0
  9 10  2  0
 10 11  1  0
 11 12  2  0
 12 19  1  0
 19 20  3  0
 12 13  1  0
 13 15  1  0
 15 16  1  0
 15 17  1  0
 15 18  1  0
 13 14  2  0
 32 25  1  0
 14  9  1  0
  3  4  1  0
  7  8  1  0
M  END
> <minimizedAffinity>
-1.99071

> <CNNscore>
0.5734199286

> <CNNaffinity>
7.4080462456

> <CNN_VS>
4.2479214668

> <CNNaffinity_variance>
0.1271392107

$$$$



 32 33  0  0  0  0  0  0  0  0999 V2000
   26.6967    6.7928    6.1759 C   0  0  0  0  0  0  0  0  0  0  0  0
   25.2541    6.7306    5.6830 C   0  0  0  0  0  0  0  0  0  0  0  0
   24.6445    5.6323    6.4117 O   0  0  0  0  0  0  0  0  0  0  0  0
   25.0938    4.8036    6.1829 H   0  0  0  0  0  0  0  0  0  0  0  0
   24.4809    8.0162    6.1032 C   0  0  0  0  0  0  0  0  0  0  0  0
   23.4033    8.2517    5.5510 O   0  0  0  0  0  0  0  0  0  0  0  0
   25.0555    8.7855    7.0915 N   0  0  0  0  0  0  0  0  0  0  0  0
   25.9280    8.4786    7.4291 H   0  0  0  0  0  0  0  0  0  0  0  0
   24.5398    9.9617    7.6763 C   0  0  0  0  0  0  0  0  0  0  0  0
   24.3172   11.1516    6.9858 C   0  0  0  0  0  0  0  0  0  0  0  0
   23.7988   12.2704    7.6471 C   0  0  0  0  0  0  0  0  0  0  0  0
   23.4916   12.2173    9.0121 C   0  0  0  0  0  0  0  0  0  0  0  0
   23.7050   11.0266    9.7249 C   0  0  0  0  0  0  0  0  0  0  0  0
   24.2291    9.9084    9.0429 C   0  0  0  0  0  0  0  0  0  0  0  0
   23.3844   10.9342   11.1963 C   0  0  0  0  0  0  0  0  0  0  0  0
   23.1251   12.1488   11.7491 F   0  0  0  0  0  0  0  0  0  0  0  0
   24.3999   10.4042   11.9348 F   0  0  0  0  0  0  0  0  0  0  0  0
   22.3012   10.1530   11.4471 F   0  0  0  0  0  0  0  0  0  0  0  0
   22.9622   13.3928    9.6457 C   0  0  0  0  0  0  0  0  0  0  0  0
   22.5295   14.3433   10.1503 N   0  0  0  0  0  0  0  0  0  0  0  0
   25.0559    6.3693    4.2117 C   0  0  0  0  0  0  0  0  0  0  0  0
   26.4207    5.5341    3.4561 S   0  0  0  0  0  0  0  0  0  0  0  0
   26.2184    5.5742    2.0187 O   0  0  0  0  0  0  0  0  0  0  0  0
   27.6561    6.0146    4.0376 O   0  0  0  0  0  0  0  0  0  0  0  0
   26.2265    3.8472    3.9829 C   0  0  0  0  0  0  0  0  0  0  0  0
   25.0225    3.4250    4.5559 C   0  0  0  0  0  0  0  0  0  0  0  0
   24.8901    2.0957    4.9623 C   0  0  0  0  0  0  0  0  0  0  0  0
   25.9502    1.2068    4.7871 C   0  0  0  0  0  0  0  0  0  0  0  0
   25.7979   -0.0627    5.1910 F   0  0  0  0  0  0  0  0  0  0  0  0
   27.1434    1.6287    4.2011 C   0  0  0  0  0  0  0  0  0  0  0  0
   28.4491    0.5301    3.9790 Cl  0  0  0  0  0  0  0  0  0  0  0  0
   27.2875    2.9536    3.7899 C   0  0  0  0  0  0  0  0  0  0  0  0
  2  1  1  0
  2  3  1  0
  2 21  1  0
 21 22  1  0
 22 23  2  0
 22 24  2  0
 22 25  1  0
 25 26  2  0
 26 27  1  0
 27 28  2  0
 28 29  1  0
 28 30  1  0
 30 31  1  0
 30 32  2  0
  2  5  1  0
  5  6  2  0
  5  7  1  0
  7  9  1  0
  9 10  2  0
 10 11  1  0
 11 12  2  0
 12 19  1  0
 19 20  3  0
 12 13  1  0
 13 15  1  0
 15 16  1  0
 15 17  1  0
 15 18  1  0
 13 14  2  0
 32 25  1  0
 14  9  1  0
  3  4  1  0
  7  8  1  0
M  END
> <minimizedAffinity>
9.95024

> <CNNscore>
0.4435623884

> <CNNaffinity>
6.7380824089

> <CNN_VS>
2.9887599945

> <CNNaffinity_variance>
0.2808421552

$$$$



 32 33  0  0  0  0  0  0  0  0999 V2000
   23.3402    6.1236    4.7553 C   0  0  0  0  0  0  0  0  0  0  0  0
   24.4244    7.1646    5.0181 C   0  0  0  0  0  0  0  0  0  0  0  0
   24.8068    7.6622    3.7085 O   0  0  0  0  0  0  0  0  0  0  0  0
   25.1831    6.9378    3.1846 H   0  0  0  0  0  0  0  0  0  0  0  0
   23.8332    8.3806    5.7921 C   0  0  0  0  0  0  0  0  0  0  0  0
   22.6953    8.7567    5.4999 O   0  0  0  0  0  0  0  0  0  0  0  0
   24.6275    8.9310    6.7743 N   0  0  0  0  0  0  0  0  0  0  0  0
   25.5210    8.5326    6.8848 H   0  0  0  0  0  0  0  0  0  0  0  0
   24.3101    9.9989    7.6405 C   0  0  0  0  0  0  0  0  0  0  0  0
   24.0784   11.3083    7.2234 C   0  0  0  0  0  0  0  0  0  0  0  0
   23.7659   12.3056    8.1538 C   0  0  0  0  0  0  0  0  0  0  0  0
   23.6772   12.0090    9.5193 C   0  0  0  0  0  0  0  0  0  0  0  0
   23.9032   10.6950    9.9595 C   0  0  0  0  0  0  0  0  0  0  0  0
   24.2181    9.7021    9.0082 C   0  0  0  0  0  0  0  0  0  0  0  0
   23.8152   10.3404   11.4233 C   0  0  0  0  0  0  0  0  0  0  0  0
   22.5320   10.2857   11.8687 F   0  0  0  0  0  0  0  0  0  0  0  0
   24.4464   11.2377   12.2320 F   0  0  0  0  0  0  0  0  0  0  0  0
   24.3764    9.1350   11.7036 F   0  0  0  0  0  0  0  0  0  0  0  0
   23.3541   13.0676   10.4350 C   0  0  0  0  0  0  0  0  0  0  0  0
   23.0896   13.9270   11.1676 N   0  0  0  0  0  0  0  0  0  0  0  0
   25.7274    6.6471    5.6254 C   0  0  0  0  0  0  0  0  0  0  0  0
   26.8455    5.9022    4.4739 S   0  0  0  0  0  0  0  0  0  0  0  0
   26.4183    6.2821    3.1390 O   0  0  0  0  0  0  0  0  0  0  0  0
   28.2062    6.1423    4.9057 O   0  0  0  0  0  0  0  0  0  0  0  0
   26.5461    4.1600    4.6624 C   0  0  0  0  0  0  0  0  0  0  0  0
   25.3983    3.7127    5.3250 C   0  0  0  0  0  0  0  0  0  0  0  0
   25.1814    2.3402    5.4618 C   0  0  0  0  0  0  0  0  0  0  0  0
   26.1016    1.4353    4.9335 C   0  0  0  0  0  0  0  0  0  0  0  0
   25.8713    0.1229    5.0837 F   0  0  0  0  0  0  0  0  0  0  0  0
   27.2368    1.8859    4.2601 C   0  0  0  0  0  0  0  0  0  0  0  0
   28.3689    0.7692    3.6026 Cl  0  0  0  0  0  0  0  0  0  0  0  0
   27.4641    3.2545    4.1159 C   0  0  0  0  0  0  0  0  0  0  0  0
  2  1  1  0
  2  3  1  0
  2 21  1  0
 21 22  1  0
 22 23  2  0
 22 24  2  0
 22 25  1  0
 25 26  2  0
 26 27  1  0
 27 28  2  0
 28 29  1  0
 28 30  1  0
 30 31  1  0
 30 32  2  0
  2  5  1  0
  5  6  2  0
  5  7  1  0
  7  9  1  0
  9 10  2  0
 10 11  1  0
 11 12  2  0
 12 19  1  0
 19 20  3  0
 12 13  1  0
 13 15  1  0
 15 16  1  0
 15 17  1  0
 15 18  1  0
 13 14  2  0
 32 25  1  0
 14  9  1  0
  3  4  1  0
  7  8  1  0
M  END
> <minimizedAffinity>
1.39193

> <CNNscore>
0.2672961354

> <CNNaffinity>
6.5423369408

> <CNN_VS>
1.7487413883

> <CNNaffinity_variance>
0.0014095424

$$$$



 32 33  0  0  0  0  0  0  0  0999 V2000
   23.5492    6.1026    4.3527 C   0  0  0  0  0  0  0  0  0  0  0  0
   25.0007    6.2600    4.7959 C   0  0  0  0  0  0  0  0  0  0  0  0
   25.6955    6.8191    3.6498 O   0  0  0  0  0  0  0  0  0  0  0  0
   25.6559    6.1925    2.9104 H   0  0  0  0  0  0  0  0  0  0  0  0
   25.1094    7.3200    5.9325 C   0  0  0  0  0  0  0  0  0  0  0  0
   26.0374    7.2136    6.7383 O   0  0  0  0  0  0  0  0  0  0  0  0
   24.1640    8.3224    5.9327 N   0  0  0  0  0  0  0  0  0  0  0  0
   23.4732    8.2685    5.2332 H   0  0  0  0  0  0  0  0  0  0  0  0
   24.0700    9.4172    6.8181 C   0  0  0  0  0  0  0  0  0  0  0  0
   23.5178    9.3507    8.0959 C   0  0  0  0  0  0  0  0  0  0  0  0
   23.4686   10.4886    8.9087 C   0  0  0  0  0  0  0  0  0  0  0  0
   23.9740   11.7139    8.4573 C   0  0  0  0  0  0  0  0  0  0  0  0
   24.5380   11.8009    7.1744 C   0  0  0  0  0  0  0  0  0  0  0  0
   24.5787   10.6442    6.3678 C   0  0  0  0  0  0  0  0  0  0  0  0
   25.0924   13.1050    6.6565 C   0  0  0  0  0  0  0  0  0  0  0  0
   25.6739   12.9740    5.4348 F   0  0  0  0  0  0  0  0  0  0  0  0
   26.0516   13.6391    7.4642 F   0  0  0  0  0  0  0  0  0  0  0  0
   24.1393   14.0657    6.5331 F   0  0  0  0  0  0  0  0  0  0  0  0
   23.8998   12.8533    9.3289 C   0  0  0  0  0  0  0  0  0  0  0  0
   23.8460   13.7774   10.0277 N   0  0  0  0  0  0  0  0  0  0  0  0
   25.7571    4.9699    5.1089 C   0  0  0  0  0  0  0  0  0  0  0  0
   26.3249    4.0733    3.6930 S   0  0  0  0  0  0  0  0  0  0  0  0
   25.2596    3.1740    3.2869 O   0  0  0  0  0  0  0  0  0  0  0  0
   26.9071    4.9981    2.7437 O   0  0  0  0  0  0  0  0  0  0  0  0
   27.6570    3.0819    4.3282 C   0  0  0  0  0  0  0  0  0  0  0  0
   28.3548    3.4919    5.4690 C   0  0  0  0  0  0  0  0  0  0  0  0
   29.3974    2.6985    5.9521 C   0  0  0  0  0  0  0  0  0  0  0  0
   29.7252    1.5099    5.3008 C   0  0  0  0  0  0  0  0  0  0  0  0
   30.7341    0.7698    5.7830 F   0  0  0  0  0  0  0  0  0  0  0  0
   29.0164    1.0975    4.1726 C   0  0  0  0  0  0  0  0  0  0  0  0
   29.4167   -0.3726    3.3729 Cl  0  0  0  0  0  0  0  0  0  0  0  0
   27.9722    1.8806    3.6811 C   0  0  0  0  0  0  0  0  0  0  0  0
  2  1  1  0
  2  3  1  0
  2 21  1  0
 21 22  1  0
 22 23  2  0
 22 24  2  0
 22 25  1  0
 25 26  2  0
 26 27  1  0
 27 28  2  0
 28 29  1  0
 28 30  1  0
 30 31  1  0
 30 32  2  0
  2  5  1  0
  5  6  2  0
  5  7  1  0
  7  9  1  0
  9 10  2  0
 10 11  1  0
 11 12  2  0
 12 19  1  0
 19 20  3  0
 12 13  1  0
 13 15  1  0
 15 16  1  0
 15 17  1  0
 15 18  1  0
 13 14  2  0
 32 25  1  0
 14  9  1  0
  3  4  1  0
  7  8  1  0
M  END
> <minimizedAffinity>
6.71178

> <CNNscore>
0.2244483382

> <CNNaffinity>
5.9352049828

> <CNN_VS>
1.3321468830

> <CNNaffinity_variance>
0.2117272019

$$$$



 32 33  0  0  0  0  0  0  0  0999 V2000
   29.7279   -1.7666    3.5662 C   0  0  0  0  0  0  0  0  0  0  0  0
   29.7106   -0.5089    4.4298 C   0  0  0  0  0  0  0  0  0  0  0  0
   30.3023    0.5317    3.6077 O   0  0  0  0  0  0  0  0  0  0  0  0
   31.2219    0.2993    3.4044 H   0  0  0  0  0  0  0  0  0  0  0  0
   28.2443   -0.0632    4.7104 C   0  0  0  0  0  0  0  0  0  0  0  0
   27.5204   -0.8239    5.3577 O   0  0  0  0  0  0  0  0  0  0  0  0
   27.8740    1.1744    4.2309 N   0  0  0  0  0  0  0  0  0  0  0  0
   28.5571    1.6640    3.7181 H   0  0  0  0  0  0  0  0  0  0  0  0
   26.6303    1.8222    4.3889 C   0  0  0  0  0  0  0  0  0  0  0  0
   25.4235    1.1638    4.6174 C   0  0  0  0  0  0  0  0  0  0  0  0
   24.2357    1.8885    4.7652 C   0  0  0  0  0  0  0  0  0  0  0  0
   24.2353    3.2866    4.6893 C   0  0  0  0  0  0  0  0  0  0  0  0
   25.4414    3.9690    4.4637 C   0  0  0  0  0  0  0  0  0  0  0  0
   26.6295    3.2228    4.3160 C   0  0  0  0  0  0  0  0  0  0  0  0
   25.4772    5.4748    4.3770 C   0  0  0  0  0  0  0  0  0  0  0  0
   26.1676    5.9167    3.2925 F   0  0  0  0  0  0  0  0  0  0  0  0
   26.0719    6.0607    5.4543 F   0  0  0  0  0  0  0  0  0  0  0  0
   24.2365    6.0234    4.2987 F   0  0  0  0  0  0  0  0  0  0  0  0
   22.9900    3.9851    4.8471 C   0  0  0  0  0  0  0  0  0  0  0  0
   21.9888    4.5556    4.9787 N   0  0  0  0  0  0  0  0  0  0  0  0
   30.5760   -0.5396    5.6885 C   0  0  0  0  0  0  0  0  0  0  0  0
   31.0271    1.0487    6.3251 S   0  0  0  0  0  0  0  0  0  0  0  0
   32.4766    1.0973    6.3965 O   0  0  0  0  0  0  0  0  0  0  0  0
   30.2918    2.0741    5.6157 O   0  0  0  0  0  0  0  0  0  0  0  0
   30.4039    1.0280    7.9900 C   0  0  0  0  0  0  0  0  0  0  0  0
   29.2782    1.7865    8.3276 C   0  0  0  0  0  0  0  0  0  0  0  0
   28.8043    1.7558    9.6406 C   0  0  0  0  0  0  0  0  0  0  0  0
   29.4494    0.9687   10.5939 C   0  0  0  0  0  0  0  0  0  0  0  0
   28.9764    0.9618   11.8486 F   0  0  0  0  0  0  0  0  0  0  0  0
   30.5623    0.2020   10.2490 C   0  0  0  0  0  0  0  0  0  0  0  0
   31.3544   -0.7743   11.4239 Cl  0  0  0  0  0  0  0  0  0  0  0  0
   31.0445    0.2233    8.9404 C   0  0  0  0  0  0  0  0  0  0  0  0
  2  1  1  0
  2  3  1  0
  2 21  1  0
 21 22  1  0
 22 23  2  0
 22 24  2  0
 22 25  1  0
 25 26  2  0
 26 27  1  0
 27 28  2  0
 28 29  1  0
 28 30  1  0
 30 31  1  0
 30 32  2  0
  2  5  1  0
  5  6  2  0
  5  7  1  0
  7  9  1  0
  9 10  2  0
 10 11  1  0
 11 12  2  0
 12 19  1  0
 19 20  3  0
 12 13  1  0
 13 15  1  0
 15 16  1  0
 15 17  1  0
 15 18  1  0
 13 14  2  0
 32 25  1  0
 14  9  1  0
  3  4  1  0
  7  8  1  0
M  END
> <minimizedAffinity>
-9.13191

> <CNNscore>
0.2013649940

> <CNNaffinity>
7.0996651649

> <CNN_VS>
1.4296240807

> <CNNaffinity_variance>
0.0872091278

$$$$



 32 33  0  0  0  0  0  0  0  0999 V2000
   23.4191    6.2599    4.3512 C   0  0  0  0  0  0  0  0  0  0  0  0
   24.5012    7.2020    4.8705 C   0  0  0  0  0  0  0  0  0  0  0  0
   25.0158    7.8832    3.6958 O   0  0  0  0  0  0  0  0  0  0  0  0
   25.4198    7.2354    3.0974 H   0  0  0  0  0  0  0  0  0  0  0  0
   23.8730    8.3043    5.7747 C   0  0  0  0  0  0  0  0  0  0  0  0
   22.6907    8.6033    5.5886 O   0  0  0  0  0  0  0  0  0  0  0  0
   24.6900    8.8468    6.7426 N   0  0  0  0  0  0  0  0  0  0  0  0
   25.6178    8.5183    6.7624 H   0  0  0  0  0  0  0  0  0  0  0  0
   24.3523    9.8183    7.7088 C   0  0  0  0  0  0  0  0  0  0  0  0
   24.0843    9.5372    9.0472 C   0  0  0  0  0  0  0  0  0  0  0  0
   23.7598   10.5662    9.9382 C   0  0  0  0  0  0  0  0  0  0  0  0
   23.7001   11.8964    9.5053 C   0  0  0  0  0  0  0  0  0  0  0  0
   23.9706   12.2011    8.1616 C   0  0  0  0  0  0  0  0  0  0  0  0
   24.2952   11.1514    7.2767 C   0  0  0  0  0  0  0  0  0  0  0  0
   23.9159   13.6234    7.6615 C   0  0  0  0  0  0  0  0  0  0  0  0
   24.3449   13.7396    6.3768 F   0  0  0  0  0  0  0  0  0  0  0  0
   24.6922   14.4776    8.3863 F   0  0  0  0  0  0  0  0  0  0  0  0
   22.6612   14.1435    7.7015 F   0  0  0  0  0  0  0  0  0  0  0  0
   23.3619   12.9169   10.4581 C   0  0  0  0  0  0  0  0  0  0  0  0
   23.0827   13.7438   11.2218 N   0  0  0  0  0  0  0  0  0  0  0  0
   25.7286    6.5433    5.4983 C   0  0  0  0  0  0  0  0  0  0  0  0
   26.8229    5.7553    4.3526 S   0  0  0  0  0  0  0  0  0  0  0  0
   26.4077    6.1384    3.0148 O   0  0  0  0  0  0  0  0  0  0  0  0
   28.1904    5.9559    4.7829 O   0  0  0  0  0  0  0  0  0  0  0  0
   26.4691    4.0247    4.5540 C   0  0  0  0  0  0  0  0  0  0  0  0
   25.3217    3.6184    5.2430 C   0  0  0  0  0  0  0  0  0  0  0  0
   25.0617    2.2544    5.3896 C   0  0  0  0  0  0  0  0  0  0  0  0
   25.9391    1.3174    4.8448 C   0  0  0  0  0  0  0  0  0  0  0  0
   25.6681    0.0139    5.0048 F   0  0  0  0  0  0  0  0  0  0  0  0
   27.0740    1.7274    4.1453 C   0  0  0  0  0  0  0  0  0  0  0  0
   28.1532    0.5712    3.4675 Cl  0  0  0  0  0  0  0  0  0  0  0  0
   27.3439    3.0871    3.9911 C   0  0  0  0  0  0  0  0  0  0  0  0
  2  1  1  0
  2  3  1  0
  2 21  1  0
 21 22  1  0
 22 23  2  0
 22 24  2  0
 22 25  1  0
 25 26  2  0
 26 27  1  0
 27 28  2  0
 28 29  1  0
 28 30  1  0
 30 31  1  0
 30 32  2  0
  2  5  1  0
  5  6  2  0
  5  7  1  0
  7  9  1  0
  9 10  2  0
 10 11  1  0
 11 12  2  0
 12 19  1  0
 19 20  3  0
 12 13  1  0
 13 15  1  0
 15 16  1  0
 15 17  1  0
 15 18  1  0
 13 14  2  0
 32 25  1  0
 14  9  1  0
  3  4  1  0
  7  8  1  0
M  END
> <minimizedAffinity>
1.47207

> <CNNscore>
0.1998370588

> <CNNaffinity>
5.7760205269

> <CNN_VS>
1.1542629004

> <CNNaffinity_variance>
0.3665668666

$$$$



 32 33  0  0  0  0  0  0  0  0999 V2000
   26.7499   -1.4894    5.1668 C   0  0  0  0  0  0  0  0  0  0  0  0
   27.9040   -0.6696    4.5976 C   0  0  0  0  0  0  0  0  0  0  0  0
   28.1942   -1.2593    3.3027 O   0  0  0  0  0  0  0  0  0  0  0  0
   28.4860   -2.1765    3.4232 H   0  0  0  0  0  0  0  0  0  0  0  0
   27.4452    0.7930    4.3186 C   0  0  0  0  0  0  0  0  0  0  0  0
   27.8760    1.3534    3.3077 O   0  0  0  0  0  0  0  0  0  0  0  0
   26.5608    1.3439    5.2204 N   0  0  0  0  0  0  0  0  0  0  0  0
   26.3163    0.7799    5.9894 H   0  0  0  0  0  0  0  0  0  0  0  0
   25.9647    2.6220    5.1706 C   0  0  0  0  0  0  0  0  0  0  0  0
   24.6829    2.9111    5.6350 C   0  0  0  0  0  0  0  0  0  0  0  0
   24.1722    4.2109    5.5481 C   0  0  0  0  0  0  0  0  0  0  0  0
   24.9371    5.2458    4.9964 C   0  0  0  0  0  0  0  0  0  0  0  0
   26.2323    4.9760    4.5264 C   0  0  0  0  0  0  0  0  0  0  0  0
   26.7313    3.6598    4.6208 C   0  0  0  0  0  0  0  0  0  0  0  0
   27.0840    6.0675    3.9267 C   0  0  0  0  0  0  0  0  0  0  0  0
   27.7559    6.7798    4.8697 F   0  0  0  0  0  0  0  0  0  0  0  0
   26.3637    6.9830    3.2192 F   0  0  0  0  0  0  0  0  0  0  0  0
   28.0171    5.5873    3.0633 F   0  0  0  0  0  0  0  0  0  0  0  0
   24.3679    6.5631    4.9289 C   0  0  0  0  0  0  0  0  0  0  0  0
   23.9081    7.6260    4.8656 N   0  0  0  0  0  0  0  0  0  0  0  0
   29.2277   -0.7450    5.3568 C   0  0  0  0  0  0  0  0  0  0  0  0
   29.9489    0.8196    5.7604 S   0  0  0  0  0  0  0  0  0  0  0  0
   31.2281    0.9022    5.0782 O   0  0  0  0  0  0  0  0  0  0  0  0
   28.9575    1.8607    5.5906 O   0  0  0  0  0  0  0  0  0  0  0  0
   30.2726    0.6974    7.5042 C   0  0  0  0  0  0  0  0  0  0  0  0
   31.4947    0.1900    7.9573 C   0  0  0  0  0  0  0  0  0  0  0  0
   31.7294    0.1030    9.3310 C   0  0  0  0  0  0  0  0  0  0  0  0
   30.7523    0.5269   10.2310 C   0  0  0  0  0  0  0  0  0  0  0  0
   31.0018    0.4274   11.5448 F   0  0  0  0  0  0  0  0  0  0  0  0
   29.5412    1.0465    9.7743 C   0  0  0  0  0  0  0  0  0  0  0  0
   28.3381    1.5756   10.8849 Cl  0  0  0  0  0  0  0  0  0  0  0  0
   29.2953    1.1397    8.4046 C   0  0  0  0  0  0  0  0  0  0  0  0
  2  1  1  0
  2  3  1  0
  2 21  1  0
 21 22  1  0
 22 23  2  0
 22 24  2  0
 22 25  1  0
 25 26  2  0
 26 27  1  0
 27 28  2  0
 28 29  1  0
 28 30  1  0
 30 31  1  0
 30 32  2  0
  2  5  1  0
  5  6  2  0
  5  7  1  0
  7  9  1  0
  9 10  2  0
 10 11  1  0
 11 12  2  0
 12 19  1  0
 19 20  3  0
 12 13  1  0
 13 15  1  0
 15 16  1  0
 15 17  1  0
 15 18  1  0
 13 14  2  0
 32 25  1  0
 14  9  1  0
  3  4  1  0
  7  8  1  0
M  END
> <minimizedAffinity>
-7.99194

> <CNNscore>
0.1710544378

> <CNNaffinity>
6.9169788361

> <CNN_VS>
1.1831799746

> <CNNaffinity_variance>
0.0829878151

$$$$
