


 25 26  0  0  0  0  0  0  0  0999 V2000
   32.8339   23.2033   28.0652 C   0  0  0  0  0  0  0  0  0  0  0  0
   32.6670   21.8137   28.3507 O   0  0  0  0  0  0  0  0  0  0  0  0
   32.4838   20.9340   27.2307 C   0  0  0  0  0  0  0  0  0  0  0  0
   31.7529   21.6173   26.0709 C   0  0  0  0  0  0  0  0  0  0  0  0
   30.4351   22.0079   26.4950 O   0  0  0  0  0  0  0  0  0  0  0  0
   32.4856   22.8712   25.5925 C   0  0  0  0  0  0  0  0  0  0  0  0
   33.2877   22.5314   24.5362 F   0  0  0  0  0  0  0  0  0  0  0  0
   33.3767   23.5188   26.6560 C   0  0  0  0  0  0  0  0  0  0  0  0
   33.4328   24.9413   26.4338 O   0  0  0  0  0  0  0  0  0  0  0  0
   30.5052   22.6441   27.2238 H   0  0  0  0  0  0  0  0  0  0  0  0
   32.5393   25.3138   26.4964 H   0  0  0  0  0  0  0  0  0  0  0  0
   35.8280   25.3222   32.2174 N   0  0  0  0  0  0  0  0  0  0  0  0
   35.1283   24.7764   31.1699 C   0  0  0  0  0  0  0  0  0  0  0  0
   33.8590   25.0556   31.1300 N   0  0  0  0  0  0  0  0  0  0  0  0
   33.0727   24.5637   30.1138 C   0  0  0  0  0  0  0  0  0  0  0  0
   31.8708   24.8255   30.0823 O   0  0  0  0  0  0  0  0  0  0  0  0
   33.6701   23.7666   29.1327 N   0  0  0  0  0  0  0  0  0  0  0  0
   35.0125   23.4478   29.1851 C   0  0  0  0  0  0  0  0  0  0  0  0
   35.7940   23.9099   30.1591 C   0  0  0  0  0  0  0  0  0  0  0  0
   37.4577   23.5422   30.2949 Cl  0  0  0  0  0  0  0  0  0  0  0  0
   35.3663   25.8924   32.8739 H   0  0  0  0  0  0  0  0  0  0  0  0
   36.7915   25.1434   32.3121 H   0  0  0  0  0  0  0  0  0  0  0  0
   33.8105   20.2873   26.7981 C   0  0  0  0  0  0  0  0  0  0  0  0
   33.7858   18.8890   27.0647 O   0  0  0  0  0  0  0  0  0  0  0  0
   33.6620   18.7432   28.0156 H   0  0  0  0  0  0  0  0  0  0  0  0
 12 13  1  0
 13 14  2  0
 14 15  1  0
 15 16  2  0
 15 17  1  0
  1 17  1  0
  1  2  1  0
  2  3  1  0
  3 23  1  0
 23 24  1  0
  3  4  1  0
  4  5  1  0
  4  6  1  0
  6  7  1  0
  6  8  1  0
  8  9  1  0
 17 18  1  0
 18 19  2  0
 19 20  1  0
 19 13  1  0
  8  1  1  0
 12 21  1  0
 12 22  1  0
 24 25  1  0
  5 10  1  0
  9 11  1  0
M  END
> <minimizedAffinity>
-9.82421

> <CNNscore>
0.4880318344

> <CNNaffinity>
5.0535430908

> <CNN_VS>
2.4662899971

> <CNNaffinity_variance>
0.0371953100

$$$$



 25 26  0  0  0  0  0  0  0  0999 V2000
   31.4487   23.1959   26.2771 C   0  0  0  0  0  0  0  0  0  0  0  0
   31.0091   21.8765   25.9509 O   0  0  0  0  0  0  0  0  0  0  0  0
   31.9440   20.8066   26.1577 C   0  0  0  0  0  0  0  0  0  0  0  0
   33.3933   21.2545   25.9450 C   0  0  0  0  0  0  0  0  0  0  0  0
   33.5699   21.6851   24.5840 O   0  0  0  0  0  0  0  0  0  0  0  0
   33.7725   22.4184   26.8612 C   0  0  0  0  0  0  0  0  0  0  0  0
   34.3739   21.9129   27.9825 F   0  0  0  0  0  0  0  0  0  0  0  0
   32.5829   23.2658   27.3206 C   0  0  0  0  0  0  0  0  0  0  0  0
   33.0121   24.6264   27.5220 O   0  0  0  0  0  0  0  0  0  0  0  0
   32.9910   22.4430   24.4070 H   0  0  0  0  0  0  0  0  0  0  0  0
   33.3553   24.9840   26.6882 H   0  0  0  0  0  0  0  0  0  0  0  0
   26.8737   25.9030   27.8384 N   0  0  0  0  0  0  0  0  0  0  0  0
   28.0348   25.2719   27.4666 C   0  0  0  0  0  0  0  0  0  0  0  0
   27.8931   24.0996   26.9223 N   0  0  0  0  0  0  0  0  0  0  0  0
   28.9963   23.3902   26.5069 C   0  0  0  0  0  0  0  0  0  0  0  0
   28.8586   22.2787   25.9973 O   0  0  0  0  0  0  0  0  0  0  0  0
   30.2613   23.9599   26.6803 N   0  0  0  0  0  0  0  0  0  0  0  0
   30.4175   25.1938   27.2800 C   0  0  0  0  0  0  0  0  0  0  0  0
   29.3659   25.8989   27.6921 C   0  0  0  0  0  0  0  0  0  0  0  0
   29.4868   27.4230   28.4563 Cl  0  0  0  0  0  0  0  0  0  0  0  0
   26.0046   25.4687   27.6791 H   0  0  0  0  0  0  0  0  0  0  0  0
   26.9101   26.7899   28.2643 H   0  0  0  0  0  0  0  0  0  0  0  0
   31.7272   20.1226   27.5181 C   0  0  0  0  0  0  0  0  0  0  0  0
   32.7528   19.1643   27.7558 O   0  0  0  0  0  0  0  0  0  0  0  0
   32.7323   18.4894   27.0594 H   0  0  0  0  0  0  0  0  0  0  0  0
 12 13  1  0
 13 14  2  0
 14 15  1  0
 15 16  2  0
 15 17  1  0
  1 17  1  0
  1  2  1  0
  2  3  1  0
  3 23  1  0
 23 24  1  0
  3  4  1  0
  4  5  1  0
  4  6  1  0
  6  7  1  0
  6  8  1  0
  8  9  1  0
 17 18  1  0
 18 19  2  0
 19 20  1  0
 19 13  1  0
  8  1  1  0
 12 21  1  0
 12 22  1  0
 24 25  1  0
  5 10  1  0
  9 11  1  0
M  END
> <minimizedAffinity>
-8.37027

> <CNNscore>
0.2846406400

> <CNNaffinity>
4.0437922478

> <CNN_VS>
1.1510275602

> <CNNaffinity_variance>
0.0671232417

$$$$



 25 26  0  0  0  0  0  0  0  0999 V2000
   39.3238   27.8739   35.5311 C   0  0  0  0  0  0  0  0  0  0  0  0
   40.6665   28.0393   35.9899 O   0  0  0  0  0  0  0  0  0  0  0  0
   40.8456   28.4190   37.3630 C   0  0  0  0  0  0  0  0  0  0  0  0
   39.6994   29.2963   37.8756 C   0  0  0  0  0  0  0  0  0  0  0  0
   39.6557   30.5209   37.1223 O   0  0  0  0  0  0  0  0  0  0  0  0
   38.3427   28.6058   37.7329 C   0  0  0  0  0  0  0  0  0  0  0  0
   38.0422   27.9856   38.9158 F   0  0  0  0  0  0  0  0  0  0  0  0
   38.2949   27.5428   36.6319 C   0  0  0  0  0  0  0  0  0  0  0  0
   36.9629   27.4762   36.0865 O   0  0  0  0  0  0  0  0  0  0  0  0
   39.4873   30.3202   36.1884 H   0  0  0  0  0  0  0  0  0  0  0  0
   36.7247   28.3374   35.7089 H   0  0  0  0  0  0  0  0  0  0  0  0
   39.3387   24.2077   31.3772 N   0  0  0  0  0  0  0  0  0  0  0  0
   39.3774   25.0950   32.4242 C   0  0  0  0  0  0  0  0  0  0  0  0
   38.3910   25.9398   32.4875 N   0  0  0  0  0  0  0  0  0  0  0  0
   38.3338   26.8636   33.5053 C   0  0  0  0  0  0  0  0  0  0  0  0
   37.4017   27.6651   33.5590 O   0  0  0  0  0  0  0  0  0  0  0  0
   39.3529   26.8671   34.4627 N   0  0  0  0  0  0  0  0  0  0  0  0
   40.4147   25.9879   34.3850 C   0  0  0  0  0  0  0  0  0  0  0  0
   40.4937   25.0858   33.4089 C   0  0  0  0  0  0  0  0  0  0  0  0
   41.7860   23.9796   33.2424 Cl  0  0  0  0  0  0  0  0  0  0  0  0
   38.5901   24.2327   30.7383 H   0  0  0  0  0  0  0  0  0  0  0  0
   40.0595   23.5465   31.2654 H   0  0  0  0  0  0  0  0  0  0  0  0
   41.1030   27.1951   38.2581 C   0  0  0  0  0  0  0  0  0  0  0  0
   41.0128   25.9982   37.4925 O   0  0  0  0  0  0  0  0  0  0  0  0
   40.1244   25.9251   37.1102 H   0  0  0  0  0  0  0  0  0  0  0  0
 12 13  1  0
 13 14  2  0
 14 15  1  0
 15 16  2  0
 15 17  1  0
  1 17  1  0
  1  2  1  0
  2  3  1  0
  3 23  1  0
 23 24  1  0
  3  4  1  0
  4  5  1  0
  4  6  1  0
  6  7  1  0
  6  8  1  0
  8  9  1  0
 17 18  1  0
 18 19  2  0
 19 20  1  0
 19 13  1  0
  8  1  1  0
 12 21  1  0
 12 22  1  0
 24 25  1  0
  5 10  1  0
  9 11  1  0
M  END
> <minimizedAffinity>
-6.13319

> <CNNscore>
0.2784517407

> <CNNaffinity>
5.0554823875

> <CNN_VS>
1.4077079296

> <CNNaffinity_variance>
0.0267434642

$$$$



 25 26  0  0  0  0  0  0  0  0999 V2000
   32.7769   23.3443   28.6022 C   0  0  0  0  0  0  0  0  0  0  0  0
   33.4298   22.3127   27.8605 O   0  0  0  0  0  0  0  0  0  0  0  0
   32.9923   22.1027   26.5092 C   0  0  0  0  0  0  0  0  0  0  0  0
   31.5037   22.4146   26.3271 C   0  0  0  0  0  0  0  0  0  0  0  0
   30.7216   21.5270   27.1454 O   0  0  0  0  0  0  0  0  0  0  0  0
   31.1664   23.8500   26.7323 C   0  0  0  0  0  0  0  0  0  0  0  0
   31.1951   24.6374   25.6127 F   0  0  0  0  0  0  0  0  0  0  0  0
   32.1387   24.4582   27.7467 C   0  0  0  0  0  0  0  0  0  0  0  0
   31.4371   25.4046   28.5762 O   0  0  0  0  0  0  0  0  0  0  0  0
   30.9468   21.6651   28.0787 H   0  0  0  0  0  0  0  0  0  0  0  0
   30.7231   24.9511   29.0511 H   0  0  0  0  0  0  0  0  0  0  0  0
   36.3193   25.2602   32.4070 N   0  0  0  0  0  0  0  0  0  0  0  0
   35.4810   24.7723   31.4354 C   0  0  0  0  0  0  0  0  0  0  0  0
   34.2083   24.9044   31.6668 N   0  0  0  0  0  0  0  0  0  0  0  0
   33.2867   24.4556   30.7492 C   0  0  0  0  0  0  0  0  0  0  0  0
   32.0831   24.5773   30.9741 O   0  0  0  0  0  0  0  0  0  0  0  0
   33.7508   23.8629   29.5710 N   0  0  0  0  0  0  0  0  0  0  0  0
   35.1010   23.6986   29.3328 C   0  0  0  0  0  0  0  0  0  0  0  0
   36.0123   24.1229   30.2059 C   0  0  0  0  0  0  0  0  0  0  0  0
   37.6969   23.9375   29.9835 Cl  0  0  0  0  0  0  0  0  0  0  0  0
   35.9449   25.6858   33.2119 H   0  0  0  0  0  0  0  0  0  0  0  0
   37.2949   25.1845   32.2988 H   0  0  0  0  0  0  0  0  0  0  0  0
   33.8835   22.8522   25.5044 C   0  0  0  0  0  0  0  0  0  0  0  0
   33.4176   22.6356   24.1768 O   0  0  0  0  0  0  0  0  0  0  0  0
   33.4469   21.6873   23.9745 H   0  0  0  0  0  0  0  0  0  0  0  0
 12 13  1  0
 13 14  2  0
 14 15  1  0
 15 16  2  0
 15 17  1  0
  1 17  1  0
  1  2  1  0
  2  3  1  0
  3 23  1  0
 23 24  1  0
  3  4  1  0
  4  5  1  0
  4  6  1  0
  6  7  1  0
  6  8  1  0
  8  9  1  0
 17 18  1  0
 18 19  2  0
 19 20  1  0
 19 13  1  0
  8  1  1  0
 12 21  1  0
 12 22  1  0
 24 25  1  0
  5 10  1  0
  9 11  1  0
M  END
> <minimizedAffinity>
-8.48336

> <CNNscore>
0.2492917329

> <CNNaffinity>
4.2201142311

> <CNN_VS>
1.0520396233

> <CNNaffinity_variance>
0.4371025562

$$$$



 25 26  0  0  0  0  0  0  0  0999 V2000
   33.7003   22.6868   27.6000 C   0  0  0  0  0  0  0  0  0  0  0  0
   33.2329   23.6216   26.6262 O   0  0  0  0  0  0  0  0  0  0  0  0
   32.2510   23.1530   25.6893 C   0  0  0  0  0  0  0  0  0  0  0  0
   32.4196   21.6645   25.3693 C   0  0  0  0  0  0  0  0  0  0  0  0
   33.7004   21.4462   24.7522 O   0  0  0  0  0  0  0  0  0  0  0  0
   32.3478   20.7975   26.6268 C   0  0  0  0  0  0  0  0  0  0  0  0
   31.0632   20.3472   26.7734 F   0  0  0  0  0  0  0  0  0  0  0  0
   32.7267   21.5323   27.9155 C   0  0  0  0  0  0  0  0  0  0  0  0
   33.3175   20.6013   28.8429 O   0  0  0  0  0  0  0  0  0  0  0  0
   34.4042   21.7039   25.3680 H   0  0  0  0  0  0  0  0  0  0  0  0
   34.1157   20.2154   28.4493 H   0  0  0  0  0  0  0  0  0  0  0  0
   34.9141   25.5583   32.1801 N   0  0  0  0  0  0  0  0  0  0  0  0
   34.6620   24.8334   31.0417 C   0  0  0  0  0  0  0  0  0  0  0  0
   33.4354   24.8632   30.6113 N   0  0  0  0  0  0  0  0  0  0  0  0
   33.0837   24.1764   29.4722 C   0  0  0  0  0  0  0  0  0  0  0  0
   31.9207   24.2024   29.0709 O   0  0  0  0  0  0  0  0  0  0  0  0
   34.0717   23.4559   28.7944 N   0  0  0  0  0  0  0  0  0  0  0  0
   35.3698   23.4018   29.2619 C   0  0  0  0  0  0  0  0  0  0  0  0
   35.7346   24.0562   30.3626 C   0  0  0  0  0  0  0  0  0  0  0  0
   37.3176   24.0200   31.0064 Cl  0  0  0  0  0  0  0  0  0  0  0  0
   34.1886   26.0647   32.6119 H   0  0  0  0  0  0  0  0  0  0  0  0
   35.8203   25.5716   32.5645 H   0  0  0  0  0  0  0  0  0  0  0  0
   30.8243   23.5050   26.1434 C   0  0  0  0  0  0  0  0  0  0  0  0
   30.5049   24.8411   25.7696 O   0  0  0  0  0  0  0  0  0  0  0  0
   31.1278   25.4528   26.1923 H   0  0  0  0  0  0  0  0  0  0  0  0
 12 13  1  0
 13 14  2  0
 14 15  1  0
 15 16  2  0
 15 17  1  0
  1 17  1  0
  1  2  1  0
  2  3  1  0
  3 23  1  0
 23 24  1  0
  3  4  1  0
  4  5  1  0
  4  6  1  0
  6  7  1  0
  6  8  1  0
  8  9  1  0
 17 18  1  0
 18 19  2  0
 19 20  1  0
 19 13  1  0
  8  1  1  0
 12 21  1  0
 12 22  1  0
 24 25  1  0
  5 10  1  0
  9 11  1  0
M  END
> <minimizedAffinity>
-8.73771

> <CNNscore>
0.2467271239

> <CNNaffinity>
4.3928170204

> <CNN_VS>
1.0838271379

> <CNNaffinity_variance>
0.3033789694

$$$$



 25 26  0  0  0  0  0  0  0  0999 V2000
   38.5723   27.9032   35.6707 C   0  0  0  0  0  0  0  0  0  0  0  0
   39.9983   27.8744   35.7486 O   0  0  0  0  0  0  0  0  0  0  0  0
   40.5909   28.2220   37.0094 C   0  0  0  0  0  0  0  0  0  0  0  0
   39.7574   29.2530   37.7766 C   0  0  0  0  0  0  0  0  0  0  0  0
   39.6819   30.4727   37.0180 O   0  0  0  0  0  0  0  0  0  0  0  0
   38.3304   28.7634   38.0261 C   0  0  0  0  0  0  0  0  0  0  0  0
   38.2768   28.1901   39.2682 F   0  0  0  0  0  0  0  0  0  0  0  0
   37.8420   27.7202   37.0173 C   0  0  0  0  0  0  0  0  0  0  0  0
   36.4165   27.8454   36.8495 O   0  0  0  0  0  0  0  0  0  0  0  0
   39.2425   30.2999   36.1707 H   0  0  0  0  0  0  0  0  0  0  0  0
   36.2066   28.7325   36.5178 H   0  0  0  0  0  0  0  0  0  0  0  0
   37.2624   24.0755   31.8854 N   0  0  0  0  0  0  0  0  0  0  0  0
   37.5405   25.0193   32.8429 C   0  0  0  0  0  0  0  0  0  0  0  0
   38.7206   25.5614   32.7778 N   0  0  0  0  0  0  0  0  0  0  0  0
   39.0918   26.5249   33.6870 C   0  0  0  0  0  0  0  0  0  0  0  0
   40.2113   27.0319   33.6257 O   0  0  0  0  0  0  0  0  0  0  0  0
   38.1736   26.9046   34.6707 N   0  0  0  0  0  0  0  0  0  0  0  0
   36.9287   26.3137   34.7582 C   0  0  0  0  0  0  0  0  0  0  0  0
   36.5467   25.3780   33.8914 C   0  0  0  0  0  0  0  0  0  0  0  0
   35.0292   24.5936   33.9506 Cl  0  0  0  0  0  0  0  0  0  0  0  0
   37.9354   23.8546   31.2018 H   0  0  0  0  0  0  0  0  0  0  0  0
   36.3898   23.6195   31.8825 H   0  0  0  0  0  0  0  0  0  0  0  0
   40.9083   26.9722   37.8477 C   0  0  0  0  0  0  0  0  0  0  0  0
   40.7951   25.8009   37.0464 O   0  0  0  0  0  0  0  0  0  0  0  0
   39.8896   25.7281   36.7064 H   0  0  0  0  0  0  0  0  0  0  0  0
 12 13  1  0
 13 14  2  0
 14 15  1  0
 15 16  2  0
 15 17  1  0
  1 17  1  0
  1  2  1  0
  2  3  1  0
  3 23  1  0
 23 24  1  0
  3  4  1  0
  4  5  1  0
  4  6  1  0
  6  7  1  0
  6  8  1  0
  8  9  1  0
 17 18  1  0
 18 19  2  0
 19 20  1  0
 19 13  1  0
  8  1  1  0
 12 21  1  0
 12 22  1  0
 24 25  1  0
  5 10  1  0
  9 11  1  0
M  END
> <minimizedAffinity>
-7.48212

> <CNNscore>
0.2295302898

> <CNNaffinity>
4.6404280663

> <CNN_VS>
1.0651187897

> <CNNaffinity_variance>
0.2785042226

$$$$



 25 26  0  0  0  0  0  0  0  0999 V2000
   25.9918   25.1006   28.2687 C   0  0  0  0  0  0  0  0  0  0  0  0
   27.4057   24.9355   28.3873 O   0  0  0  0  0  0  0  0  0  0  0  0
   28.1634   24.8955   27.1683 C   0  0  0  0  0  0  0  0  0  0  0  0
   27.3690   24.2796   26.0125 C   0  0  0  0  0  0  0  0  0  0  0  0
   27.0405   22.9149   26.3266 O   0  0  0  0  0  0  0  0  0  0  0  0
   26.0632   25.0312   25.7515 C   0  0  0  0  0  0  0  0  0  0  0  0
   26.2798   25.9509   24.7608 F   0  0  0  0  0  0  0  0  0  0  0  0
   25.5223   25.7862   26.9688 C   0  0  0  0  0  0  0  0  0  0  0  0
   24.0837   25.8335   26.9039 O   0  0  0  0  0  0  0  0  0  0  0  0
   26.4846   22.8908   27.1211 H   0  0  0  0  0  0  0  0  0  0  0  0
   23.7301   24.9303   26.9059 H   0  0  0  0  0  0  0  0  0  0  0  0
   24.3059   27.9266   32.7260 N   0  0  0  0  0  0  0  0  0  0  0  0
   24.6924   27.1888   31.6346 C   0  0  0  0  0  0  0  0  0  0  0  0
   25.6105   27.7240   30.8854 N   0  0  0  0  0  0  0  0  0  0  0  0
   26.0721   27.0590   29.7730 C   0  0  0  0  0  0  0  0  0  0  0  0
   26.9371   27.5710   29.0633 O   0  0  0  0  0  0  0  0  0  0  0  0
   25.5357   25.8026   29.4750 N   0  0  0  0  0  0  0  0  0  0  0  0
   24.5433   25.2419   30.2542 C   0  0  0  0  0  0  0  0  0  0  0  0
   24.0786   25.8663   31.3345 C   0  0  0  0  0  0  0  0  0  0  0  0
   22.8416   25.2392   32.3335 Cl  0  0  0  0  0  0  0  0  0  0  0  0
   24.7261   28.7989   32.9043 H   0  0  0  0  0  0  0  0  0  0  0  0
   23.6085   27.5834   33.3302 H   0  0  0  0  0  0  0  0  0  0  0  0
   28.7455   26.2758   26.8200 C   0  0  0  0  0  0  0  0  0  0  0  0
   29.4509   26.8079   27.9362 O   0  0  0  0  0  0  0  0  0  0  0  0
   28.8435   26.9047   28.6863 H   0  0  0  0  0  0  0  0  0  0  0  0
 12 13  1  0
 13 14  2  0
 14 15  1  0
 15 16  2  0
 15 17  1  0
  1 17  1  0
  1  2  1  0
  2  3  1  0
  3 23  1  0
 23 24  1  0
  3  4  1  0
  4  5  1  0
  4  6  1  0
  6  7  1  0
  6  8  1  0
  8  9  1  0
 17 18  1  0
 18 19  2  0
 19 20  1  0
 19 13  1  0
  8  1  1  0
 12 21  1  0
 12 22  1  0
 24 25  1  0
  5 10  1  0
  9 11  1  0
M  END
> <minimizedAffinity>
-8.71856

> <CNNscore>
0.2090617120

> <CNNaffinity>
4.3518548012

> <CNN_VS>
0.9098061919

> <CNNaffinity_variance>
0.0981316641

$$$$



 25 26  0  0  0  0  0  0  0  0999 V2000
   37.4771   26.8118   34.2837 C   0  0  0  0  0  0  0  0  0  0  0  0
   38.8389   27.1172   34.5883 O   0  0  0  0  0  0  0  0  0  0  0  0
   39.1672   27.3314   35.9696 C   0  0  0  0  0  0  0  0  0  0  0  0
   38.0033   27.9460   36.7530 C   0  0  0  0  0  0  0  0  0  0  0  0
   37.6864   29.2397   36.2099 O   0  0  0  0  0  0  0  0  0  0  0  0
   36.7441   27.0817   36.6786 C   0  0  0  0  0  0  0  0  0  0  0  0
   36.7070   26.2692   37.7799 F   0  0  0  0  0  0  0  0  0  0  0  0
   36.6755   26.1820   35.4416 C   0  0  0  0  0  0  0  0  0  0  0  0
   35.2983   25.9865   35.0660 O   0  0  0  0  0  0  0  0  0  0  0  0
   37.4099   29.1432   35.2852 H   0  0  0  0  0  0  0  0  0  0  0  0
   34.8947   26.8441   34.8594 H   0  0  0  0  0  0  0  0  0  0  0  0
   37.6624   23.5627   29.7998 N   0  0  0  0  0  0  0  0  0  0  0  0
   37.5661   24.3693   30.9066 C   0  0  0  0  0  0  0  0  0  0  0  0
   38.6931   24.7143   31.4558 N   0  0  0  0  0  0  0  0  0  0  0  0
   38.7031   25.5288   32.5645 C   0  0  0  0  0  0  0  0  0  0  0  0
   39.7713   25.8488   33.0848 O   0  0  0  0  0  0  0  0  0  0  0  0
   37.4812   25.9745   33.0774 N   0  0  0  0  0  0  0  0  0  0  0  0
   36.2815   25.5904   32.5119 C   0  0  0  0  0  0  0  0  0  0  0  0
   36.2453   24.8016   31.4398 C   0  0  0  0  0  0  0  0  0  0  0  0
   34.7979   24.2742   30.6992 Cl  0  0  0  0  0  0  0  0  0  0  0  0
   38.5471   23.2896   29.4652 H   0  0  0  0  0  0  0  0  0  0  0  0
   36.8467   23.2575   29.3406 H   0  0  0  0  0  0  0  0  0  0  0  0
   39.7143   26.0520   36.6247 C   0  0  0  0  0  0  0  0  0  0  0  0
   40.8537   26.3563   37.4220 O   0  0  0  0  0  0  0  0  0  0  0  0
   41.5460   26.7422   36.8628 H   0  0  0  0  0  0  0  0  0  0  0  0
 12 13  1  0
 13 14  2  0
 14 15  1  0
 15 16  2  0
 15 17  1  0
  1 17  1  0
  1  2  1  0
  2  3  1  0
  3 23  1  0
 23 24  1  0
  3  4  1  0
  4  5  1  0
  4  6  1  0
  6  7  1  0
  6  8  1  0
  8  9  1  0
 17 18  1  0
 18 19  2  0
 19 20  1  0
 19 13  1  0
  8  1  1  0
 12 21  1  0
 12 22  1  0
 24 25  1  0
  5 10  1  0
  9 11  1  0
M  END
> <minimizedAffinity>
-6.13442

> <CNNscore>
0.1754241288

> <CNNaffinity>
4.0378851891

> <CNN_VS>
0.7083424926

> <CNNaffinity_variance>
0.4847425520

$$$$



 25 26  0  0  0  0  0  0  0  0999 V2000
   38.2077   28.0469   36.2172 C   0  0  0  0  0  0  0  0  0  0  0  0
   39.6106   27.8708   36.0137 O   0  0  0  0  0  0  0  0  0  0  0  0
   40.4821   28.2861   37.0765 C   0  0  0  0  0  0  0  0  0  0  0  0
   39.9188   29.4791   37.8548 C   0  0  0  0  0  0  0  0  0  0  0  0
   39.7894   30.6104   36.9759 O   0  0  0  0  0  0  0  0  0  0  0  0
   38.5399   29.1785   38.4432 C   0  0  0  0  0  0  0  0  0  0  0  0
   38.7000   28.7526   39.7345 F   0  0  0  0  0  0  0  0  0  0  0  0
   37.7638   28.0919   37.6941 C   0  0  0  0  0  0  0  0  0  0  0  0
   36.3506   28.3534   37.7977 O   0  0  0  0  0  0  0  0  0  0  0  0
   39.1687   30.3958   36.2620 H   0  0  0  0  0  0  0  0  0  0  0  0
   36.1518   29.2169   37.4030 H   0  0  0  0  0  0  0  0  0  0  0  0
   35.4667   24.1047   33.4528 N   0  0  0  0  0  0  0  0  0  0  0  0
   36.1717   25.0919   34.0956 C   0  0  0  0  0  0  0  0  0  0  0  0
   35.9056   25.2472   35.3588 N   0  0  0  0  0  0  0  0  0  0  0  0
   36.5661   26.2044   36.0937 C   0  0  0  0  0  0  0  0  0  0  0  0
   36.3077   26.3522   37.2877 O   0  0  0  0  0  0  0  0  0  0  0  0
   37.5246   26.9954   35.4531 N   0  0  0  0  0  0  0  0  0  0  0  0
   37.7924   26.8502   34.1063 C   0  0  0  0  0  0  0  0  0  0  0  0
   37.1654   25.9324   33.3732 C   0  0  0  0  0  0  0  0  0  0  0  0
   37.4350   25.7092   31.7001 Cl  0  0  0  0  0  0  0  0  0  0  0  0
   34.8145   23.5613   33.9514 H   0  0  0  0  0  0  0  0  0  0  0  0
   35.6134   23.9401   32.4933 H   0  0  0  0  0  0  0  0  0  0  0  0
   40.8613   27.1073   37.9888 C   0  0  0  0  0  0  0  0  0  0  0  0
   40.7482   25.8791   37.2778 O   0  0  0  0  0  0  0  0  0  0  0  0
   39.8330   25.7617   36.9788 H   0  0  0  0  0  0  0  0  0  0  0  0
 12 13  1  0
 13 14  2  0
 14 15  1  0
 15 16  2  0
 15 17  1  0
  1 17  1  0
  1  2  1  0
  2  3  1  0
  3 23  1  0
 23 24  1  0
  3  4  1  0
  4  5  1  0
  4  6  1  0
  6  7  1  0
  6  8  1  0
  8  9  1  0
 17 18  1  0
 18 19  2  0
 19 20  1  0
 19 13  1  0
  8  1  1  0
 12 21  1  0
 12 22  1  0
 24 25  1  0
  5 10  1  0
  9 11  1  0
M  END
> <minimizedAffinity>
-7.99932

> <CNNscore>
0.1309802979

> <CNNaffinity>
4.0549054146

> <CNN_VS>
0.5311127305

> <CNNaffinity_variance>
0.6313754916

$$$$
