


 19 20  0  0  0  0  0  0  0  0999 V2000
   29.5330   66.6446    7.7136 C   0  0  0  0  0  0  0  0  0  0  0  0
   30.9506   66.3026    7.1570 C   0  0  0  0  0  0  0  0  0  0  0  0
   31.3506   67.2246    6.1337 O   0  0  0  0  0  0  0  0  0  0  0  0
   32.0263   66.3613    8.2536 C   0  0  0  0  0  0  0  0  0  0  0  0
   33.3082   66.0293    7.7047 O   0  0  0  0  0  0  0  0  0  0  0  0
   31.7091   65.3683    9.3687 C   0  0  0  0  0  0  0  0  0  0  0  0
   32.5946   65.5389   10.4768 O   0  0  0  0  0  0  0  0  0  0  0  0
   30.2812   65.5206    9.8035 C   0  0  0  0  0  0  0  0  0  0  0  0
   29.7428   65.1943   10.9838 N   0  0  0  0  0  0  0  0  0  0  0  0
   28.4186   65.5434   11.0308 C   0  0  0  0  0  0  0  0  0  0  0  0
   28.1296   66.1111    9.8195 C   0  0  0  0  0  0  0  0  0  0  0  0
   29.2962   66.0646    9.0609 N   0  0  0  0  0  0  0  0  0  0  0  0
   31.4151   68.1165    6.5093 H   0  0  0  0  0  0  0  0  0  0  0  0
   33.2840   65.1269    7.3498 H   0  0  0  0  0  0  0  0  0  0  0  0
   32.4871   66.4310   10.8422 H   0  0  0  0  0  0  0  0  0  0  0  0
   30.2323   64.7614   11.7201 H   0  0  0  0  0  0  0  0  0  0  0  0
   27.1522   66.3403    7.2461 O   0  0  0  0  0  0  0  0  0  0  0  0
   28.4576   66.2221    6.6874 C   0  0  0  0  0  0  0  0  0  0  0  0
   26.4930   66.0709    6.5875 H   0  0  0  0  0  0  0  0  0  0  0  0
 17 18  1  0
  1 18  1  0
  1  2  1  0
  2  3  1  0
  2  4  1  0
  4  5  1  0
  4  6  1  0
  6  7  1  0
  6  8  1  0
  8  9  1  0
  9 10  1  0
 10 11  2  0
 11 12  1  0
 12  1  1  0
 12  8  2  0
 17 19  1  0
  3 13  1  0
  5 14  1  0
  7 15  1  0
  9 16  1  0
M  CHG 1  12   1
M  END
> <minimizedAffinity>
-8.26647

> <CNNscore>
0.9616396427

> <CNNaffinity>
5.4493274689

> <CNN_VS>
5.2402892113

> <CNNaffinity_variance>
0.3166561127

$$$$



 19 20  0  0  0  0  0  0  0  0999 V2000
   29.8626   65.3461    9.7144 C   0  0  0  0  0  0  0  0  0  0  0  0
   31.3093   65.9227    9.6110 C   0  0  0  0  0  0  0  0  0  0  0  0
   32.2503   65.1155   10.3322 O   0  0  0  0  0  0  0  0  0  0  0  0
   31.7994   65.9836    8.1553 C   0  0  0  0  0  0  0  0  0  0  0  0
   33.1237   66.5295    8.1035 O   0  0  0  0  0  0  0  0  0  0  0  0
   30.8811   66.8698    7.3177 C   0  0  0  0  0  0  0  0  0  0  0  0
   31.2145   66.7907    5.9307 O   0  0  0  0  0  0  0  0  0  0  0  0
   29.4484   66.4839    7.5408 C   0  0  0  0  0  0  0  0  0  0  0  0
   28.4089   66.6754    6.7208 N   0  0  0  0  0  0  0  0  0  0  0  0
   27.2668   66.1269    7.2425 C   0  0  0  0  0  0  0  0  0  0  0  0
   27.6223   65.5722    8.4421 C   0  0  0  0  0  0  0  0  0  0  0  0
   28.9793   65.8271    8.6208 N   0  0  0  0  0  0  0  0  0  0  0  0
   32.2835   64.2290    9.9397 H   0  0  0  0  0  0  0  0  0  0  0  0
   33.1158   67.4315    8.4602 H   0  0  0  0  0  0  0  0  0  0  0  0
   31.0994   65.8783    5.6221 H   0  0  0  0  0  0  0  0  0  0  0  0
   28.4580   67.1472    5.8582 H   0  0  0  0  0  0  0  0  0  0  0  0
   29.5313   64.5534   12.0039 O   0  0  0  0  0  0  0  0  0  0  0  0
   29.2860   65.6417   11.1174 C   0  0  0  0  0  0  0  0  0  0  0  0
   29.1623   64.7583   12.8772 H   0  0  0  0  0  0  0  0  0  0  0  0
 17 18  1  0
  1 18  1  0
  1  2  1  0
  2  3  1  0
  2  4  1  0
  4  5  1  0
  4  6  1  0
  6  7  1  0
  6  8  1  0
  8  9  1  0
  9 10  1  0
 10 11  2  0
 11 12  1  0
 12  1  1  0
 12  8  2  0
 17 19  1  0
  3 13  1  0
  5 14  1  0
  7 15  1  0
  9 16  1  0
M  CHG 1  12   1
M  END
> <minimizedAffinity>
-7.33497

> <CNNscore>
0.6494453549

> <CNNaffinity>
4.8510823250

> <CNN_VS>
3.1505129337

> <CNNaffinity_variance>
0.0065646586

$$$$



 19 20  0  0  0  0  0  0  0  0999 V2000
   33.2623   70.7703   15.5218 C   0  0  0  0  0  0  0  0  0  0  0  0
   34.7164   71.3361   15.5643 C   0  0  0  0  0  0  0  0  0  0  0  0
   34.7440   72.7392   15.2680 O   0  0  0  0  0  0  0  0  0  0  0  0
   35.3591   71.1614   16.9497 C   0  0  0  0  0  0  0  0  0  0  0  0
   36.6950   71.6811   16.9423 O   0  0  0  0  0  0  0  0  0  0  0  0
   35.4202   69.6841   17.3293 C   0  0  0  0  0  0  0  0  0  0  0  0
   35.8443   69.5180   18.6834 O   0  0  0  0  0  0  0  0  0  0  0  0
   34.0829   69.0401   17.1104 C   0  0  0  0  0  0  0  0  0  0  0  0
   33.5912   67.9461   17.7029 N   0  0  0  0  0  0  0  0  0  0  0  0
   32.3072   67.7022   17.2916 C   0  0  0  0  0  0  0  0  0  0  0  0
   31.9954   68.6946   16.4023 C   0  0  0  0  0  0  0  0  0  0  0  0
   33.1229   69.5029   16.2845 N   0  0  0  0  0  0  0  0  0  0  0  0
   34.2455   73.2225   15.9454 H   0  0  0  0  0  0  0  0  0  0  0  0
   37.2282   71.1931   16.2955 H   0  0  0  0  0  0  0  0  0  0  0  0
   35.2065   69.9448   19.2767 H   0  0  0  0  0  0  0  0  0  0  0  0
   34.0858   67.3906   18.3480 H   0  0  0  0  0  0  0  0  0  0  0  0
   33.8434   71.0183   13.1595 O   0  0  0  0  0  0  0  0  0  0  0  0
   32.8022   70.6336   14.0529 C   0  0  0  0  0  0  0  0  0  0  0  0
   33.5351   70.9255   12.2445 H   0  0  0  0  0  0  0  0  0  0  0  0
 17 18  1  0
  1 18  1  0
  1  2  1  0
  2  3  1  0
  2  4  1  0
  4  5  1  0
  4  6  1  0
  6  7  1  0
  6  8  1  0
  8  9  1  0
  9 10  1  0
 10 11  2  0
 11 12  1  0
 12  1  1  0
 12  8  2  0
 17 19  1  0
  3 13  1  0
  5 14  1  0
  7 15  1  0
  9 16  1  0
M  CHG 1  12   1
M  END
> <minimizedAffinity>
-5.13344

> <CNNscore>
0.3825562000

> <CNNaffinity>
2.6900856495

> <CNN_VS>
1.0291090012

> <CNNaffinity_variance>
1.3708521128

$$$$



 19 20  0  0  0  0  0  0  0  0999 V2000
   33.4620   68.0977   16.9400 C   0  0  0  0  0  0  0  0  0  0  0  0
   34.0463   68.6601   18.2736 C   0  0  0  0  0  0  0  0  0  0  0  0
   34.3219   67.6104   19.2114 O   0  0  0  0  0  0  0  0  0  0  0  0
   35.3674   69.4130   18.0480 C   0  0  0  0  0  0  0  0  0  0  0  0
   35.8627   69.9231   19.2926 O   0  0  0  0  0  0  0  0  0  0  0  0
   35.1585   70.5879   17.0961 C   0  0  0  0  0  0  0  0  0  0  0  0
   36.4050   71.1842   16.7334 O   0  0  0  0  0  0  0  0  0  0  0  0
   34.4127   70.1356   15.8752 C   0  0  0  0  0  0  0  0  0  0  0  0
   34.4149   70.6916   14.6585 N   0  0  0  0  0  0  0  0  0  0  0  0
   33.6614   69.9550   13.7827 C   0  0  0  0  0  0  0  0  0  0  0  0
   33.1718   68.8952   14.4969 C   0  0  0  0  0  0  0  0  0  0  0  0
   33.6307   69.0397   15.8034 N   0  0  0  0  0  0  0  0  0  0  0  0
   34.9997   67.0204   18.8463 H   0  0  0  0  0  0  0  0  0  0  0  0
   35.2183   70.5441   19.6669 H   0  0  0  0  0  0  0  0  0  0  0  0
   36.9543   70.5306   16.2729 H   0  0  0  0  0  0  0  0  0  0  0  0
   34.8937   71.5192   14.4238 H   0  0  0  0  0  0  0  0  0  0  0  0
   31.9069   66.5036   17.9501 O   0  0  0  0  0  0  0  0  0  0  0  0
   31.9889   67.6826   17.1540 C   0  0  0  0  0  0  0  0  0  0  0  0
   30.9759   66.2602   18.0724 H   0  0  0  0  0  0  0  0  0  0  0  0
 17 18  1  0
  1 18  1  0
  1  2  1  0
  2  3  1  0
  2  4  1  0
  4  5  1  0
  4  6  1  0
  6  7  1  0
  6  8  1  0
  8  9  1  0
  9 10  1  0
 10 11  2  0
 11 12  1  0
 12  1  1  0
 12  8  2  0
 17 19  1  0
  3 13  1  0
  5 14  1  0
  7 15  1  0
  9 16  1  0
M  CHG 1  12   1
M  END
> <minimizedAffinity>
-5.15137

> <CNNscore>
0.3462646306

> <CNNaffinity>
2.7097549438

> <CNN_VS>
0.9382922649

> <CNNaffinity_variance>
1.6862407923

$$$$



 19 20  0  0  0  0  0  0  0  0999 V2000
   31.2659   67.0319   16.9128 C   0  0  0  0  0  0  0  0  0  0  0  0
   30.1512   66.4062   17.8085 C   0  0  0  0  0  0  0  0  0  0  0  0
   29.4140   65.3979   17.1036 O   0  0  0  0  0  0  0  0  0  0  0  0
   30.7332   65.7359   19.0635 C   0  0  0  0  0  0  0  0  0  0  0  0
   29.6781   65.1866   19.8631 O   0  0  0  0  0  0  0  0  0  0  0  0
   31.4971   66.7524   19.9081 C   0  0  0  0  0  0  0  0  0  0  0  0
   32.1953   66.1119   20.9774 O   0  0  0  0  0  0  0  0  0  0  0  0
   32.4475   67.5292   19.0453 C   0  0  0  0  0  0  0  0  0  0  0  0
   33.5666   68.1602   19.4178 N   0  0  0  0  0  0  0  0  0  0  0  0
   34.2053   68.7043   18.3345 C   0  0  0  0  0  0  0  0  0  0  0  0
   33.4402   68.3927   17.2433 C   0  0  0  0  0  0  0  0  0  0  0  0
   32.3376   67.6824   17.7103 N   0  0  0  0  0  0  0  0  0  0  0  0
   30.0091   64.6702   16.8642 H   0  0  0  0  0  0  0  0  0  0  0  0
   29.0829   65.8982   20.1462 H   0  0  0  0  0  0  0  0  0  0  0  0
   32.8443   65.4899   20.6130 H   0  0  0  0  0  0  0  0  0  0  0  0
   33.8883   68.2251   20.3460 H   0  0  0  0  0  0  0  0  0  0  0  0
   30.0619   67.2615   14.7969 O   0  0  0  0  0  0  0  0  0  0  0  0
   30.6263   67.9905   15.8833 C   0  0  0  0  0  0  0  0  0  0  0  0
   29.6664   67.8802   14.1631 H   0  0  0  0  0  0  0  0  0  0  0  0
 17 18  1  0
  1 18  1  0
  1  2  1  0
  2  3  1  0
  2  4  1  0
  4  5  1  0
  4  6  1  0
  6  7  1  0
  6  8  1  0
  8  9  1  0
  9 10  1  0
 10 11  2  0
 11 12  1  0
 12  1  1  0
 12  8  2  0
 17 19  1  0
  3 13  1  0
  5 14  1  0
  7 15  1  0
  9 16  1  0
M  CHG 1  12   1
M  END
> <minimizedAffinity>
-4.95573

> <CNNscore>
0.3239631355

> <CNNaffinity>
2.5717403889

> <CNN_VS>
0.8331490755

> <CNNaffinity_variance>
1.3253977299

$$$$



 19 20  0  0  0  0  0  0  0  0999 V2000
   33.0305   68.2449   17.5670 C   0  0  0  0  0  0  0  0  0  0  0  0
   32.8367   67.7264   19.0264 C   0  0  0  0  0  0  0  0  0  0  0  0
   32.0372   66.5361   19.0600 O   0  0  0  0  0  0  0  0  0  0  0  0
   34.1771   67.3807   19.6946 C   0  0  0  0  0  0  0  0  0  0  0  0
   33.9561   66.9217   21.0344 O   0  0  0  0  0  0  0  0  0  0  0  0
   35.0804   68.6100   19.7506 C   0  0  0  0  0  0  0  0  0  0  0  0
   36.3920   68.2648   20.1997 O   0  0  0  0  0  0  0  0  0  0  0  0
   35.1381   69.2688   18.4038 C   0  0  0  0  0  0  0  0  0  0  0  0
   36.1038   70.0547   17.9146 N   0  0  0  0  0  0  0  0  0  0  0  0
   35.8329   70.4150   16.6207 C   0  0  0  0  0  0  0  0  0  0  0  0
   34.6419   69.8220   16.3000 C   0  0  0  0  0  0  0  0  0  0  0  0
   34.2137   69.1334   17.4318 N   0  0  0  0  0  0  0  0  0  0  0  0
   32.4922   65.8272   18.5791 H   0  0  0  0  0  0  0  0  0  0  0  0
   33.5305   67.6241   21.5507 H   0  0  0  0  0  0  0  0  0  0  0  0
   36.7922   67.6376   19.5773 H   0  0  0  0  0  0  0  0  0  0  0  0
   36.9023   70.3365   18.4169 H   0  0  0  0  0  0  0  0  0  0  0  0
   30.7496   67.9309   16.7434 O   0  0  0  0  0  0  0  0  0  0  0  0
   31.7263   68.9134   17.0770 C   0  0  0  0  0  0  0  0  0  0  0  0
   29.9401   68.3701   16.4387 H   0  0  0  0  0  0  0  0  0  0  0  0
 17 18  1  0
  1 18  1  0
  1  2  1  0
  2  3  1  0
  2  4  1  0
  4  5  1  0
  4  6  1  0
  6  7  1  0
  6  8  1  0
  8  9  1  0
  9 10  1  0
 10 11  2  0
 11 12  1  0
 12  1  1  0
 12  8  2  0
 17 19  1  0
  3 13  1  0
  5 14  1  0
  7 15  1  0
  9 16  1  0
M  CHG 1  12   1
M  END
> <minimizedAffinity>
-4.95431

> <CNNscore>
0.3096142411

> <CNNaffinity>
2.8155326843

> <CNN_VS>
0.8717290163

> <CNNaffinity_variance>
1.3542615175

$$$$



 19 20  0  0  0  0  0  0  0  0999 V2000
   31.8955   67.9587   18.4091 C   0  0  0  0  0  0  0  0  0  0  0  0
   31.5850   66.6058   19.1230 C   0  0  0  0  0  0  0  0  0  0  0  0
   31.5657   66.7558   20.5493 O   0  0  0  0  0  0  0  0  0  0  0  0
   30.2129   66.0449   18.7162 C   0  0  0  0  0  0  0  0  0  0  0  0
   29.9726   64.7987   19.3826 O   0  0  0  0  0  0  0  0  0  0  0  0
   30.1583   65.8028   17.2100 C   0  0  0  0  0  0  0  0  0  0  0  0
   28.8367   65.4567   16.7920 O   0  0  0  0  0  0  0  0  0  0  0  0
   30.6454   67.0168   16.4750 C   0  0  0  0  0  0  0  0  0  0  0  0
   30.3568   67.3897   15.2231 N   0  0  0  0  0  0  0  0  0  0  0  0
   30.9384   68.5940   14.9251 C   0  0  0  0  0  0  0  0  0  0  0  0
   31.6183   68.9789   16.0488 C   0  0  0  0  0  0  0  0  0  0  0  0
   31.4437   67.9714   16.9937 N   0  0  0  0  0  0  0  0  0  0  0  0
   30.8535   67.3644   20.8008 H   0  0  0  0  0  0  0  0  0  0  0  0
   30.6528   64.1573   19.1238 H   0  0  0  0  0  0  0  0  0  0  0  0
   28.2325   66.1889   16.9912 H   0  0  0  0  0  0  0  0  0  0  0  0
   29.8009   66.8687   14.5996 H   0  0  0  0  0  0  0  0  0  0  0  0
   34.0851   67.2323   19.2199 O   0  0  0  0  0  0  0  0  0  0  0  0
   33.3978   68.2894   18.5563 C   0  0  0  0  0  0  0  0  0  0  0  0
   35.0247   67.4589   19.3022 H   0  0  0  0  0  0  0  0  0  0  0  0
 17 18  1  0
  1 18  1  0
  1  2  1  0
  2  3  1  0
  2  4  1  0
  4  5  1  0
  4  6  1  0
  6  7  1  0
  6  8  1  0
  8  9  1  0
  9 10  1  0
 10 11  2  0
 11 12  1  0
 12  1  1  0
 12  8  2  0
 17 19  1  0
  3 13  1  0
  5 14  1  0
  7 15  1  0
  9 16  1  0
M  CHG 1  12   1
M  END
> <minimizedAffinity>
-4.92927

> <CNNscore>
0.2641158998

> <CNNaffinity>
2.5230705738

> <CNN_VS>
0.6663830280

> <CNNaffinity_variance>
1.2421166897

$$$$



 19 20  0  0  0  0  0  0  0  0999 V2000
   32.6152   67.5993   19.2830 C   0  0  0  0  0  0  0  0  0  0  0  0
   33.8647   67.5163   20.2147 C   0  0  0  0  0  0  0  0  0  0  0  0
   34.2436   66.1561   20.4669 O   0  0  0  0  0  0  0  0  0  0  0  0
   35.0883   68.2113   19.5960 C   0  0  0  0  0  0  0  0  0  0  0  0
   36.2078   68.1236   20.4868 O   0  0  0  0  0  0  0  0  0  0  0  0
   34.7930   69.6868   19.3390 C   0  0  0  0  0  0  0  0  0  0  0  0
   35.8495   70.3017   18.5996 O   0  0  0  0  0  0  0  0  0  0  0  0
   33.4863   69.8325   18.6162 C   0  0  0  0  0  0  0  0  0  0  0  0
   33.0866   70.8444   17.8378 N   0  0  0  0  0  0  0  0  0  0  0  0
   31.8535   70.5889   17.2980 C   0  0  0  0  0  0  0  0  0  0  0  0
   31.4771   69.3602   17.7688 C   0  0  0  0  0  0  0  0  0  0  0  0
   32.4963   68.9173   18.6075 N   0  0  0  0  0  0  0  0  0  0  0  0
   34.4991   65.7317   19.6330 H   0  0  0  0  0  0  0  0  0  0  0  0
   35.9932   68.5701   21.3207 H   0  0  0  0  0  0  0  0  0  0  0  0
   35.9355   69.8675   17.7365 H   0  0  0  0  0  0  0  0  0  0  0  0
   33.6086   71.6630   17.6747 H   0  0  0  0  0  0  0  0  0  0  0  0
   31.1813   65.8103   20.1334 O   0  0  0  0  0  0  0  0  0  0  0  0
   31.3469   67.2247   20.0824 C   0  0  0  0  0  0  0  0  0  0  0  0
   30.3813   65.5964   20.6385 H   0  0  0  0  0  0  0  0  0  0  0  0
 17 18  1  0
  1 18  1  0
  1  2  1  0
  2  3  1  0
  2  4  1  0
  4  5  1  0
  4  6  1  0
  6  7  1  0
  6  8  1  0
  8  9  1  0
  9 10  1  0
 10 11  2  0
 11 12  1  0
 12  1  1  0
 12  8  2  0
 17 19  1  0
  3 13  1  0
  5 14  1  0
  7 15  1  0
  9 16  1  0
M  CHG 1  12   1
M  END
> <minimizedAffinity>
-5.03141

> <CNNscore>
0.2179280221

> <CNNaffinity>
2.4878356457

> <CNN_VS>
0.5421690941

> <CNNaffinity_variance>
0.9570855498

$$$$



 19 20  0  0  0  0  0  0  0  0999 V2000
   26.1449   63.5211   11.1535 C   0  0  0  0  0  0  0  0  0  0  0  0
   27.6298   63.2420   11.5453 C   0  0  0  0  0  0  0  0  0  0  0  0
   28.5358   63.6928   10.5289 O   0  0  0  0  0  0  0  0  0  0  0  0
   28.0249   63.9625   12.8445 C   0  0  0  0  0  0  0  0  0  0  0  0
   29.3887   63.6704   13.1749 O   0  0  0  0  0  0  0  0  0  0  0  0
   27.1411   63.5035   14.0015 C   0  0  0  0  0  0  0  0  0  0  0  0
   27.3719   64.2928   15.1697 O   0  0  0  0  0  0  0  0  0  0  0  0
   25.6964   63.5608   13.6006 C   0  0  0  0  0  0  0  0  0  0  0  0
   24.6274   63.6786   14.3960 N   0  0  0  0  0  0  0  0  0  0  0  0
   23.4757   63.7629   13.6585 C   0  0  0  0  0  0  0  0  0  0  0  0
   23.8563   63.6925   12.3458 C   0  0  0  0  0  0  0  0  0  0  0  0
   25.2403   63.5418   12.3320 N   0  0  0  0  0  0  0  0  0  0  0  0
   28.4581   64.6546   10.4299 H   0  0  0  0  0  0  0  0  0  0  0  0
   29.4906   62.7157   13.3130 H   0  0  0  0  0  0  0  0  0  0  0  0
   27.1501   65.2185   14.9835 H   0  0  0  0  0  0  0  0  0  0  0  0
   24.6633   63.7016   15.3796 H   0  0  0  0  0  0  0  0  0  0  0  0
   25.4502   63.1667    8.8359 O   0  0  0  0  0  0  0  0  0  0  0  0
   25.6943   62.5090   10.0762 C   0  0  0  0  0  0  0  0  0  0  0  0
   25.1690   62.5154    8.1744 H   0  0  0  0  0  0  0  0  0  0  0  0
 17 18  1  0
  1 18  1  0
  1  2  1  0
  2  3  1  0
  2  4  1  0
  4  5  1  0
  4  6  1  0
  6  7  1  0
  6  8  1  0
  8  9  1  0
  9 10  1  0
 10 11  2  0
 11 12  1  0
 12  1  1  0
 12  8  2  0
 17 19  1  0
  3 13  1  0
  5 14  1  0
  7 15  1  0
  9 16  1  0
M  CHG 1  12   1
M  END
> <minimizedAffinity>
-6.04164

> <CNNscore>
0.2080548704

> <CNNaffinity>
2.8415863514

> <CNN_VS>
0.5912058949

> <CNNaffinity_variance>
0.7447125316

$$$$
