


 37 39  0  0  0  0  0  0  0  0999 V2000
   37.2926   -2.4780   -7.7124 C   0  0  0  0  0  0  0  0  0  0  0  0
   39.2015   -3.9358   -6.1899 O   0  0  0  0  0  0  0  0  0  0  0  0
   38.1028   -4.4274   -6.4250 C   0  0  0  0  0  0  0  0  0  0  0  0
   37.1150   -3.7760   -7.1173 N   0  0  0  0  0  0  0  0  0  0  0  0
   36.2405   -4.2183   -7.2120 H   0  0  0  0  0  0  0  0  0  0  0  0
   37.8020   -5.8137   -5.9513 C   0  0  0  0  0  0  0  0  0  0  0  0
   38.7999   -6.4693   -5.2112 C   0  0  0  0  0  0  0  0  0  0  0  0
   38.5871   -7.7796   -4.7555 C   0  0  0  0  0  0  0  0  0  0  0  0
   37.4004   -8.4650   -5.0028 C   0  0  0  0  0  0  0  0  0  0  0  0
   37.0799  -10.0606   -4.4254 Cl  0  0  0  0  0  0  0  0  0  0  0  0
   36.4137   -7.8059   -5.7376 C   0  0  0  0  0  0  0  0  0  0  0  0
   35.2063   -8.3911   -6.0412 O   0  0  0  0  0  0  0  0  0  0  0  0
   36.6069   -6.4988   -6.2083 C   0  0  0  0  0  0  0  0  0  0  0  0
   35.5825   -5.9319   -6.9271 O   0  0  0  0  0  0  0  0  0  0  0  0
   35.0226   -9.2633   -5.7522 H   0  0  0  0  0  0  0  0  0  0  0  0
   34.7953   -6.4159   -7.0823 H   0  0  0  0  0  0  0  0  0  0  0  0
   39.6521   -8.4132   -4.0159 N   0  0  0  0  0  0  0  0  0  0  0  0
   39.3308   -9.3299   -3.2505 O   0  0  0  0  0  0  0  0  0  0  0  0
   40.7945   -7.9707   -4.1865 O   0  0  0  0  0  0  0  0  0  0  0  0
   37.2230   -2.5539   -9.2129 C   0  0  0  0  0  0  0  0  0  0  0  0
   36.2418   -2.0981  -10.0137 C   0  0  0  0  0  0  0  0  0  0  0  0
   36.1664   -2.1821  -11.5134 C   0  0  0  0  0  0  0  0  0  0  0  0
   34.8783   -1.6693  -11.9003 O   0  0  0  0  0  0  0  0  0  0  0  0
   35.0071   -1.0718  -13.2075 C   0  0  0  0  0  0  0  0  0  0  0  0
   36.4684   -1.2457  -13.6548 C   0  0  0  0  0  0  0  0  0  0  0  0
   36.6365   -2.4434  -14.4362 O   0  0  0  0  0  0  0  0  0  0  0  0
   37.1907   -1.3854  -12.3287 C   0  0  0  0  0  0  0  0  0  0  0  0
   38.4347   -2.0633  -12.5020 O   0  0  0  0  0  0  0  0  0  0  0  0
   36.3307   -3.2087  -13.9247 H   0  0  0  0  0  0  0  0  0  0  0  0
   38.2793   -2.9199  -12.9296 H   0  0  0  0  0  0  0  0  0  0  0  0
   34.6139    0.3577  -13.1942 N   0  0  0  0  0  0  0  0  0  0  0  0
   35.1589    1.2173  -12.2424 C   0  0  0  0  0  0  0  0  0  0  0  0
   34.8557    2.5165  -12.1297 C   0  0  0  0  0  0  0  0  0  0  0  0
   33.8707    3.0863  -13.0787 C   0  0  0  0  0  0  0  0  0  0  0  0
   33.5374    4.2640  -13.0203 O   0  0  0  0  0  0  0  0  0  0  0  0
   33.3014    2.1755  -14.0988 C   0  0  0  0  0  0  0  0  0  0  0  0
   33.6978    0.8964  -14.0942 C   0  0  0  0  0  0  0  0  0  0  0  0
  2  3  2  0
  3  4  1  0
  4  1  1  0
  1 20  1  0
 20 21  2  0
 22 21  1  0
 22 23  1  0
 23 24  1  0
 24 31  1  0
 31 32  1  0
 32 33  2  0
 33 34  1  0
 34 35  2  0
 34 36  1  0
 36 37  2  0
 24 25  1  0
 25 26  1  0
 25 27  1  0
 27 28  1  0
  3  6  1  0
  6  7  2  0
  7  8  1  0
  8 17  1  0
 17 18  2  0
 17 19  1  0
  8  9  2  0
  9 10  1  0
  9 11  1  0
 11 12  1  0
 11 13  2  0
 13 14  1  0
 27 22  1  0
 13  6  1  0
 37 31  1  0
  4  5  1  0
 26 29  1  0
 28 30  1  0
 12 15  1  0
 14 16  1  0
M  CHG 1  17   1
M  CHG 1  19  -1
M  END
> <minimizedAffinity>
-10.15565

> <CNNscore>
0.9540652633

> <CNNaffinity>
6.9438285828

> <CNN_VS>
6.6248655319

> <CNNaffinity_variance>
0.2268177122

$$$$



 37 39  0  0  0  0  0  0  0  0999 V2000
   38.6644   -2.1120   -7.2186 C   0  0  0  0  0  0  0  0  0  0  0  0
   36.3569   -3.7085   -7.6806 O   0  0  0  0  0  0  0  0  0  0  0  0
   37.2966   -4.1640   -7.0376 C   0  0  0  0  0  0  0  0  0  0  0  0
   38.4582   -3.4744   -6.8039 N   0  0  0  0  0  0  0  0  0  0  0  0
   39.1876   -3.9342   -6.3287 H   0  0  0  0  0  0  0  0  0  0  0  0
   37.1921   -5.5387   -6.4580 C   0  0  0  0  0  0  0  0  0  0  0  0
   38.2895   -6.0075   -5.7169 C   0  0  0  0  0  0  0  0  0  0  0  0
   38.2619   -7.2973   -5.1642 C   0  0  0  0  0  0  0  0  0  0  0  0
   37.1657   -8.1429   -5.3143 C   0  0  0  0  0  0  0  0  0  0  0  0
   37.0718   -9.7195   -4.6164 Cl  0  0  0  0  0  0  0  0  0  0  0  0
   36.0791   -7.6688   -6.0509 C   0  0  0  0  0  0  0  0  0  0  0  0
   34.9476   -8.4219   -6.2631 O   0  0  0  0  0  0  0  0  0  0  0  0
   36.0873   -6.3857   -6.6175 C   0  0  0  0  0  0  0  0  0  0  0  0
   34.9757   -6.0064   -7.3302 O   0  0  0  0  0  0  0  0  0  0  0  0
   34.8870   -9.2868   -5.9078 H   0  0  0  0  0  0  0  0  0  0  0  0
   34.2525   -6.5956   -7.4190 H   0  0  0  0  0  0  0  0  0  0  0  0
   39.4230   -7.7360   -4.4279 N   0  0  0  0  0  0  0  0  0  0  0  0
   40.5233   -7.3514   -4.8412 O   0  0  0  0  0  0  0  0  0  0  0  0
   39.2258   -8.4819   -3.4612 O   0  0  0  0  0  0  0  0  0  0  0  0
   39.2746   -1.2940   -6.1138 C   0  0  0  0  0  0  0  0  0  0  0  0
   39.9051   -0.1096   -6.2208 C   0  0  0  0  0  0  0  0  0  0  0  0
   40.5241    0.7046   -5.1182 C   0  0  0  0  0  0  0  0  0  0  0  0
   39.8279    0.3686   -3.9039 O   0  0  0  0  0  0  0  0  0  0  0  0
   40.7503    0.5112   -2.8034 C   0  0  0  0  0  0  0  0  0  0  0  0
   42.0951    0.9809   -3.3835 C   0  0  0  0  0  0  0  0  0  0  0  0
   42.2009    2.4167   -3.3607 O   0  0  0  0  0  0  0  0  0  0  0  0
   42.0109    0.4893   -4.8157 C   0  0  0  0  0  0  0  0  0  0  0  0
   42.8806    1.2440   -5.6590 O   0  0  0  0  0  0  0  0  0  0  0  0
   41.4539    2.8036   -3.8437 H   0  0  0  0  0  0  0  0  0  0  0  0
   42.6695    2.1874   -5.5796 H   0  0  0  0  0  0  0  0  0  0  0  0
   40.9013   -0.7576   -2.0513 N   0  0  0  0  0  0  0  0  0  0  0  0
   40.5611   -1.9661   -2.6559 C   0  0  0  0  0  0  0  0  0  0  0  0
   40.6386   -3.1624   -2.0598 C   0  0  0  0  0  0  0  0  0  0  0  0
   41.1168   -3.2120   -0.6582 C   0  0  0  0  0  0  0  0  0  0  0  0
   41.1966   -4.2724   -0.0495 O   0  0  0  0  0  0  0  0  0  0  0  0
   41.4911   -1.9286   -0.0200 C   0  0  0  0  0  0  0  0  0  0  0  0
   41.3630   -0.8057   -0.7383 C   0  0  0  0  0  0  0  0  0  0  0  0
  2  3  2  0
  3  4  1  0
  4  1  1  0
  1 20  1  0
 20 21  2  0
 22 21  1  0
 22 23  1  0
 23 24  1  0
 24 31  1  0
 31 32  1  0
 32 33  2  0
 33 34  1  0
 34 35  2  0
 34 36  1  0
 36 37  2  0
 24 25  1  0
 25 26  1  0
 25 27  1  0
 27 28  1  0
  3  6  1  0
  6  7  2  0
  7  8  1  0
  8 17  1  0
 17 18  2  0
 17 19  1  0
  8  9  2  0
  9 10  1  0
  9 11  1  0
 11 12  1  0
 11 13  2  0
 13 14  1  0
 27 22  1  0
 13  6  1  0
 37 31  1  0
  4  5  1  0
 26 29  1  0
 28 30  1  0
 12 15  1  0
 14 16  1  0
M  CHG 1  17   1
M  CHG 1  19  -1
M  END
> <minimizedAffinity>
-6.35679

> <CNNscore>
0.6966443062

> <CNNaffinity>
5.9759650230

> <CNN_VS>
4.1631221771

> <CNNaffinity_variance>
0.1878246814

$$$$



 37 39  0  0  0  0  0  0  0  0999 V2000
   38.3806   -2.0267   -7.2704 C   0  0  0  0  0  0  0  0  0  0  0  0
   36.2723   -3.8239   -7.9122 O   0  0  0  0  0  0  0  0  0  0  0  0
   37.1629   -4.1752   -7.1457 C   0  0  0  0  0  0  0  0  0  0  0  0
   38.2328   -3.3841   -6.8160 N   0  0  0  0  0  0  0  0  0  0  0  0
   38.9350   -3.7634   -6.2396 H   0  0  0  0  0  0  0  0  0  0  0  0
   37.0975   -5.5299   -6.5156 C   0  0  0  0  0  0  0  0  0  0  0  0
   38.2140   -5.9458   -5.7715 C   0  0  0  0  0  0  0  0  0  0  0  0
   38.2232   -7.2149   -5.1722 C   0  0  0  0  0  0  0  0  0  0  0  0
   37.1457   -8.0907   -5.2784 C   0  0  0  0  0  0  0  0  0  0  0  0
   37.0970   -9.6426   -4.5228 Cl  0  0  0  0  0  0  0  0  0  0  0  0
   36.0399   -7.6690   -6.0183 C   0  0  0  0  0  0  0  0  0  0  0  0
   34.9242   -8.4555   -6.1894 O   0  0  0  0  0  0  0  0  0  0  0  0
   36.0113   -6.4076   -6.6310 C   0  0  0  0  0  0  0  0  0  0  0  0
   34.8830   -6.0805   -7.3433 O   0  0  0  0  0  0  0  0  0  0  0  0
   34.8881   -9.3080   -5.8023 H   0  0  0  0  0  0  0  0  0  0  0  0
   34.1731   -6.6892   -7.4019 H   0  0  0  0  0  0  0  0  0  0  0  0
   39.4026   -7.5994   -4.4348 N   0  0  0  0  0  0  0  0  0  0  0  0
   40.3211   -6.7729   -4.3817 O   0  0  0  0  0  0  0  0  0  0  0  0
   39.4103   -8.7327   -3.9395 O   0  0  0  0  0  0  0  0  0  0  0  0
   38.6953   -1.1019   -6.1268 C   0  0  0  0  0  0  0  0  0  0  0  0
   38.2427   -1.1770   -4.8614 C   0  0  0  0  0  0  0  0  0  0  0  0
   38.5489   -0.2474   -3.7195 C   0  0  0  0  0  0  0  0  0  0  0  0
   39.7679   -0.7130   -3.1119 O   0  0  0  0  0  0  0  0  0  0  0  0
   40.4594    0.4278   -2.5616 C   0  0  0  0  0  0  0  0  0  0  0  0
   39.5966    1.6707   -2.8383 C   0  0  0  0  0  0  0  0  0  0  0  0
   38.7203    1.9552   -1.7318 O   0  0  0  0  0  0  0  0  0  0  0  0
   38.7863    1.2317   -4.0426 C   0  0  0  0  0  0  0  0  0  0  0  0
   37.5842    1.9941   -4.1456 O   0  0  0  0  0  0  0  0  0  0  0  0
   38.1702    1.1780   -1.5469 H   0  0  0  0  0  0  0  0  0  0  0  0
   37.0837    1.9220   -3.3179 H   0  0  0  0  0  0  0  0  0  0  0  0
   41.8164    0.5737   -3.1408 N   0  0  0  0  0  0  0  0  0  0  0  0
   42.5666   -0.5612   -3.4426 C   0  0  0  0  0  0  0  0  0  0  0  0
   43.8068   -0.5404   -3.9465 C   0  0  0  0  0  0  0  0  0  0  0  0
   44.4326    0.7783   -4.2014 C   0  0  0  0  0  0  0  0  0  0  0  0
   45.5705    0.8680   -4.6468 O   0  0  0  0  0  0  0  0  0  0  0  0
   43.6300    1.9845   -3.8930 C   0  0  0  0  0  0  0  0  0  0  0  0
   42.3998    1.8129   -3.3926 C   0  0  0  0  0  0  0  0  0  0  0  0
  2  3  2  0
  3  4  1  0
  4  1  1  0
  1 20  1  0
 20 21  2  0
 22 21  1  0
 22 23  1  0
 23 24  1  0
 24 31  1  0
 31 32  1  0
 32 33  2  0
 33 34  1  0
 34 35  2  0
 34 36  1  0
 36 37  2  0
 24 25  1  0
 25 26  1  0
 25 27  1  0
 27 28  1  0
  3  6  1  0
  6  7  2  0
  7  8  1  0
  8 17  1  0
 17 18  2  0
 17 19  1  0
  8  9  2  0
  9 10  1  0
  9 11  1  0
 11 12  1  0
 11 13  2  0
 13 14  1  0
 27 22  1  0
 13  6  1  0
 37 31  1  0
  4  5  1  0
 26 29  1  0
 28 30  1  0
 12 15  1  0
 14 16  1  0
M  CHG 1  17   1
M  CHG 1  19  -1
M  END
> <minimizedAffinity>
-7.14751

> <CNNscore>
0.6206005216

> <CNNaffinity>
5.5745964050

> <CNN_VS>
3.4595973492

> <CNNaffinity_variance>
0.2019258738

$$$$



 37 39  0  0  0  0  0  0  0  0999 V2000
   38.5357   -2.1050   -7.1566 C   0  0  0  0  0  0  0  0  0  0  0  0
   36.3225   -3.7794   -7.7768 O   0  0  0  0  0  0  0  0  0  0  0  0
   37.2227   -4.1979   -7.0566 C   0  0  0  0  0  0  0  0  0  0  0  0
   38.3403   -3.4690   -6.7419 N   0  0  0  0  0  0  0  0  0  0  0  0
   39.0442   -3.9002   -6.2054 H   0  0  0  0  0  0  0  0  0  0  0  0
   37.1160   -5.5691   -6.4694 C   0  0  0  0  0  0  0  0  0  0  0  0
   38.2099   -6.0330   -5.7200 C   0  0  0  0  0  0  0  0  0  0  0  0
   38.1801   -7.3194   -5.1598 C   0  0  0  0  0  0  0  0  0  0  0  0
   37.0852   -8.1666   -5.3105 C   0  0  0  0  0  0  0  0  0  0  0  0
   36.9886   -9.7391   -4.6037 Cl  0  0  0  0  0  0  0  0  0  0  0  0
   36.0021   -7.6974   -6.0554 C   0  0  0  0  0  0  0  0  0  0  0  0
   34.8721   -8.4525   -6.2689 O   0  0  0  0  0  0  0  0  0  0  0  0
   36.0124   -6.4178   -6.6296 C   0  0  0  0  0  0  0  0  0  0  0  0
   34.9043   -6.0434   -7.3501 O   0  0  0  0  0  0  0  0  0  0  0  0
   34.8102   -9.3153   -5.9088 H   0  0  0  0  0  0  0  0  0  0  0  0
   34.1819   -6.6335   -7.4391 H   0  0  0  0  0  0  0  0  0  0  0  0
   39.3377   -7.7530   -4.4150 N   0  0  0  0  0  0  0  0  0  0  0  0
   40.3128   -6.9925   -4.4074 O   0  0  0  0  0  0  0  0  0  0  0  0
   39.2709   -8.8605   -3.8682 O   0  0  0  0  0  0  0  0  0  0  0  0
   39.0427   -1.2590   -6.0211 C   0  0  0  0  0  0  0  0  0  0  0  0
   39.0790    0.0847   -5.9505 C   0  0  0  0  0  0  0  0  0  0  0  0
   39.5945    0.9317   -4.8198 C   0  0  0  0  0  0  0  0  0  0  0  0
   40.6637    1.7369   -5.3494 O   0  0  0  0  0  0  0  0  0  0  0  0
   40.6979    2.9779   -4.6138 C   0  0  0  0  0  0  0  0  0  0  0  0
   39.5849    2.9193   -3.5537 C   0  0  0  0  0  0  0  0  0  0  0  0
   40.0855    2.4248   -2.2976 O   0  0  0  0  0  0  0  0  0  0  0  0
   38.6228    1.9162   -4.1603 C   0  0  0  0  0  0  0  0  0  0  0  0
   37.8087    1.3241   -3.1485 O   0  0  0  0  0  0  0  0  0  0  0  0
   40.4913    1.5540   -2.4315 H   0  0  0  0  0  0  0  0  0  0  0  0
   38.3755    0.9274   -2.4685 H   0  0  0  0  0  0  0  0  0  0  0  0
   40.5281    4.1470   -5.5097 N   0  0  0  0  0  0  0  0  0  0  0  0
   41.0188    5.3928   -5.1236 C   0  0  0  0  0  0  0  0  0  0  0  0
   40.8993    6.5137   -5.8460 C   0  0  0  0  0  0  0  0  0  0  0  0
   40.1951    6.4315   -7.1471 C   0  0  0  0  0  0  0  0  0  0  0  0
   40.0377    7.4228   -7.8499 O   0  0  0  0  0  0  0  0  0  0  0  0
   39.6851    5.1046   -7.5634 C   0  0  0  0  0  0  0  0  0  0  0  0
   39.8775    4.0674   -6.7385 C   0  0  0  0  0  0  0  0  0  0  0  0
  2  3  2  0
  3  4  1  0
  4  1  1  0
  1 20  1  0
 20 21  2  0
 22 21  1  0
 22 23  1  0
 23 24  1  0
 24 31  1  0
 31 32  1  0
 32 33  2  0
 33 34  1  0
 34 35  2  0
 34 36  1  0
 36 37  2  0
 24 25  1  0
 25 26  1  0
 25 27  1  0
 27 28  1  0
  3  6  1  0
  6  7  2  0
  7  8  1  0
  8 17  1  0
 17 18  2  0
 17 19  1  0
  8  9  2  0
  9 10  1  0
  9 11  1  0
 11 12  1  0
 11 13  2  0
 13 14  1  0
 27 22  1  0
 13  6  1  0
 37 31  1  0
  4  5  1  0
 26 29  1  0
 28 30  1  0
 12 15  1  0
 14 16  1  0
M  CHG 1  17   1
M  CHG 1  19  -1
M  END
> <minimizedAffinity>
-7.58004

> <CNNscore>
0.5647783875

> <CNNaffinity>
5.8241157532

> <CNN_VS>
3.2893347740

> <CNNaffinity_variance>
0.2315410972

$$$$



 37 39  0  0  0  0  0  0  0  0999 V2000
   37.8018   -2.4867   -7.6133 C   0  0  0  0  0  0  0  0  0  0  0  0
   35.9712   -4.6578   -7.4647 O   0  0  0  0  0  0  0  0  0  0  0  0
   37.0662   -4.7430   -6.9189 C   0  0  0  0  0  0  0  0  0  0  0  0
   38.0185   -3.7584   -6.9759 N   0  0  0  0  0  0  0  0  0  0  0  0
   38.8942   -3.9301   -6.5601 H   0  0  0  0  0  0  0  0  0  0  0  0
   37.4023   -5.9713   -6.1349 C   0  0  0  0  0  0  0  0  0  0  0  0
   38.7150   -6.0817   -5.6470 C   0  0  0  0  0  0  0  0  0  0  0  0
   39.0992   -7.2199   -4.9213 C   0  0  0  0  0  0  0  0  0  0  0  0
   38.2122   -8.2589   -4.6510 C   0  0  0  0  0  0  0  0  0  0  0  0
   38.6299   -9.6565   -3.7269 Cl  0  0  0  0  0  0  0  0  0  0  0  0
   36.9096   -8.1406   -5.1382 C   0  0  0  0  0  0  0  0  0  0  0  0
   35.9546   -9.1089   -4.9315 O   0  0  0  0  0  0  0  0  0  0  0  0
   36.5053   -7.0150   -5.8710 C   0  0  0  0  0  0  0  0  0  0  0  0
   35.2054   -6.9878   -6.3147 O   0  0  0  0  0  0  0  0  0  0  0  0
   36.1689   -9.8827   -4.4485 H   0  0  0  0  0  0  0  0  0  0  0  0
   34.6295   -7.7014   -6.1220 H   0  0  0  0  0  0  0  0  0  0  0  0
   40.4645   -7.2909   -4.4593 N   0  0  0  0  0  0  0  0  0  0  0  0
   40.6936   -6.8496   -3.3270 O   0  0  0  0  0  0  0  0  0  0  0  0
   41.2984   -7.7615   -5.2423 O   0  0  0  0  0  0  0  0  0  0  0  0
   37.3211   -2.6624   -9.0276 C   0  0  0  0  0  0  0  0  0  0  0  0
   36.3728   -1.9528   -9.6669 C   0  0  0  0  0  0  0  0  0  0  0  0
   35.8845   -2.1339  -11.0778 C   0  0  0  0  0  0  0  0  0  0  0  0
   36.6111   -1.2010  -11.8986 O   0  0  0  0  0  0  0  0  0  0  0  0
   36.7421   -1.7709  -13.2178 C   0  0  0  0  0  0  0  0  0  0  0  0
   36.0341   -3.1364  -13.2054 C   0  0  0  0  0  0  0  0  0  0  0  0
   34.6664   -3.0196  -13.6398 O   0  0  0  0  0  0  0  0  0  0  0  0
   36.0822   -3.5042  -11.7349 C   0  0  0  0  0  0  0  0  0  0  0  0
   35.0556   -4.4435  -11.4172 O   0  0  0  0  0  0  0  0  0  0  0  0
   34.2031   -2.3769  -13.0801 H   0  0  0  0  0  0  0  0  0  0  0  0
   34.1944   -4.0823  -11.6793 H   0  0  0  0  0  0  0  0  0  0  0  0
   38.1644   -1.9047  -13.6147 N   0  0  0  0  0  0  0  0  0  0  0  0
   38.9303   -0.7632  -13.8432 C   0  0  0  0  0  0  0  0  0  0  0  0
   40.2133   -0.7730  -14.2253 C   0  0  0  0  0  0  0  0  0  0  0  0
   40.8707   -2.0860  -14.4232 C   0  0  0  0  0  0  0  0  0  0  0  0
   42.0380   -2.1656  -14.7873 O   0  0  0  0  0  0  0  0  0  0  0  0
   40.0603   -3.2993  -14.1674 C   0  0  0  0  0  0  0  0  0  0  0  0
   38.7861   -3.1387  -13.7882 C   0  0  0  0  0  0  0  0  0  0  0  0
  2  3  2  0
  3  4  1  0
  4  1  1  0
  1 20  1  0
 20 21  2  0
 22 21  1  0
 22 23  1  0
 23 24  1  0
 24 31  1  0
 31 32  1  0
 32 33  2  0
 33 34  1  0
 34 35  2  0
 34 36  1  0
 36 37  2  0
 24 25  1  0
 25 26  1  0
 25 27  1  0
 27 28  1  0
  3  6  1  0
  6  7  2  0
  7  8  1  0
  8 17  1  0
 17 18  2  0
 17 19  1  0
  8  9  2  0
  9 10  1  0
  9 11  1  0
 11 12  1  0
 11 13  2  0
 13 14  1  0
 27 22  1  0
 13  6  1  0
 37 31  1  0
  4  5  1  0
 26 29  1  0
 28 30  1  0
 12 15  1  0
 14 16  1  0
M  CHG 1  17   1
M  CHG 1  19  -1
M  END
> <minimizedAffinity>
-8.68375

> <CNNscore>
0.5305688381

> <CNNaffinity>
5.9331474304

> <CNN_VS>
3.1479430199

> <CNNaffinity_variance>
0.1407614946

$$$$



 37 39  0  0  0  0  0  0  0  0999 V2000
   37.4478   -2.7318   -7.2507 C   0  0  0  0  0  0  0  0  0  0  0  0
   36.0578   -5.2066   -7.4247 O   0  0  0  0  0  0  0  0  0  0  0  0
   37.0534   -5.1133   -6.7147 C   0  0  0  0  0  0  0  0  0  0  0  0
   37.8007   -3.9691   -6.6063 N   0  0  0  0  0  0  0  0  0  0  0  0
   38.6195   -3.9952   -6.0603 H   0  0  0  0  0  0  0  0  0  0  0  0
   37.4917   -6.2924   -5.9060 C   0  0  0  0  0  0  0  0  0  0  0  0
   38.8138   -6.2890   -5.4313 C   0  0  0  0  0  0  0  0  0  0  0  0
   39.2925   -7.3760   -4.6837 C   0  0  0  0  0  0  0  0  0  0  0  0
   38.4916   -8.4736   -4.3785 C   0  0  0  0  0  0  0  0  0  0  0  0
   39.0259   -9.8117   -3.4268 Cl  0  0  0  0  0  0  0  0  0  0  0  0
   37.1790   -8.4684   -4.8528 C   0  0  0  0  0  0  0  0  0  0  0  0
   36.3043   -9.5025   -4.6122 O   0  0  0  0  0  0  0  0  0  0  0  0
   36.6812   -7.3957   -5.6071 C   0  0  0  0  0  0  0  0  0  0  0  0
   35.3787   -7.4801   -6.0359 O   0  0  0  0  0  0  0  0  0  0  0  0
   36.5828  -10.2454   -4.1137 H   0  0  0  0  0  0  0  0  0  0  0  0
   34.8620   -8.2312   -5.8196 H   0  0  0  0  0  0  0  0  0  0  0  0
   40.6638   -7.3298   -4.2363 N   0  0  0  0  0  0  0  0  0  0  0  0
   41.5168   -7.7891   -5.0049 O   0  0  0  0  0  0  0  0  0  0  0  0
   40.8716   -6.8604   -3.1109 O   0  0  0  0  0  0  0  0  0  0  0  0
   37.5367   -1.5755   -6.2929 C   0  0  0  0  0  0  0  0  0  0  0  0
   38.4092   -1.4123   -5.2812 C   0  0  0  0  0  0  0  0  0  0  0  0
   38.4930   -0.2613   -4.3168 C   0  0  0  0  0  0  0  0  0  0  0  0
   38.4410   -0.8178   -2.9903 O   0  0  0  0  0  0  0  0  0  0  0  0
   39.1965    0.0429   -2.1124 C   0  0  0  0  0  0  0  0  0  0  0  0
   39.7322    1.2115   -2.9571 C   0  0  0  0  0  0  0  0  0  0  0  0
   38.8365    2.3381   -2.9178 O   0  0  0  0  0  0  0  0  0  0  0  0
   39.7518    0.6121   -4.3500 C   0  0  0  0  0  0  0  0  0  0  0  0
   39.7088    1.6388   -5.3404 O   0  0  0  0  0  0  0  0  0  0  0  0
   37.9560    2.0616   -3.2164 H   0  0  0  0  0  0  0  0  0  0  0  0
   38.9319    2.2000   -5.1910 H   0  0  0  0  0  0  0  0  0  0  0  0
   40.2993   -0.6910   -1.4466 N   0  0  0  0  0  0  0  0  0  0  0  0
   40.2764   -0.8717   -0.0650 C   0  0  0  0  0  0  0  0  0  0  0  0
   41.2300   -1.4983    0.6352 C   0  0  0  0  0  0  0  0  0  0  0  0
   42.3954   -2.0379   -0.1038 C   0  0  0  0  0  0  0  0  0  0  0  0
   43.3104   -2.6083    0.4784 O   0  0  0  0  0  0  0  0  0  0  0  0
   42.4133   -1.8573   -1.5739 C   0  0  0  0  0  0  0  0  0  0  0  0
   41.3885   -1.2094   -2.1426 C   0  0  0  0  0  0  0  0  0  0  0  0
  2  3  2  0
  3  4  1  0
  4  1  1  0
  1 20  1  0
 20 21  2  0
 22 21  1  0
 22 23  1  0
 23 24  1  0
 24 31  1  0
 31 32  1  0
 32 33  2  0
 33 34  1  0
 34 35  2  0
 34 36  1  0
 36 37  2  0
 24 25  1  0
 25 26  1  0
 25 27  1  0
 27 28  1  0
  3  6  1  0
  6  7  2  0
  7  8  1  0
  8 17  1  0
 17 18  2  0
 17 19  1  0
  8  9  2  0
  9 10  1  0
  9 11  1  0
 11 12  1  0
 11 13  2  0
 13 14  1  0
 27 22  1  0
 13  6  1  0
 37 31  1  0
  4  5  1  0
 26 29  1  0
 28 30  1  0
 12 15  1  0
 14 16  1  0
M  CHG 1  17   1
M  CHG 1  19  -1
M  END
> <minimizedAffinity>
-6.42651

> <CNNscore>
0.4899588227

> <CNNaffinity>
5.6116719246

> <CNN_VS>
2.7494881153

> <CNNaffinity_variance>
0.2121755630

$$$$



 37 39  0  0  0  0  0  0  0  0999 V2000
   36.2398   -3.3291   -8.2324 C   0  0  0  0  0  0  0  0  0  0  0  0
   37.5071   -4.9087   -6.2360 O   0  0  0  0  0  0  0  0  0  0  0  0
   37.7701   -3.7144   -6.3288 C   0  0  0  0  0  0  0  0  0  0  0  0
   37.2326   -2.8936   -7.2863 N   0  0  0  0  0  0  0  0  0  0  0  0
   37.5413   -1.9597   -7.3287 H   0  0  0  0  0  0  0  0  0  0  0  0
   38.7167   -3.0928   -5.3520 C   0  0  0  0  0  0  0  0  0  0  0  0
   39.7324   -3.9125   -4.8327 C   0  0  0  0  0  0  0  0  0  0  0  0
   40.6404   -3.3945   -3.8962 C   0  0  0  0  0  0  0  0  0  0  0  0
   40.5807   -2.0731   -3.4608 C   0  0  0  0  0  0  0  0  0  0  0  0
   41.7018   -1.3831   -2.3434 Cl  0  0  0  0  0  0  0  0  0  0  0  0
   39.5693   -1.2652   -3.9828 C   0  0  0  0  0  0  0  0  0  0  0  0
   39.4174    0.0528   -3.6192 O   0  0  0  0  0  0  0  0  0  0  0  0
   38.6472   -1.7632   -4.9151 C   0  0  0  0  0  0  0  0  0  0  0  0
   37.6832   -0.8965   -5.3700 O   0  0  0  0  0  0  0  0  0  0  0  0
   40.0050    0.4387   -2.9997 H   0  0  0  0  0  0  0  0  0  0  0  0
   37.6630   -0.0130   -5.0587 H   0  0  0  0  0  0  0  0  0  0  0  0
   41.6527   -4.2847   -3.3808 N   0  0  0  0  0  0  0  0  0  0  0  0
   42.7461   -4.2796   -3.9585 O   0  0  0  0  0  0  0  0  0  0  0  0
   41.3365   -4.9992   -2.4220 O   0  0  0  0  0  0  0  0  0  0  0  0
   36.6142   -2.9331   -9.6343 C   0  0  0  0  0  0  0  0  0  0  0  0
   35.7920   -2.5332  -10.6221 C   0  0  0  0  0  0  0  0  0  0  0  0
   36.1641   -2.1462  -12.0270 C   0  0  0  0  0  0  0  0  0  0  0  0
   34.9739   -1.6317  -12.6520 O   0  0  0  0  0  0  0  0  0  0  0  0
   35.3699   -0.6457  -13.6283 C   0  0  0  0  0  0  0  0  0  0  0  0
   36.9057   -0.5645  -13.6087 C   0  0  0  0  0  0  0  0  0  0  0  0
   37.4877   -1.4402  -14.5924 O   0  0  0  0  0  0  0  0  0  0  0  0
   37.2310   -1.0621  -12.2135 C   0  0  0  0  0  0  0  0  0  0  0  0
   38.5674   -1.5597  -12.1554 O   0  0  0  0  0  0  0  0  0  0  0  0
   37.1804   -2.3475  -14.4398 H   0  0  0  0  0  0  0  0  0  0  0  0
   38.6861   -2.2471  -12.8294 H   0  0  0  0  0  0  0  0  0  0  0  0
   34.7566    0.6749  -13.3485 N   0  0  0  0  0  0  0  0  0  0  0  0
   35.2590    1.4678  -12.3186 C   0  0  0  0  0  0  0  0  0  0  0  0
   34.7660    2.6627  -11.9700 C   0  0  0  0  0  0  0  0  0  0  0  0
   33.6032    3.1836  -12.7264 C   0  0  0  0  0  0  0  0  0  0  0  0
   33.0940    4.2628  -12.4484 O   0  0  0  0  0  0  0  0  0  0  0  0
   33.0775    2.3465  -13.8297 C   0  0  0  0  0  0  0  0  0  0  0  0
   33.6718    1.1703  -14.0676 C   0  0  0  0  0  0  0  0  0  0  0  0
  2  3  2  0
  3  4  1  0
  4  1  1  0
  1 20  1  0
 20 21  2  0
 22 21  1  0
 22 23  1  0
 23 24  1  0
 24 31  1  0
 31 32  1  0
 32 33  2  0
 33 34  1  0
 34 35  2  0
 34 36  1  0
 36 37  2  0
 24 25  1  0
 25 26  1  0
 25 27  1  0
 27 28  1  0
  3  6  1  0
  6  7  2  0
  7  8  1  0
  8 17  1  0
 17 18  2  0
 17 19  1  0
  8  9  2  0
  9 10  1  0
  9 11  1  0
 11 12  1  0
 11 13  2  0
 13 14  1  0
 27 22  1  0
 13  6  1  0
 37 31  1  0
  4  5  1  0
 26 29  1  0
 28 30  1  0
 12 15  1  0
 14 16  1  0
M  CHG 1  17   1
M  CHG 1  19  -1
M  END
> <minimizedAffinity>
-8.38972

> <CNNscore>
0.4240058661

> <CNNaffinity>
6.1016097069

> <CNN_VS>
2.5871183872

> <CNNaffinity_variance>
0.0238461774

$$$$



 37 39  0  0  0  0  0  0  0  0999 V2000
   37.4574   -2.6961   -7.3036 C   0  0  0  0  0  0  0  0  0  0  0  0
   36.0687   -5.1727   -7.4603 O   0  0  0  0  0  0  0  0  0  0  0  0
   37.0593   -5.0715   -6.7442 C   0  0  0  0  0  0  0  0  0  0  0  0
   37.8057   -3.9261   -6.6431 N   0  0  0  0  0  0  0  0  0  0  0  0
   38.6206   -3.9462   -6.0910 H   0  0  0  0  0  0  0  0  0  0  0  0
   37.4918   -6.2416   -5.9195 C   0  0  0  0  0  0  0  0  0  0  0  0
   38.8054   -6.2253   -5.4220 C   0  0  0  0  0  0  0  0  0  0  0  0
   39.2787   -7.3035   -4.6583 C   0  0  0  0  0  0  0  0  0  0  0  0
   38.4804   -8.4046   -4.3590 C   0  0  0  0  0  0  0  0  0  0  0  0
   39.0075   -9.7320   -3.3884 Cl  0  0  0  0  0  0  0  0  0  0  0  0
   37.1762   -8.4122   -4.8559 C   0  0  0  0  0  0  0  0  0  0  0  0
   36.3047   -9.4508   -4.6229 O   0  0  0  0  0  0  0  0  0  0  0  0
   36.6840   -7.3485   -5.6265 C   0  0  0  0  0  0  0  0  0  0  0  0
   35.3898   -7.4453   -6.0771 O   0  0  0  0  0  0  0  0  0  0  0  0
   36.5798  -10.1880   -4.1142 H   0  0  0  0  0  0  0  0  0  0  0  0
   34.8747   -8.1985   -5.8643 H   0  0  0  0  0  0  0  0  0  0  0  0
   40.6417   -7.2442   -4.1876 N   0  0  0  0  0  0  0  0  0  0  0  0
   41.5299   -7.2628   -5.0479 O   0  0  0  0  0  0  0  0  0  0  0  0
   40.8116   -7.2074   -2.9630 O   0  0  0  0  0  0  0  0  0  0  0  0
   38.1911   -1.5293   -6.7016 C   0  0  0  0  0  0  0  0  0  0  0  0
   37.9671   -0.9444   -5.5102 C   0  0  0  0  0  0  0  0  0  0  0  0
   38.6936    0.2284   -4.9114 C   0  0  0  0  0  0  0  0  0  0  0  0
   37.7803    0.8716   -4.0036 O   0  0  0  0  0  0  0  0  0  0  0  0
   38.5511    1.4726   -2.9420 C   0  0  0  0  0  0  0  0  0  0  0  0
   40.0355    1.1906   -3.2299 C   0  0  0  0  0  0  0  0  0  0  0  0
   40.6382    2.2689   -3.9696 O   0  0  0  0  0  0  0  0  0  0  0  0
   39.9593   -0.0530   -4.0945 C   0  0  0  0  0  0  0  0  0  0  0  0
   41.1360   -0.1850   -4.8914 O   0  0  0  0  0  0  0  0  0  0  0  0
   40.1415    2.4157   -4.7897 H   0  0  0  0  0  0  0  0  0  0  0  0
   41.2639    0.6214   -5.4151 H   0  0  0  0  0  0  0  0  0  0  0  0
   38.1505    0.9486   -1.6141 N   0  0  0  0  0  0  0  0  0  0  0  0
   37.4825    1.7776   -0.7149 C   0  0  0  0  0  0  0  0  0  0  0  0
   37.0971    1.4114    0.5138 C   0  0  0  0  0  0  0  0  0  0  0  0
   37.4008    0.0303    0.9561 C   0  0  0  0  0  0  0  0  0  0  0  0
   37.0897   -0.3637    2.0738 O   0  0  0  0  0  0  0  0  0  0  0  0
   38.0992   -0.8549   -0.0047 C   0  0  0  0  0  0  0  0  0  0  0  0
   38.4246   -0.3535   -1.2031 C   0  0  0  0  0  0  0  0  0  0  0  0
  2  3  2  0
  3  4  1  0
  4  1  1  0
  1 20  1  0
 20 21  2  0
 22 21  1  0
 22 23  1  0
 23 24  1  0
 24 31  1  0
 31 32  1  0
 32 33  2  0
 33 34  1  0
 34 35  2  0
 34 36  1  0
 36 37  2  0
 24 25  1  0
 25 26  1  0
 25 27  1  0
 27 28  1  0
  3  6  1  0
  6  7  2  0
  7  8  1  0
  8 17  1  0
 17 18  2  0
 17 19  1  0
  8  9  2  0
  9 10  1  0
  9 11  1  0
 11 12  1  0
 11 13  2  0
 13 14  1  0
 27 22  1  0
 13  6  1  0
 37 31  1  0
  4  5  1  0
 26 29  1  0
 28 30  1  0
 12 15  1  0
 14 16  1  0
M  CHG 1  17   1
M  CHG 1  19  -1
M  END
> <minimizedAffinity>
-7.49425

> <CNNscore>
0.3896253407

> <CNNaffinity>
5.3411440849

> <CNN_VS>
2.0810451508

> <CNNaffinity_variance>
0.3037945032

$$$$



 37 39  0  0  0  0  0  0  0  0999 V2000
   35.2408   -4.4380   -8.4390 C   0  0  0  0  0  0  0  0  0  0  0  0
   36.0040   -6.3066   -6.4359 O   0  0  0  0  0  0  0  0  0  0  0  0
   36.7421   -5.3654   -6.7070 C   0  0  0  0  0  0  0  0  0  0  0  0
   36.4659   -4.4445   -7.6842 N   0  0  0  0  0  0  0  0  0  0  0  0
   37.1392   -3.7533   -7.8793 H   0  0  0  0  0  0  0  0  0  0  0  0
   38.0125   -5.1837   -5.9392 C   0  0  0  0  0  0  0  0  0  0  0  0
   38.8169   -6.3200   -5.7517 C   0  0  0  0  0  0  0  0  0  0  0  0
   40.0117   -6.2198   -5.0223 C   0  0  0  0  0  0  0  0  0  0  0  0
   40.4457   -5.0148   -4.4756 C   0  0  0  0  0  0  0  0  0  0  0  0
   41.9282   -4.8373   -3.6083 Cl  0  0  0  0  0  0  0  0  0  0  0  0
   39.6413   -3.8905   -4.6676 C   0  0  0  0  0  0  0  0  0  0  0  0
   39.9736   -2.6525   -4.1683 O   0  0  0  0  0  0  0  0  0  0  0  0
   38.4402   -3.9685   -5.3879 C   0  0  0  0  0  0  0  0  0  0  0  0
   37.7115   -2.8115   -5.5216 O   0  0  0  0  0  0  0  0  0  0  0  0
   40.7649   -2.5416   -3.6791 H   0  0  0  0  0  0  0  0  0  0  0  0
   38.0242   -2.0143   -5.1414 H   0  0  0  0  0  0  0  0  0  0  0  0
   40.7908   -7.4215   -4.8438 N   0  0  0  0  0  0  0  0  0  0  0  0
   40.4242   -8.1964   -3.9524 O   0  0  0  0  0  0  0  0  0  0  0  0
   41.7763   -7.5656   -5.5772 O   0  0  0  0  0  0  0  0  0  0  0  0
   35.5002   -4.1579   -9.8938 C   0  0  0  0  0  0  0  0  0  0  0  0
   35.6555   -2.9584  -10.4843 C   0  0  0  0  0  0  0  0  0  0  0  0
   35.9053   -2.6766  -11.9403 C   0  0  0  0  0  0  0  0  0  0  0  0
   34.7248   -2.0325  -12.4539 O   0  0  0  0  0  0  0  0  0  0  0  0
   35.1251   -1.1446  -13.5186 C   0  0  0  0  0  0  0  0  0  0  0  0
   36.6502   -1.2670  -13.6758 C   0  0  0  0  0  0  0  0  0  0  0  0
   36.9958   -2.2480  -14.6714 O   0  0  0  0  0  0  0  0  0  0  0  0
   37.0720   -1.7510  -12.3018 C   0  0  0  0  0  0  0  0  0  0  0  0
   38.3316   -2.4188  -12.3681 O   0  0  0  0  0  0  0  0  0  0  0  0
   36.5956   -3.1002  -14.4382 H   0  0  0  0  0  0  0  0  0  0  0  0
   38.2814   -3.1405  -13.0144 H   0  0  0  0  0  0  0  0  0  0  0  0
   34.7223    0.2551  -13.2411 N   0  0  0  0  0  0  0  0  0  0  0  0
   35.2109    0.9052  -12.1095 C   0  0  0  0  0  0  0  0  0  0  0  0
   34.8936    2.1569  -11.7560 C   0  0  0  0  0  0  0  0  0  0  0  0
   33.9561    2.9087  -12.6228 C   0  0  0  0  0  0  0  0  0  0  0  0
   33.6124    4.0523  -12.3482 O   0  0  0  0  0  0  0  0  0  0  0  0
   33.4472    2.2221  -13.8327 C   0  0  0  0  0  0  0  0  0  0  0  0
   33.8512    0.9662  -14.0626 C   0  0  0  0  0  0  0  0  0  0  0  0
  2  3  2  0
  3  4  1  0
  4  1  1  0
  1 20  1  0
 20 21  2  0
 22 21  1  0
 22 23  1  0
 23 24  1  0
 24 31  1  0
 31 32  1  0
 32 33  2  0
 33 34  1  0
 34 35  2  0
 34 36  1  0
 36 37  2  0
 24 25  1  0
 25 26  1  0
 25 27  1  0
 27 28  1  0
  3  6  1  0
  6  7  2  0
  7  8  1  0
  8 17  1  0
 17 18  2  0
 17 19  1  0
  8  9  2  0
  9 10  1  0
  9 11  1  0
 11 12  1  0
 11 13  2  0
 13 14  1  0
 27 22  1  0
 13  6  1  0
 37 31  1  0
  4  5  1  0
 26 29  1  0
 28 30  1  0
 12 15  1  0
 14 16  1  0
M  CHG 1  17   1
M  CHG 1  19  -1
M  END
> <minimizedAffinity>
-7.34741

> <CNNscore>
0.3840954602

> <CNNaffinity>
6.4113907814

> <CNN_VS>
2.4625861645

> <CNNaffinity_variance>
0.2196004242

$$$$
