


 25 26  0  0  0  0  0  0  0  0999 V2000
   39.1359   -1.6850   13.5906 C   0  0  0  0  0  0  0  0  0  0  0  0
   37.8812   -1.1217   12.9411 C   0  0  0  0  0  0  0  0  0  0  0  0
   36.8813   -0.8804   13.9265 O   0  0  0  0  0  0  0  0  0  0  0  0
   37.5922   -2.1751   11.8425 C   0  0  0  0  0  0  0  0  0  0  0  0
   38.8764   -2.7180   11.4740 O   0  0  0  0  0  0  0  0  0  0  0  0
   39.8823   -2.1765   12.3566 C   0  0  0  0  0  0  0  0  0  0  0  0
   36.7135   -1.6963   14.4235 H   0  0  0  0  0  0  0  0  0  0  0  0
   36.6657   -3.2474   12.2257 N   0  0  0  0  0  0  0  0  0  0  0  0
   36.9978   -4.2060   13.1662 C   0  0  0  0  0  0  0  0  0  0  0  0
   36.1732   -5.2079   13.4798 C   0  0  0  0  0  0  0  0  0  0  0  0
   34.8757   -5.3032   12.7962 C   0  0  0  0  0  0  0  0  0  0  0  0
   34.0542   -6.1543   13.1094 O   0  0  0  0  0  0  0  0  0  0  0  0
   34.6573   -4.3820   11.8149 N   0  0  0  0  0  0  0  0  0  0  0  0
   35.4771   -3.3327   11.5075 C   0  0  0  0  0  0  0  0  0  0  0  0
   35.1466   -2.4952   10.6665 O   0  0  0  0  0  0  0  0  0  0  0  0
   33.8364   -4.4815   11.2806 H   0  0  0  0  0  0  0  0  0  0  0  0
   40.9377   -3.2340   12.6812 C   0  0  0  0  0  0  0  0  0  0  0  0
   40.4613   -4.0718   13.7290 O   0  0  0  0  0  0  0  0  0  0  0  0
   40.2867   -3.5352   14.5179 H   0  0  0  0  0  0  0  0  0  0  0  0
   39.9125   -0.7305   14.3217 O   0  0  0  0  0  0  0  0  0  0  0  0
   40.2312    0.4251   13.5600 C   0  0  0  0  0  0  0  0  0  0  0  0
   42.2022    1.4892   14.6185 C   0  0  0  0  0  0  0  0  0  0  0  0
   40.7018    1.5804   14.4249 N   0  0  0  0  0  0  0  0  0  0  0  0
   40.0046    1.5077   15.7710 C   0  0  0  0  0  0  0  0  0  0  0  0
   40.3554    2.8909   13.7410 C   0  0  0  0  0  0  0  0  0  0  0  0
 22 23  1  0
 23 24  1  0
 23 25  1  0
 23 21  1  0
 21 20  1  0
  1 20  1  0
  1  2  1  0
  2  3  1  0
  2  4  1  0
  4  8  1  0
  8  9  1  0
  9 10  2  0
 10 11  1  0
 11 12  2  0
 11 13  1  0
 13 14  1  0
 14 15  2  0
  4  5  1  0
  5  6  1  0
  6 17  1  0
 17 18  1  0
  6  1  1  0
 14  8  1  0
  3  7  1  0
 13 16  1  0
 18 19  1  0
M  CHG 1  23   1
M  END
> <minimizedAffinity>
-4.68274

> <CNNscore>
0.8224904537

> <CNNaffinity>
3.9380702972

> <CNN_VS>
3.2390251160

> <CNNaffinity_variance>
0.2098526806

$$$$



 25 26  0  0  0  0  0  0  0  0999 V2000
   37.6864   -1.7297   14.0313 C   0  0  0  0  0  0  0  0  0  0  0  0
   37.0418   -1.6786   12.6546 C   0  0  0  0  0  0  0  0  0  0  0  0
   35.7012   -1.2076   12.7547 O   0  0  0  0  0  0  0  0  0  0  0  0
   37.2784   -3.1204   12.1396 C   0  0  0  0  0  0  0  0  0  0  0  0
   38.4952   -3.5666   12.7719 O   0  0  0  0  0  0  0  0  0  0  0  0
   38.9216   -2.5659   13.7210 C   0  0  0  0  0  0  0  0  0  0  0  0
   35.2093   -1.7627   13.3798 H   0  0  0  0  0  0  0  0  0  0  0  0
   36.1849   -4.0670   12.3915 N   0  0  0  0  0  0  0  0  0  0  0  0
   36.2386   -4.9989   13.4126 C   0  0  0  0  0  0  0  0  0  0  0  0
   35.2649   -5.8902   13.6116 C   0  0  0  0  0  0  0  0  0  0  0  0
   34.1038   -5.8898   12.7107 C   0  0  0  0  0  0  0  0  0  0  0  0
   33.1501   -6.6317   12.9040 O   0  0  0  0  0  0  0  0  0  0  0  0
   34.1642   -5.0092   11.6714 N   0  0  0  0  0  0  0  0  0  0  0  0
   35.1376   -4.0701   11.4757 C   0  0  0  0  0  0  0  0  0  0  0  0
   35.0545   -3.2528   10.5575 O   0  0  0  0  0  0  0  0  0  0  0  0
   33.4429   -5.0539   11.0028 H   0  0  0  0  0  0  0  0  0  0  0  0
   39.5219   -3.2249   14.9632 C   0  0  0  0  0  0  0  0  0  0  0  0
   38.4739   -3.6212   15.8416 O   0  0  0  0  0  0  0  0  0  0  0  0
   37.9601   -2.8416   16.1044 H   0  0  0  0  0  0  0  0  0  0  0  0
   38.0449   -0.4542   14.5730 O   0  0  0  0  0  0  0  0  0  0  0  0
   39.1468    0.1423   13.9043 C   0  0  0  0  0  0  0  0  0  0  0  0
   37.4827    1.8935   13.3553 C   0  0  0  0  0  0  0  0  0  0  0  0
   38.9436    1.6262   13.6575 N   0  0  0  0  0  0  0  0  0  0  0  0
   39.7988    2.0541   12.4790 C   0  0  0  0  0  0  0  0  0  0  0  0
   39.3574    2.4007   14.8960 C   0  0  0  0  0  0  0  0  0  0  0  0
 22 23  1  0
 23 24  1  0
 23 25  1  0
 23 21  1  0
 21 20  1  0
  1 20  1  0
  1  2  1  0
  2  3  1  0
  2  4  1  0
  4  8  1  0
  8  9  1  0
  9 10  2  0
 10 11  1  0
 11 12  2  0
 11 13  1  0
 13 14  1  0
 14 15  2  0
  4  5  1  0
  5  6  1  0
  6 17  1  0
 17 18  1  0
  6  1  1  0
 14  8  1  0
  3  7  1  0
 13 16  1  0
 18 19  1  0
M  CHG 1  23   1
M  END
> <minimizedAffinity>
-5.78438

> <CNNscore>
0.7546719909

> <CNNaffinity>
4.2104487419

> <CNN_VS>
3.1775076389

> <CNNaffinity_variance>
0.0769852921

$$$$



 25 26  0  0  0  0  0  0  0  0999 V2000
   38.5099   -3.2831   14.5603 C   0  0  0  0  0  0  0  0  0  0  0  0
   37.5275   -2.6074   13.6159 C   0  0  0  0  0  0  0  0  0  0  0  0
   36.3652   -2.1924   14.3271 O   0  0  0  0  0  0  0  0  0  0  0  0
   37.3683   -3.6761   12.5057 C   0  0  0  0  0  0  0  0  0  0  0  0
   38.6202   -4.3908   12.4686 O   0  0  0  0  0  0  0  0  0  0  0  0
   39.4534   -3.9286   13.5532 C   0  0  0  0  0  0  0  0  0  0  0  0
   35.9798   -2.9534   14.7889 H   0  0  0  0  0  0  0  0  0  0  0  0
   36.2451   -4.6048   12.6815 N   0  0  0  0  0  0  0  0  0  0  0  0
   36.3047   -5.6748   13.5565 C   0  0  0  0  0  0  0  0  0  0  0  0
   35.3010   -6.5461   13.6812 C   0  0  0  0  0  0  0  0  0  0  0  0
   34.0985   -6.3706   12.8547 C   0  0  0  0  0  0  0  0  0  0  0  0
   33.1215   -7.0941   12.9938 O   0  0  0  0  0  0  0  0  0  0  0  0
   34.1494   -5.3533   11.9482 N   0  0  0  0  0  0  0  0  0  0  0  0
   35.1552   -4.4352   11.8336 C   0  0  0  0  0  0  0  0  0  0  0  0
   35.0658   -3.4921   11.0458 O   0  0  0  0  0  0  0  0  0  0  0  0
   33.3949   -5.2731   11.3209 H   0  0  0  0  0  0  0  0  0  0  0  0
   40.2550   -5.0876   14.1463 C   0  0  0  0  0  0  0  0  0  0  0  0
   39.6764   -5.4764   15.3877 O   0  0  0  0  0  0  0  0  0  0  0  0
   39.6910   -4.7248   16.0007 H   0  0  0  0  0  0  0  0  0  0  0  0
   39.2119   -2.3919   15.4330 O   0  0  0  0  0  0  0  0  0  0  0  0
   38.7707   -2.4733   16.7805 C   0  0  0  0  0  0  0  0  0  0  0  0
   40.9482   -1.3394   17.1129 C   0  0  0  0  0  0  0  0  0  0  0  0
   39.8820   -2.1893   17.7747 N   0  0  0  0  0  0  0  0  0  0  0  0
   40.4846   -3.5046   18.2332 C   0  0  0  0  0  0  0  0  0  0  0  0
   39.3080   -1.4475   18.9686 C   0  0  0  0  0  0  0  0  0  0  0  0
 22 23  1  0
 23 24  1  0
 23 25  1  0
 23 21  1  0
 21 20  1  0
  1 20  1  0
  1  2  1  0
  2  3  1  0
  2  4  1  0
  4  8  1  0
  8  9  1  0
  9 10  2  0
 10 11  1  0
 11 12  2  0
 11 13  1  0
 13 14  1  0
 14 15  2  0
  4  5  1  0
  5  6  1  0
  6 17  1  0
 17 18  1  0
  6  1  1  0
 14  8  1  0
  3  7  1  0
 13 16  1  0
 18 19  1  0
M  CHG 1  23   1
M  END
> <minimizedAffinity>
-5.33317

> <CNNscore>
0.7326948643

> <CNNaffinity>
4.1506981850

> <CNN_VS>
3.0411951542

> <CNNaffinity_variance>
0.1027769446

$$$$



 25 26  0  0  0  0  0  0  0  0999 V2000
   37.6969   -2.1431   14.2888 C   0  0  0  0  0  0  0  0  0  0  0  0
   37.0584   -2.0587   12.9109 C   0  0  0  0  0  0  0  0  0  0  0  0
   35.7162   -1.5935   13.0168 O   0  0  0  0  0  0  0  0  0  0  0  0
   37.3008   -3.4865   12.3607 C   0  0  0  0  0  0  0  0  0  0  0  0
   38.5159   -3.9457   12.9870 O   0  0  0  0  0  0  0  0  0  0  0  0
   38.9356   -2.9684   13.9631 C   0  0  0  0  0  0  0  0  0  0  0  0
   35.2228   -2.1654   13.6254 H   0  0  0  0  0  0  0  0  0  0  0  0
   36.2086   -4.4417   12.5836 N   0  0  0  0  0  0  0  0  0  0  0  0
   36.2711   -5.4156   13.5641 C   0  0  0  0  0  0  0  0  0  0  0  0
   35.2981   -6.3135   13.7353 C   0  0  0  0  0  0  0  0  0  0  0  0
   34.1281   -6.2742   12.8467 C   0  0  0  0  0  0  0  0  0  0  0  0
   33.1753   -7.0225   13.0183 O   0  0  0  0  0  0  0  0  0  0  0  0
   34.1795   -5.3508   11.8447 N   0  0  0  0  0  0  0  0  0  0  0  0
   35.1522   -4.4053   11.6789 C   0  0  0  0  0  0  0  0  0  0  0  0
   35.0611   -3.5501   10.7967 O   0  0  0  0  0  0  0  0  0  0  0  0
   33.4515   -5.3667   11.1821 H   0  0  0  0  0  0  0  0  0  0  0  0
   39.5319   -3.6572   15.1910 C   0  0  0  0  0  0  0  0  0  0  0  0
   38.7760   -3.3046   16.3448 O   0  0  0  0  0  0  0  0  0  0  0  0
   38.8030   -2.3428   16.4675 H   0  0  0  0  0  0  0  0  0  0  0  0
   38.0499   -0.8810   14.8642 O   0  0  0  0  0  0  0  0  0  0  0  0
   38.8146   -0.0663   13.9875 C   0  0  0  0  0  0  0  0  0  0  0  0
   41.2579    0.3428   13.9664 C   0  0  0  0  0  0  0  0  0  0  0  0
   39.9610    0.6332   14.6950 N   0  0  0  0  0  0  0  0  0  0  0  0
   40.0477    0.1232   16.1217 C   0  0  0  0  0  0  0  0  0  0  0  0
   39.7055    2.1298   14.7028 C   0  0  0  0  0  0  0  0  0  0  0  0
 22 23  1  0
 23 24  1  0
 23 25  1  0
 23 21  1  0
 21 20  1  0
  1 20  1  0
  1  2  1  0
  2  3  1  0
  2  4  1  0
  4  8  1  0
  8  9  1  0
  9 10  2  0
 10 11  1  0
 11 12  2  0
 11 13  1  0
 13 14  1  0
 14 15  2  0
  4  5  1  0
  5  6  1  0
  6 17  1  0
 17 18  1  0
  6  1  1  0
 14  8  1  0
  3  7  1  0
 13 16  1  0
 18 19  1  0
M  CHG 1  23   1
M  END
> <minimizedAffinity>
-5.32718

> <CNNscore>
0.7325455546

> <CNNaffinity>
4.1147933006

> <CNN_VS>
3.0142736435

> <CNNaffinity_variance>
0.1390597075

$$$$



 25 26  0  0  0  0  0  0  0  0999 V2000
   39.3649   -1.6885   13.7758 C   0  0  0  0  0  0  0  0  0  0  0  0
   38.2595   -0.8964   13.0947 C   0  0  0  0  0  0  0  0  0  0  0  0
   37.1568   -0.7261   13.9803 O   0  0  0  0  0  0  0  0  0  0  0  0
   38.0402   -1.7105   11.7949 C   0  0  0  0  0  0  0  0  0  0  0  0
   39.3153   -2.3111   11.4901 O   0  0  0  0  0  0  0  0  0  0  0  0
   40.2312   -2.0353   12.5713 C   0  0  0  0  0  0  0  0  0  0  0  0
   36.8583   -1.5936   14.2955 H   0  0  0  0  0  0  0  0  0  0  0  0
   36.9876   -2.7316   11.8610 N   0  0  0  0  0  0  0  0  0  0  0  0
   37.1930   -3.9630   12.4571 C   0  0  0  0  0  0  0  0  0  0  0  0
   36.2507   -4.9085   12.4753 C   0  0  0  0  0  0  0  0  0  0  0  0
   34.9575   -4.6379   11.8317 C   0  0  0  0  0  0  0  0  0  0  0  0
   34.0365   -5.4410   11.8950 O   0  0  0  0  0  0  0  0  0  0  0  0
   34.8608   -3.4428   11.1822 N   0  0  0  0  0  0  0  0  0  0  0  0
   35.8041   -2.4539   11.1844 C   0  0  0  0  0  0  0  0  0  0  0  0
   35.5846   -1.3674   10.6464 O   0  0  0  0  0  0  0  0  0  0  0  0
   34.0388   -3.2777   10.6661 H   0  0  0  0  0  0  0  0  0  0  0  0
   41.1448   -3.2355   12.8209 C   0  0  0  0  0  0  0  0  0  0  0  0
   42.1822   -2.8611   13.7212 O   0  0  0  0  0  0  0  0  0  0  0  0
   42.6981   -2.1354   13.3363 H   0  0  0  0  0  0  0  0  0  0  0  0
   40.1079   -0.9584   14.7574 O   0  0  0  0  0  0  0  0  0  0  0  0
   39.3449   -0.6517   15.9154 C   0  0  0  0  0  0  0  0  0  0  0  0
   38.9802   -2.5771   17.4311 C   0  0  0  0  0  0  0  0  0  0  0  0
   39.8522   -1.3690   17.1532 N   0  0  0  0  0  0  0  0  0  0  0  0
   39.8016   -0.4163   18.3335 C   0  0  0  0  0  0  0  0  0  0  0  0
   41.2839   -1.8172   16.9204 C   0  0  0  0  0  0  0  0  0  0  0  0
 22 23  1  0
 23 24  1  0
 23 25  1  0
 23 21  1  0
 21 20  1  0
  1 20  1  0
  1  2  1  0
  2  3  1  0
  2  4  1  0
  4  8  1  0
  8  9  1  0
  9 10  2  0
 10 11  1  0
 11 12  2  0
 11 13  1  0
 13 14  1  0
 14 15  2  0
  4  5  1  0
  5  6  1  0
  6 17  1  0
 17 18  1  0
  6  1  1  0
 14  8  1  0
  3  7  1  0
 13 16  1  0
 18 19  1  0
M  CHG 1  23   1
M  END
> <minimizedAffinity>
-4.89571

> <CNNscore>
0.6702110171

> <CNNaffinity>
4.1608567238

> <CNN_VS>
2.7886519432

> <CNNaffinity_variance>
0.0645827353

$$$$



 25 26  0  0  0  0  0  0  0  0999 V2000
   38.3909   -1.8497   11.8935 C   0  0  0  0  0  0  0  0  0  0  0  0
   38.5968   -3.0371   12.8215 C   0  0  0  0  0  0  0  0  0  0  0  0
   38.9522   -4.1943   12.0708 O   0  0  0  0  0  0  0  0  0  0  0  0
   37.2660   -3.0547   13.6145 C   0  0  0  0  0  0  0  0  0  0  0  0
   36.8194   -1.6843   13.6592 O   0  0  0  0  0  0  0  0  0  0  0  0
   37.6984   -0.8805   12.8434 C   0  0  0  0  0  0  0  0  0  0  0  0
   38.2783   -4.3595   11.3929 H   0  0  0  0  0  0  0  0  0  0  0  0
   36.2179   -3.9249   13.0674 N   0  0  0  0  0  0  0  0  0  0  0  0
   35.7882   -5.0631   13.7260 C   0  0  0  0  0  0  0  0  0  0  0  0
   34.8687   -5.8793   13.2058 C   0  0  0  0  0  0  0  0  0  0  0  0
   34.3027   -5.5658   11.8862 C   0  0  0  0  0  0  0  0  0  0  0  0
   33.3993   -6.2378   11.4071 O   0  0  0  0  0  0  0  0  0  0  0  0
   34.8423   -4.4842   11.2551 N   0  0  0  0  0  0  0  0  0  0  0  0
   35.7583   -3.6224   11.7896 C   0  0  0  0  0  0  0  0  0  0  0  0
   36.1152   -2.6156   11.1755 O   0  0  0  0  0  0  0  0  0  0  0  0
   34.5456   -4.3085   10.3329 H   0  0  0  0  0  0  0  0  0  0  0  0
   36.9092    0.2067   12.1136 C   0  0  0  0  0  0  0  0  0  0  0  0
   37.0817    0.0541   10.7087 O   0  0  0  0  0  0  0  0  0  0  0  0
   38.0230    0.1333   10.4881 H   0  0  0  0  0  0  0  0  0  0  0  0
   39.5956   -1.2869   11.3639 O   0  0  0  0  0  0  0  0  0  0  0  0
   40.5932   -1.0809   12.3537 C   0  0  0  0  0  0  0  0  0  0  0  0
   42.6116   -0.2154   11.2072 C   0  0  0  0  0  0  0  0  0  0  0  0
   41.9847   -1.4316   11.8591 N   0  0  0  0  0  0  0  0  0  0  0  0
   41.8819   -2.5601   10.8494 C   0  0  0  0  0  0  0  0  0  0  0  0
   42.8367   -1.8751   13.0348 C   0  0  0  0  0  0  0  0  0  0  0  0
 22 23  1  0
 23 24  1  0
 23 25  1  0
 23 21  1  0
 21 20  1  0
  1 20  1  0
  1  2  1  0
  2  3  1  0
  2  4  1  0
  4  8  1  0
  8  9  1  0
  9 10  2  0
 10 11  1  0
 11 12  2  0
 11 13  1  0
 13 14  1  0
 14 15  2  0
  4  5  1  0
  5  6  1  0
  6 17  1  0
 17 18  1  0
  6  1  1  0
 14  8  1  0
  3  7  1  0
 13 16  1  0
 18 19  1  0
M  CHG 1  23   1
M  END
> <minimizedAffinity>
-5.30582

> <CNNscore>
0.5918452144

> <CNNaffinity>
3.8525073528

> <CNN_VS>
2.2800879478

> <CNNaffinity_variance>
0.1445479542

$$$$



 25 26  0  0  0  0  0  0  0  0999 V2000
   40.4887   -0.4743   13.4327 C   0  0  0  0  0  0  0  0  0  0  0  0
   39.4516   -0.9293   14.4481 C   0  0  0  0  0  0  0  0  0  0  0  0
   39.4326   -2.3512   14.5307 O   0  0  0  0  0  0  0  0  0  0  0  0
   38.1774   -0.2044   13.9470 C   0  0  0  0  0  0  0  0  0  0  0  0
   38.6401    1.0028   13.3082 O   0  0  0  0  0  0  0  0  0  0  0  0
   40.0830    0.9849   13.2667 C   0  0  0  0  0  0  0  0  0  0  0  0
   39.2834   -2.7244   13.6479 H   0  0  0  0  0  0  0  0  0  0  0  0
   37.3276   -0.9811   13.0361 N   0  0  0  0  0  0  0  0  0  0  0  0
   37.2996   -2.3641   13.0552 C   0  0  0  0  0  0  0  0  0  0  0  0
   36.5625   -3.0708   12.1953 C   0  0  0  0  0  0  0  0  0  0  0  0
   35.7638   -2.3580   11.1883 C   0  0  0  0  0  0  0  0  0  0  0  0
   35.0100   -2.9588   10.4345 O   0  0  0  0  0  0  0  0  0  0  0  0
   35.9151   -1.0031   11.1669 N   0  0  0  0  0  0  0  0  0  0  0  0
   36.6391   -0.2659   12.0614 C   0  0  0  0  0  0  0  0  0  0  0  0
   36.6373    0.9653   12.0166 O   0  0  0  0  0  0  0  0  0  0  0  0
   35.4628   -0.5124   10.4431 H   0  0  0  0  0  0  0  0  0  0  0  0
   40.5905    1.5991   11.9618 C   0  0  0  0  0  0  0  0  0  0  0  0
   40.9392    0.5595   11.0538 O   0  0  0  0  0  0  0  0  0  0  0  0
   41.6351    0.0085   11.4450 H   0  0  0  0  0  0  0  0  0  0  0  0
   41.8466   -0.5896   13.8701 O   0  0  0  0  0  0  0  0  0  0  0  0
   42.5739   -1.5846   13.1643 C   0  0  0  0  0  0  0  0  0  0  0  0
   45.0369   -1.8481   13.2030 C   0  0  0  0  0  0  0  0  0  0  0  0
   43.8859   -1.0616   12.6083 N   0  0  0  0  0  0  0  0  0  0  0  0
   44.0264    0.4061   12.9678 C   0  0  0  0  0  0  0  0  0  0  0  0
   43.8879   -1.2195   11.0983 C   0  0  0  0  0  0  0  0  0  0  0  0
 22 23  1  0
 23 24  1  0
 23 25  1  0
 23 21  1  0
 21 20  1  0
  1 20  1  0
  1  2  1  0
  2  3  1  0
  2  4  1  0
  4  8  1  0
  8  9  1  0
  9 10  2  0
 10 11  1  0
 11 12  2  0
 11 13  1  0
 13 14  1  0
 14 15  2  0
  4  5  1  0
  5  6  1  0
  6 17  1  0
 17 18  1  0
  6  1  1  0
 14  8  1  0
  3  7  1  0
 13 16  1  0
 18 19  1  0
M  CHG 1  23   1
M  END
> <minimizedAffinity>
-4.42959

> <CNNscore>
0.5634537339

> <CNNaffinity>
4.0711150169

> <CNN_VS>
2.2938849926

> <CNNaffinity_variance>
0.0887812003

$$$$



 25 26  0  0  0  0  0  0  0  0999 V2000
   34.6781   -7.3407   13.0521 C   0  0  0  0  0  0  0  0  0  0  0  0
   35.8427   -6.7045   13.7953 C   0  0  0  0  0  0  0  0  0  0  0  0
   35.3694   -5.6975   14.6847 O   0  0  0  0  0  0  0  0  0  0  0  0
   36.7694   -6.2793   12.6288 C   0  0  0  0  0  0  0  0  0  0  0  0
   36.5221   -7.2249   11.5685 O   0  0  0  0  0  0  0  0  0  0  0  0
   35.4306   -8.0862   11.9569 C   0  0  0  0  0  0  0  0  0  0  0  0
   34.8412   -5.0516   14.1901 H   0  0  0  0  0  0  0  0  0  0  0  0
   36.5891   -4.9033   12.1502 N   0  0  0  0  0  0  0  0  0  0  0  0
   37.5906   -3.9537   12.2453 C   0  0  0  0  0  0  0  0  0  0  0  0
   37.4101   -2.6904   11.8530 C   0  0  0  0  0  0  0  0  0  0  0  0
   36.1023   -2.2920   11.3136 C   0  0  0  0  0  0  0  0  0  0  0  0
   35.9161   -1.1687   10.8653 O   0  0  0  0  0  0  0  0  0  0  0  0
   35.1361   -3.2537   11.3393 N   0  0  0  0  0  0  0  0  0  0  0  0
   35.3166   -4.5577   11.7064 C   0  0  0  0  0  0  0  0  0  0  0  0
   34.4024   -5.3773   11.6042 O   0  0  0  0  0  0  0  0  0  0  0  0
   34.2282   -2.9850   11.0697 H   0  0  0  0  0  0  0  0  0  0  0  0
   34.5520   -8.4174   10.7503 C   0  0  0  0  0  0  0  0  0  0  0  0
   33.1872   -8.1815   11.0800 O   0  0  0  0  0  0  0  0  0  0  0  0
   32.9340   -8.7429   11.8294 H   0  0  0  0  0  0  0  0  0  0  0  0
   33.8827   -8.2349   13.8372 O   0  0  0  0  0  0  0  0  0  0  0  0
   34.5872   -8.7761   14.9454 C   0  0  0  0  0  0  0  0  0  0  0  0
   33.8730  -10.8145   13.7321 C   0  0  0  0  0  0  0  0  0  0  0  0
   34.7342  -10.2845   14.8609 N   0  0  0  0  0  0  0  0  0  0  0  0
   34.2930  -10.8997   16.1763 C   0  0  0  0  0  0  0  0  0  0  0  0
   36.1886  -10.6316   14.5978 C   0  0  0  0  0  0  0  0  0  0  0  0
 22 23  1  0
 23 24  1  0
 23 25  1  0
 23 21  1  0
 21 20  1  0
  1 20  1  0
  1  2  1  0
  2  3  1  0
  2  4  1  0
  4  8  1  0
  8  9  1  0
  9 10  2  0
 10 11  1  0
 11 12  2  0
 11 13  1  0
 13 14  1  0
 14 15  2  0
  4  5  1  0
  5  6  1  0
  6 17  1  0
 17 18  1  0
  6  1  1  0
 14  8  1  0
  3  7  1  0
 13 16  1  0
 18 19  1  0
M  CHG 1  23   1
M  END
> <minimizedAffinity>
-5.51259

> <CNNscore>
0.4275486767

> <CNNaffinity>
3.9198791981

> <CNN_VS>
1.6759392023

> <CNNaffinity_variance>
0.4323415756

$$$$



 25 26  0  0  0  0  0  0  0  0999 V2000
   42.8534    5.7294    7.7605 C   0  0  0  0  0  0  0  0  0  0  0  0
   43.1190    5.5526    6.2733 C   0  0  0  0  0  0  0  0  0  0  0  0
   44.2621    6.3077    5.8830 O   0  0  0  0  0  0  0  0  0  0  0  0
   41.7464    5.9254    5.6592 C   0  0  0  0  0  0  0  0  0  0  0  0
   40.7641    5.5717    6.6539 O   0  0  0  0  0  0  0  0  0  0  0  0
   41.4466    5.1521    7.8548 C   0  0  0  0  0  0  0  0  0  0  0  0
   44.1378    7.2361    6.1349 H   0  0  0  0  0  0  0  0  0  0  0  0
   41.5963    7.3293    5.2572 N   0  0  0  0  0  0  0  0  0  0  0  0
   40.9154    8.2488    6.0348 C   0  0  0  0  0  0  0  0  0  0  0  0
   40.7388    9.5139    5.6465 C   0  0  0  0  0  0  0  0  0  0  0  0
   41.2743    9.9413    4.3464 C   0  0  0  0  0  0  0  0  0  0  0  0
   41.2094   11.1089    3.9860 O   0  0  0  0  0  0  0  0  0  0  0  0
   41.8478    8.9597    3.5934 N   0  0  0  0  0  0  0  0  0  0  0  0
   42.0645    7.6708    3.9924 C   0  0  0  0  0  0  0  0  0  0  0  0
   42.6789    6.8799    3.2747 O   0  0  0  0  0  0  0  0  0  0  0  0
   42.1307    9.2009    2.6818 H   0  0  0  0  0  0  0  0  0  0  0  0
   40.6905    5.6263    9.0961 C   0  0  0  0  0  0  0  0  0  0  0  0
   40.8262    7.0379    9.2222 O   0  0  0  0  0  0  0  0  0  0  0  0
   41.7651    7.2661    9.3075 H   0  0  0  0  0  0  0  0  0  0  0  0
   43.7608    5.0302    8.6186 O   0  0  0  0  0  0  0  0  0  0  0  0
   44.6287    5.8983    9.3331 C   0  0  0  0  0  0  0  0  0  0  0  0
   43.6141    4.5643   11.1575 C   0  0  0  0  0  0  0  0  0  0  0  0
   44.7036    5.5591   10.8107 N   0  0  0  0  0  0  0  0  0  0  0  0
   44.5167    6.8289   11.6207 C   0  0  0  0  0  0  0  0  0  0  0  0
   46.0619    4.9539   11.1169 C   0  0  0  0  0  0  0  0  0  0  0  0
 22 23  1  0
 23 24  1  0
 23 25  1  0
 23 21  1  0
 21 20  1  0
  1 20  1  0
  1  2  1  0
  2  3  1  0
  2  4  1  0
  4  8  1  0
  8  9  1  0
  9 10  2  0
 10 11  1  0
 11 12  2  0
 11 13  1  0
 13 14  1  0
 14 15  2  0
  4  5  1  0
  5  6  1  0
  6 17  1  0
 17 18  1  0
  6  1  1  0
 14  8  1  0
  3  7  1  0
 13 16  1  0
 18 19  1  0
M  CHG 1  23   1
M  END
> <minimizedAffinity>
-5.66747

> <CNNscore>
0.4199848473

> <CNNaffinity>
3.4965603352

> <CNN_VS>
1.4685024023

> <CNNaffinity_variance>
0.6382221580

$$$$
