


 26 27  0  0  0  0  0  0  0  0999 V2000
    6.6137    7.3629    6.1205 N   0  0  0  0  0  0  0  0  0  0  0  0
    5.5999    6.7565    5.6348 C   0  0  0  0  0  0  0  0  0  0  0  0
    4.4341    6.6015    6.3399 O   0  0  0  0  0  0  0  0  0  0  0  0
    3.5067    5.8802    5.5100 C   0  0  0  0  0  0  0  0  0  0  0  0
    4.3886    5.2025    4.4700 C   0  0  0  0  0  0  0  0  0  0  0  0
    4.8895    3.8332    4.9720 C   0  0  0  0  0  0  0  0  0  0  0  0
    6.1390    3.3610    4.1786 C   0  0  0  0  0  0  0  0  0  0  0  0
    7.2238    4.4674    4.0311 C   0  0  0  0  0  0  0  0  0  0  0  0
    6.5770    5.7895    3.5445 C   0  0  0  0  0  0  0  0  0  0  0  0
    5.4767    6.1506    4.4116 N   0  0  0  0  0  0  0  0  0  0  0  0
    3.7693    2.9344    4.8081 O   0  0  0  0  0  0  0  0  0  0  0  0
    3.1665    2.9799    3.5229 C   0  0  0  0  0  0  0  0  0  0  0  0
    6.6852    2.2320    4.9090 O   0  0  0  0  0  0  0  0  0  0  0  0
    6.7349    1.0242    4.1627 C   0  0  0  0  0  0  0  0  0  0  0  0
    8.1770    4.0045    3.0406 O   0  0  0  0  0  0  0  0  0  0  0  0
    7.5608    3.6724    1.7989 C   0  0  0  0  0  0  0  0  0  0  0  0
    7.5566    6.8216    3.4471 O   0  0  0  0  0  0  0  0  0  0  0  0
    7.3526    7.6818    2.3374 C   0  0  0  0  0  0  0  0  0  0  0  0
    6.5057    7.9303    7.4622 C   0  0  0  0  0  0  0  0  0  0  0  0
    7.6509    7.4330    8.3452 C   0  0  0  0  0  0  0  0  0  0  0  0
    8.2478    8.5463    9.2125 C   0  0  0  0  0  0  0  0  0  0  0  0
    9.0462    9.5412    8.3664 C   0  0  0  0  0  0  0  0  0  0  0  0
   10.1421    8.8840    7.5205 C   0  0  0  0  0  0  0  0  0  0  0  0
   11.4029    9.7413    7.3914 C   0  0  0  0  0  0  0  0  0  0  0  0
   12.1186   11.6116    5.8102 C   0  0  0  0  0  0  0  0  0  0  0  0
   11.7101   10.1540    5.9513 C   0  0  0  0  0  0  0  0  0  0  0  0
 25 26  1  0
 26 24  1  0
 24 23  1  0
 23 22  1  0
 22 21  1  0
 21 20  1  0
 20 19  1  0
 19  1  1  0
  1  2  2  0
  2  3  1  0
  3  4  1  0
  5  4  1  0
  5  6  1  0
  6 11  1  0
 11 12  1  0
  6  7  1  0
  7 13  1  0
 13 14  1  0
  7  8  1  0
  8 15  1  0
 15 16  1  0
  8  9  1  0
  9 17  1  0
 17 18  1  0
  9 10  1  0
 10  2  1  0
 10  5  1  0
M  END
> <minimizedAffinity>
-5.55871

> <CNNscore>
0.3298501372

> <CNNaffinity>
4.8118386269

> <CNN_VS>
1.5871856213

> <CNNaffinity_variance>
0.4042083025

$$$$



 26 27  0  0  0  0  0  0  0  0999 V2000
    7.3556    6.6268    6.0773 N   0  0  0  0  0  0  0  0  0  0  0  0
    6.4263    6.4164    5.2267 C   0  0  0  0  0  0  0  0  0  0  0  0
    5.3115    7.2111    5.1508 O   0  0  0  0  0  0  0  0  0  0  0  0
    4.4748    6.7016    4.0975 C   0  0  0  0  0  0  0  0  0  0  0  0
    4.9521    5.2686    3.9046 C   0  0  0  0  0  0  0  0  0  0  0  0
    4.2154    4.3036    4.8555 C   0  0  0  0  0  0  0  0  0  0  0  0
    4.9974    2.9725    5.0298 C   0  0  0  0  0  0  0  0  0  0  0  0
    6.5115    3.1864    5.3202 C   0  0  0  0  0  0  0  0  0  0  0  0
    7.1136    4.1935    4.3071 C   0  0  0  0  0  0  0  0  0  0  0  0
    6.3343    5.4123    4.2983 N   0  0  0  0  0  0  0  0  0  0  0  0
    2.9161    4.0968    4.2567 O   0  0  0  0  0  0  0  0  0  0  0  0
    2.8585    3.0081    3.3463 C   0  0  0  0  0  0  0  0  0  0  0  0
    4.3775    2.2763    6.1423 O   0  0  0  0  0  0  0  0  0  0  0  0
    4.1065    3.1005    7.2672 C   0  0  0  0  0  0  0  0  0  0  0  0
    7.1639    1.9000    5.1661 O   0  0  0  0  0  0  0  0  0  0  0  0
    6.8742    1.2842    3.9136 C   0  0  0  0  0  0  0  0  0  0  0  0
    8.4914    4.4286    4.5915 O   0  0  0  0  0  0  0  0  0  0  0  0
    9.2371    4.8241    3.4511 C   0  0  0  0  0  0  0  0  0  0  0  0
    7.2283    7.7718    6.9752 C   0  0  0  0  0  0  0  0  0  0  0  0
    8.3182    8.8035    6.6817 C   0  0  0  0  0  0  0  0  0  0  0  0
    9.6505    8.4553    7.3537 C   0  0  0  0  0  0  0  0  0  0  0  0
   10.3908    9.7167    7.8051 C   0  0  0  0  0  0  0  0  0  0  0  0
   11.6896    9.9735    7.0332 C   0  0  0  0  0  0  0  0  0  0  0  0
   11.6404   11.2348    6.1685 C   0  0  0  0  0  0  0  0  0  0  0  0
   10.2028   13.2857    5.6807 C   0  0  0  0  0  0  0  0  0  0  0  0
   10.7251   12.3217    6.7339 C   0  0  0  0  0  0  0  0  0  0  0  0
 25 26  1  0
 26 24  1  0
 24 23  1  0
 23 22  1  0
 22 21  1  0
 21 20  1  0
 20 19  1  0
 19  1  1  0
  1  2  2  0
  2  3  1  0
  3  4  1  0
  5  4  1  0
  5  6  1  0
  6 11  1  0
 11 12  1  0
  6  7  1  0
  7 13  1  0
 13 14  1  0
  7  8  1  0
  8 15  1  0
 15 16  1  0
  8  9  1  0
  9 17  1  0
 17 18  1  0
  9 10  1  0
 10  2  1  0
 10  5  1  0
M  END
> <minimizedAffinity>
-5.49975

> <CNNscore>
0.2754116952

> <CNNaffinity>
4.8028125763

> <CNN_VS>
1.3227508068

> <CNNaffinity_variance>
0.5700185299

$$$$



 26 27  0  0  0  0  0  0  0  0999 V2000
    7.5349    6.2292    6.0854 N   0  0  0  0  0  0  0  0  0  0  0  0
    6.5233    6.4835    6.8224 C   0  0  0  0  0  0  0  0  0  0  0  0
    6.6499    6.8315    8.1427 O   0  0  0  0  0  0  0  0  0  0  0  0
    5.3302    7.0465    8.6730 C   0  0  0  0  0  0  0  0  0  0  0  0
    4.4152    6.3175    7.6984 C   0  0  0  0  0  0  0  0  0  0  0  0
    4.2509    4.8354    8.0913 C   0  0  0  0  0  0  0  0  0  0  0  0
    3.7513    3.9831    6.8924 C   0  0  0  0  0  0  0  0  0  0  0  0
    4.5416    4.2528    5.5789 C   0  0  0  0  0  0  0  0  0  0  0  0
    4.6491    5.7779    5.3227 C   0  0  0  0  0  0  0  0  0  0  0  0
    5.1947    6.4384    6.4884 N   0  0  0  0  0  0  0  0  0  0  0  0
    3.3103    4.8344    9.1890 O   0  0  0  0  0  0  0  0  0  0  0  0
    2.2291    5.7421    9.0332 C   0  0  0  0  0  0  0  0  0  0  0  0
    3.9084    2.5944    7.2837 O   0  0  0  0  0  0  0  0  0  0  0  0
    2.7382    1.8062    7.1172 C   0  0  0  0  0  0  0  0  0  0  0  0
    3.8000    3.6338    4.4969 O   0  0  0  0  0  0  0  0  0  0  0  0
    4.5714    2.6705    3.7835 C   0  0  0  0  0  0  0  0  0  0  0  0
    5.4087    6.0366    4.1434 O   0  0  0  0  0  0  0  0  0  0  0  0
    4.9367    7.1555    3.4097 C   0  0  0  0  0  0  0  0  0  0  0  0
    8.8675    6.3434    6.6726 C   0  0  0  0  0  0  0  0  0  0  0  0
    9.8486    6.9323    5.6583 C   0  0  0  0  0  0  0  0  0  0  0  0
   10.4608    5.8635    4.7468 C   0  0  0  0  0  0  0  0  0  0  0  0
   10.3108    6.2407    3.2709 C   0  0  0  0  0  0  0  0  0  0  0  0
   11.5838    6.0134    2.4486 C   0  0  0  0  0  0  0  0  0  0  0  0
   11.8894    4.5345    2.2025 C   0  0  0  0  0  0  0  0  0  0  0  0
   13.8109    3.0428    1.4321 C   0  0  0  0  0  0  0  0  0  0  0  0
   13.0060    4.3081    1.1823 C   0  0  0  0  0  0  0  0  0  0  0  0
 25 26  1  0
 26 24  1  0
 24 23  1  0
 23 22  1  0
 22 21  1  0
 21 20  1  0
 20 19  1  0
 19  1  1  0
  1  2  2  0
  2  3  1  0
  3  4  1  0
  5  4  1  0
  5  6  1  0
  6 11  1  0
 11 12  1  0
  6  7  1  0
  7 13  1  0
 13 14  1  0
  7  8  1  0
  8 15  1  0
 15 16  1  0
  8  9  1  0
  9 17  1  0
 17 18  1  0
  9 10  1  0
 10  2  1  0
 10  5  1  0
M  END
> <minimizedAffinity>
-5.38697

> <CNNscore>
0.2696535587

> <CNNaffinity>
4.7579917908

> <CNN_VS>
1.2830094099

> <CNNaffinity_variance>
0.5161944032

$$$$



 26 27  0  0  0  0  0  0  0  0999 V2000
    7.0929    6.3967    7.2297 N   0  0  0  0  0  0  0  0  0  0  0  0
    7.4321    5.4458    6.4473 C   0  0  0  0  0  0  0  0  0  0  0  0
    8.3588    5.6147    5.4509 O   0  0  0  0  0  0  0  0  0  0  0  0
    8.5047    4.3594    4.7638 C   0  0  0  0  0  0  0  0  0  0  0  0
    7.2373    3.5931    5.1175 C   0  0  0  0  0  0  0  0  0  0  0  0
    6.0976    3.9162    4.1302 C   0  0  0  0  0  0  0  0  0  0  0  0
    4.7100    3.5548    4.7282 C   0  0  0  0  0  0  0  0  0  0  0  0
    4.5161    4.0763    6.1818 C   0  0  0  0  0  0  0  0  0  0  0  0
    5.7428    3.7024    7.0526 C   0  0  0  0  0  0  0  0  0  0  0  0
    6.9590    4.1597    6.4166 N   0  0  0  0  0  0  0  0  0  0  0  0
    6.3943    3.1487    2.9417 O   0  0  0  0  0  0  0  0  0  0  0  0
    6.4981    1.7492    3.1603 C   0  0  0  0  0  0  0  0  0  0  0  0
    3.7188    4.1554    3.8546 O   0  0  0  0  0  0  0  0  0  0  0  0
    3.7523    5.5753    3.8248 C   0  0  0  0  0  0  0  0  0  0  0  0
    3.3320    3.4302    6.7152 O   0  0  0  0  0  0  0  0  0  0  0  0
    3.3641    2.0133    6.5629 C   0  0  0  0  0  0  0  0  0  0  0  0
    5.5936    4.2132    8.3760 O   0  0  0  0  0  0  0  0  0  0  0  0
    4.4384    5.0214    8.5353 C   0  0  0  0  0  0  0  0  0  0  0  0
    7.7413    7.6952    7.0655 C   0  0  0  0  0  0  0  0  0  0  0  0
    8.7636    7.9255    8.1792 C   0  0  0  0  0  0  0  0  0  0  0  0
    9.5827    9.2030    7.9674 C   0  0  0  0  0  0  0  0  0  0  0  0
   10.8989    8.9050    7.2449 C   0  0  0  0  0  0  0  0  0  0  0  0
   11.7940   10.1366    7.0706 C   0  0  0  0  0  0  0  0  0  0  0  0
   12.1039   10.4573    5.6069 C   0  0  0  0  0  0  0  0  0  0  0  0
   14.1962   10.1564    4.1778 C   0  0  0  0  0  0  0  0  0  0  0  0
   13.5613   10.8552    5.3694 C   0  0  0  0  0  0  0  0  0  0  0  0
 25 26  1  0
 26 24  1  0
 24 23  1  0
 23 22  1  0
 22 21  1  0
 21 20  1  0
 20 19  1  0
 19  1  1  0
  1  2  2  0
  2  3  1  0
  3  4  1  0
  5  4  1  0
  5  6  1  0
  6 11  1  0
 11 12  1  0
  6  7  1  0
  7 13  1  0
 13 14  1  0
  7  8  1  0
  8 15  1  0
 15 16  1  0
  8  9  1  0
  9 17  1  0
 17 18  1  0
  9 10  1  0
 10  2  1  0
 10  5  1  0
M  END
> <minimizedAffinity>
-5.98953

> <CNNscore>
0.2597737610

> <CNNaffinity>
4.9992146492

> <CNN_VS>
1.2986648083

> <CNNaffinity_variance>
0.1837373823

$$$$



 26 27  0  0  0  0  0  0  0  0999 V2000
    7.3566    7.0254    7.3025 N   0  0  0  0  0  0  0  0  0  0  0  0
    7.2078    5.7594    7.2226 C   0  0  0  0  0  0  0  0  0  0  0  0
    7.8633    5.0042    6.2845 O   0  0  0  0  0  0  0  0  0  0  0  0
    7.4740    3.6318    6.4693 C   0  0  0  0  0  0  0  0  0  0  0  0
    6.1739    3.7176    7.2572 C   0  0  0  0  0  0  0  0  0  0  0  0
    4.9605    3.8574    6.3158 C   0  0  0  0  0  0  0  0  0  0  0  0
    3.7240    4.4256    7.0654 C   0  0  0  0  0  0  0  0  0  0  0  0
    4.0557    5.6738    7.9339 C   0  0  0  0  0  0  0  0  0  0  0  0
    5.3061    5.4003    8.8083 C   0  0  0  0  0  0  0  0  0  0  0  0
    6.4013    4.9484    7.9781 N   0  0  0  0  0  0  0  0  0  0  0  0
    4.7217    2.5275    5.8022 O   0  0  0  0  0  0  0  0  0  0  0  0
    4.7575    2.4328    4.3855 C   0  0  0  0  0  0  0  0  0  0  0  0
    2.7545    4.7806    6.0453 O   0  0  0  0  0  0  0  0  0  0  0  0
    3.1508    5.8646    5.2170 C   0  0  0  0  0  0  0  0  0  0  0  0
    2.9115    5.9158    8.7921 O   0  0  0  0  0  0  0  0  0  0  0  0
    2.7579    4.9165    9.7969 C   0  0  0  0  0  0  0  0  0  0  0  0
    5.6435    6.5536    9.5767 O   0  0  0  0  0  0  0  0  0  0  0  0
    6.1687    6.2377   10.8563 C   0  0  0  0  0  0  0  0  0  0  0  0
    8.2801    7.6753    6.3760 C   0  0  0  0  0  0  0  0  0  0  0  0
    9.3152    8.4981    7.1440 C   0  0  0  0  0  0  0  0  0  0  0  0
   10.2338    9.2985    6.2147 C   0  0  0  0  0  0  0  0  0  0  0  0
   11.5429    9.6715    6.9148 C   0  0  0  0  0  0  0  0  0  0  0  0
   12.3245   10.7797    6.2011 C   0  0  0  0  0  0  0  0  0  0  0  0
   12.2309   10.7005    4.6759 C   0  0  0  0  0  0  0  0  0  0  0  0
   12.6902    8.7394    3.1095 C   0  0  0  0  0  0  0  0  0  0  0  0
   13.2783    9.7774    4.0518 C   0  0  0  0  0  0  0  0  0  0  0  0
 25 26  1  0
 26 24  1  0
 24 23  1  0
 23 22  1  0
 22 21  1  0
 21 20  1  0
 20 19  1  0
 19  1  1  0
  1  2  2  0
  2  3  1  0
  3  4  1  0
  5  4  1  0
  5  6  1  0
  6 11  1  0
 11 12  1  0
  6  7  1  0
  7 13  1  0
 13 14  1  0
  7  8  1  0
  8 15  1  0
 15 16  1  0
  8  9  1  0
  9 17  1  0
 17 18  1  0
  9 10  1  0
 10  2  1  0
 10  5  1  0
M  END
> <minimizedAffinity>
-5.54323

> <CNNscore>
0.2484785616

> <CNNaffinity>
4.7677502632

> <CNN_VS>
1.1846836805

> <CNNaffinity_variance>
0.5245557427

$$$$



 26 27  0  0  0  0  0  0  0  0999 V2000
    6.5332    6.9301    3.4617 N   0  0  0  0  0  0  0  0  0  0  0  0
    6.9991    5.7576    3.2630 C   0  0  0  0  0  0  0  0  0  0  0  0
    7.2603    5.2785    2.0051 O   0  0  0  0  0  0  0  0  0  0  0  0
    7.7697    3.9398    2.1375 C   0  0  0  0  0  0  0  0  0  0  0  0
    7.3176    3.5062    3.5254 C   0  0  0  0  0  0  0  0  0  0  0  0
    5.9066    2.8857    3.4829 C   0  0  0  0  0  0  0  0  0  0  0  0
    5.2422    2.8912    4.8872 C   0  0  0  0  0  0  0  0  0  0  0  0
    5.3580    4.2632    5.6130 C   0  0  0  0  0  0  0  0  0  0  0  0
    6.8197    4.7763    5.5574 C   0  0  0  0  0  0  0  0  0  0  0  0
    7.2881    4.7890    4.1888 N   0  0  0  0  0  0  0  0  0  0  0  0
    6.0951    1.5453    2.9755 O   0  0  0  0  0  0  0  0  0  0  0  0
    6.9166    0.7219    3.7906 C   0  0  0  0  0  0  0  0  0  0  0  0
    3.8441    2.5616    4.6800 O   0  0  0  0  0  0  0  0  0  0  0  0
    3.1813    3.3975    3.7417 C   0  0  0  0  0  0  0  0  0  0  0  0
    4.9743    4.0510    6.9957 O   0  0  0  0  0  0  0  0  0  0  0  0
    3.7637    4.7209    7.3384 C   0  0  0  0  0  0  0  0  0  0  0  0
    6.9275    6.0536    6.1830 O   0  0  0  0  0  0  0  0  0  0  0  0
    8.1365    6.2204    6.9067 C   0  0  0  0  0  0  0  0  0  0  0  0
    6.3015    7.7901    2.3039 C   0  0  0  0  0  0  0  0  0  0  0  0
    7.4107    8.8361    2.1860 C   0  0  0  0  0  0  0  0  0  0  0  0
    8.3833    8.5320    1.0417 C   0  0  0  0  0  0  0  0  0  0  0  0
    7.6380    8.0628   -0.2102 C   0  0  0  0  0  0  0  0  0  0  0  0
    7.0868    9.2119   -1.0613 C   0  0  0  0  0  0  0  0  0  0  0  0
    5.8802    8.8101   -1.9121 C   0  0  0  0  0  0  0  0  0  0  0  0
    3.3306    8.7080   -1.9191 C   0  0  0  0  0  0  0  0  0  0  0  0
    4.5710    9.4493   -1.4468 C   0  0  0  0  0  0  0  0  0  0  0  0
 25 26  1  0
 26 24  1  0
 24 23  1  0
 23 22  1  0
 22 21  1  0
 21 20  1  0
 20 19  1  0
 19  1  1  0
  1  2  2  0
  2  3  1  0
  3  4  1  0
  5  4  1  0
  5  6  1  0
  6 11  1  0
 11 12  1  0
  6  7  1  0
  7 13  1  0
 13 14  1  0
  7  8  1  0
  8 15  1  0
 15 16  1  0
  8  9  1  0
  9 17  1  0
 17 18  1  0
  9 10  1  0
 10  2  1  0
 10  5  1  0
M  END
> <minimizedAffinity>
-6.05316

> <CNNscore>
0.2389716953

> <CNNaffinity>
3.9640743732

> <CNN_VS>
0.9473015666

> <CNNaffinity_variance>
1.6088336706

$$$$



 26 27  0  0  0  0  0  0  0  0999 V2000
    6.4830    6.8479    4.5123 N   0  0  0  0  0  0  0  0  0  0  0  0
    6.8861    5.7276    4.0499 C   0  0  0  0  0  0  0  0  0  0  0  0
    6.8527    5.4352    2.7107 O   0  0  0  0  0  0  0  0  0  0  0  0
    7.3725    4.1056    2.5342 C   0  0  0  0  0  0  0  0  0  0  0  0
    7.2452    3.4712    3.9126 C   0  0  0  0  0  0  0  0  0  0  0  0
    5.8584    2.8239    4.1017 C   0  0  0  0  0  0  0  0  0  0  0  0
    5.5302    2.6161    5.6059 C   0  0  0  0  0  0  0  0  0  0  0  0
    5.8142    3.8767    6.4736 C   0  0  0  0  0  0  0  0  0  0  0  0
    7.2276    4.4326    6.1632 C   0  0  0  0  0  0  0  0  0  0  0  0
    7.3731    4.6481    4.7401 N   0  0  0  0  0  0  0  0  0  0  0  0
    5.9206    1.5727    3.3805 O   0  0  0  0  0  0  0  0  0  0  0  0
    6.9465    0.6946    3.8205 C   0  0  0  0  0  0  0  0  0  0  0  0
    4.1199    2.2801    5.6746 O   0  0  0  0  0  0  0  0  0  0  0  0
    3.2782    3.1428    4.9226 C   0  0  0  0  0  0  0  0  0  0  0  0
    5.7534    3.4640    7.8629 O   0  0  0  0  0  0  0  0  0  0  0  0
    4.4420    3.5728    8.4108 C   0  0  0  0  0  0  0  0  0  0  0  0
    7.4806    5.6132    6.9227 O   0  0  0  0  0  0  0  0  0  0  0  0
    6.3130    6.1522    7.5220 C   0  0  0  0  0  0  0  0  0  0  0  0
    5.9987    7.8536    3.5702 C   0  0  0  0  0  0  0  0  0  0  0  0
    6.6503    9.2076    3.8536 C   0  0  0  0  0  0  0  0  0  0  0  0
    8.1798    9.1242    3.8954 C   0  0  0  0  0  0  0  0  0  0  0  0
    8.8085    9.8647    2.7125 C   0  0  0  0  0  0  0  0  0  0  0  0
    9.6424    8.9610    1.7979 C   0  0  0  0  0  0  0  0  0  0  0  0
    9.5375    7.4768    2.1547 C   0  0  0  0  0  0  0  0  0  0  0  0
   10.7124    5.4905    3.2433 C   0  0  0  0  0  0  0  0  0  0  0  0
   10.8606    6.8721    2.6264 C   0  0  0  0  0  0  0  0  0  0  0  0
 25 26  1  0
 26 24  1  0
 24 23  1  0
 23 22  1  0
 22 21  1  0
 21 20  1  0
 20 19  1  0
 19  1  1  0
  1  2  2  0
  2  3  1  0
  3  4  1  0
  5  4  1  0
  5  6  1  0
  6 11  1  0
 11 12  1  0
  6  7  1  0
  7 13  1  0
 13 14  1  0
  7  8  1  0
  8 15  1  0
 15 16  1  0
  8  9  1  0
  9 17  1  0
 17 18  1  0
  9 10  1  0
 10  2  1  0
 10  5  1  0
M  END
> <minimizedAffinity>
-5.32387

> <CNNscore>
0.2271994948

> <CNNaffinity>
4.2487931252

> <CNN_VS>
0.9653236270

> <CNNaffinity_variance>
1.1544489861

$$$$



 26 27  0  0  0  0  0  0  0  0999 V2000
    7.0948    6.1192    6.8739 N   0  0  0  0  0  0  0  0  0  0  0  0
    6.1910    6.0606    5.9733 C   0  0  0  0  0  0  0  0  0  0  0  0
    5.0534    6.8241    6.0289 O   0  0  0  0  0  0  0  0  0  0  0  0
    4.2559    6.5163    4.8719 C   0  0  0  0  0  0  0  0  0  0  0  0
    4.7825    5.1654    4.4069 C   0  0  0  0  0  0  0  0  0  0  0  0
    4.0566    4.0085    5.1230 C   0  0  0  0  0  0  0  0  0  0  0  0
    4.8766    2.6911    5.0464 C   0  0  0  0  0  0  0  0  0  0  0  0
    6.3766    2.8821    5.4152 C   0  0  0  0  0  0  0  0  0  0  0  0
    6.9679    4.0892    4.6431 C   0  0  0  0  0  0  0  0  0  0  0  0
    6.1507    5.2633    4.8591 N   0  0  0  0  0  0  0  0  0  0  0  0
    2.7776    3.8926    4.4595 O   0  0  0  0  0  0  0  0  0  0  0  0
    2.7593    2.9663    3.3829 C   0  0  0  0  0  0  0  0  0  0  0  0
    4.2555    1.7676    5.9781 O   0  0  0  0  0  0  0  0  0  0  0  0
    3.6671    2.3908    7.1111 C   0  0  0  0  0  0  0  0  0  0  0  0
    7.0726    1.6715    5.0226 O   0  0  0  0  0  0  0  0  0  0  0  0
    6.8322    1.3166    3.6632 C   0  0  0  0  0  0  0  0  0  0  0  0
    8.3311    4.2987    5.0067 O   0  0  0  0  0  0  0  0  0  0  0  0
    9.0891    4.9330    3.9887 C   0  0  0  0  0  0  0  0  0  0  0  0
    6.9120    7.0548    7.9805 C   0  0  0  0  0  0  0  0  0  0  0  0
    7.0067    6.3223    9.3195 C   0  0  0  0  0  0  0  0  0  0  0  0
    5.7242    5.5560    9.6600 C   0  0  0  0  0  0  0  0  0  0  0  0
    5.2840    5.8235   11.1014 C   0  0  0  0  0  0  0  0  0  0  0  0
    3.9546    6.5789   11.2052 C   0  0  0  0  0  0  0  0  0  0  0  0
    3.2694    6.7867    9.8530 C   0  0  0  0  0  0  0  0  0  0  0  0
    0.8418    7.1985   10.5223 C   0  0  0  0  0  0  0  0  0  0  0  0
    1.8274    6.2783    9.8200 C   0  0  0  0  0  0  0  0  0  0  0  0
 25 26  1  0
 26 24  1  0
 24 23  1  0
 23 22  1  0
 22 21  1  0
 21 20  1  0
 20 19  1  0
 19  1  1  0
  1  2  2  0
  2  3  1  0
  3  4  1  0
  5  4  1  0
  5  6  1  0
  6 11  1  0
 11 12  1  0
  6  7  1  0
  7 13  1  0
 13 14  1  0
  7  8  1  0
  8 15  1  0
 15 16  1  0
  8  9  1  0
  9 17  1  0
 17 18  1  0
  9 10  1  0
 10  2  1  0
 10  5  1  0
M  END
> <minimizedAffinity>
-6.65333

> <CNNscore>
0.2182699889

> <CNNaffinity>
4.4616084099

> <CNN_VS>
0.9738352299

> <CNNaffinity_variance>
1.5419570208

$$$$



 26 27  0  0  0  0  0  0  0  0999 V2000
    4.4622    4.7853    7.7358 N   0  0  0  0  0  0  0  0  0  0  0  0
    5.7256    4.6836    7.5781 C   0  0  0  0  0  0  0  0  0  0  0  0
    6.6068    5.5645    8.1506 O   0  0  0  0  0  0  0  0  0  0  0  0
    7.9374    5.1673    7.7754 C   0  0  0  0  0  0  0  0  0  0  0  0
    7.7310    4.2921    6.5465 C   0  0  0  0  0  0  0  0  0  0  0  0
    7.7007    5.1393    5.2584 C   0  0  0  0  0  0  0  0  0  0  0  0
    7.0222    4.3714    4.0907 C   0  0  0  0  0  0  0  0  0  0  0  0
    5.6746    3.7070    4.4971 C   0  0  0  0  0  0  0  0  0  0  0  0
    5.8467    2.9114    5.8163 C   0  0  0  0  0  0  0  0  0  0  0  0
    6.4188    3.7626    6.8366 N   0  0  0  0  0  0  0  0  0  0  0  0
    9.0836    5.4500    4.9743 O   0  0  0  0  0  0  0  0  0  0  0  0
    9.3604    6.8389    4.8662 C   0  0  0  0  0  0  0  0  0  0  0  0
    6.7922    5.3452    3.0393 O   0  0  0  0  0  0  0  0  0  0  0  0
    7.6547    5.2075    1.9188 C   0  0  0  0  0  0  0  0  0  0  0  0
    5.3061    2.7963    3.4299 O   0  0  0  0  0  0  0  0  0  0  0  0
    6.3493    1.8810    3.1048 C   0  0  0  0  0  0  0  0  0  0  0  0
    4.6065    2.3338    6.2197 O   0  0  0  0  0  0  0  0  0  0  0  0
    3.5071    2.7683    5.4351 C   0  0  0  0  0  0  0  0  0  0  0  0
    3.9528    5.8637    8.5792 C   0  0  0  0  0  0  0  0  0  0  0  0
    2.4396    5.7329    8.7562 C   0  0  0  0  0  0  0  0  0  0  0  0
    1.9945    5.9885   10.2000 C   0  0  0  0  0  0  0  0  0  0  0  0
    0.9865    7.1381   10.2747 C   0  0  0  0  0  0  0  0  0  0  0  0
    0.3038    7.2658   11.6407 C   0  0  0  0  0  0  0  0  0  0  0  0
    0.6510    6.1252   12.5998 C   0  0  0  0  0  0  0  0  0  0  0  0
    2.0879    5.4116   14.5839 C   0  0  0  0  0  0  0  0  0  0  0  0
    1.5158    6.5686   13.7806 C   0  0  0  0  0  0  0  0  0  0  0  0
 25 26  1  0
 26 24  1  0
 24 23  1  0
 23 22  1  0
 22 21  1  0
 21 20  1  0
 20 19  1  0
 19  1  1  0
  1  2  2  0
  2  3  1  0
  3  4  1  0
  5  4  1  0
  5  6  1  0
  6 11  1  0
 11 12  1  0
  6  7  1  0
  7 13  1  0
 13 14  1  0
  7  8  1  0
  8 15  1  0
 15 16  1  0
  8  9  1  0
  9 17  1  0
 17 18  1  0
  9 10  1  0
 10  2  1  0
 10  5  1  0
M  END
> <minimizedAffinity>
-7.34285

> <CNNscore>
0.2175731808

> <CNNaffinity>
4.4299316406

> <CNN_VS>
0.9638343453

> <CNNaffinity_variance>
1.4740500450

$$$$
