


 22 23  0  0  0  0  0  0  0  0999 V2000
    1.7002   44.0294    2.5412 C   0  0  0  0  0  0  0  0  0  0  0  0
    3.1620   44.4624    2.6033 C   0  0  0  0  0  0  0  0  0  0  0  0
    3.7506   43.5023    3.6138 C   0  0  0  0  0  0  0  0  0  0  0  0
    3.4944   43.9884    4.9308 O   0  0  0  0  0  0  0  0  0  0  0  0
    3.9696   43.1067    5.9509 C   0  0  0  0  0  0  0  0  0  0  0  0
    3.7608   41.6265    5.6263 C   0  0  0  0  0  0  0  0  0  0  0  0
    2.6485   41.4381    4.6078 C   0  0  0  0  0  0  0  0  0  0  0  0
    2.9712   42.2177    3.3368 C   0  0  0  0  0  0  0  0  0  0  0  0
    1.7485   42.5820    2.6704 O   0  0  0  0  0  0  0  0  0  0  0  0
    0.8641   44.5997    3.7089 C   0  0  0  0  0  0  0  0  0  0  0  0
    0.5570   44.0291    4.7446 O   0  0  0  0  0  0  0  0  0  0  0  0
    0.4192   45.8540    3.4884 O   0  0  0  0  0  0  0  0  0  0  0  0
    0.6491   46.3003    2.6972 H   0  0  0  0  0  0  0  0  0  0  0  0
    0.9697   44.2993    1.2094 C   0  0  0  0  0  0  0  0  0  0  0  0
   -0.3860   42.2345    1.1587 N   0  0  0  0  0  0  0  0  0  0  0  0
   -0.4412   43.7156    1.0422 C   0  0  0  0  0  0  0  0  0  0  0  0
    0.0094   41.9791    2.0636 H   0  0  0  0  0  0  0  0  0  0  0  0
    0.1987   41.8564    0.4133 H   0  0  0  0  0  0  0  0  0  0  0  0
   -1.0388   44.0687   -0.3256 C   0  0  0  0  0  0  0  0  0  0  0  0
   -1.0949   45.1762   -0.8343 O   0  0  0  0  0  0  0  0  0  0  0  0
   -1.4941   42.9880   -1.0021 O   0  0  0  0  0  0  0  0  0  0  0  0
   -1.4507   42.1378   -0.6107 H   0  0  0  0  0  0  0  0  0  0  0  0
 16 15  1  0
 16 14  1  0
  1 14  1  0
  1 10  1  0
 10 11  2  0
 10 12  1  0
  1  2  1  0
  3  2  1  0
  3  4  1  0
  4  5  1  0
  5  6  1  0
  6  7  1  0
  8  7  1  0
  8  9  1  0
 16 19  1  0
 19 20  2  0
 19 21  1  0
  9  1  1  0
  8  3  1  0
 15 17  1  0
 15 18  1  0
 12 13  1  0
 21 22  1  0
M  END
> <minimizedAffinity>
-8.72337

> <CNNscore>
0.9867749214

> <CNNaffinity>
6.8749833107

> <CNN_VS>
6.7840609550

> <CNNaffinity_variance>
0.7438789010

$$$$



 22 23  0  0  0  0  0  0  0  0999 V2000
    1.9264   44.7316    3.5242 C   0  0  0  0  0  0  0  0  0  0  0  0
    3.3964   44.4701    3.2094 C   0  0  0  0  0  0  0  0  0  0  0  0
    3.5588   43.0094    3.5689 C   0  0  0  0  0  0  0  0  0  0  0  0
    3.7827   42.8918    4.9734 O   0  0  0  0  0  0  0  0  0  0  0  0
    3.8900   41.5338    5.4073 C   0  0  0  0  0  0  0  0  0  0  0  0
    2.9140   40.5882    4.7050 C   0  0  0  0  0  0  0  0  0  0  0  0
    1.7234   41.3459    4.1409 C   0  0  0  0  0  0  0  0  0  0  0  0
    2.2046   42.4228    3.1735 C   0  0  0  0  0  0  0  0  0  0  0  0
    1.2525   43.5019    3.1399 O   0  0  0  0  0  0  0  0  0  0  0  0
    1.6786   44.9786    5.0294 C   0  0  0  0  0  0  0  0  0  0  0  0
    0.9644   44.3272    5.7764 O   0  0  0  0  0  0  0  0  0  0  0  0
    2.3151   46.0680    5.5067 O   0  0  0  0  0  0  0  0  0  0  0  0
    2.8651   46.5743    4.9418 H   0  0  0  0  0  0  0  0  0  0  0  0
    1.2460   45.8471    2.7039 C   0  0  0  0  0  0  0  0  0  0  0  0
   -1.0164   45.1410    3.4016 N   0  0  0  0  0  0  0  0  0  0  0  0
   -0.2025   45.6121    2.2501 C   0  0  0  0  0  0  0  0  0  0  0  0
   -0.9767   45.8317    4.1511 H   0  0  0  0  0  0  0  0  0  0  0  0
   -0.6466   44.2521    3.7383 H   0  0  0  0  0  0  0  0  0  0  0  0
   -0.2813   44.5554    1.1411 C   0  0  0  0  0  0  0  0  0  0  0  0
   -1.2261   43.8237    0.8951 O   0  0  0  0  0  0  0  0  0  0  0  0
    0.8286   44.5128    0.3671 O   0  0  0  0  0  0  0  0  0  0  0  0
    1.5538   45.0751    0.5566 H   0  0  0  0  0  0  0  0  0  0  0  0
 16 15  1  0
 16 14  1  0
  1 14  1  0
  1 10  1  0
 10 11  2  0
 10 12  1  0
  1  2  1  0
  3  2  1  0
  3  4  1  0
  4  5  1  0
  5  6  1  0
  6  7  1  0
  8  7  1  0
  8  9  1  0
 16 19  1  0
 19 20  2  0
 19 21  1  0
  9  1  1  0
  8  3  1  0
 15 17  1  0
 15 18  1  0
 12 13  1  0
 21 22  1  0
M  END
> <minimizedAffinity>
-6.65737

> <CNNscore>
0.6138075590

> <CNNaffinity>
5.7148871422

> <CNN_VS>
3.5078408718

> <CNNaffinity_variance>
0.9128162265

$$$$



 22 23  0  0  0  0  0  0  0  0999 V2000
    1.5739   43.6478    3.3308 C   0  0  0  0  0  0  0  0  0  0  0  0
    1.6723   42.6114    4.4462 C   0  0  0  0  0  0  0  0  0  0  0  0
    2.1582   43.4320    5.6209 C   0  0  0  0  0  0  0  0  0  0  0  0
    3.5770   43.5666    5.5471 O   0  0  0  0  0  0  0  0  0  0  0  0
    4.1131   44.3803    6.5932 C   0  0  0  0  0  0  0  0  0  0  0  0
    3.2448   45.5936    6.9308 C   0  0  0  0  0  0  0  0  0  0  0  0
    2.3400   45.9636    5.7669 C   0  0  0  0  0  0  0  0  0  0  0  0
    1.4626   44.7731    5.3928 C   0  0  0  0  0  0  0  0  0  0  0  0
    1.1096   44.8524    3.9997 O   0  0  0  0  0  0  0  0  0  0  0  0
    2.9422   43.9448    2.6767 C   0  0  0  0  0  0  0  0  0  0  0  0
    3.2986   44.9891    2.1526 O   0  0  0  0  0  0  0  0  0  0  0  0
    3.7795   42.8871    2.6794 O   0  0  0  0  0  0  0  0  0  0  0  0
    3.5156   42.0816    3.0788 H   0  0  0  0  0  0  0  0  0  0  0  0
    0.5320   43.3612    2.2297 C   0  0  0  0  0  0  0  0  0  0  0  0
   -0.5840   45.5591    2.0645 N   0  0  0  0  0  0  0  0  0  0  0  0
    0.1488   44.5189    1.2957 C   0  0  0  0  0  0  0  0  0  0  0  0
    0.0001   45.8886    2.8330 H   0  0  0  0  0  0  0  0  0  0  0  0
   -1.4456   45.1615    2.4387 H   0  0  0  0  0  0  0  0  0  0  0  0
   -0.7526   44.0436    0.1494 C   0  0  0  0  0  0  0  0  0  0  0  0
   -1.2442   44.7344   -0.7279 O   0  0  0  0  0  0  0  0  0  0  0  0
   -0.9471   42.7038    0.1461 O   0  0  0  0  0  0  0  0  0  0  0  0
   -0.5692   42.1739    0.8202 H   0  0  0  0  0  0  0  0  0  0  0  0
 16 15  1  0
 16 14  1  0
  1 14  1  0
  1 10  1  0
 10 11  2  0
 10 12  1  0
  1  2  1  0
  3  2  1  0
  3  4  1  0
  4  5  1  0
  5  6  1  0
  6  7  1  0
  8  7  1  0
  8  9  1  0
 16 19  1  0
 19 20  2  0
 19 21  1  0
  9  1  1  0
  8  3  1  0
 15 17  1  0
 15 18  1  0
 12 13  1  0
 21 22  1  0
M  END
> <minimizedAffinity>
-8.36748

> <CNNscore>
0.4377954304

> <CNNaffinity>
5.4401569366

> <CNN_VS>
2.3816759586

> <CNNaffinity_variance>
0.5798769593

$$$$



 22 23  0  0  0  0  0  0  0  0999 V2000
   11.3790   42.8644   -1.0726 C   0  0  0  0  0  0  0  0  0  0  0  0
   10.7533   44.2546   -1.0103 C   0  0  0  0  0  0  0  0  0  0  0  0
   11.2145   44.8852   -2.3061 C   0  0  0  0  0  0  0  0  0  0  0  0
   12.5301   45.4104   -2.1326 O   0  0  0  0  0  0  0  0  0  0  0  0
   13.0654   45.9756   -3.3317 C   0  0  0  0  0  0  0  0  0  0  0  0
   12.7176   45.1804   -4.5914 C   0  0  0  0  0  0  0  0  0  0  0  0
   12.3763   43.7381   -4.2548 C   0  0  0  0  0  0  0  0  0  0  0  0
   11.2153   43.6967   -3.2660 C   0  0  0  0  0  0  0  0  0  0  0  0
   11.2962   42.4958   -2.4766 O   0  0  0  0  0  0  0  0  0  0  0  0
   12.8657   42.8652   -0.6511 C   0  0  0  0  0  0  0  0  0  0  0  0
   13.4306   43.6817    0.0607 O   0  0  0  0  0  0  0  0  0  0  0  0
   13.5769   41.8529   -1.1889 O   0  0  0  0  0  0  0  0  0  0  0  0
   13.1530   41.2216   -1.7363 H   0  0  0  0  0  0  0  0  0  0  0  0
   10.6318   41.7505   -0.3102 C   0  0  0  0  0  0  0  0  0  0  0  0
   11.1824   39.9944    1.3380 N   0  0  0  0  0  0  0  0  0  0  0  0
   11.0683   41.4626    1.1341 C   0  0  0  0  0  0  0  0  0  0  0  0
   11.8515   39.6095    0.6713 H   0  0  0  0  0  0  0  0  0  0  0  0
   10.2710   39.5593    1.1946 H   0  0  0  0  0  0  0  0  0  0  0  0
   10.0574   42.0120    2.1485 C   0  0  0  0  0  0  0  0  0  0  0  0
   10.2853   42.3441    3.3002 O   0  0  0  0  0  0  0  0  0  0  0  0
    8.8135   42.1574    1.6345 O   0  0  0  0  0  0  0  0  0  0  0  0
    8.6393   41.9021    0.7499 H   0  0  0  0  0  0  0  0  0  0  0  0
 16 15  1  0
 16 14  1  0
  1 14  1  0
  1 10  1  0
 10 11  2  0
 10 12  1  0
  1  2  1  0
  3  2  1  0
  3  4  1  0
  4  5  1  0
  5  6  1  0
  6  7  1  0
  8  7  1  0
  8  9  1  0
 16 19  1  0
 19 20  2  0
 19 21  1  0
  9  1  1  0
  8  3  1  0
 15 17  1  0
 15 18  1  0
 12 13  1  0
 21 22  1  0
M  END
> <minimizedAffinity>
-4.82934

> <CNNscore>
0.3808907866

> <CNNaffinity>
4.1532416344

> <CNN_VS>
1.5819314718

> <CNNaffinity_variance>
0.1112465560

$$$$



 22 23  0  0  0  0  0  0  0  0999 V2000
   -5.0050   34.1055   10.9892 C   0  0  0  0  0  0  0  0  0  0  0  0
   -6.0393   34.8617   10.1605 C   0  0  0  0  0  0  0  0  0  0  0  0
   -7.3292   34.1528   10.5111 C   0  0  0  0  0  0  0  0  0  0  0  0
   -7.4584   32.9829    9.7041 O   0  0  0  0  0  0  0  0  0  0  0  0
   -8.6275   32.2206   10.0136 C   0  0  0  0  0  0  0  0  0  0  0  0
   -8.9384   32.1574   11.5100 C   0  0  0  0  0  0  0  0  0  0  0  0
   -7.6955   32.4275   12.3421 C   0  0  0  0  0  0  0  0  0  0  0  0
   -7.1146   33.7908   11.9798 C   0  0  0  0  0  0  0  0  0  0  0  0
   -5.6970   33.7932   12.2292 O   0  0  0  0  0  0  0  0  0  0  0  0
   -4.5669   32.7815   10.3235 C   0  0  0  0  0  0  0  0  0  0  0  0
   -4.6824   32.4733    9.1471 O   0  0  0  0  0  0  0  0  0  0  0  0
   -4.0417   31.8923   11.1914 O   0  0  0  0  0  0  0  0  0  0  0  0
   -3.9488   32.1190   12.0958 H   0  0  0  0  0  0  0  0  0  0  0  0
   -3.7544   34.9066   11.4066 C   0  0  0  0  0  0  0  0  0  0  0  0
   -3.3182   33.5896   13.4508 N   0  0  0  0  0  0  0  0  0  0  0  0
   -3.4176   34.9685   12.9040 C   0  0  0  0  0  0  0  0  0  0  0  0
   -2.6052   33.0710   12.9379 H   0  0  0  0  0  0  0  0  0  0  0  0
   -4.2178   33.1191   13.3523 H   0  0  0  0  0  0  0  0  0  0  0  0
   -4.4951   35.7225   13.6934 C   0  0  0  0  0  0  0  0  0  0  0  0
   -4.9659   36.8158   13.4258 O   0  0  0  0  0  0  0  0  0  0  0  0
   -4.9568   35.0282   14.7600 O   0  0  0  0  0  0  0  0  0  0  0  0
   -4.5947   34.1886   14.9648 H   0  0  0  0  0  0  0  0  0  0  0  0
 16 15  1  0
 16 14  1  0
  1 14  1  0
  1 10  1  0
 10 11  2  0
 10 12  1  0
  1  2  1  0
  3  2  1  0
  3  4  1  0
  4  5  1  0
  5  6  1  0
  6  7  1  0
  8  7  1  0
  8  9  1  0
 16 19  1  0
 19 20  2  0
 19 21  1  0
  9  1  1  0
  8  3  1  0
 15 17  1  0
 15 18  1  0
 12 13  1  0
 21 22  1  0
M  END
> <minimizedAffinity>
-4.04850

> <CNNscore>
0.3232696056

> <CNNaffinity>
3.0829095840

> <CNN_VS>
0.9966109395

> <CNNaffinity_variance>
0.5302718878

$$$$



 22 23  0  0  0  0  0  0  0  0999 V2000
    1.6172   43.4606    2.5279 C   0  0  0  0  0  0  0  0  0  0  0  0
    0.8686   43.8543    3.7979 C   0  0  0  0  0  0  0  0  0  0  0  0
    1.8670   43.5282    4.8870 C   0  0  0  0  0  0  0  0  0  0  0  0
    1.7828   42.1391    5.2031 O   0  0  0  0  0  0  0  0  0  0  0  0
    2.7373   41.7342    6.1874 C   0  0  0  0  0  0  0  0  0  0  0  0
    4.1040   42.4017    6.0253 C   0  0  0  0  0  0  0  0  0  0  0  0
    4.3117   42.8915    4.6015 C   0  0  0  0  0  0  0  0  0  0  0  0
    3.1999   43.8639    4.2199 C   0  0  0  0  0  0  0  0  0  0  0  0
    2.9976   43.8307    2.7952 O   0  0  0  0  0  0  0  0  0  0  0  0
    1.5596   41.9408    2.2542 C   0  0  0  0  0  0  0  0  0  0  0  0
    2.4485   41.1234    2.4391 O   0  0  0  0  0  0  0  0  0  0  0  0
    0.3903   41.5358    1.7171 O   0  0  0  0  0  0  0  0  0  0  0  0
   -0.2977   42.1549    1.5713 H   0  0  0  0  0  0  0  0  0  0  0  0
    1.2268   44.2262    1.2466 C   0  0  0  0  0  0  0  0  0  0  0  0
   -1.0461   44.0894    2.2051 N   0  0  0  0  0  0  0  0  0  0  0  0
   -0.2355   44.6744    1.1047 C   0  0  0  0  0  0  0  0  0  0  0  0
   -0.6609   44.3811    3.1034 H   0  0  0  0  0  0  0  0  0  0  0  0
   -1.0238   43.0718    2.1399 H   0  0  0  0  0  0  0  0  0  0  0  0
   -0.8375   44.2194   -0.2306 C   0  0  0  0  0  0  0  0  0  0  0  0
   -1.0379   44.9115   -1.2152 O   0  0  0  0  0  0  0  0  0  0  0  0
   -1.1121   42.8942   -0.2662 O   0  0  0  0  0  0  0  0  0  0  0  0
   -0.9579   42.3633    0.4903 H   0  0  0  0  0  0  0  0  0  0  0  0
 16 15  1  0
 16 14  1  0
  1 14  1  0
  1 10  1  0
 10 11  2  0
 10 12  1  0
  1  2  1  0
  3  2  1  0
  3  4  1  0
  4  5  1  0
  5  6  1  0
  6  7  1  0
  8  7  1  0
  8  9  1  0
 16 19  1  0
 19 20  2  0
 19 21  1  0
  9  1  1  0
  8  3  1  0
 15 17  1  0
 15 18  1  0
 12 13  1  0
 21 22  1  0
M  END
> <minimizedAffinity>
-7.35011

> <CNNscore>
0.2815548182

> <CNNaffinity>
5.4330058098

> <CNN_VS>
1.5296889544

> <CNNaffinity_variance>
0.3205913603

$$$$



 22 23  0  0  0  0  0  0  0  0999 V2000
   -9.6498   49.5469    1.1212 C   0  0  0  0  0  0  0  0  0  0  0  0
   -8.5771   50.4709    0.5523 C   0  0  0  0  0  0  0  0  0  0  0  0
   -9.2865   51.8059    0.4907 C   0  0  0  0  0  0  0  0  0  0  0  0
  -10.0581   51.8747   -0.7078 O   0  0  0  0  0  0  0  0  0  0  0  0
  -10.8089   53.0865   -0.8166 C   0  0  0  0  0  0  0  0  0  0  0  0
  -11.4099   53.5551    0.5097 C   0  0  0  0  0  0  0  0  0  0  0  0
  -11.5472   52.4015    1.4897 C   0  0  0  0  0  0  0  0  0  0  0  0
  -10.1852   51.7558    1.7252 C   0  0  0  0  0  0  0  0  0  0  0  0
  -10.3621   50.3728    2.0828 O   0  0  0  0  0  0  0  0  0  0  0  0
  -10.6512   49.0700    0.0453 C   0  0  0  0  0  0  0  0  0  0  0  0
  -11.5473   48.2511    0.1822 O   0  0  0  0  0  0  0  0  0  0  0  0
  -10.4406   49.6229   -1.1671 O   0  0  0  0  0  0  0  0  0  0  0  0
   -9.7559   50.2520   -1.2825 H   0  0  0  0  0  0  0  0  0  0  0  0
   -9.1408   48.3301    1.9215 C   0  0  0  0  0  0  0  0  0  0  0  0
   -6.9305   47.6722    2.8076 N   0  0  0  0  0  0  0  0  0  0  0  0
   -7.7494   47.7815    1.5717 C   0  0  0  0  0  0  0  0  0  0  0  0
   -7.4041   47.0652    3.4767 H   0  0  0  0  0  0  0  0  0  0  0  0
   -6.8072   48.5983    3.2168 H   0  0  0  0  0  0  0  0  0  0  0  0
   -7.0134   48.6984    0.5866 C   0  0  0  0  0  0  0  0  0  0  0  0
   -7.1035   48.6855   -0.6301 O   0  0  0  0  0  0  0  0  0  0  0  0
   -6.2334   49.6201    1.1989 O   0  0  0  0  0  0  0  0  0  0  0  0
   -6.1647   49.6293    2.1333 H   0  0  0  0  0  0  0  0  0  0  0  0
 16 15  1  0
 16 14  1  0
  1 14  1  0
  1 10  1  0
 10 11  2  0
 10 12  1  0
  1  2  1  0
  3  2  1  0
  3  4  1  0
  4  5  1  0
  5  6  1  0
  6  7  1  0
  8  7  1  0
  8  9  1  0
 16 19  1  0
 19 20  2  0
 19 21  1  0
  9  1  1  0
  8  3  1  0
 15 17  1  0
 15 18  1  0
 12 13  1  0
 21 22  1  0
M  END
> <minimizedAffinity>
-4.43562

> <CNNscore>
0.2656531334

> <CNNaffinity>
3.7690448761

> <CNN_VS>
1.0012586117

> <CNNaffinity_variance>
0.0879059434

$$$$



 22 23  0  0  0  0  0  0  0  0999 V2000
   -7.6904   34.1059   10.9102 C   0  0  0  0  0  0  0  0  0  0  0  0
   -7.1232   34.0689   12.3262 C   0  0  0  0  0  0  0  0  0  0  0  0
   -8.1597   34.8340   13.1197 C   0  0  0  0  0  0  0  0  0  0  0  0
   -7.9084   36.2334   12.9974 O   0  0  0  0  0  0  0  0  0  0  0  0
   -8.8809   37.0339   13.6736 C   0  0  0  0  0  0  0  0  0  0  0  0
  -10.3082   36.4978   13.5489 C   0  0  0  0  0  0  0  0  0  0  0  0
  -10.4535   35.5974   12.3331 C   0  0  0  0  0  0  0  0  0  0  0  0
   -9.4608   34.4424   12.4211 C   0  0  0  0  0  0  0  0  0  0  0  0
   -9.1278   33.9901   11.0959 O   0  0  0  0  0  0  0  0  0  0  0  0
   -7.3935   35.4397   10.1885 C   0  0  0  0  0  0  0  0  0  0  0  0
   -6.4233   36.1648   10.3473 O   0  0  0  0  0  0  0  0  0  0  0  0
   -8.3645   35.8133    9.3297 O   0  0  0  0  0  0  0  0  0  0  0  0
   -9.1127   35.2642    9.2008 H   0  0  0  0  0  0  0  0  0  0  0  0
   -7.2982   32.9294    9.9924 C   0  0  0  0  0  0  0  0  0  0  0  0
   -6.1224   32.5277    7.8570 N   0  0  0  0  0  0  0  0  0  0  0  0
   -5.9579   33.0253    9.2483 C   0  0  0  0  0  0  0  0  0  0  0  0
   -6.8422   33.0737    7.3836 H   0  0  0  0  0  0  0  0  0  0  0  0
   -6.3986   31.5460    7.8775 H   0  0  0  0  0  0  0  0  0  0  0  0
   -4.8714   32.1871    9.9336 C   0  0  0  0  0  0  0  0  0  0  0  0
   -4.8079   30.9695    9.9786 O   0  0  0  0  0  0  0  0  0  0  0  0
   -3.8913   32.9380   10.4889 O   0  0  0  0  0  0  0  0  0  0  0  0
   -3.9408   33.8731   10.4539 H   0  0  0  0  0  0  0  0  0  0  0  0
 16 15  1  0
 16 14  1  0
  1 14  1  0
  1 10  1  0
 10 11  2  0
 10 12  1  0
  1  2  1  0
  3  2  1  0
  3  4  1  0
  4  5  1  0
  5  6  1  0
  6  7  1  0
  8  7  1  0
  8  9  1  0
 16 19  1  0
 19 20  2  0
 19 21  1  0
  9  1  1  0
  8  3  1  0
 15 17  1  0
 15 18  1  0
 12 13  1  0
 21 22  1  0
M  END
> <minimizedAffinity>
-4.20904

> <CNNscore>
0.2606106102

> <CNNaffinity>
2.8459022045

> <CNN_VS>
0.7416723371

> <CNNaffinity_variance>
0.7053780556

$$$$



 22 23  0  0  0  0  0  0  0  0999 V2000
   -6.0740   33.6864   12.0242 C   0  0  0  0  0  0  0  0  0  0  0  0
   -6.0687   35.0818   11.4069 C   0  0  0  0  0  0  0  0  0  0  0  0
   -4.9106   35.7531   12.1123 C   0  0  0  0  0  0  0  0  0  0  0  0
   -5.3532   36.2537   13.3733 O   0  0  0  0  0  0  0  0  0  0  0  0
   -4.3016   36.8551   14.1325 C   0  0  0  0  0  0  0  0  0  0  0  0
   -2.9690   36.1113   14.0282 C   0  0  0  0  0  0  0  0  0  0  0  0
   -3.1781   34.6624   13.6197 C   0  0  0  0  0  0  0  0  0  0  0  0
   -3.9236   34.6005   12.2902 C   0  0  0  0  0  0  0  0  0  0  0  0
   -4.6671   33.3706   12.2104 O   0  0  0  0  0  0  0  0  0  0  0  0
   -6.7725   33.6518   13.4023 C   0  0  0  0  0  0  0  0  0  0  0  0
   -6.4766   32.9569   14.3624 O   0  0  0  0  0  0  0  0  0  0  0  0
   -7.8421   34.4698   13.4829 O   0  0  0  0  0  0  0  0  0  0  0  0
   -8.0774   35.0068   12.7520 H   0  0  0  0  0  0  0  0  0  0  0  0
   -6.6356   32.5556   11.1376 C   0  0  0  0  0  0  0  0  0  0  0  0
   -8.3415   32.2333    9.3799 N   0  0  0  0  0  0  0  0  0  0  0  0
   -7.0646   32.9201    9.7084 C   0  0  0  0  0  0  0  0  0  0  0  0
   -9.0565   32.5035   10.0553 H   0  0  0  0  0  0  0  0  0  0  0  0
   -8.2036   31.2234    9.4164 H   0  0  0  0  0  0  0  0  0  0  0  0
   -6.0109   32.4953    8.6780 C   0  0  0  0  0  0  0  0  0  0  0  0
   -4.8762   32.1112    8.9093 O   0  0  0  0  0  0  0  0  0  0  0  0
   -6.4669   32.5341    7.4039 O   0  0  0  0  0  0  0  0  0  0  0  0
   -7.3385   32.8292    7.2270 H   0  0  0  0  0  0  0  0  0  0  0  0
 16 15  1  0
 16 14  1  0
  1 14  1  0
  1 10  1  0
 10 11  2  0
 10 12  1  0
  1  2  1  0
  3  2  1  0
  3  4  1  0
  4  5  1  0
  5  6  1  0
  6  7  1  0
  8  7  1  0
  8  9  1  0
 16 19  1  0
 19 20  2  0
 19 21  1  0
  9  1  1  0
  8  3  1  0
 15 17  1  0
 15 18  1  0
 12 13  1  0
 21 22  1  0
M  END
> <minimizedAffinity>
-4.23216

> <CNNscore>
0.2568684220

> <CNNaffinity>
2.5640230179

> <CNN_VS>
0.6586165428

> <CNNaffinity_variance>
1.3744314909

$$$$
