


 25 25  0  0  0  0  0  0  0  0999 V2000
   -0.4477   34.2188  102.5116 C   0  0  0  0  0  0  0  0  0  0  0  0
    0.5508   33.4478  103.1464 C   0  0  0  0  0  0  0  0  0  0  0  0
    1.9124   33.6591  102.9042 C   0  0  0  0  0  0  0  0  0  0  0  0
    3.0506   32.6821  103.7572 Cl  0  0  0  0  0  0  0  0  0  0  0  0
    2.2784   34.6621  102.0188 C   0  0  0  0  0  0  0  0  0  0  0  0
    1.3237   35.4608  101.3818 C   0  0  0  0  0  0  0  0  0  0  0  0
   -0.0464   35.2482  101.6203 C   0  0  0  0  0  0  0  0  0  0  0  0
    3.6691   34.9217  101.7367 N   0  0  0  0  0  0  0  0  0  0  0  0
    4.4001   33.9346  101.5795 O   0  0  0  0  0  0  0  0  0  0  0  0
    4.0347   36.1038  101.7239 O   0  0  0  0  0  0  0  0  0  0  0  0
   -1.9260   33.9979  102.8163 C   0  0  0  0  0  0  0  0  0  0  0  0
   -1.7200   34.1904  105.3109 N   0  0  0  0  0  0  0  0  0  0  0  0
   -2.5261   34.5647  104.1210 C   0  0  0  0  0  0  0  0  0  0  0  0
   -0.7655   34.5310  105.1958 H   0  0  0  0  0  0  0  0  0  0  0  0
   -1.7093   33.1752  105.4087 H   0  0  0  0  0  0  0  0  0  0  0  0
   -3.9697   34.0591  104.2767 C   0  0  0  0  0  0  0  0  0  0  0  0
   -4.3811   33.2605  105.1022 O   0  0  0  0  0  0  0  0  0  0  0  0
   -4.8116   34.5654  103.3458 O   0  0  0  0  0  0  0  0  0  0  0  0
   -4.4951   35.1787  102.7120 H   0  0  0  0  0  0  0  0  0  0  0  0
   -1.0357   36.1399  100.8897 C   0  0  0  0  0  0  0  0  0  0  0  0
   -0.7898   37.6312  101.1097 C   0  0  0  0  0  0  0  0  0  0  0  0
   -1.0615   38.0838  102.5162 C   0  0  0  0  0  0  0  0  0  0  0  0
   -0.2409   38.1544  103.4153 O   0  0  0  0  0  0  0  0  0  0  0  0
   -2.3292   38.4883  102.7153 O   0  0  0  0  0  0  0  0  0  0  0  0
   -2.9541   38.4309  102.0194 H   0  0  0  0  0  0  0  0  0  0  0  0
 13 12  1  0
 13 11  1  0
 11  1  1  0
  1  2  2  0
  2  3  1  0
  3  4  1  0
  3  5  2  0
  5  8  1  0
  8  9  2  0
  8 10  1  0
  5  6  1  0
  6  7  2  0
  7 20  1  0
 20 21  1  0
 21 22  1  0
 22 23  2  0
 22 24  1  0
 13 16  1  0
 16 17  2  0
 16 18  1  0
  7  1  1  0
 12 14  1  0
 12 15  1  0
 24 25  1  0
 18 19  1  0
M  CHG 1   8   1
M  CHG 1  10  -1
M  END
> <minimizedAffinity>
-8.73144

> <CNNscore>
0.9665806293

> <CNNaffinity>
6.8158659935

> <CNN_VS>
6.5880842209

> <CNNaffinity_variance>
0.1939118057

$$$$



 25 25  0  0  0  0  0  0  0  0999 V2000
   -1.5138   35.7180  101.9150 C   0  0  0  0  0  0  0  0  0  0  0  0
   -2.3001   35.4151  100.7817 C   0  0  0  0  0  0  0  0  0  0  0  0
   -1.7312   35.2229   99.5181 C   0  0  0  0  0  0  0  0  0  0  0  0
   -2.7799   34.8251   98.2068 Cl  0  0  0  0  0  0  0  0  0  0  0  0
   -0.3541   35.3288   99.3902 C   0  0  0  0  0  0  0  0  0  0  0  0
    0.4639   35.6097  100.4889 C   0  0  0  0  0  0  0  0  0  0  0  0
   -0.1055   35.8072  101.7601 C   0  0  0  0  0  0  0  0  0  0  0  0
    0.2818   35.1373   98.1096 N   0  0  0  0  0  0  0  0  0  0  0  0
    0.3899   33.9704   97.7094 O   0  0  0  0  0  0  0  0  0  0  0  0
    0.7146   36.1438   97.5345 O   0  0  0  0  0  0  0  0  0  0  0  0
   -2.1487   35.8879  103.2915 C   0  0  0  0  0  0  0  0  0  0  0  0
   -1.4588   33.5385  103.8461 N   0  0  0  0  0  0  0  0  0  0  0  0
   -2.3934   34.6450  104.1743 C   0  0  0  0  0  0  0  0  0  0  0  0
   -0.4977   33.8592  103.9636 H   0  0  0  0  0  0  0  0  0  0  0  0
   -1.6040   33.2462  102.8797 H   0  0  0  0  0  0  0  0  0  0  0  0
   -3.8489   34.1799  104.0027 C   0  0  0  0  0  0  0  0  0  0  0  0
   -4.6602   34.5964  103.1923 O   0  0  0  0  0  0  0  0  0  0  0  0
   -4.2121   33.2342  104.9002 O   0  0  0  0  0  0  0  0  0  0  0  0
   -3.5886   32.9147  105.5224 H   0  0  0  0  0  0  0  0  0  0  0  0
    0.8336   36.1211  102.9120 C   0  0  0  0  0  0  0  0  0  0  0  0
    0.9328   37.6120  103.2286 C   0  0  0  0  0  0  0  0  0  0  0  0
    1.2821   38.4572  102.0368 C   0  0  0  0  0  0  0  0  0  0  0  0
    2.3488   38.4537  101.4461 O   0  0  0  0  0  0  0  0  0  0  0  0
    0.2620   39.2181  101.5999 O   0  0  0  0  0  0  0  0  0  0  0  0
   -0.5546   39.2155  102.0593 H   0  0  0  0  0  0  0  0  0  0  0  0
 13 12  1  0
 13 11  1  0
 11  1  1  0
  1  2  2  0
  2  3  1  0
  3  4  1  0
  3  5  2  0
  5  8  1  0
  8  9  2  0
  8 10  1  0
  5  6  1  0
  6  7  2  0
  7 20  1  0
 20 21  1  0
 21 22  1  0
 22 23  2  0
 22 24  1  0
 13 16  1  0
 16 17  2  0
 16 18  1  0
  7  1  1  0
 12 14  1  0
 12 15  1  0
 24 25  1  0
 18 19  1  0
M  CHG 1   8   1
M  CHG 1  10  -1
M  END
> <minimizedAffinity>
-7.52973

> <CNNscore>
0.7826055884

> <CNNaffinity>
6.0366778374

> <CNN_VS>
4.7243375778

> <CNNaffinity_variance>
0.2183285505

$$$$



 25 25  0  0  0  0  0  0  0  0999 V2000
   -2.5395   35.7768   99.8215 C   0  0  0  0  0  0  0  0  0  0  0  0
   -1.2130   35.5041   99.4209 C   0  0  0  0  0  0  0  0  0  0  0  0
   -0.9117   35.0240   98.1419 C   0  0  0  0  0  0  0  0  0  0  0  0
    0.7458   34.7545   97.7447 Cl  0  0  0  0  0  0  0  0  0  0  0  0
   -1.9540   34.8212   97.2495 C   0  0  0  0  0  0  0  0  0  0  0  0
   -3.2802   35.0947   97.5982 C   0  0  0  0  0  0  0  0  0  0  0  0
   -3.5868   35.5739   98.8849 C   0  0  0  0  0  0  0  0  0  0  0  0
   -1.6962   34.3298   95.9179 N   0  0  0  0  0  0  0  0  0  0  0  0
   -1.7838   35.1497   94.9941 O   0  0  0  0  0  0  0  0  0  0  0  0
   -1.4584   33.1217   95.7948 O   0  0  0  0  0  0  0  0  0  0  0  0
   -2.8446   36.3345  101.2081 C   0  0  0  0  0  0  0  0  0  0  0  0
   -1.6542   35.3214  103.1726 N   0  0  0  0  0  0  0  0  0  0  0  0
   -1.7037   36.4751  102.2388 C   0  0  0  0  0  0  0  0  0  0  0  0
   -1.5327   34.4591  102.6415 H   0  0  0  0  0  0  0  0  0  0  0  0
   -2.5248   35.2749  103.7020 H   0  0  0  0  0  0  0  0  0  0  0  0
   -1.8867   37.7855  103.0221 C   0  0  0  0  0  0  0  0  0  0  0  0
   -1.8414   37.9273  104.2330 O   0  0  0  0  0  0  0  0  0  0  0  0
   -2.1592   38.8452  102.2256 O   0  0  0  0  0  0  0  0  0  0  0  0
   -2.1939   38.7357  101.2956 H   0  0  0  0  0  0  0  0  0  0  0  0
   -5.0468   35.8410   99.2082 C   0  0  0  0  0  0  0  0  0  0  0  0
   -5.6146   34.9097  100.2773 C   0  0  0  0  0  0  0  0  0  0  0  0
   -6.9692   35.3242  100.7773 C   0  0  0  0  0  0  0  0  0  0  0  0
   -7.1892   36.1734  101.6242 O   0  0  0  0  0  0  0  0  0  0  0  0
   -7.9862   34.7058  100.1500 O   0  0  0  0  0  0  0  0  0  0  0  0
   -7.8090   34.0543   99.5003 H   0  0  0  0  0  0  0  0  0  0  0  0
 13 12  1  0
 13 11  1  0
 11  1  1  0
  1  2  2  0
  2  3  1  0
  3  4  1  0
  3  5  2  0
  5  8  1  0
  8  9  2  0
  8 10  1  0
  5  6  1  0
  6  7  2  0
  7 20  1  0
 20 21  1  0
 21 22  1  0
 22 23  2  0
 22 24  1  0
 13 16  1  0
 16 17  2  0
 16 18  1  0
  7  1  1  0
 12 14  1  0
 12 15  1  0
 24 25  1  0
 18 19  1  0
M  CHG 1   8   1
M  CHG 1  10  -1
M  END
> <minimizedAffinity>
-7.33498

> <CNNscore>
0.5567901134

> <CNNaffinity>
5.2939066887

> <CNN_VS>
2.9475948811

> <CNNaffinity_variance>
0.0456638783

$$$$



 25 25  0  0  0  0  0  0  0  0999 V2000
   -3.0125   35.8495  101.4532 C   0  0  0  0  0  0  0  0  0  0  0  0
   -4.2716   35.4247  100.9750 C   0  0  0  0  0  0  0  0  0  0  0  0
   -4.5104   35.2103   99.6133 C   0  0  0  0  0  0  0  0  0  0  0  0
   -6.0760   34.6606   99.1396 Cl  0  0  0  0  0  0  0  0  0  0  0  0
   -3.4705   35.4177   98.7192 C   0  0  0  0  0  0  0  0  0  0  0  0
   -2.2031   35.8212   99.1508 C   0  0  0  0  0  0  0  0  0  0  0  0
   -1.9609   36.0413  100.5190 C   0  0  0  0  0  0  0  0  0  0  0  0
   -3.6644   35.2082   97.3051 N   0  0  0  0  0  0  0  0  0  0  0  0
   -3.4878   34.0578   96.8822 O   0  0  0  0  0  0  0  0  0  0  0  0
   -3.9412   36.1989   96.6172 O   0  0  0  0  0  0  0  0  0  0  0  0
   -2.7609   36.0427  102.9452 C   0  0  0  0  0  0  0  0  0  0  0  0
   -1.4243   33.9185  103.0099 N   0  0  0  0  0  0  0  0  0  0  0  0
   -2.2753   34.8486  103.7950 C   0  0  0  0  0  0  0  0  0  0  0  0
   -0.6206   34.4247  102.6383 H   0  0  0  0  0  0  0  0  0  0  0  0
   -1.9673   33.5295  102.2390 H   0  0  0  0  0  0  0  0  0  0  0  0
   -3.4934   34.1025  104.3639 C   0  0  0  0  0  0  0  0  0  0  0  0
   -4.6433   34.1631  103.9606 O   0  0  0  0  0  0  0  0  0  0  0  0
   -3.1938   33.3463  105.4456 O   0  0  0  0  0  0  0  0  0  0  0  0
   -2.3105   33.3001  105.7548 H   0  0  0  0  0  0  0  0  0  0  0  0
   -0.5676   36.4901  100.9249 C   0  0  0  0  0  0  0  0  0  0  0  0
   -0.4599   37.9931  101.1742 C   0  0  0  0  0  0  0  0  0  0  0  0
    0.2422   38.3406  102.4561 C   0  0  0  0  0  0  0  0  0  0  0  0
    0.5081   37.5647  103.3583 O   0  0  0  0  0  0  0  0  0  0  0  0
    0.6364   39.6254  102.5218 O   0  0  0  0  0  0  0  0  0  0  0  0
    0.4283   40.2156  101.8245 H   0  0  0  0  0  0  0  0  0  0  0  0
 13 12  1  0
 13 11  1  0
 11  1  1  0
  1  2  2  0
  2  3  1  0
  3  4  1  0
  3  5  2  0
  5  8  1  0
  8  9  2  0
  8 10  1  0
  5  6  1  0
  6  7  2  0
  7 20  1  0
 20 21  1  0
 21 22  1  0
 22 23  2  0
 22 24  1  0
 13 16  1  0
 16 17  2  0
 16 18  1  0
  7  1  1  0
 12 14  1  0
 12 15  1  0
 24 25  1  0
 18 19  1  0
M  CHG 1   8   1
M  CHG 1  10  -1
M  END
> <minimizedAffinity>
-7.26018

> <CNNscore>
0.5172628164

> <CNNaffinity>
5.5420360565

> <CNN_VS>
2.8666892052

> <CNNaffinity_variance>
0.1068200096

$$$$



 25 25  0  0  0  0  0  0  0  0999 V2000
   -1.5546   35.6754  102.0078 C   0  0  0  0  0  0  0  0  0  0  0  0
   -2.3214   35.3946  100.8556 C   0  0  0  0  0  0  0  0  0  0  0  0
   -1.7332   35.2489   99.5946 C   0  0  0  0  0  0  0  0  0  0  0  0
   -2.7585   34.8746   98.2581 Cl  0  0  0  0  0  0  0  0  0  0  0  0
   -0.3564   35.3795   99.4883 C   0  0  0  0  0  0  0  0  0  0  0  0
    0.4429   35.6398  100.6058 C   0  0  0  0  0  0  0  0  0  0  0  0
   -0.1460   35.7905  101.8745 C   0  0  0  0  0  0  0  0  0  0  0  0
    0.2989   35.2360   98.2112 N   0  0  0  0  0  0  0  0  0  0  0  0
    0.7860   36.2610   97.7159 O   0  0  0  0  0  0  0  0  0  0  0  0
    0.2801   34.1156   97.6863 O   0  0  0  0  0  0  0  0  0  0  0  0
   -2.2099   35.7944  103.3801 C   0  0  0  0  0  0  0  0  0  0  0  0
   -1.6048   33.3855  103.7462 N   0  0  0  0  0  0  0  0  0  0  0  0
   -2.4227   34.5254  104.2335 C   0  0  0  0  0  0  0  0  0  0  0  0
   -0.6185   33.6454  103.7575 H   0  0  0  0  0  0  0  0  0  0  0  0
   -1.8833   33.1498  102.7937 H   0  0  0  0  0  0  0  0  0  0  0  0
   -3.9141   34.1519  104.2235 C   0  0  0  0  0  0  0  0  0  0  0  0
   -4.5075   33.4842  105.0546 O   0  0  0  0  0  0  0  0  0  0  0  0
   -4.5686   34.6137  103.1326 O   0  0  0  0  0  0  0  0  0  0  0  0
   -4.1124   35.1264  102.4947 H   0  0  0  0  0  0  0  0  0  0  0  0
    0.7731   36.0841  103.0477 C   0  0  0  0  0  0  0  0  0  0  0  0
    2.1468   35.4279  102.9249 C   0  0  0  0  0  0  0  0  0  0  0  0
    2.2292   34.0793  103.5816 C   0  0  0  0  0  0  0  0  0  0  0  0
    3.1883   33.3268  103.5507 O   0  0  0  0  0  0  0  0  0  0  0  0
    1.1359   33.7630  104.2991 O   0  0  0  0  0  0  0  0  0  0  0  0
    0.4029   34.3464  104.3179 H   0  0  0  0  0  0  0  0  0  0  0  0
 13 12  1  0
 13 11  1  0
 11  1  1  0
  1  2  2  0
  2  3  1  0
  3  4  1  0
  3  5  2  0
  5  8  1  0
  8  9  2  0
  8 10  1  0
  5  6  1  0
  6  7  2  0
  7 20  1  0
 20 21  1  0
 21 22  1  0
 22 23  2  0
 22 24  1  0
 13 16  1  0
 16 17  2  0
 16 18  1  0
  7  1  1  0
 12 14  1  0
 12 15  1  0
 24 25  1  0
 18 19  1  0
M  CHG 1   8   1
M  CHG 1  10  -1
M  END
> <minimizedAffinity>
-7.60760

> <CNNscore>
0.4889106452

> <CNNaffinity>
5.7442741394

> <CNN_VS>
2.8084368706

> <CNNaffinity_variance>
0.0731786788

$$$$



 25 25  0  0  0  0  0  0  0  0999 V2000
   -2.7620   35.8881  100.0261 C   0  0  0  0  0  0  0  0  0  0  0  0
   -3.4606   35.8505   98.7992 C   0  0  0  0  0  0  0  0  0  0  0  0
   -4.8236   35.5418   98.7348 C   0  0  0  0  0  0  0  0  0  0  0  0
   -5.5874   35.5551   97.1875 Cl  0  0  0  0  0  0  0  0  0  0  0  0
   -5.4974   35.2741   99.9172 C   0  0  0  0  0  0  0  0  0  0  0  0
   -4.8491   35.3175  101.1554 C   0  0  0  0  0  0  0  0  0  0  0  0
   -3.4777   35.6239  101.2232 C   0  0  0  0  0  0  0  0  0  0  0  0
   -6.9037   34.9530   99.9051 N   0  0  0  0  0  0  0  0  0  0  0  0
   -7.2370   33.9298   99.2924 O   0  0  0  0  0  0  0  0  0  0  0  0
   -7.6722   35.7475  100.4614 O   0  0  0  0  0  0  0  0  0  0  0  0
   -1.2843   36.2625  100.0797 C   0  0  0  0  0  0  0  0  0  0  0  0
    0.9740   35.4098  100.7696 N   0  0  0  0  0  0  0  0  0  0  0  0
   -0.2147   35.1613   99.9147 C   0  0  0  0  0  0  0  0  0  0  0  0
    0.6850   35.4640  101.7463 H   0  0  0  0  0  0  0  0  0  0  0  0
    1.4122   36.2891  100.4954 H   0  0  0  0  0  0  0  0  0  0  0  0
    0.2018   35.0764   98.4370 C   0  0  0  0  0  0  0  0  0  0  0  0
    0.7960   35.9258   97.7936 O   0  0  0  0  0  0  0  0  0  0  0  0
   -0.1956   33.9288   97.8397 O   0  0  0  0  0  0  0  0  0  0  0  0
   -0.6520   33.2768   98.3344 H   0  0  0  0  0  0  0  0  0  0  0  0
   -2.8270   35.6438  102.5956 C   0  0  0  0  0  0  0  0  0  0  0  0
   -2.6118   34.2528  103.1884 C   0  0  0  0  0  0  0  0  0  0  0  0
   -2.9706   34.1580  104.6441 C   0  0  0  0  0  0  0  0  0  0  0  0
   -4.0928   34.0015  105.0948 O   0  0  0  0  0  0  0  0  0  0  0  0
   -1.9047   34.1976  105.4643 O   0  0  0  0  0  0  0  0  0  0  0  0
   -1.0456   34.3183  105.1104 H   0  0  0  0  0  0  0  0  0  0  0  0
 13 12  1  0
 13 11  1  0
 11  1  1  0
  1  2  2  0
  2  3  1  0
  3  4  1  0
  3  5  2  0
  5  8  1  0
  8  9  2  0
  8 10  1  0
  5  6  1  0
  6  7  2  0
  7 20  1  0
 20 21  1  0
 21 22  1  0
 22 23  2  0
 22 24  1  0
 13 16  1  0
 16 17  2  0
 16 18  1  0
  7  1  1  0
 12 14  1  0
 12 15  1  0
 24 25  1  0
 18 19  1  0
M  CHG 1   8   1
M  CHG 1  10  -1
M  END
> <minimizedAffinity>
-8.56263

> <CNNscore>
0.4227991998

> <CNNaffinity>
5.0037479401

> <CNN_VS>
2.1155805588

> <CNNaffinity_variance>
0.1717618704

$$$$



 25 25  0  0  0  0  0  0  0  0999 V2000
   -3.4019   35.4301  101.2660 C   0  0  0  0  0  0  0  0  0  0  0  0
   -4.8031   35.4132  101.4414 C   0  0  0  0  0  0  0  0  0  0  0  0
   -5.6835   35.4062  100.3542 C   0  0  0  0  0  0  0  0  0  0  0  0
   -7.3771   35.3528  100.6803 Cl  0  0  0  0  0  0  0  0  0  0  0  0
   -5.1518   35.4089   99.0731 C   0  0  0  0  0  0  0  0  0  0  0  0
   -3.7708   35.4078   98.8534 C   0  0  0  0  0  0  0  0  0  0  0  0
   -2.8830   35.4186   99.9447 C   0  0  0  0  0  0  0  0  0  0  0  0
   -6.0166   35.3996   97.9185 N   0  0  0  0  0  0  0  0  0  0  0  0
   -6.2601   36.4951   97.3951 O   0  0  0  0  0  0  0  0  0  0  0  0
   -6.4881   34.3095   97.5713 O   0  0  0  0  0  0  0  0  0  0  0  0
   -2.4578   35.4005  102.4637 C   0  0  0  0  0  0  0  0  0  0  0  0
   -0.1099   35.6625  103.3132 N   0  0  0  0  0  0  0  0  0  0  0  0
   -1.1570   36.2314  102.4269 C   0  0  0  0  0  0  0  0  0  0  0  0
    0.0882   34.7021  103.0325 H   0  0  0  0  0  0  0  0  0  0  0  0
   -0.4389   35.6736  104.2786 H   0  0  0  0  0  0  0  0  0  0  0  0
   -1.4692   37.6805  102.8352 C   0  0  0  0  0  0  0  0  0  0  0  0
   -2.4454   38.3378  102.5137 O   0  0  0  0  0  0  0  0  0  0  0  0
   -0.5010   38.2354  103.6010 O   0  0  0  0  0  0  0  0  0  0  0  0
    0.2485   37.7300  103.8476 H   0  0  0  0  0  0  0  0  0  0  0  0
   -1.3944   35.4291   99.6422 C   0  0  0  0  0  0  0  0  0  0  0  0
   -1.0324   34.7198   98.3389 C   0  0  0  0  0  0  0  0  0  0  0  0
    0.3269   35.0851   97.8137 C   0  0  0  0  0  0  0  0  0  0  0  0
    0.7742   36.2150   97.7130 O   0  0  0  0  0  0  0  0  0  0  0  0
    1.0864   34.0195   97.5006 O   0  0  0  0  0  0  0  0  0  0  0  0
    0.7356   33.1544   97.5806 H   0  0  0  0  0  0  0  0  0  0  0  0
 13 12  1  0
 13 11  1  0
 11  1  1  0
  1  2  2  0
  2  3  1  0
  3  4  1  0
  3  5  2  0
  5  8  1  0
  8  9  2  0
  8 10  1  0
  5  6  1  0
  6  7  2  0
  7 20  1  0
 20 21  1  0
 21 22  1  0
 22 23  2  0
 22 24  1  0
 13 16  1  0
 16 17  2  0
 16 18  1  0
  7  1  1  0
 12 14  1  0
 12 15  1  0
 24 25  1  0
 18 19  1  0
M  CHG 1   8   1
M  CHG 1  10  -1
M  END
> <minimizedAffinity>
-7.74267

> <CNNscore>
0.3894331157

> <CNNaffinity>
4.8756136894

> <CNN_VS>
1.8987253904

> <CNNaffinity_variance>
0.4223923385

$$$$



 25 25  0  0  0  0  0  0  0  0999 V2000
   -3.6117   35.3496   98.4462 C   0  0  0  0  0  0  0  0  0  0  0  0
   -3.2781   35.0104   97.1165 C   0  0  0  0  0  0  0  0  0  0  0  0
   -1.9595   34.7471   96.7301 C   0  0  0  0  0  0  0  0  0  0  0  0
   -1.6661   34.3102   95.0867 Cl  0  0  0  0  0  0  0  0  0  0  0  0
   -0.9623   34.8178   97.6917 C   0  0  0  0  0  0  0  0  0  0  0  0
   -1.2502   35.1327   99.0233 C   0  0  0  0  0  0  0  0  0  0  0  0
   -2.5746   35.4017   99.4141 C   0  0  0  0  0  0  0  0  0  0  0  0
    0.4127   34.5528   97.3451 N   0  0  0  0  0  0  0  0  0  0  0  0
    0.7030   33.3807   97.0709 O   0  0  0  0  0  0  0  0  0  0  0  0
    1.2044   35.5024   97.3974 O   0  0  0  0  0  0  0  0  0  0  0  0
   -5.0599   35.5974   98.8561 C   0  0  0  0  0  0  0  0  0  0  0  0
   -6.3846   36.9586   97.2144 N   0  0  0  0  0  0  0  0  0  0  0  0
   -6.1649   35.6021   97.7777 C   0  0  0  0  0  0  0  0  0  0  0  0
   -5.5130   37.3059   96.8143 H   0  0  0  0  0  0  0  0  0  0  0  0
   -6.6935   37.5884   97.9550 H   0  0  0  0  0  0  0  0  0  0  0  0
   -7.4694   35.0616   98.3861 C   0  0  0  0  0  0  0  0  0  0  0  0
   -7.6396   33.9687   98.9010 O   0  0  0  0  0  0  0  0  0  0  0  0
   -8.5050   35.9253   98.2719 O   0  0  0  0  0  0  0  0  0  0  0  0
   -8.3737   36.7645   97.8764 H   0  0  0  0  0  0  0  0  0  0  0  0
   -2.8225   35.7495  100.8718 C   0  0  0  0  0  0  0  0  0  0  0  0
   -2.2136   37.0859  101.2916 C   0  0  0  0  0  0  0  0  0  0  0  0
   -2.0101   37.2139  102.7745 C   0  0  0  0  0  0  0  0  0  0  0  0
   -1.9614   38.2586  103.4016 O   0  0  0  0  0  0  0  0  0  0  0  0
   -1.9424   36.0310  103.4120 O   0  0  0  0  0  0  0  0  0  0  0  0
   -1.9805   35.2325  102.9232 H   0  0  0  0  0  0  0  0  0  0  0  0
 13 12  1  0
 13 11  1  0
 11  1  1  0
  1  2  2  0
  2  3  1  0
  3  4  1  0
  3  5  2  0
  5  8  1  0
  8  9  2  0
  8 10  1  0
  5  6  1  0
  6  7  2  0
  7 20  1  0
 20 21  1  0
 21 22  1  0
 22 23  2  0
 22 24  1  0
 13 16  1  0
 16 17  2  0
 16 18  1  0
  7  1  1  0
 12 14  1  0
 12 15  1  0
 24 25  1  0
 18 19  1  0
M  CHG 1   8   1
M  CHG 1  10  -1
M  END
> <minimizedAffinity>
-7.57535

> <CNNscore>
0.3398736119

> <CNNaffinity>
4.8505496979

> <CNN_VS>
1.6485738754

> <CNNaffinity_variance>
0.0584791712

$$$$



 25 25  0  0  0  0  0  0  0  0999 V2000
   -1.3723   35.4709   99.0558 C   0  0  0  0  0  0  0  0  0  0  0  0
   -0.2793   36.1081   99.6833 C   0  0  0  0  0  0  0  0  0  0  0  0
   -0.4595   37.1321  100.6193 C   0  0  0  0  0  0  0  0  0  0  0  0
    0.9437   37.8209  101.3503 Cl  0  0  0  0  0  0  0  0  0  0  0  0
   -1.7536   37.5180  100.9360 C   0  0  0  0  0  0  0  0  0  0  0  0
   -2.8649   36.9023  100.3519 C   0  0  0  0  0  0  0  0  0  0  0  0
   -2.6869   35.8749   99.4076 C   0  0  0  0  0  0  0  0  0  0  0  0
   -1.9932   38.5672  101.8966 N   0  0  0  0  0  0  0  0  0  0  0  0
   -2.1000   38.2247  103.0818 O   0  0  0  0  0  0  0  0  0  0  0  0
   -2.1242   39.7176  101.4599 O   0  0  0  0  0  0  0  0  0  0  0  0
   -1.1567   34.3313   98.0650 C   0  0  0  0  0  0  0  0  0  0  0  0
   -1.1802   34.1710   95.5597 N   0  0  0  0  0  0  0  0  0  0  0  0
   -0.3997   34.6029   96.7471 C   0  0  0  0  0  0  0  0  0  0  0  0
   -2.0768   34.6572   95.5470 H   0  0  0  0  0  0  0  0  0  0  0  0
   -1.3398   33.1646   95.6054 H   0  0  0  0  0  0  0  0  0  0  0  0
    0.9567   33.8797   96.7832 C   0  0  0  0  0  0  0  0  0  0  0  0
    1.1800   32.7251   96.4583 O   0  0  0  0  0  0  0  0  0  0  0  0
    1.9558   34.6516   97.2706 O   0  0  0  0  0  0  0  0  0  0  0  0
    1.7837   35.5383   97.5200 H   0  0  0  0  0  0  0  0  0  0  0  0
   -3.9323   35.2532   98.7992 C   0  0  0  0  0  0  0  0  0  0  0  0
   -5.1435   35.2801   99.7293 C   0  0  0  0  0  0  0  0  0  0  0  0
   -6.3140   34.4919   99.2143 C   0  0  0  0  0  0  0  0  0  0  0  0
   -6.3321   33.8226   98.1952 O   0  0  0  0  0  0  0  0  0  0  0  0
   -7.3842   34.5241  100.0292 O   0  0  0  0  0  0  0  0  0  0  0  0
   -7.3626   35.0408  100.8106 H   0  0  0  0  0  0  0  0  0  0  0  0
 13 12  1  0
 13 11  1  0
 11  1  1  0
  1  2  2  0
  2  3  1  0
  3  4  1  0
  3  5  2  0
  5  8  1  0
  8  9  2  0
  8 10  1  0
  5  6  1  0
  6  7  2  0
  7 20  1  0
 20 21  1  0
 21 22  1  0
 22 23  2  0
 22 24  1  0
 13 16  1  0
 16 17  2  0
 16 18  1  0
  7  1  1  0
 12 14  1  0
 12 15  1  0
 24 25  1  0
 18 19  1  0
M  CHG 1   8   1
M  CHG 1  10  -1
M  END
> <minimizedAffinity>
-7.67366

> <CNNscore>
0.3386199176

> <CNNaffinity>
4.7422080040

> <CNN_VS>
1.6058061123

> <CNNaffinity_variance>
0.0806042254

$$$$
