


 26 29  0  0  0  0  0  0  0  0999 V2000
    7.1464    9.5250   44.3521 C   0  0  0  0  0  0  0  0  0  0  0  0
    6.6133   10.0638   43.1806 C   0  0  0  0  0  0  0  0  0  0  0  0
    5.8243   11.2408   43.1669 C   0  0  0  0  0  0  0  0  0  0  0  0
    5.2770   11.8060   41.9574 C   0  0  0  0  0  0  0  0  0  0  0  0
    4.5095   12.9874   42.1060 C   0  0  0  0  0  0  0  0  0  0  0  0
    3.7851   13.9115   41.2879 C   0  0  0  0  0  0  0  0  0  0  0  0
    3.6043   13.9168   39.8145 C   0  0  0  0  0  0  0  0  0  0  0  0
    3.2158   14.8900   42.0112 N   0  0  0  0  0  0  0  0  0  0  0  0
    3.5857   14.6057   43.2709 N   0  0  0  0  0  0  0  0  0  0  0  0
    4.3513   13.4860   43.3815 C   0  0  0  0  0  0  0  0  0  0  0  0
    4.8386   12.9939   44.5231 N   0  0  0  0  0  0  0  0  0  0  0  0
    5.5716   11.8826   44.4149 C   0  0  0  0  0  0  0  0  0  0  0  0
    6.1024   11.3455   45.5998 C   0  0  0  0  0  0  0  0  0  0  0  0
    5.8333   12.0293   46.9246 C   0  0  0  0  0  0  0  0  0  0  0  0
    6.8862   10.1727   45.5628 C   0  0  0  0  0  0  0  0  0  0  0  0
    7.6145    9.4389   47.1769 Br  0  0  0  0  0  0  0  0  0  0  0  0
    3.3264   15.1573   44.0440 H   0  0  0  0  0  0  0  0  0  0  0  0
    7.2777    7.1296   44.2648 C   0  0  0  0  0  0  0  0  0  0  0  0
    7.9151    8.3921   44.4006 O   0  0  0  0  0  0  0  0  0  0  0  0
    5.4885   11.1904   40.5852 C   0  0  0  0  0  0  0  0  0  0  0  0
    4.7135    9.9580   40.3818 N   0  0  0  0  0  0  0  0  0  0  0  0
    3.3740   10.1818   39.7971 C   0  0  0  0  0  0  0  0  0  0  0  0
    3.3872   10.5025   38.2928 C   0  0  0  0  0  0  0  0  0  0  0  0
    4.0901    9.5037   37.5454 O   0  0  0  0  0  0  0  0  0  0  0  0
    5.4267    9.3444   38.0332 C   0  0  0  0  0  0  0  0  0  0  0  0
    5.4368    8.9894   39.5289 C   0  0  0  0  0  0  0  0  0  0  0  0
 18 19  1  0
 19  1  1  0
  1  2  2  0
  2  3  1  0
  3  4  2  0
  4 20  1  0
 20 21  1  0
 21 22  1  0
 22 23  1  0
 23 24  1  0
 24 25  1  0
 25 26  1  0
  4  5  1  0
  5  6  1  0
  6  7  1  0
  6  8  2  0
  8  9  1  0
  9 10  1  0
 10 11  1  0
 11 12  2  0
 12 13  1  0
 13 14  1  0
 13 15  2  0
 15 16  1  0
 15  1  1  0
 12  3  1  0
 26 21  1  0
 10  5  2  0
  9 17  1  0
M  END
> <minimizedAffinity>
-7.40353

> <CNNscore>
0.6632571220

> <CNNaffinity>
7.5661330223

> <CNN_VS>
5.0182914734

> <CNNaffinity_variance>
0.3381626308

$$$$



 26 29  0  0  0  0  0  0  0  0999 V2000
    4.4662   12.9270   43.9066 C   0  0  0  0  0  0  0  0  0  0  0  0
    5.3040   11.8261   43.7250 C   0  0  0  0  0  0  0  0  0  0  0  0
    5.9826   11.1931   44.7961 C   0  0  0  0  0  0  0  0  0  0  0  0
    6.8441   10.0500   44.6144 C   0  0  0  0  0  0  0  0  0  0  0  0
    7.4512    9.5276   45.7829 C   0  0  0  0  0  0  0  0  0  0  0  0
    8.3358    8.4659   46.1547 C   0  0  0  0  0  0  0  0  0  0  0  0
    8.9675    7.4296   45.2999 C   0  0  0  0  0  0  0  0  0  0  0  0
    8.5881    8.4554   47.4742 N   0  0  0  0  0  0  0  0  0  0  0  0
    7.8615    9.4840   47.9414 N   0  0  0  0  0  0  0  0  0  0  0  0
    7.1712   10.1540   46.9786 C   0  0  0  0  0  0  0  0  0  0  0  0
    6.3832   11.2112   47.1883 N   0  0  0  0  0  0  0  0  0  0  0  0
    5.7918   11.7234   46.1059 C   0  0  0  0  0  0  0  0  0  0  0  0
    4.9518   12.8333   46.2975 C   0  0  0  0  0  0  0  0  0  0  0  0
    4.7499   13.3948   47.6901 C   0  0  0  0  0  0  0  0  0  0  0  0
    4.2938   13.4278   45.1999 C   0  0  0  0  0  0  0  0  0  0  0  0
    3.1448   14.9401   45.4580 Br  0  0  0  0  0  0  0  0  0  0  0  0
    7.8310    9.7309   48.8940 H   0  0  0  0  0  0  0  0  0  0  0  0
    4.3934   13.6170   41.6085 C   0  0  0  0  0  0  0  0  0  0  0  0
    3.7933   13.5600   42.8951 O   0  0  0  0  0  0  0  0  0  0  0  0
    7.1112    9.4204   43.2584 C   0  0  0  0  0  0  0  0  0  0  0  0
    7.9335   10.2674   42.3826 N   0  0  0  0  0  0  0  0  0  0  0  0
    9.3733   10.2583   42.7195 C   0  0  0  0  0  0  0  0  0  0  0  0
   10.1137    8.9798   42.2917 C   0  0  0  0  0  0  0  0  0  0  0  0
    9.9322    8.7049   40.8981 O   0  0  0  0  0  0  0  0  0  0  0  0
    8.5416    8.6088   40.5714 C   0  0  0  0  0  0  0  0  0  0  0  0
    7.7870    9.8907   40.9594 C   0  0  0  0  0  0  0  0  0  0  0  0
 18 19  1  0
 19  1  1  0
  1  2  2  0
  2  3  1  0
  3  4  2  0
  4 20  1  0
 20 21  1  0
 21 22  1  0
 22 23  1  0
 23 24  1  0
 24 25  1  0
 25 26  1  0
  4  5  1  0
  5  6  1  0
  6  7  1  0
  6  8  2  0
  8  9  1  0
  9 10  1  0
 10 11  1  0
 11 12  2  0
 12 13  1  0
 13 14  1  0
 13 15  2  0
 15 16  1  0
 15  1  1  0
 12  3  1  0
 26 21  1  0
 10  5  2  0
  9 17  1  0
M  END
> <minimizedAffinity>
-8.63329

> <CNNscore>
0.5766631961

> <CNNaffinity>
7.2785892487

> <CNN_VS>
4.1972947121

> <CNNaffinity_variance>
0.0109662237

$$$$



 26 29  0  0  0  0  0  0  0  0999 V2000
    7.1454    9.1686   43.7582 C   0  0  0  0  0  0  0  0  0  0  0  0
    6.2336   10.2238   43.7112 C   0  0  0  0  0  0  0  0  0  0  0  0
    5.9093   11.0090   44.8455 C   0  0  0  0  0  0  0  0  0  0  0  0
    4.9728   12.1058   44.8004 C   0  0  0  0  0  0  0  0  0  0  0  0
    4.7541   12.7970   46.0173 C   0  0  0  0  0  0  0  0  0  0  0  0
    3.9821   13.8978   46.5074 C   0  0  0  0  0  0  0  0  0  0  0  0
    3.0475   14.7875   45.7734 C   0  0  0  0  0  0  0  0  0  0  0  0
    4.1763   14.1084   47.8199 N   0  0  0  0  0  0  0  0  0  0  0  0
    5.0728   13.1676   48.1599 N   0  0  0  0  0  0  0  0  0  0  0  0
    5.4457   12.3625   47.1279 C   0  0  0  0  0  0  0  0  0  0  0  0
    6.3172   11.3544   47.2116 N   0  0  0  0  0  0  0  0  0  0  0  0
    6.5488   10.6863   46.0784 C   0  0  0  0  0  0  0  0  0  0  0  0
    7.4663    9.6238   46.1354 C   0  0  0  0  0  0  0  0  0  0  0  0
    8.1452    9.2829   47.4462 C   0  0  0  0  0  0  0  0  0  0  0  0
    7.7603    8.8724   44.9777 C   0  0  0  0  0  0  0  0  0  0  0  0
    9.0139    7.4242   45.0510 Br  0  0  0  0  0  0  0  0  0  0  0  0
    5.4279   13.0694   49.0729 H   0  0  0  0  0  0  0  0  0  0  0  0
    8.2399    8.9777   41.6302 C   0  0  0  0  0  0  0  0  0  0  0  0
    7.4838    8.3925   42.6813 O   0  0  0  0  0  0  0  0  0  0  0  0
    4.2407   12.5191   43.5355 C   0  0  0  0  0  0  0  0  0  0  0  0
    5.1019   13.2272   42.5775 N   0  0  0  0  0  0  0  0  0  0  0  0
    5.1953   12.5704   41.2561 C   0  0  0  0  0  0  0  0  0  0  0  0
    3.9493   12.7496   40.3724 C   0  0  0  0  0  0  0  0  0  0  0  0
    3.6088   14.1313   40.2125 O   0  0  0  0  0  0  0  0  0  0  0  0
    3.4139   14.7616   41.4832 C   0  0  0  0  0  0  0  0  0  0  0  0
    4.6609   14.6244   42.3717 C   0  0  0  0  0  0  0  0  0  0  0  0
 18 19  1  0
 19  1  1  0
  1  2  2  0
  2  3  1  0
  3  4  2  0
  4 20  1  0
 20 21  1  0
 21 22  1  0
 22 23  1  0
 23 24  1  0
 24 25  1  0
 25 26  1  0
  4  5  1  0
  5  6  1  0
  6  7  1  0
  6  8  2  0
  8  9  1  0
  9 10  1  0
 10 11  1  0
 11 12  2  0
 12 13  1  0
 13 14  1  0
 13 15  2  0
 15 16  1  0
 15  1  1  0
 12  3  1  0
 26 21  1  0
 10  5  2  0
  9 17  1  0
M  END
> <minimizedAffinity>
-8.11639

> <CNNscore>
0.3411487639

> <CNNaffinity>
7.2307829857

> <CNN_VS>
2.4667727947

> <CNNaffinity_variance>
0.0091291303

$$$$



 26 29  0  0  0  0  0  0  0  0999 V2000
    4.5173   12.9274   43.0768 C   0  0  0  0  0  0  0  0  0  0  0  0
    5.1676   11.7770   42.6287 C   0  0  0  0  0  0  0  0  0  0  0  0
    5.7638   10.8402   43.5092 C   0  0  0  0  0  0  0  0  0  0  0  0
    6.4308    9.6456   43.0513 C   0  0  0  0  0  0  0  0  0  0  0  0
    6.9761    8.8059   44.0534 C   0  0  0  0  0  0  0  0  0  0  0  0
    7.6918    7.5706   44.1517 C   0  0  0  0  0  0  0  0  0  0  0  0
    8.1327    6.6542   43.0702 C   0  0  0  0  0  0  0  0  0  0  0  0
    7.9707    7.2466   45.4253 N   0  0  0  0  0  0  0  0  0  0  0  0
    7.4257    8.2508   46.1317 N   0  0  0  0  0  0  0  0  0  0  0  0
    6.8263    9.2024   45.3652 C   0  0  0  0  0  0  0  0  0  0  0  0
    6.2191   10.2973   45.8291 N   0  0  0  0  0  0  0  0  0  0  0  0
    5.6897   11.1068   44.9080 C   0  0  0  0  0  0  0  0  0  0  0  0
    5.0390   12.2641   45.3678 C   0  0  0  0  0  0  0  0  0  0  0  0
    4.9608   12.5451   46.8545 C   0  0  0  0  0  0  0  0  0  0  0  0
    4.4564   13.1662   44.4524 C   0  0  0  0  0  0  0  0  0  0  0  0
    3.5652   14.7444   45.0763 Br  0  0  0  0  0  0  0  0  0  0  0  0
    7.4570    8.2944   47.1147 H   0  0  0  0  0  0  0  0  0  0  0  0
    4.1039   13.7234   40.8500 C   0  0  0  0  0  0  0  0  0  0  0  0
    3.9281   13.8509   42.2542 O   0  0  0  0  0  0  0  0  0  0  0  0
    6.5635    9.2814   41.5828 C   0  0  0  0  0  0  0  0  0  0  0  0
    7.5817   10.0772   40.8823 N   0  0  0  0  0  0  0  0  0  0  0  0
    8.9096    9.4298   40.8190 C   0  0  0  0  0  0  0  0  0  0  0  0
    9.0052    8.2836   39.7978 C   0  0  0  0  0  0  0  0  0  0  0  0
    8.6000    8.7049   38.4906 O   0  0  0  0  0  0  0  0  0  0  0  0
    7.2734    9.2430   38.5138 C   0  0  0  0  0  0  0  0  0  0  0  0
    7.1628   10.4137   39.5039 C   0  0  0  0  0  0  0  0  0  0  0  0
 18 19  1  0
 19  1  1  0
  1  2  2  0
  2  3  1  0
  3  4  2  0
  4 20  1  0
 20 21  1  0
 21 22  1  0
 22 23  1  0
 23 24  1  0
 24 25  1  0
 25 26  1  0
  4  5  1  0
  5  6  1  0
  6  7  1  0
  6  8  2  0
  8  9  1  0
  9 10  1  0
 10 11  1  0
 11 12  2  0
 12 13  1  0
 13 14  1  0
 13 15  2  0
 15 16  1  0
 15  1  1  0
 12  3  1  0
 26 21  1  0
 10  5  2  0
  9 17  1  0
M  END
> <minimizedAffinity>
-7.70710

> <CNNscore>
0.2773802280

> <CNNaffinity>
6.6318588257

> <CNN_VS>
1.8395465612

> <CNNaffinity_variance>
0.1141487062

$$$$



 26 29  0  0  0  0  0  0  0  0999 V2000
    5.2726   12.0352   41.8852 C   0  0  0  0  0  0  0  0  0  0  0  0
    6.0803   10.9947   42.3456 C   0  0  0  0  0  0  0  0  0  0  0  0
    6.3574   10.7887   43.7200 C   0  0  0  0  0  0  0  0  0  0  0  0
    7.1859    9.7099   44.2016 C   0  0  0  0  0  0  0  0  0  0  0  0
    7.3687    9.6348   45.6043 C   0  0  0  0  0  0  0  0  0  0  0  0
    8.0462    8.8128   46.5599 C   0  0  0  0  0  0  0  0  0  0  0  0
    8.8752    7.6022   46.3344 C   0  0  0  0  0  0  0  0  0  0  0  0
    7.8652    9.2453   47.8189 N   0  0  0  0  0  0  0  0  0  0  0  0
    7.0692   10.3173   47.6717 N   0  0  0  0  0  0  0  0  0  0  0  0
    6.7481   10.5923   46.3780 C   0  0  0  0  0  0  0  0  0  0  0  0
    5.9770   11.6041   45.9726 N   0  0  0  0  0  0  0  0  0  0  0  0
    5.7813   11.6983   44.6548 C   0  0  0  0  0  0  0  0  0  0  0  0
    4.9687   12.7505   44.1998 C   0  0  0  0  0  0  0  0  0  0  0  0
    4.3570   13.7154   45.1947 C   0  0  0  0  0  0  0  0  0  0  0  0
    4.7181   12.9130   42.8207 C   0  0  0  0  0  0  0  0  0  0  0  0
    3.6076   14.3453   42.1967 Br  0  0  0  0  0  0  0  0  0  0  0  0
    6.7473   10.8552   48.4308 H   0  0  0  0  0  0  0  0  0  0  0  0
    4.1606   11.3264   39.8793 C   0  0  0  0  0  0  0  0  0  0  0  0
    4.9820   12.2608   40.5657 O   0  0  0  0  0  0  0  0  0  0  0  0
    7.8450    8.6969   43.2819 C   0  0  0  0  0  0  0  0  0  0  0  0
    9.1517    9.1425   42.7773 N   0  0  0  0  0  0  0  0  0  0  0  0
   10.2624    8.2182   43.0910 C   0  0  0  0  0  0  0  0  0  0  0  0
   10.2873    6.9452   42.2281 C   0  0  0  0  0  0  0  0  0  0  0  0
   10.2836    7.2540   40.8299 O   0  0  0  0  0  0  0  0  0  0  0  0
    9.1557    8.0667   40.4874 C   0  0  0  0  0  0  0  0  0  0  0  0
    9.1292    9.3623   41.3144 C   0  0  0  0  0  0  0  0  0  0  0  0
 18 19  1  0
 19  1  1  0
  1  2  2  0
  2  3  1  0
  3  4  2  0
  4 20  1  0
 20 21  1  0
 21 22  1  0
 22 23  1  0
 23 24  1  0
 24 25  1  0
 25 26  1  0
  4  5  1  0
  5  6  1  0
  6  7  1  0
  6  8  2  0
  8  9  1  0
  9 10  1  0
 10 11  1  0
 11 12  2  0
 12 13  1  0
 13 14  1  0
 13 15  2  0
 15 16  1  0
 15  1  1  0
 12  3  1  0
 26 21  1  0
 10  5  2  0
  9 17  1  0
M  END
> <minimizedAffinity>
-7.98478

> <CNNscore>
0.2078316063

> <CNNaffinity>
5.7642750740

> <CNN_VS>
1.1979985237

> <CNNaffinity_variance>
0.5391421914

$$$$



 26 29  0  0  0  0  0  0  0  0999 V2000
    5.2832   11.9778   43.1519 C   0  0  0  0  0  0  0  0  0  0  0  0
    6.0524   10.8180   43.0518 C   0  0  0  0  0  0  0  0  0  0  0  0
    6.7232   10.2439   44.1603 C   0  0  0  0  0  0  0  0  0  0  0  0
    7.5137    9.0407   44.0635 C   0  0  0  0  0  0  0  0  0  0  0  0
    8.1220    8.5894   45.2605 C   0  0  0  0  0  0  0  0  0  0  0  0
    8.9552    7.5149   45.7069 C   0  0  0  0  0  0  0  0  0  0  0  0
    9.5040    6.3716   44.9352 C   0  0  0  0  0  0  0  0  0  0  0  0
    9.2423    7.6067   47.0161 N   0  0  0  0  0  0  0  0  0  0  0  0
    8.5878    8.7135   47.4046 N   0  0  0  0  0  0  0  0  0  0  0  0
    7.9104    9.3346   46.4009 C   0  0  0  0  0  0  0  0  0  0  0  0
    7.1892   10.4507   46.5318 N   0  0  0  0  0  0  0  0  0  0  0  0
    6.5983   10.8986   45.4209 C   0  0  0  0  0  0  0  0  0  0  0  0
    5.8278   12.0683   45.5303 C   0  0  0  0  0  0  0  0  0  0  0  0
    5.6958   12.7620   46.8706 C   0  0  0  0  0  0  0  0  0  0  0  0
    5.1746   12.6006   44.3983 C   0  0  0  0  0  0  0  0  0  0  0  0
    4.1200   14.1945   44.5444 Br  0  0  0  0  0  0  0  0  0  0  0  0
    8.5972    9.0452   48.3315 H   0  0  0  0  0  0  0  0  0  0  0  0
    4.7682   11.9922   40.8073 C   0  0  0  0  0  0  0  0  0  0  0  0
    4.6197   12.5569   42.1026 O   0  0  0  0  0  0  0  0  0  0  0  0
    7.7078    8.2788   42.7641 C   0  0  0  0  0  0  0  0  0  0  0  0
    8.6685    8.9232   41.8572 N   0  0  0  0  0  0  0  0  0  0  0  0
    9.9903    8.2618   41.8157 C   0  0  0  0  0  0  0  0  0  0  0  0
   10.0140    6.9477   41.0168 C   0  0  0  0  0  0  0  0  0  0  0  0
    9.5115    7.1276   39.6880 O   0  0  0  0  0  0  0  0  0  0  0  0
    8.1884    7.6742   39.7100 C   0  0  0  0  0  0  0  0  0  0  0  0
    8.1474    9.0069   40.4751 C   0  0  0  0  0  0  0  0  0  0  0  0
 18 19  1  0
 19  1  1  0
  1  2  2  0
  2  3  1  0
  3  4  2  0
  4 20  1  0
 20 21  1  0
 21 22  1  0
 22 23  1  0
 23 24  1  0
 24 25  1  0
 25 26  1  0
  4  5  1  0
  5  6  1  0
  6  7  1  0
  6  8  2  0
  8  9  1  0
  9 10  1  0
 10 11  1  0
 11 12  2  0
 12 13  1  0
 13 14  1  0
 13 15  2  0
 15 16  1  0
 15  1  1  0
 12  3  1  0
 26 21  1  0
 10  5  2  0
  9 17  1  0
M  END
> <minimizedAffinity>
-7.91060

> <CNNscore>
0.1936051995

> <CNNaffinity>
6.0172290802

> <CNN_VS>
1.1649668217

> <CNNaffinity_variance>
0.3931926191

$$$$



 26 29  0  0  0  0  0  0  0  0999 V2000
    4.2247    8.7534   38.7632 C   0  0  0  0  0  0  0  0  0  0  0  0
    5.3047    8.0293   39.2693 C   0  0  0  0  0  0  0  0  0  0  0  0
    6.1629    8.5350   40.2774 C   0  0  0  0  0  0  0  0  0  0  0  0
    7.2764    7.7874   40.8093 C   0  0  0  0  0  0  0  0  0  0  0  0
    8.0415    8.4278   41.8148 C   0  0  0  0  0  0  0  0  0  0  0  0
    9.1789    8.1565   42.6398 C   0  0  0  0  0  0  0  0  0  0  0  0
   10.0165    6.9329   42.7084 C   0  0  0  0  0  0  0  0  0  0  0  0
    9.4781    9.1890   43.4456 N   0  0  0  0  0  0  0  0  0  0  0  0
    8.5352   10.0998   43.1528 N   0  0  0  0  0  0  0  0  0  0  0  0
    7.6607    9.6985   42.1902 C   0  0  0  0  0  0  0  0  0  0  0  0
    6.6410   10.4230   41.7233 N   0  0  0  0  0  0  0  0  0  0  0  0
    5.8971    9.8437   40.7773 C   0  0  0  0  0  0  0  0  0  0  0  0
    4.8132   10.5809   40.2716 C   0  0  0  0  0  0  0  0  0  0  0  0
    4.5321   11.9708   40.8046 C   0  0  0  0  0  0  0  0  0  0  0  0
    3.9835   10.0332   39.2700 C   0  0  0  0  0  0  0  0  0  0  0  0
    2.5021   11.0348   38.5799 Br  0  0  0  0  0  0  0  0  0  0  0  0
    8.4815   10.9781   43.5944 H   0  0  0  0  0  0  0  0  0  0  0  0
    3.1160    6.8987   37.7174 C   0  0  0  0  0  0  0  0  0  0  0  0
    3.3744    8.2938   37.7924 O   0  0  0  0  0  0  0  0  0  0  0  0
    7.6390    6.3907   40.3355 C   0  0  0  0  0  0  0  0  0  0  0  0
    8.7893    6.3741   39.4204 N   0  0  0  0  0  0  0  0  0  0  0  0
    9.4695    5.0639   39.3361 C   0  0  0  0  0  0  0  0  0  0  0  0
    8.7111    4.0108   38.5106 C   0  0  0  0  0  0  0  0  0  0  0  0
    8.4021    4.4906   37.1972 O   0  0  0  0  0  0  0  0  0  0  0  0
    7.6533    5.7093   37.2598 C   0  0  0  0  0  0  0  0  0  0  0  0
    8.4084    6.7887   38.0523 C   0  0  0  0  0  0  0  0  0  0  0  0
 18 19  1  0
 19  1  1  0
  1  2  2  0
  2  3  1  0
  3  4  2  0
  4 20  1  0
 20 21  1  0
 21 22  1  0
 22 23  1  0
 23 24  1  0
 24 25  1  0
 25 26  1  0
  4  5  1  0
  5  6  1  0
  6  7  1  0
  6  8  2  0
  8  9  1  0
  9 10  1  0
 10 11  1  0
 11 12  2  0
 12 13  1  0
 13 14  1  0
 13 15  2  0
 15 16  1  0
 15  1  1  0
 12  3  1  0
 26 21  1  0
 10  5  2  0
  9 17  1  0
M  END
> <minimizedAffinity>
-5.73530

> <CNNscore>
0.1838323623

> <CNNaffinity>
5.5375771523

> <CNN_VS>
1.0179859400

> <CNNaffinity_variance>
0.3547174037

$$$$



 26 29  0  0  0  0  0  0  0  0999 V2000
    8.8702    9.0451   42.8788 C   0  0  0  0  0  0  0  0  0  0  0  0
    8.0127   10.1139   43.1422 C   0  0  0  0  0  0  0  0  0  0  0  0
    7.4739   10.3666   44.4283 C   0  0  0  0  0  0  0  0  0  0  0  0
    6.5928   11.4747   44.7073 C   0  0  0  0  0  0  0  0  0  0  0  0
    6.1375   11.5956   46.0433 C   0  0  0  0  0  0  0  0  0  0  0  0
    5.3042   12.4586   46.8235 C   0  0  0  0  0  0  0  0  0  0  0  0
    4.5658   13.6770   46.4062 C   0  0  0  0  0  0  0  0  0  0  0  0
    5.2216   12.0612   48.1041 N   0  0  0  0  0  0  0  0  0  0  0  0
    6.0048   10.9707   48.1460 N   0  0  0  0  0  0  0  0  0  0  0  0
    6.5691   10.6507   46.9496 C   0  0  0  0  0  0  0  0  0  0  0  0
    7.3806    9.6129   46.7320 N   0  0  0  0  0  0  0  0  0  0  0  0
    7.8312    9.4752   45.4822 C   0  0  0  0  0  0  0  0  0  0  0  0
    8.6920    8.3948   45.2254 C   0  0  0  0  0  0  0  0  0  0  0  0
    9.0710    7.4493   46.3468 C   0  0  0  0  0  0  0  0  0  0  0  0
    9.2070    8.1860   43.9283 C   0  0  0  0  0  0  0  0  0  0  0  0
   10.3841    6.7151   43.5749 Br  0  0  0  0  0  0  0  0  0  0  0  0
    6.1568   10.4501   48.9677 H   0  0  0  0  0  0  0  0  0  0  0  0
   10.4912    9.5742   41.1890 C   0  0  0  0  0  0  0  0  0  0  0  0
    9.4110    8.7743   41.6496 O   0  0  0  0  0  0  0  0  0  0  0  0
    6.1537   12.4715   43.6490 C   0  0  0  0  0  0  0  0  0  0  0  0
    4.7808   12.2418   43.1766 N   0  0  0  0  0  0  0  0  0  0  0  0
    4.0286   13.4830   42.8937 C   0  0  0  0  0  0  0  0  0  0  0  0
    4.4341   14.1827   41.5854 C   0  0  0  0  0  0  0  0  0  0  0  0
    4.3577   13.2944   40.4649 O   0  0  0  0  0  0  0  0  0  0  0  0
    5.1629   12.1299   40.6781 C   0  0  0  0  0  0  0  0  0  0  0  0
    4.7521   11.3946   41.9640 C   0  0  0  0  0  0  0  0  0  0  0  0
 18 19  1  0
 19  1  1  0
  1  2  2  0
  2  3  1  0
  3  4  2  0
  4 20  1  0
 20 21  1  0
 21 22  1  0
 22 23  1  0
 23 24  1  0
 24 25  1  0
 25 26  1  0
  4  5  1  0
  5  6  1  0
  6  7  1  0
  6  8  2  0
  8  9  1  0
  9 10  1  0
 10 11  1  0
 11 12  2  0
 12 13  1  0
 13 14  1  0
 13 15  2  0
 15 16  1  0
 15  1  1  0
 12  3  1  0
 26 21  1  0
 10  5  2  0
  9 17  1  0
M  END
> <minimizedAffinity>
-7.58709

> <CNNscore>
0.1808933318

> <CNNaffinity>
5.9077057838

> <CNN_VS>
1.0686645508

> <CNNaffinity_variance>
0.5637597442

$$$$



 26 29  0  0  0  0  0  0  0  0999 V2000
    4.8641   12.6683   45.6240 C   0  0  0  0  0  0  0  0  0  0  0  0
    5.4219   11.5072   45.0877 C   0  0  0  0  0  0  0  0  0  0  0  0
    5.4709   11.2519   43.6945 C   0  0  0  0  0  0  0  0  0  0  0  0
    6.0532   10.0563   43.1347 C   0  0  0  0  0  0  0  0  0  0  0  0
    6.0281    9.9458   41.7227 C   0  0  0  0  0  0  0  0  0  0  0  0
    6.4470    9.0298   40.7061 C   0  0  0  0  0  0  0  0  0  0  0  0
    7.1512    7.7306   40.8475 C   0  0  0  0  0  0  0  0  0  0  0  0
    6.1355    9.4638   39.4734 N   0  0  0  0  0  0  0  0  0  0  0  0
    5.5424   10.6480   39.6977 N   0  0  0  0  0  0  0  0  0  0  0  0
    5.4514   10.9787   41.0147 C   0  0  0  0  0  0  0  0  0  0  0  0
    4.9022   12.0976   41.4934 N   0  0  0  0  0  0  0  0  0  0  0  0
    4.9156   12.2335   42.8220 C   0  0  0  0  0  0  0  0  0  0  0  0
    4.3496   13.4044   43.3536 C   0  0  0  0  0  0  0  0  0  0  0  0
    3.7607   14.4464   42.4248 C   0  0  0  0  0  0  0  0  0  0  0  0
    4.3274   13.6163   44.7486 C   0  0  0  0  0  0  0  0  0  0  0  0
    3.5589   15.2140   45.4771 Br  0  0  0  0  0  0  0  0  0  0  0  0
    5.2041   11.2245   38.9748 H   0  0  0  0  0  0  0  0  0  0  0  0
    3.6738   12.5038   47.7022 C   0  0  0  0  0  0  0  0  0  0  0  0
    4.8035   12.9479   46.9637 O   0  0  0  0  0  0  0  0  0  0  0  0
    6.6630    8.9550   43.9844 C   0  0  0  0  0  0  0  0  0  0  0  0
    7.8816    9.3794   44.6884 N   0  0  0  0  0  0  0  0  0  0  0  0
    8.2010    8.5631   45.8792 C   0  0  0  0  0  0  0  0  0  0  0  0
    8.7880    7.1785   45.5567 C   0  0  0  0  0  0  0  0  0  0  0  0
    9.9345    7.2757   44.7043 O   0  0  0  0  0  0  0  0  0  0  0  0
    9.6175    7.9767   43.4968 C   0  0  0  0  0  0  0  0  0  0  0  0
    9.0604    9.3782   43.7945 C   0  0  0  0  0  0  0  0  0  0  0  0
 18 19  1  0
 19  1  1  0
  1  2  2  0
  2  3  1  0
  3  4  2  0
  4 20  1  0
 20 21  1  0
 21 22  1  0
 22 23  1  0
 23 24  1  0
 24 25  1  0
 25 26  1  0
  4  5  1  0
  5  6  1  0
  6  7  1  0
  6  8  2  0
  8  9  1  0
  9 10  1  0
 10 11  1  0
 11 12  2  0
 12 13  1  0
 13 14  1  0
 13 15  2  0
 15 16  1  0
 15  1  1  0
 12  3  1  0
 26 21  1  0
 10  5  2  0
  9 17  1  0
M  END
> <minimizedAffinity>
-7.99945

> <CNNscore>
0.1543709338

> <CNNaffinity>
6.1768050194

> <CNN_VS>
0.9535191655

> <CNNaffinity_variance>
0.1011458263

$$$$
