


 27 30  0  0  0  0  0  0  0  0999 V2000
   14.7120    7.6925  -34.9220 C   0  0  0  0  0  0  0  0  0  0  0  0
   14.9130    8.7709  -35.7661 C   0  0  0  0  0  0  0  0  0  0  0  0
   16.2695    8.9791  -35.8641 N   0  0  0  0  0  0  0  0  0  0  0  0
   16.9516    8.0913  -35.1042 N   0  0  0  0  0  0  0  0  0  0  0  0
   16.0292    7.2872  -34.5633 C   0  0  0  0  0  0  0  0  0  0  0  0
   10.3797    8.6853  -35.1422 O   0  0  0  0  0  0  0  0  0  0  0  0
   11.3457    7.9463  -35.0958 C   0  0  0  0  0  0  0  0  0  0  0  0
   11.5315    6.8260  -35.8305 N   0  0  0  0  0  0  0  0  0  0  0  0
   12.7359    6.2561  -35.5470 C   0  0  0  0  0  0  0  0  0  0  0  0
   13.1691    5.2425  -36.0755 O   0  0  0  0  0  0  0  0  0  0  0  0
   13.4281    7.0965  -34.4690 C   0  0  0  0  0  0  0  0  0  0  0  0
   12.4365    8.1255  -34.2833 N   0  0  0  0  0  0  0  0  0  0  0  0
   10.8843    6.4707  -36.4818 H   0  0  0  0  0  0  0  0  0  0  0  0
   12.5309    8.8708  -33.6471 H   0  0  0  0  0  0  0  0  0  0  0  0
   16.4351    6.1862  -33.6949 C   0  0  0  0  0  0  0  0  0  0  0  0
   17.4362    6.3898  -32.7327 C   0  0  0  0  0  0  0  0  0  0  0  0
   17.8250    5.3475  -31.8889 C   0  0  0  0  0  0  0  0  0  0  0  0
   17.2185    4.1032  -32.0144 C   0  0  0  0  0  0  0  0  0  0  0  0
   17.5911    3.1033  -31.2051 F   0  0  0  0  0  0  0  0  0  0  0  0
   16.2355    3.8789  -32.9716 C   0  0  0  0  0  0  0  0  0  0  0  0
   15.8446    4.9202  -33.8169 C   0  0  0  0  0  0  0  0  0  0  0  0
   16.9535    9.9735  -36.6190 C   0  0  0  0  0  0  0  0  0  0  0  0
   16.3396   10.6170  -37.7030 C   0  0  0  0  0  0  0  0  0  0  0  0
   17.0369   11.5903  -38.4252 C   0  0  0  0  0  0  0  0  0  0  0  0
   18.3434   11.9258  -38.0738 C   0  0  0  0  0  0  0  0  0  0  0  0
   18.9598   11.2897  -36.9988 C   0  0  0  0  0  0  0  0  0  0  0  0
   18.2699   10.3168  -36.2724 C   0  0  0  0  0  0  0  0  0  0  0  0
  6  7  2  0
  7  8  1  0
  8  9  1  0
  9 10  2  0
  9 11  1  0
 11  1  1  0
  1  2  2  0
  2  3  1  0
  3 22  1  0
 22 23  2  0
 23 24  1  0
 24 25  2  0
 25 26  1  0
 26 27  2  0
  3  4  1  0
  4  5  2  0
  5 15  1  0
 15 16  2  0
 16 17  1  0
 17 18  2  0
 18 19  1  0
 18 20  1  0
 20 21  2  0
 11 12  1  0
 12  7  1  0
  5  1  1  0
 21 15  1  0
 27 22  1  0
  8 13  1  0
 12 14  1  0
M  END
> <minimizedAffinity>
-9.04433

> <CNNscore>
0.9719566107

> <CNNaffinity>
6.8917803764

> <CNN_VS>
6.6985116005

> <CNNaffinity_variance>
0.0398903973

$$$$



 27 30  0  0  0  0  0  0  0  0999 V2000
   14.5926    8.4250  -34.9869 C   0  0  0  0  0  0  0  0  0  0  0  0
   14.6840    7.3553  -34.1133 C   0  0  0  0  0  0  0  0  0  0  0  0
   16.0034    6.9686  -34.0609 N   0  0  0  0  0  0  0  0  0  0  0  0
   16.7644    7.7326  -34.8783 N   0  0  0  0  0  0  0  0  0  0  0  0
   15.9353    8.6373  -35.4112 C   0  0  0  0  0  0  0  0  0  0  0  0
   10.3243    7.5285  -35.8705 O   0  0  0  0  0  0  0  0  0  0  0  0
   11.2564    8.2112  -35.4879 C   0  0  0  0  0  0  0  0  0  0  0  0
   11.2750    8.9927  -34.3841 N   0  0  0  0  0  0  0  0  0  0  0  0
   12.4880    9.5954  -34.2389 C   0  0  0  0  0  0  0  0  0  0  0  0
   12.7888   10.3442  -33.3206 O   0  0  0  0  0  0  0  0  0  0  0  0
   13.3815    9.1752  -35.4104 C   0  0  0  0  0  0  0  0  0  0  0  0
   12.4737    8.3045  -36.1135 N   0  0  0  0  0  0  0  0  0  0  0  0
   10.5152    9.1099  -33.7691 H   0  0  0  0  0  0  0  0  0  0  0  0
   12.7008    7.8314  -36.9465 H   0  0  0  0  0  0  0  0  0  0  0  0
   16.4467    9.6466  -36.3337 C   0  0  0  0  0  0  0  0  0  0  0  0
   15.6437   10.0918  -37.3950 C   0  0  0  0  0  0  0  0  0  0  0  0
   16.1176   11.0648  -38.2772 C   0  0  0  0  0  0  0  0  0  0  0  0
   17.3949   11.5839  -38.1013 C   0  0  0  0  0  0  0  0  0  0  0  0
   17.8497   12.5173  -38.9471 F   0  0  0  0  0  0  0  0  0  0  0  0
   18.2100   11.1443  -37.0644 C   0  0  0  0  0  0  0  0  0  0  0  0
   17.7381   10.1710  -36.1803 C   0  0  0  0  0  0  0  0  0  0  0  0
   16.5803    5.9142  -33.2982 C   0  0  0  0  0  0  0  0  0  0  0  0
   17.7758    6.0968  -32.5888 C   0  0  0  0  0  0  0  0  0  0  0  0
   18.3179    5.0421  -31.8479 C   0  0  0  0  0  0  0  0  0  0  0  0
   17.6755    3.8056  -31.8102 C   0  0  0  0  0  0  0  0  0  0  0  0
   16.4881    3.6168  -32.5134 C   0  0  0  0  0  0  0  0  0  0  0  0
   15.9403    4.6653  -33.2556 C   0  0  0  0  0  0  0  0  0  0  0  0
  6  7  2  0
  7  8  1  0
  8  9  1  0
  9 10  2  0
  9 11  1  0
 11  1  1  0
  1  2  2  0
  2  3  1  0
  3 22  1  0
 22 23  2  0
 23 24  1  0
 24 25  2  0
 25 26  1  0
 26 27  2  0
  3  4  1  0
  4  5  2  0
  5 15  1  0
 15 16  2  0
 16 17  1  0
 17 18  2  0
 18 19  1  0
 18 20  1  0
 20 21  2  0
 11 12  1  0
 12  7  1  0
  5  1  1  0
 21 15  1  0
 27 22  1  0
  8 13  1  0
 12 14  1  0
M  END
> <minimizedAffinity>
-8.59228

> <CNNscore>
0.7987118959

> <CNNaffinity>
6.3496131897

> <CNN_VS>
5.0715117455

> <CNNaffinity_variance>
0.0035809574

$$$$



 27 30  0  0  0  0  0  0  0  0999 V2000
    9.8263   10.0079  -35.0234 C   0  0  0  0  0  0  0  0  0  0  0  0
    8.5579    9.4586  -34.9513 C   0  0  0  0  0  0  0  0  0  0  0  0
    8.6723    8.1078  -35.1863 N   0  0  0  0  0  0  0  0  0  0  0  0
    9.9594    7.7653  -35.4248 N   0  0  0  0  0  0  0  0  0  0  0  0
   10.6691    8.8916  -35.2912 C   0  0  0  0  0  0  0  0  0  0  0  0
    8.1883   13.7063  -33.1683 O   0  0  0  0  0  0  0  0  0  0  0  0
    9.0651   12.9481  -33.5394 C   0  0  0  0  0  0  0  0  0  0  0  0
   10.1873   12.6276  -32.8558 N   0  0  0  0  0  0  0  0  0  0  0  0
   10.9371   11.7282  -33.5518 C   0  0  0  0  0  0  0  0  0  0  0  0
   11.9949   11.2540  -33.1637 O   0  0  0  0  0  0  0  0  0  0  0  0
   10.2301   11.4308  -34.8781 C   0  0  0  0  0  0  0  0  0  0  0  0
    9.0669   12.2687  -34.7312 N   0  0  0  0  0  0  0  0  0  0  0  0
   10.4293   12.9945  -31.9748 H   0  0  0  0  0  0  0  0  0  0  0  0
    8.3557   12.3447  -35.4078 H   0  0  0  0  0  0  0  0  0  0  0  0
   12.1189    8.8690  -35.4609 C   0  0  0  0  0  0  0  0  0  0  0  0
   12.7317    9.7721  -36.3431 C   0  0  0  0  0  0  0  0  0  0  0  0
   14.1185    9.7676  -36.5053 C   0  0  0  0  0  0  0  0  0  0  0  0
   14.8877    8.8557  -35.7921 C   0  0  0  0  0  0  0  0  0  0  0  0
   16.2179    8.8512  -35.9474 F   0  0  0  0  0  0  0  0  0  0  0  0
   14.2968    7.9439  -34.9248 C   0  0  0  0  0  0  0  0  0  0  0  0
   12.9094    7.9465  -34.7607 C   0  0  0  0  0  0  0  0  0  0  0  0
    7.6381    7.1300  -35.2130 C   0  0  0  0  0  0  0  0  0  0  0  0
    6.7935    6.9919  -36.3237 C   0  0  0  0  0  0  0  0  0  0  0  0
    5.7866    6.0215  -36.3207 C   0  0  0  0  0  0  0  0  0  0  0  0
    5.6162    5.1879  -35.2166 C   0  0  0  0  0  0  0  0  0  0  0  0
    6.4509    5.3204  -34.1094 C   0  0  0  0  0  0  0  0  0  0  0  0
    7.4588    6.2869  -34.1048 C   0  0  0  0  0  0  0  0  0  0  0  0
  6  7  2  0
  7  8  1  0
  8  9  1  0
  9 10  2  0
  9 11  1  0
 11  1  1  0
  1  2  2  0
  2  3  1  0
  3 22  1  0
 22 23  2  0
 23 24  1  0
 24 25  2  0
 25 26  1  0
 26 27  2  0
  3  4  1  0
  4  5  2  0
  5 15  1  0
 15 16  2  0
 16 17  1  0
 17 18  2  0
 18 19  1  0
 18 20  1  0
 20 21  2  0
 11 12  1  0
 12  7  1  0
  5  1  1  0
 21 15  1  0
 27 22  1  0
  8 13  1  0
 12 14  1  0
M  END
> <minimizedAffinity>
-7.50661

> <CNNscore>
0.5174810886

> <CNNaffinity>
5.1727180481

> <CNN_VS>
2.6767838001

> <CNNaffinity_variance>
0.0711792409

$$$$



 27 30  0  0  0  0  0  0  0  0999 V2000
   11.2822    9.9190  -35.0329 C   0  0  0  0  0  0  0  0  0  0  0  0
   12.6158    9.6653  -34.7630 C   0  0  0  0  0  0  0  0  0  0  0  0
   12.8300    8.3177  -34.9391 N   0  0  0  0  0  0  0  0  0  0  0  0
   11.6860    7.6881  -35.2939 N   0  0  0  0  0  0  0  0  0  0  0  0
   10.7564    8.6452  -35.3921 C   0  0  0  0  0  0  0  0  0  0  0  0
    7.4721   11.4197  -33.2912 O   0  0  0  0  0  0  0  0  0  0  0  0
    8.6324   11.4980  -33.6502 C   0  0  0  0  0  0  0  0  0  0  0  0
    9.6385   12.1021  -32.9777 N   0  0  0  0  0  0  0  0  0  0  0  0
   10.8148   11.9773  -33.6532 C   0  0  0  0  0  0  0  0  0  0  0  0
   11.8893   12.4154  -33.2685 O   0  0  0  0  0  0  0  0  0  0  0  0
   10.5490   11.2092  -34.9520 C   0  0  0  0  0  0  0  0  0  0  0  0
    9.1341   10.9732  -34.8142 N   0  0  0  0  0  0  0  0  0  0  0  0
    9.5347   12.5687  -32.1170 H   0  0  0  0  0  0  0  0  0  0  0  0
    8.5905   10.4911  -35.4785 H   0  0  0  0  0  0  0  0  0  0  0  0
    9.3930    8.3049  -35.7878 C   0  0  0  0  0  0  0  0  0  0  0  0
    8.5817    7.5566  -34.9211 C   0  0  0  0  0  0  0  0  0  0  0  0
    7.2724    7.2347  -35.2837 C   0  0  0  0  0  0  0  0  0  0  0  0
    6.7805    7.6540  -36.5141 C   0  0  0  0  0  0  0  0  0  0  0  0
    5.5246    7.3455  -36.8622 F   0  0  0  0  0  0  0  0  0  0  0  0
    7.5744    8.3836  -37.3919 C   0  0  0  0  0  0  0  0  0  0  0  0
    8.8847    8.7071  -37.0313 C   0  0  0  0  0  0  0  0  0  0  0  0
   14.0442    7.5925  -34.7773 C   0  0  0  0  0  0  0  0  0  0  0  0
   15.2220    8.2266  -34.3567 C   0  0  0  0  0  0  0  0  0  0  0  0
   16.3993    7.4874  -34.2064 C   0  0  0  0  0  0  0  0  0  0  0  0
   16.4101    6.1193  -34.4734 C   0  0  0  0  0  0  0  0  0  0  0  0
   15.2440    5.4832  -34.8926 C   0  0  0  0  0  0  0  0  0  0  0  0
   14.0641    6.2145  -35.0450 C   0  0  0  0  0  0  0  0  0  0  0  0
  6  7  2  0
  7  8  1  0
  8  9  1  0
  9 10  2  0
  9 11  1  0
 11  1  1  0
  1  2  2  0
  2  3  1  0
  3 22  1  0
 22 23  2  0
 23 24  1  0
 24 25  2  0
 25 26  1  0
 26 27  2  0
  3  4  1  0
  4  5  2  0
  5 15  1  0
 15 16  2  0
 16 17  1  0
 17 18  2  0
 18 19  1  0
 18 20  1  0
 20 21  2  0
 11 12  1  0
 12  7  1  0
  5  1  1  0
 21 15  1  0
 27 22  1  0
  8 13  1  0
 12 14  1  0
M  END
> <minimizedAffinity>
-8.30664

> <CNNscore>
0.4338106215

> <CNNaffinity>
5.1391563416

> <CNN_VS>
2.2294206619

> <CNNaffinity_variance>
0.1633570343

$$$$



 27 30  0  0  0  0  0  0  0  0999 V2000
   13.1415    8.5937  -35.6484 C   0  0  0  0  0  0  0  0  0  0  0  0
   13.5067    7.6210  -34.7339 C   0  0  0  0  0  0  0  0  0  0  0  0
   14.8811    7.5926  -34.6787 N   0  0  0  0  0  0  0  0  0  0  0  0
   15.4185    8.4940  -35.5329 N   0  0  0  0  0  0  0  0  0  0  0  0
   14.3834    9.1299  -36.0934 C   0  0  0  0  0  0  0  0  0  0  0  0
    8.9770    7.1134  -35.1304 O   0  0  0  0  0  0  0  0  0  0  0  0
    9.8415    7.9553  -35.2894 C   0  0  0  0  0  0  0  0  0  0  0  0
    9.9142    9.1541  -34.6674 N   0  0  0  0  0  0  0  0  0  0  0  0
   11.0273    9.8351  -35.0588 C   0  0  0  0  0  0  0  0  0  0  0  0
   11.3508   10.9387  -34.6445 O   0  0  0  0  0  0  0  0  0  0  0  0
   11.7776    8.9858  -36.0899 C   0  0  0  0  0  0  0  0  0  0  0  0
   10.9150    7.8323  -36.1346 N   0  0  0  0  0  0  0  0  0  0  0  0
    9.2527    9.4891  -34.0198 H   0  0  0  0  0  0  0  0  0  0  0  0
   11.0773    7.0470  -36.7057 H   0  0  0  0  0  0  0  0  0  0  0  0
   14.6162   10.1988  -37.0601 C   0  0  0  0  0  0  0  0  0  0  0  0
   15.8061   10.2192  -37.8039 C   0  0  0  0  0  0  0  0  0  0  0  0
   16.0351   11.2301  -38.7394 C   0  0  0  0  0  0  0  0  0  0  0  0
   15.0786   12.2216  -38.9231 C   0  0  0  0  0  0  0  0  0  0  0  0
   15.2979   13.1913  -39.8205 F   0  0  0  0  0  0  0  0  0  0  0  0
   13.9005   12.2259  -38.1849 C   0  0  0  0  0  0  0  0  0  0  0  0
   13.6690   11.2155  -37.2484 C   0  0  0  0  0  0  0  0  0  0  0  0
   15.7113    6.7561  -33.8802 C   0  0  0  0  0  0  0  0  0  0  0  0
   16.9982    7.1589  -33.4959 C   0  0  0  0  0  0  0  0  0  0  0  0
   17.7900    6.3154  -32.7106 C   0  0  0  0  0  0  0  0  0  0  0  0
   17.3070    5.0720  -32.3063 C   0  0  0  0  0  0  0  0  0  0  0  0
   16.0299    4.6650  -32.6854 C   0  0  0  0  0  0  0  0  0  0  0  0
   15.2329    5.5017  -33.4695 C   0  0  0  0  0  0  0  0  0  0  0  0
  6  7  2  0
  7  8  1  0
  8  9  1  0
  9 10  2  0
  9 11  1  0
 11  1  1  0
  1  2  2  0
  2  3  1  0
  3 22  1  0
 22 23  2  0
 23 24  1  0
 24 25  2  0
 25 26  1  0
 26 27  2  0
  3  4  1  0
  4  5  2  0
  5 15  1  0
 15 16  2  0
 16 17  1  0
 17 18  2  0
 18 19  1  0
 18 20  1  0
 20 21  2  0
 11 12  1  0
 12  7  1  0
  5  1  1  0
 21 15  1  0
 27 22  1  0
  8 13  1  0
 12 14  1  0
M  END
> <minimizedAffinity>
-7.57159

> <CNNscore>
0.3731581867

> <CNNaffinity>
5.8929100037

> <CNN_VS>
2.1989877224

> <CNNaffinity_variance>
0.0234786794

$$$$



 27 30  0  0  0  0  0  0  0  0999 V2000
   11.4474    9.6867  -34.7862 C   0  0  0  0  0  0  0  0  0  0  0  0
   12.7856    9.4206  -34.5536 C   0  0  0  0  0  0  0  0  0  0  0  0
   13.0031    8.0910  -34.8327 N   0  0  0  0  0  0  0  0  0  0  0  0
   11.8571    7.4837  -35.2185 N   0  0  0  0  0  0  0  0  0  0  0  0
   10.9222    8.4406  -35.2327 C   0  0  0  0  0  0  0  0  0  0  0  0
   12.4134   13.9123  -33.7793 O   0  0  0  0  0  0  0  0  0  0  0  0
   11.7838   13.0165  -34.3108 C   0  0  0  0  0  0  0  0  0  0  0  0
   11.3199   13.0099  -35.5813 N   0  0  0  0  0  0  0  0  0  0  0  0
   10.6829   11.8378  -35.8573 C   0  0  0  0  0  0  0  0  0  0  0  0
   10.1797   11.5549  -36.9348 O   0  0  0  0  0  0  0  0  0  0  0  0
   10.7099   10.9635  -34.5994 C   0  0  0  0  0  0  0  0  0  0  0  0
   11.4345   11.8343  -33.7088 N   0  0  0  0  0  0  0  0  0  0  0  0
   11.4280   13.7513  -36.2199 H   0  0  0  0  0  0  0  0  0  0  0  0
   11.6534   11.6072  -32.7762 H   0  0  0  0  0  0  0  0  0  0  0  0
    9.5550    8.1237  -35.6348 C   0  0  0  0  0  0  0  0  0  0  0  0
    9.0522    8.6201  -36.8473 C   0  0  0  0  0  0  0  0  0  0  0  0
    7.7500    8.3145  -37.2480 C   0  0  0  0  0  0  0  0  0  0  0  0
    6.9518    7.5210  -36.4325 C   0  0  0  0  0  0  0  0  0  0  0  0
    5.7028    7.2276  -36.8165 F   0  0  0  0  0  0  0  0  0  0  0  0
    7.4279    7.0325  -35.2211 C   0  0  0  0  0  0  0  0  0  0  0  0
    8.7305    7.3367  -34.8181 C   0  0  0  0  0  0  0  0  0  0  0  0
   14.2225    7.3622  -34.7416 C   0  0  0  0  0  0  0  0  0  0  0  0
   14.2760    5.9910  -35.0299 C   0  0  0  0  0  0  0  0  0  0  0  0
   15.4889    5.3022  -34.9319 C   0  0  0  0  0  0  0  0  0  0  0  0
   16.6493    5.9720  -34.5476 C   0  0  0  0  0  0  0  0  0  0  0  0
   16.6033    7.3339  -34.2587 C   0  0  0  0  0  0  0  0  0  0  0  0
   15.3958    8.0288  -34.3543 C   0  0  0  0  0  0  0  0  0  0  0  0
  6  7  2  0
  7  8  1  0
  8  9  1  0
  9 10  2  0
  9 11  1  0
 11  1  1  0
  1  2  2  0
  2  3  1  0
  3 22  1  0
 22 23  2  0
 23 24  1  0
 24 25  2  0
 25 26  1  0
 26 27  2  0
  3  4  1  0
  4  5  2  0
  5 15  1  0
 15 16  2  0
 16 17  1  0
 17 18  2  0
 18 19  1  0
 18 20  1  0
 20 21  2  0
 11 12  1  0
 12  7  1  0
  5  1  1  0
 21 15  1  0
 27 22  1  0
  8 13  1  0
 12 14  1  0
M  END
> <minimizedAffinity>
-8.04134

> <CNNscore>
0.3432162404

> <CNNaffinity>
5.3914446831

> <CNN_VS>
1.8504313231

> <CNNaffinity_variance>
0.0467958190

$$$$



 27 30  0  0  0  0  0  0  0  0999 V2000
    9.2693    9.7928  -35.6694 C   0  0  0  0  0  0  0  0  0  0  0  0
    7.9635    9.3348  -35.6379 C   0  0  0  0  0  0  0  0  0  0  0  0
    7.9848    8.0398  -35.1734 N   0  0  0  0  0  0  0  0  0  0  0  0
    9.2517    7.6370  -34.9210 N   0  0  0  0  0  0  0  0  0  0  0  0
   10.0304    8.6942  -35.1776 C   0  0  0  0  0  0  0  0  0  0  0  0
   12.1896   12.8434  -34.2664 O   0  0  0  0  0  0  0  0  0  0  0  0
   11.5630   12.2084  -35.0943 C   0  0  0  0  0  0  0  0  0  0  0  0
   12.0521   11.6942  -36.2458 N   0  0  0  0  0  0  0  0  0  0  0  0
   11.0834   11.0165  -36.9225 C   0  0  0  0  0  0  0  0  0  0  0  0
   11.2510   10.4386  -37.9866 O   0  0  0  0  0  0  0  0  0  0  0  0
    9.7781   11.1124  -36.1261 C   0  0  0  0  0  0  0  0  0  0  0  0
   10.2317   11.8906  -35.0012 N   0  0  0  0  0  0  0  0  0  0  0  0
   12.9819   11.7960  -36.5530 H   0  0  0  0  0  0  0  0  0  0  0  0
    9.6531   12.1627  -34.2525 H   0  0  0  0  0  0  0  0  0  0  0  0
   11.4742    8.6062  -34.9806 C   0  0  0  0  0  0  0  0  0  0  0  0
   12.2458    7.7990  -35.8306 C   0  0  0  0  0  0  0  0  0  0  0  0
   13.6290    7.7156  -35.6592 C   0  0  0  0  0  0  0  0  0  0  0  0
   14.2357    8.4321  -34.6343 C   0  0  0  0  0  0  0  0  0  0  0  0
   15.5624    8.3525  -34.4696 F   0  0  0  0  0  0  0  0  0  0  0  0
   13.4856    9.2253  -33.7734 C   0  0  0  0  0  0  0  0  0  0  0  0
   12.1016    9.3105  -33.9431 C   0  0  0  0  0  0  0  0  0  0  0  0
    6.8835    7.1612  -34.9700 C   0  0  0  0  0  0  0  0  0  0  0  0
    5.6116    7.4553  -35.4818 C   0  0  0  0  0  0  0  0  0  0  0  0
    4.5492    6.5721  -35.2660 C   0  0  0  0  0  0  0  0  0  0  0  0
    4.7468    5.3973  -34.5424 C   0  0  0  0  0  0  0  0  0  0  0  0
    6.0074    5.0993  -34.0301 C   0  0  0  0  0  0  0  0  0  0  0  0
    7.0735    5.9762  -34.2415 C   0  0  0  0  0  0  0  0  0  0  0  0
  6  7  2  0
  7  8  1  0
  8  9  1  0
  9 10  2  0
  9 11  1  0
 11  1  1  0
  1  2  2  0
  2  3  1  0
  3 22  1  0
 22 23  2  0
 23 24  1  0
 24 25  2  0
 25 26  1  0
 26 27  2  0
  3  4  1  0
  4  5  2  0
  5 15  1  0
 15 16  2  0
 16 17  1  0
 17 18  2  0
 18 19  1  0
 18 20  1  0
 20 21  2  0
 11 12  1  0
 12  7  1  0
  5  1  1  0
 21 15  1  0
 27 22  1  0
  8 13  1  0
 12 14  1  0
M  END
> <minimizedAffinity>
-5.60451

> <CNNscore>
0.3166154325

> <CNNaffinity>
4.3261799812

> <CNN_VS>
1.3697353601

> <CNNaffinity_variance>
0.2265850455

$$$$



 27 30  0  0  0  0  0  0  0  0999 V2000
   11.1696    8.3174  -35.4356 C   0  0  0  0  0  0  0  0  0  0  0  0
   12.1675    7.3617  -35.3537 C   0  0  0  0  0  0  0  0  0  0  0  0
   13.3150    7.9896  -34.9269 N   0  0  0  0  0  0  0  0  0  0  0  0
   13.1037    9.3140  -34.7473 N   0  0  0  0  0  0  0  0  0  0  0  0
   11.8082    9.5176  -35.0119 C   0  0  0  0  0  0  0  0  0  0  0  0
    7.1194    9.4486  -33.9799 O   0  0  0  0  0  0  0  0  0  0  0  0
    7.9659    9.2019  -34.8190 C   0  0  0  0  0  0  0  0  0  0  0  0
    8.1783    9.8865  -35.9660 N   0  0  0  0  0  0  0  0  0  0  0  0
    9.2246    9.3565  -36.6587 C   0  0  0  0  0  0  0  0  0  0  0  0
    9.6452    9.7863  -37.7230 O   0  0  0  0  0  0  0  0  0  0  0  0
    9.7610    8.1512  -35.8796 C   0  0  0  0  0  0  0  0  0  0  0  0
    8.8725    8.1750  -34.7453 N   0  0  0  0  0  0  0  0  0  0  0  0
    7.6486   10.6625  -36.2602 H   0  0  0  0  0  0  0  0  0  0  0  0
    8.9117    7.5291  -34.0033 H   0  0  0  0  0  0  0  0  0  0  0  0
   11.2360   10.8549  -34.8875 C   0  0  0  0  0  0  0  0  0  0  0  0
   11.4586   11.8050  -35.8961 C   0  0  0  0  0  0  0  0  0  0  0  0
   10.9072   13.0837  -35.7938 C   0  0  0  0  0  0  0  0  0  0  0  0
   10.1424   13.4118  -34.6806 C   0  0  0  0  0  0  0  0  0  0  0  0
    9.6133   14.6381  -34.5822 F   0  0  0  0  0  0  0  0  0  0  0  0
    9.9235   12.4884  -33.6646 C   0  0  0  0  0  0  0  0  0  0  0  0
   10.4739   11.2083  -33.7648 C   0  0  0  0  0  0  0  0  0  0  0  0
   14.5965    7.4151  -34.6949 C   0  0  0  0  0  0  0  0  0  0  0  0
   14.8190    6.0399  -34.8542 C   0  0  0  0  0  0  0  0  0  0  0  0
   16.0894    5.5048  -34.6195 C   0  0  0  0  0  0  0  0  0  0  0  0
   17.1398    6.3324  -34.2262 C   0  0  0  0  0  0  0  0  0  0  0  0
   16.9256    7.6993  -34.0649 C   0  0  0  0  0  0  0  0  0  0  0  0
   15.6598    8.2413  -34.2975 C   0  0  0  0  0  0  0  0  0  0  0  0
  6  7  2  0
  7  8  1  0
  8  9  1  0
  9 10  2  0
  9 11  1  0
 11  1  1  0
  1  2  2  0
  2  3  1  0
  3 22  1  0
 22 23  2  0
 23 24  1  0
 24 25  2  0
 25 26  1  0
 26 27  2  0
  3  4  1  0
  4  5  2  0
  5 15  1  0
 15 16  2  0
 16 17  1  0
 17 18  2  0
 18 19  1  0
 18 20  1  0
 20 21  2  0
 11 12  1  0
 12  7  1  0
  5  1  1  0
 21 15  1  0
 27 22  1  0
  8 13  1  0
 12 14  1  0
M  END
> <minimizedAffinity>
-7.39391

> <CNNscore>
0.3098901212

> <CNNaffinity>
5.0675067902

> <CNN_VS>
1.5703703165

> <CNNaffinity_variance>
0.2520476282

$$$$



 27 30  0  0  0  0  0  0  0  0999 V2000
   11.6335    8.5121  -35.7361 C   0  0  0  0  0  0  0  0  0  0  0  0
   12.3859    7.5850  -35.0360 C   0  0  0  0  0  0  0  0  0  0  0  0
   13.6776    8.0546  -34.9737 N   0  0  0  0  0  0  0  0  0  0  0  0
   13.7940    9.2377  -35.6200 N   0  0  0  0  0  0  0  0  0  0  0  0
   12.5643    9.5433  -36.0494 C   0  0  0  0  0  0  0  0  0  0  0  0
    7.9820    6.3887  -34.3360 O   0  0  0  0  0  0  0  0  0  0  0  0
    8.6083    7.3117  -34.8230 C   0  0  0  0  0  0  0  0  0  0  0  0
    8.4217    8.6270  -34.5688 N   0  0  0  0  0  0  0  0  0  0  0  0
    9.3156    9.3851  -35.2629 C   0  0  0  0  0  0  0  0  0  0  0  0
    9.3843   10.6045  -35.2105 O   0  0  0  0  0  0  0  0  0  0  0  0
   10.1943    8.4518  -36.1021 C   0  0  0  0  0  0  0  0  0  0  0  0
    9.6345    7.1790  -35.7238 N   0  0  0  0  0  0  0  0  0  0  0  0
    7.7333    8.9875  -33.9643 H   0  0  0  0  0  0  0  0  0  0  0  0
    9.9517    6.3143  -36.0715 H   0  0  0  0  0  0  0  0  0  0  0  0
   12.3295   10.7882  -36.7747 C   0  0  0  0  0  0  0  0  0  0  0  0
   12.1053   10.7565  -38.1597 C   0  0  0  0  0  0  0  0  0  0  0  0
   11.8683   11.9395  -38.8624 C   0  0  0  0  0  0  0  0  0  0  0  0
   11.8643   13.1509  -38.1810 C   0  0  0  0  0  0  0  0  0  0  0  0
   11.6369   14.2858  -38.8547 F   0  0  0  0  0  0  0  0  0  0  0  0
   12.0990   13.2032  -36.8117 C   0  0  0  0  0  0  0  0  0  0  0  0
   12.3361   12.0209  -36.1063 C   0  0  0  0  0  0  0  0  0  0  0  0
   14.8052    7.4451  -34.3545 C   0  0  0  0  0  0  0  0  0  0  0  0
   15.9779    8.1702  -34.0995 C   0  0  0  0  0  0  0  0  0  0  0  0
   17.0691    7.5439  -33.4893 C   0  0  0  0  0  0  0  0  0  0  0  0
   16.9986    6.1985  -33.1320 C   0  0  0  0  0  0  0  0  0  0  0  0
   15.8372    5.4718  -33.3834 C   0  0  0  0  0  0  0  0  0  0  0  0
   14.7431    6.0901  -33.9924 C   0  0  0  0  0  0  0  0  0  0  0  0
  6  7  2  0
  7  8  1  0
  8  9  1  0
  9 10  2  0
  9 11  1  0
 11  1  1  0
  1  2  2  0
  2  3  1  0
  3 22  1  0
 22 23  2  0
 23 24  1  0
 24 25  2  0
 25 26  1  0
 26 27  2  0
  3  4  1  0
  4  5  2  0
  5 15  1  0
 15 16  2  0
 16 17  1  0
 17 18  2  0
 18 19  1  0
 18 20  1  0
 20 21  2  0
 11 12  1  0
 12  7  1  0
  5  1  1  0
 21 15  1  0
 27 22  1  0
  8 13  1  0
 12 14  1  0
M  END
> <minimizedAffinity>
-7.29520

> <CNNscore>
0.2568672895

> <CNNaffinity>
5.4378952980

> <CNN_VS>
1.3968174458

> <CNNaffinity_variance>
0.0492162295

$$$$
