


 27 28  0  0  0  0  0  0  0  0999 V2000
  -10.5546   15.3831   20.0810 C   0  0  0  0  0  0  0  0  0  0  0  0
   -9.0374   15.1070   20.0214 C   0  0  0  0  0  0  0  0  0  0  0  0
   -8.2931   16.2931   19.7079 O   0  0  0  0  0  0  0  0  0  0  0  0
   -7.3052   16.5300   20.7334 C   0  0  0  0  0  0  0  0  0  0  0  0
   -7.7102   15.6532   21.9202 C   0  0  0  0  0  0  0  0  0  0  0  0
   -8.4895   14.5090   21.3120 C   0  0  0  0  0  0  0  0  0  0  0  0
   -9.4595   14.0679   22.2518 O   0  0  0  0  0  0  0  0  0  0  0  0
  -10.5845   13.3823   21.7036 C   0  0  0  0  0  0  0  0  0  0  0  0
  -11.1863   14.0158   20.4357 C   0  0  0  0  0  0  0  0  0  0  0  0
  -12.6132   14.0308   20.4976 O   0  0  0  0  0  0  0  0  0  0  0  0
  -12.8990   14.5896   21.2371 H   0  0  0  0  0  0  0  0  0  0  0  0
   -7.2939   17.9887   21.2142 C   0  0  0  0  0  0  0  0  0  0  0  0
   -8.0849   18.8601   20.8821 O   0  0  0  0  0  0  0  0  0  0  0  0
   -6.2579   18.2882   22.0286 O   0  0  0  0  0  0  0  0  0  0  0  0
   -5.6527   17.6193   22.2821 H   0  0  0  0  0  0  0  0  0  0  0  0
  -11.7963   16.2173   22.0420 C   0  0  0  0  0  0  0  0  0  0  0  0
  -10.8352   16.5133   20.9951 N   0  0  0  0  0  0  0  0  0  0  0  0
   -9.9587   16.7909   21.4367 H   0  0  0  0  0  0  0  0  0  0  0  0
   -5.9305   16.1171   20.1683 C   0  0  0  0  0  0  0  0  0  0  0  0
   -5.9376   15.3883   18.8090 C   0  0  0  0  0  0  0  0  0  0  0  0
   -6.3523   13.9750   18.9110 N   0  0  0  0  0  0  0  0  0  0  0  0
   -5.6890   13.4674   19.4964 H   0  0  0  0  0  0  0  0  0  0  0  0
   -6.3723   13.5585   17.9801 H   0  0  0  0  0  0  0  0  0  0  0  0
   -4.5379   15.4949   18.1773 C   0  0  0  0  0  0  0  0  0  0  0  0
   -3.7610   16.4309   18.2776 O   0  0  0  0  0  0  0  0  0  0  0  0
   -4.2078   14.4207   17.4225 O   0  0  0  0  0  0  0  0  0  0  0  0
   -4.8036   13.7017   17.3449 H   0  0  0  0  0  0  0  0  0  0  0  0
 16 17  1  0
  1 17  1  0
  1  2  1  0
  2  3  1  0
  3  4  1  0
  4 19  1  0
 19 20  1  0
 20 21  1  0
 20 24  1  0
 24 25  2  0
 24 26  1  0
  4 12  1  0
 12 13  2  0
 12 14  1  0
  4  5  1  0
  6  5  1  0
  6  7  1  0
  7  8  1  0
  8  9  1  0
  9 10  1  0
  9  1  1  0
  6  2  1  0
 17 18  1  0
 21 22  1  0
 21 23  1  0
 26 27  1  0
 14 15  1  0
 10 11  1  0
M  END
> <minimizedAffinity>
-8.11533

> <CNNscore>
0.8725731969

> <CNNaffinity>
7.0068912506

> <CNN_VS>
6.1140255928

> <CNNaffinity_variance>
0.8490149379

$$$$



 27 28  0  0  0  0  0  0  0  0999 V2000
   -9.0168   13.4690   21.2325 C   0  0  0  0  0  0  0  0  0  0  0  0
   -8.4197   14.8904   21.1659 C   0  0  0  0  0  0  0  0  0  0  0  0
   -7.0420   14.8701   20.7652 O   0  0  0  0  0  0  0  0  0  0  0  0
   -6.8636   15.7060   19.6020 C   0  0  0  0  0  0  0  0  0  0  0  0
   -8.2660   15.9573   19.0438 C   0  0  0  0  0  0  0  0  0  0  0  0
   -9.1900   15.8172   20.2325 C   0  0  0  0  0  0  0  0  0  0  0  0
  -10.4469   15.3349   19.7783 O   0  0  0  0  0  0  0  0  0  0  0  0
  -11.2452   14.6716   20.7575 C   0  0  0  0  0  0  0  0  0  0  0  0
  -10.4874   13.6835   21.6634 C   0  0  0  0  0  0  0  0  0  0  0  0
  -11.2275   12.4739   21.8350 O   0  0  0  0  0  0  0  0  0  0  0  0
  -11.3250   12.0302   20.9780 H   0  0  0  0  0  0  0  0  0  0  0  0
   -6.0410   15.0176   18.5027 C   0  0  0  0  0  0  0  0  0  0  0  0
   -5.0956   15.5068   17.9009 O   0  0  0  0  0  0  0  0  0  0  0  0
   -6.4888   13.7854   18.1749 O   0  0  0  0  0  0  0  0  0  0  0  0
   -7.2134   13.4120   18.6370 H   0  0  0  0  0  0  0  0  0  0  0  0
   -8.8039   11.3070   20.0647 C   0  0  0  0  0  0  0  0  0  0  0  0
   -8.7851   12.7545   19.9568 N   0  0  0  0  0  0  0  0  0  0  0  0
   -9.5123   13.0342   19.2986 H   0  0  0  0  0  0  0  0  0  0  0  0
   -6.1947   17.0177   20.0620 C   0  0  0  0  0  0  0  0  0  0  0  0
   -6.6253   17.5619   21.4394 C   0  0  0  0  0  0  0  0  0  0  0  0
   -7.0522   16.5016   22.3740 N   0  0  0  0  0  0  0  0  0  0  0  0
   -7.8694   16.0231   21.9950 H   0  0  0  0  0  0  0  0  0  0  0  0
   -7.2891   16.9176   23.2747 H   0  0  0  0  0  0  0  0  0  0  0  0
   -7.7528   18.5907   21.2402 C   0  0  0  0  0  0  0  0  0  0  0  0
   -8.9345   18.4392   21.5054 O   0  0  0  0  0  0  0  0  0  0  0  0
   -7.3284   19.7494   20.6835 O   0  0  0  0  0  0  0  0  0  0  0  0
   -6.4214   19.8666   20.4796 H   0  0  0  0  0  0  0  0  0  0  0  0
 16 17  1  0
  1 17  1  0
  1  2  1  0
  2  3  1  0
  3  4  1  0
  4 19  1  0
 19 20  1  0
 20 21  1  0
 20 24  1  0
 24 25  2  0
 24 26  1  0
  4 12  1  0
 12 13  2  0
 12 14  1  0
  4  5  1  0
  6  5  1  0
  6  7  1  0
  7  8  1  0
  8  9  1  0
  9 10  1  0
  9  1  1  0
  6  2  1  0
 17 18  1  0
 21 22  1  0
 21 23  1  0
 26 27  1  0
 14 15  1  0
 10 11  1  0
M  END
> <minimizedAffinity>
-7.46383

> <CNNscore>
0.5210127831

> <CNNaffinity>
6.2983632088

> <CNN_VS>
3.2815277576

> <CNNaffinity_variance>
0.4773661196

$$$$



 27 28  0  0  0  0  0  0  0  0999 V2000
    0.3618   24.9994   27.4204 C   0  0  0  0  0  0  0  0  0  0  0  0
    0.4695   25.1506   28.9524 C   0  0  0  0  0  0  0  0  0  0  0  0
    1.1844   24.0570   29.5456 O   0  0  0  0  0  0  0  0  0  0  0  0
    2.2965   24.5649   30.3130 C   0  0  0  0  0  0  0  0  0  0  0  0
    2.4892   26.0159   29.8672 C   0  0  0  0  0  0  0  0  0  0  0  0
    1.1286   26.4576   29.3773 C   0  0  0  0  0  0  0  0  0  0  0  0
    1.3055   27.4250   28.3519 O   0  0  0  0  0  0  0  0  0  0  0  0
    0.2135   27.5714   27.4450 C   0  0  0  0  0  0  0  0  0  0  0  0
   -0.4177   26.2538   26.9585 C   0  0  0  0  0  0  0  0  0  0  0  0
   -0.6755   26.2964   25.5542 O   0  0  0  0  0  0  0  0  0  0  0  0
    0.1628   26.3845   25.0742 H   0  0  0  0  0  0  0  0  0  0  0  0
    3.6036   23.8114   30.0252 C   0  0  0  0  0  0  0  0  0  0  0  0
    4.5747   23.7501   30.7657 O   0  0  0  0  0  0  0  0  0  0  0  0
    3.6451   23.2350   28.8037 O   0  0  0  0  0  0  0  0  0  0  0  0
    2.9001   23.2828   28.2374 H   0  0  0  0  0  0  0  0  0  0  0  0
    1.8765   25.3512   25.5059 C   0  0  0  0  0  0  0  0  0  0  0  0
    1.7022   24.7832   26.8304 N   0  0  0  0  0  0  0  0  0  0  0  0
    2.3946   25.2030   27.4506 H   0  0  0  0  0  0  0  0  0  0  0  0
    1.9182   24.4775   31.8060 C   0  0  0  0  0  0  0  0  0  0  0  0
    1.1262   23.2279   32.2417 C   0  0  0  0  0  0  0  0  0  0  0  0
    1.4684   22.0229   31.4602 N   0  0  0  0  0  0  0  0  0  0  0  0
    1.2322   22.1752   30.4797 H   0  0  0  0  0  0  0  0  0  0  0  0
    0.9418   21.2254   31.8168 H   0  0  0  0  0  0  0  0  0  0  0  0
   -0.3798   23.5286   32.1365 C   0  0  0  0  0  0  0  0  0  0  0  0
   -0.9226   24.6081   32.3093 O   0  0  0  0  0  0  0  0  0  0  0  0
   -1.1254   22.4359   31.8489 O   0  0  0  0  0  0  0  0  0  0  0  0
   -0.7096   21.6068   31.7160 H   0  0  0  0  0  0  0  0  0  0  0  0
 16 17  1  0
  1 17  1  0
  1  2  1  0
  2  3  1  0
  3  4  1  0
  4 19  1  0
 19 20  1  0
 20 21  1  0
 20 24  1  0
 24 25  2  0
 24 26  1  0
  4 12  1  0
 12 13  2  0
 12 14  1  0
  4  5  1  0
  6  5  1  0
  6  7  1  0
  7  8  1  0
  8  9  1  0
  9 10  1  0
  9  1  1  0
  6  2  1  0
 17 18  1  0
 21 22  1  0
 21 23  1  0
 26 27  1  0
 14 15  1  0
 10 11  1  0
M  END
> <minimizedAffinity>
-2.70869

> <CNNscore>
0.4746032357

> <CNNaffinity>
3.0555689335

> <CNN_VS>
1.4501829147

> <CNNaffinity_variance>
0.4367736876

$$$$



 27 28  0  0  0  0  0  0  0  0999 V2000
    1.3142   24.7846   27.5607 C   0  0  0  0  0  0  0  0  0  0  0  0
    0.5766   24.8530   28.9145 C   0  0  0  0  0  0  0  0  0  0  0  0
    0.4575   23.5581   29.5212 O   0  0  0  0  0  0  0  0  0  0  0  0
    1.0308   23.5894   30.8456 C   0  0  0  0  0  0  0  0  0  0  0  0
    1.8712   24.8663   30.9117 C   0  0  0  0  0  0  0  0  0  0  0  0
    1.2387   25.8022   29.9066 C   0  0  0  0  0  0  0  0  0  0  0  0
    2.2478   26.6495   29.3751 O   0  0  0  0  0  0  0  0  0  0  0  0
    1.9675   27.2184   28.0968 C   0  0  0  0  0  0  0  0  0  0  0  0
    1.3583   26.2501   27.0660 C   0  0  0  0  0  0  0  0  0  0  0  0
    1.9674   26.4153   25.7846 O   0  0  0  0  0  0  0  0  0  0  0  0
    2.9085   26.1872   25.8422 H   0  0  0  0  0  0  0  0  0  0  0  0
    1.9672   22.4010   31.1100 C   0  0  0  0  0  0  0  0  0  0  0  0
    3.1191   22.2929   30.7142 O   0  0  0  0  0  0  0  0  0  0  0  0
    1.3887   21.3908   31.7963 O   0  0  0  0  0  0  0  0  0  0  0  0
    0.5059   21.4752   32.0989 H   0  0  0  0  0  0  0  0  0  0  0  0
    3.6797   24.6073   26.8853 C   0  0  0  0  0  0  0  0  0  0  0  0
    2.6101   24.0861   27.7169 N   0  0  0  0  0  0  0  0  0  0  0  0
    2.8982   24.1640   28.6923 H   0  0  0  0  0  0  0  0  0  0  0  0
   -0.1299   23.6231   31.8612 C   0  0  0  0  0  0  0  0  0  0  0  0
   -1.5282   23.2643   31.3181 C   0  0  0  0  0  0  0  0  0  0  0  0
   -2.5041   24.3634   31.4580 N   0  0  0  0  0  0  0  0  0  0  0  0
   -2.6351   24.5780   32.4465 H   0  0  0  0  0  0  0  0  0  0  0  0
   -3.3953   24.0807   31.0504 H   0  0  0  0  0  0  0  0  0  0  0  0
   -2.0340   22.0000   32.0360 C   0  0  0  0  0  0  0  0  0  0  0  0
   -1.3506   21.1350   32.5597 O   0  0  0  0  0  0  0  0  0  0  0  0
   -3.3825   21.8809   32.0243 O   0  0  0  0  0  0  0  0  0  0  0  0
   -3.9080   22.5445   31.6225 H   0  0  0  0  0  0  0  0  0  0  0  0
 16 17  1  0
  1 17  1  0
  1  2  1  0
  2  3  1  0
  3  4  1  0
  4 19  1  0
 19 20  1  0
 20 21  1  0
 20 24  1  0
 24 25  2  0
 24 26  1  0
  4 12  1  0
 12 13  2  0
 12 14  1  0
  4  5  1  0
  6  5  1  0
  6  7  1  0
  7  8  1  0
  8  9  1  0
  9 10  1  0
  9  1  1  0
  6  2  1  0
 17 18  1  0
 21 22  1  0
 21 23  1  0
 26 27  1  0
 14 15  1  0
 10 11  1  0
M  END
> <minimizedAffinity>
-3.61225

> <CNNscore>
0.3927515447

> <CNNaffinity>
2.8803386688

> <CNN_VS>
1.1312574148

> <CNNaffinity_variance>
0.6523540616

$$$$



 27 28  0  0  0  0  0  0  0  0999 V2000
   -1.4005    9.9841   31.7497 C   0  0  0  0  0  0  0  0  0  0  0  0
   -2.4949    9.9477   30.6622 C   0  0  0  0  0  0  0  0  0  0  0  0
   -3.7670   10.3707   31.1739 O   0  0  0  0  0  0  0  0  0  0  0  0
   -4.2681   11.4669   30.3796 C   0  0  0  0  0  0  0  0  0  0  0  0
   -3.0759   11.9810   29.5699 C   0  0  0  0  0  0  0  0  0  0  0  0
   -2.1500   10.7926   29.4413 C   0  0  0  0  0  0  0  0  0  0  0  0
   -0.8112   11.2634   29.3710 O   0  0  0  0  0  0  0  0  0  0  0  0
    0.1945   10.3270   29.7557 C   0  0  0  0  0  0  0  0  0  0  0  0
   -0.1159    9.5142   31.0262 C   0  0  0  0  0  0  0  0  0  0  0  0
    1.0316    9.4270   31.8723 O   0  0  0  0  0  0  0  0  0  0  0  0
    1.2775   10.3147   32.1762 H   0  0  0  0  0  0  0  0  0  0  0  0
   -4.7834   12.6302   31.2400 C   0  0  0  0  0  0  0  0  0  0  0  0
   -4.4412   13.8002   31.1444 O   0  0  0  0  0  0  0  0  0  0  0  0
   -5.6449   12.2530   32.2105 O   0  0  0  0  0  0  0  0  0  0  0  0
   -5.9061   11.3561   32.2824 H   0  0  0  0  0  0  0  0  0  0  0  0
   -0.0299   11.8691   32.5570 C   0  0  0  0  0  0  0  0  0  0  0  0
   -1.3622   11.3158   32.3952 N   0  0  0  0  0  0  0  0  0  0  0  0
   -1.9082   11.9618   31.8251 H   0  0  0  0  0  0  0  0  0  0  0  0
   -5.3790   10.9154   29.4623 C   0  0  0  0  0  0  0  0  0  0  0  0
   -6.3711   11.9475   28.8884 C   0  0  0  0  0  0  0  0  0  0  0  0
   -7.6661   11.3537   28.5007 N   0  0  0  0  0  0  0  0  0  0  0  0
   -7.5176   10.6677   27.7606 H   0  0  0  0  0  0  0  0  0  0  0  0
   -8.2895   12.0875   28.1641 H   0  0  0  0  0  0  0  0  0  0  0  0
   -5.7194   12.6518   27.6847 C   0  0  0  0  0  0  0  0  0  0  0  0
   -5.7063   12.2599   26.5289 O   0  0  0  0  0  0  0  0  0  0  0  0
   -5.0883   13.8030   28.0151 O   0  0  0  0  0  0  0  0  0  0  0  0
   -5.0978   14.1046   28.9022 H   0  0  0  0  0  0  0  0  0  0  0  0
 16 17  1  0
  1 17  1  0
  1  2  1  0
  2  3  1  0
  3  4  1  0
  4 19  1  0
 19 20  1  0
 20 21  1  0
 20 24  1  0
 24 25  2  0
 24 26  1  0
  4 12  1  0
 12 13  2  0
 12 14  1  0
  4  5  1  0
  6  5  1  0
  6  7  1  0
  7  8  1  0
  8  9  1  0
  9 10  1  0
  9  1  1  0
  6  2  1  0
 17 18  1  0
 21 22  1  0
 21 23  1  0
 26 27  1  0
 14 15  1  0
 10 11  1  0
M  END
> <minimizedAffinity>
-3.09017

> <CNNscore>
0.3798212707

> <CNNaffinity>
4.2749629021

> <CNN_VS>
1.6237218380

> <CNNaffinity_variance>
0.1888076216

$$$$



 27 28  0  0  0  0  0  0  0  0999 V2000
   -4.9596   13.1057   27.6930 C   0  0  0  0  0  0  0  0  0  0  0  0
   -4.4512   11.9579   28.5906 C   0  0  0  0  0  0  0  0  0  0  0  0
   -3.2690   12.3316   29.3129 O   0  0  0  0  0  0  0  0  0  0  0  0
   -3.4869   12.1457   30.7277 C   0  0  0  0  0  0  0  0  0  0  0  0
   -4.9997   12.0011   30.9062 C   0  0  0  0  0  0  0  0  0  0  0  0
   -5.4997   11.4680   29.5826 C   0  0  0  0  0  0  0  0  0  0  0  0
   -6.8225   11.9413   29.3710 O   0  0  0  0  0  0  0  0  0  0  0  0
   -7.2552   11.9804   28.0118 C   0  0  0  0  0  0  0  0  0  0  0  0
   -6.2257   12.5354   27.0102 C   0  0  0  0  0  0  0  0  0  0  0  0
   -6.8424   13.4306   26.0837 O   0  0  0  0  0  0  0  0  0  0  0  0
   -7.1923   14.1992   26.5609 H   0  0  0  0  0  0  0  0  0  0  0  0
   -3.0334   13.3561   31.5573 C   0  0  0  0  0  0  0  0  0  0  0  0
   -3.3634   14.5187   31.3705 O   0  0  0  0  0  0  0  0  0  0  0  0
   -2.1445   13.0515   32.5285 O   0  0  0  0  0  0  0  0  0  0  0  0
   -1.8927   12.1602   32.6704 H   0  0  0  0  0  0  0  0  0  0  0  0
   -3.8877   14.8703   29.0423 C   0  0  0  0  0  0  0  0  0  0  0  0
   -5.1216   14.3448   28.4868 N   0  0  0  0  0  0  0  0  0  0  0  0
   -5.5285   15.0590   27.8828 H   0  0  0  0  0  0  0  0  0  0  0  0
   -2.7420   10.8644   31.1552 C   0  0  0  0  0  0  0  0  0  0  0  0
   -1.2537   10.7714   30.7613 C   0  0  0  0  0  0  0  0  0  0  0  0
   -0.6429   12.0876   30.4883 N   0  0  0  0  0  0  0  0  0  0  0  0
   -1.1147   12.5236   29.6960 H   0  0  0  0  0  0  0  0  0  0  0  0
    0.3458   11.9648   30.2697 H   0  0  0  0  0  0  0  0  0  0  0  0
   -1.1175    9.8496   29.5360 C   0  0  0  0  0  0  0  0  0  0  0  0
   -0.2919    9.9411   28.6418 O   0  0  0  0  0  0  0  0  0  0  0  0
   -2.0577    8.8767   29.4907 O   0  0  0  0  0  0  0  0  0  0  0  0
   -2.6919    8.8057   30.1767 H   0  0  0  0  0  0  0  0  0  0  0  0
 16 17  1  0
  1 17  1  0
  1  2  1  0
  2  3  1  0
  3  4  1  0
  4 19  1  0
 19 20  1  0
 20 21  1  0
 20 24  1  0
 24 25  2  0
 24 26  1  0
  4 12  1  0
 12 13  2  0
 12 14  1  0
  4  5  1  0
  6  5  1  0
  6  7  1  0
  7  8  1  0
  8  9  1  0
  9 10  1  0
  9  1  1  0
  6  2  1  0
 17 18  1  0
 21 22  1  0
 21 23  1  0
 26 27  1  0
 14 15  1  0
 10 11  1  0
M  END
> <minimizedAffinity>
-2.45708

> <CNNscore>
0.3665450215

> <CNNaffinity>
3.7490298748

> <CNN_VS>
1.3741881847

> <CNNaffinity_variance>
0.1273605078

$$$$



 27 28  0  0  0  0  0  0  0  0999 V2000
   -9.3000   13.4534   21.5051 C   0  0  0  0  0  0  0  0  0  0  0  0
   -8.9935   14.9548   21.6880 C   0  0  0  0  0  0  0  0  0  0  0  0
   -7.6073   15.2462   21.4589 O   0  0  0  0  0  0  0  0  0  0  0  0
   -7.4879   16.2602   20.4384 C   0  0  0  0  0  0  0  0  0  0  0  0
   -8.8521   16.3276   19.7487 C   0  0  0  0  0  0  0  0  0  0  0  0
   -9.8395   15.8494   20.7893 C   0  0  0  0  0  0  0  0  0  0  0  0
  -10.9261   15.2153   20.1291 O   0  0  0  0  0  0  0  0  0  0  0  0
  -11.6669   14.2819   20.9141 C   0  0  0  0  0  0  0  0  0  0  0  0
  -10.8184   13.3293   21.7765 C   0  0  0  0  0  0  0  0  0  0  0  0
  -11.3164   11.9925   21.7057 O   0  0  0  0  0  0  0  0  0  0  0  0
  -11.2411   11.6672   20.7950 H   0  0  0  0  0  0  0  0  0  0  0  0
   -6.4434   15.9012   19.3711 C   0  0  0  0  0  0  0  0  0  0  0  0
   -5.4373   16.5439   19.1065 O   0  0  0  0  0  0  0  0  0  0  0  0
   -6.7510   14.7979   18.6540 O   0  0  0  0  0  0  0  0  0  0  0  0
   -7.5222   14.3065   18.8580 H   0  0  0  0  0  0  0  0  0  0  0  0
   -8.5899   11.5538   20.1013 C   0  0  0  0  0  0  0  0  0  0  0  0
   -8.8098   12.9861   20.1887 N   0  0  0  0  0  0  0  0  0  0  0  0
   -9.4977   13.2463   19.4820 H   0  0  0  0  0  0  0  0  0  0  0  0
   -7.1401   17.5918   21.1352 C   0  0  0  0  0  0  0  0  0  0  0  0
   -7.6542   18.8773   20.4554 C   0  0  0  0  0  0  0  0  0  0  0  0
   -6.6613   19.9700   20.4553 N   0  0  0  0  0  0  0  0  0  0  0  0
   -6.4428   20.2309   21.4169 H   0  0  0  0  0  0  0  0  0  0  0  0
   -7.0439   20.7770   19.9626 H   0  0  0  0  0  0  0  0  0  0  0  0
   -8.9506   19.3273   21.1527 C   0  0  0  0  0  0  0  0  0  0  0  0
   -9.8347   18.6061   21.5860 O   0  0  0  0  0  0  0  0  0  0  0  0
   -9.0749   20.6728   21.2356 O   0  0  0  0  0  0  0  0  0  0  0  0
   -8.3966   21.2273   20.9032 H   0  0  0  0  0  0  0  0  0  0  0  0
 16 17  1  0
  1 17  1  0
  1  2  1  0
  2  3  1  0
  3  4  1  0
  4 19  1  0
 19 20  1  0
 20 21  1  0
 20 24  1  0
 24 25  2  0
 24 26  1  0
  4 12  1  0
 12 13  2  0
 12 14  1  0
  4  5  1  0
  6  5  1  0
  6  7  1  0
  7  8  1  0
  8  9  1  0
  9 10  1  0
  9  1  1  0
  6  2  1  0
 17 18  1  0
 21 22  1  0
 21 23  1  0
 26 27  1  0
 14 15  1  0
 10 11  1  0
M  END
> <minimizedAffinity>
-5.97761

> <CNNscore>
0.3376875818

> <CNNaffinity>
6.5843567848

> <CNN_VS>
2.2234554291

> <CNNaffinity_variance>
0.9412145615

$$$$



 27 28  0  0  0  0  0  0  0  0999 V2000
    0.1315   25.1156   27.7213 C   0  0  0  0  0  0  0  0  0  0  0  0
   -0.6040   24.9408   29.0667 C   0  0  0  0  0  0  0  0  0  0  0  0
    0.1147   24.0748   29.9569 O   0  0  0  0  0  0  0  0  0  0  0  0
    0.3645   24.7602   31.2025 C   0  0  0  0  0  0  0  0  0  0  0  0
    0.1095   26.2435   30.9265 C   0  0  0  0  0  0  0  0  0  0  0  0
   -0.8713   26.2633   29.7759 C   0  0  0  0  0  0  0  0  0  0  0  0
   -0.6469   27.4362   29.0060 O   0  0  0  0  0  0  0  0  0  0  0  0
   -1.0926   27.3814   27.6515 C   0  0  0  0  0  0  0  0  0  0  0  0
   -0.7694   26.0735   26.9058 C   0  0  0  0  0  0  0  0  0  0  0  0
   -0.2934   26.3400   25.5857 O   0  0  0  0  0  0  0  0  0  0  0  0
    0.5409   26.8322   25.6361 H   0  0  0  0  0  0  0  0  0  0  0  0
    1.8200   24.6171   31.6718 C   0  0  0  0  0  0  0  0  0  0  0  0
    2.3554   25.2669   32.5585 O   0  0  0  0  0  0  0  0  0  0  0  0
    2.5375   23.7181   30.9625 O   0  0  0  0  0  0  0  0  0  0  0  0
    2.1257   23.2210   30.2833 H   0  0  0  0  0  0  0  0  0  0  0  0
    2.5247   24.7435   27.2549 C   0  0  0  0  0  0  0  0  0  0  0  0
    1.5310   25.5392   27.9526 N   0  0  0  0  0  0  0  0  0  0  0  0
    1.6256   26.5073   27.6457 H   0  0  0  0  0  0  0  0  0  0  0  0
   -0.6186   24.2033   32.2527 C   0  0  0  0  0  0  0  0  0  0  0  0
   -0.9859   22.7107   32.1259 C   0  0  0  0  0  0  0  0  0  0  0  0
    0.0705   21.9065   31.4799 N   0  0  0  0  0  0  0  0  0  0  0  0
    0.2167   22.2398   30.5271 H   0  0  0  0  0  0  0  0  0  0  0  0
   -0.2136   20.9271   31.4576 H   0  0  0  0  0  0  0  0  0  0  0  0
   -2.3091   22.5856   31.3494 C   0  0  0  0  0  0  0  0  0  0  0  0
   -2.6368   21.6736   30.6074 O   0  0  0  0  0  0  0  0  0  0  0  0
   -3.1371   23.6415   31.5287 O   0  0  0  0  0  0  0  0  0  0  0  0
   -2.8864   24.3421   32.0981 H   0  0  0  0  0  0  0  0  0  0  0  0
 16 17  1  0
  1 17  1  0
  1  2  1  0
  2  3  1  0
  3  4  1  0
  4 19  1  0
 19 20  1  0
 20 21  1  0
 20 24  1  0
 24 25  2  0
 24 26  1  0
  4 12  1  0
 12 13  2  0
 12 14  1  0
  4  5  1  0
  6  5  1  0
  6  7  1  0
  7  8  1  0
  8  9  1  0
  9 10  1  0
  9  1  1  0
  6  2  1  0
 17 18  1  0
 21 22  1  0
 21 23  1  0
 26 27  1  0
 14 15  1  0
 10 11  1  0
M  END
> <minimizedAffinity>
-3.15634

> <CNNscore>
0.3055018187

> <CNNaffinity>
2.9319896698

> <CNN_VS>
0.8957281709

> <CNNaffinity_variance>
0.8391212821

$$$$



 27 28  0  0  0  0  0  0  0  0999 V2000
  -18.7536    8.1571   29.2270 C   0  0  0  0  0  0  0  0  0  0  0  0
  -18.8939    6.7140   29.7557 C   0  0  0  0  0  0  0  0  0  0  0  0
  -17.7112    5.9400   29.5086 O   0  0  0  0  0  0  0  0  0  0  0  0
  -17.2194    5.3968   30.7523 C   0  0  0  0  0  0  0  0  0  0  0  0
  -17.9242    6.1791   31.8625 C   0  0  0  0  0  0  0  0  0  0  0  0
  -19.2196    6.6536   31.2435 C   0  0  0  0  0  0  0  0  0  0  0  0
  -19.5892    7.8852   31.8479 O   0  0  0  0  0  0  0  0  0  0  0  0
  -20.4565    8.7163   31.0776 C   0  0  0  0  0  0  0  0  0  0  0  0
  -20.0972    8.8361   29.5851 C   0  0  0  0  0  0  0  0  0  0  0  0
  -20.2046   10.1886   29.1386 O   0  0  0  0  0  0  0  0  0  0  0  0
  -19.5614   10.7379   29.6135 H   0  0  0  0  0  0  0  0  0  0  0  0
  -15.7071    5.6006   30.9266 C   0  0  0  0  0  0  0  0  0  0  0  0
  -14.8868    4.7241   31.1596 O   0  0  0  0  0  0  0  0  0  0  0  0
  -15.3186    6.8934   30.8648 O   0  0  0  0  0  0  0  0  0  0  0  0
  -15.9483    7.5638   30.6861 H   0  0  0  0  0  0  0  0  0  0  0  0
  -16.7243    9.4811   28.7661 C   0  0  0  0  0  0  0  0  0  0  0  0
  -17.5202    8.7806   29.7577 N   0  0  0  0  0  0  0  0  0  0  0  0
  -17.7869    9.4480   30.4814 H   0  0  0  0  0  0  0  0  0  0  0  0
  -17.5899    3.8999   30.7924 C   0  0  0  0  0  0  0  0  0  0  0  0
  -17.3978    3.1096   29.4820 C   0  0  0  0  0  0  0  0  0  0  0  0
  -16.3807    3.7025   28.5910 N   0  0  0  0  0  0  0  0  0  0  0  0
  -16.6767    4.6379   28.3121 H   0  0  0  0  0  0  0  0  0  0  0  0
  -16.2731    3.1184   27.7617 H   0  0  0  0  0  0  0  0  0  0  0  0
  -18.7525    3.0045   28.7584 C   0  0  0  0  0  0  0  0  0  0  0  0
  -19.8419    3.3375   29.1965 O   0  0  0  0  0  0  0  0  0  0  0  0
  -18.6600    2.4512   27.5263 O   0  0  0  0  0  0  0  0  0  0  0  0
  -17.8241    2.1953   27.1892 H   0  0  0  0  0  0  0  0  0  0  0  0
 16 17  1  0
  1 17  1  0
  1  2  1  0
  2  3  1  0
  3  4  1  0
  4 19  1  0
 19 20  1  0
 20 21  1  0
 20 24  1  0
 24 25  2  0
 24 26  1  0
  4 12  1  0
 12 13  2  0
 12 14  1  0
  4  5  1  0
  6  5  1  0
  6  7  1  0
  7  8  1  0
  8  9  1  0
  9 10  1  0
  9  1  1  0
  6  2  1  0
 17 18  1  0
 21 22  1  0
 21 23  1  0
 26 27  1  0
 14 15  1  0
 10 11  1  0
M  END
> <minimizedAffinity>
-3.52157

> <CNNscore>
0.2966634035

> <CNNaffinity>
3.8838236332

> <CNN_VS>
1.1521883011

> <CNNaffinity_variance>
0.0871658996

$$$$
