


 25 25  0  0  0  0  0  0  0  0999 V2000
   25.3355   21.6635   24.5867 C   0  0  0  0  0  0  0  0  0  0  0  0
   24.8059   20.9866   25.8777 C   0  0  0  0  0  0  0  0  0  0  0  0
   24.5756   22.0169   26.9080 N   0  0  0  0  0  0  0  0  0  0  0  0
   23.8488   22.6584   26.5909 H   0  0  0  0  0  0  0  0  0  0  0  0
   25.4393   22.5349   27.0699 H   0  0  0  0  0  0  0  0  0  0  0  0
   23.5204   20.1321   25.6916 C   0  0  0  0  0  0  0  0  0  0  0  0
   22.2384   20.6739   26.2914 C   0  0  0  0  0  0  0  0  0  0  0  0
   21.9270   20.4313   27.6389 C   0  0  0  0  0  0  0  0  0  0  0  0
   20.7466   20.9269   28.1941 C   0  0  0  0  0  0  0  0  0  0  0  0
   19.8733   21.6606   27.4016 C   0  0  0  0  0  0  0  0  0  0  0  0
   18.7402   22.1371   27.9341 F   0  0  0  0  0  0  0  0  0  0  0  0
   20.1563   21.9057   26.0636 C   0  0  0  0  0  0  0  0  0  0  0  0
   21.3364   21.4103   25.5071 C   0  0  0  0  0  0  0  0  0  0  0  0
   26.7075   21.1657   23.9854 C   0  0  0  0  0  0  0  0  0  0  0  0
   26.4844   20.3694   22.6993 C   0  0  0  0  0  0  0  0  0  0  0  0
   27.3733   20.2460   25.0348 C   0  0  0  0  0  0  0  0  0  0  0  0
   27.5671   22.4691   23.7717 C   0  0  0  0  0  0  0  0  0  0  0  0
   28.9390   22.5524   22.9881 C   0  0  0  0  0  0  0  0  0  0  0  0
   30.1488   22.5070   23.9185 C   0  0  0  0  0  0  0  0  0  0  0  0
   29.0211   21.3787   21.9873 C   0  0  0  0  0  0  0  0  0  0  0  0
   28.8682   23.9127   22.1833 C   0  0  0  0  0  0  0  0  0  0  0  0
   30.8839   23.4034   20.6177 C   0  0  0  0  0  0  0  0  0  0  0  0
   30.0121   24.4763   21.2776 C   0  0  0  0  0  0  0  0  0  0  0  0
   30.9096   25.4742   22.0352 C   0  0  0  0  0  0  0  0  0  0  0  0
   29.3254   25.2756   20.1391 C   0  0  0  0  0  0  0  0  0  0  0  0
 22 23  1  0
 23 24  1  0
 23 25  1  0
 23 21  1  0
 21 18  1  0
 18 19  1  0
 18 20  1  0
 18 17  1  0
 17 14  1  0
 14 15  1  0
 14 16  1  0
 14  1  1  0
  1  2  1  0
  2  3  1  0
  2  6  1  0
  6  7  1  0
  7  8  2  0
  8  9  1  0
  9 10  2  0
 10 11  1  0
 10 12  1  0
 12 13  2  0
 13  7  1  0
  3  4  1  0
  3  5  1  0
M  END
> <minimizedAffinity>
-7.24737

> <CNNscore>
0.8209329844

> <CNNaffinity>
6.4771542549

> <CNN_VS>
5.3173093796

> <CNNaffinity_variance>
0.0617189966

$$$$



 25 25  0  0  0  0  0  0  0  0999 V2000
   25.4547   21.5151   24.9532 C   0  0  0  0  0  0  0  0  0  0  0  0
   24.9158   20.4960   25.9907 C   0  0  0  0  0  0  0  0  0  0  0  0
   25.3372   20.9092   27.3427 N   0  0  0  0  0  0  0  0  0  0  0  0
   24.9178   21.8111   27.5687 H   0  0  0  0  0  0  0  0  0  0  0  0
   26.3535   20.9898   27.3723 H   0  0  0  0  0  0  0  0  0  0  0  0
   23.3762   20.2810   25.9622 C   0  0  0  0  0  0  0  0  0  0  0  0
   22.6399   20.3857   27.2826 C   0  0  0  0  0  0  0  0  0  0  0  0
   23.3107   20.1386   28.4912 C   0  0  0  0  0  0  0  0  0  0  0  0
   22.6356   20.2321   29.7087 C   0  0  0  0  0  0  0  0  0  0  0  0
   21.2877   20.5670   29.7196 C   0  0  0  0  0  0  0  0  0  0  0  0
   20.6392   20.6574   30.8882 F   0  0  0  0  0  0  0  0  0  0  0  0
   20.6012   20.8072   28.5358 C   0  0  0  0  0  0  0  0  0  0  0  0
   21.2753   20.7137   27.3173 C   0  0  0  0  0  0  0  0  0  0  0  0
   26.6940   21.1019   24.0672 C   0  0  0  0  0  0  0  0  0  0  0  0
   26.2557   20.2457   22.8785 C   0  0  0  0  0  0  0  0  0  0  0  0
   27.6502   20.2733   24.9557 C   0  0  0  0  0  0  0  0  0  0  0  0
   27.3744   22.4583   23.6425 C   0  0  0  0  0  0  0  0  0  0  0  0
   28.8017   22.6067   22.9763 C   0  0  0  0  0  0  0  0  0  0  0  0
   29.9220   22.7116   24.0083 C   0  0  0  0  0  0  0  0  0  0  0  0
   29.0620   21.3883   22.0633 C   0  0  0  0  0  0  0  0  0  0  0  0
   28.7026   23.9089   22.0832 C   0  0  0  0  0  0  0  0  0  0  0  0
   30.8432   25.3874   22.1558 C   0  0  0  0  0  0  0  0  0  0  0  0
   29.8946   24.5461   21.2962 C   0  0  0  0  0  0  0  0  0  0  0  0
   29.4120   25.3815   20.0943 C   0  0  0  0  0  0  0  0  0  0  0  0
   30.7223   23.3706   20.7134 C   0  0  0  0  0  0  0  0  0  0  0  0
 22 23  1  0
 23 24  1  0
 23 25  1  0
 23 21  1  0
 21 18  1  0
 18 19  1  0
 18 20  1  0
 18 17  1  0
 17 14  1  0
 14 15  1  0
 14 16  1  0
 14  1  1  0
  1  2  1  0
  2  3  1  0
  2  6  1  0
  6  7  1  0
  7  8  2  0
  8  9  1  0
  9 10  2  0
 10 11  1  0
 10 12  1  0
 12 13  2  0
 13  7  1  0
  3  4  1  0
  3  5  1  0
M  END
> <minimizedAffinity>
-7.20265

> <CNNscore>
0.7405381203

> <CNNaffinity>
6.3362426758

> <CNN_VS>
4.6922292709

> <CNNaffinity_variance>
0.1417792737

$$$$



 25 25  0  0  0  0  0  0  0  0999 V2000
   24.2164   22.0786   27.1598 C   0  0  0  0  0  0  0  0  0  0  0  0
   25.5616   21.5113   26.6367 C   0  0  0  0  0  0  0  0  0  0  0  0
   25.9776   20.3816   27.4893 N   0  0  0  0  0  0  0  0  0  0  0  0
   25.2916   19.6303   27.4167 H   0  0  0  0  0  0  0  0  0  0  0  0
   26.0403   20.6923   28.4588 H   0  0  0  0  0  0  0  0  0  0  0  0
   25.5534   21.0701   25.1458 C   0  0  0  0  0  0  0  0  0  0  0  0
   26.8596   21.1819   24.3855 C   0  0  0  0  0  0  0  0  0  0  0  0
   26.9245   21.9151   23.1897 C   0  0  0  0  0  0  0  0  0  0  0  0
   28.1249   22.0186   22.4858 C   0  0  0  0  0  0  0  0  0  0  0  0
   29.2605   21.3847   22.9732 C   0  0  0  0  0  0  0  0  0  0  0  0
   30.4133   21.4842   22.2983 F   0  0  0  0  0  0  0  0  0  0  0  0
   29.2181   20.6466   24.1496 C   0  0  0  0  0  0  0  0  0  0  0  0
   28.0179   20.5421   24.8543 C   0  0  0  0  0  0  0  0  0  0  0  0
   23.1580   21.0721   27.7584 C   0  0  0  0  0  0  0  0  0  0  0  0
   23.7739   20.2319   28.8777 C   0  0  0  0  0  0  0  0  0  0  0  0
   22.7070   20.1320   26.6168 C   0  0  0  0  0  0  0  0  0  0  0  0
   21.9551   21.9687   28.2402 C   0  0  0  0  0  0  0  0  0  0  0  0
   20.4203   21.6239   28.0707 C   0  0  0  0  0  0  0  0  0  0  0  0
   20.1759   20.1335   27.8466 C   0  0  0  0  0  0  0  0  0  0  0  0
   19.6574   22.0815   29.3335 C   0  0  0  0  0  0  0  0  0  0  0  0
   19.9408   22.4895   26.8363 C   0  0  0  0  0  0  0  0  0  0  0  0
   19.7099   23.1459   24.3284 C   0  0  0  0  0  0  0  0  0  0  0  0
   20.0361   22.0430   25.3403 C   0  0  0  0  0  0  0  0  0  0  0  0
   19.1651   20.8050   25.0507 C   0  0  0  0  0  0  0  0  0  0  0  0
   21.5073   21.6153   25.0964 C   0  0  0  0  0  0  0  0  0  0  0  0
 22 23  1  0
 23 24  1  0
 23 25  1  0
 23 21  1  0
 21 18  1  0
 18 19  1  0
 18 20  1  0
 18 17  1  0
 17 14  1  0
 14 15  1  0
 14 16  1  0
 14  1  1  0
  1  2  1  0
  2  3  1  0
  2  6  1  0
  6  7  1  0
  7  8  2  0
  8  9  1  0
  9 10  2  0
 10 11  1  0
 10 12  1  0
 12 13  2  0
 13  7  1  0
  3  4  1  0
  3  5  1  0
M  END
> <minimizedAffinity>
2.28819

> <CNNscore>
0.5465112329

> <CNNaffinity>
5.4401164055

> <CNN_VS>
2.9730846882

> <CNNaffinity_variance>
0.1312770694

$$$$



 25 25  0  0  0  0  0  0  0  0999 V2000
   23.1793   21.4884   26.9506 C   0  0  0  0  0  0  0  0  0  0  0  0
   22.2533   21.3952   25.7101 C   0  0  0  0  0  0  0  0  0  0  0  0
   22.5249   20.1344   24.9938 N   0  0  0  0  0  0  0  0  0  0  0  0
   22.2931   19.3445   25.5960 H   0  0  0  0  0  0  0  0  0  0  0  0
   23.5126   20.0921   24.7426 H   0  0  0  0  0  0  0  0  0  0  0  0
   20.7330   21.5100   26.0148 C   0  0  0  0  0  0  0  0  0  0  0  0
   20.2788   21.1378   27.4120 C   0  0  0  0  0  0  0  0  0  0  0  0
   18.9254   20.8674   27.6702 C   0  0  0  0  0  0  0  0  0  0  0  0
   18.5032   20.5263   28.9556 C   0  0  0  0  0  0  0  0  0  0  0  0
   19.4324   20.4607   29.9859 C   0  0  0  0  0  0  0  0  0  0  0  0
   19.0278   20.1327   31.2201 F   0  0  0  0  0  0  0  0  0  0  0  0
   20.7753   20.7327   29.7559 C   0  0  0  0  0  0  0  0  0  0  0  0
   21.1987   21.0742   28.4706 C   0  0  0  0  0  0  0  0  0  0  0  0
   24.7389   21.3750   26.7348 C   0  0  0  0  0  0  0  0  0  0  0  0
   25.3005   20.1396   27.4394 C   0  0  0  0  0  0  0  0  0  0  0  0
   25.3897   22.6382   27.3440 C   0  0  0  0  0  0  0  0  0  0  0  0
   24.9434   21.3498   25.1725 C   0  0  0  0  0  0  0  0  0  0  0  0
   26.2879   20.9845   24.4228 C   0  0  0  0  0  0  0  0  0  0  0  0
   27.2523   20.1919   25.3021 C   0  0  0  0  0  0  0  0  0  0  0  0
   25.9542   20.1599   23.1601 C   0  0  0  0  0  0  0  0  0  0  0  0
   26.9019   22.3750   23.9837 C   0  0  0  0  0  0  0  0  0  0  0  0
   29.4180   21.7414   24.1862 C   0  0  0  0  0  0  0  0  0  0  0  0
   28.3620   22.5832   23.4632 C   0  0  0  0  0  0  0  0  0  0  0  0
   28.7789   24.0667   23.4914 C   0  0  0  0  0  0  0  0  0  0  0  0
   28.3694   22.1502   21.9735 C   0  0  0  0  0  0  0  0  0  0  0  0
 22 23  1  0
 23 24  1  0
 23 25  1  0
 23 21  1  0
 21 18  1  0
 18 19  1  0
 18 20  1  0
 18 17  1  0
 17 14  1  0
 14 15  1  0
 14 16  1  0
 14  1  1  0
  1  2  1  0
  2  3  1  0
  2  6  1  0
  6  7  1  0
  7  8  2  0
  8  9  1  0
  9 10  2  0
 10 11  1  0
 10 12  1  0
 12 13  2  0
 13  7  1  0
  3  4  1  0
  3  5  1  0
M  END
> <minimizedAffinity>
-0.93317

> <CNNscore>
0.3877879083

> <CNNaffinity>
5.2052378654

> <CNN_VS>
2.0185282230

> <CNNaffinity_variance>
0.1738609821

$$$$



 25 25  0  0  0  0  0  0  0  0999 V2000
   26.6608   21.6397   23.9129 C   0  0  0  0  0  0  0  0  0  0  0  0
   25.7962   20.6451   24.7305 C   0  0  0  0  0  0  0  0  0  0  0  0
   26.4686   20.3546   26.0111 N   0  0  0  0  0  0  0  0  0  0  0  0
   26.5355   21.2105   26.5618 H   0  0  0  0  0  0  0  0  0  0  0  0
   27.4050   19.9934   25.8291 H   0  0  0  0  0  0  0  0  0  0  0  0
   24.3360   21.1083   24.9964 C   0  0  0  0  0  0  0  0  0  0  0  0
   23.7740   20.8590   26.3816 C   0  0  0  0  0  0  0  0  0  0  0  0
   22.4707   20.3611   26.5399 C   0  0  0  0  0  0  0  0  0  0  0  0
   21.9491   20.1322   27.8137 C   0  0  0  0  0  0  0  0  0  0  0  0
   22.7274   20.4062   28.9310 C   0  0  0  0  0  0  0  0  0  0  0  0
   22.2274   20.1862   30.1541 F   0  0  0  0  0  0  0  0  0  0  0  0
   24.0164   20.9076   28.7989 C   0  0  0  0  0  0  0  0  0  0  0  0
   24.5390   21.1372   27.5253 C   0  0  0  0  0  0  0  0  0  0  0  0
   27.4442   21.0966   22.6548 C   0  0  0  0  0  0  0  0  0  0  0  0
   26.5768   20.1332   21.8439 C   0  0  0  0  0  0  0  0  0  0  0  0
   28.6891   20.3376   23.1692 C   0  0  0  0  0  0  0  0  0  0  0  0
   27.8765   22.3786   21.8468 C   0  0  0  0  0  0  0  0  0  0  0  0
   29.0405   22.4474   20.7774 C   0  0  0  0  0  0  0  0  0  0  0  0
   29.2784   21.1084   20.0834 C   0  0  0  0  0  0  0  0  0  0  0  0
   28.6906   23.5157   19.7181 C   0  0  0  0  0  0  0  0  0  0  0  0
   30.3132   22.9224   21.5885 C   0  0  0  0  0  0  0  0  0  0  0  0
   30.8716   23.3237   24.0985 C   0  0  0  0  0  0  0  0  0  0  0  0
   30.2821   23.9013   22.8080 C   0  0  0  0  0  0  0  0  0  0  0  0
   28.8628   24.4345   23.0842 C   0  0  0  0  0  0  0  0  0  0  0  0
   31.1467   25.1282   22.4160 C   0  0  0  0  0  0  0  0  0  0  0  0
 22 23  1  0
 23 24  1  0
 23 25  1  0
 23 21  1  0
 21 18  1  0
 18 19  1  0
 18 20  1  0
 18 17  1  0
 17 14  1  0
 14 15  1  0
 14 16  1  0
 14  1  1  0
  1  2  1  0
  2  3  1  0
  2  6  1  0
  6  7  1  0
  7  8  2  0
  8  9  1  0
  9 10  2  0
 10 11  1  0
 10 12  1  0
 12 13  2  0
 13  7  1  0
  3  4  1  0
  3  5  1  0
M  END
> <minimizedAffinity>
-5.81213

> <CNNscore>
0.3827326894

> <CNNaffinity>
5.9974350929

> <CNN_VS>
2.2954144478

> <CNNaffinity_variance>
0.1927327663

$$$$



 25 25  0  0  0  0  0  0  0  0999 V2000
   29.3285   21.3509   25.2888 C   0  0  0  0  0  0  0  0  0  0  0  0
   27.8272   20.9703   25.2089 C   0  0  0  0  0  0  0  0  0  0  0  0
   27.5901   20.1798   23.9860 N   0  0  0  0  0  0  0  0  0  0  0  0
   28.1143   19.3064   24.0388 H   0  0  0  0  0  0  0  0  0  0  0  0
   27.8974   20.7122   23.1721 H   0  0  0  0  0  0  0  0  0  0  0  0
   27.2767   20.2047   26.4451 C   0  0  0  0  0  0  0  0  0  0  0  0
   25.7801   20.2547   26.6781 C   0  0  0  0  0  0  0  0  0  0  0  0
   25.2598   20.1459   27.9777 C   0  0  0  0  0  0  0  0  0  0  0  0
   23.8823   20.1896   28.1959 C   0  0  0  0  0  0  0  0  0  0  0  0
   23.0228   20.3363   27.1147 C   0  0  0  0  0  0  0  0  0  0  0  0
   21.7003   20.3789   27.3236 F   0  0  0  0  0  0  0  0  0  0  0  0
   23.5143   20.4371   25.8191 C   0  0  0  0  0  0  0  0  0  0  0  0
   24.8919   20.3932   25.5996 C   0  0  0  0  0  0  0  0  0  0  0  0
   29.9990   22.0327   24.0329 C   0  0  0  0  0  0  0  0  0  0  0  0
   30.9903   21.0834   23.3589 C   0  0  0  0  0  0  0  0  0  0  0  0
   30.7613   23.2829   24.5292 C   0  0  0  0  0  0  0  0  0  0  0  0
   28.8025   22.4532   23.0976 C   0  0  0  0  0  0  0  0  0  0  0  0
   28.6862   22.1424   21.5506 C   0  0  0  0  0  0  0  0  0  0  0  0
   29.7135   21.1153   21.0805 C   0  0  0  0  0  0  0  0  0  0  0  0
   27.2654   21.6187   21.2462 C   0  0  0  0  0  0  0  0  0  0  0  0
   28.8849   23.5403   20.8367 C   0  0  0  0  0  0  0  0  0  0  0  0
   30.4803   25.3266   21.8552 C   0  0  0  0  0  0  0  0  0  0  0  0
   30.2441   24.3076   20.7360 C   0  0  0  0  0  0  0  0  0  0  0  0
   30.4183   24.9960   19.3682 C   0  0  0  0  0  0  0  0  0  0  0  0
   31.3660   23.2413   20.8403 C   0  0  0  0  0  0  0  0  0  0  0  0
 22 23  1  0
 23 24  1  0
 23 25  1  0
 23 21  1  0
 21 18  1  0
 18 19  1  0
 18 20  1  0
 18 17  1  0
 17 14  1  0
 14 15  1  0
 14 16  1  0
 14  1  1  0
  1  2  1  0
  2  3  1  0
  2  6  1  0
  6  7  1  0
  7  8  2  0
  8  9  1  0
  9 10  2  0
 10 11  1  0
 10 12  1  0
 12 13  2  0
 13  7  1  0
  3  4  1  0
  3  5  1  0
M  END
> <minimizedAffinity>
-2.72615

> <CNNscore>
0.3730970621

> <CNNaffinity>
5.8525733948

> <CNN_VS>
2.1835780144

> <CNNaffinity_variance>
0.0259868857

$$$$



 25 25  0  0  0  0  0  0  0  0999 V2000
   28.1897   22.5405   23.8903 C   0  0  0  0  0  0  0  0  0  0  0  0
   27.7791   21.4262   24.8877 C   0  0  0  0  0  0  0  0  0  0  0  0
   28.4750   20.1748   24.5327 N   0  0  0  0  0  0  0  0  0  0  0  0
   29.4817   20.3054   24.6330 H   0  0  0  0  0  0  0  0  0  0  0  0
   28.2588   19.9277   23.5670 H   0  0  0  0  0  0  0  0  0  0  0  0
   28.0289   21.7603   26.3855 C   0  0  0  0  0  0  0  0  0  0  0  0
   26.9661   21.3285   27.3758 C   0  0  0  0  0  0  0  0  0  0  0  0
   25.6068   21.3849   27.0282 C   0  0  0  0  0  0  0  0  0  0  0  0
   24.6254   20.9900   27.9381 C   0  0  0  0  0  0  0  0  0  0  0  0
   25.0009   20.5438   29.1986 C   0  0  0  0  0  0  0  0  0  0  0  0
   24.0592   20.1640   30.0723 F   0  0  0  0  0  0  0  0  0  0  0  0
   26.3392   20.4877   29.5678 C   0  0  0  0  0  0  0  0  0  0  0  0
   27.3217   20.8826   28.6587 C   0  0  0  0  0  0  0  0  0  0  0  0
   27.2286   23.7796   23.7101 C   0  0  0  0  0  0  0  0  0  0  0  0
   26.4249   24.0388   24.9849 C   0  0  0  0  0  0  0  0  0  0  0  0
   26.2499   23.4505   22.5593 C   0  0  0  0  0  0  0  0  0  0  0  0
   28.1664   24.9805   23.3082 C   0  0  0  0  0  0  0  0  0  0  0  0
   29.6670   24.8578   22.8221 C   0  0  0  0  0  0  0  0  0  0  0  0
   30.6563   24.7988   23.9836 C   0  0  0  0  0  0  0  0  0  0  0  0
   29.8162   23.5847   21.9602 C   0  0  0  0  0  0  0  0  0  0  0  0
   29.9068   26.1288   21.9109 C   0  0  0  0  0  0  0  0  0  0  0  0
   29.1644   24.8816   19.7506 C   0  0  0  0  0  0  0  0  0  0  0  0
   29.5521   26.2185   20.3902 C   0  0  0  0  0  0  0  0  0  0  0  0
   30.6824   26.8720   19.5714 C   0  0  0  0  0  0  0  0  0  0  0  0
   28.3227   27.1576   20.2745 C   0  0  0  0  0  0  0  0  0  0  0  0
 22 23  1  0
 23 24  1  0
 23 25  1  0
 23 21  1  0
 21 18  1  0
 18 19  1  0
 18 20  1  0
 18 17  1  0
 17 14  1  0
 14 15  1  0
 14 16  1  0
 14  1  1  0
  1  2  1  0
  2  3  1  0
  2  6  1  0
  6  7  1  0
  7  8  2  0
  8  9  1  0
  9 10  2  0
 10 11  1  0
 10 12  1  0
 12 13  2  0
 13  7  1  0
  3  4  1  0
  3  5  1  0
M  END
> <minimizedAffinity>
20.54373

> <CNNscore>
0.3455451727

> <CNNaffinity>
5.3631463051

> <CNN_VS>
1.8532092571

> <CNNaffinity_variance>
0.2438078672

$$$$



 25 25  0  0  0  0  0  0  0  0999 V2000
   28.7920   29.3829   23.9960 C   0  0  0  0  0  0  0  0  0  0  0  0
   29.9961   28.4598   23.6748 C   0  0  0  0  0  0  0  0  0  0  0  0
   31.1155   28.7882   24.5779 N   0  0  0  0  0  0  0  0  0  0  0  0
   30.8430   28.5945   25.5415 H   0  0  0  0  0  0  0  0  0  0  0  0
   31.3502   29.7763   24.4830 H   0  0  0  0  0  0  0  0  0  0  0  0
   29.6932   26.9364   23.7450 C   0  0  0  0  0  0  0  0  0  0  0  0
   30.2182   26.0752   22.6139 C   0  0  0  0  0  0  0  0  0  0  0  0
   29.3480   25.2412   21.8936 C   0  0  0  0  0  0  0  0  0  0  0  0
   29.8281   24.4454   20.8528 C   0  0  0  0  0  0  0  0  0  0  0  0
   31.1796   24.4778   20.5344 C   0  0  0  0  0  0  0  0  0  0  0  0
   31.6411   23.7145   19.5350 F   0  0  0  0  0  0  0  0  0  0  0  0
   32.0609   25.2886   21.2389 C   0  0  0  0  0  0  0  0  0  0  0  0
   31.5819   26.0848   22.2803 C   0  0  0  0  0  0  0  0  0  0  0  0
   28.6657   30.7513   23.2193 C   0  0  0  0  0  0  0  0  0  0  0  0
   27.3526   30.8184   22.4387 C   0  0  0  0  0  0  0  0  0  0  0  0
   29.8453   30.8358   22.2233 C   0  0  0  0  0  0  0  0  0  0  0  0
   28.7949   31.8703   24.3213 C   0  0  0  0  0  0  0  0  0  0  0  0
   29.7893   33.1001   24.2766 C   0  0  0  0  0  0  0  0  0  0  0  0
   29.3917   34.2107   25.2461 C   0  0  0  0  0  0  0  0  0  0  0  0
   31.2137   32.6105   24.6188 C   0  0  0  0  0  0  0  0  0  0  0  0
   29.7607   33.5946   22.7740 C   0  0  0  0  0  0  0  0  0  0  0  0
   28.9016   35.9614   22.1159 C   0  0  0  0  0  0  0  0  0  0  0  0
   28.6206   34.4558   22.1377 C   0  0  0  0  0  0  0  0  0  0  0  0
   27.2579   34.1963   22.8093 C   0  0  0  0  0  0  0  0  0  0  0  0
   28.4824   33.9921   20.6638 C   0  0  0  0  0  0  0  0  0  0  0  0
 22 23  1  0
 23 24  1  0
 23 25  1  0
 23 21  1  0
 21 18  1  0
 18 19  1  0
 18 20  1  0
 18 17  1  0
 17 14  1  0
 14 15  1  0
 14 16  1  0
 14  1  1  0
  1  2  1  0
  2  3  1  0
  2  6  1  0
  6  7  1  0
  7  8  2  0
  8  9  1  0
  9 10  2  0
 10 11  1  0
 10 12  1  0
 12 13  2  0
 13  7  1  0
  3  4  1  0
  3  5  1  0
M  END
> <minimizedAffinity>
8.67469

> <CNNscore>
0.3083883822

> <CNNaffinity>
5.2447381020

> <CNN_VS>
1.6174162626

> <CNNaffinity_variance>
0.8762683868

$$$$



 25 25  0  0  0  0  0  0  0  0999 V2000
   29.2428   29.6111   23.9936 C   0  0  0  0  0  0  0  0  0  0  0  0
   30.2742   28.4952   23.6830 C   0  0  0  0  0  0  0  0  0  0  0  0
   31.3774   28.5668   24.6598 N   0  0  0  0  0  0  0  0  0  0  0  0
   31.0155   28.3830   25.5955 H   0  0  0  0  0  0  0  0  0  0  0  0
   31.7950   29.4971   24.6335 H   0  0  0  0  0  0  0  0  0  0  0  0
   29.6929   27.0536   23.6508 C   0  0  0  0  0  0  0  0  0  0  0  0
   30.2212   26.1198   22.5805 C   0  0  0  0  0  0  0  0  0  0  0  0
   29.3505   25.2508   21.9035 C   0  0  0  0  0  0  0  0  0  0  0  0
   29.8337   24.3883   20.9188 C   0  0  0  0  0  0  0  0  0  0  0  0
   31.1886   24.3891   20.6136 C   0  0  0  0  0  0  0  0  0  0  0  0
   31.6530   23.5617   19.6680 F   0  0  0  0  0  0  0  0  0  0  0  0
   32.0703   25.2339   21.2764 C   0  0  0  0  0  0  0  0  0  0  0  0
   31.5883   26.0969   22.2617 C   0  0  0  0  0  0  0  0  0  0  0  0
   29.4018   31.0045   23.2694 C   0  0  0  0  0  0  0  0  0  0  0  0
   30.8645   31.2723   22.9131 C   0  0  0  0  0  0  0  0  0  0  0  0
   28.9160   32.0993   24.2470 C   0  0  0  0  0  0  0  0  0  0  0  0
   28.4560   30.9315   22.0111 C   0  0  0  0  0  0  0  0  0  0  0  0
   27.8036   32.1695   21.2730 C   0  0  0  0  0  0  0  0  0  0  0  0
   27.1652   33.1605   22.2434 C   0  0  0  0  0  0  0  0  0  0  0  0
   28.8886   32.8933   20.4454 C   0  0  0  0  0  0  0  0  0  0  0  0
   26.7362   31.5422   20.2879 C   0  0  0  0  0  0  0  0  0  0  0  0
   25.8604   30.1345   18.2818 C   0  0  0  0  0  0  0  0  0  0  0  0
   27.0801   30.7026   19.0139 C   0  0  0  0  0  0  0  0  0  0  0  0
   28.0711   29.5635   19.3234 C   0  0  0  0  0  0  0  0  0  0  0  0
   27.8018   31.6612   18.0306 C   0  0  0  0  0  0  0  0  0  0  0  0
 22 23  1  0
 23 24  1  0
 23 25  1  0
 23 21  1  0
 21 18  1  0
 18 19  1  0
 18 20  1  0
 18 17  1  0
 17 14  1  0
 14 15  1  0
 14 16  1  0
 14  1  1  0
  1  2  1  0
  2  3  1  0
  2  6  1  0
  6  7  1  0
  7  8  2  0
  8  9  1  0
  9 10  2  0
 10 11  1  0
 10 12  1  0
 12 13  2  0
 13  7  1  0
  3  4  1  0
  3  5  1  0
M  END
> <minimizedAffinity>
3.76174

> <CNNscore>
0.2846225500

> <CNNaffinity>
4.9547762871

> <CNN_VS>
1.4102410078

> <CNNaffinity_variance>
1.2536369562

$$$$
