


 50 53  0  0  0  0  0  0  0  0999 V2000
   -1.8101   19.2078   17.8545 C   0  0  0  0  0  0  0  0  0  0  0  0
    0.2934   20.8025   19.3757 C   0  0  0  0  0  0  0  0  0  0  0  0
    1.3571   20.9397   20.4856 C   0  0  0  0  0  0  0  0  0  0  0  0
    1.9257   19.5893   20.9172 C   0  0  0  0  0  0  0  0  0  0  0  0
    2.5222   18.8085   19.7438 C   0  0  0  0  0  0  0  0  0  0  0  0
    2.0280   19.3143   18.3918 C   0  0  0  0  0  0  0  0  0  0  0  0
    0.6130   19.6640   18.4810 N   0  0  0  0  0  0  0  0  0  0  0  0
   -0.2939   18.9330   17.7237 C   0  0  0  0  0  0  0  0  0  0  0  0
    0.0806   18.0542   16.9347 O   0  0  0  0  0  0  0  0  0  0  0  0
    0.1318   22.1027   18.5427 C   0  0  0  0  0  0  0  0  0  0  0  0
    1.3816   23.0213   18.2505 C   0  0  0  0  0  0  0  0  0  0  0  0
    0.9352   24.2641   17.4583 C   0  0  0  0  0  0  0  0  0  0  0  0
    2.0293   23.4712   19.5652 C   0  0  0  0  0  0  0  0  0  0  0  0
    2.3590   22.1199   17.4019 C   0  0  0  0  0  0  0  0  0  0  0  0
    3.2783   22.6166   16.2167 C   0  0  0  0  0  0  0  0  0  0  0  0
    2.4321   23.3388   15.1482 C   0  0  0  0  0  0  0  0  0  0  0  0
    4.2062   23.6795   16.8484 C   0  0  0  0  0  0  0  0  0  0  0  0
    4.0848   21.4301   15.6133 C   0  0  0  0  0  0  0  0  0  0  0  0
    4.4841   21.6084   13.1529 C   0  0  0  0  0  0  0  0  0  0  0  0
    5.1992   21.5876   14.5284 C   0  0  0  0  0  0  0  0  0  0  0  0
    6.1681   20.3907   14.5039 C   0  0  0  0  0  0  0  0  0  0  0  0
    5.9977   22.8898   14.6511 C   0  0  0  0  0  0  0  0  0  0  0  0
   -2.3131   19.4977   16.4804 N   0  0  0  0  0  0  0  0  0  0  0  0
   -2.8380   18.6771   16.1780 H   0  0  0  0  0  0  0  0  0  0  0  0
   -3.2974   20.8257   16.2228 S   0  0  0  0  0  0  0  0  0  0  0  0
   -2.6557   21.9589   16.8471 O   0  0  0  0  0  0  0  0  0  0  0  0
   -3.6450   20.8172   14.8178 O   0  0  0  0  0  0  0  0  0  0  0  0
   -4.7706   20.4779   17.1463 C   0  0  0  0  0  0  0  0  0  0  0  0
   -5.7155   19.5902   16.6326 C   0  0  0  0  0  0  0  0  0  0  0  0
   -6.8596   19.2992   17.3781 C   0  0  0  0  0  0  0  0  0  0  0  0
   -7.0643   19.8809   18.6390 C   0  0  0  0  0  0  0  0  0  0  0  0
   -8.1992   19.5785   19.4077 C   0  0  0  0  0  0  0  0  0  0  0  0
   -8.3818   20.1573   20.6646 C   0  0  0  0  0  0  0  0  0  0  0  0
   -7.4358   21.0473   21.1665 C   0  0  0  0  0  0  0  0  0  0  0  0
   -6.3060   21.3632   20.4117 C   0  0  0  0  0  0  0  0  0  0  0  0
   -6.1067   20.7902   19.1471 C   0  0  0  0  0  0  0  0  0  0  0  0
   -4.9717   21.0970   18.3823 C   0  0  0  0  0  0  0  0  0  0  0  0
   -2.6006   18.0169   18.4322 C   0  0  0  0  0  0  0  0  0  0  0  0
   -2.0107   16.6472   18.1728 C   0  0  0  0  0  0  0  0  0  0  0  0
   -1.1456   16.0493   19.0988 C   0  0  0  0  0  0  0  0  0  0  0  0
   -0.6553   14.7623   18.8817 C   0  0  0  0  0  0  0  0  0  0  0  0
   -1.0103   14.0628   17.7277 C   0  0  0  0  0  0  0  0  0  0  0  0
   -1.8438   14.6576   16.7781 C   0  0  0  0  0  0  0  0  0  0  0  0
   -2.3477   15.9435   17.0056 C   0  0  0  0  0  0  0  0  0  0  0  0
   -2.1978   13.9140   15.5331 C   0  0  0  0  0  0  0  0  0  0  0  0
   -3.0810   14.4025   14.7258 N   0  0  0  0  0  0  0  0  0  0  0  0
   -1.6101   12.7122   15.2550 N   0  0  0  0  0  0  0  0  0  0  0  0
   -3.5050   15.2683   14.9255 H   0  0  0  0  0  0  0  0  0  0  0  0
   -0.9372   12.3394   15.8694 H   0  0  0  0  0  0  0  0  0  0  0  0
   -1.8594   12.2192   14.4401 H   0  0  0  0  0  0  0  0  0  0  0  0
 19 20  1  0
 20 21  1  0
 20 22  1  0
 20 18  1  0
 18 15  1  0
 15 16  1  0
 15 17  1  0
 15 14  1  0
 14 11  1  0
 11 12  1  0
 11 13  1  0
 11 10  1  0
  2 10  1  0
  2  3  1  0
  3  4  1  0
  4  5  1  0
  5  6  1  0
  6  7  1  0
  7  8  1  0
  8  9  2  0
  8  1  1  0
  1 38  1  0
 38 39  1  0
 39 40  2  0
 40 41  1  0
 41 42  2  0
 42 43  1  0
 43 45  1  0
 45 46  2  0
 45 47  1  0
 43 44  2  0
  1 23  1  0
 23 25  1  0
 25 26  2  0
 25 27  2  0
 25 28  1  0
 28 29  2  0
 29 30  1  0
 30 31  2  0
 31 32  1  0
 32 33  2  0
 33 34  1  0
 34 35  2  0
 35 36  1  0
 36 37  2  0
  7  2  1  0
 44 39  1  0
 37 28  1  0
 36 31  1  0
 46 48  1  0
 47 49  1  0
 47 50  1  0
 23 24  1  0
M  END
> <minimizedAffinity>
-8.82685

> <CNNscore>
0.9465575814

> <CNNaffinity>
8.3779506683

> <CNN_VS>
7.9302124977

> <CNNaffinity_variance>
0.2416560203

$$$$



 50 53  0  0  0  0  0  0  0  0999 V2000
   -1.7714   19.5266   17.6220 C   0  0  0  0  0  0  0  0  0  0  0  0
    0.2862   21.0878   19.2378 C   0  0  0  0  0  0  0  0  0  0  0  0
    1.2341   21.2429   20.4460 C   0  0  0  0  0  0  0  0  0  0  0  0
    1.6375   19.8973   21.0459 C   0  0  0  0  0  0  0  0  0  0  0  0
    2.2869   18.9724   20.0138 C   0  0  0  0  0  0  0  0  0  0  0  0
    1.9834   19.3916   18.5785 C   0  0  0  0  0  0  0  0  0  0  0  0
    0.6015   19.8533   18.4792 N   0  0  0  0  0  0  0  0  0  0  0  0
   -0.2786   19.1279   17.6856 C   0  0  0  0  0  0  0  0  0  0  0  0
    0.1017   18.1567   17.0170 O   0  0  0  0  0  0  0  0  0  0  0  0
    0.3243   22.3170   18.2902 C   0  0  0  0  0  0  0  0  0  0  0  0
    1.6818   23.0787   18.0288 C   0  0  0  0  0  0  0  0  0  0  0  0
    1.4450   24.5983   18.1081 C   0  0  0  0  0  0  0  0  0  0  0  0
    2.7259   22.6790   19.0777 C   0  0  0  0  0  0  0  0  0  0  0  0
    2.1208   22.6408   16.5784 C   0  0  0  0  0  0  0  0  0  0  0  0
    3.4986   21.9698   16.1937 C   0  0  0  0  0  0  0  0  0  0  0  0
    4.4113   21.8709   17.4333 C   0  0  0  0  0  0  0  0  0  0  0  0
    3.1388   20.5232   15.7845 C   0  0  0  0  0  0  0  0  0  0  0  0
    4.1819   22.7468   15.0310 C   0  0  0  0  0  0  0  0  0  0  0  0
    6.4514   21.8708   15.6021 C   0  0  0  0  0  0  0  0  0  0  0  0
    5.5753   22.3765   14.4272 C   0  0  0  0  0  0  0  0  0  0  0  0
    6.2998   23.5975   13.8303 C   0  0  0  0  0  0  0  0  0  0  0  0
    5.5154   21.2562   13.3832 C   0  0  0  0  0  0  0  0  0  0  0  0
   -2.0759   19.8206   16.1916 N   0  0  0  0  0  0  0  0  0  0  0  0
   -2.7513   19.1214   15.8829 H   0  0  0  0  0  0  0  0  0  0  0  0
   -2.6965   21.3154   15.7682 S   0  0  0  0  0  0  0  0  0  0  0  0
   -3.8121   21.0778   14.8824 O   0  0  0  0  0  0  0  0  0  0  0  0
   -2.8371   22.0683   16.9963 O   0  0  0  0  0  0  0  0  0  0  0  0
   -1.4142   22.0783   14.8102 C   0  0  0  0  0  0  0  0  0  0  0  0
   -1.2375   23.4603   14.8672 C   0  0  0  0  0  0  0  0  0  0  0  0
   -0.2077   24.0510   14.1323 C   0  0  0  0  0  0  0  0  0  0  0  0
    0.6548   23.2709   13.3465 C   0  0  0  0  0  0  0  0  0  0  0  0
    1.7078   23.8505   12.6214 C   0  0  0  0  0  0  0  0  0  0  0  0
    2.5633   23.0588   11.8538 C   0  0  0  0  0  0  0  0  0  0  0  0
    2.3750   21.6802   11.7981 C   0  0  0  0  0  0  0  0  0  0  0  0
    1.3291   21.0898   12.5076 C   0  0  0  0  0  0  0  0  0  0  0  0
    0.4605   21.8708   13.2843 C   0  0  0  0  0  0  0  0  0  0  0  0
   -0.5910   21.2867   14.0057 C   0  0  0  0  0  0  0  0  0  0  0  0
   -2.7227   18.4181   18.1150 C   0  0  0  0  0  0  0  0  0  0  0  0
   -2.1695   17.0096   18.0742 C   0  0  0  0  0  0  0  0  0  0  0  0
   -1.5283   16.4560   19.1903 C   0  0  0  0  0  0  0  0  0  0  0  0
   -1.0762   15.1372   19.1658 C   0  0  0  0  0  0  0  0  0  0  0  0
   -1.2445   14.3602   18.0190 C   0  0  0  0  0  0  0  0  0  0  0  0
   -1.8505   14.9076   16.8862 C   0  0  0  0  0  0  0  0  0  0  0  0
   -2.3178   16.2266   16.9184 C   0  0  0  0  0  0  0  0  0  0  0  0
   -2.0030   14.0792   15.6538 C   0  0  0  0  0  0  0  0  0  0  0  0
   -2.9842   14.3106   14.8452 N   0  0  0  0  0  0  0  0  0  0  0  0
   -1.1252   13.0661   15.3889 N   0  0  0  0  0  0  0  0  0  0  0  0
   -3.6172   15.0403   15.0353 H   0  0  0  0  0  0  0  0  0  0  0  0
   -0.3775   12.8891   16.0044 H   0  0  0  0  0  0  0  0  0  0  0  0
   -1.2404   12.5132   14.5825 H   0  0  0  0  0  0  0  0  0  0  0  0
 19 20  1  0
 20 21  1  0
 20 22  1  0
 20 18  1  0
 18 15  1  0
 15 16  1  0
 15 17  1  0
 15 14  1  0
 14 11  1  0
 11 12  1  0
 11 13  1  0
 11 10  1  0
  2 10  1  0
  2  3  1  0
  3  4  1  0
  4  5  1  0
  5  6  1  0
  6  7  1  0
  7  8  1  0
  8  9  2  0
  8  1  1  0
  1 38  1  0
 38 39  1  0
 39 40  2  0
 40 41  1  0
 41 42  2  0
 42 43  1  0
 43 45  1  0
 45 46  2  0
 45 47  1  0
 43 44  2  0
  1 23  1  0
 23 25  1  0
 25 26  2  0
 25 27  2  0
 25 28  1  0
 28 29  2  0
 29 30  1  0
 30 31  2  0
 31 32  1  0
 32 33  2  0
 33 34  1  0
 34 35  2  0
 35 36  1  0
 36 37  2  0
  7  2  1  0
 44 39  1  0
 37 28  1  0
 36 31  1  0
 46 48  1  0
 47 49  1  0
 47 50  1  0
 23 24  1  0
M  END
> <minimizedAffinity>
-8.04920

> <CNNscore>
0.9454044700

> <CNNaffinity>
8.6727323532

> <CNN_VS>
8.1992397308

> <CNNaffinity_variance>
0.0587933660

$$$$



 50 53  0  0  0  0  0  0  0  0999 V2000
   -1.1943   18.7857   18.6388 C   0  0  0  0  0  0  0  0  0  0  0  0
    1.2929   20.4814   18.1691 C   0  0  0  0  0  0  0  0  0  0  0  0
    2.3913   21.4497   18.6570 C   0  0  0  0  0  0  0  0  0  0  0  0
    2.6112   21.3676   20.1663 C   0  0  0  0  0  0  0  0  0  0  0  0
    2.9520   19.9485   20.6273 C   0  0  0  0  0  0  0  0  0  0  0  0
    2.5599   18.8893   19.6015 C   0  0  0  0  0  0  0  0  0  0  0  0
    1.2839   19.2441   18.9863 N   0  0  0  0  0  0  0  0  0  0  0  0
    0.1972   18.4038   19.1949 C   0  0  0  0  0  0  0  0  0  0  0  0
    0.3106   17.3414   19.8223 O   0  0  0  0  0  0  0  0  0  0  0  0
    1.4407   20.1231   16.6657 C   0  0  0  0  0  0  0  0  0  0  0  0
    2.1424   21.1296   15.6728 C   0  0  0  0  0  0  0  0  0  0  0  0
    1.6215   20.8923   14.2432 C   0  0  0  0  0  0  0  0  0  0  0  0
    1.8416   22.5761   16.0819 C   0  0  0  0  0  0  0  0  0  0  0  0
    3.6817   20.8041   15.7846 C   0  0  0  0  0  0  0  0  0  0  0  0
    4.8611   21.8341   15.5729 C   0  0  0  0  0  0  0  0  0  0  0  0
    5.2628   22.4732   16.9181 C   0  0  0  0  0  0  0  0  0  0  0  0
    6.0609   20.9783   15.1064 C   0  0  0  0  0  0  0  0  0  0  0  0
    4.4698   22.9068   14.5152 C   0  0  0  0  0  0  0  0  0  0  0  0
    5.7384   23.9005   12.6053 C   0  0  0  0  0  0  0  0  0  0  0  0
    4.7462   22.7704   12.9827 C   0  0  0  0  0  0  0  0  0  0  0  0
    3.4797   22.9942   12.1355 C   0  0  0  0  0  0  0  0  0  0  0  0
    5.3955   21.4388   12.5907 C   0  0  0  0  0  0  0  0  0  0  0  0
   -1.0264   18.9959   17.1715 N   0  0  0  0  0  0  0  0  0  0  0  0
   -1.1417   18.0852   16.7269 H   0  0  0  0  0  0  0  0  0  0  0  0
   -2.0361   20.0602   16.3674 S   0  0  0  0  0  0  0  0  0  0  0  0
   -1.3041   21.2931   16.1944 O   0  0  0  0  0  0  0  0  0  0  0  0
   -2.5947   19.3344   15.2468 O   0  0  0  0  0  0  0  0  0  0  0  0
   -3.3511   20.3827   17.5123 C   0  0  0  0  0  0  0  0  0  0  0  0
   -3.1959   21.3715   18.4832 C   0  0  0  0  0  0  0  0  0  0  0  0
   -4.2463   21.6396   19.3632 C   0  0  0  0  0  0  0  0  0  0  0  0
   -5.4562   20.9336   19.2759 C   0  0  0  0  0  0  0  0  0  0  0  0
   -6.5274   21.2098   20.1401 C   0  0  0  0  0  0  0  0  0  0  0  0
   -7.7279   20.5060   20.0323 C   0  0  0  0  0  0  0  0  0  0  0  0
   -7.8712   19.5159   19.0637 C   0  0  0  0  0  0  0  0  0  0  0  0
   -6.8135   19.2250   18.2019 C   0  0  0  0  0  0  0  0  0  0  0  0
   -5.6006   19.9231   18.2961 C   0  0  0  0  0  0  0  0  0  0  0  0
   -4.5328   19.6421   17.4312 C   0  0  0  0  0  0  0  0  0  0  0  0
   -2.2638   17.6988   18.8660 C   0  0  0  0  0  0  0  0  0  0  0  0
   -1.8459   16.2833   18.5296 C   0  0  0  0  0  0  0  0  0  0  0  0
   -1.2776   15.4505   19.5026 C   0  0  0  0  0  0  0  0  0  0  0  0
   -0.9521   14.1286   19.2012 C   0  0  0  0  0  0  0  0  0  0  0  0
   -1.1751   13.6273   17.9183 C   0  0  0  0  0  0  0  0  0  0  0  0
   -1.7087   14.4542   16.9274 C   0  0  0  0  0  0  0  0  0  0  0  0
   -2.0494   15.7761   17.2364 C   0  0  0  0  0  0  0  0  0  0  0  0
   -1.9195   13.9192   15.5499 C   0  0  0  0  0  0  0  0  0  0  0  0
   -1.1380   12.9951   15.0963 N   0  0  0  0  0  0  0  0  0  0  0  0
   -2.9184   14.4159   14.7607 N   0  0  0  0  0  0  0  0  0  0  0  0
   -0.4181   12.6367   15.6641 H   0  0  0  0  0  0  0  0  0  0  0  0
   -3.5141   15.1198   15.1055 H   0  0  0  0  0  0  0  0  0  0  0  0
   -3.0423   14.0698   13.8474 H   0  0  0  0  0  0  0  0  0  0  0  0
 19 20  1  0
 20 21  1  0
 20 22  1  0
 20 18  1  0
 18 15  1  0
 15 16  1  0
 15 17  1  0
 15 14  1  0
 14 11  1  0
 11 12  1  0
 11 13  1  0
 11 10  1  0
  2 10  1  0
  2  3  1  0
  3  4  1  0
  4  5  1  0
  5  6  1  0
  6  7  1  0
  7  8  1  0
  8  9  2  0
  8  1  1  0
  1 38  1  0
 38 39  1  0
 39 40  2  0
 40 41  1  0
 41 42  2  0
 42 43  1  0
 43 45  1  0
 45 46  2  0
 45 47  1  0
 43 44  2  0
  1 23  1  0
 23 25  1  0
 25 26  2  0
 25 27  2  0
 25 28  1  0
 28 29  2  0
 29 30  1  0
 30 31  2  0
 31 32  1  0
 32 33  2  0
 33 34  1  0
 34 35  2  0
 35 36  1  0
 36 37  2  0
  7  2  1  0
 44 39  1  0
 37 28  1  0
 36 31  1  0
 46 48  1  0
 47 49  1  0
 47 50  1  0
 23 24  1  0
M  END
> <minimizedAffinity>
-8.59185

> <CNNscore>
0.8502674699

> <CNNaffinity>
8.3303880692

> <CNN_VS>
7.0830578804

> <CNNaffinity_variance>
0.0607534051

$$$$



 50 53  0  0  0  0  0  0  0  0999 V2000
   -2.0180   19.6775   17.4822 C   0  0  0  0  0  0  0  0  0  0  0  0
   -1.7276   20.5050   20.3998 C   0  0  0  0  0  0  0  0  0  0  0  0
   -1.5909   20.1730   21.9010 C   0  0  0  0  0  0  0  0  0  0  0  0
   -1.0276   18.7733   22.1387 C   0  0  0  0  0  0  0  0  0  0  0  0
    0.3255   18.5677   21.4539 C   0  0  0  0  0  0  0  0  0  0  0  0
    0.5865   19.5912   20.3529 C   0  0  0  0  0  0  0  0  0  0  0  0
   -0.6481   19.8543   19.6186 N   0  0  0  0  0  0  0  0  0  0  0  0
   -0.7026   19.5009   18.2761 C   0  0  0  0  0  0  0  0  0  0  0  0
    0.2855   19.0417   17.6862 O   0  0  0  0  0  0  0  0  0  0  0  0
   -1.7327   22.0333   20.1267 C   0  0  0  0  0  0  0  0  0  0  0  0
   -3.0983   22.8147   20.0002 C   0  0  0  0  0  0  0  0  0  0  0  0
   -3.6765   23.0746   21.4036 C   0  0  0  0  0  0  0  0  0  0  0  0
   -2.8790   24.1567   19.2923 C   0  0  0  0  0  0  0  0  0  0  0  0
   -4.0349   21.8630   19.1604 C   0  0  0  0  0  0  0  0  0  0  0  0
   -5.3753   22.2877   18.4398 C   0  0  0  0  0  0  0  0  0  0  0  0
   -5.4150   23.8166   18.2390 C   0  0  0  0  0  0  0  0  0  0  0  0
   -5.2921   21.6522   17.0330 C   0  0  0  0  0  0  0  0  0  0  0  0
   -6.6117   21.7748   19.2339 C   0  0  0  0  0  0  0  0  0  0  0  0
   -6.4027   19.4886   18.2468 C   0  0  0  0  0  0  0  0  0  0  0  0
   -7.4148   20.4838   18.8705 C   0  0  0  0  0  0  0  0  0  0  0  0
   -8.4929   20.7444   17.8019 C   0  0  0  0  0  0  0  0  0  0  0  0
   -8.0512   19.7937   20.0817 C   0  0  0  0  0  0  0  0  0  0  0  0
   -1.6401   19.7714   16.0422 N   0  0  0  0  0  0  0  0  0  0  0  0
   -2.3045   19.1970   15.5237 H   0  0  0  0  0  0  0  0  0  0  0  0
   -1.6024   21.2666   15.2927 S   0  0  0  0  0  0  0  0  0  0  0  0
   -2.5733   21.2319   14.2242 O   0  0  0  0  0  0  0  0  0  0  0  0
   -1.6532   22.2588   16.3453 O   0  0  0  0  0  0  0  0  0  0  0  0
    0.0031   21.3532   14.5452 C   0  0  0  0  0  0  0  0  0  0  0  0
    0.1254   21.7466   13.2130 C   0  0  0  0  0  0  0  0  0  0  0  0
    1.3949   21.8400   12.6392 C   0  0  0  0  0  0  0  0  0  0  0  0
    2.5464   21.5524   13.3885 C   0  0  0  0  0  0  0  0  0  0  0  0
    3.8291   21.6648   12.8295 C   0  0  0  0  0  0  0  0  0  0  0  0
    4.9642   21.3859   13.5921 C   0  0  0  0  0  0  0  0  0  0  0  0
    4.8317   20.9877   14.9199 C   0  0  0  0  0  0  0  0  0  0  0  0
    3.5636   20.8648   15.4879 C   0  0  0  0  0  0  0  0  0  0  0  0
    2.4124   21.1418   14.7359 C   0  0  0  0  0  0  0  0  0  0  0  0
    1.1330   21.0264   15.2989 C   0  0  0  0  0  0  0  0  0  0  0  0
   -3.0035   18.5056   17.6620 C   0  0  0  0  0  0  0  0  0  0  0  0
   -2.3787   17.1318   17.7786 C   0  0  0  0  0  0  0  0  0  0  0  0
   -1.8045   16.7024   18.9825 C   0  0  0  0  0  0  0  0  0  0  0  0
   -1.2862   15.4134   19.1000 C   0  0  0  0  0  0  0  0  0  0  0  0
   -1.3201   14.5426   18.0103 C   0  0  0  0  0  0  0  0  0  0  0  0
   -1.8575   14.9665   16.7930 C   0  0  0  0  0  0  0  0  0  0  0  0
   -2.3917   16.2554   16.6818 C   0  0  0  0  0  0  0  0  0  0  0  0
   -1.8661   14.0388   15.6235 C   0  0  0  0  0  0  0  0  0  0  0  0
   -1.0108   13.0715   15.5683 N   0  0  0  0  0  0  0  0  0  0  0  0
   -2.7572   14.2204   14.6037 N   0  0  0  0  0  0  0  0  0  0  0  0
   -0.3684   12.9400   16.3026 H   0  0  0  0  0  0  0  0  0  0  0  0
   -3.4091   14.9570   14.6449 H   0  0  0  0  0  0  0  0  0  0  0  0
   -2.7474   13.6146   13.8277 H   0  0  0  0  0  0  0  0  0  0  0  0
 19 20  1  0
 20 21  1  0
 20 22  1  0
 20 18  1  0
 18 15  1  0
 15 16  1  0
 15 17  1  0
 15 14  1  0
 14 11  1  0
 11 12  1  0
 11 13  1  0
 11 10  1  0
  2 10  1  0
  2  3  1  0
  3  4  1  0
  4  5  1  0
  5  6  1  0
  6  7  1  0
  7  8  1  0
  8  9  2  0
  8  1  1  0
  1 38  1  0
 38 39  1  0
 39 40  2  0
 40 41  1  0
 41 42  2  0
 42 43  1  0
 43 45  1  0
 45 46  2  0
 45 47  1  0
 43 44  2  0
  1 23  1  0
 23 25  1  0
 25 26  2  0
 25 27  2  0
 25 28  1  0
 28 29  2  0
 29 30  1  0
 30 31  2  0
 31 32  1  0
 32 33  2  0
 33 34  1  0
 34 35  2  0
 35 36  1  0
 36 37  2  0
  7  2  1  0
 44 39  1  0
 37 28  1  0
 36 31  1  0
 46 48  1  0
 47 49  1  0
 47 50  1  0
 23 24  1  0
M  END
> <minimizedAffinity>
-8.29173

> <CNNscore>
0.8230268955

> <CNNaffinity>
8.0512752533

> <CNN_VS>
6.6264162064

> <CNNaffinity_variance>
0.2088412791

$$$$



 50 53  0  0  0  0  0  0  0  0999 V2000
   -1.4061   19.9320   17.2271 C   0  0  0  0  0  0  0  0  0  0  0  0
    1.4015   21.0508   16.8435 C   0  0  0  0  0  0  0  0  0  0  0  0
    2.6620   21.2989   15.9881 C   0  0  0  0  0  0  0  0  0  0  0  0
    2.3662   21.2586   14.4901 C   0  0  0  0  0  0  0  0  0  0  0  0
    1.2802   22.2583   14.0855 C   0  0  0  0  0  0  0  0  0  0  0  0
    0.4412   22.7240   15.2718 C   0  0  0  0  0  0  0  0  0  0  0  0
    0.1981   21.6037   16.1765 N   0  0  0  0  0  0  0  0  0  0  0  0
   -1.1107   21.1708   16.3499 C   0  0  0  0  0  0  0  0  0  0  0  0
   -2.0630   21.7559   15.8152 O   0  0  0  0  0  0  0  0  0  0  0  0
    1.5300   21.6360   18.2758 C   0  0  0  0  0  0  0  0  0  0  0  0
    2.5211   20.9832   19.3164 C   0  0  0  0  0  0  0  0  0  0  0  0
    2.1397   21.4262   20.7411 C   0  0  0  0  0  0  0  0  0  0  0  0
    2.4496   19.4542   19.2313 C   0  0  0  0  0  0  0  0  0  0  0  0
    3.9478   21.5198   18.9107 C   0  0  0  0  0  0  0  0  0  0  0  0
    4.6893   22.7543   19.5610 C   0  0  0  0  0  0  0  0  0  0  0  0
    5.7135   23.3467   18.5713 C   0  0  0  0  0  0  0  0  0  0  0  0
    3.5893   23.8218   19.7614 C   0  0  0  0  0  0  0  0  0  0  0  0
    5.3533   22.3480   20.9088 C   0  0  0  0  0  0  0  0  0  0  0  0
    6.6192   22.6394   23.0435 C   0  0  0  0  0  0  0  0  0  0  0  0
    5.6106   23.3349   22.0934 C   0  0  0  0  0  0  0  0  0  0  0  0
    4.3393   23.6039   22.9201 C   0  0  0  0  0  0  0  0  0  0  0  0
    6.2309   24.6676   21.6604 C   0  0  0  0  0  0  0  0  0  0  0  0
   -2.7319   19.4048   16.7916 N   0  0  0  0  0  0  0  0  0  0  0  0
   -2.5659   18.4827   16.3885 H   0  0  0  0  0  0  0  0  0  0  0  0
   -3.9616   19.2307   17.9124 S   0  0  0  0  0  0  0  0  0  0  0  0
   -4.1405   17.8145   18.1316 O   0  0  0  0  0  0  0  0  0  0  0  0
   -3.6674   20.1448   18.9952 O   0  0  0  0  0  0  0  0  0  0  0  0
   -5.4119   19.8243   17.0828 C   0  0  0  0  0  0  0  0  0  0  0  0
   -5.2842   20.7244   16.0254 C   0  0  0  0  0  0  0  0  0  0  0  0
   -6.4287   21.1656   15.3582 C   0  0  0  0  0  0  0  0  0  0  0  0
   -7.7016   20.7076   15.7326 C   0  0  0  0  0  0  0  0  0  0  0  0
   -8.8574   21.1262   15.0549 C   0  0  0  0  0  0  0  0  0  0  0  0
  -10.1145   20.6523   15.4329 C   0  0  0  0  0  0  0  0  0  0  0  0
  -10.2326   19.7585   16.4942 C   0  0  0  0  0  0  0  0  0  0  0  0
   -9.0941   19.3383   17.1821 C   0  0  0  0  0  0  0  0  0  0  0  0
   -7.8231   19.8043   16.8148 C   0  0  0  0  0  0  0  0  0  0  0  0
   -6.6716   19.3840   17.4964 C   0  0  0  0  0  0  0  0  0  0  0  0
   -0.3546   18.8140   17.0816 C   0  0  0  0  0  0  0  0  0  0  0  0
   -0.7891   17.4378   17.5385 C   0  0  0  0  0  0  0  0  0  0  0  0
   -0.8097   17.1048   18.8994 C   0  0  0  0  0  0  0  0  0  0  0  0
   -1.2695   15.8562   19.3163 C   0  0  0  0  0  0  0  0  0  0  0  0
   -1.6990   14.9184   18.3767 C   0  0  0  0  0  0  0  0  0  0  0  0
   -1.6525   15.2217   17.0143 C   0  0  0  0  0  0  0  0  0  0  0  0
   -1.2055   16.4813   16.5989 C   0  0  0  0  0  0  0  0  0  0  0  0
   -2.0882   14.2038   16.0131 C   0  0  0  0  0  0  0  0  0  0  0  0
   -3.0107   14.5016   15.1584 N   0  0  0  0  0  0  0  0  0  0  0  0
   -1.5332   12.9552   16.0103 N   0  0  0  0  0  0  0  0  0  0  0  0
   -3.4111   15.4010   15.1596 H   0  0  0  0  0  0  0  0  0  0  0  0
   -0.8304   12.7274   16.6611 H   0  0  0  0  0  0  0  0  0  0  0  0
   -1.8360   12.2833   15.3576 H   0  0  0  0  0  0  0  0  0  0  0  0
 19 20  1  0
 20 21  1  0
 20 22  1  0
 20 18  1  0
 18 15  1  0
 15 16  1  0
 15 17  1  0
 15 14  1  0
 14 11  1  0
 11 12  1  0
 11 13  1  0
 11 10  1  0
  2 10  1  0
  2  3  1  0
  3  4  1  0
  4  5  1  0
  5  6  1  0
  6  7  1  0
  7  8  1  0
  8  9  2  0
  8  1  1  0
  1 38  1  0
 38 39  1  0
 39 40  2  0
 40 41  1  0
 41 42  2  0
 42 43  1  0
 43 45  1  0
 45 46  2  0
 45 47  1  0
 43 44  2  0
  1 23  1  0
 23 25  1  0
 25 26  2  0
 25 27  2  0
 25 28  1  0
 28 29  2  0
 29 30  1  0
 30 31  2  0
 31 32  1  0
 32 33  2  0
 33 34  1  0
 34 35  2  0
 35 36  1  0
 36 37  2  0
  7  2  1  0
 44 39  1  0
 37 28  1  0
 36 31  1  0
 46 48  1  0
 47 49  1  0
 47 50  1  0
 23 24  1  0
M  END
> <minimizedAffinity>
-7.40597

> <CNNscore>
0.8040779829

> <CNNaffinity>
7.9564795494

> <CNN_VS>
6.3976302147

> <CNNaffinity_variance>
0.0898854062

$$$$



 50 53  0  0  0  0  0  0  0  0999 V2000
   -1.7083   18.8916   18.9161 C   0  0  0  0  0  0  0  0  0  0  0  0
    0.3816   20.5855   20.3460 C   0  0  0  0  0  0  0  0  0  0  0  0
    0.8028   21.5883   21.4411 C   0  0  0  0  0  0  0  0  0  0  0  0
   -0.1539   21.5857   22.6319 C   0  0  0  0  0  0  0  0  0  0  0  0
   -0.3025   20.1955   23.2545 C   0  0  0  0  0  0  0  0  0  0  0  0
    0.1482   19.0814   22.3145 C   0  0  0  0  0  0  0  0  0  0  0  0
   -0.2603   19.3916   20.9472 N   0  0  0  0  0  0  0  0  0  0  0  0
   -1.1789   18.5523   20.3290 C   0  0  0  0  0  0  0  0  0  0  0  0
   -1.5932   17.5247   20.8833 O   0  0  0  0  0  0  0  0  0  0  0  0
    1.5709   20.1522   19.4470 C   0  0  0  0  0  0  0  0  0  0  0  0
    2.2706   21.1980   18.4940 C   0  0  0  0  0  0  0  0  0  0  0  0
    1.3188   22.3812   18.2381 C   0  0  0  0  0  0  0  0  0  0  0  0
    3.5603   21.7222   19.1360 C   0  0  0  0  0  0  0  0  0  0  0  0
    2.5672   20.4018   17.1650 C   0  0  0  0  0  0  0  0  0  0  0  0
    2.8179   21.0411   15.7420 C   0  0  0  0  0  0  0  0  0  0  0  0
    1.5946   20.8154   14.8298 C   0  0  0  0  0  0  0  0  0  0  0  0
    2.9126   22.5627   15.9978 C   0  0  0  0  0  0  0  0  0  0  0  0
    4.1243   20.4786   15.1099 C   0  0  0  0  0  0  0  0  0  0  0  0
    6.5397   20.3338   14.4863 C   0  0  0  0  0  0  0  0  0  0  0  0
    5.4060   21.3311   14.8384 C   0  0  0  0  0  0  0  0  0  0  0  0
    5.8713   22.1055   16.0857 C   0  0  0  0  0  0  0  0  0  0  0  0
    5.2627   22.2991   13.6590 C   0  0  0  0  0  0  0  0  0  0  0  0
   -1.6325   20.3746   18.7747 N   0  0  0  0  0  0  0  0  0  0  0  0
   -1.4250   20.5684   17.7951 H   0  0  0  0  0  0  0  0  0  0  0  0
   -2.9547   21.3135   19.1860 S   0  0  0  0  0  0  0  0  0  0  0  0
   -3.3382   20.9440   20.5285 O   0  0  0  0  0  0  0  0  0  0  0  0
   -2.6219   22.6761   18.8293 O   0  0  0  0  0  0  0  0  0  0  0  0
   -4.2460   20.7702   18.0991 C   0  0  0  0  0  0  0  0  0  0  0  0
   -4.0722   20.8617   16.7186 C   0  0  0  0  0  0  0  0  0  0  0  0
   -5.0816   20.4057   15.8685 C   0  0  0  0  0  0  0  0  0  0  0  0
   -6.2617   19.8493   16.3860 C   0  0  0  0  0  0  0  0  0  0  0  0
   -7.2737   19.3665   15.5415 C   0  0  0  0  0  0  0  0  0  0  0  0
   -8.4362   18.8058   16.0728 C   0  0  0  0  0  0  0  0  0  0  0  0
   -8.6033   18.7244   17.4528 C   0  0  0  0  0  0  0  0  0  0  0  0
   -7.6098   19.2059   18.3054 C   0  0  0  0  0  0  0  0  0  0  0  0
   -6.4352   19.7718   17.7881 C   0  0  0  0  0  0  0  0  0  0  0  0
   -5.4278   20.2542   18.6365 C   0  0  0  0  0  0  0  0  0  0  0  0
   -0.8892   18.2418   17.7831 C   0  0  0  0  0  0  0  0  0  0  0  0
   -0.8816   16.7282   17.7607 C   0  0  0  0  0  0  0  0  0  0  0  0
   -0.2811   15.9965   18.7938 C   0  0  0  0  0  0  0  0  0  0  0  0
   -0.3319   14.6031   18.7972 C   0  0  0  0  0  0  0  0  0  0  0  0
   -0.9694   13.9228   17.7590 C   0  0  0  0  0  0  0  0  0  0  0  0
   -1.5430   14.6359   16.7041 C   0  0  0  0  0  0  0  0  0  0  0  0
   -1.5046   16.0350   16.7107 C   0  0  0  0  0  0  0  0  0  0  0  0
   -2.1998   13.9008   15.5832 C   0  0  0  0  0  0  0  0  0  0  0  0
   -3.2350   14.4124   15.0028 N   0  0  0  0  0  0  0  0  0  0  0  0
   -1.7261   12.6830   15.1837 N   0  0  0  0  0  0  0  0  0  0  0  0
   -3.5770   15.2898   15.2900 H   0  0  0  0  0  0  0  0  0  0  0  0
   -0.9375   12.2925   15.6252 H   0  0  0  0  0  0  0  0  0  0  0  0
   -2.1733   12.1960   14.4542 H   0  0  0  0  0  0  0  0  0  0  0  0
 19 20  1  0
 20 21  1  0
 20 22  1  0
 20 18  1  0
 18 15  1  0
 15 16  1  0
 15 17  1  0
 15 14  1  0
 14 11  1  0
 11 12  1  0
 11 13  1  0
 11 10  1  0
  2 10  1  0
  2  3  1  0
  3  4  1  0
  4  5  1  0
  5  6  1  0
  6  7  1  0
  7  8  1  0
  8  9  2  0
  8  1  1  0
  1 38  1  0
 38 39  1  0
 39 40  2  0
 40 41  1  0
 41 42  2  0
 42 43  1  0
 43 45  1  0
 45 46  2  0
 45 47  1  0
 43 44  2  0
  1 23  1  0
 23 25  1  0
 25 26  2  0
 25 27  2  0
 25 28  1  0
 28 29  2  0
 29 30  1  0
 30 31  2  0
 31 32  1  0
 32 33  2  0
 33 34  1  0
 34 35  2  0
 35 36  1  0
 36 37  2  0
  7  2  1  0
 44 39  1  0
 37 28  1  0
 36 31  1  0
 46 48  1  0
 47 49  1  0
 47 50  1  0
 23 24  1  0
M  END
> <minimizedAffinity>
-8.88850

> <CNNscore>
0.7826783657

> <CNNaffinity>
8.0078573227

> <CNN_VS>
6.2675766945

> <CNNaffinity_variance>
0.6436914802

$$$$



 50 53  0  0  0  0  0  0  0  0999 V2000
   -1.5998   19.0029   17.4196 C   0  0  0  0  0  0  0  0  0  0  0  0
   -2.6889   21.7475   18.1701 C   0  0  0  0  0  0  0  0  0  0  0  0
   -2.7952   23.2729   17.9602 C   0  0  0  0  0  0  0  0  0  0  0  0
   -2.4563   23.6887   16.5301 C   0  0  0  0  0  0  0  0  0  0  0  0
   -3.3316   22.9774   15.4955 C   0  0  0  0  0  0  0  0  0  0  0  0
   -3.9997   21.7251   16.0551 C   0  0  0  0  0  0  0  0  0  0  0  0
   -3.0721   21.0204   16.9358 N   0  0  0  0  0  0  0  0  0  0  0  0
   -2.6503   19.7496   16.5650 C   0  0  0  0  0  0  0  0  0  0  0  0
   -3.0969   19.1876   15.5552 O   0  0  0  0  0  0  0  0  0  0  0  0
   -3.5453   21.2505   19.3660 C   0  0  0  0  0  0  0  0  0  0  0  0
   -5.0423   21.7250   19.5246 C   0  0  0  0  0  0  0  0  0  0  0  0
   -5.3258   22.0547   21.0018 C   0  0  0  0  0  0  0  0  0  0  0  0
   -5.2963   22.9753   18.6746 C   0  0  0  0  0  0  0  0  0  0  0  0
   -5.9102   20.5035   19.0319 C   0  0  0  0  0  0  0  0  0  0  0  0
   -7.4506   20.5463   18.6830 C   0  0  0  0  0  0  0  0  0  0  0  0
   -8.1441   19.2530   19.1583 C   0  0  0  0  0  0  0  0  0  0  0  0
   -8.0222   21.7018   19.5362 C   0  0  0  0  0  0  0  0  0  0  0  0
   -7.6621   20.7920   17.1608 C   0  0  0  0  0  0  0  0  0  0  0  0
   -8.7461   20.7984   14.9093 C   0  0  0  0  0  0  0  0  0  0  0  0
   -8.8285   20.1719   16.3251 C   0  0  0  0  0  0  0  0  0  0  0  0
  -10.2141   20.5377   16.8894 C   0  0  0  0  0  0  0  0  0  0  0  0
   -8.7278   18.6516   16.1615 C   0  0  0  0  0  0  0  0  0  0  0  0
   -0.8775   20.0394   18.2128 N   0  0  0  0  0  0  0  0  0  0  0  0
   -1.2709   20.0196   19.1537 H   0  0  0  0  0  0  0  0  0  0  0  0
    0.7844   19.9446   18.3792 S   0  0  0  0  0  0  0  0  0  0  0  0
    1.1692   20.9192   19.3731 O   0  0  0  0  0  0  0  0  0  0  0  0
    1.1075   18.5403   18.5145 O   0  0  0  0  0  0  0  0  0  0  0  0
    1.4234   20.4986   16.8208 C   0  0  0  0  0  0  0  0  0  0  0  0
    0.5598   21.0532   15.8768 C   0  0  0  0  0  0  0  0  0  0  0  0
    1.0743   21.5134   14.6632 C   0  0  0  0  0  0  0  0  0  0  0  0
    2.4481   21.4329   14.3871 C   0  0  0  0  0  0  0  0  0  0  0  0
    2.9804   21.9129   13.1801 C   0  0  0  0  0  0  0  0  0  0  0  0
    4.3506   21.8353   12.9263 C   0  0  0  0  0  0  0  0  0  0  0  0
    5.2044   21.2741   13.8724 C   0  0  0  0  0  0  0  0  0  0  0  0
    4.6899   20.7864   15.0738 C   0  0  0  0  0  0  0  0  0  0  0  0
    3.3156   20.8571   15.3452 C   0  0  0  0  0  0  0  0  0  0  0  0
    2.7888   20.3745   16.5521 C   0  0  0  0  0  0  0  0  0  0  0  0
   -2.2176   17.9759   18.3894 C   0  0  0  0  0  0  0  0  0  0  0  0
   -1.8190   16.5334   18.1624 C   0  0  0  0  0  0  0  0  0  0  0  0
   -1.1352   15.8120   19.1501 C   0  0  0  0  0  0  0  0  0  0  0  0
   -0.8259   14.4660   18.9578 C   0  0  0  0  0  0  0  0  0  0  0  0
   -1.1815   13.8284   17.7687 C   0  0  0  0  0  0  0  0  0  0  0  0
   -1.8326   14.5421   16.7603 C   0  0  0  0  0  0  0  0  0  0  0  0
   -2.1562   15.8888   16.9616 C   0  0  0  0  0  0  0  0  0  0  0  0
   -2.1860   13.8607   15.4800 C   0  0  0  0  0  0  0  0  0  0  0  0
   -2.9968   14.4343   14.6530 N   0  0  0  0  0  0  0  0  0  0  0  0
   -1.6748   12.6273   15.1893 N   0  0  0  0  0  0  0  0  0  0  0  0
   -3.3656   15.3230   14.8616 H   0  0  0  0  0  0  0  0  0  0  0  0
   -1.0571   12.1896   15.8187 H   0  0  0  0  0  0  0  0  0  0  0  0
   -1.9241   12.1763   14.3504 H   0  0  0  0  0  0  0  0  0  0  0  0
 19 20  1  0
 20 21  1  0
 20 22  1  0
 20 18  1  0
 18 15  1  0
 15 16  1  0
 15 17  1  0
 15 14  1  0
 14 11  1  0
 11 12  1  0
 11 13  1  0
 11 10  1  0
  2 10  1  0
  2  3  1  0
  3  4  1  0
  4  5  1  0
  5  6  1  0
  6  7  1  0
  7  8  1  0
  8  9  2  0
  8  1  1  0
  1 38  1  0
 38 39  1  0
 39 40  2  0
 40 41  1  0
 41 42  2  0
 42 43  1  0
 43 45  1  0
 45 46  2  0
 45 47  1  0
 43 44  2  0
  1 23  1  0
 23 25  1  0
 25 26  2  0
 25 27  2  0
 25 28  1  0
 28 29  2  0
 29 30  1  0
 30 31  2  0
 31 32  1  0
 32 33  2  0
 33 34  1  0
 34 35  2  0
 35 36  1  0
 36 37  2  0
  7  2  1  0
 44 39  1  0
 37 28  1  0
 36 31  1  0
 46 48  1  0
 47 49  1  0
 47 50  1  0
 23 24  1  0
M  END
> <minimizedAffinity>
-8.62684

> <CNNscore>
0.7368527651

> <CNNaffinity>
7.8950152397

> <CNN_VS>
5.8174638748

> <CNNaffinity_variance>
0.1878147125

$$$$



 50 53  0  0  0  0  0  0  0  0999 V2000
   -2.0545   18.3352   19.3909 C   0  0  0  0  0  0  0  0  0  0  0  0
   -0.3478   20.7561   20.1038 C   0  0  0  0  0  0  0  0  0  0  0  0
   -0.0956   22.0577   20.8941 C   0  0  0  0  0  0  0  0  0  0  0  0
   -0.8929   22.1121   22.1958 C   0  0  0  0  0  0  0  0  0  0  0  0
   -0.6086   20.9117   23.1017 C   0  0  0  0  0  0  0  0  0  0  0  0
    0.0207   19.7444   22.3471 C   0  0  0  0  0  0  0  0  0  0  0  0
   -0.5906   19.6211   21.0266 N   0  0  0  0  0  0  0  0  0  0  0  0
   -1.3149   18.4701   20.7424 C   0  0  0  0  0  0  0  0  0  0  0  0
   -1.3875   17.5339   21.5507 O   0  0  0  0  0  0  0  0  0  0  0  0
    0.8164   20.4130   19.1357 C   0  0  0  0  0  0  0  0  0  0  0  0
    2.3098   20.7139   19.5485 C   0  0  0  0  0  0  0  0  0  0  0  0
    2.3457   21.9021   20.5274 C   0  0  0  0  0  0  0  0  0  0  0  0
    2.9311   19.4873   20.2264 C   0  0  0  0  0  0  0  0  0  0  0  0
    3.0432   21.0617   18.1959 C   0  0  0  0  0  0  0  0  0  0  0  0
    4.0432   22.2641   17.9705 C   0  0  0  0  0  0  0  0  0  0  0  0
    3.2680   23.5935   17.8646 C   0  0  0  0  0  0  0  0  0  0  0  0
    4.8820   22.3355   19.2670 C   0  0  0  0  0  0  0  0  0  0  0  0
    4.9332   22.0105   16.7191 C   0  0  0  0  0  0  0  0  0  0  0  0
    4.0511   22.8130   14.5231 C   0  0  0  0  0  0  0  0  0  0  0  0
    4.3859   21.5348   15.3343 C   0  0  0  0  0  0  0  0  0  0  0  0
    3.0742   20.7381   15.4636 C   0  0  0  0  0  0  0  0  0  0  0  0
    5.3985   20.7244   14.5179 C   0  0  0  0  0  0  0  0  0  0  0  0
   -2.6318   19.6757   19.0828 N   0  0  0  0  0  0  0  0  0  0  0  0
   -1.9093   20.2039   18.5937 H   0  0  0  0  0  0  0  0  0  0  0  0
   -4.0225   19.7851   18.1593 S   0  0  0  0  0  0  0  0  0  0  0  0
   -4.3689   18.4439   17.7507 O   0  0  0  0  0  0  0  0  0  0  0  0
   -4.9426   20.6263   18.8944 O   0  0  0  0  0  0  0  0  0  0  0  0
   -3.5263   20.6691   16.7045 C   0  0  0  0  0  0  0  0  0  0  0  0
   -2.1714   20.7925   16.3986 C   0  0  0  0  0  0  0  0  0  0  0  0
   -1.7892   21.4654   15.2365 C   0  0  0  0  0  0  0  0  0  0  0  0
   -2.7506   22.0093   14.3704 C   0  0  0  0  0  0  0  0  0  0  0  0
   -2.3796   22.6679   13.1877 C   0  0  0  0  0  0  0  0  0  0  0  0
   -3.3490   23.1931   12.3319 C   0  0  0  0  0  0  0  0  0  0  0  0
   -4.6993   23.0704   12.6490 C   0  0  0  0  0  0  0  0  0  0  0  0
   -5.0839   22.4245   13.8241 C   0  0  0  0  0  0  0  0  0  0  0  0
   -4.1227   21.8905   14.6949 C   0  0  0  0  0  0  0  0  0  0  0  0
   -4.4988   21.2347   15.8763 C   0  0  0  0  0  0  0  0  0  0  0  0
   -1.1342   17.9114   18.2290 C   0  0  0  0  0  0  0  0  0  0  0  0
   -0.9912   16.4200   18.0126 C   0  0  0  0  0  0  0  0  0  0  0  0
   -0.2950   15.6233   18.9313 C   0  0  0  0  0  0  0  0  0  0  0  0
   -0.2202   14.2419   18.7571 C   0  0  0  0  0  0  0  0  0  0  0  0
   -0.8263   13.6413   17.6531 C   0  0  0  0  0  0  0  0  0  0  0  0
   -1.4946   14.4248   16.7099 C   0  0  0  0  0  0  0  0  0  0  0  0
   -1.5820   15.8094   16.8950 C   0  0  0  0  0  0  0  0  0  0  0  0
   -2.1176   13.7786   15.5172 C   0  0  0  0  0  0  0  0  0  0  0  0
   -1.6654   12.6437   15.0956 N   0  0  0  0  0  0  0  0  0  0  0  0
   -3.1464   14.3903   14.8580 N   0  0  0  0  0  0  0  0  0  0  0  0
   -0.9241   12.2023   15.5699 H   0  0  0  0  0  0  0  0  0  0  0  0
   -3.4915   15.2548   15.1785 H   0  0  0  0  0  0  0  0  0  0  0  0
   -3.5426   13.9664   14.0626 H   0  0  0  0  0  0  0  0  0  0  0  0
 19 20  1  0
 20 21  1  0
 20 22  1  0
 20 18  1  0
 18 15  1  0
 15 16  1  0
 15 17  1  0
 15 14  1  0
 14 11  1  0
 11 12  1  0
 11 13  1  0
 11 10  1  0
  2 10  1  0
  2  3  1  0
  3  4  1  0
  4  5  1  0
  5  6  1  0
  6  7  1  0
  7  8  1  0
  8  9  2  0
  8  1  1  0
  1 38  1  0
 38 39  1  0
 39 40  2  0
 40 41  1  0
 41 42  2  0
 42 43  1  0
 43 45  1  0
 45 46  2  0
 45 47  1  0
 43 44  2  0
  1 23  1  0
 23 25  1  0
 25 26  2  0
 25 27  2  0
 25 28  1  0
 28 29  2  0
 29 30  1  0
 30 31  2  0
 31 32  1  0
 32 33  2  0
 33 34  1  0
 34 35  2  0
 35 36  1  0
 36 37  2  0
  7  2  1  0
 44 39  1  0
 37 28  1  0
 36 31  1  0
 46 48  1  0
 47 49  1  0
 47 50  1  0
 23 24  1  0
M  END
> <minimizedAffinity>
-8.35617

> <CNNscore>
0.6630995274

> <CNNaffinity>
7.7108254433

> <CNN_VS>
5.1130447388

> <CNNaffinity_variance>
0.5760247111

$$$$



 50 53  0  0  0  0  0  0  0  0999 V2000
   -2.0594   18.5477   19.1115 C   0  0  0  0  0  0  0  0  0  0  0  0
   -0.3012   20.9429   19.7847 C   0  0  0  0  0  0  0  0  0  0  0  0
   -0.0377   22.2724   20.5233 C   0  0  0  0  0  0  0  0  0  0  0  0
   -0.8879   22.4163   21.7841 C   0  0  0  0  0  0  0  0  0  0  0  0
   -0.6850   21.2526   22.7573 C   0  0  0  0  0  0  0  0  0  0  0  0
   -0.0650   20.0300   22.0875 C   0  0  0  0  0  0  0  0  0  0  0  0
   -0.6229   19.8627   20.7483 N   0  0  0  0  0  0  0  0  0  0  0  0
   -1.3742   18.7237   20.4867 C   0  0  0  0  0  0  0  0  0  0  0  0
   -1.5142   17.8308   21.3342 O   0  0  0  0  0  0  0  0  0  0  0  0
    0.8909   20.5150   18.8868 C   0  0  0  0  0  0  0  0  0  0  0  0
    2.3740   20.6799   19.4008 C   0  0  0  0  0  0  0  0  0  0  0  0
    2.4363   21.8106   20.4445 C   0  0  0  0  0  0  0  0  0  0  0  0
    2.8613   19.3767   20.0445 C   0  0  0  0  0  0  0  0  0  0  0  0
    3.2126   21.0393   18.1141 C   0  0  0  0  0  0  0  0  0  0  0  0
    4.1413   22.3058   17.9411 C   0  0  0  0  0  0  0  0  0  0  0  0
    3.3071   23.5997   18.0379 C   0  0  0  0  0  0  0  0  0  0  0  0
    5.0805   22.2841   19.1687 C   0  0  0  0  0  0  0  0  0  0  0  0
    4.9348   22.2261   16.6045 C   0  0  0  0  0  0  0  0  0  0  0  0
    3.2489   20.6012   15.7317 C   0  0  0  0  0  0  0  0  0  0  0  0
    4.3939   21.5538   15.3011 C   0  0  0  0  0  0  0  0  0  0  0  0
    5.4559   20.6812   14.6063 C   0  0  0  0  0  0  0  0  0  0  0  0
    3.8094   22.5486   14.2926 C   0  0  0  0  0  0  0  0  0  0  0  0
   -2.5816   19.8885   18.7182 N   0  0  0  0  0  0  0  0  0  0  0  0
   -1.7805   20.4395   18.4101 H   0  0  0  0  0  0  0  0  0  0  0  0
   -3.7415   20.0051   17.5183 S   0  0  0  0  0  0  0  0  0  0  0  0
   -3.5614   21.2854   16.8748 O   0  0  0  0  0  0  0  0  0  0  0  0
   -3.6996   18.7611   16.7796 O   0  0  0  0  0  0  0  0  0  0  0  0
   -5.2843   20.0643   18.3902 C   0  0  0  0  0  0  0  0  0  0  0  0
   -6.3196   19.2052   18.0232 C   0  0  0  0  0  0  0  0  0  0  0  0
   -7.5218   19.2376   18.7325 C   0  0  0  0  0  0  0  0  0  0  0  0
   -7.6962   20.1158   19.8134 C   0  0  0  0  0  0  0  0  0  0  0  0
   -8.8918   20.1415   20.5486 C   0  0  0  0  0  0  0  0  0  0  0  0
   -9.0445   21.0132   21.6278 C   0  0  0  0  0  0  0  0  0  0  0  0
   -8.0073   21.8718   21.9829 C   0  0  0  0  0  0  0  0  0  0  0  0
   -6.8155   21.8630   21.2580 C   0  0  0  0  0  0  0  0  0  0  0  0
   -6.6452   20.9929   20.1711 C   0  0  0  0  0  0  0  0  0  0  0  0
   -5.4491   20.9724   19.4389 C   0  0  0  0  0  0  0  0  0  0  0  0
   -1.1037   18.0442   18.0114 C   0  0  0  0  0  0  0  0  0  0  0  0
   -0.9999   16.5410   17.8668 C   0  0  0  0  0  0  0  0  0  0  0  0
   -0.3718   15.7654   18.8502 C   0  0  0  0  0  0  0  0  0  0  0  0
   -0.3343   14.3759   18.7397 C   0  0  0  0  0  0  0  0  0  0  0  0
   -0.9098   13.7452   17.6361 C   0  0  0  0  0  0  0  0  0  0  0  0
   -1.5094   14.5057   16.6300 C   0  0  0  0  0  0  0  0  0  0  0  0
   -1.5599   15.8993   16.7506 C   0  0  0  0  0  0  0  0  0  0  0  0
   -2.0993   13.8261   15.4391 C   0  0  0  0  0  0  0  0  0  0  0  0
   -3.0002   14.4320   14.7380 N   0  0  0  0  0  0  0  0  0  0  0  0
   -1.7080   12.5614   15.1006 N   0  0  0  0  0  0  0  0  0  0  0  0
   -3.2827   15.3433   14.9812 H   0  0  0  0  0  0  0  0  0  0  0  0
   -1.0218   12.0990   15.6340 H   0  0  0  0  0  0  0  0  0  0  0  0
   -2.1123   12.1125   14.3232 H   0  0  0  0  0  0  0  0  0  0  0  0
 19 20  1  0
 20 21  1  0
 20 22  1  0
 20 18  1  0
 18 15  1  0
 15 16  1  0
 15 17  1  0
 15 14  1  0
 14 11  1  0
 11 12  1  0
 11 13  1  0
 11 10  1  0
  2 10  1  0
  2  3  1  0
  3  4  1  0
  4  5  1  0
  5  6  1  0
  6  7  1  0
  7  8  1  0
  8  9  2  0
  8  1  1  0
  1 38  1  0
 38 39  1  0
 39 40  2  0
 40 41  1  0
 41 42  2  0
 42 43  1  0
 43 45  1  0
 45 46  2  0
 45 47  1  0
 43 44  2  0
  1 23  1  0
 23 25  1  0
 25 26  2  0
 25 27  2  0
 25 28  1  0
 28 29  2  0
 29 30  1  0
 30 31  2  0
 31 32  1  0
 32 33  2  0
 33 34  1  0
 34 35  2  0
 35 36  1  0
 36 37  2  0
  7  2  1  0
 44 39  1  0
 37 28  1  0
 36 31  1  0
 46 48  1  0
 47 49  1  0
 47 50  1  0
 23 24  1  0
M  END
> <minimizedAffinity>
-8.99995

> <CNNscore>
0.6219115853

> <CNNaffinity>
7.6875205040

> <CNN_VS>
4.7809581757

> <CNNaffinity_variance>
0.6699387431

$$$$
