


 33 34  0  0  0  0  0  0  0  0999 V2000
   39.1331    1.9773   12.7613 C   0  0  0  0  0  0  0  0  0  0  0  0
   39.2297    0.6319   13.4767 C   0  0  0  0  0  0  0  0  0  0  0  0
   40.1231   -0.2910   12.8591 O   0  0  0  0  0  0  0  0  0  0  0  0
   37.7427    0.2589   13.6707 C   0  0  0  0  0  0  0  0  0  0  0  0
   37.0236    1.5095   13.7070 O   0  0  0  0  0  0  0  0  0  0  0  0
   37.9717    2.5875   13.5334 C   0  0  0  0  0  0  0  0  0  0  0  0
   39.8453   -0.4461   11.9427 H   0  0  0  0  0  0  0  0  0  0  0  0
   37.0728   -0.6352   12.7108 N   0  0  0  0  0  0  0  0  0  0  0  0
   36.7494   -1.9061   13.1771 C   0  0  0  0  0  0  0  0  0  0  0  0
   36.0699   -2.7946   12.4493 C   0  0  0  0  0  0  0  0  0  0  0  0
   35.6252   -2.4118   11.1062 C   0  0  0  0  0  0  0  0  0  0  0  0
   35.0546   -3.1971   10.3637 O   0  0  0  0  0  0  0  0  0  0  0  0
   35.8998   -1.1262   10.7424 N   0  0  0  0  0  0  0  0  0  0  0  0
   36.6138   -0.2110   11.4676 C   0  0  0  0  0  0  0  0  0  0  0  0
   36.8430    0.8955   10.9788 O   0  0  0  0  0  0  0  0  0  0  0  0
   35.5499   -0.8271    9.8722 H   0  0  0  0  0  0  0  0  0  0  0  0
   37.3057    3.7462   12.8006 C   0  0  0  0  0  0  0  0  0  0  0  0
   36.1324    3.2861   12.1459 O   0  0  0  0  0  0  0  0  0  0  0  0
   36.3684    2.5956   11.5069 H   0  0  0  0  0  0  0  0  0  0  0  0
   40.3586    2.7117   12.8523 O   0  0  0  0  0  0  0  0  0  0  0  0
   40.5342    3.2570   14.1476 C   0  0  0  0  0  0  0  0  0  0  0  0
   42.0337    3.3699   14.5868 N   0  0  0  0  0  0  0  0  0  0  0  0
   42.5332    1.9338   14.6031 C   0  0  0  0  0  0  0  0  0  0  0  0
   41.9713    3.9052   16.0222 C   0  0  0  0  0  0  0  0  0  0  0  0
   42.6635    4.3099   13.5852 C   0  0  0  0  0  0  0  0  0  0  0  0
   44.0848    4.0926   12.9748 N   0  0  0  0  0  0  0  0  0  0  0  0
   44.0995    2.8277   12.1362 C   0  0  0  0  0  0  0  0  0  0  0  0
   45.1438    4.0119   14.0585 C   0  0  0  0  0  0  0  0  0  0  0  0
   44.3176    5.3570   12.0978 C   0  0  0  0  0  0  0  0  0  0  0  0
   46.7227    4.6137   11.4446 C   0  0  0  0  0  0  0  0  0  0  0  0
   45.5432    5.5548   11.2227 N   0  0  0  0  0  0  0  0  0  0  0  0
   45.2435    5.6438    9.7153 C   0  0  0  0  0  0  0  0  0  0  0  0
   46.0983    6.9840   11.5880 C   0  0  0  0  0  0  0  0  0  0  0  0
 30 31  1  0
 31 32  1  0
 31 33  1  0
 31 29  1  0
 29 26  1  0
 26 27  1  0
 26 28  1  0
 26 25  1  0
 25 22  1  0
 22 23  1  0
 22 24  1  0
 22 21  1  0
 21 20  1  0
  1 20  1  0
  1  2  1  0
  2  3  1  0
  2  4  1  0
  4  8  1  0
  8  9  1  0
  9 10  2  0
 10 11  1  0
 11 12  2  0
 11 13  1  0
 13 14  1  0
 14 15  2  0
  4  5  1  0
  5  6  1  0
  6 17  1  0
 17 18  1  0
  6  1  1  0
 14  8  1  0
  3  7  1  0
 13 16  1  0
 18 19  1  0
M  CHG 1  22   1
M  CHG 1  26   1
M  CHG 1  31   1
M  END
> <minimizedAffinity>
-4.99715

> <CNNscore>
0.7558236122

> <CNNaffinity>
4.1393170357

> <CNN_VS>
3.1285934448

> <CNNaffinity_variance>
0.5879170895

$$$$



 33 34  0  0  0  0  0  0  0  0999 V2000
   38.0879    1.6649   13.4540 C   0  0  0  0  0  0  0  0  0  0  0  0
   36.7930    1.5477   12.6536 C   0  0  0  0  0  0  0  0  0  0  0  0
   35.6130    1.5664   13.4528 O   0  0  0  0  0  0  0  0  0  0  0  0
   37.0868    0.3410   11.7341 C   0  0  0  0  0  0  0  0  0  0  0  0
   38.5207    0.3051   11.5759 O   0  0  0  0  0  0  0  0  0  0  0  0
   39.0929    1.3883   12.3444 C   0  0  0  0  0  0  0  0  0  0  0  0
   35.6468    0.8414   14.0963 H   0  0  0  0  0  0  0  0  0  0  0  0
   36.6267   -1.0064   12.1118 N   0  0  0  0  0  0  0  0  0  0  0  0
   37.2602   -1.5878   13.2063 C   0  0  0  0  0  0  0  0  0  0  0  0
   36.8957   -2.7672   13.7131 C   0  0  0  0  0  0  0  0  0  0  0  0
   35.7654   -3.4755   13.1058 C   0  0  0  0  0  0  0  0  0  0  0  0
   35.4199   -4.5865   13.4797 O   0  0  0  0  0  0  0  0  0  0  0  0
   35.1354   -2.8139   12.0930 N   0  0  0  0  0  0  0  0  0  0  0  0
   35.5100   -1.6156   11.5479 C   0  0  0  0  0  0  0  0  0  0  0  0
   34.8828   -1.1711   10.5863 O   0  0  0  0  0  0  0  0  0  0  0  0
   34.3318   -3.2404   11.7168 H   0  0  0  0  0  0  0  0  0  0  0  0
   40.4661    0.9811   12.8653 C   0  0  0  0  0  0  0  0  0  0  0  0
   41.4747    1.6805   12.1508 O   0  0  0  0  0  0  0  0  0  0  0  0
   41.4122    1.4635   11.2075 H   0  0  0  0  0  0  0  0  0  0  0  0
   38.2156    2.9538   14.0638 O   0  0  0  0  0  0  0  0  0  0  0  0
   39.1155    2.9166   15.1568 C   0  0  0  0  0  0  0  0  0  0  0  0
   39.6388    4.3277   15.5918 N   0  0  0  0  0  0  0  0  0  0  0  0
   39.0296    4.5505   16.9671 C   0  0  0  0  0  0  0  0  0  0  0  0
   39.0022    5.2964   14.5882 C   0  0  0  0  0  0  0  0  0  0  0  0
   41.1443    4.2273   15.5102 C   0  0  0  0  0  0  0  0  0  0  0  0
   42.0770    4.2252   16.7631 N   0  0  0  0  0  0  0  0  0  0  0  0
   41.8102    5.4572   17.6085 C   0  0  0  0  0  0  0  0  0  0  0  0
   43.5395    4.1754   16.3617 C   0  0  0  0  0  0  0  0  0  0  0  0
   41.6897    2.9226   17.5214 C   0  0  0  0  0  0  0  0  0  0  0  0
   43.1894    3.5098   19.5633 C   0  0  0  0  0  0  0  0  0  0  0  0
   42.3500    2.4793   18.8154 N   0  0  0  0  0  0  0  0  0  0  0  0
   41.4034    1.7808   19.8083 C   0  0  0  0  0  0  0  0  0  0  0  0
   43.3732    1.3529   18.4046 C   0  0  0  0  0  0  0  0  0  0  0  0
 30 31  1  0
 31 32  1  0
 31 33  1  0
 31 29  1  0
 29 26  1  0
 26 27  1  0
 26 28  1  0
 26 25  1  0
 25 22  1  0
 22 23  1  0
 22 24  1  0
 22 21  1  0
 21 20  1  0
  1 20  1  0
  1  2  1  0
  2  3  1  0
  2  4  1  0
  4  8  1  0
  8  9  1  0
  9 10  2  0
 10 11  1  0
 11 12  2  0
 11 13  1  0
 13 14  1  0
 14 15  2  0
  4  5  1  0
  5  6  1  0
  6 17  1  0
 17 18  1  0
  6  1  1  0
 14  8  1  0
  3  7  1  0
 13 16  1  0
 18 19  1  0
M  CHG 1  22   1
M  CHG 1  26   1
M  CHG 1  31   1
M  END
> <minimizedAffinity>
-4.94771

> <CNNscore>
0.7518637180

> <CNNaffinity>
4.5708279610

> <CNN_VS>
3.4366397858

> <CNNaffinity_variance>
0.2268040180

$$$$



 33 34  0  0  0  0  0  0  0  0999 V2000
   37.9378    1.5169   13.5567 C   0  0  0  0  0  0  0  0  0  0  0  0
   36.7918    1.3826   12.5568 C   0  0  0  0  0  0  0  0  0  0  0  0
   35.4997    1.3424   13.1569 O   0  0  0  0  0  0  0  0  0  0  0  0
   37.2703    0.2120   11.6686 C   0  0  0  0  0  0  0  0  0  0  0  0
   38.7115    0.2248   11.7415 O   0  0  0  0  0  0  0  0  0  0  0  0
   39.1157    1.3029   12.6164 C   0  0  0  0  0  0  0  0  0  0  0  0
   35.4557    0.6009   13.7806 H   0  0  0  0  0  0  0  0  0  0  0  0
   36.8032   -1.1590   11.9367 N   0  0  0  0  0  0  0  0  0  0  0  0
   37.5436   -1.8910   12.8603 C   0  0  0  0  0  0  0  0  0  0  0  0
   37.1948   -3.1144   13.2633 C   0  0  0  0  0  0  0  0  0  0  0  0
   35.9672   -3.7090   12.7271 C   0  0  0  0  0  0  0  0  0  0  0  0
   35.6234   -4.8484   13.0051 O   0  0  0  0  0  0  0  0  0  0  0  0
   35.2441   -2.9078   11.8930 N   0  0  0  0  0  0  0  0  0  0  0  0
   35.5989   -1.6612   11.4534 C   0  0  0  0  0  0  0  0  0  0  0  0
   34.8755   -1.0819   10.6430 O   0  0  0  0  0  0  0  0  0  0  0  0
   34.3816   -3.2612   11.5759 H   0  0  0  0  0  0  0  0  0  0  0  0
   40.4018    0.9235   13.3411 C   0  0  0  0  0  0  0  0  0  0  0  0
   41.5221    1.2824   12.5455 O   0  0  0  0  0  0  0  0  0  0  0  0
   41.4807    0.8123   11.6981 H   0  0  0  0  0  0  0  0  0  0  0  0
   37.9217    2.7914   14.2087 O   0  0  0  0  0  0  0  0  0  0  0  0
   38.7911    3.7065   13.5665 C   0  0  0  0  0  0  0  0  0  0  0  0
   39.5397    4.6650   14.5540 N   0  0  0  0  0  0  0  0  0  0  0  0
   40.6668    5.2593   13.7242 C   0  0  0  0  0  0  0  0  0  0  0  0
   40.1271    3.7318   15.6194 C   0  0  0  0  0  0  0  0  0  0  0  0
   38.4767    5.6138   15.0572 C   0  0  0  0  0  0  0  0  0  0  0  0
   38.7960    6.9821   15.7395 N   0  0  0  0  0  0  0  0  0  0  0  0
   39.1890    8.0046   14.6890 C   0  0  0  0  0  0  0  0  0  0  0  0
   39.9024    6.8403   16.7683 C   0  0  0  0  0  0  0  0  0  0  0  0
   37.4642    7.3747   16.4425 C   0  0  0  0  0  0  0  0  0  0  0  0
   38.1299    9.7435   17.2846 C   0  0  0  0  0  0  0  0  0  0  0  0
   37.0596    8.8106   16.7275 N   0  0  0  0  0  0  0  0  0  0  0  0
   36.3326    9.5115   15.5656 C   0  0  0  0  0  0  0  0  0  0  0  0
   35.9718    8.7264   17.8650 C   0  0  0  0  0  0  0  0  0  0  0  0
 30 31  1  0
 31 32  1  0
 31 33  1  0
 31 29  1  0
 29 26  1  0
 26 27  1  0
 26 28  1  0
 26 25  1  0
 25 22  1  0
 22 23  1  0
 22 24  1  0
 22 21  1  0
 21 20  1  0
  1 20  1  0
  1  2  1  0
  2  3  1  0
  2  4  1  0
  4  8  1  0
  8  9  1  0
  9 10  2  0
 10 11  1  0
 11 12  2  0
 11 13  1  0
 13 14  1  0
 14 15  2  0
  4  5  1  0
  5  6  1  0
  6 17  1  0
 17 18  1  0
  6  1  1  0
 14  8  1  0
  3  7  1  0
 13 16  1  0
 18 19  1  0
M  CHG 1  22   1
M  CHG 1  26   1
M  CHG 1  31   1
M  END
> <minimizedAffinity>
-5.43943

> <CNNscore>
0.7198972702

> <CNNaffinity>
4.6838736534

> <CNN_VS>
3.3719079494

> <CNNaffinity_variance>
0.2815881073

$$$$



 33 34  0  0  0  0  0  0  0  0999 V2000
   38.8491    2.2918   12.5736 C   0  0  0  0  0  0  0  0  0  0  0  0
   39.3322    0.9153   13.0240 C   0  0  0  0  0  0  0  0  0  0  0  0
   40.1758    0.2591   12.0810 O   0  0  0  0  0  0  0  0  0  0  0  0
   38.0192    0.2447   13.4868 C   0  0  0  0  0  0  0  0  0  0  0  0
   37.1448    1.3218   13.8841 O   0  0  0  0  0  0  0  0  0  0  0  0
   37.8374    2.5740   13.6756 C   0  0  0  0  0  0  0  0  0  0  0  0
   39.7050    0.1624   11.2384 H   0  0  0  0  0  0  0  0  0  0  0  0
   37.2791   -0.6421   12.5727 N   0  0  0  0  0  0  0  0  0  0  0  0
   37.1297   -1.9631   12.9848 C   0  0  0  0  0  0  0  0  0  0  0  0
   36.4157   -2.8597   12.3015 C   0  0  0  0  0  0  0  0  0  0  0  0
   35.7406   -2.4333   11.0724 C   0  0  0  0  0  0  0  0  0  0  0  0
   35.1237   -3.2170   10.3661 O   0  0  0  0  0  0  0  0  0  0  0  0
   35.8567   -1.1084   10.7697 N   0  0  0  0  0  0  0  0  0  0  0  0
   36.6023   -0.1820   11.4473 C   0  0  0  0  0  0  0  0  0  0  0  0
   36.6679    0.9687   11.0147 O   0  0  0  0  0  0  0  0  0  0  0  0
   35.3546   -0.7867    9.9864 H   0  0  0  0  0  0  0  0  0  0  0  0
   36.8354    3.6617   13.3072 C   0  0  0  0  0  0  0  0  0  0  0  0
   35.5147    3.1912   13.5336 O   0  0  0  0  0  0  0  0  0  0  0  0
   35.3526    2.4070   12.9861 H   0  0  0  0  0  0  0  0  0  0  0  0
   39.9270    3.2312   12.5016 O   0  0  0  0  0  0  0  0  0  0  0  0
   40.6825    3.2369   13.6995 C   0  0  0  0  0  0  0  0  0  0  0  0
   42.2320    3.2300   13.4684 N   0  0  0  0  0  0  0  0  0  0  0  0
   42.6903    1.8855   14.0111 C   0  0  0  0  0  0  0  0  0  0  0  0
   42.7573    4.3515   14.3723 C   0  0  0  0  0  0  0  0  0  0  0  0
   42.4062    3.4739   11.9873 C   0  0  0  0  0  0  0  0  0  0  0  0
   43.1204    4.7325   11.3994 N   0  0  0  0  0  0  0  0  0  0  0  0
   42.9092    4.7925    9.8976 C   0  0  0  0  0  0  0  0  0  0  0  0
   44.6041    4.7233   11.7171 C   0  0  0  0  0  0  0  0  0  0  0  0
   42.4309    5.9289   12.1171 C   0  0  0  0  0  0  0  0  0  0  0  0
   42.2107    8.4115   12.8599 C   0  0  0  0  0  0  0  0  0  0  0  0
   43.0594    7.3061   12.2403 N   0  0  0  0  0  0  0  0  0  0  0  0
   44.4548    7.3150   12.8905 C   0  0  0  0  0  0  0  0  0  0  0  0
   43.3225    7.7856   10.7621 C   0  0  0  0  0  0  0  0  0  0  0  0
 30 31  1  0
 31 32  1  0
 31 33  1  0
 31 29  1  0
 29 26  1  0
 26 27  1  0
 26 28  1  0
 26 25  1  0
 25 22  1  0
 22 23  1  0
 22 24  1  0
 22 21  1  0
 21 20  1  0
  1 20  1  0
  1  2  1  0
  2  3  1  0
  2  4  1  0
  4  8  1  0
  8  9  1  0
  9 10  2  0
 10 11  1  0
 11 12  2  0
 11 13  1  0
 13 14  1  0
 14 15  2  0
  4  5  1  0
  5  6  1  0
  6 17  1  0
 17 18  1  0
  6  1  1  0
 14  8  1  0
  3  7  1  0
 13 16  1  0
 18 19  1  0
M  CHG 1  22   1
M  CHG 1  26   1
M  CHG 1  31   1
M  END
> <minimizedAffinity>
-5.11349

> <CNNscore>
0.6927980781

> <CNNaffinity>
4.1096229553

> <CNN_VS>
2.8471388817

> <CNNaffinity_variance>
0.6563319564

$$$$



 33 34  0  0  0  0  0  0  0  0999 V2000
   37.9226    0.8347   13.4349 C   0  0  0  0  0  0  0  0  0  0  0  0
   36.8957    0.8412   12.3051 C   0  0  0  0  0  0  0  0  0  0  0  0
   35.5425    0.8805   12.7509 O   0  0  0  0  0  0  0  0  0  0  0  0
   37.3844   -0.3232   11.4143 C   0  0  0  0  0  0  0  0  0  0  0  0
   38.8036   -0.4327   11.6515 O   0  0  0  0  0  0  0  0  0  0  0  0
   39.1833    0.5672   12.6247 C   0  0  0  0  0  0  0  0  0  0  0  0
   35.3685    0.1174   13.3239 H   0  0  0  0  0  0  0  0  0  0  0  0
   36.7851   -1.6617   11.5517 N   0  0  0  0  0  0  0  0  0  0  0  0
   37.5512   -2.6125   12.2200 C   0  0  0  0  0  0  0  0  0  0  0  0
   37.1074   -3.8415   12.4908 C   0  0  0  0  0  0  0  0  0  0  0  0
   35.7461   -4.2036   12.0861 C   0  0  0  0  0  0  0  0  0  0  0  0
   35.2999   -5.3299   12.2468 O   0  0  0  0  0  0  0  0  0  0  0  0
   35.0194   -3.2019   11.5125 N   0  0  0  0  0  0  0  0  0  0  0  0
   35.4667   -1.9446   11.2084 C   0  0  0  0  0  0  0  0  0  0  0  0
   34.7140   -1.1643   10.6251 O   0  0  0  0  0  0  0  0  0  0  0  0
   34.0804   -3.4032   11.2958 H   0  0  0  0  0  0  0  0  0  0  0  0
   40.3419    0.0503   13.4692 C   0  0  0  0  0  0  0  0  0  0  0  0
   39.8589   -0.8876   14.4199 O   0  0  0  0  0  0  0  0  0  0  0  0
   39.2084   -0.4575   14.9968 H   0  0  0  0  0  0  0  0  0  0  0  0
   37.9274    2.0750   14.1498 O   0  0  0  0  0  0  0  0  0  0  0  0
   38.4849    3.1154   13.3671 C   0  0  0  0  0  0  0  0  0  0  0  0
   37.8510    4.5212   13.6424 N   0  0  0  0  0  0  0  0  0  0  0  0
   36.3509    4.2767   13.5945 C   0  0  0  0  0  0  0  0  0  0  0  0
   38.2687    5.3707   12.4362 C   0  0  0  0  0  0  0  0  0  0  0  0
   38.4381    4.9617   14.9632 C   0  0  0  0  0  0  0  0  0  0  0  0
   38.1737    6.3637   15.5991 N   0  0  0  0  0  0  0  0  0  0  0  0
   37.1485    7.1205   14.7746 C   0  0  0  0  0  0  0  0  0  0  0  0
   39.4543    7.1707   15.7067 C   0  0  0  0  0  0  0  0  0  0  0  0
   37.6298    6.0385   17.0205 C   0  0  0  0  0  0  0  0  0  0  0  0
   37.5456    8.5467   17.7024 C   0  0  0  0  0  0  0  0  0  0  0  0
   37.4694    7.0802   18.1141 N   0  0  0  0  0  0  0  0  0  0  0  0
   36.2415    6.8718   19.0189 C   0  0  0  0  0  0  0  0  0  0  0  0
   38.6971    6.8723   19.0805 C   0  0  0  0  0  0  0  0  0  0  0  0
 30 31  1  0
 31 32  1  0
 31 33  1  0
 31 29  1  0
 29 26  1  0
 26 27  1  0
 26 28  1  0
 26 25  1  0
 25 22  1  0
 22 23  1  0
 22 24  1  0
 22 21  1  0
 21 20  1  0
  1 20  1  0
  1  2  1  0
  2  3  1  0
  2  4  1  0
  4  8  1  0
  8  9  1  0
  9 10  2  0
 10 11  1  0
 11 12  2  0
 11 13  1  0
 13 14  1  0
 14 15  2  0
  4  5  1  0
  5  6  1  0
  6 17  1  0
 17 18  1  0
  6  1  1  0
 14  8  1  0
  3  7  1  0
 13 16  1  0
 18 19  1  0
M  CHG 1  22   1
M  CHG 1  26   1
M  CHG 1  31   1
M  END
> <minimizedAffinity>
-5.87793

> <CNNscore>
0.6323962212

> <CNNaffinity>
4.8385381699

> <CNN_VS>
3.0598733425

> <CNNaffinity_variance>
0.1772575229

$$$$



 33 34  0  0  0  0  0  0  0  0999 V2000
   39.2040    1.9457   12.7699 C   0  0  0  0  0  0  0  0  0  0  0  0
   39.2893    0.5953   13.4772 C   0  0  0  0  0  0  0  0  0  0  0  0
   40.1662   -0.3353   12.8476 O   0  0  0  0  0  0  0  0  0  0  0  0
   37.7993    0.2399   13.6810 C   0  0  0  0  0  0  0  0  0  0  0  0
   37.0963    1.4992   13.7297 O   0  0  0  0  0  0  0  0  0  0  0  0
   38.0564    2.5662   13.5545 C   0  0  0  0  0  0  0  0  0  0  0  0
   39.8793   -0.4818   11.9326 H   0  0  0  0  0  0  0  0  0  0  0  0
   37.1107   -0.6404   12.7215 N   0  0  0  0  0  0  0  0  0  0  0  0
   36.7889   -1.9152   13.1784 C   0  0  0  0  0  0  0  0  0  0  0  0
   36.0944   -2.7925   12.4513 C   0  0  0  0  0  0  0  0  0  0  0  0
   35.6307   -2.3925   11.1197 C   0  0  0  0  0  0  0  0  0  0  0  0
   35.0452   -3.1669   10.3773 O   0  0  0  0  0  0  0  0  0  0  0  0
   35.9053   -1.1041   10.7662 N   0  0  0  0  0  0  0  0  0  0  0  0
   36.6344   -0.2002   11.4905 C   0  0  0  0  0  0  0  0  0  0  0  0
   36.8609    0.9108   11.0107 O   0  0  0  0  0  0  0  0  0  0  0  0
   35.5433   -0.7936    9.9049 H   0  0  0  0  0  0  0  0  0  0  0  0
   37.3994    3.7372   12.8333 C   0  0  0  0  0  0  0  0  0  0  0  0
   36.1974    3.3030   12.2140 O   0  0  0  0  0  0  0  0  0  0  0  0
   36.3983    2.6034   11.5729 H   0  0  0  0  0  0  0  0  0  0  0  0
   40.4393    2.6643   12.8552 O   0  0  0  0  0  0  0  0  0  0  0  0
   41.0786    2.7359   11.5935 C   0  0  0  0  0  0  0  0  0  0  0  0
   41.7673    4.1146   11.3124 N   0  0  0  0  0  0  0  0  0  0  0  0
   40.7113    5.1469   11.6753 C   0  0  0  0  0  0  0  0  0  0  0  0
   41.9926    4.1261    9.7958 C   0  0  0  0  0  0  0  0  0  0  0  0
   43.0301    4.0959   12.1419 C   0  0  0  0  0  0  0  0  0  0  0  0
   44.0803    5.2522   12.1391 N   0  0  0  0  0  0  0  0  0  0  0  0
   45.1010    5.0264   13.2395 C   0  0  0  0  0  0  0  0  0  0  0  0
   43.4131    6.6034   12.3164 C   0  0  0  0  0  0  0  0  0  0  0  0
   44.7363    5.1645   10.7306 C   0  0  0  0  0  0  0  0  0  0  0  0
   46.2329    7.2456   11.1698 C   0  0  0  0  0  0  0  0  0  0  0  0
   45.6981    6.2076   10.1886 N   0  0  0  0  0  0  0  0  0  0  0  0
   46.8695    5.6326    9.3719 C   0  0  0  0  0  0  0  0  0  0  0  0
   44.8707    7.0410    9.1373 C   0  0  0  0  0  0  0  0  0  0  0  0
 30 31  1  0
 31 32  1  0
 31 33  1  0
 31 29  1  0
 29 26  1  0
 26 27  1  0
 26 28  1  0
 26 25  1  0
 25 22  1  0
 22 23  1  0
 22 24  1  0
 22 21  1  0
 21 20  1  0
  1 20  1  0
  1  2  1  0
  2  3  1  0
  2  4  1  0
  4  8  1  0
  8  9  1  0
  9 10  2  0
 10 11  1  0
 11 12  2  0
 11 13  1  0
 13 14  1  0
 14 15  2  0
  4  5  1  0
  5  6  1  0
  6 17  1  0
 17 18  1  0
  6  1  1  0
 14  8  1  0
  3  7  1  0
 13 16  1  0
 18 19  1  0
M  CHG 1  22   1
M  CHG 1  26   1
M  CHG 1  31   1
M  END
> <minimizedAffinity>
-5.37168

> <CNNscore>
0.6305109262

> <CNNaffinity>
4.2214131355

> <CNN_VS>
2.6616470814

> <CNNaffinity_variance>
0.6507838368

$$$$



 33 34  0  0  0  0  0  0  0  0999 V2000
   38.5076   -0.2279   11.8444 C   0  0  0  0  0  0  0  0  0  0  0  0
   38.9383   -1.5193   12.5356 C   0  0  0  0  0  0  0  0  0  0  0  0
   39.5632   -2.4616   11.6677 O   0  0  0  0  0  0  0  0  0  0  0  0
   37.6636   -1.9117   13.3160 C   0  0  0  0  0  0  0  0  0  0  0  0
   36.9573   -0.6779   13.5641 O   0  0  0  0  0  0  0  0  0  0  0  0
   37.7111    0.4069   12.9758 C   0  0  0  0  0  0  0  0  0  0  0  0
   38.9581   -2.6844   10.9431 H   0  0  0  0  0  0  0  0  0  0  0  0
   36.7157   -2.8834   12.7443 N   0  0  0  0  0  0  0  0  0  0  0  0
   36.5164   -4.0509   13.4755 C   0  0  0  0  0  0  0  0  0  0  0  0
   35.6290   -4.9838   13.1247 C   0  0  0  0  0  0  0  0  0  0  0  0
   34.8118   -4.7637   11.9281 C   0  0  0  0  0  0  0  0  0  0  0  0
   34.0263   -5.6043   11.5157 O   0  0  0  0  0  0  0  0  0  0  0  0
   34.9956   -3.5640   11.3057 N   0  0  0  0  0  0  0  0  0  0  0  0
   35.9158   -2.6074   11.6397 C   0  0  0  0  0  0  0  0  0  0  0  0
   36.0145   -1.5991   10.9403 O   0  0  0  0  0  0  0  0  0  0  0  0
   34.4084   -3.3667   10.5406 H   0  0  0  0  0  0  0  0  0  0  0  0
   36.7586    1.4982   12.5015 C   0  0  0  0  0  0  0  0  0  0  0  0
   35.7149    1.6665   13.4497 O   0  0  0  0  0  0  0  0  0  0  0  0
   35.2268    0.8337   13.5446 H   0  0  0  0  0  0  0  0  0  0  0  0
   39.6357    0.5384   11.4089 O   0  0  0  0  0  0  0  0  0  0  0  0
   40.4511    0.9171   12.5032 C   0  0  0  0  0  0  0  0  0  0  0  0
   41.3619    2.1580   12.2118 N   0  0  0  0  0  0  0  0  0  0  0  0
   40.3972    3.3322   12.1583 C   0  0  0  0  0  0  0  0  0  0  0  0
   41.9260    1.8962   10.8103 C   0  0  0  0  0  0  0  0  0  0  0  0
   42.3890    2.1565   13.3202 C   0  0  0  0  0  0  0  0  0  0  0  0
   43.2834    3.3889   13.6679 N   0  0  0  0  0  0  0  0  0  0  0  0
   44.4235    2.9613   14.5739 C   0  0  0  0  0  0  0  0  0  0  0  0
   42.4743    4.4877   14.3316 C   0  0  0  0  0  0  0  0  0  0  0  0
   43.8092    3.8769   12.2868 C   0  0  0  0  0  0  0  0  0  0  0  0
   45.3771    5.7905   13.0890 C   0  0  0  0  0  0  0  0  0  0  0  0
   45.1025    4.6535   12.1103 N   0  0  0  0  0  0  0  0  0  0  0  0
   46.3618    3.7766   11.9872 C   0  0  0  0  0  0  0  0  0  0  0  0
   44.9861    5.3562   10.7042 C   0  0  0  0  0  0  0  0  0  0  0  0
 30 31  1  0
 31 32  1  0
 31 33  1  0
 31 29  1  0
 29 26  1  0
 26 27  1  0
 26 28  1  0
 26 25  1  0
 25 22  1  0
 22 23  1  0
 22 24  1  0
 22 21  1  0
 21 20  1  0
  1 20  1  0
  1  2  1  0
  2  3  1  0
  2  4  1  0
  4  8  1  0
  8  9  1  0
  9 10  2  0
 10 11  1  0
 11 12  2  0
 11 13  1  0
 13 14  1  0
 14 15  2  0
  4  5  1  0
  5  6  1  0
  6 17  1  0
 17 18  1  0
  6  1  1  0
 14  8  1  0
  3  7  1  0
 13 16  1  0
 18 19  1  0
M  CHG 1  22   1
M  CHG 1  26   1
M  CHG 1  31   1
M  END
> <minimizedAffinity>
-5.11917

> <CNNscore>
0.5689314604

> <CNNaffinity>
4.1991872787

> <CNN_VS>
2.3890497684

> <CNNaffinity_variance>
0.2166289836

$$$$



 33 34  0  0  0  0  0  0  0  0999 V2000
   38.1994   -0.5541   13.4726 C   0  0  0  0  0  0  0  0  0  0  0  0
   37.2700   -0.5419   12.2612 C   0  0  0  0  0  0  0  0  0  0  0  0
   35.9355   -0.1387   12.5577 O   0  0  0  0  0  0  0  0  0  0  0  0
   37.5389   -1.9268   11.6307 C   0  0  0  0  0  0  0  0  0  0  0  0
   38.8807   -2.2851   12.0225 O   0  0  0  0  0  0  0  0  0  0  0  0
   39.4149   -1.2244   12.8476 C   0  0  0  0  0  0  0  0  0  0  0  0
   35.5611   -0.7291   13.2301 H   0  0  0  0  0  0  0  0  0  0  0  0
   36.6484   -3.0614   11.9298 N   0  0  0  0  0  0  0  0  0  0  0  0
   37.1123   -3.9752   12.8717 C   0  0  0  0  0  0  0  0  0  0  0  0
   36.3829   -5.0062   13.3025 C   0  0  0  0  0  0  0  0  0  0  0  0
   35.0249   -5.1759   12.7779 C   0  0  0  0  0  0  0  0  0  0  0  0
   34.3272   -6.1322   13.0819 O   0  0  0  0  0  0  0  0  0  0  0  0
   34.6006   -4.2006   11.9241 N   0  0  0  0  0  0  0  0  0  0  0  0
   35.3431   -3.1504   11.4561 C   0  0  0  0  0  0  0  0  0  0  0  0
   34.8457   -2.3839   10.6310 O   0  0  0  0  0  0  0  0  0  0  0  0
   33.6681   -4.2577   11.6136 H   0  0  0  0  0  0  0  0  0  0  0  0
   40.3756   -1.8070   13.8775 C   0  0  0  0  0  0  0  0  0  0  0  0
   39.6427   -2.5081   14.8715 O   0  0  0  0  0  0  0  0  0  0  0  0
   39.0309   -1.8981   15.3126 H   0  0  0  0  0  0  0  0  0  0  0  0
   38.4382    0.7681   13.9669 O   0  0  0  0  0  0  0  0  0  0  0  0
   39.0588    1.5780   12.9847 C   0  0  0  0  0  0  0  0  0  0  0  0
   39.7069    2.8829   13.5602 N   0  0  0  0  0  0  0  0  0  0  0  0
   40.2476    3.6086   12.3382 C   0  0  0  0  0  0  0  0  0  0  0  0
   40.8765    2.3824   14.4159 C   0  0  0  0  0  0  0  0  0  0  0  0
   38.5990    3.5603   14.3329 C   0  0  0  0  0  0  0  0  0  0  0  0
   37.5190    4.4732   13.6694 N   0  0  0  0  0  0  0  0  0  0  0  0
   36.4301    3.6180   13.0478 C   0  0  0  0  0  0  0  0  0  0  0  0
   38.1331    5.3797   12.6190 C   0  0  0  0  0  0  0  0  0  0  0  0
   36.9667    5.3251   14.8490 C   0  0  0  0  0  0  0  0  0  0  0  0
   39.1137    6.6854   15.4002 C   0  0  0  0  0  0  0  0  0  0  0  0
   37.5926    6.6327   15.3022 N   0  0  0  0  0  0  0  0  0  0  0  0
   37.0909    7.8762   14.5461 C   0  0  0  0  0  0  0  0  0  0  0  0
   37.0894    6.8536   16.7795 C   0  0  0  0  0  0  0  0  0  0  0  0
 30 31  1  0
 31 32  1  0
 31 33  1  0
 31 29  1  0
 29 26  1  0
 26 27  1  0
 26 28  1  0
 26 25  1  0
 25 22  1  0
 22 23  1  0
 22 24  1  0
 22 21  1  0
 21 20  1  0
  1 20  1  0
  1  2  1  0
  2  3  1  0
  2  4  1  0
  4  8  1  0
  8  9  1  0
  9 10  2  0
 10 11  1  0
 11 12  2  0
 11 13  1  0
 13 14  1  0
 14 15  2  0
  4  5  1  0
  5  6  1  0
  6 17  1  0
 17 18  1  0
  6  1  1  0
 14  8  1  0
  3  7  1  0
 13 16  1  0
 18 19  1  0
M  CHG 1  22   1
M  CHG 1  26   1
M  CHG 1  31   1
M  END
> <minimizedAffinity>
-5.83748

> <CNNscore>
0.5659000874

> <CNNaffinity>
4.8238625526

> <CNN_VS>
2.7298243046

> <CNNaffinity_variance>
0.0756039843

$$$$



 33 34  0  0  0  0  0  0  0  0999 V2000
   38.8808    2.2423   12.7032 C   0  0  0  0  0  0  0  0  0  0  0  0
   39.2887    0.8580   13.2019 C   0  0  0  0  0  0  0  0  0  0  0  0
   40.1656    0.1593   12.3220 O   0  0  0  0  0  0  0  0  0  0  0  0
   37.9278    0.2387   13.5923 C   0  0  0  0  0  0  0  0  0  0  0  0
   37.0677    1.3502   13.9198 O   0  0  0  0  0  0  0  0  0  0  0  0
   37.8138    2.5754   13.7366 C   0  0  0  0  0  0  0  0  0  0  0  0
   39.7442    0.0645   11.4535 H   0  0  0  0  0  0  0  0  0  0  0  0
   37.2154   -0.6379   12.6470 N   0  0  0  0  0  0  0  0  0  0  0  0
   37.0033   -1.9486   13.0645 C   0  0  0  0  0  0  0  0  0  0  0  0
   36.3033   -2.8329   12.3511 C   0  0  0  0  0  0  0  0  0  0  0  0
   35.7130   -2.4029   11.0804 C   0  0  0  0  0  0  0  0  0  0  0  0
   35.1146   -3.1773   10.3485 O   0  0  0  0  0  0  0  0  0  0  0  0
   35.8857   -1.0860   10.7701 N   0  0  0  0  0  0  0  0  0  0  0  0
   36.6184   -0.1730   11.4793 C   0  0  0  0  0  0  0  0  0  0  0  0
   36.7430    0.9697   11.0382 O   0  0  0  0  0  0  0  0  0  0  0  0
   35.4392   -0.7599    9.9555 H   0  0  0  0  0  0  0  0  0  0  0  0
   36.8736    3.6894   13.2919 C   0  0  0  0  0  0  0  0  0  0  0  0
   35.5323    3.3295   13.5888 O   0  0  0  0  0  0  0  0  0  0  0  0
   35.3054    2.5117   13.1191 H   0  0  0  0  0  0  0  0  0  0  0  0
   39.9923    3.1443   12.6845 O   0  0  0  0  0  0  0  0  0  0  0  0
   39.7262    4.2685   11.8652 C   0  0  0  0  0  0  0  0  0  0  0  0
   41.0150    5.0169   11.3826 N   0  0  0  0  0  0  0  0  0  0  0  0
   42.1443    4.0316   11.6397 C   0  0  0  0  0  0  0  0  0  0  0  0
   41.1469    6.2063   12.3411 C   0  0  0  0  0  0  0  0  0  0  0  0
   40.7348    5.3881    9.9448 C   0  0  0  0  0  0  0  0  0  0  0  0
   41.8505    5.5522    8.8640 N   0  0  0  0  0  0  0  0  0  0  0  0
   42.4038    4.1917    8.4813 C   0  0  0  0  0  0  0  0  0  0  0  0
   42.9697    6.4495    9.3587 C   0  0  0  0  0  0  0  0  0  0  0  0
   41.1206    6.2250    7.6654 C   0  0  0  0  0  0  0  0  0  0  0  0
   42.8592    7.6747    6.3851 C   0  0  0  0  0  0  0  0  0  0  0  0
   41.8065    6.5715    6.3553 N   0  0  0  0  0  0  0  0  0  0  0  0
   42.3649    5.3599    5.5872 C   0  0  0  0  0  0  0  0  0  0  0  0
   40.6698    7.1295    5.4167 C   0  0  0  0  0  0  0  0  0  0  0  0
 30 31  1  0
 31 32  1  0
 31 33  1  0
 31 29  1  0
 29 26  1  0
 26 27  1  0
 26 28  1  0
 26 25  1  0
 25 22  1  0
 22 23  1  0
 22 24  1  0
 22 21  1  0
 21 20  1  0
  1 20  1  0
  1  2  1  0
  2  3  1  0
  2  4  1  0
  4  8  1  0
  8  9  1  0
  9 10  2  0
 10 11  1  0
 11 12  2  0
 11 13  1  0
 13 14  1  0
 14 15  2  0
  4  5  1  0
  5  6  1  0
  6 17  1  0
 17 18  1  0
  6  1  1  0
 14  8  1  0
  3  7  1  0
 13 16  1  0
 18 19  1  0
M  CHG 1  22   1
M  CHG 1  26   1
M  CHG 1  31   1
M  END
> <minimizedAffinity>
-6.43357

> <CNNscore>
0.5549529791

> <CNNaffinity>
4.3892359734

> <CNN_VS>
2.4358196259

> <CNNaffinity_variance>
0.7218876481

$$$$
