


 27 30  0  0  0  0  0  0  0  0999 V2000
   40.7405   30.9170   32.2046 C   0  0  0  0  0  0  0  0  0  0  0  0
   40.6030   30.0598   33.3136 C   0  0  0  0  0  0  0  0  0  0  0  0
   39.4509   29.2833   33.4854 C   0  0  0  0  0  0  0  0  0  0  0  0
   38.4122   29.3764   32.5569 C   0  0  0  0  0  0  0  0  0  0  0  0
   38.5348   30.2167   31.4499 C   0  0  0  0  0  0  0  0  0  0  0  0
   39.6924   30.9884   31.2591 C   0  0  0  0  0  0  0  0  0  0  0  0
   39.7838   31.8817   30.0496 C   0  0  0  0  0  0  0  0  0  0  0  0
   44.3030   33.3206   31.8607 C   0  0  0  0  0  0  0  0  0  0  0  0
   43.2587   33.6815   32.7191 C   0  0  0  0  0  0  0  0  0  0  0  0
   42.1117   32.8897   32.8210 C   0  0  0  0  0  0  0  0  0  0  0  0
   41.9745   31.7104   32.0700 C   0  0  0  0  0  0  0  0  0  0  0  0
   43.0215   31.3344   31.2014 C   0  0  0  0  0  0  0  0  0  0  0  0
   42.9361   30.0866   30.3610 C   0  0  0  0  0  0  0  0  0  0  0  0
   44.1698   32.1448   31.1065 C   0  0  0  0  0  0  0  0  0  0  0  0
   48.6507   34.6804   30.3080 C   0  0  0  0  0  0  0  0  0  0  0  0
   47.4068   34.7708   31.0894 C   0  0  0  0  0  0  0  0  0  0  0  0
   47.0209   35.6832   31.9538 N   0  0  0  0  0  0  0  0  0  0  0  0
   45.7745   35.2908   32.3975 N   0  0  0  0  0  0  0  0  0  0  0  0
   45.4871   34.1660   31.7721 C   0  0  0  0  0  0  0  0  0  0  0  0
   46.4869   33.7726   30.9176 O   0  0  0  0  0  0  0  0  0  0  0  0
   39.2800   28.3745   34.6516 C   0  0  0  0  0  0  0  0  0  0  0  0
   40.0159   28.4853   35.6265 O   0  0  0  0  0  0  0  0  0  0  0  0
   38.2458   27.4607   34.5639 N   0  0  0  0  0  0  0  0  0  0  0  0
   37.7009   27.4325   33.7444 H   0  0  0  0  0  0  0  0  0  0  0  0
   37.9454   26.5565   35.6283 C   0  0  0  0  0  0  0  0  0  0  0  0
   36.5175   26.2719   36.0022 C   0  0  0  0  0  0  0  0  0  0  0  0
   37.3899   27.0640   36.9308 C   0  0  0  0  0  0  0  0  0  0  0  0
 15 16  1  0
 16 17  2  0
 17 18  1  0
 18 19  2  0
 19  8  1  0
  8  9  2  0
  9 10  1  0
 10 11  2  0
 11  1  1  0
  1  2  2  0
  2  3  1  0
  3 21  1  0
 21 22  2  0
 21 23  1  0
 23 25  1  0
 25 26  1  0
 26 27  1  0
  3  4  2  0
  4  5  1  0
  5  6  2  0
  6  7  1  0
 11 12  1  0
 12 13  1  0
 12 14  2  0
 19 20  1  0
 20 16  1  0
 14  8  1  0
  6  1  1  0
 27 25  1  0
 23 24  1  0
M  END
> <minimizedAffinity>
-12.89297

> <CNNscore>
0.9847607017

> <CNNaffinity>
7.7391037941

> <CNN_VS>
7.6211652756

> <CNNaffinity_variance>
0.0007907327

$$$$



 27 30  0  0  0  0  0  0  0  0999 V2000
   48.8592   34.4467   29.1955 C   0  0  0  0  0  0  0  0  0  0  0  0
   49.8899   33.4870   29.2130 C   0  0  0  0  0  0  0  0  0  0  0  0
   51.1637   33.7888   28.7170 C   0  0  0  0  0  0  0  0  0  0  0  0
   51.4110   35.0517   28.1753 C   0  0  0  0  0  0  0  0  0  0  0  0
   50.4024   36.0156   28.1553 C   0  0  0  0  0  0  0  0  0  0  0  0
   49.1254   35.7291   28.6643 C   0  0  0  0  0  0  0  0  0  0  0  0
   48.0659   36.7991   28.6240 C   0  0  0  0  0  0  0  0  0  0  0  0
   44.9521   33.3705   30.6665 C   0  0  0  0  0  0  0  0  0  0  0  0
   45.2674   33.2913   29.3055 C   0  0  0  0  0  0  0  0  0  0  0  0
   46.5396   33.6413   28.8454 C   0  0  0  0  0  0  0  0  0  0  0  0
   47.5377   34.0782   29.7322 C   0  0  0  0  0  0  0  0  0  0  0  0
   47.2330   34.1612   31.1079 C   0  0  0  0  0  0  0  0  0  0  0  0
   48.2536   34.6297   32.1125 C   0  0  0  0  0  0  0  0  0  0  0  0
   45.9448   33.8088   31.5562 C   0  0  0  0  0  0  0  0  0  0  0  0
   40.8037   30.9307   30.6542 C   0  0  0  0  0  0  0  0  0  0  0  0
   41.7830   31.9268   31.1178 C   0  0  0  0  0  0  0  0  0  0  0  0
   41.7038   32.7856   32.1101 N   0  0  0  0  0  0  0  0  0  0  0  0
   42.8941   33.4838   32.1112 N   0  0  0  0  0  0  0  0  0  0  0  0
   43.6165   33.0016   31.1190 C   0  0  0  0  0  0  0  0  0  0  0  0
   42.9685   32.0007   30.4386 O   0  0  0  0  0  0  0  0  0  0  0  0
   52.2671   32.7901   28.7196 C   0  0  0  0  0  0  0  0  0  0  0  0
   53.3706   33.0965   28.2806 O   0  0  0  0  0  0  0  0  0  0  0  0
   51.9688   31.5558   29.2672 N   0  0  0  0  0  0  0  0  0  0  0  0
   51.0564   31.3865   29.5961 H   0  0  0  0  0  0  0  0  0  0  0  0
   52.9465   30.5193   29.3695 C   0  0  0  0  0  0  0  0  0  0  0  0
   53.1907   29.5895   28.2139 C   0  0  0  0  0  0  0  0  0  0  0  0
   52.5278   29.0773   29.4585 C   0  0  0  0  0  0  0  0  0  0  0  0
 15 16  1  0
 16 17  2  0
 17 18  1  0
 18 19  2  0
 19  8  1  0
  8  9  2  0
  9 10  1  0
 10 11  2  0
 11  1  1  0
  1  2  2  0
  2  3  1  0
  3 21  1  0
 21 22  2  0
 21 23  1  0
 23 25  1  0
 25 26  1  0
 26 27  1  0
  3  4  2  0
  4  5  1  0
  5  6  2  0
  6  7  1  0
 11 12  1  0
 12 13  1  0
 12 14  2  0
 19 20  1  0
 20 16  1  0
 14  8  1  0
  6  1  1  0
 27 25  1  0
 23 24  1  0
M  END
> <minimizedAffinity>
-7.47978

> <CNNscore>
0.5768966079

> <CNNaffinity>
6.2221961021

> <CNN_VS>
3.5895638466

> <CNNaffinity_variance>
0.0828944743

$$$$



 27 30  0  0  0  0  0  0  0  0999 V2000
   42.8513   31.0573   31.4005 C   0  0  0  0  0  0  0  0  0  0  0  0
   43.9958   31.7275   31.8744 C   0  0  0  0  0  0  0  0  0  0  0  0
   44.8270   32.4392   31.0013 C   0  0  0  0  0  0  0  0  0  0  0  0
   44.5313   32.4665   29.6370 C   0  0  0  0  0  0  0  0  0  0  0  0
   43.3984   31.8123   29.1520 C   0  0  0  0  0  0  0  0  0  0  0  0
   42.5489   31.1084   30.0209 C   0  0  0  0  0  0  0  0  0  0  0  0
   41.3357   30.4170   29.4555 C   0  0  0  0  0  0  0  0  0  0  0  0
   40.3520   29.0083   34.2540 C   0  0  0  0  0  0  0  0  0  0  0  0
   40.1886   30.3720   33.9868 C   0  0  0  0  0  0  0  0  0  0  0  0
   41.0054   31.0206   33.0567 C   0  0  0  0  0  0  0  0  0  0  0  0
   42.0090   30.3251   32.3622 C   0  0  0  0  0  0  0  0  0  0  0  0
   42.1832   28.9486   32.6215 C   0  0  0  0  0  0  0  0  0  0  0  0
   43.2458   28.1444   31.9183 C   0  0  0  0  0  0  0  0  0  0  0  0
   41.3547   28.3095   33.5647 C   0  0  0  0  0  0  0  0  0  0  0  0
   36.8306   26.1133   35.7971 C   0  0  0  0  0  0  0  0  0  0  0  0
   37.9338   27.0800   35.9171 C   0  0  0  0  0  0  0  0  0  0  0  0
   38.4526   27.6354   36.9899 N   0  0  0  0  0  0  0  0  0  0  0  0
   39.4616   28.4649   36.5447 N   0  0  0  0  0  0  0  0  0  0  0  0
   39.4877   28.3572   35.2307 C   0  0  0  0  0  0  0  0  0  0  0  0
   38.5371   27.4868   34.7583 O   0  0  0  0  0  0  0  0  0  0  0  0
   46.0445   33.1507   31.4771 C   0  0  0  0  0  0  0  0  0  0  0  0
   46.4525   32.9682   32.6193 O   0  0  0  0  0  0  0  0  0  0  0  0
   46.6702   33.9689   30.5545 N   0  0  0  0  0  0  0  0  0  0  0  0
   46.2775   34.0651   29.6568 H   0  0  0  0  0  0  0  0  0  0  0  0
   47.8701   34.6787   30.8665 C   0  0  0  0  0  0  0  0  0  0  0  0
   48.5255   35.5524   29.8338 C   0  0  0  0  0  0  0  0  0  0  0  0
   49.1824   34.2710   30.2547 C   0  0  0  0  0  0  0  0  0  0  0  0
 15 16  1  0
 16 17  2  0
 17 18  1  0
 18 19  2  0
 19  8  1  0
  8  9  2  0
  9 10  1  0
 10 11  2  0
 11  1  1  0
  1  2  2  0
  2  3  1  0
  3 21  1  0
 21 22  2  0
 21 23  1  0
 23 25  1  0
 25 26  1  0
 26 27  1  0
  3  4  2  0
  4  5  1  0
  5  6  2  0
  6  7  1  0
 11 12  1  0
 12 13  1  0
 12 14  2  0
 19 20  1  0
 20 16  1  0
 14  8  1  0
  6  1  1  0
 27 25  1  0
 23 24  1  0
M  END
> <minimizedAffinity>
-9.89291

> <CNNscore>
0.5042563677

> <CNNaffinity>
6.7460989952

> <CNN_VS>
3.4017634392

> <CNNaffinity_variance>
0.0699072257

$$$$



 27 30  0  0  0  0  0  0  0  0999 V2000
   43.2108   30.3214   31.6913 C   0  0  0  0  0  0  0  0  0  0  0  0
   43.5280   28.9751   31.4262 C   0  0  0  0  0  0  0  0  0  0  0  0
   42.6361   27.9469   31.7535 C   0  0  0  0  0  0  0  0  0  0  0  0
   41.4239   28.2574   32.3731 C   0  0  0  0  0  0  0  0  0  0  0  0
   41.0921   29.5864   32.6379 C   0  0  0  0  0  0  0  0  0  0  0  0
   41.9723   30.6271   32.2997 C   0  0  0  0  0  0  0  0  0  0  0  0
   41.5742   32.0481   32.6023 C   0  0  0  0  0  0  0  0  0  0  0  0
   46.0873   33.3828   30.7210 C   0  0  0  0  0  0  0  0  0  0  0  0
   46.1071   32.7275   31.9572 C   0  0  0  0  0  0  0  0  0  0  0  0
   45.1691   31.7353   32.2549 C   0  0  0  0  0  0  0  0  0  0  0  0
   44.1840   31.3649   31.3245 C   0  0  0  0  0  0  0  0  0  0  0  0
   44.1540   32.0172   30.0732 C   0  0  0  0  0  0  0  0  0  0  0  0
   43.1196   31.6748   29.0325 C   0  0  0  0  0  0  0  0  0  0  0  0
   45.1037   33.0181   29.7891 C   0  0  0  0  0  0  0  0  0  0  0  0
   49.6872   35.5143   28.3420 C   0  0  0  0  0  0  0  0  0  0  0  0
   48.6656   35.3609   29.3902 C   0  0  0  0  0  0  0  0  0  0  0  0
   48.3640   36.1553   30.3936 N   0  0  0  0  0  0  0  0  0  0  0  0
   47.3321   35.5417   31.0740 N   0  0  0  0  0  0  0  0  0  0  0  0
   47.0761   34.4155   30.4376 C   0  0  0  0  0  0  0  0  0  0  0  0
   47.8914   34.2335   29.3483 O   0  0  0  0  0  0  0  0  0  0  0  0
   42.9508   26.5167   31.4883 C   0  0  0  0  0  0  0  0  0  0  0  0
   42.0458   25.7268   31.2409 O   0  0  0  0  0  0  0  0  0  0  0  0
   44.2909   26.1755   31.5069 N   0  0  0  0  0  0  0  0  0  0  0  0
   44.9578   26.8684   31.7174 H   0  0  0  0  0  0  0  0  0  0  0  0
   44.7351   24.8464   31.2293 C   0  0  0  0  0  0  0  0  0  0  0  0
   45.1749   23.9439   32.3480 C   0  0  0  0  0  0  0  0  0  0  0  0
   46.1858   24.4772   31.3763 C   0  0  0  0  0  0  0  0  0  0  0  0
 15 16  1  0
 16 17  2  0
 17 18  1  0
 18 19  2  0
 19  8  1  0
  8  9  2  0
  9 10  1  0
 10 11  2  0
 11  1  1  0
  1  2  2  0
  2  3  1  0
  3 21  1  0
 21 22  2  0
 21 23  1  0
 23 25  1  0
 25 26  1  0
 26 27  1  0
  3  4  2  0
  4  5  1  0
  5  6  2  0
  6  7  1  0
 11 12  1  0
 12 13  1  0
 12 14  2  0
 19 20  1  0
 20 16  1  0
 14  8  1  0
  6  1  1  0
 27 25  1  0
 23 24  1  0
M  END
> <minimizedAffinity>
-7.01568

> <CNNscore>
0.4339399934

> <CNNaffinity>
6.5444717407

> <CNN_VS>
2.8399081230

> <CNNaffinity_variance>
0.0603896976

$$$$



 27 30  0  0  0  0  0  0  0  0999 V2000
   43.2293   30.7203   31.4701 C   0  0  0  0  0  0  0  0  0  0  0  0
   41.9001   31.0821   31.1767 C   0  0  0  0  0  0  0  0  0  0  0  0
   40.8343   30.2346   31.5015 C   0  0  0  0  0  0  0  0  0  0  0  0
   41.0931   29.0019   32.1041 C   0  0  0  0  0  0  0  0  0  0  0  0
   42.4036   28.6306   32.4063 C   0  0  0  0  0  0  0  0  0  0  0  0
   43.4792   29.4796   32.0992 C   0  0  0  0  0  0  0  0  0  0  0  0
   44.8783   29.0402   32.4437 C   0  0  0  0  0  0  0  0  0  0  0  0
   46.4142   33.4657   30.5181 C   0  0  0  0  0  0  0  0  0  0  0  0
   46.1879   33.0365   31.8305 C   0  0  0  0  0  0  0  0  0  0  0  0
   45.1528   32.1440   32.1218 C   0  0  0  0  0  0  0  0  0  0  0  0
   44.3136   31.6500   31.1093 C   0  0  0  0  0  0  0  0  0  0  0  0
   44.5322   32.0740   29.7809 C   0  0  0  0  0  0  0  0  0  0  0  0
   43.6644   31.5900   28.6482 C   0  0  0  0  0  0  0  0  0  0  0  0
   45.5771   32.9771   29.5034 C   0  0  0  0  0  0  0  0  0  0  0  0
   50.4279   35.0688   28.4009 C   0  0  0  0  0  0  0  0  0  0  0  0
   49.2716   35.1114   29.3103 C   0  0  0  0  0  0  0  0  0  0  0  0
   48.8982   36.0491   30.1528 N   0  0  0  0  0  0  0  0  0  0  0  0
   47.7476   35.5869   30.7585 N   0  0  0  0  0  0  0  0  0  0  0  0
   47.4995   34.3990   30.2427 C   0  0  0  0  0  0  0  0  0  0  0  0
   48.4341   34.0294   29.3076 O   0  0  0  0  0  0  0  0  0  0  0  0
   39.4222   30.5922   31.1968 C   0  0  0  0  0  0  0  0  0  0  0  0
   39.1709   31.3570   30.2714 O   0  0  0  0  0  0  0  0  0  0  0  0
   38.4587   29.9891   31.9844 N   0  0  0  0  0  0  0  0  0  0  0  0
   38.7423   29.3885   32.7110 H   0  0  0  0  0  0  0  0  0  0  0  0
   37.0635   30.2126   31.7738 C   0  0  0  0  0  0  0  0  0  0  0  0
   36.5975   31.3853   30.9569 C   0  0  0  0  0  0  0  0  0  0  0  0
   36.3636   31.3662   32.4387 C   0  0  0  0  0  0  0  0  0  0  0  0
 15 16  1  0
 16 17  2  0
 17 18  1  0
 18 19  2  0
 19  8  1  0
  8  9  2  0
  9 10  1  0
 10 11  2  0
 11  1  1  0
  1  2  2  0
  2  3  1  0
  3 21  1  0
 21 22  2  0
 21 23  1  0
 23 25  1  0
 25 26  1  0
 26 27  1  0
  3  4  2  0
  4  5  1  0
  5  6  2  0
  6  7  1  0
 11 12  1  0
 12 13  1  0
 12 14  2  0
 19 20  1  0
 20 16  1  0
 14  8  1  0
  6  1  1  0
 27 25  1  0
 23 24  1  0
M  END
> <minimizedAffinity>
-1.37136

> <CNNscore>
0.3762220144

> <CNNaffinity>
6.3069090843

> <CNN_VS>
2.3727979660

> <CNNaffinity_variance>
0.0513892472

$$$$



 27 30  0  0  0  0  0  0  0  0999 V2000
   42.7143   41.9454   39.1277 C   0  0  0  0  0  0  0  0  0  0  0  0
   41.3686   42.3594   39.1646 C   0  0  0  0  0  0  0  0  0  0  0  0
   40.5515   42.0565   40.2602 C   0  0  0  0  0  0  0  0  0  0  0  0
   41.0703   41.3130   41.3222 C   0  0  0  0  0  0  0  0  0  0  0  0
   42.4027   40.8997   41.3036 C   0  0  0  0  0  0  0  0  0  0  0  0
   43.2359   41.2113   40.2170 C   0  0  0  0  0  0  0  0  0  0  0  0
   44.6686   40.7464   40.2380 C   0  0  0  0  0  0  0  0  0  0  0  0
   45.1937   42.9407   35.7440 C   0  0  0  0  0  0  0  0  0  0  0  0
   45.7086   42.2562   36.8505 C   0  0  0  0  0  0  0  0  0  0  0  0
   44.8906   41.9387   37.9382 C   0  0  0  0  0  0  0  0  0  0  0  0
   43.5313   42.2927   37.9520 C   0  0  0  0  0  0  0  0  0  0  0  0
   42.9990   42.9822   36.8414 C   0  0  0  0  0  0  0  0  0  0  0  0
   41.5519   43.3991   36.7944 C   0  0  0  0  0  0  0  0  0  0  0  0
   43.8370   43.2987   35.7541 C   0  0  0  0  0  0  0  0  0  0  0  0
   46.3672   43.7440   31.1463 C   0  0  0  0  0  0  0  0  0  0  0  0
   46.5929   43.6172   32.5951 C   0  0  0  0  0  0  0  0  0  0  0  0
   47.6985   43.7676   33.2905 N   0  0  0  0  0  0  0  0  0  0  0  0
   47.3592   43.5365   34.6080 N   0  0  0  0  0  0  0  0  0  0  0  0
   46.0697   43.2613   34.6240 C   0  0  0  0  0  0  0  0  0  0  0  0
   45.5122   43.2950   33.3700 O   0  0  0  0  0  0  0  0  0  0  0  0
   39.1254   42.4781   40.3199 C   0  0  0  0  0  0  0  0  0  0  0  0
   38.4138   42.3712   39.3267 O   0  0  0  0  0  0  0  0  0  0  0  0
   38.6800   42.9447   41.5432 N   0  0  0  0  0  0  0  0  0  0  0  0
   39.3155   43.0032   42.2928 H   0  0  0  0  0  0  0  0  0  0  0  0
   37.3242   43.3441   41.7503 C   0  0  0  0  0  0  0  0  0  0  0  0
   36.8586   43.7711   43.1143 C   0  0  0  0  0  0  0  0  0  0  0  0
   36.3801   42.4734   42.5332 C   0  0  0  0  0  0  0  0  0  0  0  0
 15 16  1  0
 16 17  2  0
 17 18  1  0
 18 19  2  0
 19  8  1  0
  8  9  2  0
  9 10  1  0
 10 11  2  0
 11  1  1  0
  1  2  2  0
  2  3  1  0
  3 21  1  0
 21 22  2  0
 21 23  1  0
 23 25  1  0
 25 26  1  0
 26 27  1  0
  3  4  2  0
  4  5  1  0
  5  6  2  0
  6  7  1  0
 11 12  1  0
 12 13  1  0
 12 14  2  0
 19 20  1  0
 20 16  1  0
 14  8  1  0
  6  1  1  0
 27 25  1  0
 23 24  1  0
M  END
> <minimizedAffinity>
6.03509

> <CNNscore>
0.3135837018

> <CNNaffinity>
4.5345706940

> <CNN_VS>
1.4219675064

> <CNNaffinity_variance>
0.3511923850

$$$$



 27 30  0  0  0  0  0  0  0  0999 V2000
   46.5052   33.5166   31.2833 C   0  0  0  0  0  0  0  0  0  0  0  0
   47.0129   34.2175   30.1722 C   0  0  0  0  0  0  0  0  0  0  0  0
   48.3405   34.6610   30.1453 C   0  0  0  0  0  0  0  0  0  0  0  0
   49.1679   34.4260   31.2452 C   0  0  0  0  0  0  0  0  0  0  0  0
   48.6822   33.7285   32.3516 C   0  0  0  0  0  0  0  0  0  0  0  0
   47.3568   33.2654   32.3829 C   0  0  0  0  0  0  0  0  0  0  0  0
   46.8734   32.5156   33.5968 C   0  0  0  0  0  0  0  0  0  0  0  0
   42.4190   32.1509   31.1260 C   0  0  0  0  0  0  0  0  0  0  0  0
   43.4280   31.5223   30.3879 C   0  0  0  0  0  0  0  0  0  0  0  0
   44.7482   31.9758   30.4522 C   0  0  0  0  0  0  0  0  0  0  0  0
   45.1016   33.0700   31.2593 C   0  0  0  0  0  0  0  0  0  0  0  0
   44.0934   33.7120   32.0101 C   0  0  0  0  0  0  0  0  0  0  0  0
   44.4015   34.8960   32.8895 C   0  0  0  0  0  0  0  0  0  0  0  0
   42.7663   33.2458   31.9318 C   0  0  0  0  0  0  0  0  0  0  0  0
   38.6084   29.4646   32.3199 C   0  0  0  0  0  0  0  0  0  0  0  0
   39.3641   30.4749   31.5621 C   0  0  0  0  0  0  0  0  0  0  0  0
   38.9816   31.2341   30.5592 N   0  0  0  0  0  0  0  0  0  0  0  0
   40.0759   32.0028   30.2188 N   0  0  0  0  0  0  0  0  0  0  0  0
   41.0498   31.6587   31.0385 C   0  0  0  0  0  0  0  0  0  0  0  0
   40.6660   30.6851   31.9269 O   0  0  0  0  0  0  0  0  0  0  0  0
   48.8982   35.4082   28.9853 C   0  0  0  0  0  0  0  0  0  0  0  0
   49.7835   34.9048   28.3019 O   0  0  0  0  0  0  0  0  0  0  0  0
   48.3352   36.6455   28.7316 N   0  0  0  0  0  0  0  0  0  0  0  0
   47.6295   36.9815   29.3301 H   0  0  0  0  0  0  0  0  0  0  0  0
   48.7484   37.4502   27.6259 C   0  0  0  0  0  0  0  0  0  0  0  0
   50.1907   37.8441   27.4708 C   0  0  0  0  0  0  0  0  0  0  0  0
   49.1677   38.8798   27.8331 C   0  0  0  0  0  0  0  0  0  0  0  0
 15 16  1  0
 16 17  2  0
 17 18  1  0
 18 19  2  0
 19  8  1  0
  8  9  2  0
  9 10  1  0
 10 11  2  0
 11  1  1  0
  1  2  2  0
  2  3  1  0
  3 21  1  0
 21 22  2  0
 21 23  1  0
 23 25  1  0
 25 26  1  0
 26 27  1  0
  3  4  2  0
  4  5  1  0
  5  6  2  0
  6  7  1  0
 11 12  1  0
 12 13  1  0
 12 14  2  0
 19 20  1  0
 20 16  1  0
 14  8  1  0
  6  1  1  0
 27 25  1  0
 23 24  1  0
M  END
> <minimizedAffinity>
-8.18831

> <CNNscore>
0.2772051096

> <CNNaffinity>
6.0923399925

> <CNN_VS>
1.6888277531

> <CNNaffinity_variance>
0.1511525661

$$$$



 27 30  0  0  0  0  0  0  0  0999 V2000
   44.0398   31.8097   31.3708 C   0  0  0  0  0  0  0  0  0  0  0  0
   44.1035   30.4121   31.2093 C   0  0  0  0  0  0  0  0  0  0  0  0
   43.0820   29.5840   31.6895 C   0  0  0  0  0  0  0  0  0  0  0  0
   41.9947   30.1487   32.3592 C   0  0  0  0  0  0  0  0  0  0  0  0
   41.9136   31.5319   32.5229 C   0  0  0  0  0  0  0  0  0  0  0  0
   42.9248   32.3734   32.0316 C   0  0  0  0  0  0  0  0  0  0  0  0
   42.7972   33.8613   32.2291 C   0  0  0  0  0  0  0  0  0  0  0  0
   47.2303   34.2010   29.7309 C   0  0  0  0  0  0  0  0  0  0  0  0
   46.1712   33.7514   28.9346 C   0  0  0  0  0  0  0  0  0  0  0  0
   45.1433   32.9793   29.4825 C   0  0  0  0  0  0  0  0  0  0  0  0
   45.1404   32.6355   30.8445 C   0  0  0  0  0  0  0  0  0  0  0  0
   46.2023   33.0841   31.6590 C   0  0  0  0  0  0  0  0  0  0  0  0
   46.2657   32.7448   33.1257 C   0  0  0  0  0  0  0  0  0  0  0  0
   47.2334   33.8582   31.0916 C   0  0  0  0  0  0  0  0  0  0  0  0
   51.5945   35.0990   27.9115 C   0  0  0  0  0  0  0  0  0  0  0  0
   50.2165   35.4043   28.3286 C   0  0  0  0  0  0  0  0  0  0  0  0
   49.5504   36.5362   28.2674 N   0  0  0  0  0  0  0  0  0  0  0  0
   48.2999   36.2760   28.7898 N   0  0  0  0  0  0  0  0  0  0  0  0
   48.2907   35.0028   29.1331 C   0  0  0  0  0  0  0  0  0  0  0  0
   49.4849   34.3807   28.8664 O   0  0  0  0  0  0  0  0  0  0  0  0
   43.1294   28.1045   31.5358 C   0  0  0  0  0  0  0  0  0  0  0  0
   42.2212   27.5205   30.9541 O   0  0  0  0  0  0  0  0  0  0  0  0
   44.2496   27.4755   32.0476 N   0  0  0  0  0  0  0  0  0  0  0  0
   44.9343   28.0156   32.5044 H   0  0  0  0  0  0  0  0  0  0  0  0
   44.4416   26.0646   31.9326 C   0  0  0  0  0  0  0  0  0  0  0  0
   45.5544   25.3865   32.6818 C   0  0  0  0  0  0  0  0  0  0  0  0
   45.6258   25.5109   31.1884 C   0  0  0  0  0  0  0  0  0  0  0  0
 15 16  1  0
 16 17  2  0
 17 18  1  0
 18 19  2  0
 19  8  1  0
  8  9  2  0
  9 10  1  0
 10 11  2  0
 11  1  1  0
  1  2  2  0
  2  3  1  0
  3 21  1  0
 21 22  2  0
 21 23  1  0
 23 25  1  0
 25 26  1  0
 26 27  1  0
  3  4  2  0
  4  5  1  0
  5  6  2  0
  6  7  1  0
 11 12  1  0
 12 13  1  0
 12 14  2  0
 19 20  1  0
 20 16  1  0
 14  8  1  0
  6  1  1  0
 27 25  1  0
 23 24  1  0
M  END
> <minimizedAffinity>
-7.98860

> <CNNscore>
0.2695884109

> <CNNaffinity>
5.9271731377

> <CNN_VS>
1.5978971720

> <CNNaffinity_variance>
0.1259255260

$$$$



 27 30  0  0  0  0  0  0  0  0999 V2000
   46.7868   33.8965   31.0147 C   0  0  0  0  0  0  0  0  0  0  0  0
   47.0280   34.6952   29.8800 C   0  0  0  0  0  0  0  0  0  0  0  0
   48.2970   35.2327   29.6340 C   0  0  0  0  0  0  0  0  0  0  0  0
   49.3338   34.9936   30.5382 C   0  0  0  0  0  0  0  0  0  0  0  0
   49.1129   34.2002   31.6644 C   0  0  0  0  0  0  0  0  0  0  0  0
   47.8481   33.6430   31.9129 C   0  0  0  0  0  0  0  0  0  0  0  0
   47.6533   32.7914   33.1402 C   0  0  0  0  0  0  0  0  0  0  0  0
   42.8379   32.2483   31.5412 C   0  0  0  0  0  0  0  0  0  0  0  0
   43.7545   31.6781   30.6509 C   0  0  0  0  0  0  0  0  0  0  0  0
   45.0317   32.2231   30.4940 C   0  0  0  0  0  0  0  0  0  0  0  0
   45.4336   33.3533   31.2251 C   0  0  0  0  0  0  0  0  0  0  0  0
   44.5189   33.9372   32.1277 C   0  0  0  0  0  0  0  0  0  0  0  0
   44.8818   35.1553   32.9370 C   0  0  0  0  0  0  0  0  0  0  0  0
   43.2337   33.3789   32.2720 C   0  0  0  0  0  0  0  0  0  0  0  0
   39.0929   30.3118   33.8623 C   0  0  0  0  0  0  0  0  0  0  0  0
   39.8550   30.8056   32.7040 C   0  0  0  0  0  0  0  0  0  0  0  0
   39.5208   30.8474   31.4332 N   0  0  0  0  0  0  0  0  0  0  0  0
   40.5961   31.4026   30.7701 N   0  0  0  0  0  0  0  0  0  0  0  0
   41.5115   31.6610   31.6835 C   0  0  0  0  0  0  0  0  0  0  0  0
   41.1057   31.3050   32.9457 O   0  0  0  0  0  0  0  0  0  0  0  0
   48.5752   36.0839   28.4453 C   0  0  0  0  0  0  0  0  0  0  0  0
   47.6457   36.5752   27.8137 O   0  0  0  0  0  0  0  0  0  0  0  0
   49.9090   36.2953   28.1476 N   0  0  0  0  0  0  0  0  0  0  0  0
   50.5973   35.8620   28.7023 H   0  0  0  0  0  0  0  0  0  0  0  0
   50.3168   37.1246   27.0582 C   0  0  0  0  0  0  0  0  0  0  0  0
   50.5482   36.5302   25.6970 C   0  0  0  0  0  0  0  0  0  0  0  0
   51.7114   37.0287   26.5027 C   0  0  0  0  0  0  0  0  0  0  0  0
 15 16  1  0
 16 17  2  0
 17 18  1  0
 18 19  2  0
 19  8  1  0
  8  9  2  0
  9 10  1  0
 10 11  2  0
 11  1  1  0
  1  2  2  0
  2  3  1  0
  3 21  1  0
 21 22  2  0
 21 23  1  0
 23 25  1  0
 25 26  1  0
 26 27  1  0
  3  4  2  0
  4  5  1  0
  5  6  2  0
  6  7  1  0
 11 12  1  0
 12 13  1  0
 12 14  2  0
 19 20  1  0
 20 16  1  0
 14  8  1  0
  6  1  1  0
 27 25  1  0
 23 24  1  0
M  END
> <minimizedAffinity>
-6.58953

> <CNNscore>
0.2543388009

> <CNNaffinity>
6.2353091240

> <CNN_VS>
1.5858809948

> <CNNaffinity_variance>
0.0121440887

$$$$
