


 88 90  0  0  0  0  0  0  0  0999 V2000
   19.7194    6.1309    4.9540 C   0  0  0  0  0  0  0  0  0  0  0  0
   18.7550    6.7940    4.5830 O   0  0  0  0  0  0  0  0  0  0  0  0
   21.0229    6.5779    4.8430 N   0  0  0  0  0  0  0  0  0  0  0  0
   21.7511    5.9578    5.0766 H   0  0  0  0  0  0  0  0  0  0  0  0
   21.3704    7.9088    4.4016 C   0  0  0  0  0  0  0  0  0  0  0  0
   21.3899    8.9151    5.5524 C   0  0  0  0  0  0  0  0  0  0  0  0
   21.7614   10.3582    5.1844 C   0  0  0  0  0  0  0  0  0  0  0  0
   21.4605   10.7967    3.7493 C   0  0  0  0  0  0  0  0  0  0  0  0
   20.0181   11.2214    3.4813 C   0  0  0  0  0  0  0  0  0  0  0  0
   19.8946   12.3017    2.4286 C   0  0  0  0  0  0  0  0  0  0  0  0
   20.1285   12.1354    1.2349 O   0  0  0  0  0  0  0  0  0  0  0  0
   19.4302   13.5035    2.9290 N   0  0  0  0  0  0  0  0  0  0  0  0
   19.0586   13.5521    3.8394 H   0  0  0  0  0  0  0  0  0  0  0  0
   19.4964   14.7148    2.0855 C   0  0  0  0  0  0  0  0  0  0  0  0
   18.1945   15.5536    2.1662 C   0  0  0  0  0  0  0  0  0  0  0  0
   17.6699   16.0488    1.1699 O   0  0  0  0  0  0  0  0  0  0  0  0
   17.7554   15.7921    3.4455 N   0  0  0  0  0  0  0  0  0  0  0  0
   18.3111   15.4881    4.1992 H   0  0  0  0  0  0  0  0  0  0  0  0
   16.4915   16.4816    3.7364 C   0  0  0  0  0  0  0  0  0  0  0  0
   15.3661   15.4589    4.0484 C   0  0  0  0  0  0  0  0  0  0  0  0
   14.9639   15.3492    5.3546 N   0  0  0  0  0  0  0  0  0  0  0  0
   14.7377   14.8595    3.1723 O   0  0  0  0  0  0  0  0  0  0  0  0
   15.4572   15.8228    6.0629 H   0  0  0  0  0  0  0  0  0  0  0  0
   14.1820   14.7969    5.5842 H   0  0  0  0  0  0  0  0  0  0  0  0
   16.7042   17.4045    4.9511 C   0  0  0  0  0  0  0  0  0  0  0  0
   18.1657   17.5261    5.4098 C   0  0  0  0  0  0  0  0  0  0  0  0
   18.4642   17.0046    6.8152 C   0  0  0  0  0  0  0  0  0  0  0  0
   19.0330   18.0139    7.6794 N   0  0  0  0  0  0  0  0  0  0  0  0
   20.0096   18.1377    7.6662 H   0  0  0  0  0  0  0  0  0  0  0  0
   18.3055   18.7963    8.5031 C   0  0  0  0  0  0  0  0  0  0  0  0
   17.3367   18.3797    9.2360 N   0  0  0  0  0  0  0  0  0  0  0  0
   18.7000   20.0832    8.4820 N   0  0  0  0  0  0  0  0  0  0  0  0
   17.0813   17.4290    9.2206 H   0  0  0  0  0  0  0  0  0  0  0  0
   19.4482   20.3593    7.9047 H   0  0  0  0  0  0  0  0  0  0  0  0
   18.2403   20.7483    9.0438 H   0  0  0  0  0  0  0  0  0  0  0  0
   20.6877   15.5733    2.5297 C   0  0  0  0  0  0  0  0  0  0  0  0
   21.6542   15.9878    1.4065 C   0  0  0  0  0  0  0  0  0  0  0  0
   21.6263   15.1003    0.1579 C   0  0  0  0  0  0  0  0  0  0  0  0
   22.5101   13.9594    0.2910 N   0  0  0  0  0  0  0  0  0  0  0  0
   22.2250   13.2281    0.8852 H   0  0  0  0  0  0  0  0  0  0  0  0
   23.6961   13.8267   -0.3407 C   0  0  0  0  0  0  0  0  0  0  0  0
   24.8069   14.4016   -0.0540 N   0  0  0  0  0  0  0  0  0  0  0  0
   23.6383   12.9457   -1.3602 N   0  0  0  0  0  0  0  0  0  0  0  0
   24.8505   15.0450    0.6900 H   0  0  0  0  0  0  0  0  0  0  0  0
   22.7867   12.5039   -1.5813 H   0  0  0  0  0  0  0  0  0  0  0  0
   24.4476   12.7444   -1.8833 H   0  0  0  0  0  0  0  0  0  0  0  0
   19.6179    4.7005    5.5523 C   0  0  0  0  0  0  0  0  0  0  0  0
   17.4041    3.7076    5.0461 C   0  0  0  0  0  0  0  0  0  0  0  0
   17.7529    3.3413    3.9259 O   0  0  0  0  0  0  0  0  0  0  0  0
   18.2168    4.4377    5.8755 N   0  0  0  0  0  0  0  0  0  0  0  0
   17.8451    4.7957    6.7140 H   0  0  0  0  0  0  0  0  0  0  0  0
   16.0113    3.4549    5.5759 C   0  0  0  0  0  0  0  0  0  0  0  0
   15.8305    2.0167    6.0597 C   0  0  0  0  0  0  0  0  0  0  0  0
   14.5143    1.8074    6.8117 C   0  0  0  0  0  0  0  0  0  0  0  0
   14.6809    1.5861    8.3194 C   0  0  0  0  0  0  0  0  0  0  0  0
   14.9757    2.8594    9.1103 C   0  0  0  0  0  0  0  0  0  0  0  0
   13.3236    4.0001   10.6022 C   0  0  0  0  0  0  0  0  0  0  0  0
   13.9054    3.7092   11.6440 O   0  0  0  0  0  0  0  0  0  0  0  0
   13.7682    3.6146    9.3520 N   0  0  0  0  0  0  0  0  0  0  0  0
   13.2247    3.8722    8.5725 H   0  0  0  0  0  0  0  0  0  0  0  0
   10.7950    6.3840   11.8832 C   0  0  0  0  0  0  0  0  0  0  0  0
   12.1437    6.1472   11.2087 C   0  0  0  0  0  0  0  0  0  0  0  0
   12.4473    7.1805   10.2738 O   0  0  0  0  0  0  0  0  0  0  0  0
   11.9946    4.7771   10.5538 C   0  0  0  0  0  0  0  0  0  0  0  0
   11.0049    4.0480   11.3142 O   0  0  0  0  0  0  0  0  0  0  0  0
   10.3096    4.9631   12.1821 C   0  0  0  0  0  0  0  0  0  0  0  0
   11.7439    7.2308    9.6077 H   0  0  0  0  0  0  0  0  0  0  0  0
   10.5111    4.5384   13.5541 N   0  0  0  0  0  0  0  0  0  0  0  0
   11.5996    3.8889   14.0799 C   0  0  0  0  0  0  0  0  0  0  0  0
   11.4460    3.6189   15.3546 N   0  0  0  0  0  0  0  0  0  0  0  0
   10.1907    4.0927   15.6720 C   0  0  0  0  0  0  0  0  0  0  0  0
    9.4380    4.0772   16.8587 C   0  0  0  0  0  0  0  0  0  0  0  0
    9.8803    3.4897   18.0312 N   0  0  0  0  0  0  0  0  0  0  0  0
    8.2163    4.6527   16.8557 N   0  0  0  0  0  0  0  0  0  0  0  0
    7.7720    5.2080   15.7024 C   0  0  0  0  0  0  0  0  0  0  0  0
    8.3958    5.2803   14.5108 N   0  0  0  0  0  0  0  0  0  0  0  0
    9.6036    4.6911   14.5707 C   0  0  0  0  0  0  0  0  0  0  0  0
   10.7666    3.0623   18.0638 H   0  0  0  0  0  0  0  0  0  0  0  0
    9.3086    3.4991   18.8327 H   0  0  0  0  0  0  0  0  0  0  0  0
    8.6005    6.5940   10.9601 C   0  0  0  0  0  0  0  0  0  0  0  0
    9.9472    7.0656   10.9321 O   0  0  0  0  0  0  0  0  0  0  0  0
   20.5277    4.5323    6.7793 C   0  0  0  0  0  0  0  0  0  0  0  0
   19.8927    5.0256    8.0925 C   0  0  0  0  0  0  0  0  0  0  0  0
   20.2293    6.4841    8.4384 C   0  0  0  0  0  0  0  0  0  0  0  0
   19.0534    7.4352    8.2060 C   0  0  0  0  0  0  0  0  0  0  0  0
   18.6198    8.0614    9.4478 N   0  0  0  0  0  0  0  0  0  0  0  0
   18.3115    7.3420   10.1018 H   0  0  0  0  0  0  0  0  0  0  0  0
   17.8475    8.6993    9.2552 H   0  0  0  0  0  0  0  0  0  0  0  0
 80 81  1  0
 61 81  1  0
 61 62  1  0
 62 63  1  0
 62 64  1  0
 64 57  1  0
 57 58  2  0
 57 59  1  0
 59 56  1  0
 56 55  1  0
 55 54  1  0
 54 53  1  0
 53 52  1  0
 52 48  1  0
 48 49  2  0
 48 50  1  0
 50 47  1  0
 47 82  1  0
 82 83  1  0
 83 84  1  0
 84 85  1  0
 85 86  1  0
 47  1  1  0
  1  2  2  0
  1  3  1  0
  3  5  1  0
  5  6  1  0
  6  7  1  0
  7  8  1  0
  8  9  1  0
  9 10  1  0
 10 11  2  0
 10 12  1  0
 12 14  1  0
 14 36  1  0
 36 37  1  0
 37 38  1  0
 38 39  1  0
 39 41  1  0
 41 42  2  0
 41 43  1  0
 14 15  1  0
 15 16  2  0
 15 17  1  0
 17 19  1  0
 19 25  1  0
 25 26  1  0
 26 27  1  0
 27 28  1  0
 28 30  1  0
 30 31  2  0
 30 32  1  0
 19 20  1  0
 20 21  1  0
 20 22  2  0
 64 65  1  0
 65 66  1  0
 66 68  1  0
 68 69  1  0
 69 70  2  0
 70 71  1  0
 71 72  2  0
 72 73  1  0
 72 74  1  0
 74 75  2  0
 75 76  1  0
 76 77  2  0
 66 61  1  0
 77 68  1  0
 77 71  1  0
 63 67  1  0
 59 60  1  0
 50 51  1  0
 86 87  1  0
 86 88  1  0
  3  4  1  0
 12 13  1  0
 39 40  1  0
 42 44  1  0
 43 45  1  0
 43 46  1  0
 17 18  1  0
 28 29  1  0
 31 33  1  0
 32 34  1  0
 32 35  1  0
 21 23  1  0
 21 24  1  0
 73 78  1  0
 73 79  1  0
M  END
> <minimizedAffinity>
-6.52151

> <CNNscore>
0.7407554388

> <CNNaffinity>
7.5073418617

> <CNN_VS>
5.5611042976

> <CNNaffinity_variance>
1.6646276712

$$$$



 88 90  0  0  0  0  0  0  0  0999 V2000
   17.0130    4.5847    4.3676 C   0  0  0  0  0  0  0  0  0  0  0  0
   16.5995    4.1974    3.2785 O   0  0  0  0  0  0  0  0  0  0  0  0
   17.0875    5.9227    4.7077 N   0  0  0  0  0  0  0  0  0  0  0  0
   17.5133    6.1649    5.5617 H   0  0  0  0  0  0  0  0  0  0  0  0
   16.5723    6.9834    3.8731 C   0  0  0  0  0  0  0  0  0  0  0  0
   17.4686    8.2219    3.8895 C   0  0  0  0  0  0  0  0  0  0  0  0
   17.1006    9.3113    4.9062 C   0  0  0  0  0  0  0  0  0  0  0  0
   17.4258   10.7535    4.5103 C   0  0  0  0  0  0  0  0  0  0  0  0
   16.8825   11.8301    5.4475 C   0  0  0  0  0  0  0  0  0  0  0  0
   17.7489   13.0696    5.5066 C   0  0  0  0  0  0  0  0  0  0  0  0
   18.6431   13.2509    6.3282 O   0  0  0  0  0  0  0  0  0  0  0  0
   17.4791   13.9751    4.4978 N   0  0  0  0  0  0  0  0  0  0  0  0
   16.9064   13.7177    3.7395 H   0  0  0  0  0  0  0  0  0  0  0  0
   18.0578   15.3328    4.5675 C   0  0  0  0  0  0  0  0  0  0  0  0
   18.7313   15.7489    3.2340 C   0  0  0  0  0  0  0  0  0  0  0  0
   18.0795   16.0791    2.2445 O   0  0  0  0  0  0  0  0  0  0  0  0
   20.0966   15.5997    3.2209 N   0  0  0  0  0  0  0  0  0  0  0  0
   20.5336   15.1885    4.0014 H   0  0  0  0  0  0  0  0  0  0  0  0
   20.9320   16.0278    2.0912 C   0  0  0  0  0  0  0  0  0  0  0  0
   20.7272   15.0919    0.8697 C   0  0  0  0  0  0  0  0  0  0  0  0
   20.9761   13.7564    1.0552 N   0  0  0  0  0  0  0  0  0  0  0  0
   20.2270   15.4695   -0.1929 O   0  0  0  0  0  0  0  0  0  0  0  0
   21.3750   13.4426    1.8988 H   0  0  0  0  0  0  0  0  0  0  0  0
   20.7560   13.1113    0.3449 H   0  0  0  0  0  0  0  0  0  0  0  0
   20.5423   17.4687    1.7109 C   0  0  0  0  0  0  0  0  0  0  0  0
   21.6884   18.3020    1.1166 C   0  0  0  0  0  0  0  0  0  0  0  0
   21.3272   19.1504   -0.1023 C   0  0  0  0  0  0  0  0  0  0  0  0
   20.5497   18.4248   -1.0810 N   0  0  0  0  0  0  0  0  0  0  0  0
   19.7198   17.9880   -0.7814 H   0  0  0  0  0  0  0  0  0  0  0  0
   20.8931   18.3104   -2.3806 C   0  0  0  0  0  0  0  0  0  0  0  0
   21.0055   19.2980   -3.1938 N   0  0  0  0  0  0  0  0  0  0  0  0
   21.1101   17.0347   -2.7515 N   0  0  0  0  0  0  0  0  0  0  0  0
   20.8373   20.2158   -2.8798 H   0  0  0  0  0  0  0  0  0  0  0  0
   21.0126   16.3077   -2.0949 H   0  0  0  0  0  0  0  0  0  0  0  0
   21.3664   16.8287   -3.6795 H   0  0  0  0  0  0  0  0  0  0  0  0
   16.9501   16.3350    4.9169 C   0  0  0  0  0  0  0  0  0  0  0  0
   17.4378   17.7008    5.4309 C   0  0  0  0  0  0  0  0  0  0  0  0
   18.6463   17.6530    6.3714 C   0  0  0  0  0  0  0  0  0  0  0  0
   18.5458   18.6434    7.4246 N   0  0  0  0  0  0  0  0  0  0  0  0
   19.3366   19.2022    7.6027 H   0  0  0  0  0  0  0  0  0  0  0  0
   17.4465   18.8554    8.1795 C   0  0  0  0  0  0  0  0  0  0  0  0
   17.0758   18.2104    9.2249 N   0  0  0  0  0  0  0  0  0  0  0  0
   16.7196   19.9044    7.7435 N   0  0  0  0  0  0  0  0  0  0  0  0
   17.6054   17.4444    9.5444 H   0  0  0  0  0  0  0  0  0  0  0  0
   17.0029   20.4002    6.9415 H   0  0  0  0  0  0  0  0  0  0  0  0
   15.9057   20.1743    8.2271 H   0  0  0  0  0  0  0  0  0  0  0  0
   17.5431    3.6447    5.4855 C   0  0  0  0  0  0  0  0  0  0  0  0
   15.9137    1.7903    5.7070 C   0  0  0  0  0  0  0  0  0  0  0  0
   16.3198    1.2269    4.6929 O   0  0  0  0  0  0  0  0  0  0  0  0
   16.3965    3.0037    6.1266 N   0  0  0  0  0  0  0  0  0  0  0  0
   15.9574    3.4566    6.8824 H   0  0  0  0  0  0  0  0  0  0  0  0
   14.7820    1.2305    6.5378 C   0  0  0  0  0  0  0  0  0  0  0  0
   13.9364    2.3313    7.1767 C   0  0  0  0  0  0  0  0  0  0  0  0
   13.9959    2.3099    8.7057 C   0  0  0  0  0  0  0  0  0  0  0  0
   14.9964    3.3022    9.3092 C   0  0  0  0  0  0  0  0  0  0  0  0
   14.6890    3.7023   10.7511 C   0  0  0  0  0  0  0  0  0  0  0  0
   13.4542    5.8720   10.9058 C   0  0  0  0  0  0  0  0  0  0  0  0
   14.4669    6.5658   10.9480 O   0  0  0  0  0  0  0  0  0  0  0  0
   13.4823    4.4928   10.8271 N   0  0  0  0  0  0  0  0  0  0  0  0
   12.6209    4.0162   10.8225 H   0  0  0  0  0  0  0  0  0  0  0  0
   10.5887    7.4566   12.6366 C   0  0  0  0  0  0  0  0  0  0  0  0
   11.9636    7.5970   11.9886 C   0  0  0  0  0  0  0  0  0  0  0  0
   12.1191    8.8712   11.3672 O   0  0  0  0  0  0  0  0  0  0  0  0
   12.0252    6.4395   10.9963 C   0  0  0  0  0  0  0  0  0  0  0  0
   11.1477    5.4049   11.4952 O   0  0  0  0  0  0  0  0  0  0  0  0
   10.3167    5.9534   12.5357 C   0  0  0  0  0  0  0  0  0  0  0  0
   11.4220    8.9947   10.7040 H   0  0  0  0  0  0  0  0  0  0  0  0
   10.5665    5.2168   13.7597 N   0  0  0  0  0  0  0  0  0  0  0  0
   11.6789    4.4816   14.0843 C   0  0  0  0  0  0  0  0  0  0  0  0
   11.5688    3.9117   15.2608 N   0  0  0  0  0  0  0  0  0  0  0  0
   10.3185    4.2713   15.7172 C   0  0  0  0  0  0  0  0  0  0  0  0
    9.6038    3.9577   16.8859 C   0  0  0  0  0  0  0  0  0  0  0  0
   10.0900    3.1155   17.8707 N   0  0  0  0  0  0  0  0  0  0  0  0
    8.3757    4.4933   17.0547 N   0  0  0  0  0  0  0  0  0  0  0  0
    7.8884    5.2997   16.0809 C   0  0  0  0  0  0  0  0  0  0  0  0
    8.4734    5.6670   14.9246 N   0  0  0  0  0  0  0  0  0  0  0  0
    9.6897    5.1042   14.8080 C   0  0  0  0  0  0  0  0  0  0  0  0
   10.9820    2.7101   17.7754 H   0  0  0  0  0  0  0  0  0  0  0  0
    9.5437    2.9218   18.6666 H   0  0  0  0  0  0  0  0  0  0  0  0
    8.4277    7.5525   11.6202 C   0  0  0  0  0  0  0  0  0  0  0  0
    9.6578    8.2372   11.8542 O   0  0  0  0  0  0  0  0  0  0  0  0
   18.4135    4.4031    6.4997 C   0  0  0  0  0  0  0  0  0  0  0  0
   19.3696    3.4952    7.2953 C   0  0  0  0  0  0  0  0  0  0  0  0
   18.7267    2.8404    8.5273 C   0  0  0  0  0  0  0  0  0  0  0  0
   19.7134    1.9885    9.3287 C   0  0  0  0  0  0  0  0  0  0  0  0
   19.1700    1.6246   10.6304 N   0  0  0  0  0  0  0  0  0  0  0  0
   18.9825    2.4702   11.1690 H   0  0  0  0  0  0  0  0  0  0  0  0
   19.8445    1.0455   11.1305 H   0  0  0  0  0  0  0  0  0  0  0  0
 80 81  1  0
 61 81  1  0
 61 62  1  0
 62 63  1  0
 62 64  1  0
 64 57  1  0
 57 58  2  0
 57 59  1  0
 59 56  1  0
 56 55  1  0
 55 54  1  0
 54 53  1  0
 53 52  1  0
 52 48  1  0
 48 49  2  0
 48 50  1  0
 50 47  1  0
 47 82  1  0
 82 83  1  0
 83 84  1  0
 84 85  1  0
 85 86  1  0
 47  1  1  0
  1  2  2  0
  1  3  1  0
  3  5  1  0
  5  6  1  0
  6  7  1  0
  7  8  1  0
  8  9  1  0
  9 10  1  0
 10 11  2  0
 10 12  1  0
 12 14  1  0
 14 36  1  0
 36 37  1  0
 37 38  1  0
 38 39  1  0
 39 41  1  0
 41 42  2  0
 41 43  1  0
 14 15  1  0
 15 16  2  0
 15 17  1  0
 17 19  1  0
 19 25  1  0
 25 26  1  0
 26 27  1  0
 27 28  1  0
 28 30  1  0
 30 31  2  0
 30 32  1  0
 19 20  1  0
 20 21  1  0
 20 22  2  0
 64 65  1  0
 65 66  1  0
 66 68  1  0
 68 69  1  0
 69 70  2  0
 70 71  1  0
 71 72  2  0
 72 73  1  0
 72 74  1  0
 74 75  2  0
 75 76  1  0
 76 77  2  0
 66 61  1  0
 77 68  1  0
 77 71  1  0
 63 67  1  0
 59 60  1  0
 50 51  1  0
 86 87  1  0
 86 88  1  0
  3  4  1  0
 12 13  1  0
 39 40  1  0
 42 44  1  0
 43 45  1  0
 43 46  1  0
 17 18  1  0
 28 29  1  0
 31 33  1  0
 32 34  1  0
 32 35  1  0
 21 23  1  0
 21 24  1  0
 73 78  1  0
 73 79  1  0
M  END
> <minimizedAffinity>
-7.40022

> <CNNscore>
0.5657020807

> <CNNaffinity>
7.3268198967

> <CNN_VS>
4.1447973251

> <CNNaffinity_variance>
1.6375412941

$$$$



 88 90  0  0  0  0  0  0  0  0999 V2000
   17.6101    4.7611    6.7418 C   0  0  0  0  0  0  0  0  0  0  0  0
   16.5860    5.4079    6.5414 O   0  0  0  0  0  0  0  0  0  0  0  0
   18.8679    5.2271    6.4069 N   0  0  0  0  0  0  0  0  0  0  0  0
   19.6350    4.6192    6.5125 H   0  0  0  0  0  0  0  0  0  0  0  0
   19.1133    6.5611    5.9097 C   0  0  0  0  0  0  0  0  0  0  0  0
   20.5140    7.0629    6.2617 C   0  0  0  0  0  0  0  0  0  0  0  0
   21.1080    8.1255    5.3267 C   0  0  0  0  0  0  0  0  0  0  0  0
   20.9417    9.5847    5.7575 C   0  0  0  0  0  0  0  0  0  0  0  0
   21.1093   10.6201    4.6473 C   0  0  0  0  0  0  0  0  0  0  0  0
   20.1682   11.7983    4.7762 C   0  0  0  0  0  0  0  0  0  0  0  0
   19.5990   12.1194    5.8157 O   0  0  0  0  0  0  0  0  0  0  0  0
   20.0464   12.5321    3.6113 N   0  0  0  0  0  0  0  0  0  0  0  0
   20.6637   12.3775    2.8601 H   0  0  0  0  0  0  0  0  0  0  0  0
   18.9816   13.5507    3.5035 C   0  0  0  0  0  0  0  0  0  0  0  0
   19.5543   14.9673    3.2377 C   0  0  0  0  0  0  0  0  0  0  0  0
   20.7586   15.2102    3.2976 O   0  0  0  0  0  0  0  0  0  0  0  0
   18.5989   15.9365    3.0528 N   0  0  0  0  0  0  0  0  0  0  0  0
   17.6518   15.6930    3.1667 H   0  0  0  0  0  0  0  0  0  0  0  0
   18.9309   17.3211    2.6924 C   0  0  0  0  0  0  0  0  0  0  0  0
   18.9682   17.4943    1.1501 C   0  0  0  0  0  0  0  0  0  0  0  0
   19.5888   18.6145    0.6604 N   0  0  0  0  0  0  0  0  0  0  0  0
   18.5973   16.6189    0.3640 O   0  0  0  0  0  0  0  0  0  0  0  0
   19.8895   19.3202    1.2776 H   0  0  0  0  0  0  0  0  0  0  0  0
   19.7338   18.7132   -0.3083 H   0  0  0  0  0  0  0  0  0  0  0  0
   17.8625   18.2543    3.2926 C   0  0  0  0  0  0  0  0  0  0  0  0
   17.2796   17.7759    4.6315 C   0  0  0  0  0  0  0  0  0  0  0  0
   18.1408   18.0495    5.8642 C   0  0  0  0  0  0  0  0  0  0  0  0
   17.5386   17.5700    7.0875 N   0  0  0  0  0  0  0  0  0  0  0  0
   16.7138   17.0368    7.0193 H   0  0  0  0  0  0  0  0  0  0  0  0
   18.0392   17.8094    8.3171 C   0  0  0  0  0  0  0  0  0  0  0  0
   17.9964   18.9467    8.9120 N   0  0  0  0  0  0  0  0  0  0  0  0
   18.6010   16.7191    8.8720 N   0  0  0  0  0  0  0  0  0  0  0  0
   17.5755   19.7185    8.4689 H   0  0  0  0  0  0  0  0  0  0  0  0
   18.6118   15.8664    8.3800 H   0  0  0  0  0  0  0  0  0  0  0  0
   19.0010   16.7744    9.7699 H   0  0  0  0  0  0  0  0  0  0  0  0
   18.0265   13.1625    2.3673 C   0  0  0  0  0  0  0  0  0  0  0  0
   17.2773   11.8331    2.5640 C   0  0  0  0  0  0  0  0  0  0  0  0
   15.9609   11.9321    3.3416 C   0  0  0  0  0  0  0  0  0  0  0  0
   16.0615   12.8597    4.4506 N   0  0  0  0  0  0  0  0  0  0  0  0
   16.1739   13.8144    4.2383 H   0  0  0  0  0  0  0  0  0  0  0  0
   16.0124   12.5096    5.7538 C   0  0  0  0  0  0  0  0  0  0  0  0
   16.8968   12.7246    6.6582 N   0  0  0  0  0  0  0  0  0  0  0  0
   14.8552   11.8968    6.0768 N   0  0  0  0  0  0  0  0  0  0  0  0
   17.7420   13.1719    6.4238 H   0  0  0  0  0  0  0  0  0  0  0  0
   14.1758   11.7312    5.3839 H   0  0  0  0  0  0  0  0  0  0  0  0
   14.6901   11.6150    7.0056 H   0  0  0  0  0  0  0  0  0  0  0  0
   17.6357    3.3320    7.3512 C   0  0  0  0  0  0  0  0  0  0  0  0
   15.5406    2.0685    7.7481 C   0  0  0  0  0  0  0  0  0  0  0  0
   15.7259    1.3322    6.7815 O   0  0  0  0  0  0  0  0  0  0  0  0
   16.3746    3.1127    8.0572 N   0  0  0  0  0  0  0  0  0  0  0  0
   16.1160    3.7333    8.7763 H   0  0  0  0  0  0  0  0  0  0  0  0
   14.3247    1.9370    8.6360 C   0  0  0  0  0  0  0  0  0  0  0  0
   13.0299    2.2631    7.8928 C   0  0  0  0  0  0  0  0  0  0  0  0
   12.2559    3.4176    8.5329 C   0  0  0  0  0  0  0  0  0  0  0  0
   11.4250    4.2419    7.5429 C   0  0  0  0  0  0  0  0  0  0  0  0
   11.3767    5.7359    7.8580 C   0  0  0  0  0  0  0  0  0  0  0  0
   10.4284    6.9787    9.8106 C   0  0  0  0  0  0  0  0  0  0  0  0
   11.4421    7.6417   10.0147 O   0  0  0  0  0  0  0  0  0  0  0  0
   10.3285    6.0355    8.8059 N   0  0  0  0  0  0  0  0  0  0  0  0
    9.4852    5.5331    8.7308 H   0  0  0  0  0  0  0  0  0  0  0  0
    8.5670    7.5658   12.9584 C   0  0  0  0  0  0  0  0  0  0  0  0
    9.3140    8.1375   11.7562 C   0  0  0  0  0  0  0  0  0  0  0  0
    8.7798    9.4001   11.3630 O   0  0  0  0  0  0  0  0  0  0  0  0
    9.1608    7.0656   10.6811 C   0  0  0  0  0  0  0  0  0  0  0  0
    8.9802    5.8034   11.3621 O   0  0  0  0  0  0  0  0  0  0  0  0
    8.6945    6.0543   12.7511 C   0  0  0  0  0  0  0  0  0  0  0  0
    7.8373    9.3020   11.1560 H   0  0  0  0  0  0  0  0  0  0  0  0
    9.7262    5.4256   13.5534 N   0  0  0  0  0  0  0  0  0  0  0  0
   11.0158    5.1356   13.1843 C   0  0  0  0  0  0  0  0  0  0  0  0
   11.6803    4.5328   14.1415 N   0  0  0  0  0  0  0  0  0  0  0  0
   10.7780    4.4016   15.1758 C   0  0  0  0  0  0  0  0  0  0  0  0
   10.8682    3.8183   16.4512 C   0  0  0  0  0  0  0  0  0  0  0  0
   12.0063    3.1834   16.9174 N   0  0  0  0  0  0  0  0  0  0  0  0
    9.7887    3.8669   17.2610 N   0  0  0  0  0  0  0  0  0  0  0  0
    8.6660    4.4676   16.7976 C   0  0  0  0  0  0  0  0  0  0  0  0
    8.4600    5.0535   15.6024 N   0  0  0  0  0  0  0  0  0  0  0  0
    9.5639    4.9739   14.8379 C   0  0  0  0  0  0  0  0  0  0  0  0
   12.8089    3.1321   16.3496 H   0  0  0  0  0  0  0  0  0  0  0  0
   12.0132    2.7831   17.8168 H   0  0  0  0  0  0  0  0  0  0  0  0
    6.2616    7.0117   13.2587 C   0  0  0  0  0  0  0  0  0  0  0  0
    7.1973    8.0183   12.8741 O   0  0  0  0  0  0  0  0  0  0  0  0
   18.8483    3.1293    8.2730 C   0  0  0  0  0  0  0  0  0  0  0  0
   18.8040    1.8145    9.0733 C   0  0  0  0  0  0  0  0  0  0  0  0
   20.0568    1.5610    9.9257 C   0  0  0  0  0  0  0  0  0  0  0  0
   20.9335    0.4362    9.3711 C   0  0  0  0  0  0  0  0  0  0  0  0
   20.5708   -0.8542    9.9416 N   0  0  0  0  0  0  0  0  0  0  0  0
   20.7032   -0.8283   10.9526 H   0  0  0  0  0  0  0  0  0  0  0  0
   21.1619   -1.5819    9.5398 H   0  0  0  0  0  0  0  0  0  0  0  0
 80 81  1  0
 61 81  1  0
 61 62  1  0
 62 63  1  0
 62 64  1  0
 64 57  1  0
 57 58  2  0
 57 59  1  0
 59 56  1  0
 56 55  1  0
 55 54  1  0
 54 53  1  0
 53 52  1  0
 52 48  1  0
 48 49  2  0
 48 50  1  0
 50 47  1  0
 47 82  1  0
 82 83  1  0
 83 84  1  0
 84 85  1  0
 85 86  1  0
 47  1  1  0
  1  2  2  0
  1  3  1  0
  3  5  1  0
  5  6  1  0
  6  7  1  0
  7  8  1  0
  8  9  1  0
  9 10  1  0
 10 11  2  0
 10 12  1  0
 12 14  1  0
 14 36  1  0
 36 37  1  0
 37 38  1  0
 38 39  1  0
 39 41  1  0
 41 42  2  0
 41 43  1  0
 14 15  1  0
 15 16  2  0
 15 17  1  0
 17 19  1  0
 19 25  1  0
 25 26  1  0
 26 27  1  0
 27 28  1  0
 28 30  1  0
 30 31  2  0
 30 32  1  0
 19 20  1  0
 20 21  1  0
 20 22  2  0
 64 65  1  0
 65 66  1  0
 66 68  1  0
 68 69  1  0
 69 70  2  0
 70 71  1  0
 71 72  2  0
 72 73  1  0
 72 74  1  0
 74 75  2  0
 75 76  1  0
 76 77  2  0
 66 61  1  0
 77 68  1  0
 77 71  1  0
 63 67  1  0
 59 60  1  0
 50 51  1  0
 86 87  1  0
 86 88  1  0
  3  4  1  0
 12 13  1  0
 39 40  1  0
 42 44  1  0
 43 45  1  0
 43 46  1  0
 17 18  1  0
 28 29  1  0
 31 33  1  0
 32 34  1  0
 32 35  1  0
 21 23  1  0
 21 24  1  0
 73 78  1  0
 73 79  1  0
M  END
> <minimizedAffinity>
-6.81879

> <CNNscore>
0.5585677624

> <CNNaffinity>
8.0808420181

> <CNN_VS>
4.5136976242

> <CNNaffinity_variance>
1.0927386284

$$$$



 88 90  0  0  0  0  0  0  0  0999 V2000
   16.3661    4.2365    4.2750 C   0  0  0  0  0  0  0  0  0  0  0  0
   16.4810    4.2491    3.0527 O   0  0  0  0  0  0  0  0  0  0  0  0
   15.4765    5.0499    4.9520 N   0  0  0  0  0  0  0  0  0  0  0  0
   15.5016    5.0526    5.9362 H   0  0  0  0  0  0  0  0  0  0  0  0
   14.5119    5.8960    4.2882 C   0  0  0  0  0  0  0  0  0  0  0  0
   13.2905    6.1802    5.1628 C   0  0  0  0  0  0  0  0  0  0  0  0
   13.2835    7.5264    5.9002 C   0  0  0  0  0  0  0  0  0  0  0  0
   14.3620    8.5337    5.4942 C   0  0  0  0  0  0  0  0  0  0  0  0
   15.5128    8.6984    6.4848 C   0  0  0  0  0  0  0  0  0  0  0  0
   15.7077   10.1257    6.9488 C   0  0  0  0  0  0  0  0  0  0  0  0
   15.6238   10.4913    8.1179 O   0  0  0  0  0  0  0  0  0  0  0  0
   16.0524   10.9913    5.9279 N   0  0  0  0  0  0  0  0  0  0  0  0
   16.3117   10.6403    5.0455 H   0  0  0  0  0  0  0  0  0  0  0  0
   16.0283   12.4482    6.1729 C   0  0  0  0  0  0  0  0  0  0  0  0
   17.3394   13.1384    5.7148 C   0  0  0  0  0  0  0  0  0  0  0  0
   18.4497   12.6830    5.9844 O   0  0  0  0  0  0  0  0  0  0  0  0
   17.1525   14.3502    5.0958 N   0  0  0  0  0  0  0  0  0  0  0  0
   16.2414   14.7200    5.0484 H   0  0  0  0  0  0  0  0  0  0  0  0
   18.2551   15.1175    4.5017 C   0  0  0  0  0  0  0  0  0  0  0  0
   18.0332   15.3090    2.9772 C   0  0  0  0  0  0  0  0  0  0  0  0
   19.0666   15.8507    2.2571 N   0  0  0  0  0  0  0  0  0  0  0  0
   17.0452   14.8748    2.3797 O   0  0  0  0  0  0  0  0  0  0  0  0
   19.8605   16.2006    2.7224 H   0  0  0  0  0  0  0  0  0  0  0  0
   19.0147   15.8897    1.2747 H   0  0  0  0  0  0  0  0  0  0  0  0
   18.3239   16.4927    5.1920 C   0  0  0  0  0  0  0  0  0  0  0  0
   17.1061   17.3944    4.9369 C   0  0  0  0  0  0  0  0  0  0  0  0
   16.6892   18.2897    6.1034 C   0  0  0  0  0  0  0  0  0  0  0  0
   17.1358   17.7886    7.3834 N   0  0  0  0  0  0  0  0  0  0  0  0
   17.2620   16.8172    7.4817 H   0  0  0  0  0  0  0  0  0  0  0  0
   17.3900   18.5725    8.4515 C   0  0  0  0  0  0  0  0  0  0  0  0
   17.0288   18.3040    9.6543 N   0  0  0  0  0  0  0  0  0  0  0  0
   18.0720   19.6873    8.1287 N   0  0  0  0  0  0  0  0  0  0  0  0
   16.5310   17.4765    9.8457 H   0  0  0  0  0  0  0  0  0  0  0  0
   18.3290   19.8536    7.1930 H   0  0  0  0  0  0  0  0  0  0  0  0
   18.3136   20.3364    8.8284 H   0  0  0  0  0  0  0  0  0  0  0  0
   14.8372   13.0645    5.4278 C   0  0  0  0  0  0  0  0  0  0  0  0
   13.4589   12.7982    6.0577 C   0  0  0  0  0  0  0  0  0  0  0  0
   12.3355   13.7307    5.5932 C   0  0  0  0  0  0  0  0  0  0  0  0
   12.7534   14.5622    4.4823 N   0  0  0  0  0  0  0  0  0  0  0  0
   13.5797   14.3109    4.0096 H   0  0  0  0  0  0  0  0  0  0  0  0
   12.0920   15.6564    4.0483 C   0  0  0  0  0  0  0  0  0  0  0  0
   12.5792   16.6834    3.4529 N   0  0  0  0  0  0  0  0  0  0  0  0
   10.7643   15.5748    4.2705 N   0  0  0  0  0  0  0  0  0  0  0  0
   13.5483   16.7444    3.2901 H   0  0  0  0  0  0  0  0  0  0  0  0
   10.3891   14.7875    4.7272 H   0  0  0  0  0  0  0  0  0  0  0  0
   10.1702   16.3025    3.9759 H   0  0  0  0  0  0  0  0  0  0  0  0
   17.2199    3.3504    5.2237 C   0  0  0  0  0  0  0  0  0  0  0  0
   15.8140    1.4252    5.9021 C   0  0  0  0  0  0  0  0  0  0  0  0
   15.9754    0.8470    4.8296 O   0  0  0  0  0  0  0  0  0  0  0  0
   16.3178    2.6757    6.1552 N   0  0  0  0  0  0  0  0  0  0  0  0
   16.0640    3.1326    6.9895 H   0  0  0  0  0  0  0  0  0  0  0  0
   14.9708    0.8392    7.0110 C   0  0  0  0  0  0  0  0  0  0  0  0
   13.6441    1.5787    7.1790 C   0  0  0  0  0  0  0  0  0  0  0  0
   13.4380    2.1070    8.6004 C   0  0  0  0  0  0  0  0  0  0  0  0
   14.6293    2.8954    9.1563 C   0  0  0  0  0  0  0  0  0  0  0  0
   14.4008    3.4740   10.5515 C   0  0  0  0  0  0  0  0  0  0  0  0
   12.9838    5.5352   10.5539 C   0  0  0  0  0  0  0  0  0  0  0  0
   13.9287    6.3118   10.4411 O   0  0  0  0  0  0  0  0  0  0  0  0
   13.1338    4.1637   10.6291 N   0  0  0  0  0  0  0  0  0  0  0  0
   12.3216    3.6192   10.7434 H   0  0  0  0  0  0  0  0  0  0  0  0
   10.0942    7.0332   12.3216 C   0  0  0  0  0  0  0  0  0  0  0  0
   11.4108    7.2254   11.5733 C   0  0  0  0  0  0  0  0  0  0  0  0
   11.4149    8.4426   10.8302 O   0  0  0  0  0  0  0  0  0  0  0  0
   11.5175    5.9873   10.6879 C   0  0  0  0  0  0  0  0  0  0  0  0
   10.7669    4.9355   11.3357 O   0  0  0  0  0  0  0  0  0  0  0  0
    9.9524    5.5097   12.3753 C   0  0  0  0  0  0  0  0  0  0  0  0
   10.6719    8.4432   10.2065 H   0  0  0  0  0  0  0  0  0  0  0  0
   10.3384    4.9175   13.6416 N   0  0  0  0  0  0  0  0  0  0  0  0
   11.5319    4.3189   13.9586 C   0  0  0  0  0  0  0  0  0  0  0  0
   11.5417    3.8551   15.1858 N   0  0  0  0  0  0  0  0  0  0  0  0
   10.2900    4.1426   15.6872 C   0  0  0  0  0  0  0  0  0  0  0  0
    9.6740    3.8780   16.9224 C   0  0  0  0  0  0  0  0  0  0  0  0
   10.2918    3.1795   17.9451 N   0  0  0  0  0  0  0  0  0  0  0  0
    8.4118    4.3149   17.1209 N   0  0  0  0  0  0  0  0  0  0  0  0
    7.7970    4.9787   16.1123 C   0  0  0  0  0  0  0  0  0  0  0  0
    8.2796    5.2862   14.8929 N   0  0  0  0  0  0  0  0  0  0  0  0
    9.5355    4.8262   14.7496 C   0  0  0  0  0  0  0  0  0  0  0  0
   11.2117    2.8485   17.8296 H   0  0  0  0  0  0  0  0  0  0  0  0
    9.8113    3.0137   18.7882 H   0  0  0  0  0  0  0  0  0  0  0  0
    8.2318    6.7022   10.8608 C   0  0  0  0  0  0  0  0  0  0  0  0
    9.0530    7.6546   11.5356 O   0  0  0  0  0  0  0  0  0  0  0  0
   18.2891    4.1728    5.9597 C   0  0  0  0  0  0  0  0  0  0  0  0
   19.3286    4.8156    5.0229 C   0  0  0  0  0  0  0  0  0  0  0  0
   20.6707    5.1283    5.7019 C   0  0  0  0  0  0  0  0  0  0  0  0
   21.5592    3.8921    5.8565 C   0  0  0  0  0  0  0  0  0  0  0  0
   22.1605    3.5047    4.5875 N   0  0  0  0  0  0  0  0  0  0  0  0
   21.4253    3.2759    3.9187 H   0  0  0  0  0  0  0  0  0  0  0  0
   22.7573    2.6897    4.7288 H   0  0  0  0  0  0  0  0  0  0  0  0
 80 81  1  0
 61 81  1  0
 61 62  1  0
 62 63  1  0
 62 64  1  0
 64 57  1  0
 57 58  2  0
 57 59  1  0
 59 56  1  0
 56 55  1  0
 55 54  1  0
 54 53  1  0
 53 52  1  0
 52 48  1  0
 48 49  2  0
 48 50  1  0
 50 47  1  0
 47 82  1  0
 82 83  1  0
 83 84  1  0
 84 85  1  0
 85 86  1  0
 47  1  1  0
  1  2  2  0
  1  3  1  0
  3  5  1  0
  5  6  1  0
  6  7  1  0
  7  8  1  0
  8  9  1  0
  9 10  1  0
 10 11  2  0
 10 12  1  0
 12 14  1  0
 14 36  1  0
 36 37  1  0
 37 38  1  0
 38 39  1  0
 39 41  1  0
 41 42  2  0
 41 43  1  0
 14 15  1  0
 15 16  2  0
 15 17  1  0
 17 19  1  0
 19 25  1  0
 25 26  1  0
 26 27  1  0
 27 28  1  0
 28 30  1  0
 30 31  2  0
 30 32  1  0
 19 20  1  0
 20 21  1  0
 20 22  2  0
 64 65  1  0
 65 66  1  0
 66 68  1  0
 68 69  1  0
 69 70  2  0
 70 71  1  0
 71 72  2  0
 72 73  1  0
 72 74  1  0
 74 75  2  0
 75 76  1  0
 76 77  2  0
 66 61  1  0
 77 68  1  0
 77 71  1  0
 63 67  1  0
 59 60  1  0
 50 51  1  0
 86 87  1  0
 86 88  1  0
  3  4  1  0
 12 13  1  0
 39 40  1  0
 42 44  1  0
 43 45  1  0
 43 46  1  0
 17 18  1  0
 28 29  1  0
 31 33  1  0
 32 34  1  0
 32 35  1  0
 21 23  1  0
 21 24  1  0
 73 78  1  0
 73 79  1  0
M  END
> <minimizedAffinity>
-7.22737

> <CNNscore>
0.5520800948

> <CNNaffinity>
7.2627730370

> <CNN_VS>
4.0096325874

> <CNNaffinity_variance>
2.9338786602

$$$$



 88 90  0  0  0  0  0  0  0  0999 V2000
   19.5657    6.1561    5.1909 C   0  0  0  0  0  0  0  0  0  0  0  0
   18.5671    6.6770    4.7024 O   0  0  0  0  0  0  0  0  0  0  0  0
   20.8096    6.7592    5.1734 N   0  0  0  0  0  0  0  0  0  0  0  0
   21.5827    6.2457    5.5019 H   0  0  0  0  0  0  0  0  0  0  0  0
   21.0323    8.1049    4.6973 C   0  0  0  0  0  0  0  0  0  0  0  0
   20.9934    9.1339    5.8274 C   0  0  0  0  0  0  0  0  0  0  0  0
   21.4345   10.5581    5.4626 C   0  0  0  0  0  0  0  0  0  0  0  0
   21.2339   10.9837    4.0062 C   0  0  0  0  0  0  0  0  0  0  0  0
   19.8381   11.4969    3.6584 C   0  0  0  0  0  0  0  0  0  0  0  0
   19.8473   12.6431    2.6702 C   0  0  0  0  0  0  0  0  0  0  0  0
   20.3585   12.5918    1.5550 O   0  0  0  0  0  0  0  0  0  0  0  0
   19.1654   13.7585    3.1187 N   0  0  0  0  0  0  0  0  0  0  0  0
   18.5961   13.7037    3.9200 H   0  0  0  0  0  0  0  0  0  0  0  0
   19.2986   15.0340    2.3850 C   0  0  0  0  0  0  0  0  0  0  0  0
   17.9985   15.8777    2.4411 C   0  0  0  0  0  0  0  0  0  0  0  0
   17.5137   16.4037    1.4404 O   0  0  0  0  0  0  0  0  0  0  0  0
   17.5132   16.0826    3.7095 N   0  0  0  0  0  0  0  0  0  0  0  0
   18.0390   15.7544    4.4744 H   0  0  0  0  0  0  0  0  0  0  0  0
   16.2426   16.7708    3.9727 C   0  0  0  0  0  0  0  0  0  0  0  0
   15.0765   15.7516    4.0786 C   0  0  0  0  0  0  0  0  0  0  0  0
   15.4007   14.4207    4.0201 N   0  0  0  0  0  0  0  0  0  0  0  0
   13.9178   16.0780    4.3481 O   0  0  0  0  0  0  0  0  0  0  0  0
   16.3219   14.1474    3.8060 H   0  0  0  0  0  0  0  0  0  0  0  0
   14.7122   13.7383    4.1922 H   0  0  0  0  0  0  0  0  0  0  0  0
   16.3712   17.5500    5.2951 C   0  0  0  0  0  0  0  0  0  0  0  0
   17.8099   17.9433    5.6646 C   0  0  0  0  0  0  0  0  0  0  0  0
   18.4879   17.0638    6.7148 C   0  0  0  0  0  0  0  0  0  0  0  0
   18.9843   17.8182    7.8433 N   0  0  0  0  0  0  0  0  0  0  0  0
   19.9294   17.7063    8.0952 H   0  0  0  0  0  0  0  0  0  0  0  0
   18.2298   18.6665    8.5720 C   0  0  0  0  0  0  0  0  0  0  0  0
   17.2322   18.3126    9.2993 N   0  0  0  0  0  0  0  0  0  0  0  0
   18.6305   19.9468    8.4607 N   0  0  0  0  0  0  0  0  0  0  0  0
   16.9733   17.3642    9.3519 H   0  0  0  0  0  0  0  0  0  0  0  0
   19.4011   20.1737    7.8915 H   0  0  0  0  0  0  0  0  0  0  0  0
   18.1529   20.6563    8.9483 H   0  0  0  0  0  0  0  0  0  0  0  0
   20.4589   15.8402    2.9828 C   0  0  0  0  0  0  0  0  0  0  0  0
   21.1797   16.7810    2.0017 C   0  0  0  0  0  0  0  0  0  0  0  0
   20.9580   16.4738    0.5171 C   0  0  0  0  0  0  0  0  0  0  0  0
   20.1380   17.4829   -0.1228 N   0  0  0  0  0  0  0  0  0  0  0  0
   19.8250   18.2349    0.4303 H   0  0  0  0  0  0  0  0  0  0  0  0
   19.7720   17.4669   -1.4224 C   0  0  0  0  0  0  0  0  0  0  0  0
   18.8497   16.7622   -1.9696 N   0  0  0  0  0  0  0  0  0  0  0  0
   20.4788   18.3431   -2.1651 N   0  0  0  0  0  0  0  0  0  0  0  0
   18.3329   16.1222   -1.4287 H   0  0  0  0  0  0  0  0  0  0  0  0
   21.1868   18.8844   -1.7466 H   0  0  0  0  0  0  0  0  0  0  0  0
   20.2868   18.4415   -3.1256 H   0  0  0  0  0  0  0  0  0  0  0  0
   19.5836    4.7490    5.8498 C   0  0  0  0  0  0  0  0  0  0  0  0
   17.6233    3.5348    4.9410 C   0  0  0  0  0  0  0  0  0  0  0  0
   18.1644    3.3444    3.8539 O   0  0  0  0  0  0  0  0  0  0  0  0
   18.2059    4.2693    5.9422 N   0  0  0  0  0  0  0  0  0  0  0  0
   17.6802    4.4797    6.7476 H   0  0  0  0  0  0  0  0  0  0  0  0
   16.2255    3.0431    5.2390 C   0  0  0  0  0  0  0  0  0  0  0  0
   16.2016    1.5592    5.6030 C   0  0  0  0  0  0  0  0  0  0  0  0
   14.9685    1.1716    6.4221 C   0  0  0  0  0  0  0  0  0  0  0  0
   15.2527    0.9300    7.9090 C   0  0  0  0  0  0  0  0  0  0  0  0
   15.7610    2.1610    8.6572 C   0  0  0  0  0  0  0  0  0  0  0  0
   14.3544    3.5896   10.1529 C   0  0  0  0  0  0  0  0  0  0  0  0
   14.9222    3.2485   11.1873 O   0  0  0  0  0  0  0  0  0  0  0  0
   14.6909    3.0991    8.9057 N   0  0  0  0  0  0  0  0  0  0  0  0
   14.1654    3.4103    8.1336 H   0  0  0  0  0  0  0  0  0  0  0  0
   12.1369    6.2217   11.5215 C   0  0  0  0  0  0  0  0  0  0  0  0
   13.4702    5.8372   10.8852 C   0  0  0  0  0  0  0  0  0  0  0  0
   13.9697    6.8809   10.0514 O   0  0  0  0  0  0  0  0  0  0  0  0
   13.1573    4.5580   10.1145 C   0  0  0  0  0  0  0  0  0  0  0  0
   12.0334    3.9300   10.7716 O   0  0  0  0  0  0  0  0  0  0  0  0
   11.4346    4.8709   11.6827 C   0  0  0  0  0  0  0  0  0  0  0  0
   13.3170    7.0857    9.3637 H   0  0  0  0  0  0  0  0  0  0  0  0
   11.4998    4.3189   13.0222 N   0  0  0  0  0  0  0  0  0  0  0  0
   12.4373    3.4541   13.5284 C   0  0  0  0  0  0  0  0  0  0  0  0
   12.1837    3.1227   14.7722 N   0  0  0  0  0  0  0  0  0  0  0  0
   11.0147    3.7824   15.0871 C   0  0  0  0  0  0  0  0  0  0  0  0
   10.2186    3.8111   16.2448 C   0  0  0  0  0  0  0  0  0  0  0  0
   10.5019    3.0720   17.3802 N   0  0  0  0  0  0  0  0  0  0  0  0
    9.1141    4.5882   16.2496 N   0  0  0  0  0  0  0  0  0  0  0  0
    8.8224    5.2946   15.1308 C   0  0  0  0  0  0  0  0  0  0  0  0
    9.5015    5.3443   13.9686 N   0  0  0  0  0  0  0  0  0  0  0  0
   10.5875    4.5520   14.0190 C   0  0  0  0  0  0  0  0  0  0  0  0
   11.3001    2.4963   17.4063 H   0  0  0  0  0  0  0  0  0  0  0  0
    9.9053    3.1219   18.1617 H   0  0  0  0  0  0  0  0  0  0  0  0
   10.0862    6.7159   10.3981 C   0  0  0  0  0  0  0  0  0  0  0  0
   11.4486    7.0919   10.5959 O   0  0  0  0  0  0  0  0  0  0  0  0
   20.2724    4.7739    7.2232 C   0  0  0  0  0  0  0  0  0  0  0  0
   20.8161    3.4034    7.6674 C   0  0  0  0  0  0  0  0  0  0  0  0
   20.5268    3.0646    9.1377 C   0  0  0  0  0  0  0  0  0  0  0  0
   19.4117    2.0293    9.2993 C   0  0  0  0  0  0  0  0  0  0  0  0
   19.9027    0.8091    9.9253 N   0  0  0  0  0  0  0  0  0  0  0  0
   20.6277    0.3945    9.3397 H   0  0  0  0  0  0  0  0  0  0  0  0
   19.1330    0.1484   10.0324 H   0  0  0  0  0  0  0  0  0  0  0  0
 80 81  1  0
 61 81  1  0
 61 62  1  0
 62 63  1  0
 62 64  1  0
 64 57  1  0
 57 58  2  0
 57 59  1  0
 59 56  1  0
 56 55  1  0
 55 54  1  0
 54 53  1  0
 53 52  1  0
 52 48  1  0
 48 49  2  0
 48 50  1  0
 50 47  1  0
 47 82  1  0
 82 83  1  0
 83 84  1  0
 84 85  1  0
 85 86  1  0
 47  1  1  0
  1  2  2  0
  1  3  1  0
  3  5  1  0
  5  6  1  0
  6  7  1  0
  7  8  1  0
  8  9  1  0
  9 10  1  0
 10 11  2  0
 10 12  1  0
 12 14  1  0
 14 36  1  0
 36 37  1  0
 37 38  1  0
 38 39  1  0
 39 41  1  0
 41 42  2  0
 41 43  1  0
 14 15  1  0
 15 16  2  0
 15 17  1  0
 17 19  1  0
 19 25  1  0
 25 26  1  0
 26 27  1  0
 27 28  1  0
 28 30  1  0
 30 31  2  0
 30 32  1  0
 19 20  1  0
 20 21  1  0
 20 22  2  0
 64 65  1  0
 65 66  1  0
 66 68  1  0
 68 69  1  0
 69 70  2  0
 70 71  1  0
 71 72  2  0
 72 73  1  0
 72 74  1  0
 74 75  2  0
 75 76  1  0
 76 77  2  0
 66 61  1  0
 77 68  1  0
 77 71  1  0
 63 67  1  0
 59 60  1  0
 50 51  1  0
 86 87  1  0
 86 88  1  0
  3  4  1  0
 12 13  1  0
 39 40  1  0
 42 44  1  0
 43 45  1  0
 43 46  1  0
 17 18  1  0
 28 29  1  0
 31 33  1  0
 32 34  1  0
 32 35  1  0
 21 23  1  0
 21 24  1  0
 73 78  1  0
 73 79  1  0
M  END
> <minimizedAffinity>
-6.67403

> <CNNscore>
0.5451377630

> <CNNaffinity>
7.3491492271

> <CNN_VS>
4.0062985420

> <CNNaffinity_variance>
1.6191462278

$$$$



 88 90  0  0  0  0  0  0  0  0999 V2000
   16.9763    4.1667    7.0106 C   0  0  0  0  0  0  0  0  0  0  0  0
   15.8097    4.4885    6.8039 O   0  0  0  0  0  0  0  0  0  0  0  0
   18.0342    5.0423    6.8513 N   0  0  0  0  0  0  0  0  0  0  0  0
   18.9493    4.6920    6.9464 H   0  0  0  0  0  0  0  0  0  0  0  0
   17.8646    6.4455    6.5524 C   0  0  0  0  0  0  0  0  0  0  0  0
   19.0222    7.2947    7.0782 C   0  0  0  0  0  0  0  0  0  0  0  0
   20.1119    7.6593    6.0605 C   0  0  0  0  0  0  0  0  0  0  0  0
   20.3855    9.1514    5.8573 C   0  0  0  0  0  0  0  0  0  0  0  0
   19.9767    9.7146    4.4977 C   0  0  0  0  0  0  0  0  0  0  0  0
   20.0432   11.2249    4.4274 C   0  0  0  0  0  0  0  0  0  0  0  0
   20.7086   11.9248    5.1856 O   0  0  0  0  0  0  0  0  0  0  0  0
   19.3194   11.7568    3.3768 N   0  0  0  0  0  0  0  0  0  0  0  0
   18.9667   11.1699    2.6694 H   0  0  0  0  0  0  0  0  0  0  0  0
   19.0799   13.2138    3.3249 C   0  0  0  0  0  0  0  0  0  0  0  0
   19.5720   13.8387    1.9935 C   0  0  0  0  0  0  0  0  0  0  0  0
   18.9148   13.7743    0.9558 O   0  0  0  0  0  0  0  0  0  0  0  0
   20.8433   14.3555    2.0488 N   0  0  0  0  0  0  0  0  0  0  0  0
   21.3649   14.2373    2.8754 H   0  0  0  0  0  0  0  0  0  0  0  0
   21.4573   15.0771    0.9265 C   0  0  0  0  0  0  0  0  0  0  0  0
   21.6869   16.5686    1.2911 C   0  0  0  0  0  0  0  0  0  0  0  0
   21.1075   17.0273    2.4460 N   0  0  0  0  0  0  0  0  0  0  0  0
   22.4650   17.3013    0.6752 O   0  0  0  0  0  0  0  0  0  0  0  0
   20.4849   16.4520    2.9465 H   0  0  0  0  0  0  0  0  0  0  0  0
   21.3142   17.9320    2.7747 H   0  0  0  0  0  0  0  0  0  0  0  0
   22.8061   14.4116    0.5941 C   0  0  0  0  0  0  0  0  0  0  0  0
   22.8355   12.8906    0.8104 C   0  0  0  0  0  0  0  0  0  0  0  0
   23.9183   12.3775    1.7593 C   0  0  0  0  0  0  0  0  0  0  0  0
   23.5106   11.2007    2.4926 N   0  0  0  0  0  0  0  0  0  0  0  0
   22.6874   11.2523    3.0301 H   0  0  0  0  0  0  0  0  0  0  0  0
   24.1907   10.0356    2.4845 C   0  0  0  0  0  0  0  0  0  0  0  0
   25.1783    9.7635    3.2590 N   0  0  0  0  0  0  0  0  0  0  0  0
   23.7259    9.1676    1.5665 N   0  0  0  0  0  0  0  0  0  0  0  0
   25.4859   10.4284    3.9167 H   0  0  0  0  0  0  0  0  0  0  0  0
   22.9658    9.4178    0.9930 H   0  0  0  0  0  0  0  0  0  0  0  0
   24.1461    8.2827    1.4686 H   0  0  0  0  0  0  0  0  0  0  0  0
   17.5792   13.4837    3.4939 C   0  0  0  0  0  0  0  0  0  0  0  0
   17.1739   14.1288    4.8307 C   0  0  0  0  0  0  0  0  0  0  0  0
   18.1638   15.1566    5.3885 C   0  0  0  0  0  0  0  0  0  0  0  0
   17.4996   16.3844    5.7781 N   0  0  0  0  0  0  0  0  0  0  0  0
   17.2433   16.4847    6.7234 H   0  0  0  0  0  0  0  0  0  0  0  0
   17.2067   17.4008    4.9389 C   0  0  0  0  0  0  0  0  0  0  0  0
   16.0693   17.6850    4.4170 N   0  0  0  0  0  0  0  0  0  0  0  0
   18.2748   18.1864    4.6924 N   0  0  0  0  0  0  0  0  0  0  0  0
   15.2887   17.1124    4.5960 H   0  0  0  0  0  0  0  0  0  0  0  0
   19.1480   17.9696    5.0921 H   0  0  0  0  0  0  0  0  0  0  0  0
   18.1814   18.9767    4.1128 H   0  0  0  0  0  0  0  0  0  0  0  0
   17.4278    2.7410    7.4323 C   0  0  0  0  0  0  0  0  0  0  0  0
   15.5505    1.1527    7.1217 C   0  0  0  0  0  0  0  0  0  0  0  0
   15.7681    1.0311    5.9181 O   0  0  0  0  0  0  0  0  0  0  0  0
   16.2564    2.0156    7.9208 N   0  0  0  0  0  0  0  0  0  0  0  0
   15.9654    2.1505    8.8515 H   0  0  0  0  0  0  0  0  0  0  0  0
   14.4241    0.4186    7.8119 C   0  0  0  0  0  0  0  0  0  0  0  0
   13.1074    1.1915    7.7478 C   0  0  0  0  0  0  0  0  0  0  0  0
   13.1446    2.4904    8.5561 C   0  0  0  0  0  0  0  0  0  0  0  0
   12.0036    3.4625    8.2355 C   0  0  0  0  0  0  0  0  0  0  0  0
   12.2156    4.8762    8.7743 C   0  0  0  0  0  0  0  0  0  0  0  0
   10.7029    6.6562    9.6687 C   0  0  0  0  0  0  0  0  0  0  0  0
   11.3558    7.5891    9.2083 O   0  0  0  0  0  0  0  0  0  0  0  0
   11.0615    5.3307    9.5149 N   0  0  0  0  0  0  0  0  0  0  0  0
   10.4914    4.6493    9.9390 H   0  0  0  0  0  0  0  0  0  0  0  0
    8.8559    7.5073   12.7642 C   0  0  0  0  0  0  0  0  0  0  0  0
    9.6230    7.9749   11.5300 C   0  0  0  0  0  0  0  0  0  0  0  0
    9.1302    9.2254   11.0531 O   0  0  0  0  0  0  0  0  0  0  0  0
    9.4372    6.8403   10.5268 C   0  0  0  0  0  0  0  0  0  0  0  0
    9.2151    5.6319   11.2881 O   0  0  0  0  0  0  0  0  0  0  0  0
    8.9352    5.9821   12.6567 C   0  0  0  0  0  0  0  0  0  0  0  0
    8.1853    9.1441   10.8493 H   0  0  0  0  0  0  0  0  0  0  0  0
    9.9448    5.3747   13.5023 N   0  0  0  0  0  0  0  0  0  0  0  0
   11.2595    5.1290   13.1949 C   0  0  0  0  0  0  0  0  0  0  0  0
   11.8940    4.5342   14.1771 N   0  0  0  0  0  0  0  0  0  0  0  0
   10.9461    4.3621   15.1634 C   0  0  0  0  0  0  0  0  0  0  0  0
   10.9909    3.7653   16.4349 C   0  0  0  0  0  0  0  0  0  0  0  0
   12.1236    3.1593   16.9501 N   0  0  0  0  0  0  0  0  0  0  0  0
    9.8715    3.7704   17.1902 N   0  0  0  0  0  0  0  0  0  0  0  0
    8.7551    4.3427   16.6782 C   0  0  0  0  0  0  0  0  0  0  0  0
    8.5906    4.9376   15.4810 N   0  0  0  0  0  0  0  0  0  0  0  0
    9.7331    4.9016   14.7718 C   0  0  0  0  0  0  0  0  0  0  0  0
   12.9546    3.1398   16.4226 H   0  0  0  0  0  0  0  0  0  0  0  0
   12.0982    2.7477   17.8441 H   0  0  0  0  0  0  0  0  0  0  0  0
    6.5305    7.0259   13.0340 C   0  0  0  0  0  0  0  0  0  0  0  0
    7.5015    7.9967   12.6453 O   0  0  0  0  0  0  0  0  0  0  0  0
   18.5487    2.7877    8.4824 C   0  0  0  0  0  0  0  0  0  0  0  0
   18.7044    1.4794    9.2795 C   0  0  0  0  0  0  0  0  0  0  0  0
   20.0439    1.3573   10.0218 C   0  0  0  0  0  0  0  0  0  0  0  0
   20.9390    0.2547    9.4521 C   0  0  0  0  0  0  0  0  0  0  0  0
   21.6264   -0.4745   10.5094 N   0  0  0  0  0  0  0  0  0  0  0  0
   22.2212    0.1671   11.0336 H   0  0  0  0  0  0  0  0  0  0  0  0
   22.2002   -1.2103   10.0973 H   0  0  0  0  0  0  0  0  0  0  0  0
 80 81  1  0
 61 81  1  0
 61 62  1  0
 62 63  1  0
 62 64  1  0
 64 57  1  0
 57 58  2  0
 57 59  1  0
 59 56  1  0
 56 55  1  0
 55 54  1  0
 54 53  1  0
 53 52  1  0
 52 48  1  0
 48 49  2  0
 48 50  1  0
 50 47  1  0
 47 82  1  0
 82 83  1  0
 83 84  1  0
 84 85  1  0
 85 86  1  0
 47  1  1  0
  1  2  2  0
  1  3  1  0
  3  5  1  0
  5  6  1  0
  6  7  1  0
  7  8  1  0
  8  9  1  0
  9 10  1  0
 10 11  2  0
 10 12  1  0
 12 14  1  0
 14 36  1  0
 36 37  1  0
 37 38  1  0
 38 39  1  0
 39 41  1  0
 41 42  2  0
 41 43  1  0
 14 15  1  0
 15 16  2  0
 15 17  1  0
 17 19  1  0
 19 25  1  0
 25 26  1  0
 26 27  1  0
 27 28  1  0
 28 30  1  0
 30 31  2  0
 30 32  1  0
 19 20  1  0
 20 21  1  0
 20 22  2  0
 64 65  1  0
 65 66  1  0
 66 68  1  0
 68 69  1  0
 69 70  2  0
 70 71  1  0
 71 72  2  0
 72 73  1  0
 72 74  1  0
 74 75  2  0
 75 76  1  0
 76 77  2  0
 66 61  1  0
 77 68  1  0
 77 71  1  0
 63 67  1  0
 59 60  1  0
 50 51  1  0
 86 87  1  0
 86 88  1  0
  3  4  1  0
 12 13  1  0
 39 40  1  0
 42 44  1  0
 43 45  1  0
 43 46  1  0
 17 18  1  0
 28 29  1  0
 31 33  1  0
 32 34  1  0
 32 35  1  0
 21 23  1  0
 21 24  1  0
 73 78  1  0
 73 79  1  0
M  END
> <minimizedAffinity>
-6.74452

> <CNNscore>
0.4677701592

> <CNNaffinity>
7.8666000366

> <CNN_VS>
3.6797606945

> <CNNaffinity_variance>
0.9402430058

$$$$



 88 90  0  0  0  0  0  0  0  0999 V2000
   18.4028    5.7477    7.3209 C   0  0  0  0  0  0  0  0  0  0  0  0
   17.3088    6.1921    7.6568 O   0  0  0  0  0  0  0  0  0  0  0  0
   19.5481    6.5214    7.2900 N   0  0  0  0  0  0  0  0  0  0  0  0
   20.3711    6.1237    6.9243 H   0  0  0  0  0  0  0  0  0  0  0  0
   19.5982    7.8840    7.7673 C   0  0  0  0  0  0  0  0  0  0  0  0
   20.6803    8.7051    7.0655 C   0  0  0  0  0  0  0  0  0  0  0  0
   20.4794    8.9477    5.5633 C   0  0  0  0  0  0  0  0  0  0  0  0
   20.1050   10.3715    5.1450 C   0  0  0  0  0  0  0  0  0  0  0  0
   18.6130   10.6239    4.9374 C   0  0  0  0  0  0  0  0  0  0  0  0
   18.3001   11.3583    3.6516 C   0  0  0  0  0  0  0  0  0  0  0  0
   17.7469   10.8496    2.6807 O   0  0  0  0  0  0  0  0  0  0  0  0
   18.6467   12.6958    3.6865 N   0  0  0  0  0  0  0  0  0  0  0  0
   18.8965   13.1221    4.5380 H   0  0  0  0  0  0  0  0  0  0  0  0
   18.6392   13.4801    2.4343 C   0  0  0  0  0  0  0  0  0  0  0  0
   17.6508   14.6735    2.4996 C   0  0  0  0  0  0  0  0  0  0  0  0
   17.5083   15.4597    1.5644 O   0  0  0  0  0  0  0  0  0  0  0  0
   17.0490   14.8414    3.7227 N   0  0  0  0  0  0  0  0  0  0  0  0
   17.3258   14.2609    4.4682 H   0  0  0  0  0  0  0  0  0  0  0  0
   16.0098   15.8506    3.9653 C   0  0  0  0  0  0  0  0  0  0  0  0
   14.7661   15.2091    4.6374 C   0  0  0  0  0  0  0  0  0  0  0  0
   14.9896   14.1794    5.5147 N   0  0  0  0  0  0  0  0  0  0  0  0
   13.6268   15.6687    4.5256 O   0  0  0  0  0  0  0  0  0  0  0  0
   15.8944   13.8040    5.6129 H   0  0  0  0  0  0  0  0  0  0  0  0
   14.2452   13.8154    6.0464 H   0  0  0  0  0  0  0  0  0  0  0  0
   16.5902   16.9418    4.8844 C   0  0  0  0  0  0  0  0  0  0  0  0
   17.8304   16.5088    5.6816 C   0  0  0  0  0  0  0  0  0  0  0  0
   18.6797   17.6437    6.2532 C   0  0  0  0  0  0  0  0  0  0  0  0
   18.7069   17.6517    7.6983 N   0  0  0  0  0  0  0  0  0  0  0  0
   19.0517   16.8530    8.1591 H   0  0  0  0  0  0  0  0  0  0  0  0
   18.2879   18.6883    8.4532 C   0  0  0  0  0  0  0  0  0  0  0  0
   18.7875   19.8705    8.4085 N   0  0  0  0  0  0  0  0  0  0  0  0
   17.2753   18.3574    9.2763 N   0  0  0  0  0  0  0  0  0  0  0  0
   19.5281   20.0690    7.7910 H   0  0  0  0  0  0  0  0  0  0  0  0
   16.9226   17.4382    9.2779 H   0  0  0  0  0  0  0  0  0  0  0  0
   16.8875   19.0345    9.8765 H   0  0  0  0  0  0  0  0  0  0  0  0
   20.0552   14.0019    2.1584 C   0  0  0  0  0  0  0  0  0  0  0  0
   20.5583   15.0832    3.1306 C   0  0  0  0  0  0  0  0  0  0  0  0
   20.9673   16.4090    2.4808 C   0  0  0  0  0  0  0  0  0  0  0  0
   19.9186   17.4038    2.5856 N   0  0  0  0  0  0  0  0  0  0  0  0
   19.4293   17.4632    3.4378 H   0  0  0  0  0  0  0  0  0  0  0  0
   19.5638   18.2550    1.5994 C   0  0  0  0  0  0  0  0  0  0  0  0
   18.5275   18.1944    0.8451 N   0  0  0  0  0  0  0  0  0  0  0  0
   20.4286   19.2821    1.4727 N   0  0  0  0  0  0  0  0  0  0  0  0
   17.8953   17.4452    0.9365 H   0  0  0  0  0  0  0  0  0  0  0  0
   21.2242   19.3299    2.0507 H   0  0  0  0  0  0  0  0  0  0  0  0
   20.2644   19.9841    0.8022 H   0  0  0  0  0  0  0  0  0  0  0  0
   18.6451    4.2872    6.8490 C   0  0  0  0  0  0  0  0  0  0  0  0
   16.9987    2.4815    7.2639 C   0  0  0  0  0  0  0  0  0  0  0  0
   16.6429    2.4478    6.0879 O   0  0  0  0  0  0  0  0  0  0  0  0
   17.9094    3.3906    7.7388 N   0  0  0  0  0  0  0  0  0  0  0  0
   18.0726    3.4408    8.7084 H   0  0  0  0  0  0  0  0  0  0  0  0
   16.3971    1.5725    8.3109 C   0  0  0  0  0  0  0  0  0  0  0  0
   14.9491    1.9409    8.6312 C   0  0  0  0  0  0  0  0  0  0  0  0
   14.8400    3.0796    9.6477 C   0  0  0  0  0  0  0  0  0  0  0  0
   13.4322    3.6717    9.7789 C   0  0  0  0  0  0  0  0  0  0  0  0
   13.1986    4.4505   11.0721 C   0  0  0  0  0  0  0  0  0  0  0  0
   11.5551    6.2840   11.5126 C   0  0  0  0  0  0  0  0  0  0  0  0
   12.3988    7.0912   11.8937 O   0  0  0  0  0  0  0  0  0  0  0  0
   11.8615    4.9955   11.1185 N   0  0  0  0  0  0  0  0  0  0  0  0
   11.1176    4.4087   10.8509 H   0  0  0  0  0  0  0  0  0  0  0  0
    8.3427    7.4396   12.9491 C   0  0  0  0  0  0  0  0  0  0  0  0
    9.7075    7.7818   12.3570 C   0  0  0  0  0  0  0  0  0  0  0  0
    9.6667    9.0064   11.6272 O   0  0  0  0  0  0  0  0  0  0  0  0
   10.0435    6.5781   11.4815 C   0  0  0  0  0  0  0  0  0  0  0  0
    9.3401    5.4420   12.0327 O   0  0  0  0  0  0  0  0  0  0  0  0
    8.3576    5.9089   12.9764 C   0  0  0  0  0  0  0  0  0  0  0  0
    9.0028    8.9411   10.9230 H   0  0  0  0  0  0  0  0  0  0  0  0
    8.6588    5.3368   14.2746 N   0  0  0  0  0  0  0  0  0  0  0  0
    8.0571    5.6182   15.4754 C   0  0  0  0  0  0  0  0  0  0  0  0
    8.5938    4.9469   16.4666 N   0  0  0  0  0  0  0  0  0  0  0  0
    9.6077    4.2100   15.8923 C   0  0  0  0  0  0  0  0  0  0  0  0
   10.5620    3.3255   16.4234 C   0  0  0  0  0  0  0  0  0  0  0  0
   10.6642    3.0396   17.7738 N   0  0  0  0  0  0  0  0  0  0  0  0
   11.4325    2.7319   15.5788 N   0  0  0  0  0  0  0  0  0  0  0  0
   11.3490    3.0283   14.2593 C   0  0  0  0  0  0  0  0  0  0  0  0
   10.4871    3.8561   13.6379 N   0  0  0  0  0  0  0  0  0  0  0  0
    9.6474    4.4200   14.5248 C   0  0  0  0  0  0  0  0  0  0  0  0
   10.0434    3.4573   18.4137 H   0  0  0  0  0  0  0  0  0  0  0  0
   11.3576    2.4187   18.0944 H   0  0  0  0  0  0  0  0  0  0  0  0
    7.1568    9.3722   12.1938 C   0  0  0  0  0  0  0  0  0  0  0  0
    7.3369    7.9635   12.0537 O   0  0  0  0  0  0  0  0  0  0  0  0
   20.1426    3.9454    6.8056 C   0  0  0  0  0  0  0  0  0  0  0  0
   20.7901    4.1766    5.4277 C   0  0  0  0  0  0  0  0  0  0  0  0
   22.2640    3.7501    5.3520 C   0  0  0  0  0  0  0  0  0  0  0  0
   22.9301    4.1505    4.0339 C   0  0  0  0  0  0  0  0  0  0  0  0
   24.3821    4.0776    4.1258 N   0  0  0  0  0  0  0  0  0  0  0  0
   24.7099    4.7209    4.8463 H   0  0  0  0  0  0  0  0  0  0  0  0
   24.7930    4.3345    3.2282 H   0  0  0  0  0  0  0  0  0  0  0  0
 80 81  1  0
 61 81  1  0
 61 62  1  0
 62 63  1  0
 62 64  1  0
 64 57  1  0
 57 58  2  0
 57 59  1  0
 59 56  1  0
 56 55  1  0
 55 54  1  0
 54 53  1  0
 53 52  1  0
 52 48  1  0
 48 49  2  0
 48 50  1  0
 50 47  1  0
 47 82  1  0
 82 83  1  0
 83 84  1  0
 84 85  1  0
 85 86  1  0
 47  1  1  0
  1  2  2  0
  1  3  1  0
  3  5  1  0
  5  6  1  0
  6  7  1  0
  7  8  1  0
  8  9  1  0
  9 10  1  0
 10 11  2  0
 10 12  1  0
 12 14  1  0
 14 36  1  0
 36 37  1  0
 37 38  1  0
 38 39  1  0
 39 41  1  0
 41 42  2  0
 41 43  1  0
 14 15  1  0
 15 16  2  0
 15 17  1  0
 17 19  1  0
 19 25  1  0
 25 26  1  0
 26 27  1  0
 27 28  1  0
 28 30  1  0
 30 31  2  0
 30 32  1  0
 19 20  1  0
 20 21  1  0
 20 22  2  0
 64 65  1  0
 65 66  1  0
 66 68  1  0
 68 69  1  0
 69 70  2  0
 70 71  1  0
 71 72  2  0
 72 73  1  0
 72 74  1  0
 74 75  2  0
 75 76  1  0
 76 77  2  0
 66 61  1  0
 77 68  1  0
 77 71  1  0
 63 67  1  0
 59 60  1  0
 50 51  1  0
 86 87  1  0
 86 88  1  0
  3  4  1  0
 12 13  1  0
 39 40  1  0
 42 44  1  0
 43 45  1  0
 43 46  1  0
 17 18  1  0
 28 29  1  0
 31 33  1  0
 32 34  1  0
 32 35  1  0
 21 23  1  0
 21 24  1  0
 73 78  1  0
 73 79  1  0
M  END
> <minimizedAffinity>
-6.77374

> <CNNscore>
0.3066999316

> <CNNaffinity>
7.3070907593

> <CNN_VS>
2.2410843372

> <CNNaffinity_variance>
2.4553833008

$$$$



 88 90  0  0  0  0  0  0  0  0999 V2000
   17.2931    5.2985    6.9977 C   0  0  0  0  0  0  0  0  0  0  0  0
   16.2238    5.2366    7.5976 O   0  0  0  0  0  0  0  0  0  0  0  0
   17.9492    6.4915    6.7576 N   0  0  0  0  0  0  0  0  0  0  0  0
   18.7552    6.4762    6.1925 H   0  0  0  0  0  0  0  0  0  0  0  0
   17.5117    7.7595    7.2942 C   0  0  0  0  0  0  0  0  0  0  0  0
   16.9609    8.6884    6.2119 C   0  0  0  0  0  0  0  0  0  0  0  0
   17.9675    9.1754    5.1604 C   0  0  0  0  0  0  0  0  0  0  0  0
   17.5343   10.3637    4.2985 C   0  0  0  0  0  0  0  0  0  0  0  0
   17.0583   11.5941    5.0681 C   0  0  0  0  0  0  0  0  0  0  0  0
   18.0548   12.7331    5.0574 C   0  0  0  0  0  0  0  0  0  0  0  0
   18.9758   12.8549    5.8602 O   0  0  0  0  0  0  0  0  0  0  0  0
   17.8693   13.6134    4.0081 N   0  0  0  0  0  0  0  0  0  0  0  0
   17.2605   13.3840    3.2692 H   0  0  0  0  0  0  0  0  0  0  0  0
   18.5928   14.9016    4.0052 C   0  0  0  0  0  0  0  0  0  0  0  0
   18.8429   15.4269    2.5676 C   0  0  0  0  0  0  0  0  0  0  0  0
   18.0793   15.1783    1.6359 O   0  0  0  0  0  0  0  0  0  0  0  0
   20.0394   16.0817    2.4063 N   0  0  0  0  0  0  0  0  0  0  0  0
   20.6664   16.1119    3.1647 H   0  0  0  0  0  0  0  0  0  0  0  0
   20.4228   16.7386    1.1498 C   0  0  0  0  0  0  0  0  0  0  0  0
   21.3296   17.9680    1.4261 C   0  0  0  0  0  0  0  0  0  0  0  0
   20.8191   19.2037    1.1224 N   0  0  0  0  0  0  0  0  0  0  0  0
   22.4062   17.8912    2.0234 O   0  0  0  0  0  0  0  0  0  0  0  0
   19.9608   19.2781    0.6460 H   0  0  0  0  0  0  0  0  0  0  0  0
   21.3109   20.0165    1.3806 H   0  0  0  0  0  0  0  0  0  0  0  0
   21.1808   15.7218    0.2757 C   0  0  0  0  0  0  0  0  0  0  0  0
   20.6818   15.6329   -1.1749 C   0  0  0  0  0  0  0  0  0  0  0  0
   19.6190   16.6565   -1.5735 C   0  0  0  0  0  0  0  0  0  0  0  0
   20.1854   17.9065   -2.0269 N   0  0  0  0  0  0  0  0  0  0  0  0
   20.0931   18.6948   -1.4444 H   0  0  0  0  0  0  0  0  0  0  0  0
   20.8332   18.0575   -3.2006 C   0  0  0  0  0  0  0  0  0  0  0  0
   21.2510   17.0880   -3.9318 N   0  0  0  0  0  0  0  0  0  0  0  0
   21.0044   19.3493   -3.5385 N   0  0  0  0  0  0  0  0  0  0  0  0
   21.1042   16.1573   -3.6462 H   0  0  0  0  0  0  0  0  0  0  0  0
   20.6678   20.0614   -2.9478 H   0  0  0  0  0  0  0  0  0  0  0  0
   21.4662   19.5820   -4.3762 H   0  0  0  0  0  0  0  0  0  0  0  0
   17.7815   15.9366    4.7952 C   0  0  0  0  0  0  0  0  0  0  0  0
   18.6045   17.0700    5.4320 C   0  0  0  0  0  0  0  0  0  0  0  0
   17.7891   18.1357    6.1713 C   0  0  0  0  0  0  0  0  0  0  0  0
   17.4395   17.7095    7.5116 N   0  0  0  0  0  0  0  0  0  0  0  0
   17.1241   16.7842    7.6286 H   0  0  0  0  0  0  0  0  0  0  0  0
   17.5147   18.4891    8.6115 C   0  0  0  0  0  0  0  0  0  0  0  0
   16.8246   18.3948    9.6892 N   0  0  0  0  0  0  0  0  0  0  0  0
   18.4714   19.4338    8.5060 N   0  0  0  0  0  0  0  0  0  0  0  0
   16.1259   17.7056    9.7676 H   0  0  0  0  0  0  0  0  0  0  0  0
   19.0016   19.5073    7.6797 H   0  0  0  0  0  0  0  0  0  0  0  0
   18.6396   20.0499    9.2552 H   0  0  0  0  0  0  0  0  0  0  0  0
   18.0290    4.0700    6.3946 C   0  0  0  0  0  0  0  0  0  0  0  0
   16.6513    2.2340    5.4598 C   0  0  0  0  0  0  0  0  0  0  0  0
   16.7694    2.6455    4.3077 O   0  0  0  0  0  0  0  0  0  0  0  0
   17.1649    2.9004    6.5431 N   0  0  0  0  0  0  0  0  0  0  0  0
   16.9450    2.5813    7.4481 H   0  0  0  0  0  0  0  0  0  0  0  0
   15.8532    0.9941    5.7915 C   0  0  0  0  0  0  0  0  0  0  0  0
   15.6696    0.8122    7.2976 C   0  0  0  0  0  0  0  0  0  0  0  0
   14.2056    0.9144    7.7310 C   0  0  0  0  0  0  0  0  0  0  0  0
   13.8673    2.1942    8.5040 C   0  0  0  0  0  0  0  0  0  0  0  0
   13.5488    3.3960    7.6165 C   0  0  0  0  0  0  0  0  0  0  0  0
   11.5027    4.7382    8.1349 C   0  0  0  0  0  0  0  0  0  0  0  0
   10.8102    4.2121    7.2675 O   0  0  0  0  0  0  0  0  0  0  0  0
   12.8275    4.4099    8.3504 N   0  0  0  0  0  0  0  0  0  0  0  0
   13.3132    4.9005    9.0523 H   0  0  0  0  0  0  0  0  0  0  0  0
   11.7073    7.0064   11.0558 C   0  0  0  0  0  0  0  0  0  0  0  0
   12.1842    6.6349    9.6541 C   0  0  0  0  0  0  0  0  0  0  0  0
   12.5394    7.7926    8.9007 O   0  0  0  0  0  0  0  0  0  0  0  0
   11.0078    5.8715    9.0529 C   0  0  0  0  0  0  0  0  0  0  0  0
   10.2731    5.2882   10.1526 O   0  0  0  0  0  0  0  0  0  0  0  0
   10.7145    5.8883   11.3850 C   0  0  0  0  0  0  0  0  0  0  0  0
   11.7773    8.3903    8.8478 H   0  0  0  0  0  0  0  0  0  0  0  0
   11.2500    4.8451   12.2383 N   0  0  0  0  0  0  0  0  0  0  0  0
   10.6051    4.1711   13.2448 C   0  0  0  0  0  0  0  0  0  0  0  0
   11.3910    3.3090   13.8452 N   0  0  0  0  0  0  0  0  0  0  0  0
   12.6120    3.4411   13.2186 C   0  0  0  0  0  0  0  0  0  0  0  0
   13.8590    2.8255   13.4214 C   0  0  0  0  0  0  0  0  0  0  0  0
   14.0940    1.8961   14.4197 N   0  0  0  0  0  0  0  0  0  0  0  0
   14.8852    3.1639   12.6114 N   0  0  0  0  0  0  0  0  0  0  0  0
   14.6631    4.0907   11.6483 C   0  0  0  0  0  0  0  0  0  0  0  0
   13.5223    4.7472   11.3623 N   0  0  0  0  0  0  0  0  0  0  0  0
   12.5373    4.3741   12.1990 C   0  0  0  0  0  0  0  0  0  0  0  0
   13.3652    1.6297   15.0257 H   0  0  0  0  0  0  0  0  0  0  0  0
   14.9899    1.5015   14.5239 H   0  0  0  0  0  0  0  0  0  0  0  0
   10.3426    8.6342   12.1510 C   0  0  0  0  0  0  0  0  0  0  0  0
   11.0691    8.2999   10.9690 O   0  0  0  0  0  0  0  0  0  0  0  0
   19.4017    3.8522    7.0502 C   0  0  0  0  0  0  0  0  0  0  0  0
   20.5545    4.5710    6.3252 C   0  0  0  0  0  0  0  0  0  0  0  0
   20.3963    4.6198    4.7979 C   0  0  0  0  0  0  0  0  0  0  0  0
   21.6735    4.2190    4.0565 C   0  0  0  0  0  0  0  0  0  0  0  0
   22.7238    3.8158    4.9819 N   0  0  0  0  0  0  0  0  0  0  0  0
   22.9544    4.5970    5.5958 H   0  0  0  0  0  0  0  0  0  0  0  0
   23.5531    3.5404    4.4558 H   0  0  0  0  0  0  0  0  0  0  0  0
 80 81  1  0
 61 81  1  0
 61 62  1  0
 62 63  1  0
 62 64  1  0
 64 57  1  0
 57 58  2  0
 57 59  1  0
 59 56  1  0
 56 55  1  0
 55 54  1  0
 54 53  1  0
 53 52  1  0
 52 48  1  0
 48 49  2  0
 48 50  1  0
 50 47  1  0
 47 82  1  0
 82 83  1  0
 83 84  1  0
 84 85  1  0
 85 86  1  0
 47  1  1  0
  1  2  2  0
  1  3  1  0
  3  5  1  0
  5  6  1  0
  6  7  1  0
  7  8  1  0
  8  9  1  0
  9 10  1  0
 10 11  2  0
 10 12  1  0
 12 14  1  0
 14 36  1  0
 36 37  1  0
 37 38  1  0
 38 39  1  0
 39 41  1  0
 41 42  2  0
 41 43  1  0
 14 15  1  0
 15 16  2  0
 15 17  1  0
 17 19  1  0
 19 25  1  0
 25 26  1  0
 26 27  1  0
 27 28  1  0
 28 30  1  0
 30 31  2  0
 30 32  1  0
 19 20  1  0
 20 21  1  0
 20 22  2  0
 64 65  1  0
 65 66  1  0
 66 68  1  0
 68 69  1  0
 69 70  2  0
 70 71  1  0
 71 72  2  0
 72 73  1  0
 72 74  1  0
 74 75  2  0
 75 76  1  0
 76 77  2  0
 66 61  1  0
 77 68  1  0
 77 71  1  0
 63 67  1  0
 59 60  1  0
 50 51  1  0
 86 87  1  0
 86 88  1  0
  3  4  1  0
 12 13  1  0
 39 40  1  0
 42 44  1  0
 43 45  1  0
 43 46  1  0
 17 18  1  0
 28 29  1  0
 31 33  1  0
 32 34  1  0
 32 35  1  0
 21 23  1  0
 21 24  1  0
 73 78  1  0
 73 79  1  0
M  END
> <minimizedAffinity>
-7.04764

> <CNNscore>
0.2777882516

> <CNNaffinity>
6.6902060509

> <CNN_VS>
1.8584606647

> <CNNaffinity_variance>
3.0651683807

$$$$



 88 90  0  0  0  0  0  0  0  0999 V2000
   16.4302    4.2310    4.4322 C   0  0  0  0  0  0  0  0  0  0  0  0
   16.4536    4.2181    3.2048 O   0  0  0  0  0  0  0  0  0  0  0  0
   15.6774    5.1359    5.1574 N   0  0  0  0  0  0  0  0  0  0  0  0
   15.7766    5.1475    6.1368 H   0  0  0  0  0  0  0  0  0  0  0  0
   14.7527    6.0652    4.5505 C   0  0  0  0  0  0  0  0  0  0  0  0
   15.3547    7.4614    4.3903 C   0  0  0  0  0  0  0  0  0  0  0  0
   15.4968    8.2896    5.6747 C   0  0  0  0  0  0  0  0  0  0  0  0
   16.6626    9.2800    5.7238 C   0  0  0  0  0  0  0  0  0  0  0  0
   16.3226   10.7147    5.3251 C   0  0  0  0  0  0  0  0  0  0  0  0
   17.5411   11.5614    5.0276 C   0  0  0  0  0  0  0  0  0  0  0  0
   18.0022   12.4042    5.7922 O   0  0  0  0  0  0  0  0  0  0  0  0
   18.1376   11.2573    3.8184 N   0  0  0  0  0  0  0  0  0  0  0  0
   17.8738   10.4477    3.3242 H   0  0  0  0  0  0  0  0  0  0  0  0
   19.1746   12.1580    3.2740 C   0  0  0  0  0  0  0  0  0  0  0  0
   18.7080   13.6369    3.2492 C   0  0  0  0  0  0  0  0  0  0  0  0
   17.7969   14.0255    2.5199 O   0  0  0  0  0  0  0  0  0  0  0  0
   19.4740   14.4830    4.0131 N   0  0  0  0  0  0  0  0  0  0  0  0
   20.2786   14.1237    4.4522 H   0  0  0  0  0  0  0  0  0  0  0  0
   19.1432   15.9015    4.2023 C   0  0  0  0  0  0  0  0  0  0  0  0
   19.3220   16.6897    2.8769 C   0  0  0  0  0  0  0  0  0  0  0  0
   18.1874   16.9852    2.1660 N   0  0  0  0  0  0  0  0  0  0  0  0
   20.3998   17.1711    2.5186 O   0  0  0  0  0  0  0  0  0  0  0  0
   17.3212   16.6072    2.4420 H   0  0  0  0  0  0  0  0  0  0  0  0
   18.2389   17.5754    1.3797 H   0  0  0  0  0  0  0  0  0  0  0  0
   17.6806   16.0058    4.6738 C   0  0  0  0  0  0  0  0  0  0  0  0
   17.3961   17.1924    5.6077 C   0  0  0  0  0  0  0  0  0  0  0  0
   18.5928   17.7081    6.4066 C   0  0  0  0  0  0  0  0  0  0  0  0
   18.3489   18.9964    7.0145 N   0  0  0  0  0  0  0  0  0  0  0  0
   19.0210   19.7041    6.8849 H   0  0  0  0  0  0  0  0  0  0  0  0
   17.2553   19.2873    7.7489 C   0  0  0  0  0  0  0  0  0  0  0  0
   16.3592   20.1437    7.4131 N   0  0  0  0  0  0  0  0  0  0  0  0
   17.1925   18.5795    8.8923 N   0  0  0  0  0  0  0  0  0  0  0  0
   16.4448   20.6397    6.5669 H   0  0  0  0  0  0  0  0  0  0  0  0
   17.9020   17.9328    9.1105 H   0  0  0  0  0  0  0  0  0  0  0  0
   16.4371   18.7087    9.5103 H   0  0  0  0  0  0  0  0  0  0  0  0
   20.4451   12.0357    4.1251 C   0  0  0  0  0  0  0  0  0  0  0  0
   21.1012   10.6439    4.1302 C   0  0  0  0  0  0  0  0  0  0  0  0
   22.4986   10.5764    3.5057 C   0  0  0  0  0  0  0  0  0  0  0  0
   22.9680   11.8856    3.0986 N   0  0  0  0  0  0  0  0  0  0  0  0
   22.7321   12.6528    3.6688 H   0  0  0  0  0  0  0  0  0  0  0  0
   23.7054   12.1299    1.9941 C   0  0  0  0  0  0  0  0  0  0  0  0
   24.9769   12.2849    1.9177 N   0  0  0  0  0  0  0  0  0  0  0  0
   22.9547   12.1682    0.8744 N   0  0  0  0  0  0  0  0  0  0  0  0
   25.5262   12.2572    2.7342 H   0  0  0  0  0  0  0  0  0  0  0  0
   21.9790   12.0494    0.9316 H   0  0  0  0  0  0  0  0  0  0  0  0
   23.3823   12.3150   -0.0001 H   0  0  0  0  0  0  0  0  0  0  0  0
   17.2625    3.2761    5.3321 C   0  0  0  0  0  0  0  0  0  0  0  0
   15.7958    1.3675    5.9229 C   0  0  0  0  0  0  0  0  0  0  0  0
   15.9267    0.8422    4.8194 O   0  0  0  0  0  0  0  0  0  0  0  0
   16.3458    2.5844    6.2364 N   0  0  0  0  0  0  0  0  0  0  0  0
   16.1161    3.0046    7.0965 H   0  0  0  0  0  0  0  0  0  0  0  0
   14.9427    0.7527    7.0085 C   0  0  0  0  0  0  0  0  0  0  0  0
   13.7297    1.6178    7.3480 C   0  0  0  0  0  0  0  0  0  0  0  0
   13.7127    2.0632    8.8119 C   0  0  0  0  0  0  0  0  0  0  0  0
   14.6694    3.2185    9.1281 C   0  0  0  0  0  0  0  0  0  0  0  0
   14.5022    3.8042   10.5290 C   0  0  0  0  0  0  0  0  0  0  0  0
   13.4098    6.0141   10.9527 C   0  0  0  0  0  0  0  0  0  0  0  0
   14.4478    6.5823   11.2818 O   0  0  0  0  0  0  0  0  0  0  0  0
   13.3557    4.6807   10.5945 N   0  0  0  0  0  0  0  0  0  0  0  0
   12.4756    4.3020   10.3684 H   0  0  0  0  0  0  0  0  0  0  0  0
   10.5951    7.8660   12.4907 C   0  0  0  0  0  0  0  0  0  0  0  0
   12.0072    7.8807   11.9110 C   0  0  0  0  0  0  0  0  0  0  0  0
   12.2923    9.1196   11.2649 O   0  0  0  0  0  0  0  0  0  0  0  0
   12.0269    6.6922   10.9543 C   0  0  0  0  0  0  0  0  0  0  0  0
   11.0476    5.7436   11.4346 O   0  0  0  0  0  0  0  0  0  0  0  0
   10.2116    6.3857   12.4158 C   0  0  0  0  0  0  0  0  0  0  0  0
   11.6407    9.2761   10.5636 H   0  0  0  0  0  0  0  0  0  0  0  0
   10.3422    5.6698   13.6702 N   0  0  0  0  0  0  0  0  0  0  0  0
   11.4623    5.0575   14.1740 C   0  0  0  0  0  0  0  0  0  0  0  0
   11.2293    4.4683   15.3228 N   0  0  0  0  0  0  0  0  0  0  0  0
    9.8905    4.6852   15.5712 C   0  0  0  0  0  0  0  0  0  0  0  0
    9.0374    4.2849   16.6137 C   0  0  0  0  0  0  0  0  0  0  0  0
    9.4496    3.4918   17.6705 N   0  0  0  0  0  0  0  0  0  0  0  0
    7.7471    4.6817   16.5803 N   0  0  0  0  0  0  0  0  0  0  0  0
    7.3360    5.4388   15.5345 C   0  0  0  0  0  0  0  0  0  0  0  0
    8.0540    5.8782   14.4830 N   0  0  0  0  0  0  0  0  0  0  0  0
    9.3273    5.4527   14.5664 C   0  0  0  0  0  0  0  0  0  0  0  0
   10.3844    3.1871   17.7219 H   0  0  0  0  0  0  0  0  0  0  0  0
    8.8081    3.2325   18.3708 H   0  0  0  0  0  0  0  0  0  0  0  0
    8.5319    9.0497   12.2579 C   0  0  0  0  0  0  0  0  0  0  0  0
    9.7680    8.6916   11.6409 O   0  0  0  0  0  0  0  0  0  0  0  0
   18.3594    4.0310    6.0992 C   0  0  0  0  0  0  0  0  0  0  0  0
   18.1830    3.9923    7.6284 C   0  0  0  0  0  0  0  0  0  0  0  0
   19.1317    3.0163    8.3409 C   0  0  0  0  0  0  0  0  0  0  0  0
   18.3912    1.9988    9.2115 C   0  0  0  0  0  0  0  0  0  0  0  0
   19.1796    1.6184   10.3758 N   0  0  0  0  0  0  0  0  0  0  0  0
   20.0519    1.1872   10.0697 H   0  0  0  0  0  0  0  0  0  0  0  0
   18.6519    0.9535   10.9413 H   0  0  0  0  0  0  0  0  0  0  0  0
 80 81  1  0
 61 81  1  0
 61 62  1  0
 62 63  1  0
 62 64  1  0
 64 57  1  0
 57 58  2  0
 57 59  1  0
 59 56  1  0
 56 55  1  0
 55 54  1  0
 54 53  1  0
 53 52  1  0
 52 48  1  0
 48 49  2  0
 48 50  1  0
 50 47  1  0
 47 82  1  0
 82 83  1  0
 83 84  1  0
 84 85  1  0
 85 86  1  0
 47  1  1  0
  1  2  2  0
  1  3  1  0
  3  5  1  0
  5  6  1  0
  6  7  1  0
  7  8  1  0
  8  9  1  0
  9 10  1  0
 10 11  2  0
 10 12  1  0
 12 14  1  0
 14 36  1  0
 36 37  1  0
 37 38  1  0
 38 39  1  0
 39 41  1  0
 41 42  2  0
 41 43  1  0
 14 15  1  0
 15 16  2  0
 15 17  1  0
 17 19  1  0
 19 25  1  0
 25 26  1  0
 26 27  1  0
 27 28  1  0
 28 30  1  0
 30 31  2  0
 30 32  1  0
 19 20  1  0
 20 21  1  0
 20 22  2  0
 64 65  1  0
 65 66  1  0
 66 68  1  0
 68 69  1  0
 69 70  2  0
 70 71  1  0
 71 72  2  0
 72 73  1  0
 72 74  1  0
 74 75  2  0
 75 76  1  0
 76 77  2  0
 66 61  1  0
 77 68  1  0
 77 71  1  0
 63 67  1  0
 59 60  1  0
 50 51  1  0
 86 87  1  0
 86 88  1  0
  3  4  1  0
 12 13  1  0
 39 40  1  0
 42 44  1  0
 43 45  1  0
 43 46  1  0
 17 18  1  0
 28 29  1  0
 31 33  1  0
 32 34  1  0
 32 35  1  0
 21 23  1  0
 21 24  1  0
 73 78  1  0
 73 79  1  0
M  END
> <minimizedAffinity>
-7.51269

> <CNNscore>
0.2419541627

> <CNNaffinity>
6.9382705688

> <CNN_VS>
1.6787434816

> <CNNaffinity_variance>
2.7231960297

$$$$
