


 34 36  0  0  0  0  0  0  0  0999 V2000
   47.2356    9.6975    0.7113 C   0  0  0  0  0  0  0  0  0  0  0  0
   46.1571    9.0081    0.1557 C   0  0  0  0  0  0  0  0  0  0  0  0
   44.8864    9.5899    0.0516 C   0  0  0  0  0  0  0  0  0  0  0  0
   44.6735   10.8946    0.4842 C   0  0  0  0  0  0  0  0  0  0  0  0
   45.7336   11.6275    1.0189 C   0  0  0  0  0  0  0  0  0  0  0  0
   47.0000   11.0245    1.1166 C   0  0  0  0  0  0  0  0  0  0  0  0
   45.5305   13.0100    1.4529 C   0  0  0  0  0  0  0  0  0  0  0  0
   44.5368   14.0376    0.5060 S   0  0  0  0  0  0  0  0  0  0  0  0
   44.7549   15.3760    1.5658 C   0  0  0  0  0  0  0  0  0  0  0  0
   45.6056   15.0409    2.6042 C   0  0  0  0  0  0  0  0  0  0  0  0
   46.0180   13.6799    2.5528 C   0  0  0  0  0  0  0  0  0  0  0  0
   47.1049   12.9063    3.8992 Br  0  0  0  0  0  0  0  0  0  0  0  0
   44.0639   16.6055    1.2502 C   0  0  0  0  0  0  0  0  0  0  0  0
   44.0900   17.6696    1.8552 O   0  0  0  0  0  0  0  0  0  0  0  0
   43.2905   16.4999    0.1473 O   0  0  0  0  0  0  0  0  0  0  0  0
   43.2591   15.6926   -0.3273 H   0  0  0  0  0  0  0  0  0  0  0  0
   45.9200   15.9071    3.6011 O   0  0  0  0  0  0  0  0  0  0  0  0
   47.2712   16.3533    3.5008 C   0  0  0  0  0  0  0  0  0  0  0  0
   47.6470   17.1790    4.7113 C   0  0  0  0  0  0  0  0  0  0  0  0
   48.7419   17.6780    4.9277 O   0  0  0  0  0  0  0  0  0  0  0  0
   46.6586   17.2905    5.6245 O   0  0  0  0  0  0  0  0  0  0  0  0
   45.8202   16.9073    5.4566 H   0  0  0  0  0  0  0  0  0  0  0  0
   48.5289    9.2153    0.7978 N   0  0  0  0  0  0  0  0  0  0  0  0
   49.1496    9.5633    0.1174 H   0  0  0  0  0  0  0  0  0  0  0  0
   48.5766    6.5745    4.4405 C   0  0  0  0  0  0  0  0  0  0  0  0
   48.8280    6.0509    3.0142 C   0  0  0  0  0  0  0  0  0  0  0  0
   48.0743    4.7029    2.9020 C   0  0  0  0  0  0  0  0  0  0  0  0
   48.2493    7.0236    1.9609 C   0  0  0  0  0  0  0  0  0  0  0  0
   49.1175    8.2663    1.7459 C   0  0  0  0  0  0  0  0  0  0  0  0
   50.5747    7.9338    1.4075 C   0  0  0  0  0  0  0  0  0  0  0  0
   51.2418    7.0014    2.4427 C   0  0  0  0  0  0  0  0  0  0  0  0
   51.6175    7.7799    3.7186 C   0  0  0  0  0  0  0  0  0  0  0  0
   52.5684    6.4749    1.8423 C   0  0  0  0  0  0  0  0  0  0  0  0
   50.3321    5.7811    2.7432 C   0  0  0  0  0  0  0  0  0  0  0  0
 25 26  1  0
 26 27  1  0
 26 28  1  0
 28 29  1  0
 29 23  1  0
 23  1  1  0
  1  2  2  0
  2  3  1  0
  3  4  2  0
  4  5  1  0
  5  7  1  0
  7  8  1  0
  8  9  1  0
  9 13  1  0
 13 14  2  0
 13 15  1  0
  9 10  2  0
 10 17  1  0
 17 18  1  0
 18 19  1  0
 19 20  2  0
 19 21  1  0
 10 11  1  0
 11 12  1  0
  5  6  2  0
 29 30  1  0
 30 31  1  0
 31 32  1  0
 31 33  1  0
 31 34  1  0
 34 26  1  0
  6  1  1  0
 11  7  2  0
 23 24  1  0
 15 16  1  0
 21 22  1  0
M  END
> <minimizedAffinity>
-8.54877

> <CNNscore>
0.9253765941

> <CNNaffinity>
6.9108638763

> <CNN_VS>
6.3951516151

> <CNNaffinity_variance>
0.0187903289

$$$$



 34 36  0  0  0  0  0  0  0  0999 V2000
   47.1427    9.7429    0.1712 C   0  0  0  0  0  0  0  0  0  0  0  0
   46.0593    9.1688   -0.4949 C   0  0  0  0  0  0  0  0  0  0  0  0
   44.8143    9.8085   -0.5632 C   0  0  0  0  0  0  0  0  0  0  0  0
   44.6339   11.0586    0.0192 C   0  0  0  0  0  0  0  0  0  0  0  0
   45.7011   11.6792    0.6693 C   0  0  0  0  0  0  0  0  0  0  0  0
   46.9413   11.0194    0.7286 C   0  0  0  0  0  0  0  0  0  0  0  0
   45.5331   13.0060    1.2629 C   0  0  0  0  0  0  0  0  0  0  0  0
   44.4997   14.1344    0.4893 S   0  0  0  0  0  0  0  0  0  0  0  0
   44.7851   15.3472    1.6766 C   0  0  0  0  0  0  0  0  0  0  0  0
   45.6866   14.8974    2.6249 C   0  0  0  0  0  0  0  0  0  0  0  0
   46.0840   13.5492    2.4021 C   0  0  0  0  0  0  0  0  0  0  0  0
   47.2338   12.6289    3.5952 Br  0  0  0  0  0  0  0  0  0  0  0  0
   44.0889   16.6058    1.5356 C   0  0  0  0  0  0  0  0  0  0  0  0
   42.9530   16.8049    1.1243 O   0  0  0  0  0  0  0  0  0  0  0  0
   44.8458   17.6635    1.9014 O   0  0  0  0  0  0  0  0  0  0  0  0
   45.7173   17.5288    2.2183 H   0  0  0  0  0  0  0  0  0  0  0  0
   46.0608   15.6475    3.6926 O   0  0  0  0  0  0  0  0  0  0  0  0
   47.3665   16.1946    3.5170 C   0  0  0  0  0  0  0  0  0  0  0  0
   47.7178   17.1062    4.6718 C   0  0  0  0  0  0  0  0  0  0  0  0
   48.8262   17.5613    4.9152 O   0  0  0  0  0  0  0  0  0  0  0  0
   46.6845   17.3566    5.5040 O   0  0  0  0  0  0  0  0  0  0  0  0
   45.8358   17.0069    5.3156 H   0  0  0  0  0  0  0  0  0  0  0  0
   48.4145    9.2032    0.2349 N   0  0  0  0  0  0  0  0  0  0  0  0
   49.1046    9.7040   -0.2574 H   0  0  0  0  0  0  0  0  0  0  0  0
   50.7070    5.3501    0.6129 C   0  0  0  0  0  0  0  0  0  0  0  0
   50.9250    6.5574    1.5435 C   0  0  0  0  0  0  0  0  0  0  0  0
   52.4543    6.6795    1.7539 C   0  0  0  0  0  0  0  0  0  0  0  0
   50.4169    7.8600    0.8835 C   0  0  0  0  0  0  0  0  0  0  0  0
   48.8928    8.0012    0.9220 C   0  0  0  0  0  0  0  0  0  0  0  0
   48.3093    7.8665    2.3327 C   0  0  0  0  0  0  0  0  0  0  0  0
   48.7328    6.5622    3.0438 C   0  0  0  0  0  0  0  0  0  0  0  0
   47.9387    5.3590    2.4990 C   0  0  0  0  0  0  0  0  0  0  0  0
   48.3710    6.6846    4.5444 C   0  0  0  0  0  0  0  0  0  0  0  0
   50.2663    6.3547    2.9341 C   0  0  0  0  0  0  0  0  0  0  0  0
 25 26  1  0
 26 27  1  0
 26 28  1  0
 28 29  1  0
 29 23  1  0
 23  1  1  0
  1  2  2  0
  2  3  1  0
  3  4  2  0
  4  5  1  0
  5  7  1  0
  7  8  1  0
  8  9  1  0
  9 13  1  0
 13 14  2  0
 13 15  1  0
  9 10  2  0
 10 17  1  0
 17 18  1  0
 18 19  1  0
 19 20  2  0
 19 21  1  0
 10 11  1  0
 11 12  1  0
  5  6  2  0
 29 30  1  0
 30 31  1  0
 31 32  1  0
 31 33  1  0
 31 34  1  0
 34 26  1  0
  6  1  1  0
 11  7  2  0
 23 24  1  0
 15 16  1  0
 21 22  1  0
M  END
> <minimizedAffinity>
-8.04118

> <CNNscore>
0.9214261174

> <CNNaffinity>
6.9368915558

> <CNN_VS>
6.3918328285

> <CNNaffinity_variance>
0.0491066091

$$$$



 34 36  0  0  0  0  0  0  0  0999 V2000
   45.0176   10.2086   -0.3590 C   0  0  0  0  0  0  0  0  0  0  0  0
   44.5668   10.5709   -1.6288 C   0  0  0  0  0  0  0  0  0  0  0  0
   44.2898   11.9044   -1.9589 C   0  0  0  0  0  0  0  0  0  0  0  0
   44.4831   12.9146   -1.0226 C   0  0  0  0  0  0  0  0  0  0  0  0
   44.9606   12.5966    0.2492 C   0  0  0  0  0  0  0  0  0  0  0  0
   45.2303   11.2522    0.5609 C   0  0  0  0  0  0  0  0  0  0  0  0
   45.1945   13.6520    1.2352 C   0  0  0  0  0  0  0  0  0  0  0  0
   44.3033   15.1117    1.1129 S   0  0  0  0  0  0  0  0  0  0  0  0
   45.0569   15.7944    2.5014 C   0  0  0  0  0  0  0  0  0  0  0  0
   45.9998   14.9250    3.0204 C   0  0  0  0  0  0  0  0  0  0  0  0
   46.0498   13.6908    2.3137 C   0  0  0  0  0  0  0  0  0  0  0  0
   47.1749   12.2654    2.8568 Br  0  0  0  0  0  0  0  0  0  0  0  0
   44.6339   17.1118    2.9189 C   0  0  0  0  0  0  0  0  0  0  0  0
   44.4184   18.0971    2.2247 O   0  0  0  0  0  0  0  0  0  0  0  0
   44.4939   17.2136    4.2589 O   0  0  0  0  0  0  0  0  0  0  0  0
   44.6550   16.4692    4.8046 H   0  0  0  0  0  0  0  0  0  0  0  0
   46.7170   15.2057    4.1383 O   0  0  0  0  0  0  0  0  0  0  0  0
   47.8303   16.0492    3.8485 C   0  0  0  0  0  0  0  0  0  0  0  0
   47.8567   17.2327    4.7903 C   0  0  0  0  0  0  0  0  0  0  0  0
   48.7316   18.0847    4.8477 O   0  0  0  0  0  0  0  0  0  0  0  0
   46.8229   17.2630    5.6584 O   0  0  0  0  0  0  0  0  0  0  0  0
   46.1535   16.6090    5.6127 H   0  0  0  0  0  0  0  0  0  0  0  0
   45.3656    8.9267    0.0262 N   0  0  0  0  0  0  0  0  0  0  0  0
   44.6071    8.3231    0.1984 H   0  0  0  0  0  0  0  0  0  0  0  0
   49.1985    8.1027    2.2342 C   0  0  0  0  0  0  0  0  0  0  0  0
   48.2286    6.9949    1.7831 C   0  0  0  0  0  0  0  0  0  0  0  0
   48.1516    5.9774    2.9478 C   0  0  0  0  0  0  0  0  0  0  0  0
   46.8132    7.5678    1.5403 C   0  0  0  0  0  0  0  0  0  0  0  0
   46.6891    8.3287    0.2174 C   0  0  0  0  0  0  0  0  0  0  0  0
   47.1372    7.5071   -0.9963 C   0  0  0  0  0  0  0  0  0  0  0  0
   48.5659    6.9380   -0.8512 C   0  0  0  0  0  0  0  0  0  0  0  0
   49.6197    8.0372   -1.0883 C   0  0  0  0  0  0  0  0  0  0  0  0
   48.7827    5.8754   -1.9564 C   0  0  0  0  0  0  0  0  0  0  0  0
   48.7387    6.2429    0.5250 C   0  0  0  0  0  0  0  0  0  0  0  0
 25 26  1  0
 26 27  1  0
 26 28  1  0
 28 29  1  0
 29 23  1  0
 23  1  1  0
  1  2  2  0
  2  3  1  0
  3  4  2  0
  4  5  1  0
  5  7  1  0
  7  8  1  0
  8  9  1  0
  9 13  1  0
 13 14  2  0
 13 15  1  0
  9 10  2  0
 10 17  1  0
 17 18  1  0
 18 19  1  0
 19 20  2  0
 19 21  1  0
 10 11  1  0
 11 12  1  0
  5  6  2  0
 29 30  1  0
 30 31  1  0
 31 32  1  0
 31 33  1  0
 31 34  1  0
 34 26  1  0
  6  1  1  0
 11  7  2  0
 23 24  1  0
 15 16  1  0
 21 22  1  0
M  END
> <minimizedAffinity>
-8.67092

> <CNNscore>
0.8894134164

> <CNNaffinity>
6.6018524170

> <CNN_VS>
5.8717761040

> <CNNaffinity_variance>
0.0403537303

$$$$



 34 36  0  0  0  0  0  0  0  0999 V2000
   44.2694   11.8145   -2.0174 C   0  0  0  0  0  0  0  0  0  0  0  0
   44.2088   10.5036   -1.5431 C   0  0  0  0  0  0  0  0  0  0  0  0
   44.4661   10.1938   -0.2008 C   0  0  0  0  0  0  0  0  0  0  0  0
   44.7690   11.2027    0.7075 C   0  0  0  0  0  0  0  0  0  0  0  0
   44.8106   12.5298    0.2785 C   0  0  0  0  0  0  0  0  0  0  0  0
   44.5515   12.8190   -1.0729 C   0  0  0  0  0  0  0  0  0  0  0  0
   45.1012   13.6039    1.2286 C   0  0  0  0  0  0  0  0  0  0  0  0
   44.2231   15.0720    1.1125 S   0  0  0  0  0  0  0  0  0  0  0  0
   45.0464   15.7758    2.4500 C   0  0  0  0  0  0  0  0  0  0  0  0
   46.0010   14.9060    2.9464 C   0  0  0  0  0  0  0  0  0  0  0  0
   46.0043   13.6557    2.2668 C   0  0  0  0  0  0  0  0  0  0  0  0
   47.1352   12.2281    2.7919 Br  0  0  0  0  0  0  0  0  0  0  0  0
   44.6585   17.1077    2.8555 C   0  0  0  0  0  0  0  0  0  0  0  0
   44.4890   18.0971    2.1545 O   0  0  0  0  0  0  0  0  0  0  0  0
   44.4957   17.2185    4.1922 O   0  0  0  0  0  0  0  0  0  0  0  0
   44.6217   16.4711    4.7430 H   0  0  0  0  0  0  0  0  0  0  0  0
   46.7709   15.2022    4.0245 O   0  0  0  0  0  0  0  0  0  0  0  0
   47.7794   16.1580    3.7015 C   0  0  0  0  0  0  0  0  0  0  0  0
   47.9108   17.1825    4.8066 C   0  0  0  0  0  0  0  0  0  0  0  0
   48.9104   17.8387    5.0616 O   0  0  0  0  0  0  0  0  0  0  0  0
   46.8104   17.2948    5.5809 O   0  0  0  0  0  0  0  0  0  0  0  0
   46.0454   16.7910    5.3838 H   0  0  0  0  0  0  0  0  0  0  0  0
   43.9748   12.2075   -3.3103 N   0  0  0  0  0  0  0  0  0  0  0  0
   44.7214   12.1352   -3.9479 H   0  0  0  0  0  0  0  0  0  0  0  0
   40.2656   12.0196   -5.8502 C   0  0  0  0  0  0  0  0  0  0  0  0
   40.2362   12.2525   -4.3282 C   0  0  0  0  0  0  0  0  0  0  0  0
   39.0618   11.4070   -3.7771 C   0  0  0  0  0  0  0  0  0  0  0  0
   41.5452   11.7581   -3.6705 C   0  0  0  0  0  0  0  0  0  0  0  0
   42.7228   12.7147   -3.8769 C   0  0  0  0  0  0  0  0  0  0  0  0
   42.4210   14.1493   -3.4299 C   0  0  0  0  0  0  0  0  0  0  0  0
   41.1496   14.7348   -4.0832 C   0  0  0  0  0  0  0  0  0  0  0  0
   41.4244   15.1474   -5.5424 C   0  0  0  0  0  0  0  0  0  0  0  0
   40.7632   16.0289   -3.3257 C   0  0  0  0  0  0  0  0  0  0  0  0
   39.9673   13.7372   -3.9654 C   0  0  0  0  0  0  0  0  0  0  0  0
 25 26  1  0
 26 27  1  0
 26 28  1  0
 28 29  1  0
 29 23  1  0
 23  1  1  0
  1  2  2  0
  2  3  1  0
  3  4  2  0
  4  5  1  0
  5  7  1  0
  7  8  1  0
  8  9  1  0
  9 13  1  0
 13 14  2  0
 13 15  1  0
  9 10  2  0
 10 17  1  0
 17 18  1  0
 18 19  1  0
 19 20  2  0
 19 21  1  0
 10 11  1  0
 11 12  1  0
  5  6  2  0
 29 30  1  0
 30 31  1  0
 31 32  1  0
 31 33  1  0
 31 34  1  0
 34 26  1  0
  6  1  1  0
 11  7  2  0
 23 24  1  0
 15 16  1  0
 21 22  1  0
M  END
> <minimizedAffinity>
-8.52713

> <CNNscore>
0.8703942895

> <CNNaffinity>
6.5826125145

> <CNN_VS>
5.7294683456

> <CNNaffinity_variance>
0.1130122766

$$$$



 34 36  0  0  0  0  0  0  0  0999 V2000
   44.7803   10.2933   -0.5007 C   0  0  0  0  0  0  0  0  0  0  0  0
   44.4727   10.6823   -1.8050 C   0  0  0  0  0  0  0  0  0  0  0  0
   44.3335   12.0315   -2.1574 C   0  0  0  0  0  0  0  0  0  0  0  0
   44.5246   13.0291   -1.2072 C   0  0  0  0  0  0  0  0  0  0  0  0
   44.8620   12.6822    0.1014 C   0  0  0  0  0  0  0  0  0  0  0  0
   44.9947   11.3227    0.4349 C   0  0  0  0  0  0  0  0  0  0  0  0
   45.0926   13.7220    1.1047 C   0  0  0  0  0  0  0  0  0  0  0  0
   44.1860   15.1745    1.0153 S   0  0  0  0  0  0  0  0  0  0  0  0
   44.9431   15.8397    2.4104 C   0  0  0  0  0  0  0  0  0  0  0  0
   45.8985   14.9707    2.9067 C   0  0  0  0  0  0  0  0  0  0  0  0
   45.9556   13.7500    2.1774 C   0  0  0  0  0  0  0  0  0  0  0  0
   47.0989   12.3265    2.6863 Br  0  0  0  0  0  0  0  0  0  0  0  0
   44.5100   17.1450    2.8548 C   0  0  0  0  0  0  0  0  0  0  0  0
   44.1937   18.1135    2.1757 O   0  0  0  0  0  0  0  0  0  0  0  0
   44.4905   17.2568    4.2011 O   0  0  0  0  0  0  0  0  0  0  0  0
   44.7297   16.5253    4.7355 H   0  0  0  0  0  0  0  0  0  0  0  0
   46.6212   15.2384    4.0242 O   0  0  0  0  0  0  0  0  0  0  0  0
   47.8268   15.9351    3.7142 C   0  0  0  0  0  0  0  0  0  0  0  0
   47.8999   17.2348    4.4846 C   0  0  0  0  0  0  0  0  0  0  0  0
   47.1157   18.1683    4.3930 O   0  0  0  0  0  0  0  0  0  0  0  0
   48.9819   17.3345    5.2862 O   0  0  0  0  0  0  0  0  0  0  0  0
   49.5816   16.6179    5.3549 H   0  0  0  0  0  0  0  0  0  0  0  0
   44.9893    8.9903   -0.0871 N   0  0  0  0  0  0  0  0  0  0  0  0
   44.1705    8.4719    0.0863 H   0  0  0  0  0  0  0  0  0  0  0  0
   48.2684    6.0901   -1.1271 C   0  0  0  0  0  0  0  0  0  0  0  0
   48.5199    7.5820   -0.8404 C   0  0  0  0  0  0  0  0  0  0  0  0
   49.5623    8.0597   -1.8811 C   0  0  0  0  0  0  0  0  0  0  0  0
   47.2252    8.4052   -1.0321 C   0  0  0  0  0  0  0  0  0  0  0  0
   46.2416    8.2627    0.1326 C   0  0  0  0  0  0  0  0  0  0  0  0
   46.8682    8.5812    1.4945 C   0  0  0  0  0  0  0  0  0  0  0  0
   48.1446    7.7605    1.7833 C   0  0  0  0  0  0  0  0  0  0  0  0
   47.7877    6.3148    2.1803 C   0  0  0  0  0  0  0  0  0  0  0  0
   48.8623    8.3872    3.0039 C   0  0  0  0  0  0  0  0  0  0  0  0
   49.1144    7.8172    0.5737 C   0  0  0  0  0  0  0  0  0  0  0  0
 25 26  1  0
 26 27  1  0
 26 28  1  0
 28 29  1  0
 29 23  1  0
 23  1  1  0
  1  2  2  0
  2  3  1  0
  3  4  2  0
  4  5  1  0
  5  7  1  0
  7  8  1  0
  8  9  1  0
  9 13  1  0
 13 14  2  0
 13 15  1  0
  9 10  2  0
 10 17  1  0
 17 18  1  0
 18 19  1  0
 19 20  2  0
 19 21  1  0
 10 11  1  0
 11 12  1  0
  5  6  2  0
 29 30  1  0
 30 31  1  0
 31 32  1  0
 31 33  1  0
 31 34  1  0
 34 26  1  0
  6  1  1  0
 11  7  2  0
 23 24  1  0
 15 16  1  0
 21 22  1  0
M  END
> <minimizedAffinity>
-8.40012

> <CNNscore>
0.8628120422

> <CNNaffinity>
6.5384483337

> <CNN_VS>
5.6414518356

> <CNNaffinity_variance>
0.1132264957

$$$$



 34 36  0  0  0  0  0  0  0  0999 V2000
   44.3816   11.7296   -1.9727 C   0  0  0  0  0  0  0  0  0  0  0  0
   44.2898   10.4285   -1.4770 C   0  0  0  0  0  0  0  0  0  0  0  0
   44.4984   10.1407   -0.1214 C   0  0  0  0  0  0  0  0  0  0  0  0
   44.7826   11.1627    0.7781 C   0  0  0  0  0  0  0  0  0  0  0  0
   44.8542   12.4811    0.3268 C   0  0  0  0  0  0  0  0  0  0  0  0
   44.6438   12.7482   -1.0375 C   0  0  0  0  0  0  0  0  0  0  0  0
   45.1254   13.5693    1.2666 C   0  0  0  0  0  0  0  0  0  0  0  0
   44.2641   15.0423    1.0987 S   0  0  0  0  0  0  0  0  0  0  0  0
   45.0530   15.7626    2.4481 C   0  0  0  0  0  0  0  0  0  0  0  0
   45.9846   14.8938    2.9880 C   0  0  0  0  0  0  0  0  0  0  0  0
   45.9975   13.6318    2.3305 C   0  0  0  0  0  0  0  0  0  0  0  0
   47.0996   12.2045    2.9140 Br  0  0  0  0  0  0  0  0  0  0  0  0
   44.6648   17.1046    2.8186 C   0  0  0  0  0  0  0  0  0  0  0  0
   44.4553   18.0648    2.0885 O   0  0  0  0  0  0  0  0  0  0  0  0
   44.5535   17.2641    4.1556 O   0  0  0  0  0  0  0  0  0  0  0  0
   44.7104   16.5395    4.7286 H   0  0  0  0  0  0  0  0  0  0  0  0
   46.7244   15.2026    4.0835 O   0  0  0  0  0  0  0  0  0  0  0  0
   47.7987   16.0834    3.7592 C   0  0  0  0  0  0  0  0  0  0  0  0
   47.8690   17.2208    4.7539 C   0  0  0  0  0  0  0  0  0  0  0  0
   48.7632   18.0508    4.8327 O   0  0  0  0  0  0  0  0  0  0  0  0
   46.8531   17.2322    5.6433 O   0  0  0  0  0  0  0  0  0  0  0  0
   46.1688   16.5951    5.5811 H   0  0  0  0  0  0  0  0  0  0  0  0
   44.1350   12.1019   -3.2816 N   0  0  0  0  0  0  0  0  0  0  0  0
   43.9968   13.0666   -3.4213 H   0  0  0  0  0  0  0  0  0  0  0  0
   45.2463   10.8455   -7.4567 C   0  0  0  0  0  0  0  0  0  0  0  0
   45.3310    9.9045   -6.2407 C   0  0  0  0  0  0  0  0  0  0  0  0
   46.6475    9.1040   -6.3955 C   0  0  0  0  0  0  0  0  0  0  0  0
   45.4018   10.7117   -4.9240 C   0  0  0  0  0  0  0  0  0  0  0  0
   44.0478   11.2816   -4.4922 C   0  0  0  0  0  0  0  0  0  0  0  0
   42.9479   10.2187   -4.3967 C   0  0  0  0  0  0  0  0  0  0  0  0
   42.7810    9.3983   -5.6949 C   0  0  0  0  0  0  0  0  0  0  0  0
   42.0301   10.2141   -6.7653 C   0  0  0  0  0  0  0  0  0  0  0  0
   41.8985    8.1649   -5.3829 C   0  0  0  0  0  0  0  0  0  0  0  0
   44.1573    8.8900   -6.1992 C   0  0  0  0  0  0  0  0  0  0  0  0
 25 26  1  0
 26 27  1  0
 26 28  1  0
 28 29  1  0
 29 23  1  0
 23  1  1  0
  1  2  2  0
  2  3  1  0
  3  4  2  0
  4  5  1  0
  5  7  1  0
  7  8  1  0
  8  9  1  0
  9 13  1  0
 13 14  2  0
 13 15  1  0
  9 10  2  0
 10 17  1  0
 17 18  1  0
 18 19  1  0
 19 20  2  0
 19 21  1  0
 10 11  1  0
 11 12  1  0
  5  6  2  0
 29 30  1  0
 30 31  1  0
 31 32  1  0
 31 33  1  0
 31 34  1  0
 34 26  1  0
  6  1  1  0
 11  7  2  0
 23 24  1  0
 15 16  1  0
 21 22  1  0
M  END
> <minimizedAffinity>
-7.95363

> <CNNscore>
0.8585674763

> <CNNaffinity>
6.4907970428

> <CNN_VS>
5.5727872849

> <CNNaffinity_variance>
0.0368026458

$$$$



 34 36  0  0  0  0  0  0  0  0999 V2000
   46.4954   10.5146   -1.6174 C   0  0  0  0  0  0  0  0  0  0  0  0
   45.5525    9.5159   -1.3714 C   0  0  0  0  0  0  0  0  0  0  0  0
   44.5994    9.6386   -0.3513 C   0  0  0  0  0  0  0  0  0  0  0  0
   44.5558   10.7850    0.4352 C   0  0  0  0  0  0  0  0  0  0  0  0
   45.4630   11.8189    0.2015 C   0  0  0  0  0  0  0  0  0  0  0  0
   46.4126   11.6750   -0.8254 C   0  0  0  0  0  0  0  0  0  0  0  0
   45.4111   13.0419    1.0032 C   0  0  0  0  0  0  0  0  0  0  0  0
   44.4055   14.3300    0.4844 S   0  0  0  0  0  0  0  0  0  0  0  0
   44.8327   15.3232    1.8234 C   0  0  0  0  0  0  0  0  0  0  0  0
   45.7585   14.6833    2.6282 C   0  0  0  0  0  0  0  0  0  0  0  0
   46.0591   13.3688    2.1734 C   0  0  0  0  0  0  0  0  0  0  0  0
   47.2178   12.2136    3.1301 Br  0  0  0  0  0  0  0  0  0  0  0  0
   44.2078   16.6223    1.9257 C   0  0  0  0  0  0  0  0  0  0  0  0
   44.5112   17.5570    2.6560 O   0  0  0  0  0  0  0  0  0  0  0  0
   43.1469   16.7564    1.0999 O   0  0  0  0  0  0  0  0  0  0  0  0
   42.9011   16.0508    0.5345 H   0  0  0  0  0  0  0  0  0  0  0  0
   46.2390   15.2347    3.7718 O   0  0  0  0  0  0  0  0  0  0  0  0
   47.4413   15.9654    3.5363 C   0  0  0  0  0  0  0  0  0  0  0  0
   47.6672   16.9806    4.6348 C   0  0  0  0  0  0  0  0  0  0  0  0
   46.8028   17.4731    5.3454 O   0  0  0  0  0  0  0  0  0  0  0  0
   48.9514   17.3804    4.7534 O   0  0  0  0  0  0  0  0  0  0  0  0
   49.6123   17.0017    4.2077 H   0  0  0  0  0  0  0  0  0  0  0  0
   47.4290   10.4937   -2.6376 N   0  0  0  0  0  0  0  0  0  0  0  0
   47.0520   10.4710   -3.5468 H   0  0  0  0  0  0  0  0  0  0  0  0
   51.5710   11.7023   -3.9134 C   0  0  0  0  0  0  0  0  0  0  0  0
   51.0243   11.9315   -2.4921 C   0  0  0  0  0  0  0  0  0  0  0  0
   51.4976   13.3417   -2.0616 C   0  0  0  0  0  0  0  0  0  0  0  0
   49.4784   11.9121   -2.4873 C   0  0  0  0  0  0  0  0  0  0  0  0
   48.8924   10.5002   -2.5736 C   0  0  0  0  0  0  0  0  0  0  0  0
   49.4317    9.5556   -1.4939 C   0  0  0  0  0  0  0  0  0  0  0  0
   50.9744    9.4818   -1.4660 C   0  0  0  0  0  0  0  0  0  0  0  0
   51.5018    8.6117   -2.6235 C   0  0  0  0  0  0  0  0  0  0  0  0
   51.4060    8.7789   -0.1556 C   0  0  0  0  0  0  0  0  0  0  0  0
   51.5885   10.9065   -1.4725 C   0  0  0  0  0  0  0  0  0  0  0  0
 25 26  1  0
 26 27  1  0
 26 28  1  0
 28 29  1  0
 29 23  1  0
 23  1  1  0
  1  2  2  0
  2  3  1  0
  3  4  2  0
  4  5  1  0
  5  7  1  0
  7  8  1  0
  8  9  1  0
  9 13  1  0
 13 14  2  0
 13 15  1  0
  9 10  2  0
 10 17  1  0
 17 18  1  0
 18 19  1  0
 19 20  2  0
 19 21  1  0
 10 11  1  0
 11 12  1  0
  5  6  2  0
 29 30  1  0
 30 31  1  0
 31 32  1  0
 31 33  1  0
 31 34  1  0
 34 26  1  0
  6  1  1  0
 11  7  2  0
 23 24  1  0
 15 16  1  0
 21 22  1  0
M  END
> <minimizedAffinity>
-7.56703

> <CNNscore>
0.8566044569

> <CNNaffinity>
6.5415778160

> <CNN_VS>
5.6035447121

> <CNNaffinity_variance>
0.2008061260

$$$$



 34 36  0  0  0  0  0  0  0  0999 V2000
   44.2126   12.0546   -2.1027 C   0  0  0  0  0  0  0  0  0  0  0  0
   44.1886   10.7228   -1.6870 C   0  0  0  0  0  0  0  0  0  0  0  0
   44.4835   10.3584   -0.3663 C   0  0  0  0  0  0  0  0  0  0  0  0
   44.7883   11.3315    0.5796 C   0  0  0  0  0  0  0  0  0  0  0  0
   44.7942   12.6770    0.2104 C   0  0  0  0  0  0  0  0  0  0  0  0
   44.4977   13.0212   -1.1203 C   0  0  0  0  0  0  0  0  0  0  0  0
   45.0864   13.7132    1.2013 C   0  0  0  0  0  0  0  0  0  0  0  0
   44.2183   15.1903    1.1355 S   0  0  0  0  0  0  0  0  0  0  0  0
   45.0388   15.8384    2.5024 C   0  0  0  0  0  0  0  0  0  0  0  0
   45.9853   14.9446    2.9710 C   0  0  0  0  0  0  0  0  0  0  0  0
   45.9844   13.7204    2.2452 C   0  0  0  0  0  0  0  0  0  0  0  0
   47.1035   12.2671    2.7226 Br  0  0  0  0  0  0  0  0  0  0  0  0
   44.6572   17.1568    2.9552 C   0  0  0  0  0  0  0  0  0  0  0  0
   44.5051   18.1745    2.2918 O   0  0  0  0  0  0  0  0  0  0  0  0
   44.4781   17.2164    4.2931 O   0  0  0  0  0  0  0  0  0  0  0  0
   44.5905   16.4467    4.8156 H   0  0  0  0  0  0  0  0  0  0  0  0
   46.7513   15.1955    4.0632 O   0  0  0  0  0  0  0  0  0  0  0  0
   47.8168   16.0944    3.7607 C   0  0  0  0  0  0  0  0  0  0  0  0
   47.8701   17.2131    4.7774 C   0  0  0  0  0  0  0  0  0  0  0  0
   48.7724   18.0288    4.9002 O   0  0  0  0  0  0  0  0  0  0  0  0
   46.8259   17.2234    5.6334 O   0  0  0  0  0  0  0  0  0  0  0  0
   46.1353   16.5973    5.5375 H   0  0  0  0  0  0  0  0  0  0  0  0
   43.8800   12.4990   -3.3694 N   0  0  0  0  0  0  0  0  0  0  0  0
   43.8599   11.8013   -4.0636 H   0  0  0  0  0  0  0  0  0  0  0  0
   41.2696   15.6644   -5.2164 C   0  0  0  0  0  0  0  0  0  0  0  0
   41.8527   15.7738   -3.7953 C   0  0  0  0  0  0  0  0  0  0  0  0
   40.7274   16.3511   -2.9020 C   0  0  0  0  0  0  0  0  0  0  0  0
   42.2420   14.3799   -3.2513 C   0  0  0  0  0  0  0  0  0  0  0  0
   43.5530   13.8482   -3.8369 C   0  0  0  0  0  0  0  0  0  0  0  0
   44.7259   14.8209   -3.6731 C   0  0  0  0  0  0  0  0  0  0  0  0
   44.4322   16.2282   -4.2384 C   0  0  0  0  0  0  0  0  0  0  0  0
   44.5233   16.2301   -5.7768 C   0  0  0  0  0  0  0  0  0  0  0  0
   45.5291   17.1965   -3.7318 C   0  0  0  0  0  0  0  0  0  0  0  0
   43.0612   16.7452   -3.7285 C   0  0  0  0  0  0  0  0  0  0  0  0
 25 26  1  0
 26 27  1  0
 26 28  1  0
 28 29  1  0
 29 23  1  0
 23  1  1  0
  1  2  2  0
  2  3  1  0
  3  4  2  0
  4  5  1  0
  5  7  1  0
  7  8  1  0
  8  9  1  0
  9 13  1  0
 13 14  2  0
 13 15  1  0
  9 10  2  0
 10 17  1  0
 17 18  1  0
 18 19  1  0
 19 20  2  0
 19 21  1  0
 10 11  1  0
 11 12  1  0
  5  6  2  0
 29 30  1  0
 30 31  1  0
 31 32  1  0
 31 33  1  0
 31 34  1  0
 34 26  1  0
  6  1  1  0
 11  7  2  0
 23 24  1  0
 15 16  1  0
 21 22  1  0
M  END
> <minimizedAffinity>
-8.58334

> <CNNscore>
0.8339246511

> <CNNaffinity>
6.6932101250

> <CNN_VS>
5.5816330910

> <CNNaffinity_variance>
0.0547180064

$$$$



 34 36  0  0  0  0  0  0  0  0999 V2000
   46.3154   10.7026   -1.8806 C   0  0  0  0  0  0  0  0  0  0  0  0
   45.4727    9.6466   -1.5317 C   0  0  0  0  0  0  0  0  0  0  0  0
   44.6416    9.7094   -0.4051 C   0  0  0  0  0  0  0  0  0  0  0  0
   44.6199   10.8509    0.3892 C   0  0  0  0  0  0  0  0  0  0  0  0
   45.4265   11.9399    0.0571 C   0  0  0  0  0  0  0  0  0  0  0  0
   46.2547   11.8558   -1.0761 C   0  0  0  0  0  0  0  0  0  0  0  0
   45.3938   13.1574    0.8681 C   0  0  0  0  0  0  0  0  0  0  0  0
   44.4648   14.4911    0.3222 S   0  0  0  0  0  0  0  0  0  0  0  0
   44.8790   15.4544    1.6869 C   0  0  0  0  0  0  0  0  0  0  0  0
   45.7440   14.7694    2.5217 C   0  0  0  0  0  0  0  0  0  0  0  0
   46.0073   13.4471    2.0663 C   0  0  0  0  0  0  0  0  0  0  0  0
   47.0770   12.2361    3.0571 Br  0  0  0  0  0  0  0  0  0  0  0  0
   44.3055   16.7779    1.7770 C   0  0  0  0  0  0  0  0  0  0  0  0
   44.8394   17.8145    2.1504 O   0  0  0  0  0  0  0  0  0  0  0  0
   43.0063   16.8088    1.4074 O   0  0  0  0  0  0  0  0  0  0  0  0
   42.5824   16.0244    1.1191 H   0  0  0  0  0  0  0  0  0  0  0  0
   46.2008   15.2907    3.6889 O   0  0  0  0  0  0  0  0  0  0  0  0
   47.4426   15.9693    3.5093 C   0  0  0  0  0  0  0  0  0  0  0  0
   47.5107   17.1919    4.3974 C   0  0  0  0  0  0  0  0  0  0  0  0
   48.4926   17.5750    5.0168 O   0  0  0  0  0  0  0  0  0  0  0  0
   46.3345   17.8434    4.5209 O   0  0  0  0  0  0  0  0  0  0  0  0
   45.5832   17.5481    4.0452 H   0  0  0  0  0  0  0  0  0  0  0  0
   47.1208   10.7402   -3.0043 N   0  0  0  0  0  0  0  0  0  0  0  0
   47.0655    9.9458   -3.5832 H   0  0  0  0  0  0  0  0  0  0  0  0
   48.5548   14.0116   -5.7405 C   0  0  0  0  0  0  0  0  0  0  0  0
   48.3094   14.2172   -4.2342 C   0  0  0  0  0  0  0  0  0  0  0  0
   47.6201   15.5959   -4.0857 C   0  0  0  0  0  0  0  0  0  0  0  0
   47.3579   13.1327   -3.6785 C   0  0  0  0  0  0  0  0  0  0  0  0
   48.0435   11.7802   -3.4657 C   0  0  0  0  0  0  0  0  0  0  0  0
   49.3007   11.8710   -2.5940 C   0  0  0  0  0  0  0  0  0  0  0  0
   50.3268   12.9027   -3.1125 C   0  0  0  0  0  0  0  0  0  0  0  0
   51.0953   12.3474   -4.3274 C   0  0  0  0  0  0  0  0  0  0  0  0
   51.3776   13.1468   -2.0017 C   0  0  0  0  0  0  0  0  0  0  0  0
   49.6316   14.2545   -3.4225 C   0  0  0  0  0  0  0  0  0  0  0  0
 25 26  1  0
 26 27  1  0
 26 28  1  0
 28 29  1  0
 29 23  1  0
 23  1  1  0
  1  2  2  0
  2  3  1  0
  3  4  2  0
  4  5  1  0
  5  7  1  0
  7  8  1  0
  8  9  1  0
  9 13  1  0
 13 14  2  0
 13 15  1  0
  9 10  2  0
 10 17  1  0
 17 18  1  0
 18 19  1  0
 19 20  2  0
 19 21  1  0
 10 11  1  0
 11 12  1  0
  5  6  2  0
 29 30  1  0
 30 31  1  0
 31 32  1  0
 31 33  1  0
 31 34  1  0
 34 26  1  0
  6  1  1  0
 11  7  2  0
 23 24  1  0
 15 16  1  0
 21 22  1  0
M  END
> <minimizedAffinity>
-7.75877

> <CNNscore>
0.8076997399

> <CNNaffinity>
6.3984780312

> <CNN_VS>
5.1680488586

> <CNNaffinity_variance>
0.0997812822

$$$$
