


 26 27  0  0  0  0  0  0  0  0999 V2000
   -7.3016   15.1434   19.9985 C   0  0  0  0  0  0  0  0  0  0  0  0
   -7.4696   15.5194   21.4771 C   0  0  0  0  0  0  0  0  0  0  0  0
   -8.6246   14.6577   21.9295 C   0  0  0  0  0  0  0  0  0  0  0  0
   -9.8580   15.3366   21.7276 O   0  0  0  0  0  0  0  0  0  0  0  0
  -10.9954   14.5487   22.0992 C   0  0  0  0  0  0  0  0  0  0  0  0
  -10.8659   13.0542   21.7461 C   0  0  0  0  0  0  0  0  0  0  0  0
  -12.1449   12.5346   21.3668 O   0  0  0  0  0  0  0  0  0  0  0  0
   -9.8606   12.8575   20.6063 C   0  0  0  0  0  0  0  0  0  0  0  0
  -10.3707   13.4873   19.4229 O   0  0  0  0  0  0  0  0  0  0  0  0
   -8.4981   13.4215   21.0409 C   0  0  0  0  0  0  0  0  0  0  0  0
   -7.6567   13.7500   19.9219 O   0  0  0  0  0  0  0  0  0  0  0  0
  -12.4693   13.0114   20.5869 H   0  0  0  0  0  0  0  0  0  0  0  0
  -10.5083   14.4323   19.5932 H   0  0  0  0  0  0  0  0  0  0  0  0
   -8.1969   16.0466   19.1209 C   0  0  0  0  0  0  0  0  0  0  0  0
   -9.4116   16.1596   19.1928 O   0  0  0  0  0  0  0  0  0  0  0  0
   -7.5051   16.8212   18.2602 O   0  0  0  0  0  0  0  0  0  0  0  0
   -6.5736   16.7391   18.2007 H   0  0  0  0  0  0  0  0  0  0  0  0
   -5.8352   15.3487   19.5569 C   0  0  0  0  0  0  0  0  0  0  0  0
   -5.9757   13.5171   17.8830 N   0  0  0  0  0  0  0  0  0  0  0  0
   -5.5074   14.8975   18.1222 C   0  0  0  0  0  0  0  0  0  0  0  0
   -6.9791   13.4633   18.0581 H   0  0  0  0  0  0  0  0  0  0  0  0
   -5.4864   12.8786   18.5100 H   0  0  0  0  0  0  0  0  0  0  0  0
   -3.9975   14.9768   17.8582 C   0  0  0  0  0  0  0  0  0  0  0  0
   -3.2850   14.1180   17.3627 O   0  0  0  0  0  0  0  0  0  0  0  0
   -3.4516   16.1370   18.2948 O   0  0  0  0  0  0  0  0  0  0  0  0
   -3.9968   16.7973   18.6754 H   0  0  0  0  0  0  0  0  0  0  0  0
 20 19  1  0
 20 18  1  0
  1 18  1  0
  1 14  1  0
 14 15  2  0
 14 16  1  0
  1  2  1  0
  3  2  1  0
  3  4  1  0
  4  5  1  0
  5  6  1  0
  6  7  1  0
  6  8  1  0
  8  9  1  0
  8 10  1  0
 10 11  1  0
 20 23  1  0
 23 24  2  0
 23 25  1  0
 11  1  1  0
 10  3  1  0
 19 21  1  0
 19 22  1  0
 16 17  1  0
  7 12  1  0
  9 13  1  0
 25 26  1  0
M  END
> <minimizedAffinity>
-9.20444

> <CNNscore>
0.9854610562

> <CNNaffinity>
7.0571742058

> <CNN_VS>
6.9545702934

> <CNNaffinity_variance>
0.8199610710

$$$$



 26 27  0  0  0  0  0  0  0  0999 V2000
   -7.4729   15.9238   19.5069 C   0  0  0  0  0  0  0  0  0  0  0  0
   -7.6353   14.4658   19.9579 C   0  0  0  0  0  0  0  0  0  0  0  0
   -9.0229   14.4351   20.5536 C   0  0  0  0  0  0  0  0  0  0  0  0
   -8.9737   14.7462   21.9405 O   0  0  0  0  0  0  0  0  0  0  0  0
  -10.2691   14.7750   22.5518 C   0  0  0  0  0  0  0  0  0  0  0  0
  -11.3706   15.3802   21.6598 C   0  0  0  0  0  0  0  0  0  0  0  0
  -12.3031   16.1055   22.4684 O   0  0  0  0  0  0  0  0  0  0  0  0
  -10.7574   16.3080   20.6055 C   0  0  0  0  0  0  0  0  0  0  0  0
  -10.1456   17.4236   21.2677 O   0  0  0  0  0  0  0  0  0  0  0  0
   -9.7635   15.5041   19.7518 C   0  0  0  0  0  0  0  0  0  0  0  0
   -8.7907   16.3424   19.1047 O   0  0  0  0  0  0  0  0  0  0  0  0
  -11.8424   16.8263   22.9258 H   0  0  0  0  0  0  0  0  0  0  0  0
   -9.4609   17.1031   21.8755 H   0  0  0  0  0  0  0  0  0  0  0  0
   -6.8939   16.7707   20.6624 C   0  0  0  0  0  0  0  0  0  0  0  0
   -6.0761   16.4066   21.4943 O   0  0  0  0  0  0  0  0  0  0  0  0
   -7.3110   18.0535   20.6545 O   0  0  0  0  0  0  0  0  0  0  0  0
   -7.9378   18.3384   20.0189 H   0  0  0  0  0  0  0  0  0  0  0  0
   -6.4949   16.0096   18.3136 C   0  0  0  0  0  0  0  0  0  0  0  0
   -6.0415   13.6580   18.9772 N   0  0  0  0  0  0  0  0  0  0  0  0
   -5.7235   14.7159   17.9966 C   0  0  0  0  0  0  0  0  0  0  0  0
   -7.0471   13.4875   18.9794 H   0  0  0  0  0  0  0  0  0  0  0  0
   -5.7451   13.9557   19.9067 H   0  0  0  0  0  0  0  0  0  0  0  0
   -4.2100   14.9712   17.9945 C   0  0  0  0  0  0  0  0  0  0  0  0
   -3.6285   15.9864   18.3436 O   0  0  0  0  0  0  0  0  0  0  0  0
   -3.5060   13.9303   17.4889 O   0  0  0  0  0  0  0  0  0  0  0  0
   -3.9505   13.1504   17.2205 H   0  0  0  0  0  0  0  0  0  0  0  0
 20 19  1  0
 20 18  1  0
  1 18  1  0
  1 14  1  0
 14 15  2  0
 14 16  1  0
  1  2  1  0
  3  2  1  0
  3  4  1  0
  4  5  1  0
  5  6  1  0
  6  7  1  0
  6  8  1  0
  8  9  1  0
  8 10  1  0
 10 11  1  0
 20 23  1  0
 23 24  2  0
 23 25  1  0
 11  1  1  0
 10  3  1  0
 19 21  1  0
 19 22  1  0
 16 17  1  0
  7 12  1  0
  9 13  1  0
 25 26  1  0
M  END
> <minimizedAffinity>
-8.31546

> <CNNscore>
0.7340928912

> <CNNaffinity>
6.4862132072

> <CNN_VS>
4.7614831924

> <CNNaffinity_variance>
1.1584649086

$$$$



 26 27  0  0  0  0  0  0  0  0999 V2000
   -7.1578   15.2161   20.7092 C   0  0  0  0  0  0  0  0  0  0  0  0
   -6.9350   13.8406   20.0657 C   0  0  0  0  0  0  0  0  0  0  0  0
   -8.3373   13.3225   19.8502 C   0  0  0  0  0  0  0  0  0  0  0  0
   -8.7786   12.5979   20.9917 O   0  0  0  0  0  0  0  0  0  0  0  0
  -10.1222   12.1179   20.8622 C   0  0  0  0  0  0  0  0  0  0  0  0
  -11.0738   13.1001   20.1516 C   0  0  0  0  0  0  0  0  0  0  0  0
  -12.3803   13.0114   20.7302 O   0  0  0  0  0  0  0  0  0  0  0  0
  -10.5461   14.5344   20.2644 C   0  0  0  0  0  0  0  0  0  0  0  0
  -10.5540   14.9252   21.6445 O   0  0  0  0  0  0  0  0  0  0  0  0
   -9.1453   14.6010   19.6347 C   0  0  0  0  0  0  0  0  0  0  0  0
   -8.3753   15.7132   20.1225 O   0  0  0  0  0  0  0  0  0  0  0  0
  -12.3345   13.2477   21.6698 H   0  0  0  0  0  0  0  0  0  0  0  0
   -9.9959   14.3184   22.1556 H   0  0  0  0  0  0  0  0  0  0  0  0
   -7.2397   15.0714   22.2453 C   0  0  0  0  0  0  0  0  0  0  0  0
   -8.0122   14.3601   22.8704 O   0  0  0  0  0  0  0  0  0  0  0  0
   -6.2886   15.7639   22.9052 O   0  0  0  0  0  0  0  0  0  0  0  0
   -5.6936   16.3109   22.4313 H   0  0  0  0  0  0  0  0  0  0  0  0
   -5.9790   16.1591   20.3792 C   0  0  0  0  0  0  0  0  0  0  0  0
   -7.1084   16.7382   18.2425 N   0  0  0  0  0  0  0  0  0  0  0  0
   -5.8016   16.4992   18.8885 C   0  0  0  0  0  0  0  0  0  0  0  0
   -7.5957   17.4906   18.7291 H   0  0  0  0  0  0  0  0  0  0  0  0
   -7.6690   15.8871   18.2843 H   0  0  0  0  0  0  0  0  0  0  0  0
   -5.0696   15.3668   18.1552 C   0  0  0  0  0  0  0  0  0  0  0  0
   -5.5610   14.3660   17.6576 O   0  0  0  0  0  0  0  0  0  0  0  0
   -3.7260   15.5376   18.1405 O   0  0  0  0  0  0  0  0  0  0  0  0
   -3.3471   16.3050   18.5219 H   0  0  0  0  0  0  0  0  0  0  0  0
 20 19  1  0
 20 18  1  0
  1 18  1  0
  1 14  1  0
 14 15  2  0
 14 16  1  0
  1  2  1  0
  3  2  1  0
  3  4  1  0
  4  5  1  0
  5  6  1  0
  6  7  1  0
  6  8  1  0
  8  9  1  0
  8 10  1  0
 10 11  1  0
 20 23  1  0
 23 24  2  0
 23 25  1  0
 11  1  1  0
 10  3  1  0
 19 21  1  0
 19 22  1  0
 16 17  1  0
  7 12  1  0
  9 13  1  0
 25 26  1  0
M  END
> <minimizedAffinity>
-4.97375

> <CNNscore>
0.4110819101

> <CNNaffinity>
5.6689071655

> <CNN_VS>
2.3303852081

> <CNNaffinity_variance>
1.3913874626

$$$$



 26 27  0  0  0  0  0  0  0  0999 V2000
   -2.7018   22.6147   11.4609 C   0  0  0  0  0  0  0  0  0  0  0  0
   -1.7479   22.2116   10.3280 C   0  0  0  0  0  0  0  0  0  0  0  0
   -2.0340   23.2294    9.2494 C   0  0  0  0  0  0  0  0  0  0  0  0
   -3.0726   22.7670    8.3948 O   0  0  0  0  0  0  0  0  0  0  0  0
   -3.4181   23.7124    7.3753 C   0  0  0  0  0  0  0  0  0  0  0  0
   -3.3974   25.1795    7.8469 C   0  0  0  0  0  0  0  0  0  0  0  0
   -4.4359   25.9133    7.1892 O   0  0  0  0  0  0  0  0  0  0  0  0
   -3.5812   25.2570    9.3663 C   0  0  0  0  0  0  0  0  0  0  0  0
   -4.8863   24.7659    9.7021 O   0  0  0  0  0  0  0  0  0  0  0  0
   -2.4534   24.4638   10.0459 C   0  0  0  0  0  0  0  0  0  0  0  0
   -2.7986   24.0491   11.3788 O   0  0  0  0  0  0  0  0  0  0  0  0
   -5.2968   25.5268    7.4135 H   0  0  0  0  0  0  0  0  0  0  0  0
   -4.9753   23.8494    9.3970 H   0  0  0  0  0  0  0  0  0  0  0  0
   -4.0618   21.9037   11.2816 C   0  0  0  0  0  0  0  0  0  0  0  0
   -5.1550   22.3220   11.6331 O   0  0  0  0  0  0  0  0  0  0  0  0
   -3.9806   20.7463   10.5936 O   0  0  0  0  0  0  0  0  0  0  0  0
   -3.1451   20.4207   10.3215 H   0  0  0  0  0  0  0  0  0  0  0  0
   -2.1178   22.1936   12.8281 C   0  0  0  0  0  0  0  0  0  0  0  0
   -4.0390   20.9809   13.8355 N   0  0  0  0  0  0  0  0  0  0  0  0
   -2.6375   20.8562   13.3855 C   0  0  0  0  0  0  0  0  0  0  0  0
   -4.6186   21.2980   13.0584 H   0  0  0  0  0  0  0  0  0  0  0  0
   -4.0926   21.6567   14.5975 H   0  0  0  0  0  0  0  0  0  0  0  0
   -1.7666   20.3790   14.5558 C   0  0  0  0  0  0  0  0  0  0  0  0
   -1.0656   21.0622   15.2855 O   0  0  0  0  0  0  0  0  0  0  0  0
   -1.7867   19.0330   14.7062 O   0  0  0  0  0  0  0  0  0  0  0  0
   -2.3241   18.5071   14.1471 H   0  0  0  0  0  0  0  0  0  0  0  0
 20 19  1  0
 20 18  1  0
  1 18  1  0
  1 14  1  0
 14 15  2  0
 14 16  1  0
  1  2  1  0
  3  2  1  0
  3  4  1  0
  4  5  1  0
  5  6  1  0
  6  7  1  0
  6  8  1  0
  8  9  1  0
  8 10  1  0
 10 11  1  0
 20 23  1  0
 23 24  2  0
 23 25  1  0
 11  1  1  0
 10  3  1  0
 19 21  1  0
 19 22  1  0
 16 17  1  0
  7 12  1  0
  9 13  1  0
 25 26  1  0
M  END
> <minimizedAffinity>
-3.57412

> <CNNscore>
0.3596406579

> <CNNaffinity>
3.5784690380

> <CNN_VS>
1.2869629860

> <CNNaffinity_variance>
0.6645547748

$$$$



 26 27  0  0  0  0  0  0  0  0999 V2000
   -9.4577   14.5410   20.1691 C   0  0  0  0  0  0  0  0  0  0  0  0
   -8.5821   13.7568   19.1823 C   0  0  0  0  0  0  0  0  0  0  0  0
   -7.1877   14.2583   19.4749 C   0  0  0  0  0  0  0  0  0  0  0  0
   -6.8904   15.3931   18.6709 O   0  0  0  0  0  0  0  0  0  0  0  0
   -5.5934   15.9404   18.9367 C   0  0  0  0  0  0  0  0  0  0  0  0
   -5.1966   15.9196   20.4258 C   0  0  0  0  0  0  0  0  0  0  0  0
   -4.4228   17.0834   20.7361 O   0  0  0  0  0  0  0  0  0  0  0  0
   -6.4452   15.8677   21.3127 C   0  0  0  0  0  0  0  0  0  0  0  0
   -7.1935   17.0782   21.1332 O   0  0  0  0  0  0  0  0  0  0  0  0
   -7.2549   14.6093   20.9603 C   0  0  0  0  0  0  0  0  0  0  0  0
   -8.6376   14.7210   21.3390 O   0  0  0  0  0  0  0  0  0  0  0  0
   -4.9521   17.8784   20.5664 H   0  0  0  0  0  0  0  0  0  0  0  0
   -7.4446   17.1677   20.2006 H   0  0  0  0  0  0  0  0  0  0  0  0
   -9.9048   15.8752   19.5306 C   0  0  0  0  0  0  0  0  0  0  0  0
  -10.2966   16.0399   18.3849 O   0  0  0  0  0  0  0  0  0  0  0  0
   -9.9156   16.9113   20.3944 O   0  0  0  0  0  0  0  0  0  0  0  0
   -9.6164   16.7910   21.2742 H   0  0  0  0  0  0  0  0  0  0  0  0
  -10.7251   13.7305   20.5217 C   0  0  0  0  0  0  0  0  0  0  0  0
  -12.0351   12.4843   22.2268 N   0  0  0  0  0  0  0  0  0  0  0  0
  -10.9310   13.4435   22.0199 C   0  0  0  0  0  0  0  0  0  0  0  0
  -11.8369   11.6228   21.7179 H   0  0  0  0  0  0  0  0  0  0  0  0
  -12.9061   12.8892   21.8834 H   0  0  0  0  0  0  0  0  0  0  0  0
  -11.2308   14.7393   22.7861 C   0  0  0  0  0  0  0  0  0  0  0  0
  -12.2336   15.4315   22.7091 O   0  0  0  0  0  0  0  0  0  0  0  0
  -10.2036   15.1256   23.5800 O   0  0  0  0  0  0  0  0  0  0  0  0
   -9.4332   14.5957   23.6404 H   0  0  0  0  0  0  0  0  0  0  0  0
 20 19  1  0
 20 18  1  0
  1 18  1  0
  1 14  1  0
 14 15  2  0
 14 16  1  0
  1  2  1  0
  3  2  1  0
  3  4  1  0
  4  5  1  0
  5  6  1  0
  6  7  1  0
  6  8  1  0
  8  9  1  0
  8 10  1  0
 10 11  1  0
 20 23  1  0
 23 24  2  0
 23 25  1  0
 11  1  1  0
 10  3  1  0
 19 21  1  0
 19 22  1  0
 16 17  1  0
  7 12  1  0
  9 13  1  0
 25 26  1  0
M  END
> <minimizedAffinity>
0.40409

> <CNNscore>
0.3560370505

> <CNNaffinity>
5.1146984100

> <CNN_VS>
1.8210221529

> <CNNaffinity_variance>
0.4806960523

$$$$



 26 27  0  0  0  0  0  0  0  0999 V2000
   -7.5691   14.6191   20.3980 C   0  0  0  0  0  0  0  0  0  0  0  0
   -8.3375   13.4107   20.9500 C   0  0  0  0  0  0  0  0  0  0  0  0
   -9.7238   13.9580   21.1948 C   0  0  0  0  0  0  0  0  0  0  0  0
   -9.8224   14.4866   22.5115 O   0  0  0  0  0  0  0  0  0  0  0  0
  -11.1057   15.0609   22.7871 C   0  0  0  0  0  0  0  0  0  0  0  0
  -11.7206   15.8234   21.5973 C   0  0  0  0  0  0  0  0  0  0  0  0
  -12.4536   16.9561   22.0759 O   0  0  0  0  0  0  0  0  0  0  0  0
  -10.6244   16.2790   20.6281 C   0  0  0  0  0  0  0  0  0  0  0  0
   -9.7797   17.2274   21.2946 O   0  0  0  0  0  0  0  0  0  0  0  0
   -9.8560   15.0446   20.1291 C   0  0  0  0  0  0  0  0  0  0  0  0
   -8.5409   15.3726   19.6487 O   0  0  0  0  0  0  0  0  0  0  0  0
  -11.8537   17.5524   22.5508 H   0  0  0  0  0  0  0  0  0  0  0  0
   -9.3869   16.8147   22.0797 H   0  0  0  0  0  0  0  0  0  0  0  0
   -6.9449   15.4220   21.5613 C   0  0  0  0  0  0  0  0  0  0  0  0
   -6.3621   16.4928   21.4779 O   0  0  0  0  0  0  0  0  0  0  0  0
   -7.1641   14.8750   22.7748 O   0  0  0  0  0  0  0  0  0  0  0  0
   -7.6104   14.0541   22.8450 H   0  0  0  0  0  0  0  0  0  0  0  0
   -6.4247   14.1489   19.4724 C   0  0  0  0  0  0  0  0  0  0  0  0
   -6.2433   16.4142   18.4666 N   0  0  0  0  0  0  0  0  0  0  0  0
   -5.4790   15.2568   18.9749 C   0  0  0  0  0  0  0  0  0  0  0  0
   -6.8566   16.7660   19.2017 H   0  0  0  0  0  0  0  0  0  0  0  0
   -6.8041   16.1257   17.6649 H   0  0  0  0  0  0  0  0  0  0  0  0
   -4.5566   14.7286   17.8677 C   0  0  0  0  0  0  0  0  0  0  0  0
   -3.6100   15.3035   17.3537 O   0  0  0  0  0  0  0  0  0  0  0  0
   -4.9233   13.5025   17.4238 O   0  0  0  0  0  0  0  0  0  0  0  0
   -5.6494   13.0598   17.8170 H   0  0  0  0  0  0  0  0  0  0  0  0
 20 19  1  0
 20 18  1  0
  1 18  1  0
  1 14  1  0
 14 15  2  0
 14 16  1  0
  1  2  1  0
  3  2  1  0
  3  4  1  0
  4  5  1  0
  5  6  1  0
  6  7  1  0
  6  8  1  0
  8  9  1  0
  8 10  1  0
 10 11  1  0
 20 23  1  0
 23 24  2  0
 23 25  1  0
 11  1  1  0
 10  3  1  0
 19 21  1  0
 19 22  1  0
 16 17  1  0
  7 12  1  0
  9 13  1  0
 25 26  1  0
M  END
> <minimizedAffinity>
-7.42073

> <CNNscore>
0.2287098467

> <CNNaffinity>
5.7679653168

> <CNN_VS>
1.3191905022

> <CNNaffinity_variance>
0.6262387633

$$$$



 26 27  0  0  0  0  0  0  0  0999 V2000
   -3.8095   21.3195    9.5783 C   0  0  0  0  0  0  0  0  0  0  0  0
   -4.7877   22.5005    9.5140 C   0  0  0  0  0  0  0  0  0  0  0  0
   -6.0883   21.8567    9.0954 C   0  0  0  0  0  0  0  0  0  0  0  0
   -6.1943   21.8305    7.6774 O   0  0  0  0  0  0  0  0  0  0  0  0
   -7.3913   21.1902    7.2195 C   0  0  0  0  0  0  0  0  0  0  0  0
   -7.8018   19.9590    8.0507 C   0  0  0  0  0  0  0  0  0  0  0  0
   -8.3853   18.9707    7.1950 O   0  0  0  0  0  0  0  0  0  0  0  0
   -6.5864   19.3728    8.7770 C   0  0  0  0  0  0  0  0  0  0  0  0
   -5.6546   18.8830    7.8028 O   0  0  0  0  0  0  0  0  0  0  0  0
   -5.9820   20.4529    9.6888 C   0  0  0  0  0  0  0  0  0  0  0  0
   -4.6030   20.1965   10.0057 O   0  0  0  0  0  0  0  0  0  0  0  0
   -7.7354   18.6943    6.5301 H   0  0  0  0  0  0  0  0  0  0  0  0
   -5.3827   19.6102    7.2212 H   0  0  0  0  0  0  0  0  0  0  0  0
   -3.1507   21.1061    8.1970 C   0  0  0  0  0  0  0  0  0  0  0  0
   -3.2659   20.1245    7.4782 O   0  0  0  0  0  0  0  0  0  0  0  0
   -2.4538   22.1749    7.7592 O   0  0  0  0  0  0  0  0  0  0  0  0
   -2.3621   22.9303    8.3059 H   0  0  0  0  0  0  0  0  0  0  0  0
   -2.6897   21.6068   10.6036 C   0  0  0  0  0  0  0  0  0  0  0  0
   -2.1248   23.4932   12.1197 N   0  0  0  0  0  0  0  0  0  0  0  0
   -3.1130   22.4339   11.8307 C   0  0  0  0  0  0  0  0  0  0  0  0
   -2.0181   24.0913   11.3004 H   0  0  0  0  0  0  0  0  0  0  0  0
   -1.2269   23.0671   12.3490 H   0  0  0  0  0  0  0  0  0  0  0  0
   -3.2725   21.5348   13.0645 C   0  0  0  0  0  0  0  0  0  0  0  0
   -2.3857   21.0107   13.7200 O   0  0  0  0  0  0  0  0  0  0  0  0
   -4.5699   21.2979   13.3734 O   0  0  0  0  0  0  0  0  0  0  0  0
   -5.2518   21.6993   12.8715 H   0  0  0  0  0  0  0  0  0  0  0  0
 20 19  1  0
 20 18  1  0
  1 18  1  0
  1 14  1  0
 14 15  2  0
 14 16  1  0
  1  2  1  0
  3  2  1  0
  3  4  1  0
  4  5  1  0
  5  6  1  0
  6  7  1  0
  6  8  1  0
  8  9  1  0
  8 10  1  0
 10 11  1  0
 20 23  1  0
 23 24  2  0
 23 25  1  0
 11  1  1  0
 10  3  1  0
 19 21  1  0
 19 22  1  0
 16 17  1  0
  7 12  1  0
  9 13  1  0
 25 26  1  0
M  END
> <minimizedAffinity>
-4.89968

> <CNNscore>
0.2087583095

> <CNNaffinity>
3.6845216751

> <CNN_VS>
0.7691745162

> <CNNaffinity_variance>
0.2332763523

$$$$



 26 27  0  0  0  0  0  0  0  0999 V2000
   -3.9870   23.5882    9.0620 C   0  0  0  0  0  0  0  0  0  0  0  0
   -5.4478   23.2671    9.4064 C   0  0  0  0  0  0  0  0  0  0  0  0
   -5.3624   22.6981   10.8029 C   0  0  0  0  0  0  0  0  0  0  0  0
   -5.1765   21.2889   10.7533 O   0  0  0  0  0  0  0  0  0  0  0  0
   -5.0445   20.6979   12.0516 C   0  0  0  0  0  0  0  0  0  0  0  0
   -4.2396   21.5515   13.0509 C   0  0  0  0  0  0  0  0  0  0  0  0
   -3.4784   20.6982   13.9122 O   0  0  0  0  0  0  0  0  0  0  0  0
   -3.3067   22.5123   12.3058 C   0  0  0  0  0  0  0  0  0  0  0  0
   -2.3315   21.7469   11.5844 O   0  0  0  0  0  0  0  0  0  0  0  0
   -4.1493   23.4164   11.3916 C   0  0  0  0  0  0  0  0  0  0  0  0
   -3.3820   23.9736   10.3106 O   0  0  0  0  0  0  0  0  0  0  0  0
   -2.8586   20.1733   13.3819 H   0  0  0  0  0  0  0  0  0  0  0  0
   -2.7812   21.1584   10.9580 H   0  0  0  0  0  0  0  0  0  0  0  0
   -3.3150   22.3552    8.4175 C   0  0  0  0  0  0  0  0  0  0  0  0
   -2.4032   21.6921    8.8890 O   0  0  0  0  0  0  0  0  0  0  0  0
   -3.8852   21.9739    7.2559 O   0  0  0  0  0  0  0  0  0  0  0  0
   -4.5847   22.4784    6.8896 H   0  0  0  0  0  0  0  0  0  0  0  0
   -3.9190   24.7542    8.0503 C   0  0  0  0  0  0  0  0  0  0  0  0
   -4.4378   27.1845    8.0801 N   0  0  0  0  0  0  0  0  0  0  0  0
   -3.5741   26.1297    8.6488 C   0  0  0  0  0  0  0  0  0  0  0  0
   -5.4161   26.9515    8.2506 H   0  0  0  0  0  0  0  0  0  0  0  0
   -4.2747   27.2526    7.0755 H   0  0  0  0  0  0  0  0  0  0  0  0
   -2.1024   26.4818    8.3913 C   0  0  0  0  0  0  0  0  0  0  0  0
   -1.6524   27.1804    7.4969 O   0  0  0  0  0  0  0  0  0  0  0  0
   -1.2606   25.8742    9.2614 O   0  0  0  0  0  0  0  0  0  0  0  0
   -1.6042   25.3377    9.9485 H   0  0  0  0  0  0  0  0  0  0  0  0
 20 19  1  0
 20 18  1  0
  1 18  1  0
  1 14  1  0
 14 15  2  0
 14 16  1  0
  1  2  1  0
  3  2  1  0
  3  4  1  0
  4  5  1  0
  5  6  1  0
  6  7  1  0
  6  8  1  0
  8  9  1  0
  8 10  1  0
 10 11  1  0
 20 23  1  0
 23 24  2  0
 23 25  1  0
 11  1  1  0
 10  3  1  0
 19 21  1  0
 19 22  1  0
 16 17  1  0
  7 12  1  0
  9 13  1  0
 25 26  1  0
M  END
> <minimizedAffinity>
-5.16084

> <CNNscore>
0.1964745969

> <CNNaffinity>
2.8697044849

> <CNN_VS>
0.5638240576

> <CNNaffinity_variance>
0.6567336917

$$$$



 26 27  0  0  0  0  0  0  0  0999 V2000
  -16.9506    7.5760   28.7043 C   0  0  0  0  0  0  0  0  0  0  0  0
  -16.0327    8.6395   29.3223 C   0  0  0  0  0  0  0  0  0  0  0  0
  -15.1730    9.0790   28.1608 C   0  0  0  0  0  0  0  0  0  0  0  0
  -14.0042    8.2731   28.0766 O   0  0  0  0  0  0  0  0  0  0  0  0
  -13.1692    8.6164   26.9643 C   0  0  0  0  0  0  0  0  0  0  0  0
  -13.9471    8.9901   25.6874 C   0  0  0  0  0  0  0  0  0  0  0  0
  -13.2316    8.5335   24.5345 O   0  0  0  0  0  0  0  0  0  0  0  0
  -15.3493    8.3724   25.7137 C   0  0  0  0  0  0  0  0  0  0  0  0
  -15.2282    6.9435   25.6833 O   0  0  0  0  0  0  0  0  0  0  0  0
  -16.0944    8.8806   26.9585 C   0  0  0  0  0  0  0  0  0  0  0  0
  -17.1703    8.0101   27.3490 O   0  0  0  0  0  0  0  0  0  0  0  0
  -13.1404    7.5685   24.5718 H   0  0  0  0  0  0  0  0  0  0  0  0
  -14.7134    6.6463   26.4497 H   0  0  0  0  0  0  0  0  0  0  0  0
  -16.2815    6.1862   28.7951 C   0  0  0  0  0  0  0  0  0  0  0  0
  -16.6129    5.1767   28.1914 O   0  0  0  0  0  0  0  0  0  0  0  0
  -15.1806    6.1658   29.5744 O   0  0  0  0  0  0  0  0  0  0  0  0
  -14.9217    6.9368   30.0397 H   0  0  0  0  0  0  0  0  0  0  0  0
  -18.2904    7.5134   29.4717 C   0  0  0  0  0  0  0  0  0  0  0  0
  -18.4561    6.9818   31.8937 N   0  0  0  0  0  0  0  0  0  0  0  0
  -18.2557    8.0642   30.9086 C   0  0  0  0  0  0  0  0  0  0  0  0
  -17.7403    6.2668   31.7636 H   0  0  0  0  0  0  0  0  0  0  0  0
  -19.3786    6.5675   31.7608 H   0  0  0  0  0  0  0  0  0  0  0  0
  -19.3334    9.1391   31.1057 C   0  0  0  0  0  0  0  0  0  0  0  0
  -20.1981    9.1734   31.9670 O   0  0  0  0  0  0  0  0  0  0  0  0
  -19.2928   10.0998   30.1517 O   0  0  0  0  0  0  0  0  0  0  0  0
  -18.6300   10.0752   29.4899 H   0  0  0  0  0  0  0  0  0  0  0  0
 20 19  1  0
 20 18  1  0
  1 18  1  0
  1 14  1  0
 14 15  2  0
 14 16  1  0
  1  2  1  0
  3  2  1  0
  3  4  1  0
  4  5  1  0
  5  6  1  0
  6  7  1  0
  6  8  1  0
  8  9  1  0
  8 10  1  0
 10 11  1  0
 20 23  1  0
 23 24  2  0
 23 25  1  0
 11  1  1  0
 10  3  1  0
 19 21  1  0
 19 22  1  0
 16 17  1  0
  7 12  1  0
  9 13  1  0
 25 26  1  0
M  END
> <minimizedAffinity>
-2.07936

> <CNNscore>
0.1580821574

> <CNNaffinity>
3.3780899048

> <CNN_VS>
0.5340157151

> <CNNaffinity_variance>
0.2182675749

$$$$
