


 48 52  0  0  0  0  0  0  0  0999 V2000
   13.6233   21.5247    6.3578 N   0  0  0  0  0  0  0  0  0  0  0  0
   14.5916   22.2609    7.2092 C   0  0  0  0  0  0  0  0  0  0  0  0
   14.5013   23.8006    7.0474 C   0  0  0  0  0  0  0  0  0  0  0  0
   13.0693   24.3823    7.2061 C   0  0  0  0  0  0  0  0  0  0  0  0
   12.1334   24.1746    5.9723 C   0  0  0  0  0  0  0  0  0  0  0  0
   11.4794   22.8236    5.8060 N   0  0  0  0  0  0  0  0  0  0  0  0
   11.9964   21.4971    6.6942 S   0  0  0  0  0  0  0  0  0  0  0  0
   11.4315   20.3083    6.1045 O   0  0  0  0  0  0  0  0  0  0  0  0
   11.7735   21.7960    8.0874 O   0  0  0  0  0  0  0  0  0  0  0  0
   15.3882   24.3916    8.0195 O   0  0  0  0  0  0  0  0  0  0  0  0
   16.7612   24.1400    7.7489 C   0  0  0  0  0  0  0  0  0  0  0  0
   13.1420   25.8183    7.4078 O   0  0  0  0  0  0  0  0  0  0  0  0
   11.9736   26.3556    8.0168 C   0  0  0  0  0  0  0  0  0  0  0  0
   14.0854   21.1164    5.0224 C   0  0  0  0  0  0  0  0  0  0  0  0
   17.1522   19.1163    3.9658 C   0  0  0  0  0  0  0  0  0  0  0  0
   18.0121   19.3264    5.0468 C   0  0  0  0  0  0  0  0  0  0  0  0
   17.5971   20.1031    6.1289 C   0  0  0  0  0  0  0  0  0  0  0  0
   16.3270   20.6824    6.1292 C   0  0  0  0  0  0  0  0  0  0  0  0
   15.4639   20.5065    5.0378 C   0  0  0  0  0  0  0  0  0  0  0  0
   15.8923   19.7246    3.9550 C   0  0  0  0  0  0  0  0  0  0  0  0
   16.9217   16.9652    0.8718 C   0  0  0  0  0  0  0  0  0  0  0  0
   16.6317   17.8946    1.9323 N   0  0  0  0  0  0  0  0  0  0  0  0
   17.6035   18.2524    2.8425 C   0  0  0  0  0  0  0  0  0  0  0  0
   18.7677   17.8755    2.7838 O   0  0  0  0  0  0  0  0  0  0  0  0
   15.7287   18.2793    2.0085 H   0  0  0  0  0  0  0  0  0  0  0  0
   14.5553   21.7662    8.6781 C   0  0  0  0  0  0  0  0  0  0  0  0
   15.8988   21.6574    9.1713 O   0  0  0  0  0  0  0  0  0  0  0  0
   16.2801   20.4308    9.6416 C   0  0  0  0  0  0  0  0  0  0  0  0
   17.6581   20.2665    9.8006 C   0  0  0  0  0  0  0  0  0  0  0  0
   18.1816   19.0617   10.2744 C   0  0  0  0  0  0  0  0  0  0  0  0
   17.3251   18.0102   10.5875 C   0  0  0  0  0  0  0  0  0  0  0  0
   15.9485   18.1623   10.4208 C   0  0  0  0  0  0  0  0  0  0  0  0
   15.4265   19.3692    9.9455 C   0  0  0  0  0  0  0  0  0  0  0  0
   12.7625   24.5403    4.6019 C   0  0  0  0  0  0  0  0  0  0  0  0
   12.2702   23.7684    3.5137 O   0  0  0  0  0  0  0  0  0  0  0  0
   11.0157   24.0281    3.0390 C   0  0  0  0  0  0  0  0  0  0  0  0
   10.7404   25.3863    2.8535 C   0  0  0  0  0  0  0  0  0  0  0  0
    9.5010   25.8044    2.3664 C   0  0  0  0  0  0  0  0  0  0  0  0
    8.5228   24.8623    2.0630 C   0  0  0  0  0  0  0  0  0  0  0  0
    8.7860   23.5069    2.2493 C   0  0  0  0  0  0  0  0  0  0  0  0
   10.0285   23.0891    2.7379 C   0  0  0  0  0  0  0  0  0  0  0  0
    9.9900   22.9181    5.7063 C   0  0  0  0  0  0  0  0  0  0  0  0
    9.3794   24.0488    6.5030 C   0  0  0  0  0  0  0  0  0  0  0  0
    9.2317   23.9294    7.8922 C   0  0  0  0  0  0  0  0  0  0  0  0
    8.7066   24.9800    8.6455 C   0  0  0  0  0  0  0  0  0  0  0  0
    8.3319   26.1671    8.0203 C   0  0  0  0  0  0  0  0  0  0  0  0
    8.4756   26.3017    6.6420 C   0  0  0  0  0  0  0  0  0  0  0  0
    9.0015   25.2514    5.8872 C   0  0  0  0  0  0  0  0  0  0  0  0
 21 22  1  0
 22 23  1  0
 23 24  2  0
 23 15  1  0
 15 16  2  0
 16 17  1  0
 17 18  2  0
 18 19  1  0
 19 14  1  0
 14  1  1  0
  1  2  1  0
  2 26  1  0
 26 27  1  0
 27 28  1  0
 28 29  2  0
 29 30  1  0
 30 31  2  0
 31 32  1  0
 32 33  2  0
  2  3  1  0
  3 10  1  0
 10 11  1  0
  3  4  1  0
  4 12  1  0
 12 13  1  0
  4  5  1  0
  5 34  1  0
 34 35  1  0
 35 36  1  0
 36 37  2  0
 37 38  1  0
 38 39  2  0
 39 40  1  0
 40 41  2  0
  5  6  1  0
  6 42  1  0
 42 43  1  0
 43 44  2  0
 44 45  1  0
 45 46  2  0
 46 47  1  0
 47 48  2  0
  6  7  1  0
  7  8  2  0
  7  9  2  0
 19 20  2  0
 20 15  1  0
  7  1  1  0
 33 28  1  0
 41 36  1  0
 48 43  1  0
 22 25  1  0
M  END
> <minimizedAffinity>
-6.92595

> <CNNscore>
0.4756819606

> <CNNaffinity>
7.7148642540

> <CNN_VS>
3.6698217392

> <CNNaffinity_variance>
0.4089907408

$$$$



 48 52  0  0  0  0  0  0  0  0999 V2000
   11.7864   24.6737    5.9718 N   0  0  0  0  0  0  0  0  0  0  0  0
   10.7836   23.6363    5.6211 C   0  0  0  0  0  0  0  0  0  0  0  0
   11.4072   22.3845    4.9509 C   0  0  0  0  0  0  0  0  0  0  0  0
   12.5990   21.7627    5.7303 C   0  0  0  0  0  0  0  0  0  0  0  0
   13.9497   22.5363    5.5955 C   0  0  0  0  0  0  0  0  0  0  0  0
   14.1412   23.7695    6.4460 N   0  0  0  0  0  0  0  0  0  0  0  0
   12.8456   24.4838    7.2377 S   0  0  0  0  0  0  0  0  0  0  0  0
   13.2541   25.7919    7.6873 O   0  0  0  0  0  0  0  0  0  0  0  0
   12.3276   23.5194    8.1767 O   0  0  0  0  0  0  0  0  0  0  0  0
   10.3561   21.4098    4.7900 O   0  0  0  0  0  0  0  0  0  0  0  0
    9.7473   21.4516    3.5057 C   0  0  0  0  0  0  0  0  0  0  0  0
   12.8619   20.4224    5.2380 O   0  0  0  0  0  0  0  0  0  0  0  0
   13.8783   19.7486    5.9713 C   0  0  0  0  0  0  0  0  0  0  0  0
   12.0544   25.7102    4.9632 C   0  0  0  0  0  0  0  0  0  0  0  0
    8.7094   26.4620    3.2995 C   0  0  0  0  0  0  0  0  0  0  0  0
    8.9219   25.9764    2.0067 C   0  0  0  0  0  0  0  0  0  0  0  0
   10.1428   25.3897    1.6728 C   0  0  0  0  0  0  0  0  0  0  0  0
   11.1594   25.2972    2.6251 C   0  0  0  0  0  0  0  0  0  0  0  0
   10.9726   25.8078    3.9179 C   0  0  0  0  0  0  0  0  0  0  0  0
    9.7414   26.3965    4.2419 C   0  0  0  0  0  0  0  0  0  0  0  0
    5.0647   26.5838    4.2768 C   0  0  0  0  0  0  0  0  0  0  0  0
    6.4164   26.1502    4.0368 N   0  0  0  0  0  0  0  0  0  0  0  0
    7.3858   27.0475    3.6415 C   0  0  0  0  0  0  0  0  0  0  0  0
    7.1983   28.2532    3.5331 O   0  0  0  0  0  0  0  0  0  0  0  0
    6.6514   25.2017    4.1564 H   0  0  0  0  0  0  0  0  0  0  0  0
    9.8404   23.3250    6.8114 C   0  0  0  0  0  0  0  0  0  0  0  0
   10.0801   24.2729    7.8621 O   0  0  0  0  0  0  0  0  0  0  0  0
    9.2139   25.3287    7.9425 C   0  0  0  0  0  0  0  0  0  0  0  0
    9.7544   26.5602    7.5649 C   0  0  0  0  0  0  0  0  0  0  0  0
    8.9769   27.7197    7.5992 C   0  0  0  0  0  0  0  0  0  0  0  0
    7.6513   27.6521    8.0182 C   0  0  0  0  0  0  0  0  0  0  0  0
    7.1073   26.4281    8.4077 C   0  0  0  0  0  0  0  0  0  0  0  0
    7.8878   25.2685    8.3733 C   0  0  0  0  0  0  0  0  0  0  0  0
   14.3413   22.9260    4.1455 C   0  0  0  0  0  0  0  0  0  0  0  0
   14.1576   21.8838    3.1956 O   0  0  0  0  0  0  0  0  0  0  0  0
   15.0715   20.8693    3.1489 C   0  0  0  0  0  0  0  0  0  0  0  0
   14.9271   20.0148    2.0516 C   0  0  0  0  0  0  0  0  0  0  0  0
   15.7937   18.9364    1.8665 C   0  0  0  0  0  0  0  0  0  0  0  0
   16.8136   18.7025    2.7839 C   0  0  0  0  0  0  0  0  0  0  0  0
   16.9624   19.5455    3.8831 C   0  0  0  0  0  0  0  0  0  0  0  0
   16.0930   20.6259    4.0678 C   0  0  0  0  0  0  0  0  0  0  0  0
   15.3753   23.6969    7.2879 C   0  0  0  0  0  0  0  0  0  0  0  0
   15.5998   22.3593    7.9562 C   0  0  0  0  0  0  0  0  0  0  0  0
   14.7422   21.9330    8.9803 C   0  0  0  0  0  0  0  0  0  0  0  0
   14.9133   20.6842    9.5788 C   0  0  0  0  0  0  0  0  0  0  0  0
   15.9380   19.8418    9.1538 C   0  0  0  0  0  0  0  0  0  0  0  0
   16.7956   20.2500    8.1358 C   0  0  0  0  0  0  0  0  0  0  0  0
   16.6251   21.4991    7.5356 C   0  0  0  0  0  0  0  0  0  0  0  0
 21 22  1  0
 22 23  1  0
 23 24  2  0
 23 15  1  0
 15 16  2  0
 16 17  1  0
 17 18  2  0
 18 19  1  0
 19 14  1  0
 14  1  1  0
  1  2  1  0
  2 26  1  0
 26 27  1  0
 27 28  1  0
 28 29  2  0
 29 30  1  0
 30 31  2  0
 31 32  1  0
 32 33  2  0
  2  3  1  0
  3 10  1  0
 10 11  1  0
  3  4  1  0
  4 12  1  0
 12 13  1  0
  4  5  1  0
  5 34  1  0
 34 35  1  0
 35 36  1  0
 36 37  2  0
 37 38  1  0
 38 39  2  0
 39 40  1  0
 40 41  2  0
  5  6  1  0
  6 42  1  0
 42 43  1  0
 43 44  2  0
 44 45  1  0
 45 46  2  0
 46 47  1  0
 47 48  2  0
  6  7  1  0
  7  8  2  0
  7  9  2  0
 19 20  2  0
 20 15  1  0
  7  1  1  0
 33 28  1  0
 41 36  1  0
 48 43  1  0
 22 25  1  0
M  END
> <minimizedAffinity>
-6.27054

> <CNNscore>
0.4378356040

> <CNNaffinity>
7.5795006752

> <CNN_VS>
3.3185751438

> <CNNaffinity_variance>
0.6217785478

$$$$



 48 52  0  0  0  0  0  0  0  0999 V2000
   13.6592   21.8953    5.6942 N   0  0  0  0  0  0  0  0  0  0  0  0
   14.6879   22.4986    6.5786 C   0  0  0  0  0  0  0  0  0  0  0  0
   14.4883   24.0206    6.7995 C   0  0  0  0  0  0  0  0  0  0  0  0
   13.0589   24.4234    7.2565 C   0  0  0  0  0  0  0  0  0  0  0  0
   11.9810   24.4227    6.1254 C   0  0  0  0  0  0  0  0  0  0  0  0
   11.3897   23.0939    5.7190 N   0  0  0  0  0  0  0  0  0  0  0  0
   12.0958   21.6496    6.2000 S   0  0  0  0  0  0  0  0  0  0  0  0
   11.5270   20.5827    5.4136 O   0  0  0  0  0  0  0  0  0  0  0  0
   12.0430   21.6011    7.6405 O   0  0  0  0  0  0  0  0  0  0  0  0
   15.4608   24.4484    7.7751 O   0  0  0  0  0  0  0  0  0  0  0  0
   16.7568   23.9105    7.5452 C   0  0  0  0  0  0  0  0  0  0  0  0
   13.0749   25.7758    7.7845 O   0  0  0  0  0  0  0  0  0  0  0  0
   11.8643   26.1318    8.4421 C   0  0  0  0  0  0  0  0  0  0  0  0
   13.9626   21.8453    4.2557 C   0  0  0  0  0  0  0  0  0  0  0  0
   16.7542   19.2626    4.4977 C   0  0  0  0  0  0  0  0  0  0  0  0
   16.6950   18.6642    3.2365 C   0  0  0  0  0  0  0  0  0  0  0  0
   15.7619   19.1047    2.2974 C   0  0  0  0  0  0  0  0  0  0  0  0
   14.8772   20.1355    2.6192 C   0  0  0  0  0  0  0  0  0  0  0  0
   14.9035   20.7253    3.8914 C   0  0  0  0  0  0  0  0  0  0  0  0
   15.8451   20.2735    4.8277 C   0  0  0  0  0  0  0  0  0  0  0  0
   18.4289   17.0620    7.0680 C   0  0  0  0  0  0  0  0  0  0  0  0
   17.5666   17.5614    6.0289 N   0  0  0  0  0  0  0  0  0  0  0  0
   17.7836   18.8017    5.4670 C   0  0  0  0  0  0  0  0  0  0  0  0
   18.7332   19.5230    5.7477 O   0  0  0  0  0  0  0  0  0  0  0  0
   16.8129   17.0108    5.7158 H   0  0  0  0  0  0  0  0  0  0  0  0
   14.8756   21.6796    7.8815 C   0  0  0  0  0  0  0  0  0  0  0  0
   15.9737   20.7710    7.7120 O   0  0  0  0  0  0  0  0  0  0  0  0
   16.5339   20.2690    8.8546 C   0  0  0  0  0  0  0  0  0  0  0  0
   15.7004   19.4276    9.5952 C   0  0  0  0  0  0  0  0  0  0  0  0
   16.1490   18.8467   10.7832 C   0  0  0  0  0  0  0  0  0  0  0  0
   17.4372   19.1106   11.2395 C   0  0  0  0  0  0  0  0  0  0  0  0
   18.2720   19.9587   10.5116 C   0  0  0  0  0  0  0  0  0  0  0  0
   17.8204   20.5399    9.3228 C   0  0  0  0  0  0  0  0  0  0  0  0
   12.4004   25.1458    4.8182 C   0  0  0  0  0  0  0  0  0  0  0  0
   11.9462   24.5074    3.6314 O   0  0  0  0  0  0  0  0  0  0  0  0
   10.6845   24.7774    3.1822 C   0  0  0  0  0  0  0  0  0  0  0  0
   10.0282   23.6802    2.6162 C   0  0  0  0  0  0  0  0  0  0  0  0
    8.7292   23.8022    2.1203 C   0  0  0  0  0  0  0  0  0  0  0  0
    8.0759   25.0292    2.1846 C   0  0  0  0  0  0  0  0  0  0  0  0
    8.7236   26.1296    2.7422 C   0  0  0  0  0  0  0  0  0  0  0  0
   10.0257   26.0061    3.2387 C   0  0  0  0  0  0  0  0  0  0  0  0
    9.8973   23.0784    5.8175 C   0  0  0  0  0  0  0  0  0  0  0  0
    9.3259   24.0513    6.8240 C   0  0  0  0  0  0  0  0  0  0  0  0
    8.9261   25.3314    6.4148 C   0  0  0  0  0  0  0  0  0  0  0  0
    8.3605   26.2257    7.3244 C   0  0  0  0  0  0  0  0  0  0  0  0
    8.1782   25.8473    8.6526 C   0  0  0  0  0  0  0  0  0  0  0  0
    8.5674   24.5784    9.0731 C   0  0  0  0  0  0  0  0  0  0  0  0
    9.1329   23.6825    8.1637 C   0  0  0  0  0  0  0  0  0  0  0  0
 21 22  1  0
 22 23  1  0
 23 24  2  0
 23 15  1  0
 15 16  2  0
 16 17  1  0
 17 18  2  0
 18 19  1  0
 19 14  1  0
 14  1  1  0
  1  2  1  0
  2 26  1  0
 26 27  1  0
 27 28  1  0
 28 29  2  0
 29 30  1  0
 30 31  2  0
 31 32  1  0
 32 33  2  0
  2  3  1  0
  3 10  1  0
 10 11  1  0
  3  4  1  0
  4 12  1  0
 12 13  1  0
  4  5  1  0
  5 34  1  0
 34 35  1  0
 35 36  1  0
 36 37  2  0
 37 38  1  0
 38 39  2  0
 39 40  1  0
 40 41  2  0
  5  6  1  0
  6 42  1  0
 42 43  1  0
 43 44  2  0
 44 45  1  0
 45 46  2  0
 46 47  1  0
 47 48  2  0
  6  7  1  0
  7  8  2  0
  7  9  2  0
 19 20  2  0
 20 15  1  0
  7  1  1  0
 33 28  1  0
 41 36  1  0
 48 43  1  0
 22 25  1  0
M  END
> <minimizedAffinity>
-7.42798

> <CNNscore>
0.3791488707

> <CNNaffinity>
7.7488923073

> <CNN_VS>
2.9379837513

> <CNNaffinity_variance>
0.3234330714

$$$$



 48 52  0  0  0  0  0  0  0  0999 V2000
   13.4001   21.9972    5.4504 N   0  0  0  0  0  0  0  0  0  0  0  0
   14.3628   22.5067    6.4594 C   0  0  0  0  0  0  0  0  0  0  0  0
   14.1192   23.9893    6.8435 C   0  0  0  0  0  0  0  0  0  0  0  0
   12.6575   24.3158    7.2573 C   0  0  0  0  0  0  0  0  0  0  0  0
   11.6475   24.4331    6.0710 C   0  0  0  0  0  0  0  0  0  0  0  0
   11.1086   23.1531    5.4777 N   0  0  0  0  0  0  0  0  0  0  0  0
   11.8154   21.6722    5.8291 S   0  0  0  0  0  0  0  0  0  0  0  0
   11.3156   20.6972    4.8910 O   0  0  0  0  0  0  0  0  0  0  0  0
   11.6798   21.4542    7.2483 O   0  0  0  0  0  0  0  0  0  0  0  0
   15.0241   24.3130    7.9191 O   0  0  0  0  0  0  0  0  0  0  0  0
   16.3909   24.1243    7.5753 C   0  0  0  0  0  0  0  0  0  0  0  0
   12.6146   25.5969    7.9391 O   0  0  0  0  0  0  0  0  0  0  0  0
   11.3325   25.8995    8.4770 C   0  0  0  0  0  0  0  0  0  0  0  0
   13.7877   22.1207    4.0368 C   0  0  0  0  0  0  0  0  0  0  0  0
   16.5394   19.4849    3.9799 C   0  0  0  0  0  0  0  0  0  0  0  0
   16.3590   18.9161    2.7165 C   0  0  0  0  0  0  0  0  0  0  0  0
   15.3565   19.3937    1.8720 C   0  0  0  0  0  0  0  0  0  0  0  0
   14.5232   20.4324    2.2913 C   0  0  0  0  0  0  0  0  0  0  0  0
   14.6715   20.9929    3.5684 C   0  0  0  0  0  0  0  0  0  0  0  0
   15.6821   20.5038    4.4091 C   0  0  0  0  0  0  0  0  0  0  0  0
   18.3720   17.2201    6.3810 C   0  0  0  0  0  0  0  0  0  0  0  0
   17.4321   17.7527    5.4295 N   0  0  0  0  0  0  0  0  0  0  0  0
   17.6401   18.9843    4.8457 C   0  0  0  0  0  0  0  0  0  0  0  0
   18.6390   19.6690    5.0306 O   0  0  0  0  0  0  0  0  0  0  0  0
   16.6313   17.2313    5.1928 H   0  0  0  0  0  0  0  0  0  0  0  0
   14.4914   21.5430    7.6670 C   0  0  0  0  0  0  0  0  0  0  0  0
   15.7065   20.7897    7.5406 O   0  0  0  0  0  0  0  0  0  0  0  0
   16.2514   20.3091    8.6997 C   0  0  0  0  0  0  0  0  0  0  0  0
   17.5853   20.6654    8.9120 C   0  0  0  0  0  0  0  0  0  0  0  0
   18.2620   20.2413   10.0576 C   0  0  0  0  0  0  0  0  0  0  0  0
   17.6053   19.4515   10.9969 C   0  0  0  0  0  0  0  0  0  0  0  0
   16.2767   19.0820   10.7869 C   0  0  0  0  0  0  0  0  0  0  0  0
   15.6014   19.5070    9.6387 C   0  0  0  0  0  0  0  0  0  0  0  0
   12.1272   25.3104    4.8845 C   0  0  0  0  0  0  0  0  0  0  0  0
   11.1283   25.5521    3.9015 O   0  0  0  0  0  0  0  0  0  0  0  0
   10.0525   26.3254    4.2349 C   0  0  0  0  0  0  0  0  0  0  0  0
    9.9299   26.5809    5.6041 C   0  0  0  0  0  0  0  0  0  0  0  0
    8.8830   27.3633    6.0943 C   0  0  0  0  0  0  0  0  0  0  0  0
    7.9455   27.8954    5.2142 C   0  0  0  0  0  0  0  0  0  0  0  0
    8.0565   27.6421    3.8487 C   0  0  0  0  0  0  0  0  0  0  0  0
    9.1060   26.8575    3.3586 C   0  0  0  0  0  0  0  0  0  0  0  0
    9.6137   23.1056    5.4837 C   0  0  0  0  0  0  0  0  0  0  0  0
    8.9753   23.3029    4.1274 C   0  0  0  0  0  0  0  0  0  0  0  0
    9.6172   22.8311    2.9736 C   0  0  0  0  0  0  0  0  0  0  0  0
    9.0215   22.9708    1.7195 C   0  0  0  0  0  0  0  0  0  0  0  0
    7.7717   23.5752    1.6047 C   0  0  0  0  0  0  0  0  0  0  0  0
    7.1206   24.0459    2.7418 C   0  0  0  0  0  0  0  0  0  0  0  0
    7.7154   23.9061    3.9973 C   0  0  0  0  0  0  0  0  0  0  0  0
 21 22  1  0
 22 23  1  0
 23 24  2  0
 23 15  1  0
 15 16  2  0
 16 17  1  0
 17 18  2  0
 18 19  1  0
 19 14  1  0
 14  1  1  0
  1  2  1  0
  2 26  1  0
 26 27  1  0
 27 28  1  0
 28 29  2  0
 29 30  1  0
 30 31  2  0
 31 32  1  0
 32 33  2  0
  2  3  1  0
  3 10  1  0
 10 11  1  0
  3  4  1  0
  4 12  1  0
 12 13  1  0
  4  5  1  0
  5 34  1  0
 34 35  1  0
 35 36  1  0
 36 37  2  0
 37 38  1  0
 38 39  2  0
 39 40  1  0
 40 41  2  0
  5  6  1  0
  6 42  1  0
 42 43  1  0
 43 44  2  0
 44 45  1  0
 45 46  2  0
 46 47  1  0
 47 48  2  0
  6  7  1  0
  7  8  2  0
  7  9  2  0
 19 20  2  0
 20 15  1  0
  7  1  1  0
 33 28  1  0
 41 36  1  0
 48 43  1  0
 22 25  1  0
M  END
> <minimizedAffinity>
-6.69844

> <CNNscore>
0.3653272092

> <CNNaffinity>
7.8156127930

> <CNN_VS>
2.8552560806

> <CNNaffinity_variance>
0.2975789607

$$$$



 48 52  0  0  0  0  0  0  0  0999 V2000
   15.1857   22.5797    5.8239 N   0  0  0  0  0  0  0  0  0  0  0  0
   14.7767   21.1543    5.7498 C   0  0  0  0  0  0  0  0  0  0  0  0
   13.2530   20.9440    5.9471 C   0  0  0  0  0  0  0  0  0  0  0  0
   12.3572   21.8261    5.0340 C   0  0  0  0  0  0  0  0  0  0  0  0
   12.2321   23.3190    5.4778 C   0  0  0  0  0  0  0  0  0  0  0  0
   13.3670   24.2528    5.1305 N   0  0  0  0  0  0  0  0  0  0  0  0
   14.8465   23.6588    4.6069 S   0  0  0  0  0  0  0  0  0  0  0  0
   15.8118   24.7287    4.6674 O   0  0  0  0  0  0  0  0  0  0  0  0
   14.6163   22.9540    3.3699 O   0  0  0  0  0  0  0  0  0  0  0  0
   12.9745   19.5476    5.7167 O   0  0  0  0  0  0  0  0  0  0  0  0
   13.9199   18.9238    4.8571 C   0  0  0  0  0  0  0  0  0  0  0  0
   11.0026   21.3038    5.0225 O   0  0  0  0  0  0  0  0  0  0  0  0
   10.2305   21.7806    3.9264 C   0  0  0  0  0  0  0  0  0  0  0  0
   15.5842   23.0914    7.1441 C   0  0  0  0  0  0  0  0  0  0  0  0
   16.5924   20.0837    9.2558 C   0  0  0  0  0  0  0  0  0  0  0  0
   15.5451   20.0230   10.1786 C   0  0  0  0  0  0  0  0  0  0  0  0
   14.5006   20.9455   10.1114 C   0  0  0  0  0  0  0  0  0  0  0  0
   14.5051   21.9387    9.1303 C   0  0  0  0  0  0  0  0  0  0  0  0
   15.5647   22.0318    8.2162 C   0  0  0  0  0  0  0  0  0  0  0  0
   16.6099   21.0996    8.2941 C   0  0  0  0  0  0  0  0  0  0  0  0
   18.3018   16.7388    8.8763 C   0  0  0  0  0  0  0  0  0  0  0  0
   17.3806   17.8395    8.7644 N   0  0  0  0  0  0  0  0  0  0  0  0
   17.6738   19.0649    9.3242 C   0  0  0  0  0  0  0  0  0  0  0  0
   18.7328   19.3263    9.8820 O   0  0  0  0  0  0  0  0  0  0  0  0
   16.5312   17.7157    8.2824 H   0  0  0  0  0  0  0  0  0  0  0  0
   15.3652   20.4533    4.4984 C   0  0  0  0  0  0  0  0  0  0  0  0
   16.7961   20.4217    4.6061 O   0  0  0  0  0  0  0  0  0  0  0  0
   17.3943   19.2017    4.4478 C   0  0  0  0  0  0  0  0  0  0  0  0
   17.2641   18.6461    3.1728 C   0  0  0  0  0  0  0  0  0  0  0  0
   17.8291   17.4040    2.8762 C   0  0  0  0  0  0  0  0  0  0  0  0
   18.5252   16.7074    3.8599 C   0  0  0  0  0  0  0  0  0  0  0  0
   18.6501   17.2501    5.1388 C   0  0  0  0  0  0  0  0  0  0  0  0
   18.0829   18.4937    5.4339 C   0  0  0  0  0  0  0  0  0  0  0  0
   11.9196   23.5327    6.9825 C   0  0  0  0  0  0  0  0  0  0  0  0
   10.5487   23.7907    7.2588 O   0  0  0  0  0  0  0  0  0  0  0  0
   10.2213   24.9128    7.9660 C   0  0  0  0  0  0  0  0  0  0  0  0
    8.8903   24.9564    8.3921 C   0  0  0  0  0  0  0  0  0  0  0  0
    8.4118   26.0387    9.1323 C   0  0  0  0  0  0  0  0  0  0  0  0
    9.2648   27.0913    9.4501 C   0  0  0  0  0  0  0  0  0  0  0  0
   10.5914   27.0592    9.0257 C   0  0  0  0  0  0  0  0  0  0  0  0
   11.0698   25.9740    8.2835 C   0  0  0  0  0  0  0  0  0  0  0  0
   12.9076   25.4474    4.3565 C   0  0  0  0  0  0  0  0  0  0  0  0
   11.4775   25.3678    3.8721 C   0  0  0  0  0  0  0  0  0  0  0  0
   10.4379   25.8730    4.6658 C   0  0  0  0  0  0  0  0  0  0  0  0
    9.1179   25.8424    4.2146 C   0  0  0  0  0  0  0  0  0  0  0  0
    8.8221   25.3153    2.9596 C   0  0  0  0  0  0  0  0  0  0  0  0
    9.8441   24.8128    2.1587 C   0  0  0  0  0  0  0  0  0  0  0  0
   11.1655   24.8435    2.6088 C   0  0  0  0  0  0  0  0  0  0  0  0
 21 22  1  0
 22 23  1  0
 23 24  2  0
 23 15  1  0
 15 16  2  0
 16 17  1  0
 17 18  2  0
 18 19  1  0
 19 14  1  0
 14  1  1  0
  1  2  1  0
  2 26  1  0
 26 27  1  0
 27 28  1  0
 28 29  2  0
 29 30  1  0
 30 31  2  0
 31 32  1  0
 32 33  2  0
  2  3  1  0
  3 10  1  0
 10 11  1  0
  3  4  1  0
  4 12  1  0
 12 13  1  0
  4  5  1  0
  5 34  1  0
 34 35  1  0
 35 36  1  0
 36 37  2  0
 37 38  1  0
 38 39  2  0
 39 40  1  0
 40 41  2  0
  5  6  1  0
  6 42  1  0
 42 43  1  0
 43 44  2  0
 44 45  1  0
 45 46  2  0
 46 47  1  0
 47 48  2  0
  6  7  1  0
  7  8  2  0
  7  9  2  0
 19 20  2  0
 20 15  1  0
  7  1  1  0
 33 28  1  0
 41 36  1  0
 48 43  1  0
 22 25  1  0
M  END
> <minimizedAffinity>
-8.54662

> <CNNscore>
0.3605371118

> <CNNaffinity>
7.4435725212

> <CNN_VS>
2.6836841106

> <CNNaffinity_variance>
0.9311712384

$$$$



 48 52  0  0  0  0  0  0  0  0999 V2000
   12.8172   22.7259    4.7503 N   0  0  0  0  0  0  0  0  0  0  0  0
   14.2484   22.3630    4.9075 C   0  0  0  0  0  0  0  0  0  0  0  0
   14.8443   22.8007    6.2707 C   0  0  0  0  0  0  0  0  0  0  0  0
   14.0193   22.3517    7.5085 C   0  0  0  0  0  0  0  0  0  0  0  0
   12.7278   23.1887    7.7782 C   0  0  0  0  0  0  0  0  0  0  0  0
   11.5036   22.8783    6.9501 N   0  0  0  0  0  0  0  0  0  0  0  0
   11.6107   21.9301    5.5698 S   0  0  0  0  0  0  0  0  0  0  0  0
   10.3846   22.0744    4.8242 O   0  0  0  0  0  0  0  0  0  0  0  0
   12.0667   20.6238    5.9769 O   0  0  0  0  0  0  0  0  0  0  0  0
   16.1841   22.2717    6.3482 O   0  0  0  0  0  0  0  0  0  0  0  0
   16.2928   21.1506    7.2160 C   0  0  0  0  0  0  0  0  0  0  0  0
   14.8270   22.4762    8.7085 O   0  0  0  0  0  0  0  0  0  0  0  0
   14.3639   21.6614    9.7792 C   0  0  0  0  0  0  0  0  0  0  0  0
   12.5233   24.0259    4.1282 C   0  0  0  0  0  0  0  0  0  0  0  0
    9.1455   25.2423    2.8503 C   0  0  0  0  0  0  0  0  0  0  0  0
    8.6929   24.1258    2.1427 C   0  0  0  0  0  0  0  0  0  0  0  0
    9.4719   22.9697    2.0894 C   0  0  0  0  0  0  0  0  0  0  0  0
   10.7105   22.9292    2.7321 C   0  0  0  0  0  0  0  0  0  0  0  0
   11.1925   24.0521    3.4205 C   0  0  0  0  0  0  0  0  0  0  0  0
   10.4012   25.2092    3.4663 C   0  0  0  0  0  0  0  0  0  0  0  0
    7.5361   28.3315    4.3067 C   0  0  0  0  0  0  0  0  0  0  0  0
    8.4062   27.2097    4.0676 N   0  0  0  0  0  0  0  0  0  0  0  0
    8.2791   26.4488    2.9249 C   0  0  0  0  0  0  0  0  0  0  0  0
    7.4900   26.6981    2.0215 O   0  0  0  0  0  0  0  0  0  0  0  0
    9.1003   26.9831    4.7280 H   0  0  0  0  0  0  0  0  0  0  0  0
   14.5075   20.8794    4.5398 C   0  0  0  0  0  0  0  0  0  0  0  0
   15.9230   20.6499    4.4793 O   0  0  0  0  0  0  0  0  0  0  0  0
   16.3399   19.6009    3.7065 C   0  0  0  0  0  0  0  0  0  0  0  0
   15.5366   19.3365    2.5947 C   0  0  0  0  0  0  0  0  0  0  0  0
   15.8502   18.2927    1.7217 C   0  0  0  0  0  0  0  0  0  0  0  0
   16.9708   17.5026    1.9616 C   0  0  0  0  0  0  0  0  0  0  0  0
   17.7717   17.7529    3.0758 C   0  0  0  0  0  0  0  0  0  0  0  0
   17.4554   18.7981    3.9491 C   0  0  0  0  0  0  0  0  0  0  0  0
   12.9214   24.7275    7.7337 C   0  0  0  0  0  0  0  0  0  0  0  0
   11.9089   25.4183    7.0124 O   0  0  0  0  0  0  0  0  0  0  0  0
   11.1742   26.3704    7.6609 C   0  0  0  0  0  0  0  0  0  0  0  0
   11.4398   26.4683    9.0301 C   0  0  0  0  0  0  0  0  0  0  0  0
   10.7707   27.4022    9.8229 C   0  0  0  0  0  0  0  0  0  0  0  0
    9.8248   28.2463    9.2493 C   0  0  0  0  0  0  0  0  0  0  0  0
    9.5498   28.1528    7.8866 C   0  0  0  0  0  0  0  0  0  0  0  0
   10.2207   27.2162    7.0931 C   0  0  0  0  0  0  0  0  0  0  0  0
   10.3108   22.5551    7.7925 C   0  0  0  0  0  0  0  0  0  0  0  0
    9.3011   23.6749    7.9046 C   0  0  0  0  0  0  0  0  0  0  0  0
    8.8386   24.3219    6.7499 C   0  0  0  0  0  0  0  0  0  0  0  0
    7.8775   25.3299    6.8348 C   0  0  0  0  0  0  0  0  0  0  0  0
    7.3593   25.6966    8.0747 C   0  0  0  0  0  0  0  0  0  0  0  0
    7.8065   25.0611    9.2299 C   0  0  0  0  0  0  0  0  0  0  0  0
    8.7677   24.0518    9.1463 C   0  0  0  0  0  0  0  0  0  0  0  0
 21 22  1  0
 22 23  1  0
 23 24  2  0
 23 15  1  0
 15 16  2  0
 16 17  1  0
 17 18  2  0
 18 19  1  0
 19 14  1  0
 14  1  1  0
  1  2  1  0
  2 26  1  0
 26 27  1  0
 27 28  1  0
 28 29  2  0
 29 30  1  0
 30 31  2  0
 31 32  1  0
 32 33  2  0
  2  3  1  0
  3 10  1  0
 10 11  1  0
  3  4  1  0
  4 12  1  0
 12 13  1  0
  4  5  1  0
  5 34  1  0
 34 35  1  0
 35 36  1  0
 36 37  2  0
 37 38  1  0
 38 39  2  0
 39 40  1  0
 40 41  2  0
  5  6  1  0
  6 42  1  0
 42 43  1  0
 43 44  2  0
 44 45  1  0
 45 46  2  0
 46 47  1  0
 47 48  2  0
  6  7  1  0
  7  8  2  0
  7  9  2  0
 19 20  2  0
 20 15  1  0
  7  1  1  0
 33 28  1  0
 41 36  1  0
 48 43  1  0
 22 25  1  0
M  END
> <minimizedAffinity>
-6.48962

> <CNNscore>
0.3288273215

> <CNNaffinity>
7.7005190849

> <CNN_VS>
2.5321409702

> <CNNaffinity_variance>
0.6281884313

$$$$



 48 52  0  0  0  0  0  0  0  0999 V2000
   14.0207   22.7601    6.0443 N   0  0  0  0  0  0  0  0  0  0  0  0
   13.1783   21.6007    6.4326 C   0  0  0  0  0  0  0  0  0  0  0  0
   11.7491   22.0051    6.8787 C   0  0  0  0  0  0  0  0  0  0  0  0
   10.9979   22.9257    5.8775 C   0  0  0  0  0  0  0  0  0  0  0  0
   11.4501   24.4212    5.8909 C   0  0  0  0  0  0  0  0  0  0  0  0
   12.7148   24.7796    5.1474 N   0  0  0  0  0  0  0  0  0  0  0  0
   13.7780   23.5906    4.6259 S   0  0  0  0  0  0  0  0  0  0  0  0
   15.0191   24.2238    4.2530 O   0  0  0  0  0  0  0  0  0  0  0  0
   13.0703   22.7617    3.6814 O   0  0  0  0  0  0  0  0  0  0  0  0
   11.0018   20.7901    7.0933 O   0  0  0  0  0  0  0  0  0  0  0  0
    9.8737   20.9701    7.9399 C   0  0  0  0  0  0  0  0  0  0  0  0
    9.5805   22.9400    6.1920 O   0  0  0  0  0  0  0  0  0  0  0  0
    8.7950   23.5844    5.1958 C   0  0  0  0  0  0  0  0  0  0  0  0
   14.8414   23.3717    7.1007 C   0  0  0  0  0  0  0  0  0  0  0  0
   17.5090   20.6505    7.1344 C   0  0  0  0  0  0  0  0  0  0  0  0
   18.0053   20.7582    8.4360 C   0  0  0  0  0  0  0  0  0  0  0  0
   17.4680   21.7011    9.3128 C   0  0  0  0  0  0  0  0  0  0  0  0
   16.4421   22.5475    8.8886 C   0  0  0  0  0  0  0  0  0  0  0  0
   15.9544   22.4728    7.5757 C   0  0  0  0  0  0  0  0  0  0  0  0
   16.5029   21.5217    6.7029 C   0  0  0  0  0  0  0  0  0  0  0  0
   18.4850   17.2184    5.9010 C   0  0  0  0  0  0  0  0  0  0  0  0
   17.8827   18.3045    6.6291 N   0  0  0  0  0  0  0  0  0  0  0  0
   18.0717   19.6112    6.2317 C   0  0  0  0  0  0  0  0  0  0  0  0
   18.6877   19.9374    5.2242 O   0  0  0  0  0  0  0  0  0  0  0  0
   17.3293   18.1120    7.4202 H   0  0  0  0  0  0  0  0  0  0  0  0
   13.2244   20.4760    5.3666 C   0  0  0  0  0  0  0  0  0  0  0  0
   14.5200   19.8588    5.3894 O   0  0  0  0  0  0  0  0  0  0  0  0
   15.0125   19.4262    4.1887 C   0  0  0  0  0  0  0  0  0  0  0  0
   14.8325   20.3157    3.1268 C   0  0  0  0  0  0  0  0  0  0  0  0
   15.2896   19.9975    1.8462 C   0  0  0  0  0  0  0  0  0  0  0  0
   15.9267   18.7806    1.6210 C   0  0  0  0  0  0  0  0  0  0  0  0
   16.1002   17.8820    2.6737 C   0  0  0  0  0  0  0  0  0  0  0  0
   15.6411   18.2023    3.9550 C   0  0  0  0  0  0  0  0  0  0  0  0
   11.5616   25.0609    7.3001 C   0  0  0  0  0  0  0  0  0  0  0  0
   10.3856   24.9326    8.0894 O   0  0  0  0  0  0  0  0  0  0  0  0
    9.7194   26.0651    8.4640 C   0  0  0  0  0  0  0  0  0  0  0  0
    8.4387   26.1869    7.9164 C   0  0  0  0  0  0  0  0  0  0  0  0
    7.6355   27.2887    8.2150 C   0  0  0  0  0  0  0  0  0  0  0  0
    8.1114   28.2824    9.0651 C   0  0  0  0  0  0  0  0  0  0  0  0
    9.3883   28.1722    9.6117 C   0  0  0  0  0  0  0  0  0  0  0  0
   10.1925   27.0676    9.3114 C   0  0  0  0  0  0  0  0  0  0  0  0
   12.4954   25.8561    4.1326 C   0  0  0  0  0  0  0  0  0  0  0  0
   11.1487   25.8058    3.4471 C   0  0  0  0  0  0  0  0  0  0  0  0
   10.9738   25.0198    2.2993 C   0  0  0  0  0  0  0  0  0  0  0  0
    9.7268   24.9323    1.6791 C   0  0  0  0  0  0  0  0  0  0  0  0
    8.6367   25.6219    2.2050 C   0  0  0  0  0  0  0  0  0  0  0  0
    8.7942   26.4039    3.3461 C   0  0  0  0  0  0  0  0  0  0  0  0
   10.0413   26.4917    3.9679 C   0  0  0  0  0  0  0  0  0  0  0  0
 21 22  1  0
 22 23  1  0
 23 24  2  0
 23 15  1  0
 15 16  2  0
 16 17  1  0
 17 18  2  0
 18 19  1  0
 19 14  1  0
 14  1  1  0
  1  2  1  0
  2 26  1  0
 26 27  1  0
 27 28  1  0
 28 29  2  0
 29 30  1  0
 30 31  2  0
 31 32  1  0
 32 33  2  0
  2  3  1  0
  3 10  1  0
 10 11  1  0
  3  4  1  0
  4 12  1  0
 12 13  1  0
  4  5  1  0
  5 34  1  0
 34 35  1  0
 35 36  1  0
 36 37  2  0
 37 38  1  0
 38 39  2  0
 39 40  1  0
 40 41  2  0
  5  6  1  0
  6 42  1  0
 42 43  1  0
 43 44  2  0
 44 45  1  0
 45 46  2  0
 46 47  1  0
 47 48  2  0
  6  7  1  0
  7  8  2  0
  7  9  2  0
 19 20  2  0
 20 15  1  0
  7  1  1  0
 33 28  1  0
 41 36  1  0
 48 43  1  0
 22 25  1  0
M  END
> <minimizedAffinity>
-6.77539

> <CNNscore>
0.2517383695

> <CNNaffinity>
7.0182723999

> <CNN_VS>
1.7667684555

> <CNNaffinity_variance>
1.4817587137

$$$$



 48 52  0  0  0  0  0  0  0  0999 V2000
   13.4439   23.9825    4.6468 N   0  0  0  0  0  0  0  0  0  0  0  0
   14.6815   23.5848    5.3641 C   0  0  0  0  0  0  0  0  0  0  0  0
   14.4394   23.2397    6.8566 C   0  0  0  0  0  0  0  0  0  0  0  0
   13.3006   22.2119    7.1037 C   0  0  0  0  0  0  0  0  0  0  0  0
   11.8540   22.7888    6.9786 C   0  0  0  0  0  0  0  0  0  0  0  0
   11.2851   22.9644    5.5907 N   0  0  0  0  0  0  0  0  0  0  0  0
   12.2706   22.8806    4.2350 S   0  0  0  0  0  0  0  0  0  0  0  0
   11.5362   23.4000    3.1076 O   0  0  0  0  0  0  0  0  0  0  0  0
   12.8319   21.5528    4.1899 O   0  0  0  0  0  0  0  0  0  0  0  0
   15.6824   22.7427    7.3939 O   0  0  0  0  0  0  0  0  0  0  0  0
   16.4943   23.7636    7.9599 C   0  0  0  0  0  0  0  0  0  0  0  0
   13.3990   21.6848    8.4530 O   0  0  0  0  0  0  0  0  0  0  0  0
   14.5602   20.8882    8.6570 C   0  0  0  0  0  0  0  0  0  0  0  0
   13.1195   25.4170    4.6214 C   0  0  0  0  0  0  0  0  0  0  0  0
    9.4504   26.4388    4.4964 C   0  0  0  0  0  0  0  0  0  0  0  0
    9.1371   26.2017    3.1556 C   0  0  0  0  0  0  0  0  0  0  0  0
   10.1075   25.6955    2.2904 C   0  0  0  0  0  0  0  0  0  0  0  0
   11.3968   25.4362    2.7586 C   0  0  0  0  0  0  0  0  0  0  0  0
   11.7355   25.6981    4.0941 C   0  0  0  0  0  0  0  0  0  0  0  0
   10.7520   26.2080    4.9544 C   0  0  0  0  0  0  0  0  0  0  0  0
    6.0872   26.6475    6.1991 C   0  0  0  0  0  0  0  0  0  0  0  0
    7.2290   26.1955    5.4476 N   0  0  0  0  0  0  0  0  0  0  0  0
    8.3878   26.9416    5.4073 C   0  0  0  0  0  0  0  0  0  0  0  0
    8.5570   27.9769    6.0400 O   0  0  0  0  0  0  0  0  0  0  0  0
    7.1818   25.3435    4.9566 H   0  0  0  0  0  0  0  0  0  0  0  0
   15.4804   22.5133    4.5785 C   0  0  0  0  0  0  0  0  0  0  0  0
   15.4953   21.2915    5.3315 O   0  0  0  0  0  0  0  0  0  0  0  0
   16.1872   20.2452    4.7856 C   0  0  0  0  0  0  0  0  0  0  0  0
   17.3775   19.9236    5.4421 C   0  0  0  0  0  0  0  0  0  0  0  0
   18.1800   18.8747    4.9883 C   0  0  0  0  0  0  0  0  0  0  0  0
   17.7956   18.1436    3.8680 C   0  0  0  0  0  0  0  0  0  0  0  0
   16.6141   18.4656    3.2001 C   0  0  0  0  0  0  0  0  0  0  0  0
   15.8124   19.5168    3.6557 C   0  0  0  0  0  0  0  0  0  0  0  0
   11.6107   24.1215    7.7351 C   0  0  0  0  0  0  0  0  0  0  0  0
   10.2415   24.4949    7.8256 O   0  0  0  0  0  0  0  0  0  0  0  0
    9.9173   25.6468    8.4848 C   0  0  0  0  0  0  0  0  0  0  0  0
   10.9996   26.5011    8.7168 C   0  0  0  0  0  0  0  0  0  0  0  0
   10.8204   27.7196    9.3737 C   0  0  0  0  0  0  0  0  0  0  0  0
    9.5518   28.0921    9.8077 C   0  0  0  0  0  0  0  0  0  0  0  0
    8.4680   27.2452    9.5856 C   0  0  0  0  0  0  0  0  0  0  0  0
    8.6489   26.0241    8.9274 C   0  0  0  0  0  0  0  0  0  0  0  0
    9.9817   22.2527    5.4131 C   0  0  0  0  0  0  0  0  0  0  0  0
    9.2947   22.5238    4.0938 C   0  0  0  0  0  0  0  0  0  0  0  0
    8.1902   23.3859    4.0411 C   0  0  0  0  0  0  0  0  0  0  0  0
    7.5708   23.6764    2.8250 C   0  0  0  0  0  0  0  0  0  0  0  0
    8.0545   23.1164    1.6448 C   0  0  0  0  0  0  0  0  0  0  0  0
    9.1524   22.2610    1.6808 C   0  0  0  0  0  0  0  0  0  0  0  0
    9.7734   21.9700    2.8970 C   0  0  0  0  0  0  0  0  0  0  0  0
 21 22  1  0
 22 23  1  0
 23 24  2  0
 23 15  1  0
 15 16  2  0
 16 17  1  0
 17 18  2  0
 18 19  1  0
 19 14  1  0
 14  1  1  0
  1  2  1  0
  2 26  1  0
 26 27  1  0
 27 28  1  0
 28 29  2  0
 29 30  1  0
 30 31  2  0
 31 32  1  0
 32 33  2  0
  2  3  1  0
  3 10  1  0
 10 11  1  0
  3  4  1  0
  4 12  1  0
 12 13  1  0
  4  5  1  0
  5 34  1  0
 34 35  1  0
 35 36  1  0
 36 37  2  0
 37 38  1  0
 38 39  2  0
 39 40  1  0
 40 41  2  0
  5  6  1  0
  6 42  1  0
 42 43  1  0
 43 44  2  0
 44 45  1  0
 45 46  2  0
 46 47  1  0
 47 48  2  0
  6  7  1  0
  7  8  2  0
  7  9  2  0
 19 20  2  0
 20 15  1  0
  7  1  1  0
 33 28  1  0
 41 36  1  0
 48 43  1  0
 22 25  1  0
M  END
> <minimizedAffinity>
-6.98564

> <CNNscore>
0.2320595533

> <CNNaffinity>
7.1685657501

> <CNN_VS>
1.6635341644

> <CNNaffinity_variance>
0.9988278747

$$$$



 48 52  0  0  0  0  0  0  0  0999 V2000
   10.6082   25.4230    5.4248 N   0  0  0  0  0  0  0  0  0  0  0  0
    9.9219   24.8800    6.6243 C   0  0  0  0  0  0  0  0  0  0  0  0
    9.8385   23.3314    6.6328 C   0  0  0  0  0  0  0  0  0  0  0  0
   11.1952   22.6118    6.3969 C   0  0  0  0  0  0  0  0  0  0  0  0
   11.6856   22.6002    4.9135 C   0  0  0  0  0  0  0  0  0  0  0  0
   12.3475   23.8495    4.3825 N   0  0  0  0  0  0  0  0  0  0  0  0
   12.2523   25.3011    5.2189 S   0  0  0  0  0  0  0  0  0  0  0  0
   12.6789   26.3607    4.3383 O   0  0  0  0  0  0  0  0  0  0  0  0
   12.8984   25.1087    6.4939 O   0  0  0  0  0  0  0  0  0  0  0  0
    9.2795   22.9343    7.9019 O   0  0  0  0  0  0  0  0  0  0  0  0
    8.5464   23.9727    8.5391 C   0  0  0  0  0  0  0  0  0  0  0  0
   11.0858   21.2174    6.7864 O   0  0  0  0  0  0  0  0  0  0  0  0
   12.1150   20.4027    6.2370 C   0  0  0  0  0  0  0  0  0  0  0  0
    9.7642   25.7554    4.2669 C   0  0  0  0  0  0  0  0  0  0  0  0
    6.3716   26.8176    5.6395 C   0  0  0  0  0  0  0  0  0  0  0  0
    6.3382   28.1708    5.2929 C   0  0  0  0  0  0  0  0  0  0  0  0
    7.4064   28.7410    4.6000 C   0  0  0  0  0  0  0  0  0  0  0  0
    8.5164   27.9648    4.2619 C   0  0  0  0  0  0  0  0  0  0  0  0
    8.5786   26.6128    4.6298 C   0  0  0  0  0  0  0  0  0  0  0  0
    7.4992   26.0507    5.3273 C   0  0  0  0  0  0  0  0  0  0  0  0
    3.0708   25.0428    6.0960 C   0  0  0  0  0  0  0  0  0  0  0  0
    4.2993   25.5543    5.5468 N   0  0  0  0  0  0  0  0  0  0  0  0
    5.2035   26.2244    6.3433 C   0  0  0  0  0  0  0  0  0  0  0  0
    5.0713   26.3731    7.5522 O   0  0  0  0  0  0  0  0  0  0  0  0
    4.4962   25.4241    4.5910 H   0  0  0  0  0  0  0  0  0  0  0  0
   10.4765   25.5006    7.9323 C   0  0  0  0  0  0  0  0  0  0  0  0
   10.5377   26.9272    7.7871 O   0  0  0  0  0  0  0  0  0  0  0  0
    9.5989   27.6521    8.4688 C   0  0  0  0  0  0  0  0  0  0  0  0
    9.7650   27.6689    9.8557 C   0  0  0  0  0  0  0  0  0  0  0  0
    8.8760   28.3727   10.6708 C   0  0  0  0  0  0  0  0  0  0  0  0
    7.8098   29.0613   10.0994 C   0  0  0  0  0  0  0  0  0  0  0  0
    7.6305   29.0402    8.7162 C   0  0  0  0  0  0  0  0  0  0  0  0
    8.5213   28.3342    7.9020 C   0  0  0  0  0  0  0  0  0  0  0  0
   10.6150   22.1820    3.8712 C   0  0  0  0  0  0  0  0  0  0  0  0
    9.2786   22.4619    4.2689 O   0  0  0  0  0  0  0  0  0  0  0  0
    8.4740   23.1655    3.4180 C   0  0  0  0  0  0  0  0  0  0  0  0
    7.1462   23.2765    3.8417 C   0  0  0  0  0  0  0  0  0  0  0  0
    6.2084   23.9741    3.0786 C   0  0  0  0  0  0  0  0  0  0  0  0
    6.5937   24.5656    1.8794 C   0  0  0  0  0  0  0  0  0  0  0  0
    7.9135   24.4562    1.4465 C   0  0  0  0  0  0  0  0  0  0  0  0
    8.8524   23.7564    2.2119 C   0  0  0  0  0  0  0  0  0  0  0  0
   13.7096   23.5818    3.8255 C   0  0  0  0  0  0  0  0  0  0  0  0
   14.4824   22.5039    4.5514 C   0  0  0  0  0  0  0  0  0  0  0  0
   14.7086   21.2653    3.9345 C   0  0  0  0  0  0  0  0  0  0  0  0
   15.4539   20.2755    4.5762 C   0  0  0  0  0  0  0  0  0  0  0  0
   15.9909   20.5155    5.8389 C   0  0  0  0  0  0  0  0  0  0  0  0
   15.7774   21.7417    6.4629 C   0  0  0  0  0  0  0  0  0  0  0  0
   15.0324   22.7332    5.8216 C   0  0  0  0  0  0  0  0  0  0  0  0
 21 22  1  0
 22 23  1  0
 23 24  2  0
 23 15  1  0
 15 16  2  0
 16 17  1  0
 17 18  2  0
 18 19  1  0
 19 14  1  0
 14  1  1  0
  1  2  1  0
  2 26  1  0
 26 27  1  0
 27 28  1  0
 28 29  2  0
 29 30  1  0
 30 31  2  0
 31 32  1  0
 32 33  2  0
  2  3  1  0
  3 10  1  0
 10 11  1  0
  3  4  1  0
  4 12  1  0
 12 13  1  0
  4  5  1  0
  5 34  1  0
 34 35  1  0
 35 36  1  0
 36 37  2  0
 37 38  1  0
 38 39  2  0
 39 40  1  0
 40 41  2  0
  5  6  1  0
  6 42  1  0
 42 43  1  0
 43 44  2  0
 44 45  1  0
 45 46  2  0
 46 47  1  0
 47 48  2  0
  6  7  1  0
  7  8  2  0
  7  9  2  0
 19 20  2  0
 20 15  1  0
  7  1  1  0
 33 28  1  0
 41 36  1  0
 48 43  1  0
 22 25  1  0
M  END
> <minimizedAffinity>
-6.77691

> <CNNscore>
0.2246275842

> <CNNaffinity>
6.9911537170

> <CNN_VS>
1.5704059601

> <CNNaffinity_variance>
1.2577279806

$$$$
