


 36 38  0  0  0  0  0  0  0  0999 V2000
   20.4434  -29.4481   10.4646 C   0  0  0  0  0  0  0  0  0  0  0  0
   20.0214  -30.5122    9.7617 C   0  0  0  0  0  0  0  0  0  0  0  0
   19.7479  -31.0356   13.1229 C   0  0  0  0  0  0  0  0  0  0  0  0
   20.6054  -29.7796   12.9767 C   0  0  0  0  0  0  0  0  0  0  0  0
   20.5510  -28.9835   14.1687 O   0  0  0  0  0  0  0  0  0  0  0  0
   19.9099  -29.0539   11.8139 C   0  0  0  0  0  0  0  0  0  0  0  0
   18.5180  -29.4267   11.8521 O   0  0  0  0  0  0  0  0  0  0  0  0
   18.3570  -30.4493   12.8552 C   0  0  0  0  0  0  0  0  0  0  0  0
   19.6273  -28.7680   14.3717 H   0  0  0  0  0  0  0  0  0  0  0  0
   19.8079  -33.1113   14.2804 C   0  0  0  0  0  0  0  0  0  0  0  0
   19.8249  -31.6957   14.3858 O   0  0  0  0  0  0  0  0  0  0  0  0
   17.1010  -31.7024   12.3804 S   0  0  0  0  0  0  0  0  0  0  0  0
   15.5920  -30.8626   12.8147 C   0  0  0  0  0  0  0  0  0  0  0  0
   15.6174  -29.6987   13.5793 C   0  0  0  0  0  0  0  0  0  0  0  0
   14.4161  -29.0787   13.8705 C   0  0  0  0  0  0  0  0  0  0  0  0
   13.2148  -29.5455   13.4679 N   0  0  0  0  0  0  0  0  0  0  0  0
   13.2165  -30.6948   12.7586 C   0  0  0  0  0  0  0  0  0  0  0  0
   14.3651  -31.3857   12.4142 C   0  0  0  0  0  0  0  0  0  0  0  0
   20.5794  -30.9138    8.4317 C   0  0  0  0  0  0  0  0  0  0  0  0
   21.4535  -29.8579    7.9969 N   0  0  0  0  0  0  0  0  0  0  0  0
   22.3928  -30.0214    7.0107 C   0  0  0  0  0  0  0  0  0  0  0  0
   22.5210  -31.0615    6.3730 O   0  0  0  0  0  0  0  0  0  0  0  0
   21.3741  -28.9761    8.4275 H   0  0  0  0  0  0  0  0  0  0  0  0
   23.2885  -28.8590    6.7220 C   0  0  0  0  0  0  0  0  0  0  0  0
   24.3461  -29.0726    5.8181 C   0  0  0  0  0  0  0  0  0  0  0  0
   25.2264  -28.0264    5.4991 C   0  0  0  0  0  0  0  0  0  0  0  0
   25.0723  -26.7552    6.0691 C   0  0  0  0  0  0  0  0  0  0  0  0
   24.0281  -26.5542    6.9609 C   0  0  0  0  0  0  0  0  0  0  0  0
   23.8178  -25.3400    7.5587 O   0  0  0  0  0  0  0  0  0  0  0  0
   23.1430  -27.5881    7.2909 C   0  0  0  0  0  0  0  0  0  0  0  0
   22.1450  -27.2920    8.1871 O   0  0  0  0  0  0  0  0  0  0  0  0
   24.3852  -24.6192    7.3678 H   0  0  0  0  0  0  0  0  0  0  0  0
   22.0793  -26.4294    8.5471 H   0  0  0  0  0  0  0  0  0  0  0  0
   26.3228  -28.2603    4.5504 N   0  0  0  0  0  0  0  0  0  0  0  0
   26.5190  -29.4273    4.1823 O   0  0  0  0  0  0  0  0  0  0  0  0
   26.9838  -27.2832    4.1761 O   0  0  0  0  0  0  0  0  0  0  0  0
 10 11  1  0
  3 11  1  0
  3  4  1  0
  4  5  1  0
  4  6  1  0
  6  1  1  0
  1  2  2  0
  2 19  1  0
 19 20  1  0
 20 21  1  0
 21 22  2  0
 21 24  1  0
 24 25  2  0
 25 26  1  0
 26 34  1  0
 34 35  2  0
 34 36  1  0
 26 27  2  0
 27 28  1  0
 28 29  1  0
 28 30  2  0
 30 31  1  0
  6  7  1  0
  7  8  1  0
  8 12  1  0
 12 13  1  0
 13 14  2  0
 14 15  1  0
 15 16  2  0
 16 17  1  0
 17 18  2  0
  8  3  1  0
 18 13  1  0
 30 24  1  0
  5  9  1  0
 20 23  1  0
 29 32  1  0
 31 33  1  0
M  CHG 1  34   1
M  CHG 1  36  -1
M  END
> <minimizedAffinity>
-9.51718

> <CNNscore>
0.9125146270

> <CNNaffinity>
6.6562829018

> <CNN_VS>
6.0739555359

> <CNNaffinity_variance>
0.2763729990

$$$$



 36 38  0  0  0  0  0  0  0  0999 V2000
   20.7192  -30.6475    9.4173 C   0  0  0  0  0  0  0  0  0  0  0  0
   20.9336  -30.5621    8.0940 C   0  0  0  0  0  0  0  0  0  0  0  0
   20.4661  -30.1247   12.5372 C   0  0  0  0  0  0  0  0  0  0  0  0
   20.9774  -29.1659   11.4631 C   0  0  0  0  0  0  0  0  0  0  0  0
   20.7320  -27.8031   11.8376 O   0  0  0  0  0  0  0  0  0  0  0  0
   20.1129  -29.5544   10.2531 C   0  0  0  0  0  0  0  0  0  0  0  0
   18.8607  -30.0500   10.7671 O   0  0  0  0  0  0  0  0  0  0  0  0
   18.9703  -30.1379   12.2017 C   0  0  0  0  0  0  0  0  0  0  0  0
   19.7852  -27.6805   12.0095 H   0  0  0  0  0  0  0  0  0  0  0  0
   21.2313  -30.7871   14.6884 C   0  0  0  0  0  0  0  0  0  0  0  0
   20.7163  -29.7346   13.8869 O   0  0  0  0  0  0  0  0  0  0  0  0
   18.0684  -31.5851   12.8841 S   0  0  0  0  0  0  0  0  0  0  0  0
   16.3966  -30.9722   12.9073 C   0  0  0  0  0  0  0  0  0  0  0  0
   15.3979  -31.5940   12.1617 C   0  0  0  0  0  0  0  0  0  0  0  0
   14.1138  -31.0859   12.2326 C   0  0  0  0  0  0  0  0  0  0  0  0
   13.7734  -30.0095   12.9734 N   0  0  0  0  0  0  0  0  0  0  0  0
   14.7680  -29.4043   13.6579 C   0  0  0  0  0  0  0  0  0  0  0  0
   16.0817  -29.8396   13.6538 C   0  0  0  0  0  0  0  0  0  0  0  0
   21.5109  -31.6670    7.2649 C   0  0  0  0  0  0  0  0  0  0  0  0
   22.6954  -31.1537    6.6314 N   0  0  0  0  0  0  0  0  0  0  0  0
   23.0002  -29.8172    6.5839 C   0  0  0  0  0  0  0  0  0  0  0  0
   22.3222  -28.9551    7.1337 O   0  0  0  0  0  0  0  0  0  0  0  0
   23.3170  -31.7917    6.2120 H   0  0  0  0  0  0  0  0  0  0  0  0
   24.2228  -29.4228    5.8180 C   0  0  0  0  0  0  0  0  0  0  0  0
   25.0167  -30.4617    5.2969 C   0  0  0  0  0  0  0  0  0  0  0  0
   26.1787  -30.1659    4.5666 C   0  0  0  0  0  0  0  0  0  0  0  0
   26.5708  -28.8392    4.3414 C   0  0  0  0  0  0  0  0  0  0  0  0
   25.7833  -27.8212    4.8609 C   0  0  0  0  0  0  0  0  0  0  0  0
   26.1057  -26.5020    4.6834 O   0  0  0  0  0  0  0  0  0  0  0  0
   24.6226  -28.1000    5.5932 C   0  0  0  0  0  0  0  0  0  0  0  0
   23.9133  -27.0248    6.0703 O   0  0  0  0  0  0  0  0  0  0  0  0
   26.8735  -26.2683    4.1999 H   0  0  0  0  0  0  0  0  0  0  0  0
   24.2122  -26.1533    5.8996 H   0  0  0  0  0  0  0  0  0  0  0  0
   26.9958  -31.2586    4.0231 N   0  0  0  0  0  0  0  0  0  0  0  0
   26.4016  -32.1891    3.4600 O   0  0  0  0  0  0  0  0  0  0  0  0
   28.2238  -31.1870    4.1590 O   0  0  0  0  0  0  0  0  0  0  0  0
 10 11  1  0
  3 11  1  0
  3  4  1  0
  4  5  1  0
  4  6  1  0
  6  1  1  0
  1  2  2  0
  2 19  1  0
 19 20  1  0
 20 21  1  0
 21 22  2  0
 21 24  1  0
 24 25  2  0
 25 26  1  0
 26 34  1  0
 34 35  2  0
 34 36  1  0
 26 27  2  0
 27 28  1  0
 28 29  1  0
 28 30  2  0
 30 31  1  0
  6  7  1  0
  7  8  1  0
  8 12  1  0
 12 13  1  0
 13 14  2  0
 14 15  1  0
 15 16  2  0
 16 17  1  0
 17 18  2  0
  8  3  1  0
 18 13  1  0
 30 24  1  0
  5  9  1  0
 20 23  1  0
 29 32  1  0
 31 33  1  0
M  CHG 1  34   1
M  CHG 1  36  -1
M  END
> <minimizedAffinity>
-8.85493

> <CNNscore>
0.8569742441

> <CNNaffinity>
6.5036396980

> <CNN_VS>
5.5734515190

> <CNNaffinity_variance>
0.0432631560

$$$$



 36 38  0  0  0  0  0  0  0  0999 V2000
   21.2666  -32.3517   13.7381 C   0  0  0  0  0  0  0  0  0  0  0  0
   19.9557  -32.0585   13.7434 C   0  0  0  0  0  0  0  0  0  0  0  0
   22.0521  -35.3380   13.0063 C   0  0  0  0  0  0  0  0  0  0  0  0
   22.9217  -34.2762   13.6777 C   0  0  0  0  0  0  0  0  0  0  0  0
   23.8914  -34.8837   14.5427 O   0  0  0  0  0  0  0  0  0  0  0  0
   21.8867  -33.4908   14.4988 C   0  0  0  0  0  0  0  0  0  0  0  0
   20.8282  -34.4086   14.8378 O   0  0  0  0  0  0  0  0  0  0  0  0
   21.0729  -35.6484   14.1443 C   0  0  0  0  0  0  0  0  0  0  0  0
   23.4389  -35.4433   15.1931 H   0  0  0  0  0  0  0  0  0  0  0  0
   22.5456  -36.7580   11.1646 C   0  0  0  0  0  0  0  0  0  0  0  0
   22.7380  -36.5024   12.5477 O   0  0  0  0  0  0  0  0  0  0  0  0
   19.5200  -36.4567   13.5887 S   0  0  0  0  0  0  0  0  0  0  0  0
   18.8296  -36.9857   15.1426 C   0  0  0  0  0  0  0  0  0  0  0  0
   19.4928  -37.9166   15.9385 C   0  0  0  0  0  0  0  0  0  0  0  0
   18.9186  -38.2764   17.1440 C   0  0  0  0  0  0  0  0  0  0  0  0
   17.7414  -37.7875   17.5891 N   0  0  0  0  0  0  0  0  0  0  0  0
   17.1023  -36.9140   16.7814 C   0  0  0  0  0  0  0  0  0  0  0  0
   17.5971  -36.4899   15.5605 C   0  0  0  0  0  0  0  0  0  0  0  0
   19.3433  -30.9398   12.9592 C   0  0  0  0  0  0  0  0  0  0  0  0
   17.9304  -30.9520   13.2266 N   0  0  0  0  0  0  0  0  0  0  0  0
   16.9806  -30.9403   12.2369 C   0  0  0  0  0  0  0  0  0  0  0  0
   17.2567  -30.9844   11.0424 O   0  0  0  0  0  0  0  0  0  0  0  0
   17.6306  -30.9696   14.1642 H   0  0  0  0  0  0  0  0  0  0  0  0
   15.5494  -30.8698   12.6654 C   0  0  0  0  0  0  0  0  0  0  0  0
   14.6238  -31.6447   11.9416 C   0  0  0  0  0  0  0  0  0  0  0  0
   13.2634  -31.6286   12.2881 C   0  0  0  0  0  0  0  0  0  0  0  0
   12.8003  -30.8466   13.3552 C   0  0  0  0  0  0  0  0  0  0  0  0
   13.7196  -30.0839   14.0619 C   0  0  0  0  0  0  0  0  0  0  0  0
   13.3396  -29.2937   15.1140 O   0  0  0  0  0  0  0  0  0  0  0  0
   15.0794  -30.0876   13.7271 C   0  0  0  0  0  0  0  0  0  0  0  0
   15.9095  -29.2958   14.4826 O   0  0  0  0  0  0  0  0  0  0  0  0
   12.4398  -29.2599   15.3736 H   0  0  0  0  0  0  0  0  0  0  0  0
   15.5583  -28.7858   15.1858 H   0  0  0  0  0  0  0  0  0  0  0  0
   12.3081  -32.4458   11.5288 N   0  0  0  0  0  0  0  0  0  0  0  0
   12.0618  -33.5818   11.9587 O   0  0  0  0  0  0  0  0  0  0  0  0
   11.8078  -31.9549   10.5088 O   0  0  0  0  0  0  0  0  0  0  0  0
 10 11  1  0
  3 11  1  0
  3  4  1  0
  4  5  1  0
  4  6  1  0
  6  1  1  0
  1  2  2  0
  2 19  1  0
 19 20  1  0
 20 21  1  0
 21 22  2  0
 21 24  1  0
 24 25  2  0
 25 26  1  0
 26 34  1  0
 34 35  2  0
 34 36  1  0
 26 27  2  0
 27 28  1  0
 28 29  1  0
 28 30  2  0
 30 31  1  0
  6  7  1  0
  7  8  1  0
  8 12  1  0
 12 13  1  0
 13 14  2  0
 14 15  1  0
 15 16  2  0
 16 17  1  0
 17 18  2  0
  8  3  1  0
 18 13  1  0
 30 24  1  0
  5  9  1  0
 20 23  1  0
 29 32  1  0
 31 33  1  0
M  CHG 1  34   1
M  CHG 1  36  -1
M  END
> <minimizedAffinity>
-8.21893

> <CNNscore>
0.6179871559

> <CNNaffinity>
6.5513739586

> <CNN_VS>
4.0486650467

> <CNNaffinity_variance>
0.0641315505

$$$$



 36 38  0  0  0  0  0  0  0  0999 V2000
   19.7524  -32.5552   12.8980 C   0  0  0  0  0  0  0  0  0  0  0  0
   19.9728  -31.3629   13.4763 C   0  0  0  0  0  0  0  0  0  0  0  0
   22.7183  -33.6804   12.8112 C   0  0  0  0  0  0  0  0  0  0  0  0
   21.7652  -33.6374   14.0045 C   0  0  0  0  0  0  0  0  0  0  0  0
   22.0395  -34.7112   14.9151 O   0  0  0  0  0  0  0  0  0  0  0  0
   20.4003  -33.8421   13.3281 C   0  0  0  0  0  0  0  0  0  0  0  0
   20.6278  -34.6272   12.1409 O   0  0  0  0  0  0  0  0  0  0  0  0
   22.0515  -34.7735   11.9684 C   0  0  0  0  0  0  0  0  0  0  0  0
   21.9880  -35.5568   14.4427 H   0  0  0  0  0  0  0  0  0  0  0  0
   25.0059  -33.2669   12.3132 C   0  0  0  0  0  0  0  0  0  0  0  0
   24.0793  -33.9837   13.1150 O   0  0  0  0  0  0  0  0  0  0  0  0
   22.5467  -34.7542   10.1998 S   0  0  0  0  0  0  0  0  0  0  0  0
   21.8668  -33.1972    9.6665 C   0  0  0  0  0  0  0  0  0  0  0  0
   21.5176  -32.9895    8.3343 C   0  0  0  0  0  0  0  0  0  0  0  0
   20.9766  -31.7669    7.9808 C   0  0  0  0  0  0  0  0  0  0  0  0
   20.7802  -30.7542    8.8519 N   0  0  0  0  0  0  0  0  0  0  0  0
   21.1608  -30.9698   10.1297 C   0  0  0  0  0  0  0  0  0  0  0  0
   21.7070  -32.1588   10.5805 C   0  0  0  0  0  0  0  0  0  0  0  0
   19.3004  -30.0917   13.0599 C   0  0  0  0  0  0  0  0  0  0  0  0
   17.8928  -30.2500   13.3079 N   0  0  0  0  0  0  0  0  0  0  0  0
   17.0018  -30.6443   12.3424 C   0  0  0  0  0  0  0  0  0  0  0  0
   17.3404  -30.9574   11.2056 O   0  0  0  0  0  0  0  0  0  0  0  0
   17.5525  -30.0667   14.2133 H   0  0  0  0  0  0  0  0  0  0  0  0
   15.5561  -30.6843   12.7233 C   0  0  0  0  0  0  0  0  0  0  0  0
   14.7099  -31.4982   11.9469 C   0  0  0  0  0  0  0  0  0  0  0  0
   13.3412  -31.5851   12.2470 C   0  0  0  0  0  0  0  0  0  0  0  0
   12.7911  -30.8690   13.3189 C   0  0  0  0  0  0  0  0  0  0  0  0
   13.6323  -30.0672   14.0777 C   0  0  0  0  0  0  0  0  0  0  0  0
   13.1649  -29.3368   15.1379 O   0  0  0  0  0  0  0  0  0  0  0  0
   14.9992  -29.9683   13.7898 C   0  0  0  0  0  0  0  0  0  0  0  0
   15.7479  -29.1450   14.5951 O   0  0  0  0  0  0  0  0  0  0  0  0
   12.2571  -29.3721   15.3673 H   0  0  0  0  0  0  0  0  0  0  0  0
   15.3398  -28.6815   15.2998 H   0  0  0  0  0  0  0  0  0  0  0  0
   12.4696  -32.4421   11.4329 N   0  0  0  0  0  0  0  0  0  0  0  0
   12.3655  -32.1690   10.2285 O   0  0  0  0  0  0  0  0  0  0  0  0
   11.8925  -33.3819   11.9944 O   0  0  0  0  0  0  0  0  0  0  0  0
 10 11  1  0
  3 11  1  0
  3  4  1  0
  4  5  1  0
  4  6  1  0
  6  1  1  0
  1  2  2  0
  2 19  1  0
 19 20  1  0
 20 21  1  0
 21 22  2  0
 21 24  1  0
 24 25  2  0
 25 26  1  0
 26 34  1  0
 34 35  2  0
 34 36  1  0
 26 27  2  0
 27 28  1  0
 28 29  1  0
 28 30  2  0
 30 31  1  0
  6  7  1  0
  7  8  1  0
  8 12  1  0
 12 13  1  0
 13 14  2  0
 14 15  1  0
 15 16  2  0
 16 17  1  0
 17 18  2  0
  8  3  1  0
 18 13  1  0
 30 24  1  0
  5  9  1  0
 20 23  1  0
 29 32  1  0
 31 33  1  0
M  CHG 1  34   1
M  CHG 1  36  -1
M  END
> <minimizedAffinity>
-8.12273

> <CNNscore>
0.5965240002

> <CNNaffinity>
6.5064392090

> <CNN_VS>
3.8812470436

> <CNNaffinity_variance>
0.1394678801

$$$$



 36 38  0  0  0  0  0  0  0  0999 V2000
   21.9521  -33.1486    9.8682 C   0  0  0  0  0  0  0  0  0  0  0  0
   21.6020  -32.2831    8.9024 C   0  0  0  0  0  0  0  0  0  0  0  0
   23.1164  -34.3726   12.5546 C   0  0  0  0  0  0  0  0  0  0  0  0
   22.8914  -32.9002   12.2141 C   0  0  0  0  0  0  0  0  0  0  0  0
   22.6266  -32.1374   13.3997 O   0  0  0  0  0  0  0  0  0  0  0  0
   21.6377  -32.9676   11.3274 C   0  0  0  0  0  0  0  0  0  0  0  0
   20.8794  -34.1181   11.7502 O   0  0  0  0  0  0  0  0  0  0  0  0
   21.6656  -34.8395   12.7195 C   0  0  0  0  0  0  0  0  0  0  0  0
   21.8675  -32.5196   13.8672 H   0  0  0  0  0  0  0  0  0  0  0  0
   24.2206  -33.4519   14.4481 C   0  0  0  0  0  0  0  0  0  0  0  0
   23.9039  -34.6270   13.7172 O   0  0  0  0  0  0  0  0  0  0  0  0
   21.4499  -36.6582   12.5802 S   0  0  0  0  0  0  0  0  0  0  0  0
   19.9192  -36.8939   13.4592 C   0  0  0  0  0  0  0  0  0  0  0  0
   19.5371  -36.0203   14.4743 C   0  0  0  0  0  0  0  0  0  0  0  0
   18.3290  -36.2414   15.1099 C   0  0  0  0  0  0  0  0  0  0  0  0
   17.5024  -37.2668   14.8129 N   0  0  0  0  0  0  0  0  0  0  0  0
   17.9141  -38.1191   13.8496 C   0  0  0  0  0  0  0  0  0  0  0  0
   19.1027  -37.9800   13.1544 C   0  0  0  0  0  0  0  0  0  0  0  0
   21.8938  -32.4864    7.4480 C   0  0  0  0  0  0  0  0  0  0  0  0
   22.7961  -31.4429    7.0418 N   0  0  0  0  0  0  0  0  0  0  0  0
   22.4471  -30.1165    7.0223 C   0  0  0  0  0  0  0  0  0  0  0  0
   21.3592  -29.7039    7.4115 O   0  0  0  0  0  0  0  0  0  0  0  0
   23.7072  -31.6923    6.7645 H   0  0  0  0  0  0  0  0  0  0  0  0
   23.4615  -29.1516    6.4963 C   0  0  0  0  0  0  0  0  0  0  0  0
   24.4659  -29.6698    5.6574 C   0  0  0  0  0  0  0  0  0  0  0  0
   25.4510  -28.8223    5.1262 C   0  0  0  0  0  0  0  0  0  0  0  0
   25.4558  -27.4512    5.4170 C   0  0  0  0  0  0  0  0  0  0  0  0
   24.4632  -26.9492    6.2469 C   0  0  0  0  0  0  0  0  0  0  0  0
   24.4064  -25.6211    6.5769 O   0  0  0  0  0  0  0  0  0  0  0  0
   23.4749  -27.7820    6.7862 C   0  0  0  0  0  0  0  0  0  0  0  0
   22.5389  -27.1921    7.6004 O   0  0  0  0  0  0  0  0  0  0  0  0
   25.0470  -25.0266    6.2391 H   0  0  0  0  0  0  0  0  0  0  0  0
   22.5802  -26.2718    7.7716 H   0  0  0  0  0  0  0  0  0  0  0  0
   26.4905  -29.3740    4.2476 N   0  0  0  0  0  0  0  0  0  0  0  0
   26.6196  -30.6063    4.2212 O   0  0  0  0  0  0  0  0  0  0  0  0
   27.1738  -28.5801    3.5885 O   0  0  0  0  0  0  0  0  0  0  0  0
 10 11  1  0
  3 11  1  0
  3  4  1  0
  4  5  1  0
  4  6  1  0
  6  1  1  0
  1  2  2  0
  2 19  1  0
 19 20  1  0
 20 21  1  0
 21 22  2  0
 21 24  1  0
 24 25  2  0
 25 26  1  0
 26 34  1  0
 34 35  2  0
 34 36  1  0
 26 27  2  0
 27 28  1  0
 28 29  1  0
 28 30  2  0
 30 31  1  0
  6  7  1  0
  7  8  1  0
  8 12  1  0
 12 13  1  0
 13 14  2  0
 14 15  1  0
 15 16  2  0
 16 17  1  0
 17 18  2  0
  8  3  1  0
 18 13  1  0
 30 24  1  0
  5  9  1  0
 20 23  1  0
 29 32  1  0
 31 33  1  0
M  CHG 1  34   1
M  CHG 1  36  -1
M  END
> <minimizedAffinity>
-7.12498

> <CNNscore>
0.5106813312

> <CNNaffinity>
5.9820079803

> <CNN_VS>
3.0548996925

> <CNNaffinity_variance>
0.0694719031

$$$$



 36 38  0  0  0  0  0  0  0  0999 V2000
   20.6078  -32.4307   11.9656 C   0  0  0  0  0  0  0  0  0  0  0  0
   19.8773  -32.0242   13.0170 C   0  0  0  0  0  0  0  0  0  0  0  0
   21.5985  -34.7574   13.8828 C   0  0  0  0  0  0  0  0  0  0  0  0
   20.5283  -34.8293   12.7947 C   0  0  0  0  0  0  0  0  0  0  0  0
   20.4487  -36.1516   12.2445 O   0  0  0  0  0  0  0  0  0  0  0  0
   21.0729  -33.8440   11.7483 C   0  0  0  0  0  0  0  0  0  0  0  0
   22.5093  -33.8476   11.8681 O   0  0  0  0  0  0  0  0  0  0  0  0
   22.8594  -34.6427   13.0185 C   0  0  0  0  0  0  0  0  0  0  0  0
   21.3204  -36.4161   11.9112 H   0  0  0  0  0  0  0  0  0  0  0  0
   22.4771  -36.9254   14.3068 C   0  0  0  0  0  0  0  0  0  0  0  0
   21.6515  -35.8698   14.7752 O   0  0  0  0  0  0  0  0  0  0  0  0
   24.3160  -33.9723   13.9143 S   0  0  0  0  0  0  0  0  0  0  0  0
   25.5791  -34.0983   12.6653 C   0  0  0  0  0  0  0  0  0  0  0  0
   25.6838  -35.2355   11.8681 C   0  0  0  0  0  0  0  0  0  0  0  0
   26.6723  -35.2704   10.9017 C   0  0  0  0  0  0  0  0  0  0  0  0
   27.5540  -34.2691   10.6949 N   0  0  0  0  0  0  0  0  0  0  0  0
   27.4527  -33.1936   11.5055 C   0  0  0  0  0  0  0  0  0  0  0  0
   26.4963  -33.0640   12.4973 C   0  0  0  0  0  0  0  0  0  0  0  0
   19.3937  -30.6205   13.2099 C   0  0  0  0  0  0  0  0  0  0  0  0
   17.9726  -30.6817   13.4210 N   0  0  0  0  0  0  0  0  0  0  0  0
   17.0684  -30.8140   12.3980 C   0  0  0  0  0  0  0  0  0  0  0  0
   17.3992  -30.9566   11.2253 O   0  0  0  0  0  0  0  0  0  0  0  0
   17.6326  -30.6261   14.3432 H   0  0  0  0  0  0  0  0  0  0  0  0
   15.6178  -30.7787   12.7605 C   0  0  0  0  0  0  0  0  0  0  0  0
   14.7438  -31.5667   11.9883 C   0  0  0  0  0  0  0  0  0  0  0  0
   13.3689  -31.5834   12.2718 C   0  0  0  0  0  0  0  0  0  0  0  0
   12.8401  -30.8218   13.3229 C   0  0  0  0  0  0  0  0  0  0  0  0
   13.7088  -30.0460   14.0777 C   0  0  0  0  0  0  0  0  0  0  0  0
   13.2634  -29.2743   15.1179 O   0  0  0  0  0  0  0  0  0  0  0  0
   15.0823  -30.0170   13.8060 C   0  0  0  0  0  0  0  0  0  0  0  0
   15.8590  -29.2145   14.6057 O   0  0  0  0  0  0  0  0  0  0  0  0
   12.3522  -29.2625   15.3359 H   0  0  0  0  0  0  0  0  0  0  0  0
   15.4646  -28.7189   15.2962 H   0  0  0  0  0  0  0  0  0  0  0  0
   12.4679  -32.4140   11.4623 N   0  0  0  0  0  0  0  0  0  0  0  0
   12.1843  -33.5390   11.8981 O   0  0  0  0  0  0  0  0  0  0  0  0
   12.0469  -31.9444   10.3975 O   0  0  0  0  0  0  0  0  0  0  0  0
 10 11  1  0
  3 11  1  0
  3  4  1  0
  4  5  1  0
  4  6  1  0
  6  1  1  0
  1  2  2  0
  2 19  1  0
 19 20  1  0
 20 21  1  0
 21 22  2  0
 21 24  1  0
 24 25  2  0
 25 26  1  0
 26 34  1  0
 34 35  2  0
 34 36  1  0
 26 27  2  0
 27 28  1  0
 28 29  1  0
 28 30  2  0
 30 31  1  0
  6  7  1  0
  7  8  1  0
  8 12  1  0
 12 13  1  0
 13 14  2  0
 14 15  1  0
 15 16  2  0
 16 17  1  0
 17 18  2  0
  8  3  1  0
 18 13  1  0
 30 24  1  0
  5  9  1  0
 20 23  1  0
 29 32  1  0
 31 33  1  0
M  CHG 1  34   1
M  CHG 1  36  -1
M  END
> <minimizedAffinity>
-7.86496

> <CNNscore>
0.4758999646

> <CNNaffinity>
6.1525092125

> <CNN_VS>
2.9279789925

> <CNNaffinity_variance>
0.3579441309

$$$$



 36 38  0  0  0  0  0  0  0  0999 V2000
   22.8558  -33.5314    8.6936 C   0  0  0  0  0  0  0  0  0  0  0  0
   22.2046  -33.5273    7.5186 C   0  0  0  0  0  0  0  0  0  0  0  0
   22.5557  -35.3562   11.2725 C   0  0  0  0  0  0  0  0  0  0  0  0
   22.7028  -35.8025    9.8187 C   0  0  0  0  0  0  0  0  0  0  0  0
   23.3449  -37.0828    9.7408 O   0  0  0  0  0  0  0  0  0  0  0  0
   23.6147  -34.7082    9.2414 C   0  0  0  0  0  0  0  0  0  0  0  0
   24.4359  -34.2250   10.3229 O   0  0  0  0  0  0  0  0  0  0  0  0
   23.9724  -34.8366   11.5432 C   0  0  0  0  0  0  0  0  0  0  0  0
   24.2014  -37.0430   10.1943 H   0  0  0  0  0  0  0  0  0  0  0  0
   23.2561  -36.9330   12.9080 C   0  0  0  0  0  0  0  0  0  0  0  0
   22.1640  -36.3709   12.1963 O   0  0  0  0  0  0  0  0  0  0  0  0
   24.0848  -33.6998   12.9813 S   0  0  0  0  0  0  0  0  0  0  0  0
   22.4425  -33.0119   13.0086 C   0  0  0  0  0  0  0  0  0  0  0  0
   22.0300  -32.1099   12.0308 C   0  0  0  0  0  0  0  0  0  0  0  0
   20.7374  -31.6224   12.0913 C   0  0  0  0  0  0  0  0  0  0  0  0
   19.8535  -31.9596   13.0547 N   0  0  0  0  0  0  0  0  0  0  0  0
   20.2910  -32.8078   14.0103 C   0  0  0  0  0  0  0  0  0  0  0  0
   21.5634  -33.3517   14.0337 C   0  0  0  0  0  0  0  0  0  0  0  0
   21.4761  -32.3409    6.9677 C   0  0  0  0  0  0  0  0  0  0  0  0
   22.4632  -31.3534    6.6237 N   0  0  0  0  0  0  0  0  0  0  0  0
   22.3537  -30.0315    6.9731 C   0  0  0  0  0  0  0  0  0  0  0  0
   21.4385  -29.5943    7.6633 O   0  0  0  0  0  0  0  0  0  0  0  0
   23.2550  -31.6396    6.1133 H   0  0  0  0  0  0  0  0  0  0  0  0
   23.4152  -29.1035    6.4741 C   0  0  0  0  0  0  0  0  0  0  0  0
   24.4345  -29.6619    5.6801 C   0  0  0  0  0  0  0  0  0  0  0  0
   25.4634  -28.8504    5.1762 C   0  0  0  0  0  0  0  0  0  0  0  0
   25.4979  -27.4763    5.4502 C   0  0  0  0  0  0  0  0  0  0  0  0
   24.4901  -26.9347    6.2359 C   0  0  0  0  0  0  0  0  0  0  0  0
   24.4603  -25.6013    6.5473 O   0  0  0  0  0  0  0  0  0  0  0  0
   23.4582  -27.7312    6.7476 C   0  0  0  0  0  0  0  0  0  0  0  0
   22.5102  -27.1036    7.5186 O   0  0  0  0  0  0  0  0  0  0  0  0
   25.1305  -25.0302    6.2267 H   0  0  0  0  0  0  0  0  0  0  0  0
   22.5723  -26.1827    7.6800 H   0  0  0  0  0  0  0  0  0  0  0  0
   26.5183  -29.4438    4.3442 N   0  0  0  0  0  0  0  0  0  0  0  0
   26.6897  -30.6683    4.4286 O   0  0  0  0  0  0  0  0  0  0  0  0
   27.1714  -28.6900    3.6116 O   0  0  0  0  0  0  0  0  0  0  0  0
 10 11  1  0
  3 11  1  0
  3  4  1  0
  4  5  1  0
  4  6  1  0
  6  1  1  0
  1  2  2  0
  2 19  1  0
 19 20  1  0
 20 21  1  0
 21 22  2  0
 21 24  1  0
 24 25  2  0
 25 26  1  0
 26 34  1  0
 34 35  2  0
 34 36  1  0
 26 27  2  0
 27 28  1  0
 28 29  1  0
 28 30  2  0
 30 31  1  0
  6  7  1  0
  7  8  1  0
  8 12  1  0
 12 13  1  0
 13 14  2  0
 14 15  1  0
 15 16  2  0
 16 17  1  0
 17 18  2  0
  8  3  1  0
 18 13  1  0
 30 24  1  0
  5  9  1  0
 20 23  1  0
 29 32  1  0
 31 33  1  0
M  CHG 1  34   1
M  CHG 1  36  -1
M  END
> <minimizedAffinity>
-6.70444

> <CNNscore>
0.4458247423

> <CNNaffinity>
5.7222976685

> <CNN_VS>
2.5511419773

> <CNNaffinity_variance>
0.0510694049

$$$$



 36 38  0  0  0  0  0  0  0  0999 V2000
   21.6812  -32.7170   10.0012 C   0  0  0  0  0  0  0  0  0  0  0  0
   21.2732  -31.4401   10.0870 C   0  0  0  0  0  0  0  0  0  0  0  0
   20.8918  -35.0734   11.9748 C   0  0  0  0  0  0  0  0  0  0  0  0
   22.1300  -34.9685   11.0857 C   0  0  0  0  0  0  0  0  0  0  0  0
   23.2340  -35.6791   11.6634 O   0  0  0  0  0  0  0  0  0  0  0  0
   22.4006  -33.4556   11.0956 C   0  0  0  0  0  0  0  0  0  0  0  0
   21.9130  -32.9448   12.3521 O   0  0  0  0  0  0  0  0  0  0  0  0
   21.2237  -34.0133   13.0313 C   0  0  0  0  0  0  0  0  0  0  0  0
   23.4026  -35.3431   12.5575 H   0  0  0  0  0  0  0  0  0  0  0  0
   21.0341  -36.4406   13.9145 C   0  0  0  0  0  0  0  0  0  0  0  0
   20.6486  -36.3562   12.5508 O   0  0  0  0  0  0  0  0  0  0  0  0
   19.7622  -33.4167   13.9701 S   0  0  0  0  0  0  0  0  0  0  0  0
   19.6569  -31.7291   13.4116 C   0  0  0  0  0  0  0  0  0  0  0  0
   18.6376  -31.3235   12.5534 C   0  0  0  0  0  0  0  0  0  0  0  0
   18.5945  -29.9963   12.1672 C   0  0  0  0  0  0  0  0  0  0  0  0
   19.4944  -29.0709   12.5630 N   0  0  0  0  0  0  0  0  0  0  0  0
   20.4926  -29.4989   13.3658 C   0  0  0  0  0  0  0  0  0  0  0  0
   20.6188  -30.8039   13.8090 C   0  0  0  0  0  0  0  0  0  0  0  0
   20.5313  -30.7220    9.0028 C   0  0  0  0  0  0  0  0  0  0  0  0
   21.4379  -29.7691    8.4214 N   0  0  0  0  0  0  0  0  0  0  0  0
   22.1844  -30.0326    7.3011 C   0  0  0  0  0  0  0  0  0  0  0  0
   22.0924  -31.0775    6.6649 O   0  0  0  0  0  0  0  0  0  0  0  0
   21.5270  -28.8861    8.8474 H   0  0  0  0  0  0  0  0  0  0  0  0
   23.1473  -28.9771    6.8590 C   0  0  0  0  0  0  0  0  0  0  0  0
   24.1550  -29.3650    5.9560 C   0  0  0  0  0  0  0  0  0  0  0  0
   25.0934  -28.4270    5.4973 C   0  0  0  0  0  0  0  0  0  0  0  0
   25.0477  -27.0929    5.9248 C   0  0  0  0  0  0  0  0  0  0  0  0
   24.0522  -26.7197    6.8170 C   0  0  0  0  0  0  0  0  0  0  0  0
   23.9475  -25.4350    7.2801 O   0  0  0  0  0  0  0  0  0  0  0  0
   23.1102  -27.6441    7.2853 C   0  0  0  0  0  0  0  0  0  0  0  0
   22.1674  -27.1795    8.1697 O   0  0  0  0  0  0  0  0  0  0  0  0
   24.5561  -24.7827    6.9938 H   0  0  0  0  0  0  0  0  0  0  0  0
   22.1742  -26.2800    8.4322 H   0  0  0  0  0  0  0  0  0  0  0  0
   26.1367  -28.8427    4.5509 N   0  0  0  0  0  0  0  0  0  0  0  0
   26.7498  -27.9492    3.9496 O   0  0  0  0  0  0  0  0  0  0  0  0
   26.3413  -30.0550    4.4096 O   0  0  0  0  0  0  0  0  0  0  0  0
 10 11  1  0
  3 11  1  0
  3  4  1  0
  4  5  1  0
  4  6  1  0
  6  1  1  0
  1  2  2  0
  2 19  1  0
 19 20  1  0
 20 21  1  0
 21 22  2  0
 21 24  1  0
 24 25  2  0
 25 26  1  0
 26 34  1  0
 34 35  2  0
 34 36  1  0
 26 27  2  0
 27 28  1  0
 28 29  1  0
 28 30  2  0
 30 31  1  0
  6  7  1  0
  7  8  1  0
  8 12  1  0
 12 13  1  0
 13 14  2  0
 14 15  1  0
 15 16  2  0
 16 17  1  0
 17 18  2  0
  8  3  1  0
 18 13  1  0
 30 24  1  0
  5  9  1  0
 20 23  1  0
 29 32  1  0
 31 33  1  0
M  CHG 1  34   1
M  CHG 1  36  -1
M  END
> <minimizedAffinity>
-7.97378

> <CNNscore>
0.4297620654

> <CNNaffinity>
5.8676934242

> <CNN_VS>
2.5217120647

> <CNNaffinity_variance>
0.0597551279

$$$$



 36 38  0  0  0  0  0  0  0  0999 V2000
   19.5357  -30.8666   11.1621 C   0  0  0  0  0  0  0  0  0  0  0  0
   20.5664  -30.6045   10.3414 C   0  0  0  0  0  0  0  0  0  0  0  0
   21.5974  -31.9199   13.3324 C   0  0  0  0  0  0  0  0  0  0  0  0
   21.0191  -30.5127   13.1922 C   0  0  0  0  0  0  0  0  0  0  0  0
   20.9529  -29.8593   14.4675 O   0  0  0  0  0  0  0  0  0  0  0  0
   19.6054  -30.8018   12.6627 C   0  0  0  0  0  0  0  0  0  0  0  0
   19.2187  -32.0953   13.1677 O   0  0  0  0  0  0  0  0  0  0  0  0
   20.3599  -32.6753   13.8304 C   0  0  0  0  0  0  0  0  0  0  0  0
   20.4354  -30.4023   15.0825 H   0  0  0  0  0  0  0  0  0  0  0  0
   23.3276  -33.3242   14.1611 C   0  0  0  0  0  0  0  0  0  0  0  0
   22.7063  -32.0491   14.2213 O   0  0  0  0  0  0  0  0  0  0  0  0
   20.4549  -34.4944   13.5949 S   0  0  0  0  0  0  0  0  0  0  0  0
   21.4825  -34.6028   12.1446 C   0  0  0  0  0  0  0  0  0  0  0  0
   22.5670  -35.4757   12.1017 C   0  0  0  0  0  0  0  0  0  0  0  0
   23.3189  -35.5313   10.9425 C   0  0  0  0  0  0  0  0  0  0  0  0
   23.0711  -34.7756    9.8514 N   0  0  0  0  0  0  0  0  0  0  0  0
   22.0359  -33.9122    9.9330 C   0  0  0  0  0  0  0  0  0  0  0  0
   21.2236  -33.7865   11.0465 C   0  0  0  0  0  0  0  0  0  0  0  0
   20.4794  -30.6429    8.8472 C   0  0  0  0  0  0  0  0  0  0  0  0
   21.4379  -29.6997    8.3376 N   0  0  0  0  0  0  0  0  0  0  0  0
   22.0787  -29.8586    7.1353 C   0  0  0  0  0  0  0  0  0  0  0  0
   21.8398  -30.7834    6.3654 O   0  0  0  0  0  0  0  0  0  0  0  0
   21.6438  -28.9024    8.8771 H   0  0  0  0  0  0  0  0  0  0  0  0
   23.1126  -28.8403    6.7732 C   0  0  0  0  0  0  0  0  0  0  0  0
   24.1407  -29.2505    5.9038 C   0  0  0  0  0  0  0  0  0  0  0  0
   25.1450  -28.3476    5.5201 C   0  0  0  0  0  0  0  0  0  0  0  0
   25.1459  -27.0273    5.9905 C   0  0  0  0  0  0  0  0  0  0  0  0
   24.1297  -26.6321    6.8492 C   0  0  0  0  0  0  0  0  0  0  0  0
   24.0676  -25.3592    7.3509 O   0  0  0  0  0  0  0  0  0  0  0  0
   23.1220  -27.5214    7.2429 C   0  0  0  0  0  0  0  0  0  0  0  0
   22.1633  -27.0376    8.0993 O   0  0  0  0  0  0  0  0  0  0  0  0
   24.7207  -24.7302    7.1147 H   0  0  0  0  0  0  0  0  0  0  0  0
   22.2027  -26.1485    8.3925 H   0  0  0  0  0  0  0  0  0  0  0  0
   26.2094  -28.7860    4.6079 N   0  0  0  0  0  0  0  0  0  0  0  0
   26.8904  -27.9061    4.0619 O   0  0  0  0  0  0  0  0  0  0  0  0
   26.3629  -30.0022    4.4383 O   0  0  0  0  0  0  0  0  0  0  0  0
 10 11  1  0
  3 11  1  0
  3  4  1  0
  4  5  1  0
  4  6  1  0
  6  1  1  0
  1  2  2  0
  2 19  1  0
 19 20  1  0
 20 21  1  0
 21 22  2  0
 21 24  1  0
 24 25  2  0
 25 26  1  0
 26 34  1  0
 34 35  2  0
 34 36  1  0
 26 27  2  0
 27 28  1  0
 28 29  1  0
 28 30  2  0
 30 31  1  0
  6  7  1  0
  7  8  1  0
  8 12  1  0
 12 13  1  0
 13 14  2  0
 14 15  1  0
 15 16  2  0
 16 17  1  0
 17 18  2  0
  8  3  1  0
 18 13  1  0
 30 24  1  0
  5  9  1  0
 20 23  1  0
 29 32  1  0
 31 33  1  0
M  CHG 1  34   1
M  CHG 1  36  -1
M  END
> <minimizedAffinity>
-7.53604

> <CNNscore>
0.3893379867

> <CNNaffinity>
5.7974553108

> <CNN_VS>
2.2571694851

> <CNNaffinity_variance>
0.0681188181

$$$$
