


 46 47  0  0  0  0  0  0  0  0999 V2000
   35.8281   42.5021   -5.6415 P   0  0  0  0  0  0  0  0  0  0  0  0
   37.2689   42.4438   -6.0464 O   0  0  0  0  0  0  0  0  0  0  0  0
   35.3414   44.0299   -5.5986 O   0  0  0  0  0  0  0  0  0  0  0  0
   35.9068   44.5324   -4.9914 H   0  0  0  0  0  0  0  0  0  0  0  0
   35.5820   41.8903   -4.1440 N   0  0  0  0  0  0  0  0  0  0  0  0
   34.6842   42.2543   -3.8248 H   0  0  0  0  0  0  0  0  0  0  0  0
   36.5456   42.1408   -3.0608 C   0  0  0  0  0  0  0  0  0  0  0  0
   37.8054   41.2496   -3.0937 C   0  0  0  0  0  0  0  0  0  0  0  0
   38.9092   41.7336   -3.3424 O   0  0  0  0  0  0  0  0  0  0  0  0
   37.6409   39.9225   -2.7537 N   0  0  0  0  0  0  0  0  0  0  0  0
   36.7735   39.6164   -2.4027 H   0  0  0  0  0  0  0  0  0  0  0  0
   38.7352   38.9626   -2.9066 C   0  0  0  0  0  0  0  0  0  0  0  0
   39.9415   39.7112   -3.4733 C   0  0  0  0  0  0  0  0  0  0  0  0
   39.0455   38.3007   -1.5397 C   0  0  0  0  0  0  0  0  0  0  0  0
   39.4797   36.7899   -1.5459 C   0  0  0  0  0  0  0  0  0  0  0  0
   40.3031   36.5203   -2.8220 C   0  0  0  0  0  0  0  0  0  0  0  0
   38.1811   35.9684   -1.6348 C   0  0  0  0  0  0  0  0  0  0  0  0
   40.2940   36.4822   -0.2515 C   0  0  0  0  0  0  0  0  0  0  0  0
   41.3005   35.2947   -0.1144 C   0  0  0  0  0  0  0  0  0  0  0  0
   42.6584   35.7913   -0.6732 C   0  0  0  0  0  0  0  0  0  0  0  0
   40.8997   34.0505   -0.9140 C   0  0  0  0  0  0  0  0  0  0  0  0
   41.5446   34.9041    1.3556 C   0  0  0  0  0  0  0  0  0  0  0  0
   35.8798   42.0926   -1.6696 C   0  0  0  0  0  0  0  0  0  0  0  0
   37.2379   44.2170   -1.1053 C   0  0  0  0  0  0  0  0  0  0  0  0
   36.3539   43.0862   -0.5836 C   0  0  0  0  0  0  0  0  0  0  0  0
   37.1153   42.3147    0.5020 C   0  0  0  0  0  0  0  0  0  0  0  0
   34.6959   41.6754   -6.8056 C   0  0  0  0  0  0  0  0  0  0  0  0
   34.8283   42.3335   -8.1053 N   0  0  0  0  0  0  0  0  0  0  0  0
   33.8535   43.1174   -8.6335 C   0  0  0  0  0  0  0  0  0  0  0  0
   32.8441   43.4691   -8.0456 O   0  0  0  0  0  0  0  0  0  0  0  0
   35.6583   42.2026   -8.6182 H   0  0  0  0  0  0  0  0  0  0  0  0
   34.1868   43.4237   -9.9067 O   0  0  0  0  0  0  0  0  0  0  0  0
   33.3875   42.7935  -10.9147 C   0  0  0  0  0  0  0  0  0  0  0  0
   33.3100   43.6756  -12.1346 C   0  0  0  0  0  0  0  0  0  0  0  0
   32.9311   43.1475  -13.3758 C   0  0  0  0  0  0  0  0  0  0  0  0
   32.8396   43.9727  -14.4981 C   0  0  0  0  0  0  0  0  0  0  0  0
   33.1179   45.3343  -14.3901 C   0  0  0  0  0  0  0  0  0  0  0  0
   33.4845   45.8717  -13.1582 C   0  0  0  0  0  0  0  0  0  0  0  0
   33.5765   45.0476  -12.0349 C   0  0  0  0  0  0  0  0  0  0  0  0
   34.9630   40.1676   -6.9188 C   0  0  0  0  0  0  0  0  0  0  0  0
   33.7861   39.3630   -7.4235 C   0  0  0  0  0  0  0  0  0  0  0  0
   33.1544   38.4333   -6.5854 C   0  0  0  0  0  0  0  0  0  0  0  0
   32.0791   37.6745   -7.0519 C   0  0  0  0  0  0  0  0  0  0  0  0
   31.6198   37.8395   -8.3560 C   0  0  0  0  0  0  0  0  0  0  0  0
   32.2323   38.7674   -9.1944 C   0  0  0  0  0  0  0  0  0  0  0  0
   33.3056   39.5301   -8.7304 C   0  0  0  0  0  0  0  0  0  0  0  0
 24 25  1  0
 25 26  1  0
 25 23  1  0
  7 23  1  0
  7  5  1  0
  5  1  1  0
  1  2  2  0
  1  3  1  0
  1 27  1  0
 27 40  1  0
 40 41  1  0
 41 42  2  0
 42 43  1  0
 43 44  2  0
 44 45  1  0
 45 46  2  0
 27 28  1  0
 28 29  1  0
 29 30  2  0
 29 32  1  0
 32 33  1  0
 33 34  1  0
 34 35  2  0
 35 36  1  0
 36 37  2  0
 37 38  1  0
 38 39  2  0
  7  8  1  0
  8  9  2  0
  8 10  1  0
 10 12  1  0
 12 13  1  0
 12 14  1  0
 14 15  1  0
 15 16  1  0
 15 17  1  0
 15 18  1  0
 18 19  1  0
 19 20  1  0
 19 21  1  0
 19 22  1  0
 46 41  1  0
 39 34  1  0
  5  6  1  0
  3  4  1  0
 28 31  1  0
 10 11  1  0
M  END
> <minimizedAffinity>
-9.64600

> <CNNscore>
0.9460802078

> <CNNaffinity>
8.4527845383

> <CNN_VS>
7.9970121384

> <CNNaffinity_variance>
0.1428817958

$$$$



 46 47  0  0  0  0  0  0  0  0999 V2000
   35.8521   42.6330   -5.7206 P   0  0  0  0  0  0  0  0  0  0  0  0
   37.2743   42.6647   -6.1894 O   0  0  0  0  0  0  0  0  0  0  0  0
   35.2911   44.1306   -5.5983 O   0  0  0  0  0  0  0  0  0  0  0  0
   35.8571   44.6399   -4.9973 H   0  0  0  0  0  0  0  0  0  0  0  0
   35.7052   41.9556   -4.2384 N   0  0  0  0  0  0  0  0  0  0  0  0
   34.8849   42.3794   -3.8048 H   0  0  0  0  0  0  0  0  0  0  0  0
   36.7960   42.0511   -3.2556 C   0  0  0  0  0  0  0  0  0  0  0  0
   37.9796   41.0921   -3.5045 C   0  0  0  0  0  0  0  0  0  0  0  0
   39.0978   41.5323   -3.7696 O   0  0  0  0  0  0  0  0  0  0  0  0
   37.7380   39.7444   -3.3344 N   0  0  0  0  0  0  0  0  0  0  0  0
   36.8753   39.4501   -2.9623 H   0  0  0  0  0  0  0  0  0  0  0  0
   38.7438   38.7451   -3.6982 C   0  0  0  0  0  0  0  0  0  0  0  0
   38.4896   38.3282   -5.1468 C   0  0  0  0  0  0  0  0  0  0  0  0
   40.1634   39.3348   -3.4986 C   0  0  0  0  0  0  0  0  0  0  0  0
   41.3737   38.3317   -3.5006 C   0  0  0  0  0  0  0  0  0  0  0  0
   41.4051   37.6020   -4.8592 C   0  0  0  0  0  0  0  0  0  0  0  0
   41.0725   37.2904   -2.4079 C   0  0  0  0  0  0  0  0  0  0  0  0
   42.6943   39.1165   -3.2304 C   0  0  0  0  0  0  0  0  0  0  0  0
   44.0828   38.4373   -3.0011 C   0  0  0  0  0  0  0  0  0  0  0  0
   43.9593   37.5897   -1.7092 C   0  0  0  0  0  0  0  0  0  0  0  0
   45.2295   39.4321   -2.7924 C   0  0  0  0  0  0  0  0  0  0  0  0
   44.4491   37.4616   -4.1355 C   0  0  0  0  0  0  0  0  0  0  0  0
   36.2837   41.9204   -1.8060 C   0  0  0  0  0  0  0  0  0  0  0  0
   37.4561   44.1796   -1.3619 C   0  0  0  0  0  0  0  0  0  0  0  0
   36.5493   43.0785   -0.8163 C   0  0  0  0  0  0  0  0  0  0  0  0
   37.1688   42.5084    0.4661 C   0  0  0  0  0  0  0  0  0  0  0  0
   34.7120   41.7906   -6.8654 C   0  0  0  0  0  0  0  0  0  0  0  0
   34.7754   42.4820   -8.1529 N   0  0  0  0  0  0  0  0  0  0  0  0
   33.7275   43.1774   -8.6648 C   0  0  0  0  0  0  0  0  0  0  0  0
   32.6910   43.4189   -8.0688 O   0  0  0  0  0  0  0  0  0  0  0  0
   35.6125   42.4414   -8.6696 H   0  0  0  0  0  0  0  0  0  0  0  0
   34.0251   43.5377   -9.9327 O   0  0  0  0  0  0  0  0  0  0  0  0
   33.3799   42.7667  -10.9531 C   0  0  0  0  0  0  0  0  0  0  0  0
   33.2629   43.5817  -12.2159 C   0  0  0  0  0  0  0  0  0  0  0  0
   33.5461   44.9538  -12.2100 C   0  0  0  0  0  0  0  0  0  0  0  0
   33.4574   45.7000  -13.3865 C   0  0  0  0  0  0  0  0  0  0  0  0
   33.0928   45.0819  -14.5815 C   0  0  0  0  0  0  0  0  0  0  0  0
   32.8202   43.7158  -14.6007 C   0  0  0  0  0  0  0  0  0  0  0  0
   32.9083   42.9682  -13.4247 C   0  0  0  0  0  0  0  0  0  0  0  0
   35.0303   40.2967   -7.0231 C   0  0  0  0  0  0  0  0  0  0  0  0
   33.8527   39.4513   -7.4541 C   0  0  0  0  0  0  0  0  0  0  0  0
   33.2801   38.5315   -6.5643 C   0  0  0  0  0  0  0  0  0  0  0  0
   32.2045   37.7352   -6.9627 C   0  0  0  0  0  0  0  0  0  0  0  0
   31.6860   37.8526   -8.2497 C   0  0  0  0  0  0  0  0  0  0  0  0
   32.2395   38.7701   -9.1389 C   0  0  0  0  0  0  0  0  0  0  0  0
   33.3129   39.5701   -8.7430 C   0  0  0  0  0  0  0  0  0  0  0  0
 24 25  1  0
 25 26  1  0
 25 23  1  0
  7 23  1  0
  7  5  1  0
  5  1  1  0
  1  2  2  0
  1  3  1  0
  1 27  1  0
 27 40  1  0
 40 41  1  0
 41 42  2  0
 42 43  1  0
 43 44  2  0
 44 45  1  0
 45 46  2  0
 27 28  1  0
 28 29  1  0
 29 30  2  0
 29 32  1  0
 32 33  1  0
 33 34  1  0
 34 35  2  0
 35 36  1  0
 36 37  2  0
 37 38  1  0
 38 39  2  0
  7  8  1  0
  8  9  2  0
  8 10  1  0
 10 12  1  0
 12 13  1  0
 12 14  1  0
 14 15  1  0
 15 16  1  0
 15 17  1  0
 15 18  1  0
 18 19  1  0
 19 20  1  0
 19 21  1  0
 19 22  1  0
 46 41  1  0
 39 34  1  0
  5  6  1  0
  3  4  1  0
 28 31  1  0
 10 11  1  0
M  END
> <minimizedAffinity>
-9.56151

> <CNNscore>
0.9251174331

> <CNNaffinity>
8.4473772049

> <CNN_VS>
7.8148159981

> <CNNaffinity_variance>
0.1937553883

$$$$



 46 47  0  0  0  0  0  0  0  0999 V2000
   35.8938   42.5772   -5.6023 P   0  0  0  0  0  0  0  0  0  0  0  0
   37.3372   42.6110   -6.0005 O   0  0  0  0  0  0  0  0  0  0  0  0
   35.3336   44.0750   -5.4779 O   0  0  0  0  0  0  0  0  0  0  0  0
   35.8717   44.5696   -4.8402 H   0  0  0  0  0  0  0  0  0  0  0  0
   35.6720   41.8719   -4.1426 N   0  0  0  0  0  0  0  0  0  0  0  0
   34.7387   42.1387   -3.8292 H   0  0  0  0  0  0  0  0  0  0  0  0
   36.5863   42.1521   -3.0245 C   0  0  0  0  0  0  0  0  0  0  0  0
   37.8381   41.2507   -2.9681 C   0  0  0  0  0  0  0  0  0  0  0  0
   38.9378   41.6834   -3.3113 O   0  0  0  0  0  0  0  0  0  0  0  0
   37.6736   39.9853   -2.4435 N   0  0  0  0  0  0  0  0  0  0  0  0
   36.8144   39.7403   -2.0300 H   0  0  0  0  0  0  0  0  0  0  0  0
   38.7560   39.0012   -2.4919 C   0  0  0  0  0  0  0  0  0  0  0  0
   38.7172   38.1954   -1.1935 C   0  0  0  0  0  0  0  0  0  0  0  0
   38.5908   38.1028   -3.7443 C   0  0  0  0  0  0  0  0  0  0  0  0
   39.8985   37.6359   -4.4812 C   0  0  0  0  0  0  0  0  0  0  0  0
   40.4257   36.3629   -3.7878 C   0  0  0  0  0  0  0  0  0  0  0  0
   40.9341   38.7553   -4.2724 C   0  0  0  0  0  0  0  0  0  0  0  0
   39.5810   37.3892   -5.9883 C   0  0  0  0  0  0  0  0  0  0  0  0
   39.6089   35.9823   -6.6680 C   0  0  0  0  0  0  0  0  0  0  0  0
   41.1002   35.6177   -6.8824 C   0  0  0  0  0  0  0  0  0  0  0  0
   38.9233   35.9450   -8.0378 C   0  0  0  0  0  0  0  0  0  0  0  0
   39.0122   34.8864   -5.7647 C   0  0  0  0  0  0  0  0  0  0  0  0
   35.8560   42.1565   -1.6652 C   0  0  0  0  0  0  0  0  0  0  0  0
   37.2853   44.2193   -1.0503 C   0  0  0  0  0  0  0  0  0  0  0  0
   36.3519   43.1153   -0.5579 C   0  0  0  0  0  0  0  0  0  0  0  0
   37.0684   42.2995    0.5260 C   0  0  0  0  0  0  0  0  0  0  0  0
   34.8074   41.7631   -6.8176 C   0  0  0  0  0  0  0  0  0  0  0  0
   34.9489   42.4689   -8.0910 N   0  0  0  0  0  0  0  0  0  0  0  0
   33.9293   43.1576   -8.6654 C   0  0  0  0  0  0  0  0  0  0  0  0
   32.8521   43.3807   -8.1383 O   0  0  0  0  0  0  0  0  0  0  0  0
   35.8192   42.4436   -8.5504 H   0  0  0  0  0  0  0  0  0  0  0  0
   34.3071   43.5350   -9.9067 O   0  0  0  0  0  0  0  0  0  0  0  0
   33.3064   44.2238  -10.6657 C   0  0  0  0  0  0  0  0  0  0  0  0
   33.0784   43.5159  -11.9769 C   0  0  0  0  0  0  0  0  0  0  0  0
   33.0128   44.2367  -13.1766 C   0  0  0  0  0  0  0  0  0  0  0  0
   32.8233   43.5745  -14.3908 C   0  0  0  0  0  0  0  0  0  0  0  0
   32.7055   42.1858  -14.4198 C   0  0  0  0  0  0  0  0  0  0  0  0
   32.7808   41.4585  -13.2339 C   0  0  0  0  0  0  0  0  0  0  0  0
   32.9701   42.1195  -12.0187 C   0  0  0  0  0  0  0  0  0  0  0  0
   35.1158   40.2673   -6.9766 C   0  0  0  0  0  0  0  0  0  0  0  0
   33.9460   39.4380   -7.4574 C   0  0  0  0  0  0  0  0  0  0  0  0
   33.4985   39.5485   -8.7815 C   0  0  0  0  0  0  0  0  0  0  0  0
   32.4074   38.7990   -9.2258 C   0  0  0  0  0  0  0  0  0  0  0  0
   31.7560   37.9283   -8.3561 C   0  0  0  0  0  0  0  0  0  0  0  0
   32.1980   37.8021   -7.0417 C   0  0  0  0  0  0  0  0  0  0  0  0
   33.2905   38.5475   -6.5948 C   0  0  0  0  0  0  0  0  0  0  0  0
 24 25  1  0
 25 26  1  0
 25 23  1  0
  7 23  1  0
  7  5  1  0
  5  1  1  0
  1  2  2  0
  1  3  1  0
  1 27  1  0
 27 40  1  0
 40 41  1  0
 41 42  2  0
 42 43  1  0
 43 44  2  0
 44 45  1  0
 45 46  2  0
 27 28  1  0
 28 29  1  0
 29 30  2  0
 29 32  1  0
 32 33  1  0
 33 34  1  0
 34 35  2  0
 35 36  1  0
 36 37  2  0
 37 38  1  0
 38 39  2  0
  7  8  1  0
  8  9  2  0
  8 10  1  0
 10 12  1  0
 12 13  1  0
 12 14  1  0
 14 15  1  0
 15 16  1  0
 15 17  1  0
 15 18  1  0
 18 19  1  0
 19 20  1  0
 19 21  1  0
 19 22  1  0
 46 41  1  0
 39 34  1  0
  5  6  1  0
  3  4  1  0
 28 31  1  0
 10 11  1  0
M  END
> <minimizedAffinity>
-9.13392

> <CNNscore>
0.9091898203

> <CNNaffinity>
8.3747558594

> <CNN_VS>
7.6142425537

> <CNNaffinity_variance>
0.2075550705

$$$$



 46 47  0  0  0  0  0  0  0  0999 V2000
   35.7820   42.5373   -5.7114 P   0  0  0  0  0  0  0  0  0  0  0  0
   37.2163   42.5205   -6.1425 O   0  0  0  0  0  0  0  0  0  0  0  0
   35.2719   44.0535   -5.5943 O   0  0  0  0  0  0  0  0  0  0  0  0
   35.8397   44.5388   -4.9755 H   0  0  0  0  0  0  0  0  0  0  0  0
   35.5718   41.8577   -4.2379 N   0  0  0  0  0  0  0  0  0  0  0  0
   34.6251   42.0941   -3.9408 H   0  0  0  0  0  0  0  0  0  0  0  0
   36.4614   42.2001   -3.1172 C   0  0  0  0  0  0  0  0  0  0  0  0
   37.7324   41.3311   -3.0085 C   0  0  0  0  0  0  0  0  0  0  0  0
   38.8286   41.7795   -3.3430 O   0  0  0  0  0  0  0  0  0  0  0  0
   37.5868   40.0785   -2.4488 N   0  0  0  0  0  0  0  0  0  0  0  0
   36.7253   39.8255   -2.0450 H   0  0  0  0  0  0  0  0  0  0  0  0
   38.6928   39.1196   -2.4456 C   0  0  0  0  0  0  0  0  0  0  0  0
   38.4524   38.1285   -1.3070 C   0  0  0  0  0  0  0  0  0  0  0  0
   38.7806   38.4176   -3.8249 C   0  0  0  0  0  0  0  0  0  0  0  0
   40.1544   37.7646   -4.2215 C   0  0  0  0  0  0  0  0  0  0  0  0
   40.1436   37.4793   -5.7373 C   0  0  0  0  0  0  0  0  0  0  0  0
   40.2196   36.4155   -3.4836 C   0  0  0  0  0  0  0  0  0  0  0  0
   41.3167   38.7233   -3.8177 C   0  0  0  0  0  0  0  0  0  0  0  0
   42.6880   38.2407   -3.2445 C   0  0  0  0  0  0  0  0  0  0  0  0
   43.4529   37.5723   -4.4154 C   0  0  0  0  0  0  0  0  0  0  0  0
   42.5580   37.2018   -2.1256 C   0  0  0  0  0  0  0  0  0  0  0  0
   43.5618   39.4126   -2.7586 C   0  0  0  0  0  0  0  0  0  0  0  0
   35.7094   42.2371   -1.7703 C   0  0  0  0  0  0  0  0  0  0  0  0
   37.0838   44.3429   -1.1762 C   0  0  0  0  0  0  0  0  0  0  0  0
   36.2060   43.2011   -0.6678 C   0  0  0  0  0  0  0  0  0  0  0  0
   36.9847   42.4000    0.3836 C   0  0  0  0  0  0  0  0  0  0  0  0
   34.6431   41.7427   -6.8911 C   0  0  0  0  0  0  0  0  0  0  0  0
   34.7474   42.4537   -8.1652 N   0  0  0  0  0  0  0  0  0  0  0  0
   33.7468   43.2288   -8.6570 C   0  0  0  0  0  0  0  0  0  0  0  0
   32.7319   43.5282   -8.0501 O   0  0  0  0  0  0  0  0  0  0  0  0
   35.5773   42.3668   -8.6876 H   0  0  0  0  0  0  0  0  0  0  0  0
   34.0623   43.5933   -9.9193 O   0  0  0  0  0  0  0  0  0  0  0  0
   33.3715   42.8788  -10.9510 C   0  0  0  0  0  0  0  0  0  0  0  0
   33.2547   43.7403  -12.1825 C   0  0  0  0  0  0  0  0  0  0  0  0
   33.5033   45.1176  -12.1178 C   0  0  0  0  0  0  0  0  0  0  0  0
   33.4152   45.9076  -13.2654 C   0  0  0  0  0  0  0  0  0  0  0  0
   33.0858   45.3287  -14.4899 C   0  0  0  0  0  0  0  0  0  0  0  0
   32.8478   43.9582  -14.5676 C   0  0  0  0  0  0  0  0  0  0  0  0
   32.9354   43.1669  -13.4206 C   0  0  0  0  0  0  0  0  0  0  0  0
   34.9277   40.2443   -7.0686 C   0  0  0  0  0  0  0  0  0  0  0  0
   33.7328   39.4324   -7.5164 C   0  0  0  0  0  0  0  0  0  0  0  0
   33.2005   38.4394   -6.6819 C   0  0  0  0  0  0  0  0  0  0  0  0
   32.1090   37.6743   -7.0977 C   0  0  0  0  0  0  0  0  0  0  0  0
   31.5344   37.8958   -8.3466 C   0  0  0  0  0  0  0  0  0  0  0  0
   32.0477   38.8863   -9.1798 C   0  0  0  0  0  0  0  0  0  0  0  0
   33.1369   39.6554   -8.7662 C   0  0  0  0  0  0  0  0  0  0  0  0
 24 25  1  0
 25 26  1  0
 25 23  1  0
  7 23  1  0
  7  5  1  0
  5  1  1  0
  1  2  2  0
  1  3  1  0
  1 27  1  0
 27 40  1  0
 40 41  1  0
 41 42  2  0
 42 43  1  0
 43 44  2  0
 44 45  1  0
 45 46  2  0
 27 28  1  0
 28 29  1  0
 29 30  2  0
 29 32  1  0
 32 33  1  0
 33 34  1  0
 34 35  2  0
 35 36  1  0
 36 37  2  0
 37 38  1  0
 38 39  2  0
  7  8  1  0
  8  9  2  0
  8 10  1  0
 10 12  1  0
 12 13  1  0
 12 14  1  0
 14 15  1  0
 15 16  1  0
 15 17  1  0
 15 18  1  0
 18 19  1  0
 19 20  1  0
 19 21  1  0
 19 22  1  0
 46 41  1  0
 39 34  1  0
  5  6  1  0
  3  4  1  0
 28 31  1  0
 10 11  1  0
M  END
> <minimizedAffinity>
-9.71711

> <CNNscore>
0.8874536157

> <CNNaffinity>
8.4287939072

> <CNN_VS>
7.4801635742

> <CNNaffinity_variance>
0.2381523848

$$$$



 46 47  0  0  0  0  0  0  0  0999 V2000
   35.5931   42.1012   -6.0533 P   0  0  0  0  0  0  0  0  0  0  0  0
   36.5609   43.1995   -6.3704 O   0  0  0  0  0  0  0  0  0  0  0  0
   34.1461   42.7266   -5.7568 O   0  0  0  0  0  0  0  0  0  0  0  0
   34.2133   43.3678   -5.0321 H   0  0  0  0  0  0  0  0  0  0  0  0
   36.0247   41.2649   -4.7148 N   0  0  0  0  0  0  0  0  0  0  0  0
   35.1609   41.0389   -4.2217 H   0  0  0  0  0  0  0  0  0  0  0  0
   36.9343   41.8541   -3.7196 C   0  0  0  0  0  0  0  0  0  0  0  0
   38.1309   40.9623   -3.3257 C   0  0  0  0  0  0  0  0  0  0  0  0
   39.2856   41.3585   -3.4810 O   0  0  0  0  0  0  0  0  0  0  0  0
   37.8392   39.7551   -2.7247 N   0  0  0  0  0  0  0  0  0  0  0  0
   36.9098   39.5526   -2.4706 H   0  0  0  0  0  0  0  0  0  0  0  0
   38.8892   38.7707   -2.4588 C   0  0  0  0  0  0  0  0  0  0  0  0
   38.4493   37.9253   -1.2636 C   0  0  0  0  0  0  0  0  0  0  0  0
   39.1342   37.9118   -3.7257 C   0  0  0  0  0  0  0  0  0  0  0  0
   40.6029   37.4227   -3.9991 C   0  0  0  0  0  0  0  0  0  0  0  0
   40.8688   37.4895   -5.5170 C   0  0  0  0  0  0  0  0  0  0  0  0
   40.6518   35.9448   -3.5718 C   0  0  0  0  0  0  0  0  0  0  0  0
   41.6004   38.3109   -3.1935 C   0  0  0  0  0  0  0  0  0  0  0  0
   43.1550   38.1774   -3.2799 C   0  0  0  0  0  0  0  0  0  0  0  0
   43.4503   36.9649   -4.1993 C   0  0  0  0  0  0  0  0  0  0  0  0
   43.8272   37.9070   -1.9296 C   0  0  0  0  0  0  0  0  0  0  0  0
   43.8097   39.4039   -3.9433 C   0  0  0  0  0  0  0  0  0  0  0  0
   36.1821   42.3432   -2.4643 C   0  0  0  0  0  0  0  0  0  0  0  0
   36.6858   42.4353    0.0683 C   0  0  0  0  0  0  0  0  0  0  0  0
   36.9917   42.9952   -1.3193 C   0  0  0  0  0  0  0  0  0  0  0  0
   36.7293   44.5067   -1.3190 C   0  0  0  0  0  0  0  0  0  0  0  0
   35.3313   40.9250   -7.4201 C   0  0  0  0  0  0  0  0  0  0  0  0
   35.7022   39.5926   -6.9438 N   0  0  0  0  0  0  0  0  0  0  0  0
   36.0208   38.5751   -7.7847 C   0  0  0  0  0  0  0  0  0  0  0  0
   36.1682   38.6851   -8.9906 O   0  0  0  0  0  0  0  0  0  0  0  0
   35.7217   39.4267   -5.9736 H   0  0  0  0  0  0  0  0  0  0  0  0
   36.1318   37.4372   -7.0646 O   0  0  0  0  0  0  0  0  0  0  0  0
   37.4640   36.9282   -6.9300 C   0  0  0  0  0  0  0  0  0  0  0  0
   37.6564   35.7448   -7.8437 C   0  0  0  0  0  0  0  0  0  0  0  0
   38.6901   35.7324   -8.7895 C   0  0  0  0  0  0  0  0  0  0  0  0
   38.8777   34.6251   -9.6186 C   0  0  0  0  0  0  0  0  0  0  0  0
   38.0402   33.5164   -9.5059 C   0  0  0  0  0  0  0  0  0  0  0  0
   37.0165   33.5138   -8.5610 C   0  0  0  0  0  0  0  0  0  0  0  0
   36.8275   34.6207   -7.7312 C   0  0  0  0  0  0  0  0  0  0  0  0
   33.8890   40.9431   -7.9466 C   0  0  0  0  0  0  0  0  0  0  0  0
   33.7044   41.7218   -9.2299 C   0  0  0  0  0  0  0  0  0  0  0  0
   33.8842   43.1122   -9.2446 C   0  0  0  0  0  0  0  0  0  0  0  0
   33.6970   43.8387  -10.4223 C   0  0  0  0  0  0  0  0  0  0  0  0
   33.3347   43.1853  -11.5973 C   0  0  0  0  0  0  0  0  0  0  0  0
   33.1636   41.8034  -11.5975 C   0  0  0  0  0  0  0  0  0  0  0  0
   33.3529   41.0734  -10.4227 C   0  0  0  0  0  0  0  0  0  0  0  0
 24 25  1  0
 25 26  1  0
 25 23  1  0
  7 23  1  0
  7  5  1  0
  5  1  1  0
  1  2  2  0
  1  3  1  0
  1 27  1  0
 27 40  1  0
 40 41  1  0
 41 42  2  0
 42 43  1  0
 43 44  2  0
 44 45  1  0
 45 46  2  0
 27 28  1  0
 28 29  1  0
 29 30  2  0
 29 32  1  0
 32 33  1  0
 33 34  1  0
 34 35  2  0
 35 36  1  0
 36 37  2  0
 37 38  1  0
 38 39  2  0
  7  8  1  0
  8  9  2  0
  8 10  1  0
 10 12  1  0
 12 13  1  0
 12 14  1  0
 14 15  1  0
 15 16  1  0
 15 17  1  0
 15 18  1  0
 18 19  1  0
 19 20  1  0
 19 21  1  0
 19 22  1  0
 46 41  1  0
 39 34  1  0
  5  6  1  0
  3  4  1  0
 28 31  1  0
 10 11  1  0
M  END
> <minimizedAffinity>
-8.24063

> <CNNscore>
0.6482375860

> <CNNaffinity>
7.9357457161

> <CNN_VS>
5.1442484856

> <CNNaffinity_variance>
0.2447860688

$$$$



 46 47  0  0  0  0  0  0  0  0999 V2000
   35.8525   42.1441   -5.5710 P   0  0  0  0  0  0  0  0  0  0  0  0
   34.9356   43.3176   -5.4112 O   0  0  0  0  0  0  0  0  0  0  0  0
   36.9059   42.4386   -6.7441 O   0  0  0  0  0  0  0  0  0  0  0  0
   36.4287   42.6371   -7.5649 H   0  0  0  0  0  0  0  0  0  0  0  0
   35.0473   40.7843   -5.9955 N   0  0  0  0  0  0  0  0  0  0  0  0
   35.3355   40.0586   -5.3392 H   0  0  0  0  0  0  0  0  0  0  0  0
   35.1928   40.2131   -7.3435 C   0  0  0  0  0  0  0  0  0  0  0  0
   34.1591   40.7127   -8.3752 C   0  0  0  0  0  0  0  0  0  0  0  0
   33.4899   41.7215   -8.1538 O   0  0  0  0  0  0  0  0  0  0  0  0
   34.0881   40.0274   -9.5706 N   0  0  0  0  0  0  0  0  0  0  0  0
   34.7547   39.3310   -9.7700 H   0  0  0  0  0  0  0  0  0  0  0  0
   33.0374   40.3193  -10.5470 C   0  0  0  0  0  0  0  0  0  0  0  0
   31.6928   39.9698   -9.9095 C   0  0  0  0  0  0  0  0  0  0  0  0
   33.1158   41.8084  -10.9706 C   0  0  0  0  0  0  0  0  0  0  0  0
   32.6125   42.1811  -12.4124 C   0  0  0  0  0  0  0  0  0  0  0  0
   31.0709   42.2323  -12.3970 C   0  0  0  0  0  0  0  0  0  0  0  0
   33.0411   41.0232  -13.3315 C   0  0  0  0  0  0  0  0  0  0  0  0
   33.2362   43.5454  -12.8396 C   0  0  0  0  0  0  0  0  0  0  0  0
   32.6700   44.9373  -12.4107 C   0  0  0  0  0  0  0  0  0  0  0  0
   32.4662   44.8843  -10.8749 C   0  0  0  0  0  0  0  0  0  0  0  0
   31.3163   45.2748  -13.0444 C   0  0  0  0  0  0  0  0  0  0  0  0
   33.6649   46.0811  -12.6845 C   0  0  0  0  0  0  0  0  0  0  0  0
   35.2366   38.6709   -7.3183 C   0  0  0  0  0  0  0  0  0  0  0  0
   32.8533   38.1360   -6.4759 C   0  0  0  0  0  0  0  0  0  0  0  0
   33.9222   37.8862   -7.5376 C   0  0  0  0  0  0  0  0  0  0  0  0
   34.2380   36.3857   -7.5879 C   0  0  0  0  0  0  0  0  0  0  0  0
   36.8669   41.7891   -4.0996 C   0  0  0  0  0  0  0  0  0  0  0  0
   38.0055   40.9749   -4.5243 N   0  0  0  0  0  0  0  0  0  0  0  0
   38.5086   39.9656   -3.7679 C   0  0  0  0  0  0  0  0  0  0  0  0
   38.0009   39.5396   -2.7438 O   0  0  0  0  0  0  0  0  0  0  0  0
   38.4243   41.1666   -5.3944 H   0  0  0  0  0  0  0  0  0  0  0  0
   39.6569   39.5322   -4.3331 O   0  0  0  0  0  0  0  0  0  0  0  0
   40.6019   38.9521   -3.4261 C   0  0  0  0  0  0  0  0  0  0  0  0
   41.8154   38.4766   -4.1834 C   0  0  0  0  0  0  0  0  0  0  0  0
   43.0969   38.9211   -3.8323 C   0  0  0  0  0  0  0  0  0  0  0  0
   44.2196   38.4610   -4.5226 C   0  0  0  0  0  0  0  0  0  0  0  0
   44.0744   37.5467   -5.5648 C   0  0  0  0  0  0  0  0  0  0  0  0
   42.8057   37.0895   -5.9146 C   0  0  0  0  0  0  0  0  0  0  0  0
   41.6819   37.5489   -5.2251 C   0  0  0  0  0  0  0  0  0  0  0  0
   37.3347   43.0641   -3.3832 C   0  0  0  0  0  0  0  0  0  0  0  0
   37.3518   42.9601   -1.8745 C   0  0  0  0  0  0  0  0  0  0  0  0
   38.1547   43.8235   -1.1159 C   0  0  0  0  0  0  0  0  0  0  0  0
   38.1886   43.7198    0.2762 C   0  0  0  0  0  0  0  0  0  0  0  0
   37.4180   42.7585    0.9252 C   0  0  0  0  0  0  0  0  0  0  0  0
   36.6086   41.9023    0.1831 C   0  0  0  0  0  0  0  0  0  0  0  0
   36.5698   42.0051   -1.2086 C   0  0  0  0  0  0  0  0  0  0  0  0
 24 25  1  0
 25 26  1  0
 25 23  1  0
  7 23  1  0
  7  5  1  0
  5  1  1  0
  1  2  2  0
  1  3  1  0
  1 27  1  0
 27 40  1  0
 40 41  1  0
 41 42  2  0
 42 43  1  0
 43 44  2  0
 44 45  1  0
 45 46  2  0
 27 28  1  0
 28 29  1  0
 29 30  2  0
 29 32  1  0
 32 33  1  0
 33 34  1  0
 34 35  2  0
 35 36  1  0
 36 37  2  0
 37 38  1  0
 38 39  2  0
  7  8  1  0
  8  9  2  0
  8 10  1  0
 10 12  1  0
 12 13  1  0
 12 14  1  0
 14 15  1  0
 15 16  1  0
 15 17  1  0
 15 18  1  0
 18 19  1  0
 19 20  1  0
 19 21  1  0
 19 22  1  0
 46 41  1  0
 39 34  1  0
  5  6  1  0
  3  4  1  0
 28 31  1  0
 10 11  1  0
M  END
> <minimizedAffinity>
-8.50117

> <CNNscore>
0.5994874239

> <CNNaffinity>
7.8158726692

> <CNN_VS>
4.6855173111

> <CNNaffinity_variance>
0.0030860000

$$$$



 46 47  0  0  0  0  0  0  0  0999 V2000
   36.0738   42.1512   -5.4627 P   0  0  0  0  0  0  0  0  0  0  0  0
   34.6635   42.6460   -5.3655 O   0  0  0  0  0  0  0  0  0  0  0  0
   36.9718   43.2308   -6.2377 O   0  0  0  0  0  0  0  0  0  0  0  0
   36.5890   43.4018   -7.1124 H   0  0  0  0  0  0  0  0  0  0  0  0
   36.1820   40.7565   -6.3116 N   0  0  0  0  0  0  0  0  0  0  0  0
   37.0384   40.8167   -6.8622 H   0  0  0  0  0  0  0  0  0  0  0  0
   35.1133   40.3556   -7.2401 C   0  0  0  0  0  0  0  0  0  0  0  0
   34.5552   41.4956   -8.1184 C   0  0  0  0  0  0  0  0  0  0  0  0
   35.1673   42.5572   -8.2308 O   0  0  0  0  0  0  0  0  0  0  0  0
   33.3980   41.2326   -8.8222 N   0  0  0  0  0  0  0  0  0  0  0  0
   33.0341   40.3178   -8.8316 H   0  0  0  0  0  0  0  0  0  0  0  0
   32.7027   42.2918   -9.5552 C   0  0  0  0  0  0  0  0  0  0  0  0
   32.6959   43.5438   -8.6782 C   0  0  0  0  0  0  0  0  0  0  0  0
   33.4042   42.5335  -10.9162 C   0  0  0  0  0  0  0  0  0  0  0  0
   32.6603   42.0482  -12.2132 C   0  0  0  0  0  0  0  0  0  0  0  0
   31.1512   41.9544  -11.9084 C   0  0  0  0  0  0  0  0  0  0  0  0
   33.1771   40.6271  -12.5005 C   0  0  0  0  0  0  0  0  0  0  0  0
   32.9583   43.0396  -13.3800 C   0  0  0  0  0  0  0  0  0  0  0  0
   32.8768   44.5945  -13.2473 C   0  0  0  0  0  0  0  0  0  0  0  0
   33.7695   44.9890  -12.0431 C   0  0  0  0  0  0  0  0  0  0  0  0
   31.4641   45.1167  -12.9650 C   0  0  0  0  0  0  0  0  0  0  0  0
   33.4545   45.3159  -14.4798 C   0  0  0  0  0  0  0  0  0  0  0  0
   33.9691   39.6113   -6.5207 C   0  0  0  0  0  0  0  0  0  0  0  0
   34.7334   37.4998   -7.7986 C   0  0  0  0  0  0  0  0  0  0  0  0
   33.6637   38.1499   -6.9237 C   0  0  0  0  0  0  0  0  0  0  0  0
   32.3184   38.1047   -7.6598 C   0  0  0  0  0  0  0  0  0  0  0  0
   36.8925   41.9213   -3.8512 C   0  0  0  0  0  0  0  0  0  0  0  0
   38.2258   41.3729   -4.0985 N   0  0  0  0  0  0  0  0  0  0  0  0
   38.7105   40.2935   -3.4324 C   0  0  0  0  0  0  0  0  0  0  0  0
   38.0620   39.5901   -2.6755 O   0  0  0  0  0  0  0  0  0  0  0  0
   38.7953   41.8043   -4.7758 H   0  0  0  0  0  0  0  0  0  0  0  0
   40.0178   40.1457   -3.7407 O   0  0  0  0  0  0  0  0  0  0  0  0
   40.3783   38.8642   -4.2697 C   0  0  0  0  0  0  0  0  0  0  0  0
   41.3126   38.1604   -3.3188 C   0  0  0  0  0  0  0  0  0  0  0  0
   40.8286   37.2001   -2.4207 C   0  0  0  0  0  0  0  0  0  0  0  0
   41.7010   36.5354   -1.5570 C   0  0  0  0  0  0  0  0  0  0  0  0
   43.0658   36.8172   -1.5874 C   0  0  0  0  0  0  0  0  0  0  0  0
   43.5591   37.7621   -2.4845 C   0  0  0  0  0  0  0  0  0  0  0  0
   42.6877   38.4279   -3.3488 C   0  0  0  0  0  0  0  0  0  0  0  0
   36.9707   43.2212   -3.0378 C   0  0  0  0  0  0  0  0  0  0  0  0
   37.2007   43.0163   -1.5571 C   0  0  0  0  0  0  0  0  0  0  0  0
   36.5041   42.0150   -0.8659 C   0  0  0  0  0  0  0  0  0  0  0  0
   36.6987   41.8334    0.5049 C   0  0  0  0  0  0  0  0  0  0  0  0
   37.5938   42.6441    1.1979 C   0  0  0  0  0  0  0  0  0  0  0  0
   38.2994   43.6350    0.5202 C   0  0  0  0  0  0  0  0  0  0  0  0
   38.1096   43.8175   -0.8508 C   0  0  0  0  0  0  0  0  0  0  0  0
 24 25  1  0
 25 26  1  0
 25 23  1  0
  7 23  1  0
  7  5  1  0
  5  1  1  0
  1  2  2  0
  1  3  1  0
  1 27  1  0
 27 40  1  0
 40 41  1  0
 41 42  2  0
 42 43  1  0
 43 44  2  0
 44 45  1  0
 45 46  2  0
 27 28  1  0
 28 29  1  0
 29 30  2  0
 29 32  1  0
 32 33  1  0
 33 34  1  0
 34 35  2  0
 35 36  1  0
 36 37  2  0
 37 38  1  0
 38 39  2  0
  7  8  1  0
  8  9  2  0
  8 10  1  0
 10 12  1  0
 12 13  1  0
 12 14  1  0
 14 15  1  0
 15 16  1  0
 15 17  1  0
 15 18  1  0
 18 19  1  0
 19 20  1  0
 19 21  1  0
 19 22  1  0
 46 41  1  0
 39 34  1  0
  5  6  1  0
  3  4  1  0
 28 31  1  0
 10 11  1  0
M  END
> <minimizedAffinity>
-9.04655

> <CNNscore>
0.5163122416

> <CNNaffinity>
7.6041221619

> <CNN_VS>
3.9261014462

> <CNNaffinity_variance>
0.1483259648

$$$$



 46 47  0  0  0  0  0  0  0  0999 V2000
   35.9757   42.1414   -5.7736 P   0  0  0  0  0  0  0  0  0  0  0  0
   36.9423   43.2248   -6.1414 O   0  0  0  0  0  0  0  0  0  0  0  0
   34.9781   42.6724   -4.6354 O   0  0  0  0  0  0  0  0  0  0  0  0
   35.4920   42.9719   -3.8692 H   0  0  0  0  0  0  0  0  0  0  0  0
   36.7281   40.8246   -5.1595 N   0  0  0  0  0  0  0  0  0  0  0  0
   35.9940   40.1748   -4.8781 H   0  0  0  0  0  0  0  0  0  0  0  0
   37.6428   40.9463   -4.0135 C   0  0  0  0  0  0  0  0  0  0  0  0
   38.4574   39.6744   -3.6953 C   0  0  0  0  0  0  0  0  0  0  0  0
   38.5202   39.2420   -2.5449 O   0  0  0  0  0  0  0  0  0  0  0  0
   39.0302   39.0158   -4.7638 N   0  0  0  0  0  0  0  0  0  0  0  0
   38.8169   39.3035   -5.6809 H   0  0  0  0  0  0  0  0  0  0  0  0
   39.9500   37.8964   -4.5558 C   0  0  0  0  0  0  0  0  0  0  0  0
   40.0369   37.1100   -5.8637 C   0  0  0  0  0  0  0  0  0  0  0  0
   41.3318   38.4321   -4.1013 C   0  0  0  0  0  0  0  0  0  0  0  0
   42.1794   37.5276   -3.1345 C   0  0  0  0  0  0  0  0  0  0  0  0
   42.7162   36.3223   -3.9333 C   0  0  0  0  0  0  0  0  0  0  0  0
   41.2006   36.9967   -2.0719 C   0  0  0  0  0  0  0  0  0  0  0  0
   43.3326   38.3753   -2.5142 C   0  0  0  0  0  0  0  0  0  0  0  0
   44.6957   38.6501   -3.2273 C   0  0  0  0  0  0  0  0  0  0  0  0
   44.8624   37.5560   -4.3126 C   0  0  0  0  0  0  0  0  0  0  0  0
   45.9085   38.5636   -2.2947 C   0  0  0  0  0  0  0  0  0  0  0  0
   44.7073   40.0046   -3.9609 C   0  0  0  0  0  0  0  0  0  0  0  0
   36.9239   41.4638   -2.7501 C   0  0  0  0  0  0  0  0  0  0  0  0
   37.2260   42.4581   -0.3845 C   0  0  0  0  0  0  0  0  0  0  0  0
   37.6479   42.4936   -1.8519 C   0  0  0  0  0  0  0  0  0  0  0  0
   37.4048   43.9020   -2.4096 C   0  0  0  0  0  0  0  0  0  0  0  0
   34.8960   41.6138   -7.1433 C   0  0  0  0  0  0  0  0  0  0  0  0
   34.0013   40.5739   -6.6354 N   0  0  0  0  0  0  0  0  0  0  0  0
   34.2596   39.2487   -6.7802 C   0  0  0  0  0  0  0  0  0  0  0  0
   35.3014   38.7827   -7.2110 O   0  0  0  0  0  0  0  0  0  0  0  0
   33.1779   40.8460   -6.1694 H   0  0  0  0  0  0  0  0  0  0  0  0
   33.1740   38.5500   -6.3816 O   0  0  0  0  0  0  0  0  0  0  0  0
   32.9127   37.3531   -7.1242 C   0  0  0  0  0  0  0  0  0  0  0  0
   31.6788   37.5333   -7.9712 C   0  0  0  0  0  0  0  0  0  0  0  0
   31.6201   38.5401   -8.9439 C   0  0  0  0  0  0  0  0  0  0  0  0
   30.4836   38.6891   -9.7407 C   0  0  0  0  0  0  0  0  0  0  0  0
   29.3981   37.8295   -9.5795 C   0  0  0  0  0  0  0  0  0  0  0  0
   29.4507   36.8179   -8.6230 C   0  0  0  0  0  0  0  0  0  0  0  0
   30.5866   36.6677   -7.8252 C   0  0  0  0  0  0  0  0  0  0  0  0
   34.1017   42.7787   -7.7515 C   0  0  0  0  0  0  0  0  0  0  0  0
   33.7785   42.6126   -9.2196 C   0  0  0  0  0  0  0  0  0  0  0  0
   33.7366   43.7305  -10.0646 C   0  0  0  0  0  0  0  0  0  0  0  0
   33.4207   43.5853  -11.4170 C   0  0  0  0  0  0  0  0  0  0  0  0
   33.1495   42.3239  -11.9406 C   0  0  0  0  0  0  0  0  0  0  0  0
   33.1986   41.2048  -11.1134 C   0  0  0  0  0  0  0  0  0  0  0  0
   33.5171   41.3458   -9.7616 C   0  0  0  0  0  0  0  0  0  0  0  0
 24 25  1  0
 25 26  1  0
 25 23  1  0
  7 23  1  0
  7  5  1  0
  5  1  1  0
  1  2  2  0
  1  3  1  0
  1 27  1  0
 27 40  1  0
 40 41  1  0
 41 42  2  0
 42 43  1  0
 43 44  2  0
 44 45  1  0
 45 46  2  0
 27 28  1  0
 28 29  1  0
 29 30  2  0
 29 32  1  0
 32 33  1  0
 33 34  1  0
 34 35  2  0
 35 36  1  0
 36 37  2  0
 37 38  1  0
 38 39  2  0
  7  8  1  0
  8  9  2  0
  8 10  1  0
 10 12  1  0
 12 13  1  0
 12 14  1  0
 14 15  1  0
 15 16  1  0
 15 17  1  0
 15 18  1  0
 18 19  1  0
 19 20  1  0
 19 21  1  0
 19 22  1  0
 46 41  1  0
 39 34  1  0
  5  6  1  0
  3  4  1  0
 28 31  1  0
 10 11  1  0
M  END
> <minimizedAffinity>
-8.85002

> <CNNscore>
0.5034609437

> <CNNaffinity>
7.2132701874

> <CNN_VS>
3.6315999031

> <CNNaffinity_variance>
0.4941669405

$$$$



 46 47  0  0  0  0  0  0  0  0999 V2000
   35.6515   42.0017   -6.3145 P   0  0  0  0  0  0  0  0  0  0  0  0
   36.5151   43.1763   -6.6574 O   0  0  0  0  0  0  0  0  0  0  0  0
   34.2367   42.5159   -5.7608 O   0  0  0  0  0  0  0  0  0  0  0  0
   34.3799   43.0935   -4.9948 H   0  0  0  0  0  0  0  0  0  0  0  0
   36.3072   41.0762   -5.1352 N   0  0  0  0  0  0  0  0  0  0  0  0
   35.5285   40.6486   -4.6340 H   0  0  0  0  0  0  0  0  0  0  0  0
   37.1879   41.6681   -4.1160 C   0  0  0  0  0  0  0  0  0  0  0  0
   38.2466   40.7065   -3.5354 C   0  0  0  0  0  0  0  0  0  0  0  0
   39.4291   41.0414   -3.4710 O   0  0  0  0  0  0  0  0  0  0  0  0
   37.7900   39.5082   -3.0265 N   0  0  0  0  0  0  0  0  0  0  0  0
   36.8209   39.3529   -2.9486 H   0  0  0  0  0  0  0  0  0  0  0  0
   38.7231   38.4640   -2.6006 C   0  0  0  0  0  0  0  0  0  0  0  0
   38.0578   37.6685   -1.4776 C   0  0  0  0  0  0  0  0  0  0  0  0
   39.0959   37.5700   -3.8108 C   0  0  0  0  0  0  0  0  0  0  0  0
   40.5554   36.9881   -3.8620 C   0  0  0  0  0  0  0  0  0  0  0  0
   40.5281   35.5441   -3.3207 C   0  0  0  0  0  0  0  0  0  0  0  0
   41.3945   37.8431   -2.8956 C   0  0  0  0  0  0  0  0  0  0  0  0
   41.0841   37.0506   -5.3281 C   0  0  0  0  0  0  0  0  0  0  0  0
   42.2767   36.1945   -5.8639 C   0  0  0  0  0  0  0  0  0  0  0  0
   42.8938   35.4702   -4.6402 C   0  0  0  0  0  0  0  0  0  0  0  0
   43.3871   37.0239   -6.5174 C   0  0  0  0  0  0  0  0  0  0  0  0
   41.8139   35.0960   -6.8396 C   0  0  0  0  0  0  0  0  0  0  0  0
   36.3898   42.3480   -2.9839 C   0  0  0  0  0  0  0  0  0  0  0  0
   36.5793   42.2919   -0.4077 C   0  0  0  0  0  0  0  0  0  0  0  0
   37.1470   42.8234   -1.7221 C   0  0  0  0  0  0  0  0  0  0  0  0
   37.1447   44.3571   -1.6855 C   0  0  0  0  0  0  0  0  0  0  0  0
   35.2466   40.9377   -7.7372 C   0  0  0  0  0  0  0  0  0  0  0  0
   35.5425   39.5549   -7.3631 N   0  0  0  0  0  0  0  0  0  0  0  0
   35.8964   38.6088   -8.2706 C   0  0  0  0  0  0  0  0  0  0  0  0
   36.1391   38.8244   -9.4465 O   0  0  0  0  0  0  0  0  0  0  0  0
   35.4827   39.2996   -6.4142 H   0  0  0  0  0  0  0  0  0  0  0  0
   35.9200   37.4061   -7.6552 O   0  0  0  0  0  0  0  0  0  0  0  0
   37.2230   36.8390   -7.4745 C   0  0  0  0  0  0  0  0  0  0  0  0
   37.1058   35.4701   -6.8543 C   0  0  0  0  0  0  0  0  0  0  0  0
   38.1823   34.9070   -6.1563 C   0  0  0  0  0  0  0  0  0  0  0  0
   38.0617   33.6481   -5.5650 C   0  0  0  0  0  0  0  0  0  0  0  0
   36.8629   32.9430   -5.6583 C   0  0  0  0  0  0  0  0  0  0  0  0
   35.7827   33.4987   -6.3404 C   0  0  0  0  0  0  0  0  0  0  0  0
   35.9018   34.7576   -6.9324 C   0  0  0  0  0  0  0  0  0  0  0  0
   33.7873   41.0882   -8.1908 C   0  0  0  0  0  0  0  0  0  0  0  0
   33.6088   41.8978   -9.4557 C   0  0  0  0  0  0  0  0  0  0  0  0
   33.2226   41.2694  -10.6480 C   0  0  0  0  0  0  0  0  0  0  0  0
   33.0742   42.0089  -11.8231 C   0  0  0  0  0  0  0  0  0  0  0  0
   33.3036   43.3823  -11.8192 C   0  0  0  0  0  0  0  0  0  0  0  0
   33.6774   44.0193  -10.6387 C   0  0  0  0  0  0  0  0  0  0  0  0
   33.8237   43.2836   -9.4613 C   0  0  0  0  0  0  0  0  0  0  0  0
 24 25  1  0
 25 26  1  0
 25 23  1  0
  7 23  1  0
  7  5  1  0
  5  1  1  0
  1  2  2  0
  1  3  1  0
  1 27  1  0
 27 40  1  0
 40 41  1  0
 41 42  2  0
 42 43  1  0
 43 44  2  0
 44 45  1  0
 45 46  2  0
 27 28  1  0
 28 29  1  0
 29 30  2  0
 29 32  1  0
 32 33  1  0
 33 34  1  0
 34 35  2  0
 35 36  1  0
 36 37  2  0
 37 38  1  0
 38 39  2  0
  7  8  1  0
  8  9  2  0
  8 10  1  0
 10 12  1  0
 12 13  1  0
 12 14  1  0
 14 15  1  0
 15 16  1  0
 15 17  1  0
 15 18  1  0
 18 19  1  0
 19 20  1  0
 19 21  1  0
 19 22  1  0
 46 41  1  0
 39 34  1  0
  5  6  1  0
  3  4  1  0
 28 31  1  0
 10 11  1  0
M  END
> <minimizedAffinity>
-7.70779

> <CNNscore>
0.4691942334

> <CNNaffinity>
7.7034168243

> <CNN_VS>
3.6143987179

> <CNNaffinity_variance>
0.4135795832

$$$$
