


 20 20  0  0  0  0  0  0  0  0999 V2000
  -26.3512   -0.0273   27.4490 C   0  0  0  0  0  0  0  0  0  0  0  0
  -27.6358    0.2452   26.6294 C   0  0  0  0  0  0  0  0  0  0  0  0
  -27.2979    0.4582   25.2468 O   0  0  0  0  0  0  0  0  0  0  0  0
  -28.3622    1.4858   27.1502 C   0  0  0  0  0  0  0  0  0  0  0  0
  -27.4711    2.7101   26.9697 N   0  0  0  0  0  0  0  0  0  0  0  0
  -25.9822    2.4604   27.0102 C   0  0  0  0  0  0  0  0  0  0  0  0
  -25.6805    1.2750   27.9519 C   0  0  0  0  0  0  0  0  0  0  0  0
  -26.2142    1.5870   29.2532 O   0  0  0  0  0  0  0  0  0  0  0  0
  -26.7176    1.2318   25.1712 H   0  0  0  0  0  0  0  0  0  0  0  0
  -27.6964    3.3717   27.7126 H   0  0  0  0  0  0  0  0  0  0  0  0
  -27.6656    3.0542   26.0293 H   0  0  0  0  0  0  0  0  0  0  0  0
  -27.1730    1.7183   29.1865 H   0  0  0  0  0  0  0  0  0  0  0  0
  -29.6843    1.7750   26.4208 C   0  0  0  0  0  0  0  0  0  0  0  0
  -29.6663    3.1425   25.9995 O   0  0  0  0  0  0  0  0  0  0  0  0
  -29.5677    3.7181   26.7740 H   0  0  0  0  0  0  0  0  0  0  0  0
  -25.2647    3.7529   27.4422 C   0  0  0  0  0  0  0  0  0  0  0  0
  -25.1526    3.7900   28.8582 O   0  0  0  0  0  0  0  0  0  0  0  0
  -26.0383    3.7693   29.2532 H   0  0  0  0  0  0  0  0  0  0  0  0
  -25.7472   -2.1733   26.5831 C   0  0  0  0  0  0  0  0  0  0  0  0
  -25.4748   -0.7736   26.5895 O   0  0  0  0  0  0  0  0  0  0  0  0
 19 20  1  0
 20  1  1  0
  1  2  1  0
  2  3  1  0
  2  4  1  0
  4 13  1  0
 13 14  1  0
  4  5  1  0
  5  6  1  0
  6 16  1  0
 16 17  1  0
  6  7  1  0
  7  8  1  0
  7  1  1  0
  3  9  1  0
 14 15  1  0
  5 10  1  0
  5 11  1  0
 17 18  1  0
  8 12  1  0
M  CHG 1   5   1
M  END
> <minimizedAffinity>
-6.54779

> <CNNscore>
0.7296065092

> <CNNaffinity>
5.4627585411

> <CNN_VS>
3.9856641293

> <CNNaffinity_variance>
0.2744498253

$$$$



 20 20  0  0  0  0  0  0  0  0999 V2000
  -30.6108   -6.4113   36.5621 C   0  0  0  0  0  0  0  0  0  0  0  0
  -31.3386   -5.1323   36.0816 C   0  0  0  0  0  0  0  0  0  0  0  0
  -31.9653   -4.4771   37.1992 O   0  0  0  0  0  0  0  0  0  0  0  0
  -32.4147   -5.4721   35.0499 C   0  0  0  0  0  0  0  0  0  0  0  0
  -33.4786   -6.3532   35.6960 N   0  0  0  0  0  0  0  0  0  0  0  0
  -33.0119   -7.2369   36.8283 C   0  0  0  0  0  0  0  0  0  0  0  0
  -31.5426   -7.6481   36.5936 C   0  0  0  0  0  0  0  0  0  0  0  0
  -31.4593   -8.3115   35.3174 O   0  0  0  0  0  0  0  0  0  0  0  0
  -32.6216   -5.0712   37.5959 H   0  0  0  0  0  0  0  0  0  0  0  0
  -33.8669   -6.9557   34.9703 H   0  0  0  0  0  0  0  0  0  0  0  0
  -34.1523   -5.7095   36.1108 H   0  0  0  0  0  0  0  0  0  0  0  0
  -31.7466   -7.7041   34.6179 H   0  0  0  0  0  0  0  0  0  0  0  0
  -33.1322   -4.2370   34.4812 C   0  0  0  0  0  0  0  0  0  0  0  0
  -32.3728   -3.0794   34.8434 O   0  0  0  0  0  0  0  0  0  0  0  0
  -32.3078   -3.0248   35.8097 H   0  0  0  0  0  0  0  0  0  0  0  0
  -33.9521   -8.4514   36.9419 C   0  0  0  0  0  0  0  0  0  0  0  0
  -33.1909   -9.6286   37.1735 O   0  0  0  0  0  0  0  0  0  0  0  0
  -32.5777   -9.7676   36.4349 H   0  0  0  0  0  0  0  0  0  0  0  0
  -28.8032   -5.4939   37.8313 C   0  0  0  0  0  0  0  0  0  0  0  0
  -30.0877   -6.1122   37.8662 O   0  0  0  0  0  0  0  0  0  0  0  0
 19 20  1  0
 20  1  1  0
  1  2  1  0
  2  3  1  0
  2  4  1  0
  4 13  1  0
 13 14  1  0
  4  5  1  0
  5  6  1  0
  6 16  1  0
 16 17  1  0
  6  7  1  0
  7  8  1  0
  7  1  1  0
  3  9  1  0
 14 15  1  0
  5 10  1  0
  5 11  1  0
 17 18  1  0
  8 12  1  0
M  CHG 1   5   1
M  END
> <minimizedAffinity>
-4.02676

> <CNNscore>
0.6532369256

> <CNNaffinity>
3.3610894680

> <CNN_VS>
2.1955876350

> <CNNaffinity_variance>
0.2775724232

$$$$



 20 20  0  0  0  0  0  0  0  0999 V2000
  -32.7209   -6.1627   36.4238 C   0  0  0  0  0  0  0  0  0  0  0  0
  -33.3242   -6.3562   37.8362 C   0  0  0  0  0  0  0  0  0  0  0  0
  -33.4589   -5.0809   38.4895 O   0  0  0  0  0  0  0  0  0  0  0  0
  -32.4288   -7.2509   38.6940 C   0  0  0  0  0  0  0  0  0  0  0  0
  -31.0768   -6.5746   38.8947 N   0  0  0  0  0  0  0  0  0  0  0  0
  -30.6247   -5.6512   37.7883 C   0  0  0  0  0  0  0  0  0  0  0  0
  -31.1722   -6.1553   36.4359 C   0  0  0  0  0  0  0  0  0  0  0  0
  -30.7104   -7.5056   36.2386 O   0  0  0  0  0  0  0  0  0  0  0  0
  -32.5843   -4.6722   38.5843 H   0  0  0  0  0  0  0  0  0  0  0  0
  -30.3741   -7.3069   38.9959 H   0  0  0  0  0  0  0  0  0  0  0  0
  -31.1863   -5.9825   39.7180 H   0  0  0  0  0  0  0  0  0  0  0  0
  -31.0397   -8.0682   36.9569 H   0  0  0  0  0  0  0  0  0  0  0  0
  -33.0045   -7.5382   40.0903 C   0  0  0  0  0  0  0  0  0  0  0  0
  -34.4216   -7.3482   40.0313 O   0  0  0  0  0  0  0  0  0  0  0  0
  -34.6147   -6.4371   39.7604 H   0  0  0  0  0  0  0  0  0  0  0  0
  -29.0874   -5.5591   37.8037 C   0  0  0  0  0  0  0  0  0  0  0  0
  -28.5362   -6.7958   38.2345 O   0  0  0  0  0  0  0  0  0  0  0  0
  -28.8528   -6.9968   39.1291 H   0  0  0  0  0  0  0  0  0  0  0  0
  -32.5353   -4.4161   34.8006 C   0  0  0  0  0  0  0  0  0  0  0  0
  -33.2501   -4.9237   35.9252 O   0  0  0  0  0  0  0  0  0  0  0  0
 19 20  1  0
 20  1  1  0
  1  2  1  0
  2  3  1  0
  2  4  1  0
  4 13  1  0
 13 14  1  0
  4  5  1  0
  5  6  1  0
  6 16  1  0
 16 17  1  0
  6  7  1  0
  7  8  1  0
  7  1  1  0
  3  9  1  0
 14 15  1  0
  5 10  1  0
  5 11  1  0
 17 18  1  0
  8 12  1  0
M  CHG 1   5   1
M  END
> <minimizedAffinity>
-3.99823

> <CNNscore>
0.5498715639

> <CNNaffinity>
2.8469884396

> <CNN_VS>
1.5654779673

> <CNNaffinity_variance>
0.4350915849

$$$$



 20 20  0  0  0  0  0  0  0  0999 V2000
  -33.2462   -6.1059   37.6768 C   0  0  0  0  0  0  0  0  0  0  0  0
  -33.1383   -7.4996   37.0117 C   0  0  0  0  0  0  0  0  0  0  0  0
  -32.7091   -8.4725   37.9815 O   0  0  0  0  0  0  0  0  0  0  0  0
  -32.1296   -7.4791   35.8628 C   0  0  0  0  0  0  0  0  0  0  0  0
  -30.7429   -7.1567   36.4092 N   0  0  0  0  0  0  0  0  0  0  0  0
  -30.7009   -6.3024   37.6539 C   0  0  0  0  0  0  0  0  0  0  0  0
  -31.9033   -5.3344   37.6593 C   0  0  0  0  0  0  0  0  0  0  0  0
  -31.8499   -4.5437   36.4562 O   0  0  0  0  0  0  0  0  0  0  0  0
  -31.8339   -8.2271   38.3201 H   0  0  0  0  0  0  0  0  0  0  0  0
  -30.2259   -6.6680   35.6782 H   0  0  0  0  0  0  0  0  0  0  0  0
  -30.3395   -8.0539   36.6790 H   0  0  0  0  0  0  0  0  0  0  0  0
  -31.9011   -5.1274   35.6831 H   0  0  0  0  0  0  0  0  0  0  0  0
  -32.0231   -8.8181   35.1150 C   0  0  0  0  0  0  0  0  0  0  0  0
  -30.6819   -9.2970   35.2557 O   0  0  0  0  0  0  0  0  0  0  0  0
  -30.0656   -8.6460   34.8851 H   0  0  0  0  0  0  0  0  0  0  0  0
  -29.3506   -5.5643   37.7147 C   0  0  0  0  0  0  0  0  0  0  0  0
  -28.3491   -6.4353   38.2220 O   0  0  0  0  0  0  0  0  0  0  0  0
  -28.5948   -6.7254   39.1144 H   0  0  0  0  0  0  0  0  0  0  0  0
  -33.5957   -5.1847   39.8560 C   0  0  0  0  0  0  0  0  0  0  0  0
  -33.7058   -6.3336   39.0187 O   0  0  0  0  0  0  0  0  0  0  0  0
 19 20  1  0
 20  1  1  0
  1  2  1  0
  2  3  1  0
  2  4  1  0
  4 13  1  0
 13 14  1  0
  4  5  1  0
  5  6  1  0
  6 16  1  0
 16 17  1  0
  6  7  1  0
  7  8  1  0
  7  1  1  0
  3  9  1  0
 14 15  1  0
  5 10  1  0
  5 11  1  0
 17 18  1  0
  8 12  1  0
M  CHG 1   5   1
M  END
> <minimizedAffinity>
-4.21079

> <CNNscore>
0.3757213950

> <CNNaffinity>
2.9393374920

> <CNN_VS>
1.1043720245

> <CNNaffinity_variance>
0.2377384901

$$$$



 20 20  0  0  0  0  0  0  0  0999 V2000
  -32.3570    2.4895   22.5062 C   0  0  0  0  0  0  0  0  0  0  0  0
  -32.2574    3.8459   23.2454 C   0  0  0  0  0  0  0  0  0  0  0  0
  -31.4671    3.6958   24.4387 O   0  0  0  0  0  0  0  0  0  0  0  0
  -33.6441    4.3551   23.6401 C   0  0  0  0  0  0  0  0  0  0  0  0
  -34.2841    3.3787   24.6212 N   0  0  0  0  0  0  0  0  0  0  0  0
  -33.8635    1.9340   24.4910 C   0  0  0  0  0  0  0  0  0  0  0  0
  -33.5336    1.6208   23.0158 C   0  0  0  0  0  0  0  0  0  0  0  0
  -34.6971    1.9212   22.2210 O   0  0  0  0  0  0  0  0  0  0  0  0
  -31.8933    3.0561   25.0304 H   0  0  0  0  0  0  0  0  0  0  0  0
  -35.2946    3.4221   24.4894 H   0  0  0  0  0  0  0  0  0  0  0  0
  -33.9693    3.6733   25.5456 H   0  0  0  0  0  0  0  0  0  0  0  0
  -34.9198    2.8605   22.3159 H   0  0  0  0  0  0  0  0  0  0  0  0
  -33.6215    5.7334   24.3209 C   0  0  0  0  0  0  0  0  0  0  0  0
  -34.9760    6.1525   24.5146 O   0  0  0  0  0  0  0  0  0  0  0  0
  -35.4256    6.2001   23.6564 H   0  0  0  0  0  0  0  0  0  0  0  0
  -34.9790    1.0307   25.0494 C   0  0  0  0  0  0  0  0  0  0  0  0
  -36.0950    1.8241   25.4289 O   0  0  0  0  0  0  0  0  0  0  0  0
  -35.8244    2.4568   26.1126 H   0  0  0  0  0  0  0  0  0  0  0  0
  -30.3373    1.7010   21.4967 C   0  0  0  0  0  0  0  0  0  0  0  0
  -31.0944    1.8317   22.6980 O   0  0  0  0  0  0  0  0  0  0  0  0
 19 20  1  0
 20  1  1  0
  1  2  1  0
  2  3  1  0
  2  4  1  0
  4 13  1  0
 13 14  1  0
  4  5  1  0
  5  6  1  0
  6 16  1  0
 16 17  1  0
  6  7  1  0
  7  8  1  0
  7  1  1  0
  3  9  1  0
 14 15  1  0
  5 10  1  0
  5 11  1  0
 17 18  1  0
  8 12  1  0
M  CHG 1   5   1
M  END
> <minimizedAffinity>
-3.75397

> <CNNscore>
0.2915184796

> <CNNaffinity>
3.0357124805

> <CNN_VS>
0.8849663138

> <CNNaffinity_variance>
0.1668697447

$$$$



 20 20  0  0  0  0  0  0  0  0999 V2000
  -24.1878   -7.4923   23.5802 C   0  0  0  0  0  0  0  0  0  0  0  0
  -22.7446   -7.7959   23.1099 C   0  0  0  0  0  0  0  0  0  0  0  0
  -21.9837   -6.5760   23.0469 O   0  0  0  0  0  0  0  0  0  0  0  0
  -22.7470   -8.4408   21.7235 C   0  0  0  0  0  0  0  0  0  0  0  0
  -23.3313   -7.4636   20.7091 N   0  0  0  0  0  0  0  0  0  0  0  0
  -24.3463   -6.4802   21.2418 C   0  0  0  0  0  0  0  0  0  0  0  0
  -25.1289   -7.1227   22.4070 C   0  0  0  0  0  0  0  0  0  0  0  0
  -25.7462   -8.3310   21.9224 O   0  0  0  0  0  0  0  0  0  0  0  0
  -22.3928   -5.9724   22.4071 H   0  0  0  0  0  0  0  0  0  0  0  0
  -23.7819   -8.0094   19.9746 H   0  0  0  0  0  0  0  0  0  0  0  0
  -22.5448   -6.8988   20.3884 H   0  0  0  0  0  0  0  0  0  0  0  0
  -25.0602   -8.9419   21.6106 H   0  0  0  0  0  0  0  0  0  0  0  0
  -21.3457   -8.8295   21.2245 C   0  0  0  0  0  0  0  0  0  0  0  0
  -21.1220   -8.1668   19.9760 O   0  0  0  0  0  0  0  0  0  0  0  0
  -21.8015   -8.4386   19.3394 H   0  0  0  0  0  0  0  0  0  0  0  0
  -25.2666   -6.0310   20.0914 C   0  0  0  0  0  0  0  0  0  0  0  0
  -25.7003   -4.6967   20.3160 O   0  0  0  0  0  0  0  0  0  0  0  0
  -26.1898   -4.6523   21.1522 H   0  0  0  0  0  0  0  0  0  0  0  0
  -25.2319   -6.2981   25.3700 C   0  0  0  0  0  0  0  0  0  0  0  0
  -24.0852   -6.4205   24.5313 O   0  0  0  0  0  0  0  0  0  0  0  0
 19 20  1  0
 20  1  1  0
  1  2  1  0
  2  3  1  0
  2  4  1  0
  4 13  1  0
 13 14  1  0
  4  5  1  0
  5  6  1  0
  6 16  1  0
 16 17  1  0
  6  7  1  0
  7  8  1  0
  7  1  1  0
  3  9  1  0
 14 15  1  0
  5 10  1  0
  5 11  1  0
 17 18  1  0
  8 12  1  0
M  CHG 1   5   1
M  END
> <minimizedAffinity>
-3.96438

> <CNNscore>
0.2427819073

> <CNNaffinity>
2.3596065044

> <CNN_VS>
0.5728697777

> <CNNaffinity_variance>
0.7459169030

$$$$



 20 20  0  0  0  0  0  0  0  0999 V2000
  -31.8309    3.3044   19.9845 C   0  0  0  0  0  0  0  0  0  0  0  0
  -31.0319    1.9786   19.9939 C   0  0  0  0  0  0  0  0  0  0  0  0
  -31.9351    0.8640   20.1087 O   0  0  0  0  0  0  0  0  0  0  0  0
  -30.0561    1.9381   21.1704 C   0  0  0  0  0  0  0  0  0  0  0  0
  -30.8364    1.9772   22.4800 N   0  0  0  0  0  0  0  0  0  0  0  0
  -32.1642    2.6959   22.4414 C   0  0  0  0  0  0  0  0  0  0  0  0
  -32.1031    3.8435   21.4108 C   0  0  0  0  0  0  0  0  0  0  0  0
  -31.0213    4.7212   21.7783 O   0  0  0  0  0  0  0  0  0  0  0  0
  -32.4264    0.9305   20.9425 H   0  0  0  0  0  0  0  0  0  0  0  0
  -30.2523    2.4392   23.1770 H   0  0  0  0  0  0  0  0  0  0  0  0
  -31.0572    1.0052   22.6964 H   0  0  0  0  0  0  0  0  0  0  0  0
  -30.1867    4.2269   21.7699 H   0  0  0  0  0  0  0  0  0  0  0  0
  -29.1821    0.6737   21.2002 C   0  0  0  0  0  0  0  0  0  0  0  0
  -27.8689    1.0341   20.7602 O   0  0  0  0  0  0  0  0  0  0  0  0
  -27.9173    1.3976   19.8622 H   0  0  0  0  0  0  0  0  0  0  0  0
  -32.5106    3.1937   23.8571 C   0  0  0  0  0  0  0  0  0  0  0  0
  -31.3228    3.5792   24.5349 O   0  0  0  0  0  0  0  0  0  0  0  0
  -30.7267    2.8169   24.6017 H   0  0  0  0  0  0  0  0  0  0  0  0
  -34.0096    4.0870   19.3839 C   0  0  0  0  0  0  0  0  0  0  0  0
  -33.0538    3.0337   19.2811 O   0  0  0  0  0  0  0  0  0  0  0  0
 19 20  1  0
 20  1  1  0
  1  2  1  0
  2  3  1  0
  2  4  1  0
  4 13  1  0
 13 14  1  0
  4  5  1  0
  5  6  1  0
  6 16  1  0
 16 17  1  0
  6  7  1  0
  7  8  1  0
  7  1  1  0
  3  9  1  0
 14 15  1  0
  5 10  1  0
  5 11  1  0
 17 18  1  0
  8 12  1  0
M  CHG 1   5   1
M  END
> <minimizedAffinity>
-4.61292

> <CNNscore>
0.2419465929

> <CNNaffinity>
2.3093962669

> <CNN_VS>
0.5587505698

> <CNNaffinity_variance>
1.0586407185

$$$$



 20 20  0  0  0  0  0  0  0  0999 V2000
  -31.6298    1.4423   19.3470 C   0  0  0  0  0  0  0  0  0  0  0  0
  -31.0736    0.5039   20.4453 C   0  0  0  0  0  0  0  0  0  0  0  0
  -32.1568   -0.0249   21.2315 O   0  0  0  0  0  0  0  0  0  0  0  0
  -30.1196    1.2561   21.3737 C   0  0  0  0  0  0  0  0  0  0  0  0
  -30.8812    2.3603   22.0992 N   0  0  0  0  0  0  0  0  0  0  0  0
  -32.0638    2.9454   21.3644 C   0  0  0  0  0  0  0  0  0  0  0  0
  -31.8041    2.8990   19.8434 C   0  0  0  0  0  0  0  0  0  0  0  0
  -30.5862    3.6195   19.5727 O   0  0  0  0  0  0  0  0  0  0  0  0
  -32.6290    0.7042   21.6632 H   0  0  0  0  0  0  0  0  0  0  0  0
  -30.2256    3.1185   22.2883 H   0  0  0  0  0  0  0  0  0  0  0  0
  -31.2677    1.9225   22.9355 H   0  0  0  0  0  0  0  0  0  0  0  0
  -29.8503    3.1995   20.0450 H   0  0  0  0  0  0  0  0  0  0  0  0
  -29.4788    0.3642   22.4495 C   0  0  0  0  0  0  0  0  0  0  0  0
  -28.0725    0.3025   22.1918 O   0  0  0  0  0  0  0  0  0  0  0  0
  -27.9218   -0.0642   21.3065 H   0  0  0  0  0  0  0  0  0  0  0  0
  -32.3183    4.3761   21.8748 C   0  0  0  0  0  0  0  0  0  0  0  0
  -31.0988    5.1051   21.8896 O   0  0  0  0  0  0  0  0  0  0  0  0
  -30.4657    4.6643   22.4776 H   0  0  0  0  0  0  0  0  0  0  0  0
  -33.1151    0.9973   17.5261 C   0  0  0  0  0  0  0  0  0  0  0  0
  -32.8812    0.8752   18.9274 O   0  0  0  0  0  0  0  0  0  0  0  0
 19 20  1  0
 20  1  1  0
  1  2  1  0
  2  3  1  0
  2  4  1  0
  4 13  1  0
 13 14  1  0
  4  5  1  0
  5  6  1  0
  6 16  1  0
 16 17  1  0
  6  7  1  0
  7  8  1  0
  7  1  1  0
  3  9  1  0
 14 15  1  0
  5 10  1  0
  5 11  1  0
 17 18  1  0
  8 12  1  0
M  CHG 1   5   1
M  END
> <minimizedAffinity>
-4.17294

> <CNNscore>
0.2316874564

> <CNNaffinity>
2.2772622108

> <CNN_VS>
0.5276131034

> <CNNaffinity_variance>
1.0246667862

$$$$



 20 20  0  0  0  0  0  0  0  0999 V2000
  -22.5957   -8.5742   20.9276 C   0  0  0  0  0  0  0  0  0  0  0  0
  -23.6115   -7.8306   21.8284 C   0  0  0  0  0  0  0  0  0  0  0  0
  -23.8180   -6.4950   21.3336 O   0  0  0  0  0  0  0  0  0  0  0  0
  -23.1028   -7.7437   23.2677 C   0  0  0  0  0  0  0  0  0  0  0  0
  -21.8176   -6.9238   23.3043 N   0  0  0  0  0  0  0  0  0  0  0  0
  -20.9698   -6.9607   22.0549 C   0  0  0  0  0  0  0  0  0  0  0  0
  -21.1288   -8.3302   21.3605 C   0  0  0  0  0  0  0  0  0  0  0  0
  -20.7560   -9.3570   22.2999 O   0  0  0  0  0  0  0  0  0  0  0  0
  -22.9787   -6.0092   21.3541 H   0  0  0  0  0  0  0  0  0  0  0  0
  -21.2489   -7.2702   24.0770 H   0  0  0  0  0  0  0  0  0  0  0  0
  -22.1146   -5.9533   23.4051 H   0  0  0  0  0  0  0  0  0  0  0  0
  -21.3370   -9.3121   23.0753 H   0  0  0  0  0  0  0  0  0  0  0  0
  -24.0963   -7.0738   24.2309 C   0  0  0  0  0  0  0  0  0  0  0  0
  -23.5351   -5.8245   24.6457 O   0  0  0  0  0  0  0  0  0  0  0  0
  -22.6841   -5.9819   25.0839 H   0  0  0  0  0  0  0  0  0  0  0  0
  -19.5069   -6.6559   22.4278 C   0  0  0  0  0  0  0  0  0  0  0  0
  -19.0441   -5.5377   21.6833 O   0  0  0  0  0  0  0  0  0  0  0  0
  -19.0971   -5.7361   20.7353 H   0  0  0  0  0  0  0  0  0  0  0  0
  -23.7070   -8.9635   18.8459 C   0  0  0  0  0  0  0  0  0  0  0  0
  -22.8330   -8.1149   19.5873 O   0  0  0  0  0  0  0  0  0  0  0  0
 19 20  1  0
 20  1  1  0
  1  2  1  0
  2  3  1  0
  2  4  1  0
  4 13  1  0
 13 14  1  0
  4  5  1  0
  5  6  1  0
  6 16  1  0
 16 17  1  0
  6  7  1  0
  7  8  1  0
  7  1  1  0
  3  9  1  0
 14 15  1  0
  5 10  1  0
  5 11  1  0
 17 18  1  0
  8 12  1  0
M  CHG 1   5   1
M  END
> <minimizedAffinity>
-5.25655

> <CNNscore>
0.2074272037

> <CNNaffinity>
2.2971019745

> <CNN_VS>
0.4764814377

> <CNNaffinity_variance>
1.2775268555

$$$$
