


 27 30  0  0  0  0  0  0  0  0999 V2000
   13.8126   -2.2641   10.9981 C   0  0  0  0  0  0  0  0  0  0  0  0
   12.9005   -1.2932   10.7425 N   0  0  0  0  0  0  0  0  0  0  0  0
   13.2642   -0.2247   10.0124 C   0  0  0  0  0  0  0  0  0  0  0  0
   14.4575    0.0304    9.4705 N   0  0  0  0  0  0  0  0  0  0  0  0
   15.3313   -0.9449    9.7424 C   0  0  0  0  0  0  0  0  0  0  0  0
   16.6174   -0.9097    9.3087 O   0  0  0  0  0  0  0  0  0  0  0  0
   17.2520   -2.0394    9.7513 C   0  0  0  0  0  0  0  0  0  0  0  0
   16.3513   -2.8056   10.4820 C   0  0  0  0  0  0  0  0  0  0  0  0
   15.1058   -2.0990   10.4730 C   0  0  0  0  0  0  0  0  0  0  0  0
   18.6572   -2.1415    9.3436 C   0  0  0  0  0  0  0  0  0  0  0  0
   19.5223   -3.0963    9.8989 C   0  0  0  0  0  0  0  0  0  0  0  0
   20.8574   -3.1875    9.4886 C   0  0  0  0  0  0  0  0  0  0  0  0
   21.3490   -2.3280    8.5105 C   0  0  0  0  0  0  0  0  0  0  0  0
   20.5081   -1.3739    7.9449 C   0  0  0  0  0  0  0  0  0  0  0  0
   19.1752   -1.2820    8.3588 C   0  0  0  0  0  0  0  0  0  0  0  0
   16.6735   -4.0497   11.1471 C   0  0  0  0  0  0  0  0  0  0  0  0
   16.7238   -5.2439   10.4185 C   0  0  0  0  0  0  0  0  0  0  0  0
   17.0072   -6.4474   11.0686 C   0  0  0  0  0  0  0  0  0  0  0  0
   17.2428   -6.4614   12.4447 C   0  0  0  0  0  0  0  0  0  0  0  0
   17.1930   -5.2736   13.1733 C   0  0  0  0  0  0  0  0  0  0  0  0
   16.9073   -4.0686   12.5268 C   0  0  0  0  0  0  0  0  0  0  0  0
   13.4498   -3.3611   11.7789 N   0  0  0  0  0  0  0  0  0  0  0  0
   14.0425   -4.1377   11.9009 H   0  0  0  0  0  0  0  0  0  0  0  0
   12.1320   -3.2815   12.4035 C   0  0  0  0  0  0  0  0  0  0  0  0
   12.1433   -2.1825   13.4745 C   0  0  0  0  0  0  0  0  0  0  0  0
   10.8649   -0.2078   13.2758 C   0  0  0  0  0  0  0  0  0  0  0  0
   10.8373   -1.5975   13.5706 O   0  0  0  0  0  0  0  0  0  0  0  0
 26 27  1  0
 27 25  1  0
 25 24  1  0
 24 22  1  0
 22  1  1  0
  1  2  2  0
  2  3  1  0
  3  4  2  0
  4  5  1  0
  5  6  1  0
  6  7  1  0
  7 10  1  0
 10 11  2  0
 11 12  1  0
 12 13  2  0
 13 14  1  0
 14 15  2  0
  7  8  2  0
  8 16  1  0
 16 17  2  0
 17 18  1  0
 18 19  2  0
 19 20  1  0
 20 21  2  0
  8  9  1  0
  9  1  1  0
  9  5  2  0
 15 10  1  0
 21 16  1  0
 22 23  1  0
M  END
> <minimizedAffinity>
-8.17920

> <CNNscore>
0.9139538407

> <CNNaffinity>
6.8033814430

> <CNN_VS>
6.2179765701

> <CNNaffinity_variance>
0.0287939236

$$$$



 27 30  0  0  0  0  0  0  0  0999 V2000
   15.2320   -1.7760   10.2234 C   0  0  0  0  0  0  0  0  0  0  0  0
   14.7378   -0.6165    9.7222 N   0  0  0  0  0  0  0  0  0  0  0  0
   15.5515    0.2017    9.0326 C   0  0  0  0  0  0  0  0  0  0  0  0
   16.8451    0.0262    8.7523 N   0  0  0  0  0  0  0  0  0  0  0  0
   17.2991   -1.1242    9.2613 C   0  0  0  0  0  0  0  0  0  0  0  0
   18.5891   -1.5227    9.1185 O   0  0  0  0  0  0  0  0  0  0  0  0
   18.7395   -2.7284    9.7499 C   0  0  0  0  0  0  0  0  0  0  0  0
   17.5214   -3.1013   10.3059 C   0  0  0  0  0  0  0  0  0  0  0  0
   16.5869   -2.0644    9.9862 C   0  0  0  0  0  0  0  0  0  0  0  0
   20.0923   -3.2892    9.6659 C   0  0  0  0  0  0  0  0  0  0  0  0
   20.8231   -3.2844    8.4683 C   0  0  0  0  0  0  0  0  0  0  0  0
   22.1180   -3.8128    8.4096 C   0  0  0  0  0  0  0  0  0  0  0  0
   22.7067   -4.3502    9.5504 C   0  0  0  0  0  0  0  0  0  0  0  0
   22.0003   -4.3642   10.7497 C   0  0  0  0  0  0  0  0  0  0  0  0
   20.7052   -3.8389   10.8055 C   0  0  0  0  0  0  0  0  0  0  0  0
   17.3028   -4.2966   11.0918 C   0  0  0  0  0  0  0  0  0  0  0  0
   17.0095   -5.5102   10.4589 C   0  0  0  0  0  0  0  0  0  0  0  0
   16.7710   -6.6560   11.2215 C   0  0  0  0  0  0  0  0  0  0  0  0
   16.8267   -6.5937   12.6152 C   0  0  0  0  0  0  0  0  0  0  0  0
   17.1183   -5.3862   13.2486 C   0  0  0  0  0  0  0  0  0  0  0  0
   17.3548   -4.2378   12.4891 C   0  0  0  0  0  0  0  0  0  0  0  0
   14.4005   -2.6156   10.9640 N   0  0  0  0  0  0  0  0  0  0  0  0
   14.7206   -3.4612   11.3535 H   0  0  0  0  0  0  0  0  0  0  0  0
   13.0230   -2.1570   11.1235 C   0  0  0  0  0  0  0  0  0  0  0  0
   12.0975   -3.3718   11.2734 C   0  0  0  0  0  0  0  0  0  0  0  0
   11.5405   -2.1947   13.2424 C   0  0  0  0  0  0  0  0  0  0  0  0
   11.6622   -3.4739   12.6361 O   0  0  0  0  0  0  0  0  0  0  0  0
 26 27  1  0
 27 25  1  0
 25 24  1  0
 24 22  1  0
 22  1  1  0
  1  2  2  0
  2  3  1  0
  3  4  2  0
  4  5  1  0
  5  6  1  0
  6  7  1  0
  7 10  1  0
 10 11  2  0
 11 12  1  0
 12 13  2  0
 13 14  1  0
 14 15  2  0
  7  8  2  0
  8 16  1  0
 16 17  2  0
 17 18  1  0
 18 19  2  0
 19 20  1  0
 20 21  2  0
  8  9  1  0
  9  1  1  0
  9  5  2  0
 15 10  1  0
 21 16  1  0
 22 23  1  0
M  END
> <minimizedAffinity>
-7.90615

> <CNNscore>
0.8589860797

> <CNNaffinity>
6.5448832512

> <CNN_VS>
5.6219635010

> <CNNaffinity_variance>
0.0136237442

$$$$



 27 30  0  0  0  0  0  0  0  0999 V2000
   13.7236   -2.3688   11.1611 C   0  0  0  0  0  0  0  0  0  0  0  0
   12.7930   -1.4081   10.9353 N   0  0  0  0  0  0  0  0  0  0  0  0
   13.1193   -0.3387   10.1890 C   0  0  0  0  0  0  0  0  0  0  0  0
   14.2897   -0.0735    9.6037 N   0  0  0  0  0  0  0  0  0  0  0  0
   15.1826   -1.0389    9.8471 C   0  0  0  0  0  0  0  0  0  0  0  0
   16.4518   -0.9923    9.3673 O   0  0  0  0  0  0  0  0  0  0  0  0
   17.1134   -2.1140    9.7905 C   0  0  0  0  0  0  0  0  0  0  0  0
   16.2475   -2.8865   10.5556 C   0  0  0  0  0  0  0  0  0  0  0  0
   14.9953   -2.1926   10.5892 C   0  0  0  0  0  0  0  0  0  0  0  0
   18.5040   -2.2034    9.3327 C   0  0  0  0  0  0  0  0  0  0  0  0
   19.3559   -3.2376    9.7487 C   0  0  0  0  0  0  0  0  0  0  0  0
   20.6767   -3.3142    9.2917 C   0  0  0  0  0  0  0  0  0  0  0  0
   21.1667   -2.3597    8.4052 C   0  0  0  0  0  0  0  0  0  0  0  0
   20.3387   -1.3256    7.9782 C   0  0  0  0  0  0  0  0  0  0  0  0
   19.0202   -1.2488    8.4388 C   0  0  0  0  0  0  0  0  0  0  0  0
   16.6061   -4.1249   11.2128 C   0  0  0  0  0  0  0  0  0  0  0  0
   16.6960   -5.3116   10.4757 C   0  0  0  0  0  0  0  0  0  0  0  0
   17.0146   -6.5104   11.1180 C   0  0  0  0  0  0  0  0  0  0  0  0
   17.2459   -6.5273   12.4948 C   0  0  0  0  0  0  0  0  0  0  0  0
   17.1568   -5.3471   13.2318 C   0  0  0  0  0  0  0  0  0  0  0  0
   16.8358   -4.1467   12.5932 C   0  0  0  0  0  0  0  0  0  0  0  0
   13.4004   -3.4666   11.9580 N   0  0  0  0  0  0  0  0  0  0  0  0
   13.7304   -4.3731   11.7618 H   0  0  0  0  0  0  0  0  0  0  0  0
   12.5397   -3.1820   13.1032 C   0  0  0  0  0  0  0  0  0  0  0  0
   13.1880   -3.7410   14.3769 C   0  0  0  0  0  0  0  0  0  0  0  0
   13.3850   -6.0918   14.4642 C   0  0  0  0  0  0  0  0  0  0  0  0
   12.5498   -4.9746   14.7344 O   0  0  0  0  0  0  0  0  0  0  0  0
 26 27  1  0
 27 25  1  0
 25 24  1  0
 24 22  1  0
 22  1  1  0
  1  2  2  0
  2  3  1  0
  3  4  2  0
  4  5  1  0
  5  6  1  0
  6  7  1  0
  7 10  1  0
 10 11  2  0
 11 12  1  0
 12 13  2  0
 13 14  1  0
 14 15  2  0
  7  8  2  0
  8 16  1  0
 16 17  2  0
 17 18  1  0
 18 19  2  0
 19 20  1  0
 20 21  2  0
  8  9  1  0
  9  1  1  0
  9  5  2  0
 15 10  1  0
 21 16  1  0
 22 23  1  0
M  END
> <minimizedAffinity>
-8.12264

> <CNNscore>
0.8527645469

> <CNNaffinity>
6.5728316307

> <CNN_VS>
5.6050777435

> <CNNaffinity_variance>
0.0397226214

$$$$



 27 30  0  0  0  0  0  0  0  0999 V2000
   20.3491   -3.3038    9.5025 C   0  0  0  0  0  0  0  0  0  0  0  0
   21.2604   -2.6758    8.7183 N   0  0  0  0  0  0  0  0  0  0  0  0
   20.8963   -1.5741    8.0395 C   0  0  0  0  0  0  0  0  0  0  0  0
   19.7031   -0.9749    8.0283 N   0  0  0  0  0  0  0  0  0  0  0  0
   18.8302   -1.6196    8.8099 C   0  0  0  0  0  0  0  0  0  0  0  0
   17.5444   -1.2086    8.9557 O   0  0  0  0  0  0  0  0  0  0  0  0
   16.9106   -2.0722    9.8086 C   0  0  0  0  0  0  0  0  0  0  0  0
   17.8114   -3.0516   10.2103 C   0  0  0  0  0  0  0  0  0  0  0  0
   19.0562   -2.7565    9.5668 C   0  0  0  0  0  0  0  0  0  0  0  0
   15.5058   -1.7407   10.0695 C   0  0  0  0  0  0  0  0  0  0  0  0
   14.9500   -0.5124    9.6810 C   0  0  0  0  0  0  0  0  0  0  0  0
   13.6039   -0.2180    9.9270 C   0  0  0  0  0  0  0  0  0  0  0  0
   12.7884   -1.1505   10.5613 C   0  0  0  0  0  0  0  0  0  0  0  0
   13.3184   -2.3761   10.9542 C   0  0  0  0  0  0  0  0  0  0  0  0
   14.6647   -2.6670   10.7106 C   0  0  0  0  0  0  0  0  0  0  0  0
   17.4899   -4.1650   11.0768 C   0  0  0  0  0  0  0  0  0  0  0  0
   17.1196   -5.3986   10.5286 C   0  0  0  0  0  0  0  0  0  0  0  0
   16.7824   -6.4631   11.3678 C   0  0  0  0  0  0  0  0  0  0  0  0
   16.8161   -6.2998   12.7541 C   0  0  0  0  0  0  0  0  0  0  0  0
   17.1843   -5.0722   13.3033 C   0  0  0  0  0  0  0  0  0  0  0  0
   17.5196   -4.0047   12.4669 C   0  0  0  0  0  0  0  0  0  0  0  0
   20.7124   -4.4634   10.1867 N   0  0  0  0  0  0  0  0  0  0  0  0
   20.0586   -5.1611   10.4214 H   0  0  0  0  0  0  0  0  0  0  0  0
   22.1272   -4.5740   10.5321 C   0  0  0  0  0  0  0  0  0  0  0  0
   22.3159   -4.2314   12.0160 C   0  0  0  0  0  0  0  0  0  0  0  0
   24.0650   -2.8985   11.1573 C   0  0  0  0  0  0  0  0  0  0  0  0
   23.0358   -2.9963   12.1320 O   0  0  0  0  0  0  0  0  0  0  0  0
 26 27  1  0
 27 25  1  0
 25 24  1  0
 24 22  1  0
 22  1  1  0
  1  2  2  0
  2  3  1  0
  3  4  2  0
  4  5  1  0
  5  6  1  0
  6  7  1  0
  7 10  1  0
 10 11  2  0
 11 12  1  0
 12 13  2  0
 13 14  1  0
 14 15  2  0
  7  8  2  0
  8 16  1  0
 16 17  2  0
 17 18  1  0
 18 19  2  0
 19 20  1  0
 20 21  2  0
  8  9  1  0
  9  1  1  0
  9  5  2  0
 15 10  1  0
 21 16  1  0
 22 23  1  0
M  END
> <minimizedAffinity>
-7.76236

> <CNNscore>
0.8094097972

> <CNNaffinity>
6.4517951012

> <CNN_VS>
5.2221460342

> <CNNaffinity_variance>
0.0631916076

$$$$



 27 30  0  0  0  0  0  0  0  0999 V2000
   18.1344   -1.0602    9.3538 C   0  0  0  0  0  0  0  0  0  0  0  0
   17.3488   -0.2056    8.6521 N   0  0  0  0  0  0  0  0  0  0  0  0
   16.0211   -0.2092    8.8625 C   0  0  0  0  0  0  0  0  0  0  0  0
   15.3275   -0.9719    9.7110 N   0  0  0  0  0  0  0  0  0  0  0  0
   16.1316   -1.8016   10.3845 C   0  0  0  0  0  0  0  0  0  0  0  0
   15.6601   -2.6859   11.3005 O   0  0  0  0  0  0  0  0  0  0  0  0
   16.7210   -3.3883   11.8066 C   0  0  0  0  0  0  0  0  0  0  0  0
   17.8884   -2.9423   11.1981 C   0  0  0  0  0  0  0  0  0  0  0  0
   17.5077   -1.9117   10.2798 C   0  0  0  0  0  0  0  0  0  0  0  0
   16.3580   -4.3797   12.8248 C   0  0  0  0  0  0  0  0  0  0  0  0
   16.5958   -4.1606   14.1900 C   0  0  0  0  0  0  0  0  0  0  0  0
   16.2314   -5.1127   15.1491 C   0  0  0  0  0  0  0  0  0  0  0  0
   15.6168   -6.2990   14.7591 C   0  0  0  0  0  0  0  0  0  0  0  0
   15.3701   -6.5367   13.4100 C   0  0  0  0  0  0  0  0  0  0  0  0
   15.7383   -5.5856   12.4528 C   0  0  0  0  0  0  0  0  0  0  0  0
   19.2077   -3.4834   11.4446 C   0  0  0  0  0  0  0  0  0  0  0  0
   20.3187   -2.6331   11.4918 C   0  0  0  0  0  0  0  0  0  0  0  0
   21.5945   -3.1618   11.7017 C   0  0  0  0  0  0  0  0  0  0  0  0
   21.7639   -4.5379   11.8668 C   0  0  0  0  0  0  0  0  0  0  0  0
   20.6593   -5.3874   11.8200 C   0  0  0  0  0  0  0  0  0  0  0  0
   19.3822   -4.8624   11.6077 C   0  0  0  0  0  0  0  0  0  0  0  0
   19.5090   -1.0814    9.1197 N   0  0  0  0  0  0  0  0  0  0  0  0
   20.1655   -0.8981    9.8302 H   0  0  0  0  0  0  0  0  0  0  0  0
   19.9101   -1.3935    7.7504 C   0  0  0  0  0  0  0  0  0  0  0  0
   21.3644   -0.9536    7.5345 C   0  0  0  0  0  0  0  0  0  0  0  0
   22.6157   -2.3173    6.0690 C   0  0  0  0  0  0  0  0  0  0  0  0
   21.7404   -1.2030    6.1731 O   0  0  0  0  0  0  0  0  0  0  0  0
 26 27  1  0
 27 25  1  0
 25 24  1  0
 24 22  1  0
 22  1  1  0
  1  2  2  0
  2  3  1  0
  3  4  2  0
  4  5  1  0
  5  6  1  0
  6  7  1  0
  7 10  1  0
 10 11  2  0
 11 12  1  0
 12 13  2  0
 13 14  1  0
 14 15  2  0
  7  8  2  0
  8 16  1  0
 16 17  2  0
 17 18  1  0
 18 19  2  0
 19 20  1  0
 20 21  2  0
  8  9  1  0
  9  1  1  0
  9  5  2  0
 15 10  1  0
 21 16  1  0
 22 23  1  0
M  END
> <minimizedAffinity>
-7.17346

> <CNNscore>
0.7733837366

> <CNNaffinity>
6.3003973961

> <CNN_VS>
4.8726248741

> <CNNaffinity_variance>
0.0135844052

$$$$



 27 30  0  0  0  0  0  0  0  0999 V2000
   18.6141   -2.6222    9.5505 C   0  0  0  0  0  0  0  0  0  0  0  0
   19.1283   -1.7244    8.6733 N   0  0  0  0  0  0  0  0  0  0  0  0
   18.3713   -0.6883    8.2728 C   0  0  0  0  0  0  0  0  0  0  0  0
   17.1197   -0.3983    8.6365 N   0  0  0  0  0  0  0  0  0  0  0  0
   16.6444   -1.3027    9.4995 C   0  0  0  0  0  0  0  0  0  0  0  0
   15.3876   -1.2310   10.0081 O   0  0  0  0  0  0  0  0  0  0  0  0
   15.2026   -2.2951   10.8499 C   0  0  0  0  0  0  0  0  0  0  0  0
   16.3642   -3.0580   10.8743 C   0  0  0  0  0  0  0  0  0  0  0  0
   17.3000   -2.4134   10.0029 C   0  0  0  0  0  0  0  0  0  0  0  0
   13.8814   -2.3393   11.4855 C   0  0  0  0  0  0  0  0  0  0  0  0
   13.1081   -3.5098   11.5062 C   0  0  0  0  0  0  0  0  0  0  0  0
   11.8546   -3.5370   12.1285 C   0  0  0  0  0  0  0  0  0  0  0  0
   11.3552   -2.3943   12.7464 C   0  0  0  0  0  0  0  0  0  0  0  0
   12.1061   -1.2223   12.7391 C   0  0  0  0  0  0  0  0  0  0  0  0
   13.3569   -1.1961   12.1137 C   0  0  0  0  0  0  0  0  0  0  0  0
   16.5294   -4.2888   11.6173 C   0  0  0  0  0  0  0  0  0  0  0  0
   16.6762   -4.2555   13.0089 C   0  0  0  0  0  0  0  0  0  0  0  0
   16.8639   -5.4431   13.7201 C   0  0  0  0  0  0  0  0  0  0  0  0
   16.9032   -6.6648   13.0453 C   0  0  0  0  0  0  0  0  0  0  0  0
   16.7576   -6.7012   11.6590 C   0  0  0  0  0  0  0  0  0  0  0  0
   16.5723   -5.5152   10.9443 C   0  0  0  0  0  0  0  0  0  0  0  0
   19.3841   -3.7149    9.9479 N   0  0  0  0  0  0  0  0  0  0  0  0
   19.4673   -4.5266    9.3970 H   0  0  0  0  0  0  0  0  0  0  0  0
   20.0589   -3.5751   11.2356 C   0  0  0  0  0  0  0  0  0  0  0  0
   20.4919   -4.9601   11.7350 C   0  0  0  0  0  0  0  0  0  0  0  0
   22.4695   -3.6734   11.8169 C   0  0  0  0  0  0  0  0  0  0  0  0
   21.8541   -4.9015   12.1799 O   0  0  0  0  0  0  0  0  0  0  0  0
 26 27  1  0
 27 25  1  0
 25 24  1  0
 24 22  1  0
 22  1  1  0
  1  2  2  0
  2  3  1  0
  3  4  2  0
  4  5  1  0
  5  6  1  0
  6  7  1  0
  7 10  1  0
 10 11  2  0
 11 12  1  0
 12 13  2  0
 13 14  1  0
 14 15  2  0
  7  8  2  0
  8 16  1  0
 16 17  2  0
 17 18  1  0
 18 19  2  0
 19 20  1  0
 20 21  2  0
  8  9  1  0
  9  1  1  0
  9  5  2  0
 15 10  1  0
 21 16  1  0
 22 23  1  0
M  END
> <minimizedAffinity>
-7.56552

> <CNNscore>
0.7087064981

> <CNNaffinity>
6.3623909950

> <CNN_VS>
4.5090680122

> <CNNaffinity_variance>
0.0713914633

$$$$



 27 30  0  0  0  0  0  0  0  0999 V2000
   16.6948   -2.0728   10.4138 C   0  0  0  0  0  0  0  0  0  0  0  0
   15.7299   -1.1759   10.0906 N   0  0  0  0  0  0  0  0  0  0  0  0
   15.9614   -0.2850    9.1110 C   0  0  0  0  0  0  0  0  0  0  0  0
   17.0626   -0.1509    8.3680 N   0  0  0  0  0  0  0  0  0  0  0  0
   17.9919   -1.0486    8.7132 C   0  0  0  0  0  0  0  0  0  0  0  0
   19.2058   -1.1069    8.1080 O   0  0  0  0  0  0  0  0  0  0  0  0
   19.9257   -2.1195    8.6838 C   0  0  0  0  0  0  0  0  0  0  0  0
   19.1541   -2.7140    9.6753 C   0  0  0  0  0  0  0  0  0  0  0  0
   17.8997   -2.0234    9.6921 C   0  0  0  0  0  0  0  0  0  0  0  0
   21.2649   -2.3067    8.1157 C   0  0  0  0  0  0  0  0  0  0  0  0
   22.1850   -1.2515    8.0239 C   0  0  0  0  0  0  0  0  0  0  0  0
   23.4634   -1.4514    7.4902 C   0  0  0  0  0  0  0  0  0  0  0  0
   23.8459   -2.7130    7.0440 C   0  0  0  0  0  0  0  0  0  0  0  0
   22.9496   -3.7748    7.1267 C   0  0  0  0  0  0  0  0  0  0  0  0
   21.6713   -3.5721    7.6571 C   0  0  0  0  0  0  0  0  0  0  0  0
   19.5979   -3.7912   10.5336 C   0  0  0  0  0  0  0  0  0  0  0  0
   18.7465   -4.8680   10.8078 C   0  0  0  0  0  0  0  0  0  0  0  0
   19.1675   -5.8921   11.6593 C   0  0  0  0  0  0  0  0  0  0  0  0
   20.4380   -5.8451   12.2366 C   0  0  0  0  0  0  0  0  0  0  0  0
   21.2882   -4.7738   11.9657 C   0  0  0  0  0  0  0  0  0  0  0  0
   20.8695   -3.7465   11.1166 C   0  0  0  0  0  0  0  0  0  0  0  0
   16.4718   -2.9810   11.4484 N   0  0  0  0  0  0  0  0  0  0  0  0
   17.2089   -3.4438   11.9087 H   0  0  0  0  0  0  0  0  0  0  0  0
   15.0722   -3.2000   11.8035 C   0  0  0  0  0  0  0  0  0  0  0  0
   14.9939   -3.7960   13.2155 C   0  0  0  0  0  0  0  0  0  0  0  0
   13.4920   -4.8074   14.7303 C   0  0  0  0  0  0  0  0  0  0  0  0
   13.6191   -3.9895   13.5754 O   0  0  0  0  0  0  0  0  0  0  0  0
 26 27  1  0
 27 25  1  0
 25 24  1  0
 24 22  1  0
 22  1  1  0
  1  2  2  0
  2  3  1  0
  3  4  2  0
  4  5  1  0
  5  6  1  0
  6  7  1  0
  7 10  1  0
 10 11  2  0
 11 12  1  0
 12 13  2  0
 13 14  1  0
 14 15  2  0
  7  8  2  0
  8 16  1  0
 16 17  2  0
 17 18  1  0
 18 19  2  0
 19 20  1  0
 20 21  2  0
  8  9  1  0
  9  1  1  0
  9  5  2  0
 15 10  1  0
 21 16  1  0
 22 23  1  0
M  END
> <minimizedAffinity>
-6.41269

> <CNNscore>
0.6979883313

> <CNNaffinity>
6.3610401154

> <CNN_VS>
4.4399318695

> <CNNaffinity_variance>
0.1061682627

$$$$



 27 30  0  0  0  0  0  0  0  0999 V2000
   18.3532   -2.6770   10.6711 C   0  0  0  0  0  0  0  0  0  0  0  0
   17.1244   -2.1116   10.5693 N   0  0  0  0  0  0  0  0  0  0  0  0
   16.8736   -1.2600    9.5599 C   0  0  0  0  0  0  0  0  0  0  0  0
   17.7039   -0.8723    8.5887 N   0  0  0  0  0  0  0  0  0  0  0  0
   18.9044   -1.4470    8.7200 C   0  0  0  0  0  0  0  0  0  0  0  0
   19.9248   -1.2025    7.8584 O   0  0  0  0  0  0  0  0  0  0  0  0
   21.0123   -1.9304    8.2616 C   0  0  0  0  0  0  0  0  0  0  0  0
   20.6759   -2.6493    9.4027 C   0  0  0  0  0  0  0  0  0  0  0  0
   19.3092   -2.3397    9.6977 C   0  0  0  0  0  0  0  0  0  0  0  0
   22.1949   -1.7716    7.4086 C   0  0  0  0  0  0  0  0  0  0  0  0
   22.1581   -2.0444    6.0329 C   0  0  0  0  0  0  0  0  0  0  0  0
   23.2933   -1.8752    5.2317 C   0  0  0  0  0  0  0  0  0  0  0  0
   24.4846   -1.4243    5.7926 C   0  0  0  0  0  0  0  0  0  0  0  0
   24.5435   -1.1464    7.1552 C   0  0  0  0  0  0  0  0  0  0  0  0
   23.4090   -1.3194    7.9547 C   0  0  0  0  0  0  0  0  0  0  0  0
   21.5848   -3.4976   10.1432 C   0  0  0  0  0  0  0  0  0  0  0  0
   21.9862   -3.1390   11.4353 C   0  0  0  0  0  0  0  0  0  0  0  0
   22.8858   -3.9455   12.1364 C   0  0  0  0  0  0  0  0  0  0  0  0
   23.3843   -5.1110   11.5513 C   0  0  0  0  0  0  0  0  0  0  0  0
   22.9867   -5.4708   10.2643 C   0  0  0  0  0  0  0  0  0  0  0  0
   22.0891   -4.6652    9.5591 C   0  0  0  0  0  0  0  0  0  0  0  0
   18.6286   -3.5390   11.7322 N   0  0  0  0  0  0  0  0  0  0  0  0
   19.4898   -4.0083   11.8174 H   0  0  0  0  0  0  0  0  0  0  0  0
   17.5543   -3.6994   12.7086 C   0  0  0  0  0  0  0  0  0  0  0  0
   17.2870   -5.1945   12.9284 C   0  0  0  0  0  0  0  0  0  0  0  0
   14.9938   -5.7099   13.1486 C   0  0  0  0  0  0  0  0  0  0  0  0
   16.1863   -5.3535   13.8340 O   0  0  0  0  0  0  0  0  0  0  0  0
 26 27  1  0
 27 25  1  0
 25 24  1  0
 24 22  1  0
 22  1  1  0
  1  2  2  0
  2  3  1  0
  3  4  2  0
  4  5  1  0
  5  6  1  0
  6  7  1  0
  7 10  1  0
 10 11  2  0
 11 12  1  0
 12 13  2  0
 13 14  1  0
 14 15  2  0
  7  8  2  0
  8 16  1  0
 16 17  2  0
 17 18  1  0
 18 19  2  0
 19 20  1  0
 20 21  2  0
  8  9  1  0
  9  1  1  0
  9  5  2  0
 15 10  1  0
 21 16  1  0
 22 23  1  0
M  END
> <minimizedAffinity>
-5.67494

> <CNNscore>
0.4112221599

> <CNNaffinity>
5.8620591164

> <CNN_VS>
2.4106085300

> <CNNaffinity_variance>
0.0762038156

$$$$



 27 30  0  0  0  0  0  0  0  0999 V2000
   13.6464   -1.9750   11.9613 C   0  0  0  0  0  0  0  0  0  0  0  0
   12.5119   -1.2351   12.0343 N   0  0  0  0  0  0  0  0  0  0  0  0
   11.5643   -1.5702   12.9270 C   0  0  0  0  0  0  0  0  0  0  0  0
   11.5817   -2.5790   13.8016 N   0  0  0  0  0  0  0  0  0  0  0  0
   12.7120   -3.2869   13.7018 C   0  0  0  0  0  0  0  0  0  0  0  0
   12.9609   -4.3714   14.4798 O   0  0  0  0  0  0  0  0  0  0  0  0
   14.1870   -4.8752   14.1364 C   0  0  0  0  0  0  0  0  0  0  0  0
   14.7257   -4.0962   13.1190 C   0  0  0  0  0  0  0  0  0  0  0  0
   13.7724   -3.0647   12.8399 C   0  0  0  0  0  0  0  0  0  0  0  0
   14.5945   -6.0521   14.9111 C   0  0  0  0  0  0  0  0  0  0  0  0
   14.9872   -5.9551   16.2545 C   0  0  0  0  0  0  0  0  0  0  0  0
   15.3611   -7.0908   16.9821 C   0  0  0  0  0  0  0  0  0  0  0  0
   15.3430   -8.3452   16.3795 C   0  0  0  0  0  0  0  0  0  0  0  0
   14.9555   -8.4650   15.0480 C   0  0  0  0  0  0  0  0  0  0  0  0
   14.5856   -7.3284   14.3215 C   0  0  0  0  0  0  0  0  0  0  0  0
   15.9916   -4.3502   12.4655 C   0  0  0  0  0  0  0  0  0  0  0  0
   17.1364   -3.6434   12.8515 C   0  0  0  0  0  0  0  0  0  0  0  0
   18.3507   -3.8706   12.1995 C   0  0  0  0  0  0  0  0  0  0  0  0
   18.4254   -4.8038   11.1636 C   0  0  0  0  0  0  0  0  0  0  0  0
   17.2867   -5.5092   10.7765 C   0  0  0  0  0  0  0  0  0  0  0  0
   16.0701   -5.2826   11.4247 C   0  0  0  0  0  0  0  0  0  0  0  0
   14.6207   -1.6500   11.0179 N   0  0  0  0  0  0  0  0  0  0  0  0
   15.5378   -2.0046   11.0669 H   0  0  0  0  0  0  0  0  0  0  0  0
   14.1901   -0.7485    9.9526 C   0  0  0  0  0  0  0  0  0  0  0  0
   15.2898    0.2892    9.6901 C   0  0  0  0  0  0  0  0  0  0  0  0
   17.2791   -0.4925    8.6878 C   0  0  0  0  0  0  0  0  0  0  0  0
   15.9570   -0.0245    8.4599 O   0  0  0  0  0  0  0  0  0  0  0  0
 26 27  1  0
 27 25  1  0
 25 24  1  0
 24 22  1  0
 22  1  1  0
  1  2  2  0
  2  3  1  0
  3  4  2  0
  4  5  1  0
  5  6  1  0
  6  7  1  0
  7 10  1  0
 10 11  2  0
 11 12  1  0
 12 13  2  0
 13 14  1  0
 14 15  2  0
  7  8  2  0
  8 16  1  0
 16 17  2  0
 17 18  1  0
 18 19  2  0
 19 20  1  0
 20 21  2  0
  8  9  1  0
  9  1  1  0
  9  5  2  0
 15 10  1  0
 21 16  1  0
 22 23  1  0
M  END
> <minimizedAffinity>
-7.29507

> <CNNscore>
0.3603802323

> <CNNaffinity>
6.1290397644

> <CNN_VS>
2.2087848186

> <CNNaffinity_variance>
0.0155554600

$$$$
