


 52 54  0  0  0  0  0  0  0  0999 V2000
   41.3645   -4.4169   10.8392 N   0  0  0  0  0  0  0  0  0  0  0  0
   41.3055   -3.8602   12.0987 C   0  0  0  0  0  0  0  0  0  0  0  0
   42.2810   -3.4511   12.7137 O   0  0  0  0  0  0  0  0  0  0  0  0
   40.5392   -4.7658   10.4314 H   0  0  0  0  0  0  0  0  0  0  0  0
   39.9507   -3.7457   12.6995 C   0  0  0  0  0  0  0  0  0  0  0  0
   38.9251   -4.5567   12.2046 C   0  0  0  0  0  0  0  0  0  0  0  0
   37.6526   -4.5036   12.7824 C   0  0  0  0  0  0  0  0  0  0  0  0
   37.3952   -3.6143   13.8341 C   0  0  0  0  0  0  0  0  0  0  0  0
   38.4097   -2.7746   14.3011 C   0  0  0  0  0  0  0  0  0  0  0  0
   39.6845   -2.8434   13.7347 C   0  0  0  0  0  0  0  0  0  0  0  0
   36.5940   -5.3996   12.2484 C   0  0  0  0  0  0  0  0  0  0  0  0
   35.6775   -5.7680   12.9705 O   0  0  0  0  0  0  0  0  0  0  0  0
   36.7063   -5.7363   10.9173 N   0  0  0  0  0  0  0  0  0  0  0  0
   37.5115   -5.4679   10.4184 H   0  0  0  0  0  0  0  0  0  0  0  0
   35.6592   -6.4806   10.2333 C   0  0  0  0  0  0  0  0  0  0  0  0
   36.2253   -7.6983    9.4975 C   0  0  0  0  0  0  0  0  0  0  0  0
   34.9015   -5.5206    9.3311 C   0  0  0  0  0  0  0  0  0  0  0  0
   35.5410   -5.0068    8.1895 C   0  0  0  0  0  0  0  0  0  0  0  0
   34.8629   -4.1648    7.3070 C   0  0  0  0  0  0  0  0  0  0  0  0
   33.5344   -3.8243    7.5492 C   0  0  0  0  0  0  0  0  0  0  0  0
   32.8813   -4.3334    8.6702 C   0  0  0  0  0  0  0  0  0  0  0  0
   33.5569   -5.1810    9.5521 C   0  0  0  0  0  0  0  0  0  0  0  0
   38.1843   -1.8763   15.4004 N   0  0  0  0  0  0  0  0  0  0  0  0
   39.3485   -1.2589   16.0624 C   0  0  0  0  0  0  0  0  0  0  0  0
   36.7222   -0.9979   15.4191 S   0  0  0  0  0  0  0  0  0  0  0  0
   35.6501   -2.0814   16.3417 C   0  0  0  0  0  0  0  0  0  0  0  0
   36.9005    0.2147   16.1916 O   0  0  0  0  0  0  0  0  0  0  0  0
   36.2166   -0.9438   14.0637 O   0  0  0  0  0  0  0  0  0  0  0  0
   42.6251   -4.5044   10.0873 C   0  0  0  0  0  0  0  0  0  0  0  0
   42.7520   -5.8411    9.3074 C   0  0  0  0  0  0  0  0  0  0  0  0
   41.7649   -6.9189    9.7068 C   0  0  0  0  0  0  0  0  0  0  0  0
   41.8295   -7.5045   10.9787 C   0  0  0  0  0  0  0  0  0  0  0  0
   40.9066   -8.4787   11.3609 C   0  0  0  0  0  0  0  0  0  0  0  0
   39.9128   -8.8831   10.4725 C   0  0  0  0  0  0  0  0  0  0  0  0
   39.8467   -8.3202    9.1996 C   0  0  0  0  0  0  0  0  0  0  0  0
   40.7709   -7.3472    8.8153 C   0  0  0  0  0  0  0  0  0  0  0  0
   42.7951   -3.2468    9.1872 C   0  0  0  0  0  0  0  0  0  0  0  0
   44.1744   -2.7591    9.1329 N   0  0  0  0  0  0  0  0  0  0  0  0
   44.7770   -3.5475    8.8968 H   0  0  0  0  0  0  0  0  0  0  0  0
   44.6899   -2.1490   10.3864 C   0  0  0  0  0  0  0  0  0  0  0  0
   46.0622   -2.6608   10.9014 C   0  0  0  0  0  0  0  0  0  0  0  0
   47.2766   -2.2806   10.0596 C   0  0  0  0  0  0  0  0  0  0  0  0
   46.2693   -2.1651   12.2368 O   0  0  0  0  0  0  0  0  0  0  0  0
   46.3192   -1.1966   12.2181 H   0  0  0  0  0  0  0  0  0  0  0  0
   44.3947   -0.0726   11.6405 N   0  0  0  0  0  0  0  0  0  0  0  0
   44.6197   -0.6006   10.3812 C   0  0  0  0  0  0  0  0  0  0  0  0
   44.7609    0.1056    9.3863 O   0  0  0  0  0  0  0  0  0  0  0  0
   44.3037   -0.6935   12.3991 H   0  0  0  0  0  0  0  0  0  0  0  0
   44.2865    1.3478   11.8968 C   0  0  0  0  0  0  0  0  0  0  0  0
   46.8293    1.2738   12.0726 C   0  0  0  0  0  0  0  0  0  0  0  0
   45.5438    1.9611   12.5350 C   0  0  0  0  0  0  0  0  0  0  0  0
   45.6280    3.4708   12.3000 C   0  0  0  0  0  0  0  0  0  0  0  0
 50 51  1  0
 51 52  1  0
 51 49  1  0
 49 45  1  0
 45 46  1  0
 46 47  2  0
 46 40  1  0
 40 38  1  0
 38 37  1  0
 29 37  1  0
 29 30  1  0
 30 31  1  0
 31 32  2  0
 32 33  1  0
 33 34  2  0
 34 35  1  0
 35 36  2  0
 29  1  1  0
  1  2  1  0
  2  3  2  0
  2  5  1  0
  5  6  2  0
  6  7  1  0
  7 11  1  0
 11 12  2  0
 11 13  1  0
 13 15  1  0
 15 16  1  0
 15 17  1  0
 17 18  2  0
 18 19  1  0
 19 20  2  0
 20 21  1  0
 21 22  2  0
  7  8  2  0
  8  9  1  0
  9 23  1  0
 23 24  1  0
 23 25  1  0
 25 26  1  0
 25 27  2  0
 25 28  2  0
  9 10  2  0
 40 41  1  0
 41 42  1  0
 41 43  1  0
 36 31  1  0
 10  5  1  0
 22 17  1  0
 45 48  1  0
 38 39  1  0
  1  4  1  0
 13 14  1  0
 43 44  1  0
M  END
> <minimizedAffinity>
-12.16035

> <CNNscore>
0.9920243621

> <CNNaffinity>
8.5555868149

> <CNN_VS>
8.4873504639

> <CNNaffinity_variance>
1.3821204901

$$$$



 52 54  0  0  0  0  0  0  0  0999 V2000
   41.4693   -3.7767   12.0922 N   0  0  0  0  0  0  0  0  0  0  0  0
   40.8839   -2.7422   12.7899 C   0  0  0  0  0  0  0  0  0  0  0  0
   41.4459   -1.6871   13.0511 O   0  0  0  0  0  0  0  0  0  0  0  0
   40.9654   -4.6127   11.9642 H   0  0  0  0  0  0  0  0  0  0  0  0
   39.4738   -2.9531   13.2100 C   0  0  0  0  0  0  0  0  0  0  0  0
   38.7238   -3.9459   12.5727 C   0  0  0  0  0  0  0  0  0  0  0  0
   37.4097   -4.1977   12.9799 C   0  0  0  0  0  0  0  0  0  0  0  0
   36.8325   -3.4335   14.0026 C   0  0  0  0  0  0  0  0  0  0  0  0
   37.5689   -2.4139   14.6113 C   0  0  0  0  0  0  0  0  0  0  0  0
   38.8872   -2.1774   14.2155 C   0  0  0  0  0  0  0  0  0  0  0  0
   36.6515   -5.2790   12.2981 C   0  0  0  0  0  0  0  0  0  0  0  0
   35.8724   -5.9780   12.9316 O   0  0  0  0  0  0  0  0  0  0  0  0
   36.8628   -5.3985   10.9421 N   0  0  0  0  0  0  0  0  0  0  0  0
   37.5621   -4.8541   10.5133 H   0  0  0  0  0  0  0  0  0  0  0  0
   36.0735   -6.3131   10.1303 C   0  0  0  0  0  0  0  0  0  0  0  0
   36.9663   -7.2465    9.3078 C   0  0  0  0  0  0  0  0  0  0  0  0
   35.1083   -5.4943    9.2891 C   0  0  0  0  0  0  0  0  0  0  0  0
   35.5511   -4.9596    8.0667 C   0  0  0  0  0  0  0  0  0  0  0  0
   34.6813   -4.2474    7.2399 C   0  0  0  0  0  0  0  0  0  0  0  0
   33.3545   -4.0598    7.6194 C   0  0  0  0  0  0  0  0  0  0  0  0
   32.8955   -4.5925    8.8227 C   0  0  0  0  0  0  0  0  0  0  0  0
   33.7634   -5.3107    9.6494 C   0  0  0  0  0  0  0  0  0  0  0  0
   37.0147   -1.6360   15.6855 N   0  0  0  0  0  0  0  0  0  0  0  0
   35.6595   -1.9585   16.1693 C   0  0  0  0  0  0  0  0  0  0  0  0
   38.0996   -0.9508   16.8095 S   0  0  0  0  0  0  0  0  0  0  0  0
   38.0216   -2.1138   18.1570 C   0  0  0  0  0  0  0  0  0  0  0  0
   39.4420   -0.9894   16.2660 O   0  0  0  0  0  0  0  0  0  0  0  0
   37.5278    0.2930   17.2806 O   0  0  0  0  0  0  0  0  0  0  0  0
   42.8250   -3.6673   11.5336 C   0  0  0  0  0  0  0  0  0  0  0  0
   42.9395   -4.3331   10.1355 C   0  0  0  0  0  0  0  0  0  0  0  0
   42.1166   -5.5915    9.9494 C   0  0  0  0  0  0  0  0  0  0  0  0
   41.4508   -5.8319    8.7395 C   0  0  0  0  0  0  0  0  0  0  0  0
   40.7132   -7.0016    8.5537 C   0  0  0  0  0  0  0  0  0  0  0  0
   40.6276   -7.9411    9.5787 C   0  0  0  0  0  0  0  0  0  0  0  0
   41.2719   -7.7075   10.7919 C   0  0  0  0  0  0  0  0  0  0  0  0
   42.0082   -6.5365   10.9798 C   0  0  0  0  0  0  0  0  0  0  0  0
   43.2875   -2.1819   11.5489 C   0  0  0  0  0  0  0  0  0  0  0  0
   43.9703   -1.7781   10.3184 N   0  0  0  0  0  0  0  0  0  0  0  0
   44.2890   -2.6232    9.8445 H   0  0  0  0  0  0  0  0  0  0  0  0
   45.1444   -0.8848   10.4988 C   0  0  0  0  0  0  0  0  0  0  0  0
   44.9367    0.3748   11.3824 C   0  0  0  0  0  0  0  0  0  0  0  0
   46.0982    1.3636   11.4211 C   0  0  0  0  0  0  0  0  0  0  0  0
   43.7667    1.0753   10.9217 O   0  0  0  0  0  0  0  0  0  0  0  0
   43.9132    1.3883   10.0153 H   0  0  0  0  0  0  0  0  0  0  0  0
   47.3412   -1.7293    9.8413 N   0  0  0  0  0  0  0  0  0  0  0  0
   46.4357   -1.6504   10.8849 C   0  0  0  0  0  0  0  0  0  0  0  0
   46.6632   -2.1302   11.9924 O   0  0  0  0  0  0  0  0  0  0  0  0
   47.1030   -1.3118    8.9822 H   0  0  0  0  0  0  0  0  0  0  0  0
   48.6214   -2.3958    9.9513 C   0  0  0  0  0  0  0  0  0  0  0  0
   50.1858   -2.5617    7.9445 C   0  0  0  0  0  0  0  0  0  0  0  0
   49.0152   -3.1947    8.6980 C   0  0  0  0  0  0  0  0  0  0  0  0
   49.3151   -4.6597    9.0225 C   0  0  0  0  0  0  0  0  0  0  0  0
 50 51  1  0
 51 52  1  0
 51 49  1  0
 49 45  1  0
 45 46  1  0
 46 47  2  0
 46 40  1  0
 40 38  1  0
 38 37  1  0
 29 37  1  0
 29 30  1  0
 30 31  1  0
 31 32  2  0
 32 33  1  0
 33 34  2  0
 34 35  1  0
 35 36  2  0
 29  1  1  0
  1  2  1  0
  2  3  2  0
  2  5  1  0
  5  6  2  0
  6  7  1  0
  7 11  1  0
 11 12  2  0
 11 13  1  0
 13 15  1  0
 15 16  1  0
 15 17  1  0
 17 18  2  0
 18 19  1  0
 19 20  2  0
 20 21  1  0
 21 22  2  0
  7  8  2  0
  8  9  1  0
  9 23  1  0
 23 24  1  0
 23 25  1  0
 25 26  1  0
 25 27  2  0
 25 28  2  0
  9 10  2  0
 40 41  1  0
 41 42  1  0
 41 43  1  0
 36 31  1  0
 10  5  1  0
 22 17  1  0
 45 48  1  0
 38 39  1  0
  1  4  1  0
 13 14  1  0
 43 44  1  0
M  END
> <minimizedAffinity>
-11.75185

> <CNNscore>
0.9395490885

> <CNNaffinity>
8.1519231796

> <CNN_VS>
7.6591320038

> <CNNaffinity_variance>
1.0221711397

$$$$



 52 54  0  0  0  0  0  0  0  0999 V2000
   35.9197   -5.4594   12.5786 N   0  0  0  0  0  0  0  0  0  0  0  0
   37.2254   -5.7092   12.2147 C   0  0  0  0  0  0  0  0  0  0  0  0
   37.5766   -6.6629   11.5332 O   0  0  0  0  0  0  0  0  0  0  0  0
   35.7255   -4.6960   13.1692 H   0  0  0  0  0  0  0  0  0  0  0  0
   38.2336   -4.7205   12.6788 C   0  0  0  0  0  0  0  0  0  0  0  0
   39.4795   -4.6831   12.0458 C   0  0  0  0  0  0  0  0  0  0  0  0
   40.4298   -3.7318   12.4305 C   0  0  0  0  0  0  0  0  0  0  0  0
   40.1476   -2.8383   13.4723 C   0  0  0  0  0  0  0  0  0  0  0  0
   38.9177   -2.9031   14.1321 C   0  0  0  0  0  0  0  0  0  0  0  0
   37.9635   -3.8416   13.7331 C   0  0  0  0  0  0  0  0  0  0  0  0
   41.7333   -3.7038   11.7171 C   0  0  0  0  0  0  0  0  0  0  0  0
   42.7154   -4.2432   12.2084 O   0  0  0  0  0  0  0  0  0  0  0  0
   41.7337   -3.0780   10.4898 N   0  0  0  0  0  0  0  0  0  0  0  0
   40.9270   -2.5980   10.1931 H   0  0  0  0  0  0  0  0  0  0  0  0
   42.9023   -3.1120    9.6228 C   0  0  0  0  0  0  0  0  0  0  0  0
   43.2560   -4.5445    9.2135 C   0  0  0  0  0  0  0  0  0  0  0  0
   44.0364   -2.3790   10.3199 C   0  0  0  0  0  0  0  0  0  0  0  0
   45.3192   -2.9539   10.3272 C   0  0  0  0  0  0  0  0  0  0  0  0
   46.3986   -2.2884   10.9100 C   0  0  0  0  0  0  0  0  0  0  0  0
   46.2147   -1.0370   11.4927 C   0  0  0  0  0  0  0  0  0  0  0  0
   44.9521   -0.4471   11.4847 C   0  0  0  0  0  0  0  0  0  0  0  0
   43.8711   -1.1093   10.8969 C   0  0  0  0  0  0  0  0  0  0  0  0
   38.5874   -1.9780   15.1816 N   0  0  0  0  0  0  0  0  0  0  0  0
   39.6134   -1.0187   15.6307 C   0  0  0  0  0  0  0  0  0  0  0  0
   36.9567   -1.5013   15.3338 S   0  0  0  0  0  0  0  0  0  0  0  0
   37.0796   -0.1028   16.4307 C   0  0  0  0  0  0  0  0  0  0  0  0
   36.4752   -1.0219   14.0542 O   0  0  0  0  0  0  0  0  0  0  0  0
   36.2508   -2.5459   16.0454 O   0  0  0  0  0  0  0  0  0  0  0  0
   34.8085   -6.3005   12.1099 C   0  0  0  0  0  0  0  0  0  0  0  0
   35.0504   -6.8482   10.6772 C   0  0  0  0  0  0  0  0  0  0  0  0
   34.7871   -5.8639    9.5559 C   0  0  0  0  0  0  0  0  0  0  0  0
   33.5788   -5.1553    9.5023 C   0  0  0  0  0  0  0  0  0  0  0  0
   33.3421   -4.2285    8.4866 C   0  0  0  0  0  0  0  0  0  0  0  0
   34.3088   -4.0050    7.5088 C   0  0  0  0  0  0  0  0  0  0  0  0
   35.5080   -4.7138    7.5413 C   0  0  0  0  0  0  0  0  0  0  0  0
   35.7449   -5.6430    8.5557 C   0  0  0  0  0  0  0  0  0  0  0  0
   34.5089   -7.4148   13.1536 C   0  0  0  0  0  0  0  0  0  0  0  0
   35.0588   -7.1257   14.4793 N   0  0  0  0  0  0  0  0  0  0  0  0
   35.9390   -7.6328   14.5714 H   0  0  0  0  0  0  0  0  0  0  0  0
   34.1938   -7.4988   15.6288 C   0  0  0  0  0  0  0  0  0  0  0  0
   32.7028   -7.7973   15.3153 C   0  0  0  0  0  0  0  0  0  0  0  0
   31.8340   -6.5878   14.9830 C   0  0  0  0  0  0  0  0  0  0  0  0
   32.6375   -8.7142   14.2076 O   0  0  0  0  0  0  0  0  0  0  0  0
   33.0126   -8.2943   13.4177 H   0  0  0  0  0  0  0  0  0  0  0  0
   34.4739   -9.8728   16.1358 N   0  0  0  0  0  0  0  0  0  0  0  0
   34.8210   -8.5925   16.5304 C   0  0  0  0  0  0  0  0  0  0  0  0
   35.5612   -8.3755   17.4862 O   0  0  0  0  0  0  0  0  0  0  0  0
   33.8872   -9.9783   15.3524 H   0  0  0  0  0  0  0  0  0  0  0  0
   34.9314  -11.0642   16.8188 C   0  0  0  0  0  0  0  0  0  0  0  0
   35.3319  -13.4211   15.9318 C   0  0  0  0  0  0  0  0  0  0  0  0
   34.2915  -12.3621   16.2991 C   0  0  0  0  0  0  0  0  0  0  0  0
   33.2699  -12.9327   17.2852 C   0  0  0  0  0  0  0  0  0  0  0  0
 50 51  1  0
 51 52  1  0
 51 49  1  0
 49 45  1  0
 45 46  1  0
 46 47  2  0
 46 40  1  0
 40 38  1  0
 38 37  1  0
 29 37  1  0
 29 30  1  0
 30 31  1  0
 31 32  2  0
 32 33  1  0
 33 34  2  0
 34 35  1  0
 35 36  2  0
 29  1  1  0
  1  2  1  0
  2  3  2  0
  2  5  1  0
  5  6  2  0
  6  7  1  0
  7 11  1  0
 11 12  2  0
 11 13  1  0
 13 15  1  0
 15 16  1  0
 15 17  1  0
 17 18  2  0
 18 19  1  0
 19 20  2  0
 20 21  1  0
 21 22  2  0
  7  8  2  0
  8  9  1  0
  9 23  1  0
 23 24  1  0
 23 25  1  0
 25 26  1  0
 25 27  2  0
 25 28  2  0
  9 10  2  0
 40 41  1  0
 41 42  1  0
 41 43  1  0
 36 31  1  0
 10  5  1  0
 22 17  1  0
 45 48  1  0
 38 39  1  0
  1  4  1  0
 13 14  1  0
 43 44  1  0
M  END
> <minimizedAffinity>
-8.33020

> <CNNscore>
0.2771111429

> <CNNaffinity>
7.0348505974

> <CNN_VS>
1.9494354725

> <CNNaffinity_variance>
0.4272882640

$$$$



 52 54  0  0  0  0  0  0  0  0999 V2000
   36.3505   -5.7417   13.3804 N   0  0  0  0  0  0  0  0  0  0  0  0
   36.9571   -4.8159   12.5591 C   0  0  0  0  0  0  0  0  0  0  0  0
   36.6613   -4.6438   11.3842 O   0  0  0  0  0  0  0  0  0  0  0  0
   36.6791   -5.8514   14.3019 H   0  0  0  0  0  0  0  0  0  0  0  0
   38.0129   -3.9785   13.1864 C   0  0  0  0  0  0  0  0  0  0  0  0
   39.2960   -3.9873   12.6314 C   0  0  0  0  0  0  0  0  0  0  0  0
   40.2963   -3.1732   13.1725 C   0  0  0  0  0  0  0  0  0  0  0  0
   40.0236   -2.3745   14.2910 C   0  0  0  0  0  0  0  0  0  0  0  0
   38.7523   -2.3972   14.8704 C   0  0  0  0  0  0  0  0  0  0  0  0
   37.7501   -3.1968   14.3163 C   0  0  0  0  0  0  0  0  0  0  0  0
   41.6411   -3.1878   12.5399 C   0  0  0  0  0  0  0  0  0  0  0  0
   42.3568   -4.1752   12.6386 O   0  0  0  0  0  0  0  0  0  0  0  0
   41.9844   -2.0577   11.8310 N   0  0  0  0  0  0  0  0  0  0  0  0
   41.3921   -1.2718   11.8601 H   0  0  0  0  0  0  0  0  0  0  0  0
   43.2047   -2.0015   11.0398 C   0  0  0  0  0  0  0  0  0  0  0  0
   44.0391   -3.2749   11.2039 C   0  0  0  0  0  0  0  0  0  0  0  0
   43.9534   -0.7304   11.4052 C   0  0  0  0  0  0  0  0  0  0  0  0
   45.3269   -0.6402   11.1197 C   0  0  0  0  0  0  0  0  0  0  0  0
   46.0391    0.5289   11.3906 C   0  0  0  0  0  0  0  0  0  0  0  0
   45.3905    1.6277   11.9487 C   0  0  0  0  0  0  0  0  0  0  0  0
   44.0268    1.5598   12.2278 C   0  0  0  0  0  0  0  0  0  0  0  0
   43.3107    0.3920   11.9523 C   0  0  0  0  0  0  0  0  0  0  0  0
   38.4339   -1.5638   15.9974 N   0  0  0  0  0  0  0  0  0  0  0  0
   39.5368   -1.0151   16.8082 C   0  0  0  0  0  0  0  0  0  0  0  0
   36.9918   -0.6552   15.9290 S   0  0  0  0  0  0  0  0  0  0  0  0
   35.8406   -1.7221   16.7721 C   0  0  0  0  0  0  0  0  0  0  0  0
   37.1446    0.5483   16.7209 O   0  0  0  0  0  0  0  0  0  0  0  0
   36.5759   -0.5817   14.5443 O   0  0  0  0  0  0  0  0  0  0  0  0
   35.2265   -6.5700   12.9195 C   0  0  0  0  0  0  0  0  0  0  0  0
   33.8710   -6.1066   13.5189 C   0  0  0  0  0  0  0  0  0  0  0  0
   33.2980   -7.0071   14.5941 C   0  0  0  0  0  0  0  0  0  0  0  0
   32.1548   -6.6218   15.3079 C   0  0  0  0  0  0  0  0  0  0  0  0
   31.6079   -7.4591   16.2808 C   0  0  0  0  0  0  0  0  0  0  0  0
   32.2024   -8.6885   16.5556 C   0  0  0  0  0  0  0  0  0  0  0  0
   33.3482   -9.0771   15.8643 C   0  0  0  0  0  0  0  0  0  0  0  0
   33.8976   -8.2392   14.8924 C   0  0  0  0  0  0  0  0  0  0  0  0
   35.2213   -6.6411   11.3654 C   0  0  0  0  0  0  0  0  0  0  0  0
   34.0932   -5.9313   10.7596 N   0  0  0  0  0  0  0  0  0  0  0  0
   33.2409   -6.4423   10.9896 H   0  0  0  0  0  0  0  0  0  0  0  0
   34.1495   -5.7776    9.2824 C   0  0  0  0  0  0  0  0  0  0  0  0
   33.3843   -4.5713    8.6742 C   0  0  0  0  0  0  0  0  0  0  0  0
   33.8931   -4.0668    7.3271 C   0  0  0  0  0  0  0  0  0  0  0  0
   31.9985   -4.9304    8.5242 O   0  0  0  0  0  0  0  0  0  0  0  0
   31.9206   -5.6612    7.8911 H   0  0  0  0  0  0  0  0  0  0  0  0
   36.2533   -7.0155    9.1692 N   0  0  0  0  0  0  0  0  0  0  0  0
   35.5874   -5.8905    8.7149 C   0  0  0  0  0  0  0  0  0  0  0  0
   36.0990   -5.0927    7.9338 O   0  0  0  0  0  0  0  0  0  0  0  0
   35.7814   -7.6225    9.7841 H   0  0  0  0  0  0  0  0  0  0  0  0
   37.6097   -7.3432    8.7846 C   0  0  0  0  0  0  0  0  0  0  0  0
   38.3740   -8.4831   10.9336 C   0  0  0  0  0  0  0  0  0  0  0  0
   38.6070   -7.3315    9.9547 C   0  0  0  0  0  0  0  0  0  0  0  0
   40.0587   -7.3237    9.4710 C   0  0  0  0  0  0  0  0  0  0  0  0
 50 51  1  0
 51 52  1  0
 51 49  1  0
 49 45  1  0
 45 46  1  0
 46 47  2  0
 46 40  1  0
 40 38  1  0
 38 37  1  0
 29 37  1  0
 29 30  1  0
 30 31  1  0
 31 32  2  0
 32 33  1  0
 33 34  2  0
 34 35  1  0
 35 36  2  0
 29  1  1  0
  1  2  1  0
  2  3  2  0
  2  5  1  0
  5  6  2  0
  6  7  1  0
  7 11  1  0
 11 12  2  0
 11 13  1  0
 13 15  1  0
 15 16  1  0
 15 17  1  0
 17 18  2  0
 18 19  1  0
 19 20  2  0
 20 21  1  0
 21 22  2  0
  7  8  2  0
  8  9  1  0
  9 23  1  0
 23 24  1  0
 23 25  1  0
 25 26  1  0
 25 27  2  0
 25 28  2  0
  9 10  2  0
 40 41  1  0
 41 42  1  0
 41 43  1  0
 36 31  1  0
 10  5  1  0
 22 17  1  0
 45 48  1  0
 38 39  1  0
  1  4  1  0
 13 14  1  0
 43 44  1  0
M  END
> <minimizedAffinity>
-9.50545

> <CNNscore>
0.2299427539

> <CNNaffinity>
6.6069030762

> <CNN_VS>
1.5192095041

> <CNNaffinity_variance>
1.7165445089

$$$$



 52 54  0  0  0  0  0  0  0  0999 V2000
   33.7109   -5.9320   13.8103 N   0  0  0  0  0  0  0  0  0  0  0  0
   34.7467   -6.7728   13.4639 C   0  0  0  0  0  0  0  0  0  0  0  0
   35.1984   -7.6421   14.1971 O   0  0  0  0  0  0  0  0  0  0  0  0
   33.4370   -5.2262   13.1809 H   0  0  0  0  0  0  0  0  0  0  0  0
   35.3032   -6.5951   12.0970 C   0  0  0  0  0  0  0  0  0  0  0  0
   36.5977   -7.0526   11.8336 C   0  0  0  0  0  0  0  0  0  0  0  0
   37.1287   -6.9409   10.5445 C   0  0  0  0  0  0  0  0  0  0  0  0
   36.3782   -6.3405    9.5251 C   0  0  0  0  0  0  0  0  0  0  0  0
   35.1002   -5.8464    9.7990 C   0  0  0  0  0  0  0  0  0  0  0  0
   34.5651   -5.9764   11.0825 C   0  0  0  0  0  0  0  0  0  0  0  0
   38.4977   -7.4626   10.2946 C   0  0  0  0  0  0  0  0  0  0  0  0
   38.6531   -8.5611    9.7787 O   0  0  0  0  0  0  0  0  0  0  0  0
   39.5337   -6.6243   10.6438 N   0  0  0  0  0  0  0  0  0  0  0  0
   39.3363   -5.7890   11.1261 H   0  0  0  0  0  0  0  0  0  0  0  0
   40.9139   -6.9480   10.3143 C   0  0  0  0  0  0  0  0  0  0  0  0
   41.4816   -8.0114   11.2586 C   0  0  0  0  0  0  0  0  0  0  0  0
   41.7164   -5.6575   10.2958 C   0  0  0  0  0  0  0  0  0  0  0  0
   41.9578   -4.9854   11.5066 C   0  0  0  0  0  0  0  0  0  0  0  0
   42.7348   -3.8267   11.5396 C   0  0  0  0  0  0  0  0  0  0  0  0
   43.2851   -3.3218   10.3641 C   0  0  0  0  0  0  0  0  0  0  0  0
   43.0652   -3.9814    9.1563 C   0  0  0  0  0  0  0  0  0  0  0  0
   42.2922   -5.1449    9.1220 C   0  0  0  0  0  0  0  0  0  0  0  0
   34.2941   -5.2559    8.7656 N   0  0  0  0  0  0  0  0  0  0  0  0
   32.9127   -4.8518    9.0871 C   0  0  0  0  0  0  0  0  0  0  0  0
   35.0943   -4.3833    7.5377 S   0  0  0  0  0  0  0  0  0  0  0  0
   33.7480   -3.9457    6.4558 C   0  0  0  0  0  0  0  0  0  0  0  0
   35.6346   -3.1590    8.0929 O   0  0  0  0  0  0  0  0  0  0  0  0
   35.9443   -5.3063    6.8156 O   0  0  0  0  0  0  0  0  0  0  0  0
   33.0034   -6.0592   15.0929 C   0  0  0  0  0  0  0  0  0  0  0  0
   32.4621   -7.4959   15.3251 C   0  0  0  0  0  0  0  0  0  0  0  0
   31.0391   -7.5753   15.8391 C   0  0  0  0  0  0  0  0  0  0  0  0
   30.0111   -8.0493   15.0124 C   0  0  0  0  0  0  0  0  0  0  0  0
   28.7037   -8.1492   15.4893 C   0  0  0  0  0  0  0  0  0  0  0  0
   28.4085   -7.7694   16.7967 C   0  0  0  0  0  0  0  0  0  0  0  0
   29.4179   -7.2819   17.6242 C   0  0  0  0  0  0  0  0  0  0  0  0
   30.7259   -7.1794   17.1474 C   0  0  0  0  0  0  0  0  0  0  0  0
   33.9069   -5.5460   16.2509 C   0  0  0  0  0  0  0  0  0  0  0  0
   35.0190   -4.7135   15.7888 N   0  0  0  0  0  0  0  0  0  0  0  0
   35.8659   -5.0314   16.2601 H   0  0  0  0  0  0  0  0  0  0  0  0
   34.8768   -3.2553   16.0383 C   0  0  0  0  0  0  0  0  0  0  0  0
   34.7623   -2.8063   17.5201 C   0  0  0  0  0  0  0  0  0  0  0  0
   35.6398   -3.5581   18.5165 C   0  0  0  0  0  0  0  0  0  0  0  0
   35.0850   -1.4062   17.6056 O   0  0  0  0  0  0  0  0  0  0  0  0
   36.0083   -1.2705   17.3410 H   0  0  0  0  0  0  0  0  0  0  0  0
   37.2173   -2.7276   15.5744 N   0  0  0  0  0  0  0  0  0  0  0  0
   35.9097   -2.4026   15.2582 C   0  0  0  0  0  0  0  0  0  0  0  0
   35.6268   -1.5384   14.4327 O   0  0  0  0  0  0  0  0  0  0  0  0
   37.3760   -3.4399   16.2353 H   0  0  0  0  0  0  0  0  0  0  0  0
   38.3629   -2.0715   14.9810 C   0  0  0  0  0  0  0  0  0  0  0  0
   38.4545   -3.6725   12.9984 C   0  0  0  0  0  0  0  0  0  0  0  0
   39.2391   -3.0033   14.1278 C   0  0  0  0  0  0  0  0  0  0  0  0
   40.4704   -2.2839   13.5729 C   0  0  0  0  0  0  0  0  0  0  0  0
 50 51  1  0
 51 52  1  0
 51 49  1  0
 49 45  1  0
 45 46  1  0
 46 47  2  0
 46 40  1  0
 40 38  1  0
 38 37  1  0
 29 37  1  0
 29 30  1  0
 30 31  1  0
 31 32  2  0
 32 33  1  0
 33 34  2  0
 34 35  1  0
 35 36  2  0
 29  1  1  0
  1  2  1  0
  2  3  2  0
  2  5  1  0
  5  6  2  0
  6  7  1  0
  7 11  1  0
 11 12  2  0
 11 13  1  0
 13 15  1  0
 15 16  1  0
 15 17  1  0
 17 18  2  0
 18 19  1  0
 19 20  2  0
 20 21  1  0
 21 22  2  0
  7  8  2  0
  8  9  1  0
  9 23  1  0
 23 24  1  0
 23 25  1  0
 25 26  1  0
 25 27  2  0
 25 28  2  0
  9 10  2  0
 40 41  1  0
 41 42  1  0
 41 43  1  0
 36 31  1  0
 10  5  1  0
 22 17  1  0
 45 48  1  0
 38 39  1  0
  1  4  1  0
 13 14  1  0
 43 44  1  0
M  END
> <minimizedAffinity>
-8.45674

> <CNNscore>
0.2189230770

> <CNNaffinity>
6.5670714378

> <CNN_VS>
1.4376834631

> <CNNaffinity_variance>
1.1009693146

$$$$



 52 54  0  0  0  0  0  0  0  0999 V2000
   36.3081   -5.5025   13.0235 N   0  0  0  0  0  0  0  0  0  0  0  0
   36.9958   -4.5593   12.2906 C   0  0  0  0  0  0  0  0  0  0  0  0
   36.7560   -4.2915   11.1210 O   0  0  0  0  0  0  0  0  0  0  0  0
   36.5940   -5.6930   13.9461 H   0  0  0  0  0  0  0  0  0  0  0  0
   38.0703   -3.8278   13.0117 C   0  0  0  0  0  0  0  0  0  0  0  0
   39.3657   -3.8468   12.4865 C   0  0  0  0  0  0  0  0  0  0  0  0
   40.3860   -3.1286   13.1185 C   0  0  0  0  0  0  0  0  0  0  0  0
   40.1191   -2.4177   14.2961 C   0  0  0  0  0  0  0  0  0  0  0  0
   38.8335   -2.4326   14.8431 C   0  0  0  0  0  0  0  0  0  0  0  0
   37.8124   -3.1352   14.1994 C   0  0  0  0  0  0  0  0  0  0  0  0
   41.7447   -3.1496   12.5168 C   0  0  0  0  0  0  0  0  0  0  0  0
   42.4591   -4.1347   12.6445 O   0  0  0  0  0  0  0  0  0  0  0  0
   42.1029   -2.0282   11.8013 N   0  0  0  0  0  0  0  0  0  0  0  0
   41.5093   -1.2428   11.8069 H   0  0  0  0  0  0  0  0  0  0  0  0
   43.3409   -1.9806   11.0374 C   0  0  0  0  0  0  0  0  0  0  0  0
   44.2044   -3.2195   11.2905 C   0  0  0  0  0  0  0  0  0  0  0  0
   44.0459   -0.6712   11.3505 C   0  0  0  0  0  0  0  0  0  0  0  0
   43.3313    0.3522   11.9971 C   0  0  0  0  0  0  0  0  0  0  0  0
   43.9563    1.5490   12.3499 C   0  0  0  0  0  0  0  0  0  0  0  0
   45.3057    1.7422   12.0646 C   0  0  0  0  0  0  0  0  0  0  0  0
   46.0324    0.7339   11.4339 C   0  0  0  0  0  0  0  0  0  0  0  0
   45.4098   -0.4674   11.0849 C   0  0  0  0  0  0  0  0  0  0  0  0
   38.5223   -1.6858   16.0313 N   0  0  0  0  0  0  0  0  0  0  0  0
   39.6271   -1.2534   16.9072 C   0  0  0  0  0  0  0  0  0  0  0  0
   37.1186   -0.7168   16.0134 S   0  0  0  0  0  0  0  0  0  0  0  0
   35.9180   -1.7885   16.7778 C   0  0  0  0  0  0  0  0  0  0  0  0
   37.3127    0.4255   16.8832 O   0  0  0  0  0  0  0  0  0  0  0  0
   36.7182   -0.5364   14.6339 O   0  0  0  0  0  0  0  0  0  0  0  0
   35.1596   -6.2324   12.4665 C   0  0  0  0  0  0  0  0  0  0  0  0
   35.5275   -7.0062   11.1716 C   0  0  0  0  0  0  0  0  0  0  0  0
   35.2925   -6.2518    9.8789 C   0  0  0  0  0  0  0  0  0  0  0  0
   34.1503   -5.4549    9.7196 C   0  0  0  0  0  0  0  0  0  0  0  0
   33.9423   -4.7374    8.5412 C   0  0  0  0  0  0  0  0  0  0  0  0
   34.8711   -4.8144    7.5058 C   0  0  0  0  0  0  0  0  0  0  0  0
   36.0031   -5.6149    7.6450 C   0  0  0  0  0  0  0  0  0  0  0  0
   36.2111   -6.3350    8.8226 C   0  0  0  0  0  0  0  0  0  0  0  0
   34.5206   -7.1330   13.5625 C   0  0  0  0  0  0  0  0  0  0  0  0
   33.6743   -6.3898   14.4979 N   0  0  0  0  0  0  0  0  0  0  0  0
   34.0521   -5.4460   14.5811 H   0  0  0  0  0  0  0  0  0  0  0  0
   33.5710   -6.9631   15.8653 C   0  0  0  0  0  0  0  0  0  0  0  0
   33.3723   -5.9588   17.0325 C   0  0  0  0  0  0  0  0  0  0  0  0
   32.0200   -6.0114   17.7372 C   0  0  0  0  0  0  0  0  0  0  0  0
   34.3993   -6.1830   18.0157 O   0  0  0  0  0  0  0  0  0  0  0  0
   34.3002   -7.0724   18.3899 H   0  0  0  0  0  0  0  0  0  0  0  0
   31.4770   -7.9847   15.1285 N   0  0  0  0  0  0  0  0  0  0  0  0
   32.5767   -8.1489   15.9526 C   0  0  0  0  0  0  0  0  0  0  0  0
   32.7308   -9.1445   16.6550 O   0  0  0  0  0  0  0  0  0  0  0  0
   31.4204   -7.1689   14.5803 H   0  0  0  0  0  0  0  0  0  0  0  0
   30.4061   -8.9538   15.0331 C   0  0  0  0  0  0  0  0  0  0  0  0
   28.0026   -9.0607   14.1883 C   0  0  0  0  0  0  0  0  0  0  0  0
   29.0004   -8.3334   15.0906 C   0  0  0  0  0  0  0  0  0  0  0  0
   28.4679   -8.2511   16.5228 C   0  0  0  0  0  0  0  0  0  0  0  0
 50 51  1  0
 51 52  1  0
 51 49  1  0
 49 45  1  0
 45 46  1  0
 46 47  2  0
 46 40  1  0
 40 38  1  0
 38 37  1  0
 29 37  1  0
 29 30  1  0
 30 31  1  0
 31 32  2  0
 32 33  1  0
 33 34  2  0
 34 35  1  0
 35 36  2  0
 29  1  1  0
  1  2  1  0
  2  3  2  0
  2  5  1  0
  5  6  2  0
  6  7  1  0
  7 11  1  0
 11 12  2  0
 11 13  1  0
 13 15  1  0
 15 16  1  0
 15 17  1  0
 17 18  2  0
 18 19  1  0
 19 20  2  0
 20 21  1  0
 21 22  2  0
  7  8  2  0
  8  9  1  0
  9 23  1  0
 23 24  1  0
 23 25  1  0
 25 26  1  0
 25 27  2  0
 25 28  2  0
  9 10  2  0
 40 41  1  0
 41 42  1  0
 41 43  1  0
 36 31  1  0
 10  5  1  0
 22 17  1  0
 45 48  1  0
 38 39  1  0
  1  4  1  0
 13 14  1  0
 43 44  1  0
M  END
> <minimizedAffinity>
-8.23816

> <CNNscore>
0.2145297378

> <CNNaffinity>
6.2529072762

> <CNN_VS>
1.3414345980

> <CNNaffinity_variance>
1.4156751633

$$$$



 52 54  0  0  0  0  0  0  0  0999 V2000
   36.2388   -5.4262   13.1077 N   0  0  0  0  0  0  0  0  0  0  0  0
   36.9689   -4.5280   12.3595 C   0  0  0  0  0  0  0  0  0  0  0  0
   36.7603   -4.2913   11.1772 O   0  0  0  0  0  0  0  0  0  0  0  0
   36.5007   -5.5950   14.0415 H   0  0  0  0  0  0  0  0  0  0  0  0
   38.0507   -3.8056   13.0789 C   0  0  0  0  0  0  0  0  0  0  0  0
   39.3423   -3.8243   12.5444 C   0  0  0  0  0  0  0  0  0  0  0  0
   40.3692   -3.1143   13.1750 C   0  0  0  0  0  0  0  0  0  0  0  0
   40.1128   -2.4122   14.3602 C   0  0  0  0  0  0  0  0  0  0  0  0
   38.8310   -2.4277   14.9161 C   0  0  0  0  0  0  0  0  0  0  0  0
   37.8033   -3.1220   14.2740 C   0  0  0  0  0  0  0  0  0  0  0  0
   41.7236   -3.1345   12.5636 C   0  0  0  0  0  0  0  0  0  0  0  0
   42.4606   -4.0965   12.7322 O   0  0  0  0  0  0  0  0  0  0  0  0
   42.0515   -2.0412   11.7923 N   0  0  0  0  0  0  0  0  0  0  0  0
   41.4407   -1.2696   11.7653 H   0  0  0  0  0  0  0  0  0  0  0  0
   43.2824   -2.0033   11.0166 C   0  0  0  0  0  0  0  0  0  0  0  0
   44.1050   -3.2808   11.2065 C   0  0  0  0  0  0  0  0  0  0  0  0
   44.0358   -0.7335   11.3768 C   0  0  0  0  0  0  0  0  0  0  0  0
   45.4103   -0.6507   11.0937 C   0  0  0  0  0  0  0  0  0  0  0  0
   46.1269    0.5168   11.3599 C   0  0  0  0  0  0  0  0  0  0  0  0
   45.4819    1.6213   11.9109 C   0  0  0  0  0  0  0  0  0  0  0  0
   44.1173    1.5607   12.1875 C   0  0  0  0  0  0  0  0  0  0  0  0
   43.3968    0.3945   11.9166 C   0  0  0  0  0  0  0  0  0  0  0  0
   38.5305   -1.6896   16.1125 N   0  0  0  0  0  0  0  0  0  0  0  0
   39.6360   -1.3255   17.0180 C   0  0  0  0  0  0  0  0  0  0  0  0
   37.1735   -0.6564   16.0864 S   0  0  0  0  0  0  0  0  0  0  0  0
   35.9023   -1.6958   16.7778 C   0  0  0  0  0  0  0  0  0  0  0  0
   37.3922    0.4463   17.0004 O   0  0  0  0  0  0  0  0  0  0  0  0
   36.8249   -0.4122   14.7027 O   0  0  0  0  0  0  0  0  0  0  0  0
   35.0799   -6.1394   12.5507 C   0  0  0  0  0  0  0  0  0  0  0  0
   35.4381   -6.9238   11.2594 C   0  0  0  0  0  0  0  0  0  0  0  0
   35.2155   -6.1714    9.9633 C   0  0  0  0  0  0  0  0  0  0  0  0
   36.1594   -6.2434    8.9295 C   0  0  0  0  0  0  0  0  0  0  0  0
   35.9466   -5.5737    7.7241 C   0  0  0  0  0  0  0  0  0  0  0  0
   34.7903   -4.8185    7.5418 C   0  0  0  0  0  0  0  0  0  0  0  0
   33.8512   -4.7258    8.5670 C   0  0  0  0  0  0  0  0  0  0  0  0
   34.0641   -5.3936    9.7742 C   0  0  0  0  0  0  0  0  0  0  0  0
   34.4239   -7.0256   13.6485 C   0  0  0  0  0  0  0  0  0  0  0  0
   35.0887   -6.9192   14.9486 N   0  0  0  0  0  0  0  0  0  0  0  0
   35.3275   -7.8617   15.2569 H   0  0  0  0  0  0  0  0  0  0  0  0
   34.2937   -6.2735   16.0256 C   0  0  0  0  0  0  0  0  0  0  0  0
   32.7485   -6.3293   15.8848 C   0  0  0  0  0  0  0  0  0  0  0  0
   32.0753   -7.5978   16.4003 C   0  0  0  0  0  0  0  0  0  0  0  0
   32.1796   -5.2051   16.5808 O   0  0  0  0  0  0  0  0  0  0  0  0
   32.3787   -5.2765   17.5275 H   0  0  0  0  0  0  0  0  0  0  0  0
   35.6689   -7.7204   17.4351 N   0  0  0  0  0  0  0  0  0  0  0  0
   34.7557   -6.6805   17.4480 C   0  0  0  0  0  0  0  0  0  0  0  0
   34.3812   -6.1455   18.4882 O   0  0  0  0  0  0  0  0  0  0  0  0
   35.9379   -8.0965   16.5659 H   0  0  0  0  0  0  0  0  0  0  0  0
   36.2478   -8.2820   18.6370 C   0  0  0  0  0  0  0  0  0  0  0  0
   38.2592   -9.4043   19.7311 C   0  0  0  0  0  0  0  0  0  0  0  0
   37.6497   -8.8789   18.4306 C   0  0  0  0  0  0  0  0  0  0  0  0
   37.6568   -9.9683   17.3561 C   0  0  0  0  0  0  0  0  0  0  0  0
 50 51  1  0
 51 52  1  0
 51 49  1  0
 49 45  1  0
 45 46  1  0
 46 47  2  0
 46 40  1  0
 40 38  1  0
 38 37  1  0
 29 37  1  0
 29 30  1  0
 30 31  1  0
 31 32  2  0
 32 33  1  0
 33 34  2  0
 34 35  1  0
 35 36  2  0
 29  1  1  0
  1  2  1  0
  2  3  2  0
  2  5  1  0
  5  6  2  0
  6  7  1  0
  7 11  1  0
 11 12  2  0
 11 13  1  0
 13 15  1  0
 15 16  1  0
 15 17  1  0
 17 18  2  0
 18 19  1  0
 19 20  2  0
 20 21  1  0
 21 22  2  0
  7  8  2  0
  8  9  1  0
  9 23  1  0
 23 24  1  0
 23 25  1  0
 25 26  1  0
 25 27  2  0
 25 28  2  0
  9 10  2  0
 40 41  1  0
 41 42  1  0
 41 43  1  0
 36 31  1  0
 10  5  1  0
 22 17  1  0
 45 48  1  0
 38 39  1  0
  1  4  1  0
 13 14  1  0
 43 44  1  0
M  END
> <minimizedAffinity>
-8.73462

> <CNNscore>
0.1681297123

> <CNNaffinity>
6.1463942528

> <CNN_VS>
1.0333914757

> <CNNaffinity_variance>
1.4948736429

$$$$



 52 54  0  0  0  0  0  0  0  0999 V2000
   38.4525   -2.5828   15.7419 N   0  0  0  0  0  0  0  0  0  0  0  0
   39.2218   -2.2527   14.6469 C   0  0  0  0  0  0  0  0  0  0  0  0
   39.7849   -1.1758   14.5043 O   0  0  0  0  0  0  0  0  0  0  0  0
   37.9935   -3.4536   15.7589 H   0  0  0  0  0  0  0  0  0  0  0  0
   39.3709   -3.3084   13.6111 C   0  0  0  0  0  0  0  0  0  0  0  0
   38.2426   -4.0408   13.2305 C   0  0  0  0  0  0  0  0  0  0  0  0
   38.3443   -5.0076   12.2249 C   0  0  0  0  0  0  0  0  0  0  0  0
   39.5825   -5.2668   11.6223 C   0  0  0  0  0  0  0  0  0  0  0  0
   40.7180   -4.5632   12.0320 C   0  0  0  0  0  0  0  0  0  0  0  0
   40.6096   -3.5851   13.0230 C   0  0  0  0  0  0  0  0  0  0  0  0
   37.1186   -5.7478   11.8271 C   0  0  0  0  0  0  0  0  0  0  0  0
   36.1688   -5.8230   12.5947 O   0  0  0  0  0  0  0  0  0  0  0  0
   37.1269   -6.2877   10.5597 N   0  0  0  0  0  0  0  0  0  0  0  0
   37.9545   -6.2557   10.0275 H   0  0  0  0  0  0  0  0  0  0  0  0
   35.9374   -6.9044    9.9913 C   0  0  0  0  0  0  0  0  0  0  0  0
   36.2931   -8.1145    9.1231 C   0  0  0  0  0  0  0  0  0  0  0  0
   35.1501   -5.8343    9.2533 C   0  0  0  0  0  0  0  0  0  0  0  0
   33.8519   -5.5178    9.6898 C   0  0  0  0  0  0  0  0  0  0  0  0
   33.1163   -4.5049    9.0730 C   0  0  0  0  0  0  0  0  0  0  0  0
   33.6664   -3.7901    8.0119 C   0  0  0  0  0  0  0  0  0  0  0  0
   34.9564   -4.0830    7.5732 C   0  0  0  0  0  0  0  0  0  0  0  0
   35.6967   -5.0931    8.1930 C   0  0  0  0  0  0  0  0  0  0  0  0
   41.9944   -4.7840   11.4089 N   0  0  0  0  0  0  0  0  0  0  0  0
   42.2265   -6.0549   10.6979 C   0  0  0  0  0  0  0  0  0  0  0  0
   42.8560   -3.4174   10.8613 S   0  0  0  0  0  0  0  0  0  0  0  0
   43.4790   -3.9771    9.2887 C   0  0  0  0  0  0  0  0  0  0  0  0
   41.9280   -2.3332   10.6115 O   0  0  0  0  0  0  0  0  0  0  0  0
   43.9958   -3.2293   11.7337 O   0  0  0  0  0  0  0  0  0  0  0  0
   38.2980   -1.6715   16.8853 C   0  0  0  0  0  0  0  0  0  0  0  0
   39.6647   -1.1721   17.4272 C   0  0  0  0  0  0  0  0  0  0  0  0
   40.2843   -2.0323   18.5096 C   0  0  0  0  0  0  0  0  0  0  0  0
   40.3451   -3.4249   18.3618 C   0  0  0  0  0  0  0  0  0  0  0  0
   40.9382   -4.2192   19.3436 C   0  0  0  0  0  0  0  0  0  0  0  0
   41.4711   -3.6300   20.4879 C   0  0  0  0  0  0  0  0  0  0  0  0
   41.4035   -2.2483   20.6547 C   0  0  0  0  0  0  0  0  0  0  0  0
   40.8084   -1.4528   19.6741 C   0  0  0  0  0  0  0  0  0  0  0  0
   37.3220   -0.5173   16.5165 C   0  0  0  0  0  0  0  0  0  0  0  0
   36.1683   -0.4293   17.4136 N   0  0  0  0  0  0  0  0  0  0  0  0
   36.4368    0.1418   18.2149 H   0  0  0  0  0  0  0  0  0  0  0  0
   35.6539   -1.7255   17.9277 C   0  0  0  0  0  0  0  0  0  0  0  0
   35.0562   -1.7229   19.3606 C   0  0  0  0  0  0  0  0  0  0  0  0
   34.2515   -0.4856   19.7474 C   0  0  0  0  0  0  0  0  0  0  0  0
   34.2065   -2.8751   19.5096 O   0  0  0  0  0  0  0  0  0  0  0  0
   33.4604   -2.8085   18.8933 H   0  0  0  0  0  0  0  0  0  0  0  0
   35.2483   -3.6622   16.4938 N   0  0  0  0  0  0  0  0  0  0  0  0
   34.7273   -2.4531   16.9204 C   0  0  0  0  0  0  0  0  0  0  0  0
   33.6382   -2.0334   16.5383 O   0  0  0  0  0  0  0  0  0  0  0  0
   36.1211   -3.9474   16.8490 H   0  0  0  0  0  0  0  0  0  0  0  0
   34.5727   -4.5279   15.5508 C   0  0  0  0  0  0  0  0  0  0  0  0
   32.3839   -5.6639   14.9021 C   0  0  0  0  0  0  0  0  0  0  0  0
   33.1838   -4.9923   16.0192 C   0  0  0  0  0  0  0  0  0  0  0  0
   33.2672   -5.9061   17.2437 C   0  0  0  0  0  0  0  0  0  0  0  0
 50 51  1  0
 51 52  1  0
 51 49  1  0
 49 45  1  0
 45 46  1  0
 46 47  2  0
 46 40  1  0
 40 38  1  0
 38 37  1  0
 29 37  1  0
 29 30  1  0
 30 31  1  0
 31 32  2  0
 32 33  1  0
 33 34  2  0
 34 35  1  0
 35 36  2  0
 29  1  1  0
  1  2  1  0
  2  3  2  0
  2  5  1  0
  5  6  2  0
  6  7  1  0
  7 11  1  0
 11 12  2  0
 11 13  1  0
 13 15  1  0
 15 16  1  0
 15 17  1  0
 17 18  2  0
 18 19  1  0
 19 20  2  0
 20 21  1  0
 21 22  2  0
  7  8  2  0
  8  9  1  0
  9 23  1  0
 23 24  1  0
 23 25  1  0
 25 26  1  0
 25 27  2  0
 25 28  2  0
  9 10  2  0
 40 41  1  0
 41 42  1  0
 41 43  1  0
 36 31  1  0
 10  5  1  0
 22 17  1  0
 45 48  1  0
 38 39  1  0
  1  4  1  0
 13 14  1  0
 43 44  1  0
M  END
> <minimizedAffinity>
-9.30944

> <CNNscore>
0.1630896479

> <CNNaffinity>
6.1489734650

> <CNN_VS>
1.0028339624

> <CNNaffinity_variance>
2.1171824932

$$$$



 52 54  0  0  0  0  0  0  0  0999 V2000
   43.5962   -3.6997   10.7007 N   0  0  0  0  0  0  0  0  0  0  0  0
   44.3688   -2.8487    9.9399 C   0  0  0  0  0  0  0  0  0  0  0  0
   43.9970   -2.3376    8.8922 O   0  0  0  0  0  0  0  0  0  0  0  0
   43.9864   -4.1072   11.5075 H   0  0  0  0  0  0  0  0  0  0  0  0
   45.7208   -2.5398   10.4749 C   0  0  0  0  0  0  0  0  0  0  0  0
   45.8403   -1.5856   11.4896 C   0  0  0  0  0  0  0  0  0  0  0  0
   47.0943   -1.3093   12.0440 C   0  0  0  0  0  0  0  0  0  0  0  0
   48.2356   -1.9628   11.5606 C   0  0  0  0  0  0  0  0  0  0  0  0
   48.1210   -2.8864   10.5184 C   0  0  0  0  0  0  0  0  0  0  0  0
   46.8650   -3.1741    9.9796 C   0  0  0  0  0  0  0  0  0  0  0  0
   47.1797   -0.3088   13.1397 C   0  0  0  0  0  0  0  0  0  0  0  0
   46.5436    0.7341   13.0716 O   0  0  0  0  0  0  0  0  0  0  0  0
   47.9729   -0.6565   14.2110 N   0  0  0  0  0  0  0  0  0  0  0  0
   48.5168   -1.4757   14.1623 H   0  0  0  0  0  0  0  0  0  0  0  0
   48.0234    0.1622   15.4132 C   0  0  0  0  0  0  0  0  0  0  0  0
   49.4256    0.7316   15.6460 C   0  0  0  0  0  0  0  0  0  0  0  0
   47.4995   -0.6636   16.5765 C   0  0  0  0  0  0  0  0  0  0  0  0
   46.5099   -0.1168   17.4119 C   0  0  0  0  0  0  0  0  0  0  0  0
   45.9645   -0.8619   18.4582 C   0  0  0  0  0  0  0  0  0  0  0  0
   46.3969   -2.1661   18.6856 C   0  0  0  0  0  0  0  0  0  0  0  0
   47.3692   -2.7281   17.8603 C   0  0  0  0  0  0  0  0  0  0  0  0
   47.9126   -1.9856   16.8087 C   0  0  0  0  0  0  0  0  0  0  0  0
   49.2691   -3.5966   10.0248 N   0  0  0  0  0  0  0  0  0  0  0  0
   49.0582   -4.7746    9.1630 C   0  0  0  0  0  0  0  0  0  0  0  0
   50.7096   -2.7124    9.7950 S   0  0  0  0  0  0  0  0  0  0  0  0
   50.9857   -2.0252   11.4155 C   0  0  0  0  0  0  0  0  0  0  0  0
   51.7950   -3.6286    9.5097 O   0  0  0  0  0  0  0  0  0  0  0  0
   50.4190   -1.6094    8.9035 O   0  0  0  0  0  0  0  0  0  0  0  0
   42.2060   -4.0162   10.3415 C   0  0  0  0  0  0  0  0  0  0  0  0
   42.1172   -5.1237    9.2569 C   0  0  0  0  0  0  0  0  0  0  0  0
   41.4413   -6.4064    9.6965 C   0  0  0  0  0  0  0  0  0  0  0  0
   41.7418   -6.9767   10.9412 C   0  0  0  0  0  0  0  0  0  0  0  0
   41.1028   -8.1435   11.3620 C   0  0  0  0  0  0  0  0  0  0  0  0
   40.1607   -8.7569   10.5393 C   0  0  0  0  0  0  0  0  0  0  0  0
   39.8638   -8.2091    9.2930 C   0  0  0  0  0  0  0  0  0  0  0  0
   40.5042   -7.0431    8.8700 C   0  0  0  0  0  0  0  0  0  0  0  0
   41.3872   -4.3417   11.6238 C   0  0  0  0  0  0  0  0  0  0  0  0
   40.1081   -3.6321   11.6865 N   0  0  0  0  0  0  0  0  0  0  0  0
   40.3054   -2.6319   11.7188 H   0  0  0  0  0  0  0  0  0  0  0  0
   39.2448   -3.9657   12.8494 C   0  0  0  0  0  0  0  0  0  0  0  0
   39.0413   -2.8526   13.9125 C   0  0  0  0  0  0  0  0  0  0  0  0
   40.1652   -1.8276   14.0313 C   0  0  0  0  0  0  0  0  0  0  0  0
   37.8213   -2.1482   13.6170 O   0  0  0  0  0  0  0  0  0  0  0  0
   37.9036   -1.7052   12.7580 H   0  0  0  0  0  0  0  0  0  0  0  0
   38.0753   -5.8012   11.7382 N   0  0  0  0  0  0  0  0  0  0  0  0
   37.9012   -4.6208   12.4396 C   0  0  0  0  0  0  0  0  0  0  0  0
   36.7900   -4.1721   12.7086 O   0  0  0  0  0  0  0  0  0  0  0  0
   38.9933   -6.1130   11.5671 H   0  0  0  0  0  0  0  0  0  0  0  0
   36.9737   -6.5995   11.2440 C   0  0  0  0  0  0  0  0  0  0  0  0
   36.4067   -7.7675    9.0494 C   0  0  0  0  0  0  0  0  0  0  0  0
   36.7162   -6.4370    9.7369 C   0  0  0  0  0  0  0  0  0  0  0  0
   35.6136   -5.4154    9.4503 C   0  0  0  0  0  0  0  0  0  0  0  0
 50 51  1  0
 51 52  1  0
 51 49  1  0
 49 45  1  0
 45 46  1  0
 46 47  2  0
 46 40  1  0
 40 38  1  0
 38 37  1  0
 29 37  1  0
 29 30  1  0
 30 31  1  0
 31 32  2  0
 32 33  1  0
 33 34  2  0
 34 35  1  0
 35 36  2  0
 29  1  1  0
  1  2  1  0
  2  3  2  0
  2  5  1  0
  5  6  2  0
  6  7  1  0
  7 11  1  0
 11 12  2  0
 11 13  1  0
 13 15  1  0
 15 16  1  0
 15 17  1  0
 17 18  2  0
 18 19  1  0
 19 20  2  0
 20 21  1  0
 21 22  2  0
  7  8  2  0
  8  9  1  0
  9 23  1  0
 23 24  1  0
 23 25  1  0
 25 26  1  0
 25 27  2  0
 25 28  2  0
  9 10  2  0
 40 41  1  0
 41 42  1  0
 41 43  1  0
 36 31  1  0
 10  5  1  0
 22 17  1  0
 45 48  1  0
 38 39  1  0
  1  4  1  0
 13 14  1  0
 43 44  1  0
M  END
> <minimizedAffinity>
-10.38669

> <CNNscore>
0.1603319049

> <CNNaffinity>
6.7334084511

> <CNN_VS>
1.0795801878

> <CNNaffinity_variance>
1.2903079987

$$$$
