


 42 46  0  0  0  0  0  0  0  0999 V2000
   13.2774    4.6914   12.5619 C   0  0  0  0  0  0  0  0  0  0  0  0
   14.0056    4.6827   11.3840 C   0  0  0  0  0  0  0  0  0  0  0  0
   13.5361    4.5776    9.9722 C   0  0  0  0  0  0  0  0  0  0  0  0
   15.3399    4.7906   11.7336 N   0  0  0  0  0  0  0  0  0  0  0  0
   15.4722    4.8269   13.1144 C   0  0  0  0  0  0  0  0  0  0  0  0
   16.6171    4.9017   13.9277 C   0  0  0  0  0  0  0  0  0  0  0  0
   16.4369    4.9408   15.3124 C   0  0  0  0  0  0  0  0  0  0  0  0
   15.1688    4.9614   15.8777 C   0  0  0  0  0  0  0  0  0  0  0  0
   14.0372    4.8836   15.0607 C   0  0  0  0  0  0  0  0  0  0  0  0
   14.1837    4.7980   13.6566 C   0  0  0  0  0  0  0  0  0  0  0  0
    9.0707    2.6688   15.1783 C   0  0  0  0  0  0  0  0  0  0  0  0
    8.7442    3.5202   14.1129 C   0  0  0  0  0  0  0  0  0  0  0  0
    9.8116    4.0695   13.4019 C   0  0  0  0  0  0  0  0  0  0  0  0
    9.7089    4.9082   12.3355 O   0  0  0  0  0  0  0  0  0  0  0  0
   10.9766    5.2391   11.8816 N   0  0  0  0  0  0  0  0  0  0  0  0
   11.8245    4.6047   12.7011 C   0  0  0  0  0  0  0  0  0  0  0  0
   11.1462    3.8354   13.6787 C   0  0  0  0  0  0  0  0  0  0  0  0
   11.4715    2.9747   14.7399 C   0  0  0  0  0  0  0  0  0  0  0  0
   10.4225    2.4043   15.4792 C   0  0  0  0  0  0  0  0  0  0  0  0
   10.8583    1.3542   16.7860 Cl  0  0  0  0  0  0  0  0  0  0  0  0
    8.1921    2.2948   17.3736 C   0  0  0  0  0  0  0  0  0  0  0  0
    8.1374    2.0507   15.9739 O   0  0  0  0  0  0  0  0  0  0  0  0
   16.4730    4.8108   10.8000 C   0  0  0  0  0  0  0  0  0  0  0  0
   16.8806    6.2104   10.3952 C   0  0  0  0  0  0  0  0  0  0  0  0
   16.0762    7.3098   10.7602 C   0  0  0  0  0  0  0  0  0  0  0  0
   16.3944    8.6204   10.3839 C   0  0  0  0  0  0  0  0  0  0  0  0
   17.5414    8.8503    9.6326 C   0  0  0  0  0  0  0  0  0  0  0  0
   18.3438    7.7752    9.2419 C   0  0  0  0  0  0  0  0  0  0  0  0
   18.0131    6.4665    9.6087 C   0  0  0  0  0  0  0  0  0  0  0  0
   19.0538    5.2071    9.0460 Cl  0  0  0  0  0  0  0  0  0  0  0  0
   15.5101    9.5608   10.8263 O   0  0  0  0  0  0  0  0  0  0  0  0
   15.1098   10.6157    9.9497 C   0  0  0  0  0  0  0  0  0  0  0  0
   14.4808   11.7397   10.7640 C   0  0  0  0  0  0  0  0  0  0  0  0
   14.0789   10.0535    8.9727 C   0  0  0  0  0  0  0  0  0  0  0  0
   13.0821    9.3973    9.2272 O   0  0  0  0  0  0  0  0  0  0  0  0
   14.3866   10.3172    7.6820 O   0  0  0  0  0  0  0  0  0  0  0  0
   15.1498   10.8201    7.4756 H   0  0  0  0  0  0  0  0  0  0  0  0
   17.5239    5.0556   16.1347 O   0  0  0  0  0  0  0  0  0  0  0  0
   17.8699    3.7934   16.6947 C   0  0  0  0  0  0  0  0  0  0  0  0
   17.8317    3.8281   18.0444 F   0  0  0  0  0  0  0  0  0  0  0  0
   17.0545    2.8148   16.2453 F   0  0  0  0  0  0  0  0  0  0  0  0
   19.1331    3.4889   16.3202 F   0  0  0  0  0  0  0  0  0  0  0  0
 21 22  1  0
 22 11  1  0
 11 12  2  0
 12 13  1  0
 13 14  1  0
 14 15  1  0
 15 16  2  0
 16  1  1  0
  1  2  2  0
  2  3  1  0
  2  4  1  0
  4 23  1  0
 23 24  1  0
 24 25  2  0
 25 26  1  0
 26 31  1  0
 31 32  1  0
 32 33  1  0
 32 34  1  0
 34 35  2  0
 34 36  1  0
 26 27  2  0
 27 28  1  0
 28 29  2  0
 29 30  1  0
  4  5  1  0
  5  6  2  0
  6  7  1  0
  7 38  1  0
 38 39  1  0
 39 40  1  0
 39 41  1  0
 39 42  1  0
  7  8  2  0
  8  9  1  0
  9 10  2  0
 16 17  1  0
 17 18  1  0
 18 19  2  0
 19 20  1  0
 19 11  1  0
 17 13  2  0
 10  1  1  0
 29 24  1  0
 10  5  1  0
 36 37  1  0
M  END
> <minimizedAffinity>
-11.56712

> <CNNscore>
0.9914112091

> <CNNaffinity>
8.3477334976

> <CNN_VS>
8.2760362625

> <CNNaffinity_variance>
0.7568469644

$$$$



 42 46  0  0  0  0  0  0  0  0999 V2000
   14.1856    4.8119   12.9317 C   0  0  0  0  0  0  0  0  0  0  0  0
   15.4819    4.9340   12.4599 C   0  0  0  0  0  0  0  0  0  0  0  0
   16.7787    4.7366   13.1697 C   0  0  0  0  0  0  0  0  0  0  0  0
   15.3940    5.2988   11.1282 N   0  0  0  0  0  0  0  0  0  0  0  0
   14.0648    5.4491   10.7591 C   0  0  0  0  0  0  0  0  0  0  0  0
   13.4869    5.8316    9.5354 C   0  0  0  0  0  0  0  0  0  0  0  0
   12.0931    5.8788    9.4542 C   0  0  0  0  0  0  0  0  0  0  0  0
   11.2920    5.5084   10.5261 C   0  0  0  0  0  0  0  0  0  0  0  0
   11.8762    5.1326   11.7393 C   0  0  0  0  0  0  0  0  0  0  0  0
   13.2844    5.1164   11.8705 C   0  0  0  0  0  0  0  0  0  0  0  0
   10.7471    2.1728   16.0694 C   0  0  0  0  0  0  0  0  0  0  0  0
   11.7558    2.8636   16.7563 C   0  0  0  0  0  0  0  0  0  0  0  0
   12.6744    3.5670   15.9764 C   0  0  0  0  0  0  0  0  0  0  0  0
   13.7170    4.3037   16.4466 O   0  0  0  0  0  0  0  0  0  0  0  0
   14.4049    4.8665   15.3823 N   0  0  0  0  0  0  0  0  0  0  0  0
   13.7707    4.4390   14.2832 C   0  0  0  0  0  0  0  0  0  0  0  0
   12.6561    3.6215   14.5947 C   0  0  0  0  0  0  0  0  0  0  0  0
   11.6395    2.9370   13.9085 C   0  0  0  0  0  0  0  0  0  0  0  0
   10.6976    2.2167   14.6609 C   0  0  0  0  0  0  0  0  0  0  0  0
    9.4621    1.3775   13.7836 Cl  0  0  0  0  0  0  0  0  0  0  0  0
   10.0724    0.8646   17.9573 C   0  0  0  0  0  0  0  0  0  0  0  0
    9.7695    1.4349   16.6905 O   0  0  0  0  0  0  0  0  0  0  0  0
   16.5281    5.5495   10.2301 C   0  0  0  0  0  0  0  0  0  0  0  0
   16.8078    7.0225   10.0280 C   0  0  0  0  0  0  0  0  0  0  0  0
   15.8586    7.9809   10.4393 C   0  0  0  0  0  0  0  0  0  0  0  0
   16.0573    9.3535   10.2469 C   0  0  0  0  0  0  0  0  0  0  0  0
   17.2284    9.7899    9.6377 C   0  0  0  0  0  0  0  0  0  0  0  0
   18.1751    8.8585    9.2036 C   0  0  0  0  0  0  0  0  0  0  0  0
   17.9645    7.4876    9.3856 C   0  0  0  0  0  0  0  0  0  0  0  0
   19.1818    6.4198    8.7826 Cl  0  0  0  0  0  0  0  0  0  0  0  0
   15.0404   10.1372   10.7091 O   0  0  0  0  0  0  0  0  0  0  0  0
   14.6917   11.3266    9.9983 C   0  0  0  0  0  0  0  0  0  0  0  0
   14.3751   12.4368   10.9929 C   0  0  0  0  0  0  0  0  0  0  0  0
   13.4539   11.0278    9.1545 C   0  0  0  0  0  0  0  0  0  0  0  0
   12.7950   11.8066    8.4848 O   0  0  0  0  0  0  0  0  0  0  0  0
   13.0707    9.7327    9.2323 O   0  0  0  0  0  0  0  0  0  0  0  0
   13.5696    9.1264    9.7438 H   0  0  0  0  0  0  0  0  0  0  0  0
   11.4936    6.2058    8.2690 O   0  0  0  0  0  0  0  0  0  0  0  0
   10.6692    5.1405    7.8085 C   0  0  0  0  0  0  0  0  0  0  0  0
   11.1213    3.9454    8.2465 F   0  0  0  0  0  0  0  0  0  0  0  0
    9.3862    5.3072    8.1965 F   0  0  0  0  0  0  0  0  0  0  0  0
   10.6982    5.1283    6.4567 F   0  0  0  0  0  0  0  0  0  0  0  0
 21 22  1  0
 22 11  1  0
 11 12  2  0
 12 13  1  0
 13 14  1  0
 14 15  1  0
 15 16  2  0
 16  1  1  0
  1  2  2  0
  2  3  1  0
  2  4  1  0
  4 23  1  0
 23 24  1  0
 24 25  2  0
 25 26  1  0
 26 31  1  0
 31 32  1  0
 32 33  1  0
 32 34  1  0
 34 35  2  0
 34 36  1  0
 26 27  2  0
 27 28  1  0
 28 29  2  0
 29 30  1  0
  4  5  1  0
  5  6  2  0
  6  7  1  0
  7 38  1  0
 38 39  1  0
 39 40  1  0
 39 41  1  0
 39 42  1  0
  7  8  2  0
  8  9  1  0
  9 10  2  0
 16 17  1  0
 17 18  1  0
 18 19  2  0
 19 20  1  0
 19 11  1  0
 17 13  2  0
 10  1  1  0
 29 24  1  0
 10  5  1  0
 36 37  1  0
M  END
> <minimizedAffinity>
-8.42381

> <CNNscore>
0.9659414291

> <CNNaffinity>
8.3058643341

> <CNN_VS>
8.0229787827

> <CNNaffinity_variance>
0.3360373974

$$$$



 42 46  0  0  0  0  0  0  0  0999 V2000
   13.8521    4.5460   12.8669 C   0  0  0  0  0  0  0  0  0  0  0  0
   14.1964    4.7085   11.5354 C   0  0  0  0  0  0  0  0  0  0  0  0
   13.3323    4.7136   10.3196 C   0  0  0  0  0  0  0  0  0  0  0  0
   15.5691    4.8753   11.4910 N   0  0  0  0  0  0  0  0  0  0  0  0
   16.1049    4.7810   12.7676 C   0  0  0  0  0  0  0  0  0  0  0  0
   17.4363    4.8544   13.2147 C   0  0  0  0  0  0  0  0  0  0  0  0
   17.6751    4.7402   14.5863 C   0  0  0  0  0  0  0  0  0  0  0  0
   16.6329    4.6130   15.4950 C   0  0  0  0  0  0  0  0  0  0  0  0
   15.3132    4.5379   15.0401 C   0  0  0  0  0  0  0  0  0  0  0  0
   15.0383    4.6055   13.6544 C   0  0  0  0  0  0  0  0  0  0  0  0
    8.5782    5.3085   12.3779 C   0  0  0  0  0  0  0  0  0  0  0  0
    8.9641    4.5993   13.5246 C   0  0  0  0  0  0  0  0  0  0  0  0
   10.3315    4.3787   13.6925 C   0  0  0  0  0  0  0  0  0  0  0  0
   10.9087    3.7229   14.7355 O   0  0  0  0  0  0  0  0  0  0  0  0
   12.2853    3.7080   14.5697 N   0  0  0  0  0  0  0  0  0  0  0  0
   12.5108    4.3423   13.4122 C   0  0  0  0  0  0  0  0  0  0  0  0
   11.3118    4.8032   12.8143 C   0  0  0  0  0  0  0  0  0  0  0  0
   10.9245    5.5218   11.6713 C   0  0  0  0  0  0  0  0  0  0  0  0
    9.5557    5.7616   11.4683 C   0  0  0  0  0  0  0  0  0  0  0  0
    9.1117    6.6434   10.0451 Cl  0  0  0  0  0  0  0  0  0  0  0  0
    6.7270    6.8118   12.5881 C   0  0  0  0  0  0  0  0  0  0  0  0
    7.2738    5.6063   12.0686 O   0  0  0  0  0  0  0  0  0  0  0  0
   16.3714    5.0706   10.2769 C   0  0  0  0  0  0  0  0  0  0  0  0
   16.7466    6.5173   10.0426 C   0  0  0  0  0  0  0  0  0  0  0  0
   15.8548    7.5440   10.4162 C   0  0  0  0  0  0  0  0  0  0  0  0
   16.1427    8.8958   10.1928 C   0  0  0  0  0  0  0  0  0  0  0  0
   17.3470    9.2417    9.5903 C   0  0  0  0  0  0  0  0  0  0  0  0
   18.2383    8.2416    9.1932 C   0  0  0  0  0  0  0  0  0  0  0  0
   17.9388    6.8919    9.4060 C   0  0  0  0  0  0  0  0  0  0  0  0
   19.0937    5.7343    8.8475 Cl  0  0  0  0  0  0  0  0  0  0  0  0
   15.1717    9.7538   10.6206 O   0  0  0  0  0  0  0  0  0  0  0  0
   14.9320   10.9611    9.8950 C   0  0  0  0  0  0  0  0  0  0  0  0
   14.5070   12.0582   10.8635 C   0  0  0  0  0  0  0  0  0  0  0  0
   13.8073   10.6973    8.8957 C   0  0  0  0  0  0  0  0  0  0  0  0
   12.6091   10.6240    9.1150 O   0  0  0  0  0  0  0  0  0  0  0  0
   14.2646   10.4906    7.6394 O   0  0  0  0  0  0  0  0  0  0  0  0
   15.1827   10.5446    7.4603 H   0  0  0  0  0  0  0  0  0  0  0  0
   18.9524    4.8484   15.0636 O   0  0  0  0  0  0  0  0  0  0  0  0
   18.9592    4.8830   16.4867 C   0  0  0  0  0  0  0  0  0  0  0  0
   20.1490    4.4786   16.9819 F   0  0  0  0  0  0  0  0  0  0  0  0
   18.6738    6.1190   16.9509 F   0  0  0  0  0  0  0  0  0  0  0  0
   18.0079    4.0364   16.9416 F   0  0  0  0  0  0  0  0  0  0  0  0
 21 22  1  0
 22 11  1  0
 11 12  2  0
 12 13  1  0
 13 14  1  0
 14 15  1  0
 15 16  2  0
 16  1  1  0
  1  2  2  0
  2  3  1  0
  2  4  1  0
  4 23  1  0
 23 24  1  0
 24 25  2  0
 25 26  1  0
 26 31  1  0
 31 32  1  0
 32 33  1  0
 32 34  1  0
 34 35  2  0
 34 36  1  0
 26 27  2  0
 27 28  1  0
 28 29  2  0
 29 30  1  0
  4  5  1  0
  5  6  2  0
  6  7  1  0
  7 38  1  0
 38 39  1  0
 39 40  1  0
 39 41  1  0
 39 42  1  0
  7  8  2  0
  8  9  1  0
  9 10  2  0
 16 17  1  0
 17 18  1  0
 18 19  2  0
 19 20  1  0
 19 11  1  0
 17 13  2  0
 10  1  1  0
 29 24  1  0
 10  5  1  0
 36 37  1  0
M  END
> <minimizedAffinity>
-11.28981

> <CNNscore>
0.9133447409

> <CNNaffinity>
7.7480449677

> <CNN_VS>
7.0766363144

> <CNNaffinity_variance>
0.5664722919

$$$$



 42 46  0  0  0  0  0  0  0  0999 V2000
   14.7048    4.9453   13.3852 C   0  0  0  0  0  0  0  0  0  0  0  0
   15.7158    5.1920   12.4714 C   0  0  0  0  0  0  0  0  0  0  0  0
   17.1853    5.3277   12.6871 C   0  0  0  0  0  0  0  0  0  0  0  0
   15.1176    5.3077   11.2293 N   0  0  0  0  0  0  0  0  0  0  0  0
   13.7409    5.1785   11.3463 C   0  0  0  0  0  0  0  0  0  0  0  0
   12.7239    5.2511   10.3776 C   0  0  0  0  0  0  0  0  0  0  0  0
   11.4048    5.0600   10.7956 C   0  0  0  0  0  0  0  0  0  0  0  0
   11.1001    4.7526   12.1149 C   0  0  0  0  0  0  0  0  0  0  0  0
   12.1180    4.6857   13.0708 C   0  0  0  0  0  0  0  0  0  0  0  0
   13.4605    4.9177   12.6910 C   0  0  0  0  0  0  0  0  0  0  0  0
   17.9219    3.9250   17.5376 C   0  0  0  0  0  0  0  0  0  0  0  0
   16.5700    4.0916   17.8708 C   0  0  0  0  0  0  0  0  0  0  0  0
   15.6948    4.3585   16.8173 C   0  0  0  0  0  0  0  0  0  0  0  0
   14.3514    4.5435   16.9273 O   0  0  0  0  0  0  0  0  0  0  0  0
   13.8106    4.7752   15.6717 N   0  0  0  0  0  0  0  0  0  0  0  0
   14.8486    4.7445   14.8264 C   0  0  0  0  0  0  0  0  0  0  0  0
   16.0697    4.4712   15.4910 C   0  0  0  0  0  0  0  0  0  0  0  0
   17.4226    4.2944   15.1577 C   0  0  0  0  0  0  0  0  0  0  0  0
   18.3331    4.0258   16.1927 C   0  0  0  0  0  0  0  0  0  0  0  0
   19.9948    3.8212   15.7485 Cl  0  0  0  0  0  0  0  0  0  0  0  0
   18.8948    4.3938   19.6741 C   0  0  0  0  0  0  0  0  0  0  0  0
   18.9065    3.6584   18.4572 O   0  0  0  0  0  0  0  0  0  0  0  0
   15.8112    5.5814    9.9645 C   0  0  0  0  0  0  0  0  0  0  0  0
   16.3743    6.9837    9.8905 C   0  0  0  0  0  0  0  0  0  0  0  0
   15.5837    8.0805   10.2917 C   0  0  0  0  0  0  0  0  0  0  0  0
   16.0482    9.3990   10.2138 C   0  0  0  0  0  0  0  0  0  0  0  0
   17.3305    9.6386    9.7327 C   0  0  0  0  0  0  0  0  0  0  0  0
   18.1256    8.5700    9.3106 C   0  0  0  0  0  0  0  0  0  0  0  0
   17.6508    7.2559    9.3774 C   0  0  0  0  0  0  0  0  0  0  0  0
   18.7012    6.0116    8.7994 Cl  0  0  0  0  0  0  0  0  0  0  0  0
   15.1546   10.3345   10.6477 O   0  0  0  0  0  0  0  0  0  0  0  0
   14.8675   11.4664    9.8243 C   0  0  0  0  0  0  0  0  0  0  0  0
   14.2324   12.5616   10.6724 C   0  0  0  0  0  0  0  0  0  0  0  0
   13.8863   11.0259    8.7397 C   0  0  0  0  0  0  0  0  0  0  0  0
   14.1287   10.7390    7.5786 O   0  0  0  0  0  0  0  0  0  0  0  0
   12.6047   11.0091    9.1724 O   0  0  0  0  0  0  0  0  0  0  0  0
   12.4076   11.2277   10.0620 H   0  0  0  0  0  0  0  0  0  0  0  0
   10.3923    5.0817    9.8762 O   0  0  0  0  0  0  0  0  0  0  0  0
    9.5542    6.2155   10.0735 C   0  0  0  0  0  0  0  0  0  0  0  0
    8.4252    6.1254    9.3376 F   0  0  0  0  0  0  0  0  0  0  0  0
    9.2325    6.3695   11.3763 F   0  0  0  0  0  0  0  0  0  0  0  0
   10.2252    7.3201    9.6759 F   0  0  0  0  0  0  0  0  0  0  0  0
 21 22  1  0
 22 11  1  0
 11 12  2  0
 12 13  1  0
 13 14  1  0
 14 15  1  0
 15 16  2  0
 16  1  1  0
  1  2  2  0
  2  3  1  0
  2  4  1  0
  4 23  1  0
 23 24  1  0
 24 25  2  0
 25 26  1  0
 26 31  1  0
 31 32  1  0
 32 33  1  0
 32 34  1  0
 34 35  2  0
 34 36  1  0
 26 27  2  0
 27 28  1  0
 28 29  2  0
 29 30  1  0
  4  5  1  0
  5  6  2  0
  6  7  1  0
  7 38  1  0
 38 39  1  0
 39 40  1  0
 39 41  1  0
 39 42  1  0
  7  8  2  0
  8  9  1  0
  9 10  2  0
 16 17  1  0
 17 18  1  0
 18 19  2  0
 19 20  1  0
 19 11  1  0
 17 13  2  0
 10  1  1  0
 29 24  1  0
 10  5  1  0
 36 37  1  0
M  END
> <minimizedAffinity>
-8.83362

> <CNNscore>
0.9096485972

> <CNNaffinity>
8.2268095016

> <CNN_VS>
7.4835057259

> <CNNaffinity_variance>
0.3537833691

$$$$



 42 46  0  0  0  0  0  0  0  0999 V2000
   13.5022    5.0454   11.4966 C   0  0  0  0  0  0  0  0  0  0  0  0
   14.6176    5.2805   10.7102 C   0  0  0  0  0  0  0  0  0  0  0  0
   14.7248    5.4522    9.2325 C   0  0  0  0  0  0  0  0  0  0  0  0
   15.7072    5.3338   11.5611 N   0  0  0  0  0  0  0  0  0  0  0  0
   15.3067    5.0964   12.8683 C   0  0  0  0  0  0  0  0  0  0  0  0
   16.0502    5.0225   14.0598 C   0  0  0  0  0  0  0  0  0  0  0  0
   15.3598    4.7832   15.2503 C   0  0  0  0  0  0  0  0  0  0  0  0
   13.9757    4.6747   15.2759 C   0  0  0  0  0  0  0  0  0  0  0  0
   13.2461    4.7465   14.0857 C   0  0  0  0  0  0  0  0  0  0  0  0
   13.9170    4.9437   12.8563 C   0  0  0  0  0  0  0  0  0  0  0  0
    8.2897    5.4635   12.6322 C   0  0  0  0  0  0  0  0  0  0  0  0
    8.5727    5.0349   11.3272 C   0  0  0  0  0  0  0  0  0  0  0  0
    9.9206    4.9109   10.9885 C   0  0  0  0  0  0  0  0  0  0  0  0
   10.4032    4.5043    9.7831 O   0  0  0  0  0  0  0  0  0  0  0  0
   11.7893    4.4928    9.8182 N   0  0  0  0  0  0  0  0  0  0  0  0
   12.1173    4.9142   11.0460 C   0  0  0  0  0  0  0  0  0  0  0  0
   10.9753    5.1829   11.8405 C   0  0  0  0  0  0  0  0  0  0  0  0
   10.6902    5.6027   13.1502 C   0  0  0  0  0  0  0  0  0  0  0  0
    9.3441    5.7403   13.5264 C   0  0  0  0  0  0  0  0  0  0  0  0
    9.0274    6.2674   15.1457 Cl  0  0  0  0  0  0  0  0  0  0  0  0
    6.3072    6.8022   12.7238 C   0  0  0  0  0  0  0  0  0  0  0  0
    7.0171    5.6353   13.1190 O   0  0  0  0  0  0  0  0  0  0  0  0
   17.1017    5.5536   11.1574 C   0  0  0  0  0  0  0  0  0  0  0  0
   17.2985    6.8415   10.3884 C   0  0  0  0  0  0  0  0  0  0  0  0
   16.4617    7.9476   10.6441 C   0  0  0  0  0  0  0  0  0  0  0  0
   16.5841    9.1505    9.9383 C   0  0  0  0  0  0  0  0  0  0  0  0
   17.5639    9.2649    8.9585 C   0  0  0  0  0  0  0  0  0  0  0  0
   18.3921    8.1764    8.6732 C   0  0  0  0  0  0  0  0  0  0  0  0
   18.2557    6.9722    9.3718 C   0  0  0  0  0  0  0  0  0  0  0  0
   19.3076    5.6785    8.9185 Cl  0  0  0  0  0  0  0  0  0  0  0  0
   15.6971   10.1156   10.3177 O   0  0  0  0  0  0  0  0  0  0  0  0
   15.1558   10.9982    9.3330 C   0  0  0  0  0  0  0  0  0  0  0  0
   15.4998   12.4370    9.6985 C   0  0  0  0  0  0  0  0  0  0  0  0
   13.6386   10.8220    9.3225 C   0  0  0  0  0  0  0  0  0  0  0  0
   12.7819   11.6740    9.4937 O   0  0  0  0  0  0  0  0  0  0  0  0
   13.2649    9.5356    9.1336 O   0  0  0  0  0  0  0  0  0  0  0  0
   13.9146    8.8736    9.0012 H   0  0  0  0  0  0  0  0  0  0  0  0
   16.0430    4.7461   16.4347 O   0  0  0  0  0  0  0  0  0  0  0  0
   17.1100    3.8056   16.3738 C   0  0  0  0  0  0  0  0  0  0  0  0
   16.7244    2.6648   15.7622 F   0  0  0  0  0  0  0  0  0  0  0  0
   18.1836    4.3194   15.7351 F   0  0  0  0  0  0  0  0  0  0  0  0
   17.4835    3.4973   17.6362 F   0  0  0  0  0  0  0  0  0  0  0  0
 21 22  1  0
 22 11  1  0
 11 12  2  0
 12 13  1  0
 13 14  1  0
 14 15  1  0
 15 16  2  0
 16  1  1  0
  1  2  2  0
  2  3  1  0
  2  4  1  0
  4 23  1  0
 23 24  1  0
 24 25  2  0
 25 26  1  0
 26 31  1  0
 31 32  1  0
 32 33  1  0
 32 34  1  0
 34 35  2  0
 34 36  1  0
 26 27  2  0
 27 28  1  0
 28 29  2  0
 29 30  1  0
  4  5  1  0
  5  6  2  0
  6  7  1  0
  7 38  1  0
 38 39  1  0
 39 40  1  0
 39 41  1  0
 39 42  1  0
  7  8  2  0
  8  9  1  0
  9 10  2  0
 16 17  1  0
 17 18  1  0
 18 19  2  0
 19 20  1  0
 19 11  1  0
 17 13  2  0
 10  1  1  0
 29 24  1  0
 10  5  1  0
 36 37  1  0
M  END
> <minimizedAffinity>
-9.78862

> <CNNscore>
0.8946134448

> <CNNaffinity>
7.9447302818

> <CNN_VS>
7.1074624062

> <CNNaffinity_variance>
0.2684665024

$$$$



 42 46  0  0  0  0  0  0  0  0999 V2000
   11.3513    5.0462   12.4046 C   0  0  0  0  0  0  0  0  0  0  0  0
   11.9587    5.1096   11.1616 C   0  0  0  0  0  0  0  0  0  0  0  0
   11.3483    5.1343    9.8010 C   0  0  0  0  0  0  0  0  0  0  0  0
   13.3242    5.1460   11.3812 N   0  0  0  0  0  0  0  0  0  0  0  0
   13.5935    5.0660   12.7401 C   0  0  0  0  0  0  0  0  0  0  0  0
   14.8152    5.0378   13.4362 C   0  0  0  0  0  0  0  0  0  0  0  0
   14.7743    4.9704   14.8309 C   0  0  0  0  0  0  0  0  0  0  0  0
   13.5701    4.9858   15.5219 C   0  0  0  0  0  0  0  0  0  0  0  0
   12.3611    5.0108   14.8206 C   0  0  0  0  0  0  0  0  0  0  0  0
   12.3648    5.0346   13.4064 C   0  0  0  0  0  0  0  0  0  0  0  0
    6.9654    2.0734   13.1533 C   0  0  0  0  0  0  0  0  0  0  0  0
    6.7571    3.4575   13.2398 C   0  0  0  0  0  0  0  0  0  0  0  0
    7.8747    4.2710   13.0498 C   0  0  0  0  0  0  0  0  0  0  0  0
    7.8832    5.6311   13.0851 O   0  0  0  0  0  0  0  0  0  0  0  0
    9.1677    6.0935   12.8421 N   0  0  0  0  0  0  0  0  0  0  0  0
    9.9169    4.9952   12.6834 C   0  0  0  0  0  0  0  0  0  0  0  0
    9.1516    3.8076   12.7907 C   0  0  0  0  0  0  0  0  0  0  0  0
    9.3568    2.4214   12.6947 C   0  0  0  0  0  0  0  0  0  0  0  0
    8.2547    1.5712   12.8818 C   0  0  0  0  0  0  0  0  0  0  0  0
    8.5437   -0.1326   12.7648 Cl  0  0  0  0  0  0  0  0  0  0  0  0
    6.3167   -0.2308   13.1750 C   0  0  0  0  0  0  0  0  0  0  0  0
    5.9703    1.1410   13.3159 O   0  0  0  0  0  0  0  0  0  0  0  0
   14.3595    5.2053   10.3418 C   0  0  0  0  0  0  0  0  0  0  0  0
   14.9034    6.6008   10.1281 C   0  0  0  0  0  0  0  0  0  0  0  0
   14.0209    7.6626    9.8406 C   0  0  0  0  0  0  0  0  0  0  0  0
   14.4774    8.9650    9.6051 C   0  0  0  0  0  0  0  0  0  0  0  0
   15.8420    9.2255    9.6619 C   0  0  0  0  0  0  0  0  0  0  0  0
   16.7378    8.1862    9.9253 C   0  0  0  0  0  0  0  0  0  0  0  0
   16.2768    6.8840   10.1456 C   0  0  0  0  0  0  0  0  0  0  0  0
   17.4698    5.6668   10.4299 Cl  0  0  0  0  0  0  0  0  0  0  0  0
   13.4874    9.8680    9.3472 O   0  0  0  0  0  0  0  0  0  0  0  0
   13.8302   11.2296    9.0827 C   0  0  0  0  0  0  0  0  0  0  0  0
   14.2356   11.9117   10.3836 C   0  0  0  0  0  0  0  0  0  0  0  0
   12.5989   11.9236    8.5035 C   0  0  0  0  0  0  0  0  0  0  0  0
   12.5560   12.7642    7.6199 O   0  0  0  0  0  0  0  0  0  0  0  0
   11.4523   11.5447    9.1134 O   0  0  0  0  0  0  0  0  0  0  0  0
   11.4741   10.9001    9.7931 H   0  0  0  0  0  0  0  0  0  0  0  0
   15.9409    4.9833   15.5449 O   0  0  0  0  0  0  0  0  0  0  0  0
   16.6272    3.7429   15.4147 C   0  0  0  0  0  0  0  0  0  0  0  0
   17.4719    3.7576   14.3607 F   0  0  0  0  0  0  0  0  0  0  0  0
   17.3128    3.4388   16.5381 F   0  0  0  0  0  0  0  0  0  0  0  0
   15.7150    2.7670   15.2054 F   0  0  0  0  0  0  0  0  0  0  0  0
 21 22  1  0
 22 11  1  0
 11 12  2  0
 12 13  1  0
 13 14  1  0
 14 15  1  0
 15 16  2  0
 16  1  1  0
  1  2  2  0
  2  3  1  0
  2  4  1  0
  4 23  1  0
 23 24  1  0
 24 25  2  0
 25 26  1  0
 26 31  1  0
 31 32  1  0
 32 33  1  0
 32 34  1  0
 34 35  2  0
 34 36  1  0
 26 27  2  0
 27 28  1  0
 28 29  2  0
 29 30  1  0
  4  5  1  0
  5  6  2  0
  6  7  1  0
  7 38  1  0
 38 39  1  0
 39 40  1  0
 39 41  1  0
 39 42  1  0
  7  8  2  0
  8  9  1  0
  9 10  2  0
 16 17  1  0
 17 18  1  0
 18 19  2  0
 19 20  1  0
 19 11  1  0
 17 13  2  0
 10  1  1  0
 29 24  1  0
 10  5  1  0
 36 37  1  0
M  END
> <minimizedAffinity>
-9.91108

> <CNNscore>
0.4746210873

> <CNNaffinity>
7.7014884949

> <CNN_VS>
3.6552889347

> <CNNaffinity_variance>
0.3486822546

$$$$



 42 46  0  0  0  0  0  0  0  0999 V2000
   16.9126   11.3159    7.8705 C   0  0  0  0  0  0  0  0  0  0  0  0
   17.2495   10.3533    8.8074 C   0  0  0  0  0  0  0  0  0  0  0  0
   18.5484    9.6566    9.0356 C   0  0  0  0  0  0  0  0  0  0  0  0
   16.1148   10.1082    9.5601 N   0  0  0  0  0  0  0  0  0  0  0  0
   15.0542   10.8696    9.0901 C   0  0  0  0  0  0  0  0  0  0  0  0
   13.7137   10.9390    9.5100 C   0  0  0  0  0  0  0  0  0  0  0  0
   12.8634   11.8268    8.8466 C   0  0  0  0  0  0  0  0  0  0  0  0
   13.3298   12.6602    7.8387 C   0  0  0  0  0  0  0  0  0  0  0  0
   14.6633   12.5813    7.4265 C   0  0  0  0  0  0  0  0  0  0  0  0
   15.5413   11.6619    8.0462 C   0  0  0  0  0  0  0  0  0  0  0  0
   17.3936   13.6205    3.0651 C   0  0  0  0  0  0  0  0  0  0  0  0
   18.6019   13.4460    3.7551 C   0  0  0  0  0  0  0  0  0  0  0  0
   18.5229   12.8473    5.0129 C   0  0  0  0  0  0  0  0  0  0  0  0
   19.5742   12.5827    5.8349 O   0  0  0  0  0  0  0  0  0  0  0  0
   19.1158   11.9741    6.9934 N   0  0  0  0  0  0  0  0  0  0  0  0
   17.7860   11.9012    6.8544 C   0  0  0  0  0  0  0  0  0  0  0  0
   17.3500   12.4268    5.6130 C   0  0  0  0  0  0  0  0  0  0  0  0
   16.1417   12.5934    4.9166 C   0  0  0  0  0  0  0  0  0  0  0  0
   16.1824   13.1940    3.6477 C   0  0  0  0  0  0  0  0  0  0  0  0
   14.6740   13.3918    2.8196 Cl  0  0  0  0  0  0  0  0  0  0  0  0
   18.4781   14.2360    1.0216 C   0  0  0  0  0  0  0  0  0  0  0  0
   17.3023   14.1926    1.8200 O   0  0  0  0  0  0  0  0  0  0  0  0
   16.0087    9.1473   10.6652 C   0  0  0  0  0  0  0  0  0  0  0  0
   15.3465    7.8494   10.2585 C   0  0  0  0  0  0  0  0  0  0  0  0
   13.9634    7.8220    9.9840 C   0  0  0  0  0  0  0  0  0  0  0  0
   13.2989    6.6405    9.6335 C   0  0  0  0  0  0  0  0  0  0  0  0
   14.0223    5.4564    9.5457 C   0  0  0  0  0  0  0  0  0  0  0  0
   15.3898    5.4543    9.8323 C   0  0  0  0  0  0  0  0  0  0  0  0
   16.0456    6.6352   10.1959 C   0  0  0  0  0  0  0  0  0  0  0  0
   17.7302    6.5167   10.5615 Cl  0  0  0  0  0  0  0  0  0  0  0  0
   11.9639    6.7971    9.3980 O   0  0  0  0  0  0  0  0  0  0  0  0
   11.0971    5.6650    9.4905 C   0  0  0  0  0  0  0  0  0  0  0  0
   10.6924    5.2213    8.0900 C   0  0  0  0  0  0  0  0  0  0  0  0
    9.8541    6.0836   10.2734 C   0  0  0  0  0  0  0  0  0  0  0  0
    8.7256    6.2705    9.8481 O   0  0  0  0  0  0  0  0  0  0  0  0
   10.1108    6.2936   11.5849 O   0  0  0  0  0  0  0  0  0  0  0  0
   10.9738    6.1531   11.9218 H   0  0  0  0  0  0  0  0  0  0  0  0
   11.5636   11.9530    9.2536 O   0  0  0  0  0  0  0  0  0  0  0  0
   11.3869   13.1388   10.0212 C   0  0  0  0  0  0  0  0  0  0  0  0
   10.2281   13.1066   10.7144 F   0  0  0  0  0  0  0  0  0  0  0  0
   12.4171   13.3323   10.8731 F   0  0  0  0  0  0  0  0  0  0  0  0
   11.3395   14.1940    9.1770 F   0  0  0  0  0  0  0  0  0  0  0  0
 21 22  1  0
 22 11  1  0
 11 12  2  0
 12 13  1  0
 13 14  1  0
 14 15  1  0
 15 16  2  0
 16  1  1  0
  1  2  2  0
  2  3  1  0
  2  4  1  0
  4 23  1  0
 23 24  1  0
 24 25  2  0
 25 26  1  0
 26 31  1  0
 31 32  1  0
 32 33  1  0
 32 34  1  0
 34 35  2  0
 34 36  1  0
 26 27  2  0
 27 28  1  0
 28 29  2  0
 29 30  1  0
  4  5  1  0
  5  6  2  0
  6  7  1  0
  7 38  1  0
 38 39  1  0
 39 40  1  0
 39 41  1  0
 39 42  1  0
  7  8  2  0
  8  9  1  0
  9 10  2  0
 16 17  1  0
 17 18  1  0
 18 19  2  0
 19 20  1  0
 19 11  1  0
 17 13  2  0
 10  1  1  0
 29 24  1  0
 10  5  1  0
 36 37  1  0
M  END
> <minimizedAffinity>
-8.22889

> <CNNscore>
0.4736660719

> <CNNaffinity>
7.5192513466

> <CNN_VS>
3.5616142750

> <CNNaffinity_variance>
0.1924027652

$$$$



 42 46  0  0  0  0  0  0  0  0999 V2000
   14.0181    7.9129    9.8267 C   0  0  0  0  0  0  0  0  0  0  0  0
   15.0213    7.1190   10.3570 C   0  0  0  0  0  0  0  0  0  0  0  0
   16.4648    7.4239   10.5759 C   0  0  0  0  0  0  0  0  0  0  0  0
   14.4461    5.9021   10.6771 N   0  0  0  0  0  0  0  0  0  0  0  0
   13.1048    5.8976   10.3216 C   0  0  0  0  0  0  0  0  0  0  0  0
   12.1290    4.8899   10.4232 C   0  0  0  0  0  0  0  0  0  0  0  0
   10.8335    5.1852    9.9924 C   0  0  0  0  0  0  0  0  0  0  0  0
   10.4950    6.4491    9.5275 C   0  0  0  0  0  0  0  0  0  0  0  0
   11.4730    7.4430    9.4275 C   0  0  0  0  0  0  0  0  0  0  0  0
   12.8050    7.1651    9.8132 C   0  0  0  0  0  0  0  0  0  0  0  0
   17.1522   11.7788    7.8605 C   0  0  0  0  0  0  0  0  0  0  0  0
   15.8117   12.1477    8.0441 C   0  0  0  0  0  0  0  0  0  0  0  0
   14.9587   11.1695    8.5563 C   0  0  0  0  0  0  0  0  0  0  0  0
   13.6322   11.3274    8.8142 O   0  0  0  0  0  0  0  0  0  0  0  0
   13.1151   10.1468    9.3257 N   0  0  0  0  0  0  0  0  0  0  0  0
   14.1429    9.2888    9.3478 C   0  0  0  0  0  0  0  0  0  0  0  0
   15.3431    9.8822    8.8843 C   0  0  0  0  0  0  0  0  0  0  0  0
   16.6880    9.5173    8.7090 C   0  0  0  0  0  0  0  0  0  0  0  0
   17.5757   10.4759    8.1938 C   0  0  0  0  0  0  0  0  0  0  0  0
   19.2251    9.9910    7.9825 Cl  0  0  0  0  0  0  0  0  0  0  0  0
   17.7256   13.5654    6.3738 C   0  0  0  0  0  0  0  0  0  0  0  0
   18.1148   12.6245    7.3663 O   0  0  0  0  0  0  0  0  0  0  0  0
   15.1446    4.7490   11.2588 C   0  0  0  0  0  0  0  0  0  0  0  0
   15.2262    4.8070   12.7683 C   0  0  0  0  0  0  0  0  0  0  0  0
   16.4351    5.1774   13.3929 C   0  0  0  0  0  0  0  0  0  0  0  0
   16.5699    5.2167   14.7860 C   0  0  0  0  0  0  0  0  0  0  0  0
   15.4785    4.8875   15.5821 C   0  0  0  0  0  0  0  0  0  0  0  0
   14.2760    4.4983   14.9868 C   0  0  0  0  0  0  0  0  0  0  0  0
   14.1516    4.4470   13.5944 C   0  0  0  0  0  0  0  0  0  0  0  0
   12.6323    3.9211   12.9611 Cl  0  0  0  0  0  0  0  0  0  0  0  0
   17.8057    5.6005   15.2189 O   0  0  0  0  0  0  0  0  0  0  0  0
   18.6677    4.6363   15.8264 C   0  0  0  0  0  0  0  0  0  0  0  0
   17.8940    3.3457   16.0670 C   0  0  0  0  0  0  0  0  0  0  0  0
   19.1448    5.2032   17.1621 C   0  0  0  0  0  0  0  0  0  0  0  0
   19.2398    6.3746   17.4905 O   0  0  0  0  0  0  0  0  0  0  0  0
   19.5304    4.2390   18.0292 O   0  0  0  0  0  0  0  0  0  0  0  0
   19.4617    3.3364   17.7870 H   0  0  0  0  0  0  0  0  0  0  0  0
    9.8475    4.2449   10.1139 O   0  0  0  0  0  0  0  0  0  0  0  0
    9.0742    4.4720   11.2874 C   0  0  0  0  0  0  0  0  0  0  0  0
    9.7535    5.2166   12.1865 F   0  0  0  0  0  0  0  0  0  0  0  0
    7.9016    5.0756   10.9955 F   0  0  0  0  0  0  0  0  0  0  0  0
    8.7980    3.2774   11.8577 F   0  0  0  0  0  0  0  0  0  0  0  0
 21 22  1  0
 22 11  1  0
 11 12  2  0
 12 13  1  0
 13 14  1  0
 14 15  1  0
 15 16  2  0
 16  1  1  0
  1  2  2  0
  2  3  1  0
  2  4  1  0
  4 23  1  0
 23 24  1  0
 24 25  2  0
 25 26  1  0
 26 31  1  0
 31 32  1  0
 32 33  1  0
 32 34  1  0
 34 35  2  0
 34 36  1  0
 26 27  2  0
 27 28  1  0
 28 29  2  0
 29 30  1  0
  4  5  1  0
  5  6  2  0
  6  7  1  0
  7 38  1  0
 38 39  1  0
 39 40  1  0
 39 41  1  0
 39 42  1  0
  7  8  2  0
  8  9  1  0
  9 10  2  0
 16 17  1  0
 17 18  1  0
 18 19  2  0
 19 20  1  0
 19 11  1  0
 17 13  2  0
 10  1  1  0
 29 24  1  0
 10  5  1  0
 36 37  1  0
M  END
> <minimizedAffinity>
-10.15663

> <CNNscore>
0.4418469071

> <CNNaffinity>
7.6801147461

> <CNN_VS>
3.3934350014

> <CNNaffinity_variance>
0.1484534144

$$$$



 42 46  0  0  0  0  0  0  0  0999 V2000
   12.0977    4.5396   12.7695 C   0  0  0  0  0  0  0  0  0  0  0  0
   13.4343    4.1857   12.8479 C   0  0  0  0  0  0  0  0  0  0  0  0
   14.5762    4.5676   11.9677 C   0  0  0  0  0  0  0  0  0  0  0  0
   13.5684    3.3564   13.9472 N   0  0  0  0  0  0  0  0  0  0  0  0
   12.3327    3.1466   14.5429 C   0  0  0  0  0  0  0  0  0  0  0  0
   11.9673    2.3657   15.6540 C   0  0  0  0  0  0  0  0  0  0  0  0
   10.6248    2.3618   16.0402 C   0  0  0  0  0  0  0  0  0  0  0  0
    9.6811    3.1443   15.3882 C   0  0  0  0  0  0  0  0  0  0  0  0
   10.0539    3.9147   14.2829 C   0  0  0  0  0  0  0  0  0  0  0  0
   11.3961    3.9078   13.8371 C   0  0  0  0  0  0  0  0  0  0  0  0
    7.6137    6.2900   10.4322 C   0  0  0  0  0  0  0  0  0  0  0  0
    8.7946    6.8602    9.9354 C   0  0  0  0  0  0  0  0  0  0  0  0
    9.9885    6.4312   10.5162 C   0  0  0  0  0  0  0  0  0  0  0  0
   11.2358    6.8532   10.1739 O   0  0  0  0  0  0  0  0  0  0  0  0
   12.1772    6.2017   10.9563 N   0  0  0  0  0  0  0  0  0  0  0  0
   11.4727    5.4090   11.7738 C   0  0  0  0  0  0  0  0  0  0  0  0
   10.0791    5.4999   11.5346 C   0  0  0  0  0  0  0  0  0  0  0  0
    8.8961    4.9225   12.0244 C   0  0  0  0  0  0  0  0  0  0  0  0
    7.6749    5.3315   11.4644 C   0  0  0  0  0  0  0  0  0  0  0  0
    6.2347    4.6059   12.0967 Cl  0  0  0  0  0  0  0  0  0  0  0  0
    5.5355    7.4239   10.7876 C   0  0  0  0  0  0  0  0  0  0  0  0
    6.3605    6.6059    9.9678 O   0  0  0  0  0  0  0  0  0  0  0  0
   14.8162    2.7328   14.4050 C   0  0  0  0  0  0  0  0  0  0  0  0
   15.9929    3.6835   14.3888 C   0  0  0  0  0  0  0  0  0  0  0  0
   16.4658    4.2371   15.5967 C   0  0  0  0  0  0  0  0  0  0  0  0
   17.5315    5.1445   15.6309 C   0  0  0  0  0  0  0  0  0  0  0  0
   18.1500    5.5089   14.4402 C   0  0  0  0  0  0  0  0  0  0  0  0
   17.6868    4.9893   13.2288 C   0  0  0  0  0  0  0  0  0  0  0  0
   16.6123    4.0941   13.1994 C   0  0  0  0  0  0  0  0  0  0  0  0
   16.0972    3.5370   11.6470 Cl  0  0  0  0  0  0  0  0  0  0  0  0
   17.8605    5.5756   16.8832 O   0  0  0  0  0  0  0  0  0  0  0  0
   19.0361    5.0657   17.5151 C   0  0  0  0  0  0  0  0  0  0  0  0
   19.4615    3.7743   16.8270 C   0  0  0  0  0  0  0  0  0  0  0  0
   18.7010    4.7794   18.9776 C   0  0  0  0  0  0  0  0  0  0  0  0
   18.2321    3.7591   19.4553 O   0  0  0  0  0  0  0  0  0  0  0  0
   18.9401    5.8391   19.7838 O   0  0  0  0  0  0  0  0  0  0  0  0
   19.2999    6.6274   19.4272 H   0  0  0  0  0  0  0  0  0  0  0  0
   10.2380    1.6478   17.1409 O   0  0  0  0  0  0  0  0  0  0  0  0
    8.8243    1.4821   17.1649 C   0  0  0  0  0  0  0  0  0  0  0  0
    8.2070    2.5962   17.6145 F   0  0  0  0  0  0  0  0  0  0  0  0
    8.3448    1.1625   15.9432 F   0  0  0  0  0  0  0  0  0  0  0  0
    8.5247    0.4690   18.0090 F   0  0  0  0  0  0  0  0  0  0  0  0
 21 22  1  0
 22 11  1  0
 11 12  2  0
 12 13  1  0
 13 14  1  0
 14 15  1  0
 15 16  2  0
 16  1  1  0
  1  2  2  0
  2  3  1  0
  2  4  1  0
  4 23  1  0
 23 24  1  0
 24 25  2  0
 25 26  1  0
 26 31  1  0
 31 32  1  0
 32 33  1  0
 32 34  1  0
 34 35  2  0
 34 36  1  0
 26 27  2  0
 27 28  1  0
 28 29  2  0
 29 30  1  0
  4  5  1  0
  5  6  2  0
  6  7  1  0
  7 38  1  0
 38 39  1  0
 39 40  1  0
 39 41  1  0
 39 42  1  0
  7  8  2  0
  8  9  1  0
  9 10  2  0
 16 17  1  0
 17 18  1  0
 18 19  2  0
 19 20  1  0
 19 11  1  0
 17 13  2  0
 10  1  1  0
 29 24  1  0
 10  5  1  0
 36 37  1  0
M  END
> <minimizedAffinity>
-7.70291

> <CNNscore>
0.3592306972

> <CNNaffinity>
7.9102177620

> <CNN_VS>
2.8415930271

> <CNNaffinity_variance>
0.1260742098

$$$$
