


 31 32  0  0  0  0  0  0  0  0999 V2000
  -17.3685    9.4851   30.2004 C   0  0  0  0  0  0  0  0  0  0  0  0
  -16.5501   10.7673   30.0150 C   0  0  0  0  0  0  0  0  0  0  0  0
  -15.0974   10.3315   30.0613 C   0  0  0  0  0  0  0  0  0  0  0  0
  -14.5070   10.6000   31.3313 O   0  0  0  0  0  0  0  0  0  0  0  0
  -14.5600    9.5624   32.3134 C   0  0  0  0  0  0  0  0  0  0  0  0
  -14.0893    8.1843   31.8252 C   0  0  0  0  0  0  0  0  0  0  0  0
  -14.9705    7.1579   32.3116 O   0  0  0  0  0  0  0  0  0  0  0  0
  -14.0014    8.1018   30.2980 C   0  0  0  0  0  0  0  0  0  0  0  0
  -14.0221    6.7424   29.8569 O   0  0  0  0  0  0  0  0  0  0  0  0
  -15.1450    8.8744   29.6542 C   0  0  0  0  0  0  0  0  0  0  0  0
  -16.4305    8.3900   30.0934 O   0  0  0  0  0  0  0  0  0  0  0  0
  -15.8608    7.2999   31.9538 H   0  0  0  0  0  0  0  0  0  0  0  0
  -14.8589    6.3294   30.1215 H   0  0  0  0  0  0  0  0  0  0  0  0
  -18.0021    9.3919   31.5931 C   0  0  0  0  0  0  0  0  0  0  0  0
  -18.5328    8.4161   32.0924 O   0  0  0  0  0  0  0  0  0  0  0  0
  -17.9458   10.5448   32.2997 O   0  0  0  0  0  0  0  0  0  0  0  0
  -17.5403   11.3031   31.9274 H   0  0  0  0  0  0  0  0  0  0  0  0
  -18.4261    9.2353   29.0989 C   0  0  0  0  0  0  0  0  0  0  0  0
  -19.8782    8.8733   29.4988 C   0  0  0  0  0  0  0  0  0  0  0  0
  -20.2200    9.6639   30.6976 N   0  0  0  0  0  0  0  0  0  0  0  0
  -19.5922    9.4124   31.4612 H   0  0  0  0  0  0  0  0  0  0  0  0
  -21.1831    9.4681   30.9708 H   0  0  0  0  0  0  0  0  0  0  0  0
  -20.1096    7.3512   29.7637 C   0  0  0  0  0  0  0  0  0  0  0  0
  -19.2769    6.3479   28.8907 N   0  0  0  0  0  0  0  0  0  0  0  0
  -20.1537    5.0774   28.6954 C   0  0  0  0  0  0  0  0  0  0  0  0
  -18.0093    5.8704   29.5766 C   0  0  0  0  0  0  0  0  0  0  0  0
  -19.0474    6.8897   27.4875 C   0  0  0  0  0  0  0  0  0  0  0  0
  -17.7949    6.3783   25.2969 C   0  0  0  0  0  0  0  0  0  0  0  0
  -17.7192    6.7312   26.7681 N   0  0  0  0  0  0  0  0  0  0  0  0
  -16.7741    7.9233   26.9519 C   0  0  0  0  0  0  0  0  0  0  0  0
  -17.0068    5.5331   27.4656 C   0  0  0  0  0  0  0  0  0  0  0  0
 28 29  1  0
 29 30  1  0
 29 31  1  0
 29 27  1  0
 27 24  1  0
 24 25  1  0
 24 26  1  0
 24 23  1  0
 23 19  1  0
 19 20  1  0
 19 18  1  0
  1 18  1  0
  1 14  1  0
 14 15  2  0
 14 16  1  0
  1  2  1  0
  3  2  1  0
  3  4  1  0
  4  5  1  0
  5  6  1  0
  6  7  1  0
  6  8  1  0
  8  9  1  0
  8 10  1  0
 10 11  1  0
 11  1  1  0
 10  3  1  0
 20 21  1  0
 20 22  1  0
 16 17  1  0
  7 12  1  0
  9 13  1  0
M  CHG 1  24   1
M  CHG 1  29   1
M  END
> <minimizedAffinity>
-0.63760

> <CNNscore>
0.3751694262

> <CNNaffinity>
4.0861930847

> <CNN_VS>
1.5330147743

> <CNNaffinity_variance>
0.7898955345

$$$$



 31 32  0  0  0  0  0  0  0  0999 V2000
   -5.1552   11.0632   29.7534 C   0  0  0  0  0  0  0  0  0  0  0  0
   -4.6398    9.9967   30.7255 C   0  0  0  0  0  0  0  0  0  0  0  0
   -3.9557   10.7627   31.8425 C   0  0  0  0  0  0  0  0  0  0  0  0
   -2.5375   10.7571   31.6934 O   0  0  0  0  0  0  0  0  0  0  0  0
   -1.9485   11.8388   30.9675 C   0  0  0  0  0  0  0  0  0  0  0  0
   -2.3984   13.2383   31.4130 C   0  0  0  0  0  0  0  0  0  0  0  0
   -2.6412   14.0700   30.2660 O   0  0  0  0  0  0  0  0  0  0  0  0
   -3.6528   13.1990   32.2915 C   0  0  0  0  0  0  0  0  0  0  0  0
   -4.3072   14.4696   32.3061 O   0  0  0  0  0  0  0  0  0  0  0  0
   -4.6148   12.1247   31.8019 C   0  0  0  0  0  0  0  0  0  0  0  0
   -4.9922   12.3330   30.4256 O   0  0  0  0  0  0  0  0  0  0  0  0
   -3.3622   13.6915   29.7389 H   0  0  0  0  0  0  0  0  0  0  0  0
   -4.5905   14.6978   31.4069 H   0  0  0  0  0  0  0  0  0  0  0  0
   -4.3244   11.1326   28.4670 C   0  0  0  0  0  0  0  0  0  0  0  0
   -4.7354   11.0441   27.3241 O   0  0  0  0  0  0  0  0  0  0  0  0
   -2.9987   11.3044   28.6788 O   0  0  0  0  0  0  0  0  0  0  0  0
   -2.6691   11.3740   29.5532 H   0  0  0  0  0  0  0  0  0  0  0  0
   -6.6639   10.9568   29.4267 C   0  0  0  0  0  0  0  0  0  0  0  0
   -7.1244   10.8780   27.9498 C   0  0  0  0  0  0  0  0  0  0  0  0
   -7.9897   12.0455   27.6904 N   0  0  0  0  0  0  0  0  0  0  0  0
   -8.8087   12.0031   28.2969 H   0  0  0  0  0  0  0  0  0  0  0  0
   -8.2881   12.0374   26.7150 H   0  0  0  0  0  0  0  0  0  0  0  0
   -7.8670    9.5543   27.5797 C   0  0  0  0  0  0  0  0  0  0  0  0
   -8.5413    8.7694   28.7591 N   0  0  0  0  0  0  0  0  0  0  0  0
  -10.0712    8.7471   28.4759 C   0  0  0  0  0  0  0  0  0  0  0  0
   -8.3825    9.4592   30.1024 C   0  0  0  0  0  0  0  0  0  0  0  0
   -8.1192    7.3076   28.7674 C   0  0  0  0  0  0  0  0  0  0  0  0
   -7.7961    6.8668   31.2834 C   0  0  0  0  0  0  0  0  0  0  0  0
   -8.3693    6.4018   29.9606 N   0  0  0  0  0  0  0  0  0  0  0  0
   -9.8437    6.0313   30.1532 C   0  0  0  0  0  0  0  0  0  0  0  0
   -7.6510    5.0600   29.6241 C   0  0  0  0  0  0  0  0  0  0  0  0
 28 29  1  0
 29 30  1  0
 29 31  1  0
 29 27  1  0
 27 24  1  0
 24 25  1  0
 24 26  1  0
 24 23  1  0
 23 19  1  0
 19 20  1  0
 19 18  1  0
  1 18  1  0
  1 14  1  0
 14 15  2  0
 14 16  1  0
  1  2  1  0
  3  2  1  0
  3  4  1  0
  4  5  1  0
  5  6  1  0
  6  7  1  0
  6  8  1  0
  8  9  1  0
  8 10  1  0
 10 11  1  0
 11  1  1  0
 10  3  1  0
 20 21  1  0
 20 22  1  0
 16 17  1  0
  7 12  1  0
  9 13  1  0
M  CHG 1  24   1
M  CHG 1  29   1
M  END
> <minimizedAffinity>
0.91642

> <CNNscore>
0.3571441770

> <CNNaffinity>
4.3923397064

> <CNN_VS>
1.5686985254

> <CNNaffinity_variance>
0.1066283882

$$$$



 31 32  0  0  0  0  0  0  0  0999 V2000
  -15.4327    8.1073   29.1361 C   0  0  0  0  0  0  0  0  0  0  0  0
  -15.3700    7.5034   30.5430 C   0  0  0  0  0  0  0  0  0  0  0  0
  -16.4923    6.4837   30.5970 C   0  0  0  0  0  0  0  0  0  0  0  0
  -17.6327    6.9913   31.2866 O   0  0  0  0  0  0  0  0  0  0  0  0
  -18.6371    7.6429   30.5053 C   0  0  0  0  0  0  0  0  0  0  0  0
  -19.1078    6.8582   29.2716 C   0  0  0  0  0  0  0  0  0  0  0  0
  -19.2411    7.7398   28.1439 O   0  0  0  0  0  0  0  0  0  0  0  0
  -18.1624    5.7075   28.9127 C   0  0  0  0  0  0  0  0  0  0  0  0
  -18.3424    5.3022   27.5539 O   0  0  0  0  0  0  0  0  0  0  0  0
  -16.7134    6.1136   29.1462 C   0  0  0  0  0  0  0  0  0  0  0  0
  -16.3591    7.2878   28.3872 O   0  0  0  0  0  0  0  0  0  0  0  0
  -18.3760    8.1214   27.9278 H   0  0  0  0  0  0  0  0  0  0  0  0
  -18.1327    6.0437   26.9648 H   0  0  0  0  0  0  0  0  0  0  0  0
  -16.0001    9.5314   29.1356 C   0  0  0  0  0  0  0  0  0  0  0  0
  -17.0102    9.9171   28.5752 O   0  0  0  0  0  0  0  0  0  0  0  0
  -15.2593   10.4173   29.8414 O   0  0  0  0  0  0  0  0  0  0  0  0
  -14.4798   10.1338   30.2774 H   0  0  0  0  0  0  0  0  0  0  0  0
  -14.0992    8.0481   28.3535 C   0  0  0  0  0  0  0  0  0  0  0  0
  -13.8422    9.0503   27.2007 C   0  0  0  0  0  0  0  0  0  0  0  0
  -13.8795    8.2918   25.9348 N   0  0  0  0  0  0  0  0  0  0  0  0
  -13.1391    7.5902   25.9369 H   0  0  0  0  0  0  0  0  0  0  0  0
  -13.7405    8.9304   25.1517 H   0  0  0  0  0  0  0  0  0  0  0  0
  -12.5001    9.8401   27.3252 C   0  0  0  0  0  0  0  0  0  0  0  0
  -11.1913    9.0773   26.9162 N   0  0  0  0  0  0  0  0  0  0  0  0
   -9.9994   10.0410   27.1847 C   0  0  0  0  0  0  0  0  0  0  0  0
  -11.1295    8.7508   25.4347 C   0  0  0  0  0  0  0  0  0  0  0  0
  -10.9415    7.8781   27.8188 C   0  0  0  0  0  0  0  0  0  0  0  0
   -8.6481    8.8349   28.4928 C   0  0  0  0  0  0  0  0  0  0  0  0
   -9.6265    7.6800   28.5526 N   0  0  0  0  0  0  0  0  0  0  0  0
   -9.7960    7.2389   30.0103 C   0  0  0  0  0  0  0  0  0  0  0  0
   -8.9278    6.4819   27.8414 C   0  0  0  0  0  0  0  0  0  0  0  0
 28 29  1  0
 29 30  1  0
 29 31  1  0
 29 27  1  0
 27 24  1  0
 24 25  1  0
 24 26  1  0
 24 23  1  0
 23 19  1  0
 19 20  1  0
 19 18  1  0
  1 18  1  0
  1 14  1  0
 14 15  2  0
 14 16  1  0
  1  2  1  0
  3  2  1  0
  3  4  1  0
  4  5  1  0
  5  6  1  0
  6  7  1  0
  6  8  1  0
  8  9  1  0
  8 10  1  0
 10 11  1  0
 11  1  1  0
 10  3  1  0
 20 21  1  0
 20 22  1  0
 16 17  1  0
  7 12  1  0
  9 13  1  0
M  CHG 1  24   1
M  CHG 1  29   1
M  END
> <minimizedAffinity>
-0.40860

> <CNNscore>
0.3369826376

> <CNNaffinity>
4.6107439995

> <CNN_VS>
1.5537406206

> <CNNaffinity_variance>
0.7142270207

$$$$



 31 32  0  0  0  0  0  0  0  0999 V2000
  -16.9699    7.8938   30.3431 C   0  0  0  0  0  0  0  0  0  0  0  0
  -17.2947    6.6737   31.2115 C   0  0  0  0  0  0  0  0  0  0  0  0
  -18.0546    5.7223   30.3061 C   0  0  0  0  0  0  0  0  0  0  0  0
  -19.4597    5.7794   30.5425 O   0  0  0  0  0  0  0  0  0  0  0  0
  -20.2223    6.6964   29.7541 C   0  0  0  0  0  0  0  0  0  0  0  0
  -19.9734    6.6115   28.2408 C   0  0  0  0  0  0  0  0  0  0  0  0
  -19.8879    7.9311   27.6771 O   0  0  0  0  0  0  0  0  0  0  0  0
  -18.7038    5.8255   27.8985 C   0  0  0  0  0  0  0  0  0  0  0  0
  -18.2452    6.1421   26.5823 O   0  0  0  0  0  0  0  0  0  0  0  0
  -17.6065    6.1137   28.9144 C   0  0  0  0  0  0  0  0  0  0  0  0
  -17.3015    7.5216   28.9859 O   0  0  0  0  0  0  0  0  0  0  0  0
  -19.1331    8.4004   28.0657 H   0  0  0  0  0  0  0  0  0  0  0  0
  -18.0233    7.0852   26.5353 H   0  0  0  0  0  0  0  0  0  0  0  0
  -17.8362    9.1088   30.6940 C   0  0  0  0  0  0  0  0  0  0  0  0
  -17.9458    9.6398   31.7845 O   0  0  0  0  0  0  0  0  0  0  0  0
  -18.5392    9.6017   29.6477 O   0  0  0  0  0  0  0  0  0  0  0  0
  -18.4641    9.2027   28.8033 H   0  0  0  0  0  0  0  0  0  0  0  0
  -15.4715    8.2788   30.3140 C   0  0  0  0  0  0  0  0  0  0  0  0
  -15.0015    9.4628   29.4327 C   0  0  0  0  0  0  0  0  0  0  0  0
  -15.4536   10.7086   30.0828 N   0  0  0  0  0  0  0  0  0  0  0  0
  -16.4724   10.7154   30.1333 H   0  0  0  0  0  0  0  0  0  0  0  0
  -15.1348   11.5107   29.5394 H   0  0  0  0  0  0  0  0  0  0  0  0
  -15.5068    9.4026   27.9557 C   0  0  0  0  0  0  0  0  0  0  0  0
  -14.5205    8.7971   26.8961 N   0  0  0  0  0  0  0  0  0  0  0  0
  -15.1873    7.5066   26.3381 C   0  0  0  0  0  0  0  0  0  0  0  0
  -13.2002    8.3498   27.4976 C   0  0  0  0  0  0  0  0  0  0  0  0
  -14.3658    9.7147   25.6923 C   0  0  0  0  0  0  0  0  0  0  0  0
  -13.7537    8.2214   23.6862 C   0  0  0  0  0  0  0  0  0  0  0  0
  -13.4003    9.4065   24.5611 N   0  0  0  0  0  0  0  0  0  0  0  0
  -13.0901   10.6146   23.6709 C   0  0  0  0  0  0  0  0  0  0  0  0
  -12.0491    9.0491   25.2509 C   0  0  0  0  0  0  0  0  0  0  0  0
 28 29  1  0
 29 30  1  0
 29 31  1  0
 29 27  1  0
 27 24  1  0
 24 25  1  0
 24 26  1  0
 24 23  1  0
 23 19  1  0
 19 20  1  0
 19 18  1  0
  1 18  1  0
  1 14  1  0
 14 15  2  0
 14 16  1  0
  1  2  1  0
  3  2  1  0
  3  4  1  0
  4  5  1  0
  5  6  1  0
  6  7  1  0
  6  8  1  0
  8  9  1  0
  8 10  1  0
 10 11  1  0
 11  1  1  0
 10  3  1  0
 20 21  1  0
 20 22  1  0
 16 17  1  0
  7 12  1  0
  9 13  1  0
M  CHG 1  24   1
M  CHG 1  29   1
M  END
> <minimizedAffinity>
-1.57225

> <CNNscore>
0.3316677809

> <CNNaffinity>
4.1641211510

> <CNN_VS>
1.3811048269

> <CNNaffinity_variance>
0.4408263266

$$$$



 31 32  0  0  0  0  0  0  0  0999 V2000
   -6.0397   10.9591   29.2457 C   0  0  0  0  0  0  0  0  0  0  0  0
   -5.0455    9.8041   29.4058 C   0  0  0  0  0  0  0  0  0  0  0  0
   -3.9619   10.3271   30.3302 C   0  0  0  0  0  0  0  0  0  0  0  0
   -2.7962   10.7179   29.6076 O   0  0  0  0  0  0  0  0  0  0  0  0
   -2.7090   12.0820   29.1888 C   0  0  0  0  0  0  0  0  0  0  0  0
   -2.9837   13.1163   30.2906 C   0  0  0  0  0  0  0  0  0  0  0  0
   -3.8084   14.1776   29.7806 O   0  0  0  0  0  0  0  0  0  0  0  0
   -3.6505   12.4971   31.5230 C   0  0  0  0  0  0  0  0  0  0  0  0
   -4.3031   13.4972   32.3085 O   0  0  0  0  0  0  0  0  0  0  0  0
   -4.6515   11.4271   31.1082 C   0  0  0  0  0  0  0  0  0  0  0  0
   -5.6611   11.9546   30.2235 O   0  0  0  0  0  0  0  0  0  0  0  0
   -4.6659   13.8171   29.5058 H   0  0  0  0  0  0  0  0  0  0  0  0
   -5.0010   13.9173   31.7820 H   0  0  0  0  0  0  0  0  0  0  0  0
   -5.9419   11.6288   27.8703 C   0  0  0  0  0  0  0  0  0  0  0  0
   -4.9983   12.2588   27.4279 O   0  0  0  0  0  0  0  0  0  0  0  0
   -7.0504   11.4807   27.1080 O   0  0  0  0  0  0  0  0  0  0  0  0
   -7.7837   10.9984   27.4362 H   0  0  0  0  0  0  0  0  0  0  0  0
   -7.5066   10.5917   29.5736 C   0  0  0  0  0  0  0  0  0  0  0  0
   -8.0521    9.1951   29.1844 C   0  0  0  0  0  0  0  0  0  0  0  0
   -9.2551    9.4025   28.3544 N   0  0  0  0  0  0  0  0  0  0  0  0
   -9.9626    9.8962   28.8985 H   0  0  0  0  0  0  0  0  0  0  0  0
   -9.6235    8.4988   28.0578 H   0  0  0  0  0  0  0  0  0  0  0  0
   -8.3806    8.2731   30.4019 C   0  0  0  0  0  0  0  0  0  0  0  0
   -8.5393    6.7406   30.1046 N   0  0  0  0  0  0  0  0  0  0  0  0
   -7.4030    6.0070   30.8740 C   0  0  0  0  0  0  0  0  0  0  0  0
   -8.3348    6.3928   28.6409 C   0  0  0  0  0  0  0  0  0  0  0  0
   -9.8319    6.1915   30.6900 C   0  0  0  0  0  0  0  0  0  0  0  0
  -11.2357    4.4151   31.9158 C   0  0  0  0  0  0  0  0  0  0  0  0
   -9.9412    4.7701   31.2137 N   0  0  0  0  0  0  0  0  0  0  0  0
   -9.6301    3.7010   30.1608 C   0  0  0  0  0  0  0  0  0  0  0  0
   -8.8155    4.6311   32.2827 C   0  0  0  0  0  0  0  0  0  0  0  0
 28 29  1  0
 29 30  1  0
 29 31  1  0
 29 27  1  0
 27 24  1  0
 24 25  1  0
 24 26  1  0
 24 23  1  0
 23 19  1  0
 19 20  1  0
 19 18  1  0
  1 18  1  0
  1 14  1  0
 14 15  2  0
 14 16  1  0
  1  2  1  0
  3  2  1  0
  3  4  1  0
  4  5  1  0
  5  6  1  0
  6  7  1  0
  6  8  1  0
  8  9  1  0
  8 10  1  0
 10 11  1  0
 11  1  1  0
 10  3  1  0
 20 21  1  0
 20 22  1  0
 16 17  1  0
  7 12  1  0
  9 13  1  0
M  CHG 1  24   1
M  CHG 1  29   1
M  END
> <minimizedAffinity>
-3.40205

> <CNNscore>
0.3258484602

> <CNNaffinity>
4.6878604889

> <CNN_VS>
1.5275321007

> <CNNaffinity_variance>
0.5064964890

$$$$



 31 32  0  0  0  0  0  0  0  0999 V2000
  -18.7542    8.0156   29.8618 C   0  0  0  0  0  0  0  0  0  0  0  0
  -20.1466    7.4814   29.5099 C   0  0  0  0  0  0  0  0  0  0  0  0
  -19.9202    6.4390   28.4307 C   0  0  0  0  0  0  0  0  0  0  0  0
  -20.2139    6.9518   27.1329 O   0  0  0  0  0  0  0  0  0  0  0  0
  -19.1373    7.5411   26.3997 C   0  0  0  0  0  0  0  0  0  0  0  0
  -17.8629    6.6872   26.3227 C   0  0  0  0  0  0  0  0  0  0  0  0
  -16.7013    7.5102   26.5221 O   0  0  0  0  0  0  0  0  0  0  0  0
  -17.8608    5.5434   27.3418 C   0  0  0  0  0  0  0  0  0  0  0  0
  -16.5330    5.0693   27.5762 O   0  0  0  0  0  0  0  0  0  0  0  0
  -18.4904    5.9947   28.6530 C   0  0  0  0  0  0  0  0  0  0  0  0
  -17.8093    7.1392   29.2063 O   0  0  0  0  0  0  0  0  0  0  0  0
  -16.7307    7.9015   27.4092 H   0  0  0  0  0  0  0  0  0  0  0  0
  -15.9939    5.7865   27.9448 H   0  0  0  0  0  0  0  0  0  0  0  0
  -18.5108    9.4240   29.3079 C   0  0  0  0  0  0  0  0  0  0  0  0
  -17.5273   10.1204   29.4841 O   0  0  0  0  0  0  0  0  0  0  0  0
  -19.5296    9.9012   28.5556 O   0  0  0  0  0  0  0  0  0  0  0  0
  -20.2921    9.3759   28.4121 H   0  0  0  0  0  0  0  0  0  0  0  0
  -18.4050    7.9507   31.3679 C   0  0  0  0  0  0  0  0  0  0  0  0
  -17.0042    8.4033   31.8499 C   0  0  0  0  0  0  0  0  0  0  0  0
  -17.0927    9.8363   32.1926 N   0  0  0  0  0  0  0  0  0  0  0  0
  -17.3467   10.3697   31.3611 H   0  0  0  0  0  0  0  0  0  0  0  0
  -16.1900   10.1590   32.5409 H   0  0  0  0  0  0  0  0  0  0  0  0
  -15.8601    8.1586   30.8147 C   0  0  0  0  0  0  0  0  0  0  0  0
  -14.6159    7.3448   31.3165 N   0  0  0  0  0  0  0  0  0  0  0  0
  -13.8429    8.2601   32.3094 C   0  0  0  0  0  0  0  0  0  0  0  0
  -13.6311    7.0173   30.2083 C   0  0  0  0  0  0  0  0  0  0  0  0
  -15.0371    6.1359   32.1389 C   0  0  0  0  0  0  0  0  0  0  0  0
  -13.4446    4.1749   31.6411 C   0  0  0  0  0  0  0  0  0  0  0  0
  -14.8601    4.7145   31.6338 N   0  0  0  0  0  0  0  0  0  0  0  0
  -15.7886    3.7010   32.3112 C   0  0  0  0  0  0  0  0  0  0  0  0
  -15.3059    4.7433   30.1405 C   0  0  0  0  0  0  0  0  0  0  0  0
 28 29  1  0
 29 30  1  0
 29 31  1  0
 29 27  1  0
 27 24  1  0
 24 25  1  0
 24 26  1  0
 24 23  1  0
 23 19  1  0
 19 20  1  0
 19 18  1  0
  1 18  1  0
  1 14  1  0
 14 15  2  0
 14 16  1  0
  1  2  1  0
  3  2  1  0
  3  4  1  0
  4  5  1  0
  5  6  1  0
  6  7  1  0
  6  8  1  0
  8  9  1  0
  8 10  1  0
 10 11  1  0
 11  1  1  0
 10  3  1  0
 20 21  1  0
 20 22  1  0
 16 17  1  0
  7 12  1  0
  9 13  1  0
M  CHG 1  24   1
M  CHG 1  29   1
M  END
> <minimizedAffinity>
-2.34744

> <CNNscore>
0.2934370339

> <CNNaffinity>
4.6360211372

> <CNN_VS>
1.3603802919

> <CNNaffinity_variance>
0.0265608355

$$$$



 31 32  0  0  0  0  0  0  0  0999 V2000
  -18.1045    8.2390   30.4331 C   0  0  0  0  0  0  0  0  0  0  0  0
  -18.8094    7.6807   31.6739 C   0  0  0  0  0  0  0  0  0  0  0  0
  -18.4250    6.2140   31.7331 C   0  0  0  0  0  0  0  0  0  0  0  0
  -19.4681    5.3757   31.2403 O   0  0  0  0  0  0  0  0  0  0  0  0
  -19.4406    5.0400   29.8509 C   0  0  0  0  0  0  0  0  0  0  0  0
  -18.0919    4.5124   29.3390 C   0  0  0  0  0  0  0  0  0  0  0  0
  -17.7846    5.0937   28.0607 O   0  0  0  0  0  0  0  0  0  0  0  0
  -16.9450    4.7890   30.3161 C   0  0  0  0  0  0  0  0  0  0  0  0
  -15.6806    4.7241   29.6527 O   0  0  0  0  0  0  0  0  0  0  0  0
  -17.1184    6.1526   30.9716 C   0  0  0  0  0  0  0  0  0  0  0  0
  -17.1886    7.2102   29.9934 O   0  0  0  0  0  0  0  0  0  0  0  0
  -17.6989    6.0553   28.1550 H   0  0  0  0  0  0  0  0  0  0  0  0
  -15.6427    5.4039   28.9618 H   0  0  0  0  0  0  0  0  0  0  0  0
  -19.0747    8.4938   29.2741 C   0  0  0  0  0  0  0  0  0  0  0  0
  -19.2282    7.8040   28.2823 O   0  0  0  0  0  0  0  0  0  0  0  0
  -19.8107    9.6212   29.4127 O   0  0  0  0  0  0  0  0  0  0  0  0
  -19.7026   10.1611   30.1708 H   0  0  0  0  0  0  0  0  0  0  0  0
  -17.2298    9.4871   30.7006 C   0  0  0  0  0  0  0  0  0  0  0  0
  -15.8429    9.6106   30.0218 C   0  0  0  0  0  0  0  0  0  0  0  0
  -15.1134   10.7031   30.6950 N   0  0  0  0  0  0  0  0  0  0  0  0
  -15.6229   11.5782   30.5725 H   0  0  0  0  0  0  0  0  0  0  0  0
  -14.1824   10.7918   30.2879 H   0  0  0  0  0  0  0  0  0  0  0  0
  -15.9034    9.8621   28.4811 C   0  0  0  0  0  0  0  0  0  0  0  0
  -15.0315    8.9214   27.5774 N   0  0  0  0  0  0  0  0  0  0  0  0
  -15.9956    7.8789   26.9410 C   0  0  0  0  0  0  0  0  0  0  0  0
  -14.0146    8.1135   28.3638 C   0  0  0  0  0  0  0  0  0  0  0  0
  -14.4344    9.6782   26.4001 C   0  0  0  0  0  0  0  0  0  0  0  0
  -12.0068    8.8547   26.1601 C   0  0  0  0  0  0  0  0  0  0  0  0
  -13.3591    9.0743   25.5137 N   0  0  0  0  0  0  0  0  0  0  0  0
  -13.7953    7.7855   24.8087 C   0  0  0  0  0  0  0  0  0  0  0  0
  -13.1307   10.1088   24.3704 C   0  0  0  0  0  0  0  0  0  0  0  0
 28 29  1  0
 29 30  1  0
 29 31  1  0
 29 27  1  0
 27 24  1  0
 24 25  1  0
 24 26  1  0
 24 23  1  0
 23 19  1  0
 19 20  1  0
 19 18  1  0
  1 18  1  0
  1 14  1  0
 14 15  2  0
 14 16  1  0
  1  2  1  0
  3  2  1  0
  3  4  1  0
  4  5  1  0
  5  6  1  0
  6  7  1  0
  6  8  1  0
  8  9  1  0
  8 10  1  0
 10 11  1  0
 11  1  1  0
 10  3  1  0
 20 21  1  0
 20 22  1  0
 16 17  1  0
  7 12  1  0
  9 13  1  0
M  CHG 1  24   1
M  CHG 1  29   1
M  END
> <minimizedAffinity>
-2.91372

> <CNNscore>
0.2912240922

> <CNNaffinity>
3.9042975903

> <CNN_VS>
1.1370254755

> <CNNaffinity_variance>
1.1321254969

$$$$



 31 32  0  0  0  0  0  0  0  0999 V2000
   -2.2425   12.1164   31.3675 C   0  0  0  0  0  0  0  0  0  0  0  0
   -1.0390   12.1834   32.3137 C   0  0  0  0  0  0  0  0  0  0  0  0
    0.0234   11.3037   31.6814 C   0  0  0  0  0  0  0  0  0  0  0  0
    0.0919   10.0257   32.3103 O   0  0  0  0  0  0  0  0  0  0  0  0
   -0.7085    8.9775   31.7583 C   0  0  0  0  0  0  0  0  0  0  0  0
   -0.5768    8.7943   30.2389 C   0  0  0  0  0  0  0  0  0  0  0  0
   -1.8704    8.5752   29.6515 O   0  0  0  0  0  0  0  0  0  0  0  0
    0.0974    9.9907   29.5602 C   0  0  0  0  0  0  0  0  0  0  0  0
   -0.1997   10.0205   28.1625 O   0  0  0  0  0  0  0  0  0  0  0  0
   -0.3436   11.2940   30.2130 C   0  0  0  0  0  0  0  0  0  0  0  0
   -1.7762   11.4549   30.1694 O   0  0  0  0  0  0  0  0  0  0  0  0
   -2.4286    9.3547   29.7987 H   0  0  0  0  0  0  0  0  0  0  0  0
   -1.1566   10.1180   28.0373 H   0  0  0  0  0  0  0  0  0  0  0  0
   -3.3828   11.2610   31.9311 C   0  0  0  0  0  0  0  0  0  0  0  0
   -4.4719   11.6512   32.3117 O   0  0  0  0  0  0  0  0  0  0  0  0
   -3.0960    9.9401   31.9985 O   0  0  0  0  0  0  0  0  0  0  0  0
   -2.2618    9.6264   31.7091 H   0  0  0  0  0  0  0  0  0  0  0  0
   -2.7694   13.4950   30.9026 C   0  0  0  0  0  0  0  0  0  0  0  0
   -3.7597   13.5759   29.7143 C   0  0  0  0  0  0  0  0  0  0  0  0
   -4.1283   14.9943   29.5376 N   0  0  0  0  0  0  0  0  0  0  0  0
   -4.5921   15.3326   30.3807 H   0  0  0  0  0  0  0  0  0  0  0  0
   -4.7604   15.0848   28.7422 H   0  0  0  0  0  0  0  0  0  0  0  0
   -5.0392   12.6959   29.8851 C   0  0  0  0  0  0  0  0  0  0  0  0
   -5.4045   11.7422   28.6939 N   0  0  0  0  0  0  0  0  0  0  0  0
   -6.2149   10.5561   29.2917 C   0  0  0  0  0  0  0  0  0  0  0  0
   -4.1874   11.1174   28.0353 C   0  0  0  0  0  0  0  0  0  0  0  0
   -6.3536   12.4154   27.7135 C   0  0  0  0  0  0  0  0  0  0  0  0
   -6.9992   13.3201   25.3910 C   0  0  0  0  0  0  0  0  0  0  0  0
   -5.9047   12.8634   26.3334 N   0  0  0  0  0  0  0  0  0  0  0  0
   -4.7918   13.9164   26.3603 C   0  0  0  0  0  0  0  0  0  0  0  0
   -5.2618   11.6055   25.6747 C   0  0  0  0  0  0  0  0  0  0  0  0
 28 29  1  0
 29 30  1  0
 29 31  1  0
 29 27  1  0
 27 24  1  0
 24 25  1  0
 24 26  1  0
 24 23  1  0
 23 19  1  0
 19 20  1  0
 19 18  1  0
  1 18  1  0
  1 14  1  0
 14 15  2  0
 14 16  1  0
  1  2  1  0
  3  2  1  0
  3  4  1  0
  4  5  1  0
  5  6  1  0
  6  7  1  0
  6  8  1  0
  8  9  1  0
  8 10  1  0
 10 11  1  0
 11  1  1  0
 10  3  1  0
 20 21  1  0
 20 22  1  0
 16 17  1  0
  7 12  1  0
  9 13  1  0
M  CHG 1  24   1
M  CHG 1  29   1
M  END
> <minimizedAffinity>
1.40249

> <CNNscore>
0.2881835103

> <CNNaffinity>
3.8510227203

> <CNN_VS>
1.1098012924

> <CNNaffinity_variance>
0.3278697431

$$$$



 31 32  0  0  0  0  0  0  0  0999 V2000
  -18.8391    7.9076   30.9343 C   0  0  0  0  0  0  0  0  0  0  0  0
  -19.7678    7.4070   32.0456 C   0  0  0  0  0  0  0  0  0  0  0  0
  -19.3439    5.9750   32.3141 C   0  0  0  0  0  0  0  0  0  0  0  0
  -20.2223    5.0400   31.6915 O   0  0  0  0  0  0  0  0  0  0  0  0
  -19.8860    4.5987   30.3738 C   0  0  0  0  0  0  0  0  0  0  0  0
  -18.4384    4.1141   30.2033 C   0  0  0  0  0  0  0  0  0  0  0  0
  -17.8908    4.6109   28.9705 O   0  0  0  0  0  0  0  0  0  0  0  0
  -17.5381    4.5344   31.3694 C   0  0  0  0  0  0  0  0  0  0  0  0
  -16.1600    4.4932   30.9925 O   0  0  0  0  0  0  0  0  0  0  0  0
  -17.9038    5.9323   31.8501 C   0  0  0  0  0  0  0  0  0  0  0  0
  -17.8085    6.9039   30.7885 O   0  0  0  0  0  0  0  0  0  0  0  0
  -17.8674    5.5803   28.9945 H   0  0  0  0  0  0  0  0  0  0  0  0
  -16.0045    5.1179   30.2669 H   0  0  0  0  0  0  0  0  0  0  0  0
  -19.5504    8.0125   29.5805 C   0  0  0  0  0  0  0  0  0  0  0  0
  -19.8092    7.1001   28.8165 O   0  0  0  0  0  0  0  0  0  0  0  0
  -19.9012    9.2750   29.2416 O   0  0  0  0  0  0  0  0  0  0  0  0
  -19.7081    9.9862   29.8202 H   0  0  0  0  0  0  0  0  0  0  0  0
  -18.0943    9.2227   31.2658 C   0  0  0  0  0  0  0  0  0  0  0  0
  -16.5455    9.2467   31.2673 C   0  0  0  0  0  0  0  0  0  0  0  0
  -16.1169   10.2608   32.2507 N   0  0  0  0  0  0  0  0  0  0  0  0
  -16.4635   11.1772   31.9670 H   0  0  0  0  0  0  0  0  0  0  0  0
  -15.0981   10.2816   32.2956 H   0  0  0  0  0  0  0  0  0  0  0  0
  -15.9074    9.5356   29.8709 C   0  0  0  0  0  0  0  0  0  0  0  0
  -15.1690    8.3410   29.1712 N   0  0  0  0  0  0  0  0  0  0  0  0
  -14.6353    7.4116   30.2994 C   0  0  0  0  0  0  0  0  0  0  0  0
  -13.9456    8.7750   28.3838 C   0  0  0  0  0  0  0  0  0  0  0  0
  -16.1369    7.4794   28.3738 C   0  0  0  0  0  0  0  0  0  0  0  0
  -17.6074    8.9617   26.8673 C   0  0  0  0  0  0  0  0  0  0  0  0
  -16.5813    7.8521   26.9701 N   0  0  0  0  0  0  0  0  0  0  0  0
  -15.4197    8.1505   26.0161 C   0  0  0  0  0  0  0  0  0  0  0  0
  -17.2646    6.5745   26.3953 C   0  0  0  0  0  0  0  0  0  0  0  0
 28 29  1  0
 29 30  1  0
 29 31  1  0
 29 27  1  0
 27 24  1  0
 24 25  1  0
 24 26  1  0
 24 23  1  0
 23 19  1  0
 19 20  1  0
 19 18  1  0
  1 18  1  0
  1 14  1  0
 14 15  2  0
 14 16  1  0
  1  2  1  0
  3  2  1  0
  3  4  1  0
  4  5  1  0
  5  6  1  0
  6  7  1  0
  6  8  1  0
  8  9  1  0
  8 10  1  0
 10 11  1  0
 11  1  1  0
 10  3  1  0
 20 21  1  0
 20 22  1  0
 16 17  1  0
  7 12  1  0
  9 13  1  0
M  CHG 1  24   1
M  CHG 1  29   1
M  END
> <minimizedAffinity>
-2.72334

> <CNNscore>
0.2848282754

> <CNNaffinity>
3.3536911011

> <CNN_VS>
0.9552260637

> <CNNaffinity_variance>
1.1606103182

$$$$
