


 37 37  0  0  0  0  0  0  0  0999 V2000
   35.8233   41.5339   -4.4008 N   0  0  0  0  0  0  0  0  0  0  0  0
   34.8796   41.5611   -4.0146 H   0  0  0  0  0  0  0  0  0  0  0  0
   35.7877   42.3874   -5.7975 P   0  0  0  0  0  0  0  0  0  0  0  0
   34.8625   43.5625   -5.9028 O   0  0  0  0  0  0  0  0  0  0  0  0
   37.3054   42.9228   -5.9325 O   0  0  0  0  0  0  0  0  0  0  0  0
   37.4989   43.5333   -5.2040 H   0  0  0  0  0  0  0  0  0  0  0  0
   35.6755   41.2942   -7.2368 C   0  0  0  0  0  0  0  0  0  0  0  0
   34.3973   40.5978   -7.1940 N   0  0  0  0  0  0  0  0  0  0  0  0
   34.1289   39.5467   -8.0120 C   0  0  0  0  0  0  0  0  0  0  0  0
   34.8086   39.2140   -8.9700 O   0  0  0  0  0  0  0  0  0  0  0  0
   33.7098   40.8964   -6.5557 H   0  0  0  0  0  0  0  0  0  0  0  0
   32.9995   38.9391   -7.5863 O   0  0  0  0  0  0  0  0  0  0  0  0
   32.8759   37.5530   -7.9260 C   0  0  0  0  0  0  0  0  0  0  0  0
   31.4932   37.2897   -8.4632 C   0  0  0  0  0  0  0  0  0  0  0  0
   30.7040   36.2674   -7.9179 C   0  0  0  0  0  0  0  0  0  0  0  0
   29.4150   36.0354   -8.3996 C   0  0  0  0  0  0  0  0  0  0  0  0
   28.9000   36.8266   -9.4249 C   0  0  0  0  0  0  0  0  0  0  0  0
   29.6710   37.8540   -9.9660 C   0  0  0  0  0  0  0  0  0  0  0  0
   30.9603   38.0882   -9.4849 C   0  0  0  0  0  0  0  0  0  0  0  0
   36.7387   41.9345   -3.3174 C   0  0  0  0  0  0  0  0  0  0  0  0
   37.7698   39.7117   -3.7364 N   0  0  0  0  0  0  0  0  0  0  0  0
   37.9889   41.0152   -3.3473 C   0  0  0  0  0  0  0  0  0  0  0  0
   39.0894   41.4025   -2.9518 O   0  0  0  0  0  0  0  0  0  0  0  0
   36.8488   39.3859   -3.8579 H   0  0  0  0  0  0  0  0  0  0  0  0
   38.8991   38.8068   -3.9708 C   0  0  0  0  0  0  0  0  0  0  0  0
   38.6768   38.1704   -5.3433 C   0  0  0  0  0  0  0  0  0  0  0  0
   39.5350   37.6375   -6.0326 O   0  0  0  0  0  0  0  0  0  0  0  0
   37.4113   38.2880   -5.7894 O   0  0  0  0  0  0  0  0  0  0  0  0
   36.7617   38.6982   -5.2529 H   0  0  0  0  0  0  0  0  0  0  0  0
   38.9674   37.7002   -2.9101 C   0  0  0  0  0  0  0  0  0  0  0  0
   40.7406   36.3725   -1.6162 C   0  0  0  0  0  0  0  0  0  0  0  0
   40.2233   37.7542   -2.0154 C   0  0  0  0  0  0  0  0  0  0  0  0
   41.3324   38.5285   -2.7341 C   0  0  0  0  0  0  0  0  0  0  0  0
   36.0523   41.9952   -1.9381 C   0  0  0  0  0  0  0  0  0  0  0  0
   36.4598   43.1821   -1.0391 C   0  0  0  0  0  0  0  0  0  0  0  0
   37.3180   44.2054   -1.7848 C   0  0  0  0  0  0  0  0  0  0  0  0
   37.2194   42.6649    0.1859 C   0  0  0  0  0  0  0  0  0  0  0  0
 31 32  1  0
 32 33  1  0
 32 30  1  0
 25 30  1  0
 25 21  1  0
 21 22  1  0
 22 23  2  0
 22 20  1  0
 20 34  1  0
 34 35  1  0
 35 36  1  0
 35 37  1  0
 20  1  1  0
  1  3  1  0
  3  4  2  0
  3  5  1  0
  3  7  1  0
  7  8  1  0
  8  9  1  0
  9 10  2  0
  9 12  1  0
 12 13  1  0
 13 14  1  0
 14 15  2  0
 15 16  1  0
 16 17  2  0
 17 18  1  0
 18 19  2  0
 25 26  1  0
 26 27  2  0
 26 28  1  0
 19 14  1  0
 21 24  1  0
  1  2  1  0
  5  6  1  0
  8 11  1  0
 28 29  1  0
M  END
> <minimizedAffinity>
-7.76253

> <CNNscore>
0.7795571089

> <CNNaffinity>
7.3282694817

> <CNN_VS>
5.7128047943

> <CNNaffinity_variance>
0.3565262556

$$$$



 37 37  0  0  0  0  0  0  0  0999 V2000
   35.6567   41.7755   -4.2697 N   0  0  0  0  0  0  0  0  0  0  0  0
   34.7551   42.0096   -3.8540 H   0  0  0  0  0  0  0  0  0  0  0  0
   35.6367   42.3554   -5.8007 P   0  0  0  0  0  0  0  0  0  0  0  0
   34.6585   43.4361   -6.1512 O   0  0  0  0  0  0  0  0  0  0  0  0
   37.1297   42.9434   -5.9837 O   0  0  0  0  0  0  0  0  0  0  0  0
   37.2613   43.6871   -5.3750 H   0  0  0  0  0  0  0  0  0  0  0  0
   35.6407   41.0125   -7.0155 C   0  0  0  0  0  0  0  0  0  0  0  0
   34.8955   41.4446   -8.1895 N   0  0  0  0  0  0  0  0  0  0  0  0
   34.1125   40.5865   -8.8942 C   0  0  0  0  0  0  0  0  0  0  0  0
   34.1065   39.3731   -8.7594 O   0  0  0  0  0  0  0  0  0  0  0  0
   34.9607   42.3830   -8.4803 H   0  0  0  0  0  0  0  0  0  0  0  0
   33.3493   41.2969   -9.7538 O   0  0  0  0  0  0  0  0  0  0  0  0
   33.6634   42.6908   -9.8547 C   0  0  0  0  0  0  0  0  0  0  0  0
   33.4395   43.1542  -11.2706 C   0  0  0  0  0  0  0  0  0  0  0  0
   33.7052   44.4825  -11.6317 C   0  0  0  0  0  0  0  0  0  0  0  0
   33.5188   44.9087  -12.9474 C   0  0  0  0  0  0  0  0  0  0  0  0
   33.0725   44.0109  -13.9155 C   0  0  0  0  0  0  0  0  0  0  0  0
   32.8173   42.6847  -13.5705 C   0  0  0  0  0  0  0  0  0  0  0  0
   33.0041   42.2562  -12.2552 C   0  0  0  0  0  0  0  0  0  0  0  0
   36.6923   42.2301   -3.3247 C   0  0  0  0  0  0  0  0  0  0  0  0
   37.6970   39.9595   -3.2035 N   0  0  0  0  0  0  0  0  0  0  0  0
   37.9270   41.2969   -3.4418 C   0  0  0  0  0  0  0  0  0  0  0  0
   39.0596   41.7400   -3.6377 O   0  0  0  0  0  0  0  0  0  0  0  0
   36.8219   39.6676   -2.8596 H   0  0  0  0  0  0  0  0  0  0  0  0
   38.7465   38.9683   -3.4586 C   0  0  0  0  0  0  0  0  0  0  0  0
   38.5582   38.4868   -4.8976 C   0  0  0  0  0  0  0  0  0  0  0  0
   39.4489   38.1275   -5.6545 O   0  0  0  0  0  0  0  0  0  0  0  0
   37.2786   38.5359   -5.3154 O   0  0  0  0  0  0  0  0  0  0  0  0
   36.6039   38.8127   -4.7270 H   0  0  0  0  0  0  0  0  0  0  0  0
   38.6343   37.7679   -2.5094 C   0  0  0  0  0  0  0  0  0  0  0  0
   39.6288   36.4897   -0.5198 C   0  0  0  0  0  0  0  0  0  0  0  0
   39.8242   37.6112   -1.5396 C   0  0  0  0  0  0  0  0  0  0  0  0
   41.1071   37.3598   -2.3380 C   0  0  0  0  0  0  0  0  0  0  0  0
   36.1695   42.3808   -1.8820 C   0  0  0  0  0  0  0  0  0  0  0  0
   37.2142   42.8196   -0.8337 C   0  0  0  0  0  0  0  0  0  0  0  0
   36.8606   42.3360    0.5737 C   0  0  0  0  0  0  0  0  0  0  0  0
   37.3416   44.3456   -0.8392 C   0  0  0  0  0  0  0  0  0  0  0  0
 31 32  1  0
 32 33  1  0
 32 30  1  0
 25 30  1  0
 25 21  1  0
 21 22  1  0
 22 23  2  0
 22 20  1  0
 20 34  1  0
 34 35  1  0
 35 36  1  0
 35 37  1  0
 20  1  1  0
  1  3  1  0
  3  4  2  0
  3  5  1  0
  3  7  1  0
  7  8  1  0
  8  9  1  0
  9 10  2  0
  9 12  1  0
 12 13  1  0
 13 14  1  0
 14 15  2  0
 15 16  1  0
 16 17  2  0
 17 18  1  0
 18 19  2  0
 25 26  1  0
 26 27  2  0
 26 28  1  0
 19 14  1  0
 21 24  1  0
  1  2  1  0
  5  6  1  0
  8 11  1  0
 28 29  1  0
M  END
> <minimizedAffinity>
-8.87108

> <CNNscore>
0.7634621859

> <CNNaffinity>
7.3664240837

> <CNN_VS>
5.6239862442

> <CNNaffinity_variance>
0.1887450814

$$$$



 37 37  0  0  0  0  0  0  0  0999 V2000
   35.5891   41.7357   -4.0640 N   0  0  0  0  0  0  0  0  0  0  0  0
   34.6618   42.1041   -3.8527 H   0  0  0  0  0  0  0  0  0  0  0  0
   35.9426   42.1940   -5.5955 P   0  0  0  0  0  0  0  0  0  0  0  0
   37.1273   43.0827   -5.8285 O   0  0  0  0  0  0  0  0  0  0  0  0
   36.2095   40.7865   -6.3413 O   0  0  0  0  0  0  0  0  0  0  0  0
   36.9931   40.3615   -5.9589 H   0  0  0  0  0  0  0  0  0  0  0  0
   34.4661   42.7751   -6.4683 C   0  0  0  0  0  0  0  0  0  0  0  0
   34.5702   42.3880   -7.8682 N   0  0  0  0  0  0  0  0  0  0  0  0
   33.6396   42.7634   -8.7841 C   0  0  0  0  0  0  0  0  0  0  0  0
   32.5578   43.2631   -8.5184 O   0  0  0  0  0  0  0  0  0  0  0  0
   35.3349   41.8400   -8.1585 H   0  0  0  0  0  0  0  0  0  0  0  0
   34.1121   42.4967  -10.0217 O   0  0  0  0  0  0  0  0  0  0  0  0
   33.1220   42.1888  -11.0100 C   0  0  0  0  0  0  0  0  0  0  0  0
   33.1944   43.2000  -12.1245 C   0  0  0  0  0  0  0  0  0  0  0  0
   33.6279   44.5080  -11.8673 C   0  0  0  0  0  0  0  0  0  0  0  0
   33.7159   45.4404  -12.9019 C   0  0  0  0  0  0  0  0  0  0  0  0
   33.3788   45.0730  -14.2033 C   0  0  0  0  0  0  0  0  0  0  0  0
   32.9586   43.7716  -14.4728 C   0  0  0  0  0  0  0  0  0  0  0  0
   32.8708   42.8373  -13.4395 C   0  0  0  0  0  0  0  0  0  0  0  0
   36.4707   42.1388   -2.9538 C   0  0  0  0  0  0  0  0  0  0  0  0
   37.9178   40.1176   -2.9719 N   0  0  0  0  0  0  0  0  0  0  0  0
   37.8633   41.4826   -3.1515 C   0  0  0  0  0  0  0  0  0  0  0  0
   38.8747   42.1549   -3.3581 O   0  0  0  0  0  0  0  0  0  0  0  0
   37.1335   39.6394   -2.6176 H   0  0  0  0  0  0  0  0  0  0  0  0
   39.1357   39.3726   -3.3048 C   0  0  0  0  0  0  0  0  0  0  0  0
   38.8105   38.5218   -4.5330 C   0  0  0  0  0  0  0  0  0  0  0  0
   39.6193   37.9005   -5.2078 O   0  0  0  0  0  0  0  0  0  0  0  0
   37.5067   38.5452   -4.8705 O   0  0  0  0  0  0  0  0  0  0  0  0
   36.8956   39.0245   -4.3463 H   0  0  0  0  0  0  0  0  0  0  0  0
   39.5673   38.4510   -2.1563 C   0  0  0  0  0  0  0  0  0  0  0  0
   37.2796   38.7859   -1.0446 C   0  0  0  0  0  0  0  0  0  0  0  0
   38.3969   37.8014   -1.3887 C   0  0  0  0  0  0  0  0  0  0  0  0
   37.8239   36.6432   -2.2111 C   0  0  0  0  0  0  0  0  0  0  0  0
   35.8555   41.8706   -1.5658 C   0  0  0  0  0  0  0  0  0  0  0  0
   36.1955   42.9049   -0.4715 C   0  0  0  0  0  0  0  0  0  0  0  0
   36.8655   44.1549   -1.0443 C   0  0  0  0  0  0  0  0  0  0  0  0
   37.1077   42.2646    0.5787 C   0  0  0  0  0  0  0  0  0  0  0  0
 31 32  1  0
 32 33  1  0
 32 30  1  0
 25 30  1  0
 25 21  1  0
 21 22  1  0
 22 23  2  0
 22 20  1  0
 20 34  1  0
 34 35  1  0
 35 36  1  0
 35 37  1  0
 20  1  1  0
  1  3  1  0
  3  4  2  0
  3  5  1  0
  3  7  1  0
  7  8  1  0
  8  9  1  0
  9 10  2  0
  9 12  1  0
 12 13  1  0
 13 14  1  0
 14 15  2  0
 15 16  1  0
 16 17  2  0
 17 18  1  0
 18 19  2  0
 25 26  1  0
 26 27  2  0
 26 28  1  0
 19 14  1  0
 21 24  1  0
  1  2  1  0
  5  6  1  0
  8 11  1  0
 28 29  1  0
M  END
> <minimizedAffinity>
-9.37102

> <CNNscore>
0.6713898182

> <CNNaffinity>
7.0942816734

> <CNN_VS>
4.7630286217

> <CNNaffinity_variance>
0.0815343484

$$$$



 37 37  0  0  0  0  0  0  0  0999 V2000
   34.7821   40.1058   -6.7645 N   0  0  0  0  0  0  0  0  0  0  0  0
   33.7692   39.9943   -6.8091 H   0  0  0  0  0  0  0  0  0  0  0  0
   35.4332   38.8446   -7.5807 P   0  0  0  0  0  0  0  0  0  0  0  0
   36.0162   39.0876   -8.9404 O   0  0  0  0  0  0  0  0  0  0  0  0
   36.6191   38.3536   -6.6004 O   0  0  0  0  0  0  0  0  0  0  0  0
   37.2887   39.0516   -6.5281 H   0  0  0  0  0  0  0  0  0  0  0  0
   34.3382   37.4026   -7.5508 C   0  0  0  0  0  0  0  0  0  0  0  0
   32.9940   37.8313   -7.9113 N   0  0  0  0  0  0  0  0  0  0  0  0
   32.0494   36.9470   -8.3255 C   0  0  0  0  0  0  0  0  0  0  0  0
   32.2643   35.7840   -8.6287 O   0  0  0  0  0  0  0  0  0  0  0  0
   32.7638   38.7867   -7.8534 H   0  0  0  0  0  0  0  0  0  0  0  0
   30.8480   37.5655   -8.3393 O   0  0  0  0  0  0  0  0  0  0  0  0
   29.9085   37.0729   -9.3018 C   0  0  0  0  0  0  0  0  0  0  0  0
   29.4895   38.1962  -10.2142 C   0  0  0  0  0  0  0  0  0  0  0  0
   28.2112   38.2023  -10.7895 C   0  0  0  0  0  0  0  0  0  0  0  0
   27.8133   39.2524  -11.6180 C   0  0  0  0  0  0  0  0  0  0  0  0
   28.6855   40.3090  -11.8735 C   0  0  0  0  0  0  0  0  0  0  0  0
   29.9544   40.3197  -11.2967 C   0  0  0  0  0  0  0  0  0  0  0  0
   30.3538   39.2706  -10.4669 C   0  0  0  0  0  0  0  0  0  0  0  0
   35.0777   41.4864   -7.1871 C   0  0  0  0  0  0  0  0  0  0  0  0
   35.9073   41.5723   -4.8453 N   0  0  0  0  0  0  0  0  0  0  0  0
   35.9089   42.1863   -6.0787 C   0  0  0  0  0  0  0  0  0  0  0  0
   36.4535   43.2753   -6.2654 O   0  0  0  0  0  0  0  0  0  0  0  0
   35.3057   40.8110   -4.6788 H   0  0  0  0  0  0  0  0  0  0  0  0
   36.7956   42.0450   -3.7792 C   0  0  0  0  0  0  0  0  0  0  0  0
   37.9679   41.0653   -3.7149 C   0  0  0  0  0  0  0  0  0  0  0  0
   39.1200   41.3464   -3.4165 O   0  0  0  0  0  0  0  0  0  0  0  0
   37.6380   39.8111   -4.0789 O   0  0  0  0  0  0  0  0  0  0  0  0
   36.7520   39.6068   -4.3056 H   0  0  0  0  0  0  0  0  0  0  0  0
   36.0856   42.0673   -2.4190 C   0  0  0  0  0  0  0  0  0  0  0  0
   36.6629   44.3259   -1.3482 C   0  0  0  0  0  0  0  0  0  0  0  0
   36.8595   42.8107   -1.3103 C   0  0  0  0  0  0  0  0  0  0  0  0
   36.4356   42.2732    0.0600 C   0  0  0  0  0  0  0  0  0  0  0  0
   33.8188   42.2739   -7.6020 C   0  0  0  0  0  0  0  0  0  0  0  0
   33.7221   42.6419   -9.0981 C   0  0  0  0  0  0  0  0  0  0  0  0
   32.6278   43.6753   -9.3706 C   0  0  0  0  0  0  0  0  0  0  0  0
   33.4587   41.3798   -9.9243 C   0  0  0  0  0  0  0  0  0  0  0  0
 31 32  1  0
 32 33  1  0
 32 30  1  0
 25 30  1  0
 25 21  1  0
 21 22  1  0
 22 23  2  0
 22 20  1  0
 20 34  1  0
 34 35  1  0
 35 36  1  0
 35 37  1  0
 20  1  1  0
  1  3  1  0
  3  4  2  0
  3  5  1  0
  3  7  1  0
  7  8  1  0
  8  9  1  0
  9 10  2  0
  9 12  1  0
 12 13  1  0
 13 14  1  0
 14 15  2  0
 15 16  1  0
 16 17  2  0
 17 18  1  0
 18 19  2  0
 25 26  1  0
 26 27  2  0
 26 28  1  0
 19 14  1  0
 21 24  1  0
  1  2  1  0
  5  6  1  0
  8 11  1  0
 28 29  1  0
M  END
> <minimizedAffinity>
-7.30852

> <CNNscore>
0.4426895380

> <CNNaffinity>
6.8406987190

> <CNN_VS>
3.0283057690

> <CNNaffinity_variance>
0.0436483324

$$$$



 37 37  0  0  0  0  0  0  0  0999 V2000
   34.9563   42.0664   -8.0165 N   0  0  0  0  0  0  0  0  0  0  0  0
   35.5308   41.4879   -8.6296 H   0  0  0  0  0  0  0  0  0  0  0  0
   33.5927   42.4274   -8.8477 P   0  0  0  0  0  0  0  0  0  0  0  0
   32.6340   43.4225   -8.2659 O   0  0  0  0  0  0  0  0  0  0  0  0
   34.1630   43.0238  -10.2360 O   0  0  0  0  0  0  0  0  0  0  0  0
   34.6435   43.8480  -10.0606 H   0  0  0  0  0  0  0  0  0  0  0  0
   32.7581   40.9294   -9.4298 C   0  0  0  0  0  0  0  0  0  0  0  0
   32.6766   40.9767  -10.8829 N   0  0  0  0  0  0  0  0  0  0  0  0
   31.4930   40.8433  -11.5365 C   0  0  0  0  0  0  0  0  0  0  0  0
   30.4471   40.4786  -11.0231 O   0  0  0  0  0  0  0  0  0  0  0  0
   33.5005   41.1088  -11.4053 H   0  0  0  0  0  0  0  0  0  0  0  0
   31.6687   41.1834  -12.8325 O   0  0  0  0  0  0  0  0  0  0  0  0
   30.9391   42.3336  -13.2757 C   0  0  0  0  0  0  0  0  0  0  0  0
   31.7751   43.5693  -13.0660 C   0  0  0  0  0  0  0  0  0  0  0  0
   31.4437   44.4864  -12.0589 C   0  0  0  0  0  0  0  0  0  0  0  0
   32.2288   45.6209  -11.8489 C   0  0  0  0  0  0  0  0  0  0  0  0
   33.3554   45.8460  -12.6378 C   0  0  0  0  0  0  0  0  0  0  0  0
   33.7016   44.9343  -13.6338 C   0  0  0  0  0  0  0  0  0  0  0  0
   32.9182   43.7984  -13.8447 C   0  0  0  0  0  0  0  0  0  0  0  0
   34.8657   41.3600   -6.7262 C   0  0  0  0  0  0  0  0  0  0  0  0
   35.8704   41.6617   -4.4725 N   0  0  0  0  0  0  0  0  0  0  0  0
   35.3964   42.2906   -5.6031 C   0  0  0  0  0  0  0  0  0  0  0  0
   35.3063   43.5168   -5.6791 O   0  0  0  0  0  0  0  0  0  0  0  0
   35.7483   40.6907   -4.3655 H   0  0  0  0  0  0  0  0  0  0  0  0
   36.5554   42.4289   -3.4278 C   0  0  0  0  0  0  0  0  0  0  0  0
   38.0308   42.4939   -3.8239 C   0  0  0  0  0  0  0  0  0  0  0  0
   38.4992   43.1661   -4.7318 O   0  0  0  0  0  0  0  0  0  0  0  0
   38.8167   41.6761   -3.0973 O   0  0  0  0  0  0  0  0  0  0  0  0
   38.4473   41.1655   -2.4039 H   0  0  0  0  0  0  0  0  0  0  0  0
   36.4337   41.7516   -2.0563 C   0  0  0  0  0  0  0  0  0  0  0  0
   36.7234   42.2754    0.4383 C   0  0  0  0  0  0  0  0  0  0  0  0
   36.1225   42.7189   -0.8952 C   0  0  0  0  0  0  0  0  0  0  0  0
   36.6309   44.1209   -1.2451 C   0  0  0  0  0  0  0  0  0  0  0  0
   35.5410   39.9741   -6.7475 C   0  0  0  0  0  0  0  0  0  0  0  0
   34.9926   38.9780   -7.7915 C   0  0  0  0  0  0  0  0  0  0  0  0
   33.7407   38.2516   -7.2969 C   0  0  0  0  0  0  0  0  0  0  0  0
   36.0758   37.9563   -8.1490 C   0  0  0  0  0  0  0  0  0  0  0  0
 31 32  1  0
 32 33  1  0
 32 30  1  0
 25 30  1  0
 25 21  1  0
 21 22  1  0
 22 23  2  0
 22 20  1  0
 20 34  1  0
 34 35  1  0
 35 36  1  0
 35 37  1  0
 20  1  1  0
  1  3  1  0
  3  4  2  0
  3  5  1  0
  3  7  1  0
  7  8  1  0
  8  9  1  0
  9 10  2  0
  9 12  1  0
 12 13  1  0
 13 14  1  0
 14 15  2  0
 15 16  1  0
 16 17  2  0
 17 18  1  0
 18 19  2  0
 25 26  1  0
 26 27  2  0
 26 28  1  0
 19 14  1  0
 21 24  1  0
  1  2  1  0
  5  6  1  0
  8 11  1  0
 28 29  1  0
M  END
> <minimizedAffinity>
-8.36240

> <CNNscore>
0.4123534858

> <CNNaffinity>
6.6374506950

> <CNN_VS>
2.7369759083

> <CNNaffinity_variance>
0.1022697911

$$$$



 37 37  0  0  0  0  0  0  0  0999 V2000
   34.8938   42.0624   -8.0282 N   0  0  0  0  0  0  0  0  0  0  0  0
   35.4228   41.4511   -8.6502 H   0  0  0  0  0  0  0  0  0  0  0  0
   33.5402   42.5033   -8.8370 P   0  0  0  0  0  0  0  0  0  0  0  0
   32.5567   41.4428   -9.2317 O   0  0  0  0  0  0  0  0  0  0  0  0
   32.8138   43.5099   -7.8038 O   0  0  0  0  0  0  0  0  0  0  0  0
   32.5511   43.0220   -7.0077 H   0  0  0  0  0  0  0  0  0  0  0  0
   33.9244   43.6265  -10.2045 C   0  0  0  0  0  0  0  0  0  0  0  0
   32.6778   44.0301  -10.8397 N   0  0  0  0  0  0  0  0  0  0  0  0
   32.6391   45.0140  -11.7758 C   0  0  0  0  0  0  0  0  0  0  0  0
   33.5584   45.7767  -12.0280 O   0  0  0  0  0  0  0  0  0  0  0  0
   31.8412   43.5782  -10.5842 H   0  0  0  0  0  0  0  0  0  0  0  0
   31.4276   45.0005  -12.3742 O   0  0  0  0  0  0  0  0  0  0  0  0
   31.4330   44.7159  -13.7781 C   0  0  0  0  0  0  0  0  0  0  0  0
   31.4782   43.2246  -13.9874 C   0  0  0  0  0  0  0  0  0  0  0  0
   32.6740   42.5982  -14.3652 C   0  0  0  0  0  0  0  0  0  0  0  0
   32.7235   41.2144  -14.5391 C   0  0  0  0  0  0  0  0  0  0  0  0
   31.5815   40.4433  -14.3304 C   0  0  0  0  0  0  0  0  0  0  0  0
   30.3902   41.0541  -13.9422 C   0  0  0  0  0  0  0  0  0  0  0  0
   30.3389   42.4380  -13.7668 C   0  0  0  0  0  0  0  0  0  0  0  0
   34.7830   41.3624   -6.7360 C   0  0  0  0  0  0  0  0  0  0  0  0
   35.8199   41.6261   -4.4921 N   0  0  0  0  0  0  0  0  0  0  0  0
   35.3589   42.2724   -5.6182 C   0  0  0  0  0  0  0  0  0  0  0  0
   35.3141   43.5011   -5.6938 O   0  0  0  0  0  0  0  0  0  0  0  0
   35.6626   40.6604   -4.3837 H   0  0  0  0  0  0  0  0  0  0  0  0
   36.5430   42.3670   -3.4542 C   0  0  0  0  0  0  0  0  0  0  0  0
   38.0268   42.3010   -3.8178 C   0  0  0  0  0  0  0  0  0  0  0  0
   38.8804   41.6546   -3.2270 O   0  0  0  0  0  0  0  0  0  0  0  0
   38.3580   43.0869   -4.8604 O   0  0  0  0  0  0  0  0  0  0  0  0
   37.6958   43.5779   -5.3058 H   0  0  0  0  0  0  0  0  0  0  0  0
   36.3384   41.7437   -2.0670 C   0  0  0  0  0  0  0  0  0  0  0  0
   36.9007   42.3697    0.3564 C   0  0  0  0  0  0  0  0  0  0  0  0
   36.1738   42.7703   -0.9270 C   0  0  0  0  0  0  0  0  0  0  0  0
   36.6757   44.1402   -1.3937 C   0  0  0  0  0  0  0  0  0  0  0  0
   35.4011   39.9501   -6.7591 C   0  0  0  0  0  0  0  0  0  0  0  0
   34.7475   38.9491   -7.7359 C   0  0  0  0  0  0  0  0  0  0  0  0
   33.3467   38.5314   -7.2856 C   0  0  0  0  0  0  0  0  0  0  0  0
   35.6362   37.7101   -7.8768 C   0  0  0  0  0  0  0  0  0  0  0  0
 31 32  1  0
 32 33  1  0
 32 30  1  0
 25 30  1  0
 25 21  1  0
 21 22  1  0
 22 23  2  0
 22 20  1  0
 20 34  1  0
 34 35  1  0
 35 36  1  0
 35 37  1  0
 20  1  1  0
  1  3  1  0
  3  4  2  0
  3  5  1  0
  3  7  1  0
  7  8  1  0
  8  9  1  0
  9 10  2  0
  9 12  1  0
 12 13  1  0
 13 14  1  0
 14 15  2  0
 15 16  1  0
 16 17  2  0
 17 18  1  0
 18 19  2  0
 25 26  1  0
 26 27  2  0
 26 28  1  0
 19 14  1  0
 21 24  1  0
  1  2  1  0
  5  6  1  0
  8 11  1  0
 28 29  1  0
M  END
> <minimizedAffinity>
-8.39516

> <CNNscore>
0.3848253191

> <CNNaffinity>
6.8672714233

> <CNN_VS>
2.6426999569

> <CNNaffinity_variance>
0.0491405874

$$$$



 37 37  0  0  0  0  0  0  0  0999 V2000
   36.6080   38.2312   -6.7024 N   0  0  0  0  0  0  0  0  0  0  0  0
   35.8884   38.2141   -5.9798 H   0  0  0  0  0  0  0  0  0  0  0  0
   37.7064   37.0845   -6.3035 P   0  0  0  0  0  0  0  0  0  0  0  0
   37.2671   35.9256   -5.4599 O   0  0  0  0  0  0  0  0  0  0  0  0
   38.1745   36.5170   -7.7413 O   0  0  0  0  0  0  0  0  0  0  0  0
   37.4240   36.0850   -8.1783 H   0  0  0  0  0  0  0  0  0  0  0  0
   39.2463   37.8252   -5.7042 C   0  0  0  0  0  0  0  0  0  0  0  0
   38.9162   38.9284   -4.8128 N   0  0  0  0  0  0  0  0  0  0  0  0
   39.7789   39.3540   -3.8533 C   0  0  0  0  0  0  0  0  0  0  0  0
   40.7877   38.7606   -3.5060 O   0  0  0  0  0  0  0  0  0  0  0  0
   38.0453   39.3775   -4.9079 H   0  0  0  0  0  0  0  0  0  0  0  0
   39.3373   40.5321   -3.3602 O   0  0  0  0  0  0  0  0  0  0  0  0
   37.9344   40.7796   -3.5098 C   0  0  0  0  0  0  0  0  0  0  0  0
   37.4899   41.7853   -2.4799 C   0  0  0  0  0  0  0  0  0  0  0  0
   37.0703   41.3618   -1.2111 C   0  0  0  0  0  0  0  0  0  0  0  0
   36.6782   42.2929   -0.2484 C   0  0  0  0  0  0  0  0  0  0  0  0
   36.7085   43.6551   -0.5415 C   0  0  0  0  0  0  0  0  0  0  0  0
   37.1359   44.0882   -1.7955 C   0  0  0  0  0  0  0  0  0  0  0  0
   37.5294   43.1585   -2.7595 C   0  0  0  0  0  0  0  0  0  0  0  0
   35.9111   38.1624   -7.9992 C   0  0  0  0  0  0  0  0  0  0  0  0
   35.4741   40.5501   -7.4629 N   0  0  0  0  0  0  0  0  0  0  0  0
   35.5578   39.6021   -8.4592 C   0  0  0  0  0  0  0  0  0  0  0  0
   35.2725   39.8581   -9.6300 O   0  0  0  0  0  0  0  0  0  0  0  0
   35.5163   40.2727   -6.5193 H   0  0  0  0  0  0  0  0  0  0  0  0
   35.3228   41.9690   -7.7987 C   0  0  0  0  0  0  0  0  0  0  0  0
   35.8062   42.7635   -6.5849 C   0  0  0  0  0  0  0  0  0  0  0  0
   36.9391   42.7485   -6.1246 O   0  0  0  0  0  0  0  0  0  0  0  0
   34.8328   43.4822   -5.9932 O   0  0  0  0  0  0  0  0  0  0  0  0
   33.9682   43.4866   -6.3544 H   0  0  0  0  0  0  0  0  0  0  0  0
   33.8590   42.3303   -8.0838 C   0  0  0  0  0  0  0  0  0  0  0  0
   33.3011   41.9883  -10.5643 C   0  0  0  0  0  0  0  0  0  0  0  0
   33.6237   42.9919   -9.4577 C   0  0  0  0  0  0  0  0  0  0  0  0
   32.4890   44.0149   -9.3471 C   0  0  0  0  0  0  0  0  0  0  0  0
   34.7014   37.2066   -7.9850 C   0  0  0  0  0  0  0  0  0  0  0  0
   33.3391   37.8555   -7.6589 C   0  0  0  0  0  0  0  0  0  0  0  0
   32.7043   38.5157   -8.8840 C   0  0  0  0  0  0  0  0  0  0  0  0
   33.5144   38.8922   -6.5456 C   0  0  0  0  0  0  0  0  0  0  0  0
 31 32  1  0
 32 33  1  0
 32 30  1  0
 25 30  1  0
 25 21  1  0
 21 22  1  0
 22 23  2  0
 22 20  1  0
 20 34  1  0
 34 35  1  0
 35 36  1  0
 35 37  1  0
 20  1  1  0
  1  3  1  0
  3  4  2  0
  3  5  1  0
  3  7  1  0
  7  8  1  0
  8  9  1  0
  9 10  2  0
  9 12  1  0
 12 13  1  0
 13 14  1  0
 14 15  2  0
 15 16  1  0
 16 17  2  0
 17 18  1  0
 18 19  2  0
 25 26  1  0
 26 27  2  0
 26 28  1  0
 19 14  1  0
 21 24  1  0
  1  2  1  0
  5  6  1  0
  8 11  1  0
 28 29  1  0
M  END
> <minimizedAffinity>
-6.93010

> <CNNscore>
0.2743562162

> <CNNaffinity>
6.6389565468

> <CNN_VS>
1.8214390278

> <CNNaffinity_variance>
0.1635597199

$$$$



 37 37  0  0  0  0  0  0  0  0999 V2000
   35.1008   39.8724   -6.4883 N   0  0  0  0  0  0  0  0  0  0  0  0
   34.1486   39.7108   -6.1601 H   0  0  0  0  0  0  0  0  0  0  0  0
   35.3980   38.7546   -7.6471 P   0  0  0  0  0  0  0  0  0  0  0  0
   36.1690   39.1647   -8.8658 O   0  0  0  0  0  0  0  0  0  0  0  0
   36.2537   37.6350   -6.8580 O   0  0  0  0  0  0  0  0  0  0  0  0
   37.0995   38.0155   -6.5737 H   0  0  0  0  0  0  0  0  0  0  0  0
   33.9032   37.8206   -8.0624 C   0  0  0  0  0  0  0  0  0  0  0  0
   33.6101   36.9018   -6.9714 N   0  0  0  0  0  0  0  0  0  0  0  0
   33.5210   35.5609   -7.1713 C   0  0  0  0  0  0  0  0  0  0  0  0
   33.4703   35.0179   -8.2636 O   0  0  0  0  0  0  0  0  0  0  0  0
   33.4730   37.2616   -6.0653 H   0  0  0  0  0  0  0  0  0  0  0  0
   33.5030   34.9404   -5.9710 O   0  0  0  0  0  0  0  0  0  0  0  0
   33.4789   33.5088   -6.0138 C   0  0  0  0  0  0  0  0  0  0  0  0
   33.4534   32.9653   -4.6089 C   0  0  0  0  0  0  0  0  0  0  0  0
   33.8500   33.7691   -3.5310 C   0  0  0  0  0  0  0  0  0  0  0  0
   33.8071   33.2749   -2.2267 C   0  0  0  0  0  0  0  0  0  0  0  0
   33.3611   31.9765   -1.9864 C   0  0  0  0  0  0  0  0  0  0  0  0
   32.9522   31.1727   -3.0493 C   0  0  0  0  0  0  0  0  0  0  0  0
   32.9935   31.6656   -4.3546 C   0  0  0  0  0  0  0  0  0  0  0  0
   35.2035   41.3076   -6.8075 C   0  0  0  0  0  0  0  0  0  0  0  0
   35.9924   41.3042   -4.4501 N   0  0  0  0  0  0  0  0  0  0  0  0
   35.6310   42.0792   -5.5304 C   0  0  0  0  0  0  0  0  0  0  0  0
   35.5555   43.3066   -5.4575 O   0  0  0  0  0  0  0  0  0  0  0  0
   35.8553   40.3297   -4.4797 H   0  0  0  0  0  0  0  0  0  0  0  0
   36.5799   41.9208   -3.2570 C   0  0  0  0  0  0  0  0  0  0  0  0
   37.8855   41.1770   -2.9734 C   0  0  0  0  0  0  0  0  0  0  0  0
   39.0113   41.5910   -3.2110 O   0  0  0  0  0  0  0  0  0  0  0  0
   37.6993   39.9448   -2.4622 O   0  0  0  0  0  0  0  0  0  0  0  0
   36.8322   39.6376   -2.2839 H   0  0  0  0  0  0  0  0  0  0  0  0
   35.6549   41.7923   -2.0395 C   0  0  0  0  0  0  0  0  0  0  0  0
   36.6912   42.2232    0.2674 C   0  0  0  0  0  0  0  0  0  0  0  0
   35.9326   42.8165   -0.9194 C   0  0  0  0  0  0  0  0  0  0  0  0
   36.7193   44.0004   -1.4902 C   0  0  0  0  0  0  0  0  0  0  0  0
   33.9307   41.8716   -7.4702 C   0  0  0  0  0  0  0  0  0  0  0  0
   33.9224   41.8695   -9.0139 C   0  0  0  0  0  0  0  0  0  0  0  0
   33.7869   43.2782   -9.5941 C   0  0  0  0  0  0  0  0  0  0  0  0
   32.7780   40.9884   -9.5228 C   0  0  0  0  0  0  0  0  0  0  0  0
 31 32  1  0
 32 33  1  0
 32 30  1  0
 25 30  1  0
 25 21  1  0
 21 22  1  0
 22 23  2  0
 22 20  1  0
 20 34  1  0
 34 35  1  0
 35 36  1  0
 35 37  1  0
 20  1  1  0
  1  3  1  0
  3  4  2  0
  3  5  1  0
  3  7  1  0
  7  8  1  0
  8  9  1  0
  9 10  2  0
  9 12  1  0
 12 13  1  0
 13 14  1  0
 14 15  2  0
 15 16  1  0
 16 17  2  0
 17 18  1  0
 18 19  2  0
 25 26  1  0
 26 27  2  0
 26 28  1  0
 19 14  1  0
 21 24  1  0
  1  2  1  0
  5  6  1  0
  8 11  1  0
 28 29  1  0
M  END
> <minimizedAffinity>
-7.34666

> <CNNscore>
0.2672610879

> <CNNaffinity>
6.7227706909

> <CNN_VS>
1.7967350483

> <CNNaffinity_variance>
0.1060418561

$$$$



 37 37  0  0  0  0  0  0  0  0999 V2000
   36.4477   41.4085   -2.6883 N   0  0  0  0  0  0  0  0  0  0  0  0
   35.8706   42.2223   -2.4761 H   0  0  0  0  0  0  0  0  0  0  0  0
   37.2499   41.7460   -4.0751 P   0  0  0  0  0  0  0  0  0  0  0  0
   38.6714   42.2153   -3.9917 O   0  0  0  0  0  0  0  0  0  0  0  0
   37.2266   40.3340   -4.8587 O   0  0  0  0  0  0  0  0  0  0  0  0
   37.7384   39.6786   -4.3592 H   0  0  0  0  0  0  0  0  0  0  0  0
   36.2513   42.7741   -5.1820 C   0  0  0  0  0  0  0  0  0  0  0  0
   35.9770   42.0197   -6.3969 N   0  0  0  0  0  0  0  0  0  0  0  0
   34.8611   42.2425   -7.1393 C   0  0  0  0  0  0  0  0  0  0  0  0
   33.9066   42.9155   -6.7837 O   0  0  0  0  0  0  0  0  0  0  0  0
   36.6168   41.3303   -6.6880 H   0  0  0  0  0  0  0  0  0  0  0  0
   34.9895   41.6042   -8.3235 O   0  0  0  0  0  0  0  0  0  0  0  0
   33.7644   41.1964   -8.9436 C   0  0  0  0  0  0  0  0  0  0  0  0
   33.5666   41.9706  -10.2208 C   0  0  0  0  0  0  0  0  0  0  0  0
   33.1005   41.3260  -11.3751 C   0  0  0  0  0  0  0  0  0  0  0  0
   32.8964   42.0452  -12.5534 C   0  0  0  0  0  0  0  0  0  0  0  0
   33.1490   43.4153  -12.5876 C   0  0  0  0  0  0  0  0  0  0  0  0
   33.6007   44.0690  -11.4424 C   0  0  0  0  0  0  0  0  0  0  0  0
   33.8045   43.3515  -10.2625 C   0  0  0  0  0  0  0  0  0  0  0  0
   37.2009   41.0891   -1.4624 C   0  0  0  0  0  0  0  0  0  0  0  0
   38.4541   39.0952   -2.2583 N   0  0  0  0  0  0  0  0  0  0  0  0
   37.4669   39.5606   -1.4174 C   0  0  0  0  0  0  0  0  0  0  0  0
   36.7699   38.7997   -0.7445 O   0  0  0  0  0  0  0  0  0  0  0  0
   38.8564   39.7007   -2.9223 H   0  0  0  0  0  0  0  0  0  0  0  0
   38.9095   37.7045   -2.1710 C   0  0  0  0  0  0  0  0  0  0  0  0
   38.0826   36.9055   -3.1790 C   0  0  0  0  0  0  0  0  0  0  0  0
   37.5016   35.8533   -2.9539 O   0  0  0  0  0  0  0  0  0  0  0  0
   38.0792   37.4427   -4.4141 O   0  0  0  0  0  0  0  0  0  0  0  0
   38.5278   38.2495   -4.5754 H   0  0  0  0  0  0  0  0  0  0  0  0
   38.6883   37.1234   -0.7682 C   0  0  0  0  0  0  0  0  0  0  0  0
   40.6517   36.1241    0.5464 C   0  0  0  0  0  0  0  0  0  0  0  0
   39.5306   35.8678   -0.4604 C   0  0  0  0  0  0  0  0  0  0  0  0
   38.6185   34.7533    0.0613 C   0  0  0  0  0  0  0  0  0  0  0  0
   36.5341   41.6356   -0.1841 C   0  0  0  0  0  0  0  0  0  0  0  0
   37.1728   42.9081    0.4126 C   0  0  0  0  0  0  0  0  0  0  0  0
   38.0956   43.6139   -0.5823 C   0  0  0  0  0  0  0  0  0  0  0  0
   37.9558   42.5479    1.6783 C   0  0  0  0  0  0  0  0  0  0  0  0
 31 32  1  0
 32 33  1  0
 32 30  1  0
 25 30  1  0
 25 21  1  0
 21 22  1  0
 22 23  2  0
 22 20  1  0
 20 34  1  0
 34 35  1  0
 35 36  1  0
 35 37  1  0
 20  1  1  0
  1  3  1  0
  3  4  2  0
  3  5  1  0
  3  7  1  0
  7  8  1  0
  8  9  1  0
  9 10  2  0
  9 12  1  0
 12 13  1  0
 13 14  1  0
 14 15  2  0
 15 16  1  0
 16 17  2  0
 17 18  1  0
 18 19  2  0
 25 26  1  0
 26 27  2  0
 26 28  1  0
 19 14  1  0
 21 24  1  0
  1  2  1  0
  5  6  1  0
  8 11  1  0
 28 29  1  0
M  END
> <minimizedAffinity>
-8.07900

> <CNNscore>
0.2456480265

> <CNNaffinity>
6.0966935158

> <CNN_VS>
1.4976407290

> <CNNaffinity_variance>
0.2042170614

$$$$
