


 39 44  0  0  0  0  0  0  0  0999 V2000
   39.4687   32.8528   30.8511 C   0  0  0  0  0  0  0  0  0  0  0  0
   39.6812   32.0124   32.0843 C   0  0  0  0  0  0  0  0  0  0  0  0
   38.5652   31.3892   32.6717 C   0  0  0  0  0  0  0  0  0  0  0  0
   38.7048   30.6023   33.8142 C   0  0  0  0  0  0  0  0  0  0  0  0
   39.9688   30.4287   34.3801 C   0  0  0  0  0  0  0  0  0  0  0  0
   41.0877   31.0438   33.8095 C   0  0  0  0  0  0  0  0  0  0  0  0
   40.9666   31.8256   32.6465 C   0  0  0  0  0  0  0  0  0  0  0  0
   42.1790   32.4132   32.0532 C   0  0  0  0  0  0  0  0  0  0  0  0
   42.8956   31.7176   31.0611 C   0  0  0  0  0  0  0  0  0  0  0  0
   44.0599   32.2449   30.4767 C   0  0  0  0  0  0  0  0  0  0  0  0
   44.5084   33.5046   30.9050 C   0  0  0  0  0  0  0  0  0  0  0  0
   45.5853   34.3862   30.6208 C   0  0  0  0  0  0  0  0  0  0  0  0
   45.5145   35.5004   31.3670 N   0  0  0  0  0  0  0  0  0  0  0  0
   44.3794   35.3613   32.1460 O   0  0  0  0  0  0  0  0  0  0  0  0
   43.7831   34.1711   31.8745 C   0  0  0  0  0  0  0  0  0  0  0  0
   42.6247   33.6800   32.4708 C   0  0  0  0  0  0  0  0  0  0  0  0
   46.7095   34.1933   29.6473 C   0  0  0  0  0  0  0  0  0  0  0  0
   48.0115   34.8436   30.1325 C   0  0  0  0  0  0  0  0  0  0  0  0
   49.1335   34.6278   29.1165 C   0  0  0  0  0  0  0  0  0  0  0  0
   49.2241   33.2707   28.5741 N   0  0  0  0  0  0  0  0  0  0  0  0
   48.3963   32.3100   29.2957 C   0  0  0  0  0  0  0  0  0  0  0  0
   46.9226   32.7102   29.2846 C   0  0  0  0  0  0  0  0  0  0  0  0
   50.1958   32.9649   28.6250 H   0  0  0  0  0  0  0  0  0  0  0  0
   40.1478   29.6058   35.6024 C   0  0  0  0  0  0  0  0  0  0  0  0
   40.9880   29.9582   36.4194 O   0  0  0  0  0  0  0  0  0  0  0  0
   39.3399   28.4861   35.6482 N   0  0  0  0  0  0  0  0  0  0  0  0
   38.7678   28.3279   34.8628 H   0  0  0  0  0  0  0  0  0  0  0  0
   39.2421   27.5441   36.6934 C   0  0  0  0  0  0  0  0  0  0  0  0
   38.9973   26.1894   36.4938 C   0  0  0  0  0  0  0  0  0  0  0  0
   38.9404   25.3251   37.5857 C   0  0  0  0  0  0  0  0  0  0  0  0
   39.1172   25.8102   38.8849 C   0  0  0  0  0  0  0  0  0  0  0  0
   39.3440   27.1705   39.1272 C   0  0  0  0  0  0  0  0  0  0  0  0
   39.4208   28.0158   38.0042 C   0  0  0  0  0  0  0  0  0  0  0  0
   39.5205   27.7165   40.4117 N   0  0  0  0  0  0  0  0  0  0  0  0
   39.7220   26.6865   41.4627 C   0  0  0  0  0  0  0  0  0  0  0  0
   39.6921   27.3408   42.8548 C   0  0  0  0  0  0  0  0  0  0  0  0
   40.6592   28.3970   42.9692 O   0  0  0  0  0  0  0  0  0  0  0  0
   40.3992   29.4082   41.9822 C   0  0  0  0  0  0  0  0  0  0  0  0
   40.4788   28.8341   40.5589 C   0  0  0  0  0  0  0  0  0  0  0  0
  1  2  1  0
  2  3  2  0
  3  4  1  0
  4  5  2  0
  5 24  1  0
 24 25  2  0
 24 26  1  0
 26 28  1  0
 28 29  2  0
 29 30  1  0
 30 31  2  0
 31 32  1  0
 32 34  1  0
 34 35  1  0
 35 36  1  0
 36 37  1  0
 37 38  1  0
 38 39  1  0
 32 33  2  0
  5  6  1  0
  6  7  2  0
  7  8  1  0
  8  9  2  0
  9 10  1  0
 10 11  2  0
 11 12  1  0
 12 17  1  0
 17 18  1  0
 18 19  1  0
 19 20  1  0
 20 21  1  0
 21 22  1  0
 12 13  2  0
 13 14  1  0
 14 15  1  0
 15 16  2  0
  7  2  1  0
 16  8  1  0
 33 28  1  0
 15 11  1  0
 39 34  1  0
 22 17  1  0
 26 27  1  0
 20 23  1  0
M  END
> <minimizedAffinity>
-14.25052

> <CNNscore>
0.9913122654

> <CNNaffinity>
8.3995008469

> <CNN_VS>
8.3265285492

> <CNNaffinity_variance>
0.3092320859

$$$$



 39 44  0  0  0  0  0  0  0  0999 V2000
   39.5711   32.8258   30.7810 C   0  0  0  0  0  0  0  0  0  0  0  0
   39.7938   32.0317   32.0427 C   0  0  0  0  0  0  0  0  0  0  0  0
   38.6839   31.4245   32.6577 C   0  0  0  0  0  0  0  0  0  0  0  0
   38.8330   30.6802   33.8272 C   0  0  0  0  0  0  0  0  0  0  0  0
   40.1005   30.5336   34.3929 C   0  0  0  0  0  0  0  0  0  0  0  0
   41.2135   31.1334   33.7949 C   0  0  0  0  0  0  0  0  0  0  0  0
   41.0828   31.8720   32.6050 C   0  0  0  0  0  0  0  0  0  0  0  0
   42.2892   32.4438   31.9849 C   0  0  0  0  0  0  0  0  0  0  0  0
   42.9729   31.7404   30.9752 C   0  0  0  0  0  0  0  0  0  0  0  0
   44.1307   32.2527   30.3650 C   0  0  0  0  0  0  0  0  0  0  0  0
   44.6065   33.5050   30.7850 C   0  0  0  0  0  0  0  0  0  0  0  0
   45.6889   34.3722   30.4776 C   0  0  0  0  0  0  0  0  0  0  0  0
   45.6510   35.4856   31.2273 N   0  0  0  0  0  0  0  0  0  0  0  0
   44.5323   35.3607   32.0321 O   0  0  0  0  0  0  0  0  0  0  0  0
   43.9133   34.1795   31.7723 C   0  0  0  0  0  0  0  0  0  0  0  0
   42.7623   33.7033   32.3943 C   0  0  0  0  0  0  0  0  0  0  0  0
   46.7875   34.1656   29.4780 C   0  0  0  0  0  0  0  0  0  0  0  0
   47.8471   35.2727   29.5477 C   0  0  0  0  0  0  0  0  0  0  0  0
   48.9492   35.0303   28.5160 C   0  0  0  0  0  0  0  0  0  0  0  0
   49.4279   33.6489   28.4354 N   0  0  0  0  0  0  0  0  0  0  0  0
   48.9520   32.8137   29.5331 C   0  0  0  0  0  0  0  0  0  0  0  0
   47.4266   32.7673   29.5901 C   0  0  0  0  0  0  0  0  0  0  0  0
   50.4477   33.6571   28.4522 H   0  0  0  0  0  0  0  0  0  0  0  0
   40.2897   29.7564   35.6432 C   0  0  0  0  0  0  0  0  0  0  0  0
   41.2271   30.0520   36.3722 O   0  0  0  0  0  0  0  0  0  0  0  0
   39.3724   28.7378   35.8148 N   0  0  0  0  0  0  0  0  0  0  0  0
   38.7241   28.6065   35.0856 H   0  0  0  0  0  0  0  0  0  0  0  0
   39.2599   27.8646   36.9168 C   0  0  0  0  0  0  0  0  0  0  0  0
   39.5177   28.2401   38.2312 C   0  0  0  0  0  0  0  0  0  0  0  0
   39.3574   27.3161   39.2621 C   0  0  0  0  0  0  0  0  0  0  0  0
   38.9488   26.0080   38.9857 C   0  0  0  0  0  0  0  0  0  0  0  0
   38.7008   25.5869   37.6736 C   0  0  0  0  0  0  0  0  0  0  0  0
   38.8471   26.5479   36.6554 C   0  0  0  0  0  0  0  0  0  0  0  0
   38.2962   24.2828   37.3349 N   0  0  0  0  0  0  0  0  0  0  0  0
   38.0908   24.0941   35.8760 C   0  0  0  0  0  0  0  0  0  0  0  0
   37.4486   22.7222   35.6070 C   0  0  0  0  0  0  0  0  0  0  0  0
   38.2250   21.6505   36.1660 O   0  0  0  0  0  0  0  0  0  0  0  0
   38.3516   21.8263   37.5864 C   0  0  0  0  0  0  0  0  0  0  0  0
   39.0479   23.1536   37.9258 C   0  0  0  0  0  0  0  0  0  0  0  0
  1  2  1  0
  2  3  2  0
  3  4  1  0
  4  5  2  0
  5 24  1  0
 24 25  2  0
 24 26  1  0
 26 28  1  0
 28 29  2  0
 29 30  1  0
 30 31  2  0
 31 32  1  0
 32 34  1  0
 34 35  1  0
 35 36  1  0
 36 37  1  0
 37 38  1  0
 38 39  1  0
 32 33  2  0
  5  6  1  0
  6  7  2  0
  7  8  1  0
  8  9  2  0
  9 10  1  0
 10 11  2  0
 11 12  1  0
 12 17  1  0
 17 18  1  0
 18 19  1  0
 19 20  1  0
 20 21  1  0
 21 22  1  0
 12 13  2  0
 13 14  1  0
 14 15  1  0
 15 16  2  0
  7  2  1  0
 16  8  1  0
 33 28  1  0
 15 11  1  0
 39 34  1  0
 22 17  1  0
 26 27  1  0
 20 23  1  0
M  END
> <minimizedAffinity>
-13.92349

> <CNNscore>
0.9750767946

> <CNNaffinity>
8.2601137161

> <CNN_VS>
8.0542449951

> <CNNaffinity_variance>
0.0766283572

$$$$



 39 44  0  0  0  0  0  0  0  0999 V2000
   39.9165   32.6501   30.5562 C   0  0  0  0  0  0  0  0  0  0  0  0
   40.0425   31.8543   31.8300 C   0  0  0  0  0  0  0  0  0  0  0  0
   38.8698   31.5239   32.5332 C   0  0  0  0  0  0  0  0  0  0  0  0
   38.9289   30.7910   33.7179 C   0  0  0  0  0  0  0  0  0  0  0  0
   40.1678   30.3776   34.2103 C   0  0  0  0  0  0  0  0  0  0  0  0
   41.3429   30.7003   33.5241 C   0  0  0  0  0  0  0  0  0  0  0  0
   41.2990   31.4231   32.3182 C   0  0  0  0  0  0  0  0  0  0  0  0
   42.5575   31.6973   31.6054 C   0  0  0  0  0  0  0  0  0  0  0  0
   43.0869   33.0012   31.5703 C   0  0  0  0  0  0  0  0  0  0  0  0
   44.2824   33.3009   30.8950 C   0  0  0  0  0  0  0  0  0  0  0  0
   44.9578   32.2578   30.2416 C   0  0  0  0  0  0  0  0  0  0  0  0
   46.1352   32.0966   29.4633 C   0  0  0  0  0  0  0  0  0  0  0  0
   46.2944   30.8206   29.0766 N   0  0  0  0  0  0  0  0  0  0  0  0
   45.2203   30.1285   29.6078 O   0  0  0  0  0  0  0  0  0  0  0  0
   44.4220   30.9849   30.2972 C   0  0  0  0  0  0  0  0  0  0  0  0
   43.2434   30.6530   30.9597 C   0  0  0  0  0  0  0  0  0  0  0  0
   47.1300   33.1434   29.0590 C   0  0  0  0  0  0  0  0  0  0  0  0
   46.6535   34.5588   29.4097 C   0  0  0  0  0  0  0  0  0  0  0  0
   47.6905   35.5982   28.9832 C   0  0  0  0  0  0  0  0  0  0  0  0
   49.0770   35.2582   29.3090 N   0  0  0  0  0  0  0  0  0  0  0  0
   49.1892   34.1171   30.2113 C   0  0  0  0  0  0  0  0  0  0  0  0
   48.5359   32.8663   29.6274 C   0  0  0  0  0  0  0  0  0  0  0  0
   49.5141   36.0665   29.7518 H   0  0  0  0  0  0  0  0  0  0  0  0
   40.2640   29.6054   35.4743 C   0  0  0  0  0  0  0  0  0  0  0  0
   41.0179   30.0153   36.3468 O   0  0  0  0  0  0  0  0  0  0  0  0
   39.4902   28.4612   35.4931 N   0  0  0  0  0  0  0  0  0  0  0  0
   38.9945   28.2556   34.6677 H   0  0  0  0  0  0  0  0  0  0  0  0
   39.3301   27.5543   36.5614 C   0  0  0  0  0  0  0  0  0  0  0  0
   39.0438   26.2034   36.3934 C   0  0  0  0  0  0  0  0  0  0  0  0
   38.9260   25.3743   37.5074 C   0  0  0  0  0  0  0  0  0  0  0  0
   39.0829   25.8912   38.7969 C   0  0  0  0  0  0  0  0  0  0  0  0
   39.3503   27.2494   39.0068 C   0  0  0  0  0  0  0  0  0  0  0  0
   39.4882   28.0581   37.8628 C   0  0  0  0  0  0  0  0  0  0  0  0
   39.5094   27.8267   40.2798 N   0  0  0  0  0  0  0  0  0  0  0  0
   39.5922   26.8229   41.3714 C   0  0  0  0  0  0  0  0  0  0  0  0
   39.5487   27.5263   42.7390 C   0  0  0  0  0  0  0  0  0  0  0  0
   40.5822   28.5164   42.8632 O   0  0  0  0  0  0  0  0  0  0  0  0
   40.4371   29.5078   41.8334 C   0  0  0  0  0  0  0  0  0  0  0  0
   40.5372   28.8799   40.4344 C   0  0  0  0  0  0  0  0  0  0  0  0
  1  2  1  0
  2  3  2  0
  3  4  1  0
  4  5  2  0
  5 24  1  0
 24 25  2  0
 24 26  1  0
 26 28  1  0
 28 29  2  0
 29 30  1  0
 30 31  2  0
 31 32  1  0
 32 34  1  0
 34 35  1  0
 35 36  1  0
 36 37  1  0
 37 38  1  0
 38 39  1  0
 32 33  2  0
  5  6  1  0
  6  7  2  0
  7  8  1  0
  8  9  2  0
  9 10  1  0
 10 11  2  0
 11 12  1  0
 12 17  1  0
 17 18  1  0
 18 19  1  0
 19 20  1  0
 20 21  1  0
 21 22  1  0
 12 13  2  0
 13 14  1  0
 14 15  1  0
 15 16  2  0
  7  2  1  0
 16  8  1  0
 33 28  1  0
 15 11  1  0
 39 34  1  0
 22 17  1  0
 26 27  1  0
 20 23  1  0
M  END
> <minimizedAffinity>
-13.35783

> <CNNscore>
0.9636955261

> <CNNaffinity>
8.1846818924

> <CNN_VS>
7.8875412941

> <CNNaffinity_variance>
0.1982422322

$$$$



 39 44  0  0  0  0  0  0  0  0999 V2000
   39.6770   32.7250   30.8566 C   0  0  0  0  0  0  0  0  0  0  0  0
   39.7633   31.8275   32.0645 C   0  0  0  0  0  0  0  0  0  0  0  0
   38.5820   31.5402   32.7724 C   0  0  0  0  0  0  0  0  0  0  0  0
   38.6051   30.7175   33.8978 C   0  0  0  0  0  0  0  0  0  0  0  0
   39.8156   30.1696   34.3252 C   0  0  0  0  0  0  0  0  0  0  0  0
   40.9989   30.4478   33.6337 C   0  0  0  0  0  0  0  0  0  0  0  0
   40.9899   31.2609   32.4860 C   0  0  0  0  0  0  0  0  0  0  0  0
   42.2517   31.4862   31.7620 C   0  0  0  0  0  0  0  0  0  0  0  0
   42.9661   30.4006   31.2208 C   0  0  0  0  0  0  0  0  0  0  0  0
   44.1765   30.5774   30.5288 C   0  0  0  0  0  0  0  0  0  0  0  0
   44.6745   31.8816   30.3802 C   0  0  0  0  0  0  0  0  0  0  0  0
   45.8054   32.5117   29.7955 C   0  0  0  0  0  0  0  0  0  0  0  0
   45.7662   33.8430   29.9672 N   0  0  0  0  0  0  0  0  0  0  0  0
   44.5982   34.0994   30.6635 O   0  0  0  0  0  0  0  0  0  0  0  0
   43.9507   32.9314   30.9135 C   0  0  0  0  0  0  0  0  0  0  0  0
   42.7477   32.7922   31.6005 C   0  0  0  0  0  0  0  0  0  0  0  0
   46.9521   31.8719   29.0713 C   0  0  0  0  0  0  0  0  0  0  0  0
   48.2010   31.7571   29.9547 C   0  0  0  0  0  0  0  0  0  0  0  0
   49.3481   31.1020   29.1846 C   0  0  0  0  0  0  0  0  0  0  0  0
   48.9727   29.9248   28.3990 N   0  0  0  0  0  0  0  0  0  0  0  0
   47.6307   29.4390   28.7024 C   0  0  0  0  0  0  0  0  0  0  0  0
   46.5708   30.5106   28.4567 C   0  0  0  0  0  0  0  0  0  0  0  0
   49.6400   29.1783   28.5936 H   0  0  0  0  0  0  0  0  0  0  0  0
   39.8740   29.2988   35.5258 C   0  0  0  0  0  0  0  0  0  0  0  0
   40.5720   29.6551   36.4657 O   0  0  0  0  0  0  0  0  0  0  0  0
   39.1352   28.1370   35.4127 N   0  0  0  0  0  0  0  0  0  0  0  0
   38.6864   27.9871   34.5493 H   0  0  0  0  0  0  0  0  0  0  0  0
   38.9512   27.1413   36.3946 C   0  0  0  0  0  0  0  0  0  0  0  0
   38.1528   27.3043   37.5220 C   0  0  0  0  0  0  0  0  0  0  0  0
   38.0093   26.2564   38.4295 C   0  0  0  0  0  0  0  0  0  0  0  0
   38.6708   25.0423   38.2222 C   0  0  0  0  0  0  0  0  0  0  0  0
   39.4999   24.8480   37.1108 C   0  0  0  0  0  0  0  0  0  0  0  0
   39.6066   25.9147   36.1985 C   0  0  0  0  0  0  0  0  0  0  0  0
   40.1964   23.6527   36.8551 N   0  0  0  0  0  0  0  0  0  0  0  0
   39.5598   22.4610   37.4721 C   0  0  0  0  0  0  0  0  0  0  0  0
   40.4834   21.2384   37.3331 C   0  0  0  0  0  0  0  0  0  0  0  0
   40.8363   20.9890   35.9630 O   0  0  0  0  0  0  0  0  0  0  0  0
   41.5071   22.1346   35.4135 C   0  0  0  0  0  0  0  0  0  0  0  0
   40.6120   23.3829   35.4609 C   0  0  0  0  0  0  0  0  0  0  0  0
  1  2  1  0
  2  3  2  0
  3  4  1  0
  4  5  2  0
  5 24  1  0
 24 25  2  0
 24 26  1  0
 26 28  1  0
 28 29  2  0
 29 30  1  0
 30 31  2  0
 31 32  1  0
 32 34  1  0
 34 35  1  0
 35 36  1  0
 36 37  1  0
 37 38  1  0
 38 39  1  0
 32 33  2  0
  5  6  1  0
  6  7  2  0
  7  8  1  0
  8  9  2  0
  9 10  1  0
 10 11  2  0
 11 12  1  0
 12 17  1  0
 17 18  1  0
 18 19  1  0
 19 20  1  0
 20 21  1  0
 21 22  1  0
 12 13  2  0
 13 14  1  0
 14 15  1  0
 15 16  2  0
  7  2  1  0
 16  8  1  0
 33 28  1  0
 15 11  1  0
 39 34  1  0
 22 17  1  0
 26 27  1  0
 20 23  1  0
M  END
> <minimizedAffinity>
-12.15188

> <CNNscore>
0.9114052653

> <CNNaffinity>
8.0598230362

> <CNN_VS>
7.3457651138

> <CNNaffinity_variance>
0.0146513833

$$$$



 39 44  0  0  0  0  0  0  0  0999 V2000
   40.0701   32.8703   30.5077 C   0  0  0  0  0  0  0  0  0  0  0  0
   40.2026   32.1139   31.8047 C   0  0  0  0  0  0  0  0  0  0  0  0
   39.0501   31.5303   32.3615 C   0  0  0  0  0  0  0  0  0  0  0  0
   39.1156   30.8213   33.5602 C   0  0  0  0  0  0  0  0  0  0  0  0
   40.3414   30.6865   34.2141 C   0  0  0  0  0  0  0  0  0  0  0  0
   41.4957   31.2631   33.6746 C   0  0  0  0  0  0  0  0  0  0  0  0
   41.4499   31.9658   32.4570 C   0  0  0  0  0  0  0  0  0  0  0  0
   42.6988   32.5135   31.9027 C   0  0  0  0  0  0  0  0  0  0  0  0
   43.2068   33.7410   32.3682 C   0  0  0  0  0  0  0  0  0  0  0  0
   44.3927   34.2968   31.8582 C   0  0  0  0  0  0  0  0  0  0  0  0
   45.0803   33.5943   30.8558 C   0  0  0  0  0  0  0  0  0  0  0  0
   46.2548   33.7632   30.0747 C   0  0  0  0  0  0  0  0  0  0  0  0
   46.4319   32.7345   29.2300 N   0  0  0  0  0  0  0  0  0  0  0  0
   45.3727   31.8733   29.4568 O   0  0  0  0  0  0  0  0  0  0  0  0
   44.5656   32.3874   30.4212 C   0  0  0  0  0  0  0  0  0  0  0  0
   43.3970   31.8070   30.9070 C   0  0  0  0  0  0  0  0  0  0  0  0
   47.2298   34.9023   30.1007 C   0  0  0  0  0  0  0  0  0  0  0  0
   48.6276   34.4556   30.5477 C   0  0  0  0  0  0  0  0  0  0  0  0
   49.5935   35.6408   30.5630 C   0  0  0  0  0  0  0  0  0  0  0  0
   49.5128   36.5194   29.3945 N   0  0  0  0  0  0  0  0  0  0  0  0
   48.7125   35.9582   28.3111 C   0  0  0  0  0  0  0  0  0  0  0  0
   47.2834   35.6585   28.7584 C   0  0  0  0  0  0  0  0  0  0  0  0
   50.4574   36.6860   29.0476 H   0  0  0  0  0  0  0  0  0  0  0  0
   40.4412   29.9467   35.4970 C   0  0  0  0  0  0  0  0  0  0  0  0
   41.2797   30.3103   36.3109 O   0  0  0  0  0  0  0  0  0  0  0  0
   39.5685   28.8808   35.5994 N   0  0  0  0  0  0  0  0  0  0  0  0
   39.0082   28.6978   34.8109 H   0  0  0  0  0  0  0  0  0  0  0  0
   39.3896   28.0250   36.7063 C   0  0  0  0  0  0  0  0  0  0  0  0
   39.5649   28.4221   38.0278 C   0  0  0  0  0  0  0  0  0  0  0  0
   39.3429   27.5142   39.0616 C   0  0  0  0  0  0  0  0  0  0  0  0
   38.9545   26.2007   38.7816 C   0  0  0  0  0  0  0  0  0  0  0  0
   38.7888   25.7581   37.4636 C   0  0  0  0  0  0  0  0  0  0  0  0
   38.9960   26.7031   36.4411 C   0  0  0  0  0  0  0  0  0  0  0  0
   38.4082   24.4476   37.1215 N   0  0  0  0  0  0  0  0  0  0  0  0
   38.2642   24.2434   35.6574 C   0  0  0  0  0  0  0  0  0  0  0  0
   37.6439   22.8640   35.3759 C   0  0  0  0  0  0  0  0  0  0  0  0
   38.4047   21.8038   35.9767 O   0  0  0  0  0  0  0  0  0  0  0  0
   38.4718   21.9942   37.3992 C   0  0  0  0  0  0  0  0  0  0  0  0
   39.1436   23.3301   37.7537 C   0  0  0  0  0  0  0  0  0  0  0  0
  1  2  1  0
  2  3  2  0
  3  4  1  0
  4  5  2  0
  5 24  1  0
 24 25  2  0
 24 26  1  0
 26 28  1  0
 28 29  2  0
 29 30  1  0
 30 31  2  0
 31 32  1  0
 32 34  1  0
 34 35  1  0
 35 36  1  0
 36 37  1  0
 37 38  1  0
 38 39  1  0
 32 33  2  0
  5  6  1  0
  6  7  2  0
  7  8  1  0
  8  9  2  0
  9 10  1  0
 10 11  2  0
 11 12  1  0
 12 17  1  0
 17 18  1  0
 18 19  1  0
 19 20  1  0
 20 21  1  0
 21 22  1  0
 12 13  2  0
 13 14  1  0
 14 15  1  0
 15 16  2  0
  7  2  1  0
 16  8  1  0
 33 28  1  0
 15 11  1  0
 39 34  1  0
 22 17  1  0
 26 27  1  0
 20 23  1  0
M  END
> <minimizedAffinity>
-13.06735

> <CNNscore>
0.9061022401

> <CNNaffinity>
7.9970397949

> <CNN_VS>
7.2461357117

> <CNNaffinity_variance>
0.0781467855

$$$$



 39 44  0  0  0  0  0  0  0  0999 V2000
   37.8252   31.1455   32.6086 C   0  0  0  0  0  0  0  0  0  0  0  0
   39.2421   31.6301   32.4366 C   0  0  0  0  0  0  0  0  0  0  0  0
   39.5188   32.5395   31.3996 C   0  0  0  0  0  0  0  0  0  0  0  0
   40.8120   33.0183   31.1946 C   0  0  0  0  0  0  0  0  0  0  0  0
   41.8446   32.5918   32.0313 C   0  0  0  0  0  0  0  0  0  0  0  0
   41.5862   31.6860   33.0651 C   0  0  0  0  0  0  0  0  0  0  0  0
   40.2838   31.2077   33.2966 C   0  0  0  0  0  0  0  0  0  0  0  0
   40.0505   30.2939   34.4269 C   0  0  0  0  0  0  0  0  0  0  0  0
   39.3705   29.0770   34.2305 C   0  0  0  0  0  0  0  0  0  0  0  0
   39.1250   28.1831   35.2868 C   0  0  0  0  0  0  0  0  0  0  0  0
   39.5786   28.5276   36.5701 C   0  0  0  0  0  0  0  0  0  0  0  0
   39.5523   27.9696   37.8762 C   0  0  0  0  0  0  0  0  0  0  0  0
   40.1615   28.7731   38.7631 N   0  0  0  0  0  0  0  0  0  0  0  0
   40.6018   29.8678   38.0402 O   0  0  0  0  0  0  0  0  0  0  0  0
   40.2507   29.7239   36.7357 C   0  0  0  0  0  0  0  0  0  0  0  0
   40.5139   30.6297   35.7115 C   0  0  0  0  0  0  0  0  0  0  0  0
   38.9440   26.6721   38.3181 C   0  0  0  0  0  0  0  0  0  0  0  0
   39.1360   25.5607   37.2784 C   0  0  0  0  0  0  0  0  0  0  0  0
   38.5037   24.2551   37.7614 C   0  0  0  0  0  0  0  0  0  0  0  0
   38.7739   23.9176   39.1604 N   0  0  0  0  0  0  0  0  0  0  0  0
   39.8097   24.7521   39.7602 C   0  0  0  0  0  0  0  0  0  0  0  0
   39.4443   26.2339   39.7089 C   0  0  0  0  0  0  0  0  0  0  0  0
   39.0738   22.9438   39.2075 H   0  0  0  0  0  0  0  0  0  0  0  0
   43.2337   33.0754   31.8317 C   0  0  0  0  0  0  0  0  0  0  0  0
   43.7536   33.7278   32.7270 O   0  0  0  0  0  0  0  0  0  0  0  0
   43.7707   32.7470   30.6020 N   0  0  0  0  0  0  0  0  0  0  0  0
   43.1759   32.2705   29.9788 H   0  0  0  0  0  0  0  0  0  0  0  0
   45.0751   33.0175   30.1385 C   0  0  0  0  0  0  0  0  0  0  0  0
   45.5923   34.2999   29.9872 C   0  0  0  0  0  0  0  0  0  0  0  0
   46.9025   34.4732   29.5448 C   0  0  0  0  0  0  0  0  0  0  0  0
   47.7012   33.3668   29.2405 C   0  0  0  0  0  0  0  0  0  0  0  0
   47.2088   32.0615   29.3597 C   0  0  0  0  0  0  0  0  0  0  0  0
   45.8908   31.9159   29.8319 C   0  0  0  0  0  0  0  0  0  0  0  0
   47.9624   30.9118   29.0601 N   0  0  0  0  0  0  0  0  0  0  0  0
   49.3908   31.0304   29.4498 C   0  0  0  0  0  0  0  0  0  0  0  0
   50.1880   29.8343   28.9017 C   0  0  0  0  0  0  0  0  0  0  0  0
   49.6336   28.5808   29.3322 O   0  0  0  0  0  0  0  0  0  0  0  0
   48.2728   28.4677   28.8853 C   0  0  0  0  0  0  0  0  0  0  0  0
   47.4019   29.5999   29.4524 C   0  0  0  0  0  0  0  0  0  0  0  0
  1  2  1  0
  2  3  2  0
  3  4  1  0
  4  5  2  0
  5 24  1  0
 24 25  2  0
 24 26  1  0
 26 28  1  0
 28 29  2  0
 29 30  1  0
 30 31  2  0
 31 32  1  0
 32 34  1  0
 34 35  1  0
 35 36  1  0
 36 37  1  0
 37 38  1  0
 38 39  1  0
 32 33  2  0
  5  6  1  0
  6  7  2  0
  7  8  1  0
  8  9  2  0
  9 10  1  0
 10 11  2  0
 11 12  1  0
 12 17  1  0
 17 18  1  0
 18 19  1  0
 19 20  1  0
 20 21  1  0
 21 22  1  0
 12 13  2  0
 13 14  1  0
 14 15  1  0
 15 16  2  0
  7  2  1  0
 16  8  1  0
 33 28  1  0
 15 11  1  0
 39 34  1  0
 22 17  1  0
 26 27  1  0
 20 23  1  0
M  END
> <minimizedAffinity>
-10.25611

> <CNNscore>
0.6918632388

> <CNNaffinity>
7.9600462914

> <CNN_VS>
5.5072631836

> <CNNaffinity_variance>
0.0086872578

$$$$



 39 44  0  0  0  0  0  0  0  0999 V2000
   37.7229   31.2679   33.1198 C   0  0  0  0  0  0  0  0  0  0  0  0
   39.1511   31.4188   32.6621 C   0  0  0  0  0  0  0  0  0  0  0  0
   39.4153   32.2342   31.5467 C   0  0  0  0  0  0  0  0  0  0  0  0
   40.7177   32.4072   31.0800 C   0  0  0  0  0  0  0  0  0  0  0  0
   41.7728   31.7652   31.7302 C   0  0  0  0  0  0  0  0  0  0  0  0
   41.5262   30.9491   32.8388 C   0  0  0  0  0  0  0  0  0  0  0  0
   40.2204   30.7789   33.3332 C   0  0  0  0  0  0  0  0  0  0  0  0
   40.0146   29.9501   34.5323 C   0  0  0  0  0  0  0  0  0  0  0  0
   39.3812   28.6970   34.4321 C   0  0  0  0  0  0  0  0  0  0  0  0
   39.1629   27.8816   35.5558 C   0  0  0  0  0  0  0  0  0  0  0  0
   39.5961   28.3442   36.8086 C   0  0  0  0  0  0  0  0  0  0  0  0
   39.5830   27.8916   38.1551 C   0  0  0  0  0  0  0  0  0  0  0  0
   40.1569   28.7855   38.9766 N   0  0  0  0  0  0  0  0  0  0  0  0
   40.5606   29.8347   38.1697 O   0  0  0  0  0  0  0  0  0  0  0  0
   40.2224   29.5742   36.8799 C   0  0  0  0  0  0  0  0  0  0  0  0
   40.4578   30.4045   35.7873 C   0  0  0  0  0  0  0  0  0  0  0  0
   39.0206   26.6118   38.6977 C   0  0  0  0  0  0  0  0  0  0  0  0
   39.1940   25.4439   37.7183 C   0  0  0  0  0  0  0  0  0  0  0  0
   38.6095   24.1579   38.3034 C   0  0  0  0  0  0  0  0  0  0  0  0
   38.9430   23.9099   39.7074 N   0  0  0  0  0  0  0  0  0  0  0  0
   39.9842   24.7980   40.2134 C   0  0  0  0  0  0  0  0  0  0  0  0
   39.5858   26.2670   40.0899 C   0  0  0  0  0  0  0  0  0  0  0  0
   39.2650   22.9464   39.7994 H   0  0  0  0  0  0  0  0  0  0  0  0
   43.1688   31.9212   31.2506 C   0  0  0  0  0  0  0  0  0  0  0  0
   43.7332   32.9887   31.4497 O   0  0  0  0  0  0  0  0  0  0  0  0
   43.6601   30.8151   30.5845 N   0  0  0  0  0  0  0  0  0  0  0  0
   43.0339   30.0655   30.4617 H   0  0  0  0  0  0  0  0  0  0  0  0
   44.9577   30.6387   30.0606 C   0  0  0  0  0  0  0  0  0  0  0  0
   45.5401   29.3951   29.8385 C   0  0  0  0  0  0  0  0  0  0  0  0
   46.8206   29.3146   29.2942 C   0  0  0  0  0  0  0  0  0  0  0  0
   47.5319   30.4760   28.9781 C   0  0  0  0  0  0  0  0  0  0  0  0
   46.9875   31.7455   29.2073 C   0  0  0  0  0  0  0  0  0  0  0  0
   45.6835   31.7962   29.7349 C   0  0  0  0  0  0  0  0  0  0  0  0
   47.6589   32.9473   28.9174 N   0  0  0  0  0  0  0  0  0  0  0  0
   46.9533   34.1499   29.4292 C   0  0  0  0  0  0  0  0  0  0  0  0
   47.6274   35.4248   28.8932 C   0  0  0  0  0  0  0  0  0  0  0  0
   49.0265   35.4654   29.2168 O   0  0  0  0  0  0  0  0  0  0  0  0
   49.6928   34.3237   28.6539 C   0  0  0  0  0  0  0  0  0  0  0  0
   49.1099   33.0106   29.1996 C   0  0  0  0  0  0  0  0  0  0  0  0
  1  2  1  0
  2  3  2  0
  3  4  1  0
  4  5  2  0
  5 24  1  0
 24 25  2  0
 24 26  1  0
 26 28  1  0
 28 29  2  0
 29 30  1  0
 30 31  2  0
 31 32  1  0
 32 34  1  0
 34 35  1  0
 35 36  1  0
 36 37  1  0
 37 38  1  0
 38 39  1  0
 32 33  2  0
  5  6  1  0
  6  7  2  0
  7  8  1  0
  8  9  2  0
  9 10  1  0
 10 11  2  0
 11 12  1  0
 12 17  1  0
 17 18  1  0
 18 19  1  0
 19 20  1  0
 20 21  1  0
 21 22  1  0
 12 13  2  0
 13 14  1  0
 14 15  1  0
 15 16  2  0
  7  2  1  0
 16  8  1  0
 33 28  1  0
 15 11  1  0
 39 34  1  0
 22 17  1  0
 26 27  1  0
 20 23  1  0
M  END
> <minimizedAffinity>
-10.07792

> <CNNscore>
0.6757839918

> <CNNaffinity>
7.8229556084

> <CNN_VS>
5.2866282463

> <CNNaffinity_variance>
0.0510607176

$$$$



 39 44  0  0  0  0  0  0  0  0999 V2000
   38.0862   31.7961   32.6109 C   0  0  0  0  0  0  0  0  0  0  0  0
   39.5256   31.8198   32.1641 C   0  0  0  0  0  0  0  0  0  0  0  0
   39.8733   32.6247   31.0640 C   0  0  0  0  0  0  0  0  0  0  0  0
   41.1895   32.6824   30.6078 C   0  0  0  0  0  0  0  0  0  0  0  0
   42.1750   31.9339   31.2533 C   0  0  0  0  0  0  0  0  0  0  0  0
   41.8449   31.1268   32.3467 C   0  0  0  0  0  0  0  0  0  0  0  0
   40.5253   31.0718   32.8306 C   0  0  0  0  0  0  0  0  0  0  0  0
   40.2340   30.2467   34.0144 C   0  0  0  0  0  0  0  0  0  0  0  0
   39.5111   29.0457   33.8854 C   0  0  0  0  0  0  0  0  0  0  0  0
   39.2099   28.2359   34.9939 C   0  0  0  0  0  0  0  0  0  0  0  0
   39.6509   28.6500   36.2608 C   0  0  0  0  0  0  0  0  0  0  0  0
   39.5768   28.1840   37.6007 C   0  0  0  0  0  0  0  0  0  0  0  0
   40.1989   29.0227   38.4448 N   0  0  0  0  0  0  0  0  0  0  0  0
   40.6960   30.0482   37.6598 O   0  0  0  0  0  0  0  0  0  0  0  0
   40.3656   29.8288   36.3604 C   0  0  0  0  0  0  0  0  0  0  0  0
   40.6844   30.6519   35.2836 C   0  0  0  0  0  0  0  0  0  0  0  0
   38.9096   26.9435   38.1154 C   0  0  0  0  0  0  0  0  0  0  0  0
   39.1073   25.7486   37.1739 C   0  0  0  0  0  0  0  0  0  0  0  0
   38.4143   24.5039   37.7292 C   0  0  0  0  0  0  0  0  0  0  0  0
   38.6170   24.2699   39.1603 N   0  0  0  0  0  0  0  0  0  0  0  0
   39.6542   25.1185   39.7374 C   0  0  0  0  0  0  0  0  0  0  0  0
   39.3391   26.6017   39.5559 C   0  0  0  0  0  0  0  0  0  0  0  0
   38.8831   23.2945   39.2953 H   0  0  0  0  0  0  0  0  0  0  0  0
   43.5830   31.9660   30.7845 C   0  0  0  0  0  0  0  0  0  0  0  0
   44.1455   30.9009   30.5685 O   0  0  0  0  0  0  0  0  0  0  0  0
   44.1112   33.2384   30.6818 N   0  0  0  0  0  0  0  0  0  0  0  0
   43.5259   33.9783   30.9633 H   0  0  0  0  0  0  0  0  0  0  0  0
   45.3945   33.5970   30.2193 C   0  0  0  0  0  0  0  0  0  0  0  0
   45.6648   34.7663   29.5160 C   0  0  0  0  0  0  0  0  0  0  0  0
   46.9695   35.0519   29.1177 C   0  0  0  0  0  0  0  0  0  0  0  0
   48.0109   34.1663   29.4101 C   0  0  0  0  0  0  0  0  0  0  0  0
   47.7745   32.9694   30.0972 C   0  0  0  0  0  0  0  0  0  0  0  0
   46.4518   32.7188   30.5084 C   0  0  0  0  0  0  0  0  0  0  0  0
   48.7803   32.0372   30.4114 N   0  0  0  0  0  0  0  0  0  0  0  0
   49.7146   31.7824   29.2853 C   0  0  0  0  0  0  0  0  0  0  0  0
   50.6454   30.6064   29.6282 C   0  0  0  0  0  0  0  0  0  0  0  0
   51.3583   30.8299   30.8553 O   0  0  0  0  0  0  0  0  0  0  0  0
   50.4288   31.0086   31.9362 C   0  0  0  0  0  0  0  0  0  0  0  0
   49.5072   32.2131   31.6881 C   0  0  0  0  0  0  0  0  0  0  0  0
  1  2  1  0
  2  3  2  0
  3  4  1  0
  4  5  2  0
  5 24  1  0
 24 25  2  0
 24 26  1  0
 26 28  1  0
 28 29  2  0
 29 30  1  0
 30 31  2  0
 31 32  1  0
 32 34  1  0
 34 35  1  0
 35 36  1  0
 36 37  1  0
 37 38  1  0
 38 39  1  0
 32 33  2  0
  5  6  1  0
  6  7  2  0
  7  8  1  0
  8  9  2  0
  9 10  1  0
 10 11  2  0
 11 12  1  0
 12 17  1  0
 17 18  1  0
 18 19  1  0
 19 20  1  0
 20 21  1  0
 21 22  1  0
 12 13  2  0
 13 14  1  0
 14 15  1  0
 15 16  2  0
  7  2  1  0
 16  8  1  0
 33 28  1  0
 15 11  1  0
 39 34  1  0
 22 17  1  0
 26 27  1  0
 20 23  1  0
M  END
> <minimizedAffinity>
-9.33043

> <CNNscore>
0.6566777825

> <CNNaffinity>
7.8734641075

> <CNN_VS>
5.1703290939

> <CNNaffinity_variance>
0.0558014214

$$$$



 39 44  0  0  0  0  0  0  0  0999 V2000
   49.7054   32.9982   36.4987 C   0  0  0  0  0  0  0  0  0  0  0  0
   49.8888   33.3023   35.0339 C   0  0  0  0  0  0  0  0  0  0  0  0
   50.3494   32.2766   34.1885 C   0  0  0  0  0  0  0  0  0  0  0  0
   50.5384   32.5039   32.8259 C   0  0  0  0  0  0  0  0  0  0  0  0
   50.2641   33.7648   32.2939 C   0  0  0  0  0  0  0  0  0  0  0  0
   49.8081   34.7957   33.1218 C   0  0  0  0  0  0  0  0  0  0  0  0
   49.5948   34.5775   34.4949 C   0  0  0  0  0  0  0  0  0  0  0  0
   49.0673   35.6781   35.3179 C   0  0  0  0  0  0  0  0  0  0  0  0
   47.8355   35.5413   35.9856 C   0  0  0  0  0  0  0  0  0  0  0  0
   47.2986   36.5727   36.7751 C   0  0  0  0  0  0  0  0  0  0  0  0
   48.0246   37.7686   36.8923 C   0  0  0  0  0  0  0  0  0  0  0  0
   47.8793   39.0240   37.5410 C   0  0  0  0  0  0  0  0  0  0  0  0
   48.9245   39.8283   37.2886 N   0  0  0  0  0  0  0  0  0  0  0  0
   49.7730   39.0999   36.4735 O   0  0  0  0  0  0  0  0  0  0  0  0
   49.2350   37.8756   36.2336 C   0  0  0  0  0  0  0  0  0  0  0  0
   49.7972   36.8732   35.4477 C   0  0  0  0  0  0  0  0  0  0  0  0
   46.7478   39.4960   38.4045 C   0  0  0  0  0  0  0  0  0  0  0  0
   47.2134   39.8538   39.8217 C   0  0  0  0  0  0  0  0  0  0  0  0
   46.0355   40.3295   40.6726 C   0  0  0  0  0  0  0  0  0  0  0  0
   45.1317   41.2698   40.0070 N   0  0  0  0  0  0  0  0  0  0  0  0
   45.6643   41.7815   38.7486 C   0  0  0  0  0  0  0  0  0  0  0  0
   45.9636   40.6564   37.7603 C   0  0  0  0  0  0  0  0  0  0  0  0
   44.9642   42.0575   40.6329 H   0  0  0  0  0  0  0  0  0  0  0  0
   50.4656   34.0406   30.8494 C   0  0  0  0  0  0  0  0  0  0  0  0
   50.7375   33.1014   30.1134 O   0  0  0  0  0  0  0  0  0  0  0  0
   50.3522   35.3754   30.5120 N   0  0  0  0  0  0  0  0  0  0  0  0
   50.1930   36.0016   31.2547 H   0  0  0  0  0  0  0  0  0  0  0  0
   50.4389   35.9422   29.2233 C   0  0  0  0  0  0  0  0  0  0  0  0
   50.3179   37.3041   28.9672 C   0  0  0  0  0  0  0  0  0  0  0  0
   50.4410   37.7796   27.6630 C   0  0  0  0  0  0  0  0  0  0  0  0
   50.6755   36.8967   26.6046 C   0  0  0  0  0  0  0  0  0  0  0  0
   50.7818   35.5173   26.8202 C   0  0  0  0  0  0  0  0  0  0  0  0
   50.6776   35.0681   28.1502 C   0  0  0  0  0  0  0  0  0  0  0  0
   51.0085   34.5814   25.7945 N   0  0  0  0  0  0  0  0  0  0  0  0
   51.3339   35.2111   24.4892 C   0  0  0  0  0  0  0  0  0  0  0  0
   51.3557   34.1450   23.3803 C   0  0  0  0  0  0  0  0  0  0  0  0
   52.2671   33.0769   23.6843 O   0  0  0  0  0  0  0  0  0  0  0  0
   51.8886   32.4463   24.9186 C   0  0  0  0  0  0  0  0  0  0  0  0
   51.9099   33.4450   26.0865 C   0  0  0  0  0  0  0  0  0  0  0  0
  1  2  1  0
  2  3  2  0
  3  4  1  0
  4  5  2  0
  5 24  1  0
 24 25  2  0
 24 26  1  0
 26 28  1  0
 28 29  2  0
 29 30  1  0
 30 31  2  0
 31 32  1  0
 32 34  1  0
 34 35  1  0
 35 36  1  0
 36 37  1  0
 37 38  1  0
 38 39  1  0
 32 33  2  0
  5  6  1  0
  6  7  2  0
  7  8  1  0
  8  9  2  0
  9 10  1  0
 10 11  2  0
 11 12  1  0
 12 17  1  0
 17 18  1  0
 18 19  1  0
 19 20  1  0
 20 21  1  0
 21 22  1  0
 12 13  2  0
 13 14  1  0
 14 15  1  0
 15 16  2  0
  7  2  1  0
 16  8  1  0
 33 28  1  0
 15 11  1  0
 39 34  1  0
 22 17  1  0
 26 27  1  0
 20 23  1  0
M  END
> <minimizedAffinity>
20.36984

> <CNNscore>
0.5031976700

> <CNNaffinity>
6.1881732941

> <CNN_VS>
3.1138744354

> <CNNaffinity_variance>
0.0161655527

$$$$
