


 28 31  0  0  0  0  0  0  0  0999 V2000
   41.2523   31.2166   31.9408 C   0  0  0  0  0  0  0  0  0  0  0  0
   41.0268   30.3210   33.0023 C   0  0  0  0  0  0  0  0  0  0  0  0
   39.8258   29.5988   33.1263 C   0  0  0  0  0  0  0  0  0  0  0  0
   38.8368   29.7677   32.1528 C   0  0  0  0  0  0  0  0  0  0  0  0
   37.3403   28.9014   32.1411 Cl  0  0  0  0  0  0  0  0  0  0  0  0
   39.0461   30.6594   31.0917 C   0  0  0  0  0  0  0  0  0  0  0  0
   40.2415   31.3884   30.9742 C   0  0  0  0  0  0  0  0  0  0  0  0
   40.4146   32.3321   29.8128 C   0  0  0  0  0  0  0  0  0  0  0  0
   44.9640   33.4076   31.8481 C   0  0  0  0  0  0  0  0  0  0  0  0
   43.9204   33.7781   32.7030 C   0  0  0  0  0  0  0  0  0  0  0  0
   42.7231   33.0562   32.7194 C   0  0  0  0  0  0  0  0  0  0  0  0
   42.5307   31.9452   31.8806 C   0  0  0  0  0  0  0  0  0  0  0  0
   43.5769   31.5608   31.0157 C   0  0  0  0  0  0  0  0  0  0  0  0
   43.4486   30.3688   30.1035 C   0  0  0  0  0  0  0  0  0  0  0  0
   44.7778   32.2958   31.0122 C   0  0  0  0  0  0  0  0  0  0  0  0
   49.3828   34.5002   30.2865 C   0  0  0  0  0  0  0  0  0  0  0  0
   48.1765   34.6242   31.1204 C   0  0  0  0  0  0  0  0  0  0  0  0
   47.9085   35.4694   32.0911 N   0  0  0  0  0  0  0  0  0  0  0  0
   46.6409   35.1549   32.5365 N   0  0  0  0  0  0  0  0  0  0  0  0
   46.2242   34.1388   31.8063 C   0  0  0  0  0  0  0  0  0  0  0  0
   47.1569   33.7443   30.8792 O   0  0  0  0  0  0  0  0  0  0  0  0
   39.7304   28.6914   34.3051 C   0  0  0  0  0  0  0  0  0  0  0  0
   40.5211   28.8282   35.2348 O   0  0  0  0  0  0  0  0  0  0  0  0
   38.7097   27.7634   34.3102 N   0  0  0  0  0  0  0  0  0  0  0  0
   38.0912   27.7339   33.5447 H   0  0  0  0  0  0  0  0  0  0  0  0
   38.5180   26.8442   35.3857 C   0  0  0  0  0  0  0  0  0  0  0  0
   38.1545   27.3434   36.7562 C   0  0  0  0  0  0  0  0  0  0  0  0
   37.1434   26.5915   35.9418 C   0  0  0  0  0  0  0  0  0  0  0  0
 16 17  1  0
 17 18  2  0
 18 19  1  0
 19 20  2  0
 20  9  1  0
  9 10  2  0
 10 11  1  0
 11 12  2  0
 12  1  1  0
  1  2  2  0
  2  3  1  0
  3 22  1  0
 22 23  2  0
 22 24  1  0
 24 26  1  0
 26 27  1  0
 27 28  1  0
  3  4  2  0
  4  5  1  0
  4  6  1  0
  6  7  2  0
  7  8  1  0
 12 13  1  0
 13 14  1  0
 13 15  2  0
 20 21  1  0
 21 17  1  0
 15  9  1  0
  7  1  1  0
 28 26  1  0
 24 25  1  0
M  END
> <minimizedAffinity>
-11.91216

> <CNNscore>
0.9672865272

> <CNNaffinity>
7.8727383614

> <CNN_VS>
7.6151938438

> <CNNaffinity_variance>
0.0150087373

$$$$



 28 31  0  0  0  0  0  0  0  0999 V2000
   42.4037   31.0338   31.6584 C   0  0  0  0  0  0  0  0  0  0  0  0
   43.4063   31.8909   32.1482 C   0  0  0  0  0  0  0  0  0  0  0  0
   44.2304   32.6414   31.2899 C   0  0  0  0  0  0  0  0  0  0  0  0
   44.0311   32.5413   29.9098 C   0  0  0  0  0  0  0  0  0  0  0  0
   44.9238   33.4499   28.7403 Cl  0  0  0  0  0  0  0  0  0  0  0  0
   43.0386   31.6885   29.4074 C   0  0  0  0  0  0  0  0  0  0  0  0
   42.2229   30.9310   30.2647 C   0  0  0  0  0  0  0  0  0  0  0  0
   41.1702   30.0314   29.6713 C   0  0  0  0  0  0  0  0  0  0  0  0
   39.9356   28.8823   34.4630 C   0  0  0  0  0  0  0  0  0  0  0  0
   39.6409   30.1992   34.0939 C   0  0  0  0  0  0  0  0  0  0  0  0
   40.4529   30.8820   33.1832 C   0  0  0  0  0  0  0  0  0  0  0  0
   41.5848   30.2719   32.6164 C   0  0  0  0  0  0  0  0  0  0  0  0
   41.8908   28.9433   32.9793 C   0  0  0  0  0  0  0  0  0  0  0  0
   43.0766   28.2195   32.3968 C   0  0  0  0  0  0  0  0  0  0  0  0
   41.0624   28.2676   33.8956 C   0  0  0  0  0  0  0  0  0  0  0  0
   36.4531   25.8746   35.8716 C   0  0  0  0  0  0  0  0  0  0  0  0
   37.5724   26.8159   36.0362 C   0  0  0  0  0  0  0  0  0  0  0  0
   38.1476   27.2547   37.1340 N   0  0  0  0  0  0  0  0  0  0  0  0
   39.1463   28.1160   36.7276 N   0  0  0  0  0  0  0  0  0  0  0  0
   39.1100   28.1429   35.4096 C   0  0  0  0  0  0  0  0  0  0  0  0
   38.1252   27.3349   34.8973 O   0  0  0  0  0  0  0  0  0  0  0  0
   45.2503   33.5018   31.9544 C   0  0  0  0  0  0  0  0  0  0  0  0
   44.8888   34.5160   32.5451 O   0  0  0  0  0  0  0  0  0  0  0  0
   46.5626   33.0782   31.9115 N   0  0  0  0  0  0  0  0  0  0  0  0
   46.7745   32.2356   31.4485 H   0  0  0  0  0  0  0  0  0  0  0  0
   47.6244   33.8181   32.5145 C   0  0  0  0  0  0  0  0  0  0  0  0
   48.5699   34.6201   31.6646 C   0  0  0  0  0  0  0  0  0  0  0  0
   47.5852   35.3213   32.5532 C   0  0  0  0  0  0  0  0  0  0  0  0
 16 17  1  0
 17 18  2  0
 18 19  1  0
 19 20  2  0
 20  9  1  0
  9 10  2  0
 10 11  1  0
 11 12  2  0
 12  1  1  0
  1  2  2  0
  2  3  1  0
  3 22  1  0
 22 23  2  0
 22 24  1  0
 24 26  1  0
 26 27  1  0
 27 28  1  0
  3  4  2  0
  4  5  1  0
  4  6  1  0
  6  7  2  0
  7  8  1  0
 12 13  1  0
 13 14  1  0
 13 15  2  0
 20 21  1  0
 21 17  1  0
 15  9  1  0
  7  1  1  0
 28 26  1  0
 24 25  1  0
M  END
> <minimizedAffinity>
-9.73837

> <CNNscore>
0.6984586716

> <CNNaffinity>
7.3756675720

> <CNN_VS>
5.1515989304

> <CNNaffinity_variance>
0.0525752641

$$$$



 28 31  0  0  0  0  0  0  0  0999 V2000
   49.4770   34.7309   28.9822 C   0  0  0  0  0  0  0  0  0  0  0  0
   50.3573   33.6421   28.8430 C   0  0  0  0  0  0  0  0  0  0  0  0
   51.5102   33.7131   28.0399 C   0  0  0  0  0  0  0  0  0  0  0  0
   51.7935   34.9103   27.3758 C   0  0  0  0  0  0  0  0  0  0  0  0
   53.2040   35.1631   26.4079 Cl  0  0  0  0  0  0  0  0  0  0  0  0
   50.9236   36.0020   27.5022 C   0  0  0  0  0  0  0  0  0  0  0  0
   49.7666   35.9270   28.2959 C   0  0  0  0  0  0  0  0  0  0  0  0
   48.8670   37.1311   28.3979 C   0  0  0  0  0  0  0  0  0  0  0  0
   46.0336   34.3491   31.5479 C   0  0  0  0  0  0  0  0  0  0  0  0
   47.2200   34.9344   32.0031 C   0  0  0  0  0  0  0  0  0  0  0  0
   48.3273   35.0494   31.1572 C   0  0  0  0  0  0  0  0  0  0  0  0
   48.2844   34.5807   29.8330 C   0  0  0  0  0  0  0  0  0  0  0  0
   47.0926   33.9906   29.3621 C   0  0  0  0  0  0  0  0  0  0  0  0
   46.9679   33.4843   27.9488 C   0  0  0  0  0  0  0  0  0  0  0  0
   45.9849   33.8840   30.2247 C   0  0  0  0  0  0  0  0  0  0  0  0
   41.8736   32.4687   33.0700 C   0  0  0  0  0  0  0  0  0  0  0  0
   43.0237   33.3868   33.0792 C   0  0  0  0  0  0  0  0  0  0  0  0
   43.3076   34.3710   33.9035 N   0  0  0  0  0  0  0  0  0  0  0  0
   44.5011   34.9078   33.4657 N   0  0  0  0  0  0  0  0  0  0  0  0
   44.8617   34.2137   32.4040 C   0  0  0  0  0  0  0  0  0  0  0  0
   43.9618   33.2233   32.0966 O   0  0  0  0  0  0  0  0  0  0  0  0
   52.3440   32.4786   27.9871 C   0  0  0  0  0  0  0  0  0  0  0  0
   52.6417   32.0003   26.8959 O   0  0  0  0  0  0  0  0  0  0  0  0
   52.7854   31.9595   29.1867 N   0  0  0  0  0  0  0  0  0  0  0  0
   52.5355   32.4164   30.0222 H   0  0  0  0  0  0  0  0  0  0  0  0
   53.5916   30.7835   29.2598 C   0  0  0  0  0  0  0  0  0  0  0  0
   53.0583   29.5357   29.9064 C   0  0  0  0  0  0  0  0  0  0  0  0
   53.2660   29.5780   28.4212 C   0  0  0  0  0  0  0  0  0  0  0  0
 16 17  1  0
 17 18  2  0
 18 19  1  0
 19 20  2  0
 20  9  1  0
  9 10  2  0
 10 11  1  0
 11 12  2  0
 12  1  1  0
  1  2  2  0
  2  3  1  0
  3 22  1  0
 22 23  2  0
 22 24  1  0
 24 26  1  0
 26 27  1  0
 27 28  1  0
  3  4  2  0
  4  5  1  0
  4  6  1  0
  6  7  2  0
  7  8  1  0
 12 13  1  0
 13 14  1  0
 13 15  2  0
 20 21  1  0
 21 17  1  0
 15  9  1  0
  7  1  1  0
 28 26  1  0
 24 25  1  0
M  END
> <minimizedAffinity>
-5.71759

> <CNNscore>
0.6074393392

> <CNNaffinity>
6.7003631592

> <CNN_VS>
4.0700640678

> <CNNaffinity_variance>
0.2683078945

$$$$



 28 31  0  0  0  0  0  0  0  0999 V2000
   51.4936   35.9928   26.7669 C   0  0  0  0  0  0  0  0  0  0  0  0
   51.2707   36.9794   25.7889 C   0  0  0  0  0  0  0  0  0  0  0  0
   52.2110   37.2544   24.7792 C   0  0  0  0  0  0  0  0  0  0  0  0
   53.3936   36.5097   24.7416 C   0  0  0  0  0  0  0  0  0  0  0  0
   54.6082   36.6936   23.5246 Cl  0  0  0  0  0  0  0  0  0  0  0  0
   53.6308   35.5262   25.7118 C   0  0  0  0  0  0  0  0  0  0  0  0
   52.6960   35.2593   26.7264 C   0  0  0  0  0  0  0  0  0  0  0  0
   53.0011   34.1901   27.7428 C   0  0  0  0  0  0  0  0  0  0  0  0
   48.5498   35.2493   29.8275 C   0  0  0  0  0  0  0  0  0  0  0  0
   49.6395   34.3920   29.6410 C   0  0  0  0  0  0  0  0  0  0  0  0
   50.5844   34.6483   28.6429 C   0  0  0  0  0  0  0  0  0  0  0  0
   50.4680   35.7661   27.7992 C   0  0  0  0  0  0  0  0  0  0  0  0
   49.3745   36.6391   27.9792 C   0  0  0  0  0  0  0  0  0  0  0  0
   49.1966   37.8672   27.1251 C   0  0  0  0  0  0  0  0  0  0  0  0
   48.4323   36.3695   28.9902 C   0  0  0  0  0  0  0  0  0  0  0  0
   44.7140   33.1678   31.8552 C   0  0  0  0  0  0  0  0  0  0  0  0
   45.8530   34.0945   31.7572 C   0  0  0  0  0  0  0  0  0  0  0  0
   46.2842   34.9910   32.6169 N   0  0  0  0  0  0  0  0  0  0  0  0
   47.3844   35.5857   32.0338 N   0  0  0  0  0  0  0  0  0  0  0  0
   47.5473   35.0106   30.8582 C   0  0  0  0  0  0  0  0  0  0  0  0
   46.6012   34.0462   30.6127 O   0  0  0  0  0  0  0  0  0  0  0  0
   51.8372   38.3295   23.8167 C   0  0  0  0  0  0  0  0  0  0  0  0
   52.0021   39.5045   24.1338 O   0  0  0  0  0  0  0  0  0  0  0  0
   51.3647   37.9384   22.5810 N   0  0  0  0  0  0  0  0  0  0  0  0
   51.2912   36.9767   22.3836 H   0  0  0  0  0  0  0  0  0  0  0  0
   50.9785   38.8783   21.5781 C   0  0  0  0  0  0  0  0  0  0  0  0
   50.1628   38.4356   20.3956 C   0  0  0  0  0  0  0  0  0  0  0  0
   49.5439   39.3109   21.4453 C   0  0  0  0  0  0  0  0  0  0  0  0
 16 17  1  0
 17 18  2  0
 18 19  1  0
 19 20  2  0
 20  9  1  0
  9 10  2  0
 10 11  1  0
 11 12  2  0
 12  1  1  0
  1  2  2  0
  2  3  1  0
  3 22  1  0
 22 23  2  0
 22 24  1  0
 24 26  1  0
 26 27  1  0
 27 28  1  0
  3  4  2  0
  4  5  1  0
  4  6  1  0
  6  7  2  0
  7  8  1  0
 12 13  1  0
 13 14  1  0
 13 15  2  0
 20 21  1  0
 21 17  1  0
 15  9  1  0
  7  1  1  0
 28 26  1  0
 24 25  1  0
M  END
> <minimizedAffinity>
-6.01471

> <CNNscore>
0.2636429667

> <CNNaffinity>
5.4669094086

> <CNN_VS>
1.4413121939

> <CNNaffinity_variance>
0.2127298266

$$$$



 28 31  0  0  0  0  0  0  0  0999 V2000
   43.9506   31.7557   31.4332 C   0  0  0  0  0  0  0  0  0  0  0  0
   43.9857   30.3564   31.2899 C   0  0  0  0  0  0  0  0  0  0  0  0
   42.9698   29.5287   31.8018 C   0  0  0  0  0  0  0  0  0  0  0  0
   41.8865   30.1217   32.4571 C   0  0  0  0  0  0  0  0  0  0  0  0
   40.5374   29.2372   33.0800 Cl  0  0  0  0  0  0  0  0  0  0  0  0
   41.8401   31.5141   32.6105 C   0  0  0  0  0  0  0  0  0  0  0  0
   42.8604   32.3396   32.1085 C   0  0  0  0  0  0  0  0  0  0  0  0
   42.7594   33.8304   32.3000 C   0  0  0  0  0  0  0  0  0  0  0  0
   47.1291   34.1110   29.7197 C   0  0  0  0  0  0  0  0  0  0  0  0
   46.0628   33.6494   28.9404 C   0  0  0  0  0  0  0  0  0  0  0  0
   45.0407   32.8861   29.5129 C   0  0  0  0  0  0  0  0  0  0  0  0
   45.0543   32.5582   30.8793 C   0  0  0  0  0  0  0  0  0  0  0  0
   46.1234   33.0199   31.6757 C   0  0  0  0  0  0  0  0  0  0  0  0
   46.1933   32.7238   33.1511 C   0  0  0  0  0  0  0  0  0  0  0  0
   47.1440   33.7898   31.0858 C   0  0  0  0  0  0  0  0  0  0  0  0
   51.5548   34.9918   28.0480 C   0  0  0  0  0  0  0  0  0  0  0  0
   50.1640   35.3020   28.4156 C   0  0  0  0  0  0  0  0  0  0  0  0
   49.5023   36.4344   28.3234 N   0  0  0  0  0  0  0  0  0  0  0  0
   48.2336   36.1791   28.8022 N   0  0  0  0  0  0  0  0  0  0  0  0
   48.2101   34.9083   29.1540 C   0  0  0  0  0  0  0  0  0  0  0  0
   49.4131   34.2834   28.9360 O   0  0  0  0  0  0  0  0  0  0  0  0
   43.1464   28.0658   31.5762 C   0  0  0  0  0  0  0  0  0  0  0  0
   42.3222   27.4581   30.8983 O   0  0  0  0  0  0  0  0  0  0  0  0
   44.2725   27.4733   32.1091 N   0  0  0  0  0  0  0  0  0  0  0  0
   44.9086   28.0305   32.6133 H   0  0  0  0  0  0  0  0  0  0  0  0
   44.5486   26.0809   31.9556 C   0  0  0  0  0  0  0  0  0  0  0  0
   45.8261   25.6266   31.3066 C   0  0  0  0  0  0  0  0  0  0  0  0
   45.6191   25.4170   32.7777 C   0  0  0  0  0  0  0  0  0  0  0  0
 16 17  1  0
 17 18  2  0
 18 19  1  0
 19 20  2  0
 20  9  1  0
  9 10  2  0
 10 11  1  0
 11 12  2  0
 12  1  1  0
  1  2  2  0
  2  3  1  0
  3 22  1  0
 22 23  2  0
 22 24  1  0
 24 26  1  0
 26 27  1  0
 27 28  1  0
  3  4  2  0
  4  5  1  0
  4  6  1  0
  6  7  2  0
  7  8  1  0
 12 13  1  0
 13 14  1  0
 13 15  2  0
 20 21  1  0
 21 17  1  0
 15  9  1  0
  7  1  1  0
 28 26  1  0
 24 25  1  0
M  END
> <minimizedAffinity>
-8.23959

> <CNNscore>
0.2530878484

> <CNNaffinity>
6.3801932335

> <CNN_VS>
1.6147494316

> <CNNaffinity_variance>
0.0811163038

$$$$



 28 31  0  0  0  0  0  0  0  0999 V2000
   51.4795   35.9388   26.8847 C   0  0  0  0  0  0  0  0  0  0  0  0
   51.5895   37.2141   26.3007 C   0  0  0  0  0  0  0  0  0  0  0  0
   52.5445   37.4998   25.3080 C   0  0  0  0  0  0  0  0  0  0  0  0
   53.3962   36.4768   24.8808 C   0  0  0  0  0  0  0  0  0  0  0  0
   54.5727   36.6646   23.6275 Cl  0  0  0  0  0  0  0  0  0  0  0  0
   53.3006   35.2023   25.4564 C   0  0  0  0  0  0  0  0  0  0  0  0
   52.3536   34.9203   26.4555 C   0  0  0  0  0  0  0  0  0  0  0  0
   52.2931   33.5327   27.0389 C   0  0  0  0  0  0  0  0  0  0  0  0
   48.5652   35.2156   29.9783 C   0  0  0  0  0  0  0  0  0  0  0  0
   49.7404   34.4613   29.8937 C   0  0  0  0  0  0  0  0  0  0  0  0
   50.6744   34.7092   28.8832 C   0  0  0  0  0  0  0  0  0  0  0  0
   50.4616   35.7152   27.9253 C   0  0  0  0  0  0  0  0  0  0  0  0
   49.2811   36.4840   28.0017 C   0  0  0  0  0  0  0  0  0  0  0  0
   48.9961   37.5916   27.0213 C   0  0  0  0  0  0  0  0  0  0  0  0
   48.3510   36.2245   29.0265 C   0  0  0  0  0  0  0  0  0  0  0  0
   44.7544   33.1364   32.0550 C   0  0  0  0  0  0  0  0  0  0  0  0
   45.8883   34.0675   31.9393 C   0  0  0  0  0  0  0  0  0  0  0  0
   46.3216   34.9744   32.7868 N   0  0  0  0  0  0  0  0  0  0  0  0
   47.4147   35.5684   32.1897 N   0  0  0  0  0  0  0  0  0  0  0  0
   47.5715   34.9824   31.0187 C   0  0  0  0  0  0  0  0  0  0  0  0
   46.6282   34.0113   30.7898 O   0  0  0  0  0  0  0  0  0  0  0  0
   52.5439   38.8963   24.7866 C   0  0  0  0  0  0  0  0  0  0  0  0
   51.7667   39.2016   23.8860 O   0  0  0  0  0  0  0  0  0  0  0  0
   53.3964   39.7986   25.3887 N   0  0  0  0  0  0  0  0  0  0  0  0
   53.9673   39.4907   26.1293 H   0  0  0  0  0  0  0  0  0  0  0  0
   53.4805   41.1628   24.9760 C   0  0  0  0  0  0  0  0  0  0  0  0
   54.5562   42.0577   25.5251 C   0  0  0  0  0  0  0  0  0  0  0  0
   54.6029   41.6270   24.0887 C   0  0  0  0  0  0  0  0  0  0  0  0
 16 17  1  0
 17 18  2  0
 18 19  1  0
 19 20  2  0
 20  9  1  0
  9 10  2  0
 10 11  1  0
 11 12  2  0
 12  1  1  0
  1  2  2  0
  2  3  1  0
  3 22  1  0
 22 23  2  0
 22 24  1  0
 24 26  1  0
 26 27  1  0
 27 28  1  0
  3  4  2  0
  4  5  1  0
  4  6  1  0
  6  7  2  0
  7  8  1  0
 12 13  1  0
 13 14  1  0
 13 15  2  0
 20 21  1  0
 21 17  1  0
 15  9  1  0
  7  1  1  0
 28 26  1  0
 24 25  1  0
M  END
> <minimizedAffinity>
-5.71042

> <CNNscore>
0.2284492254

> <CNNaffinity>
5.1633167267

> <CNN_VS>
1.1795556545

> <CNNaffinity_variance>
0.1483811587

$$$$



 28 31  0  0  0  0  0  0  0  0999 V2000
   42.6365   20.7538   30.2134 C   0  0  0  0  0  0  0  0  0  0  0  0
   43.5861   20.5784   29.1901 C   0  0  0  0  0  0  0  0  0  0  0  0
   44.9603   20.4491   29.4622 C   0  0  0  0  0  0  0  0  0  0  0  0
   45.3875   20.4797   30.7931 C   0  0  0  0  0  0  0  0  0  0  0  0
   47.0333   20.2704   31.2804 Cl  0  0  0  0  0  0  0  0  0  0  0  0
   44.4531   20.6578   31.8226 C   0  0  0  0  0  0  0  0  0  0  0  0
   43.0819   20.7975   31.5495 C   0  0  0  0  0  0  0  0  0  0  0  0
   42.1208   20.9849   32.6944 C   0  0  0  0  0  0  0  0  0  0  0  0
   38.4627   21.0524   29.1759 C   0  0  0  0  0  0  0  0  0  0  0  0
   39.0673   19.8135   29.4147 C   0  0  0  0  0  0  0  0  0  0  0  0
   40.4225   19.7355   29.7496 C   0  0  0  0  0  0  0  0  0  0  0  0
   41.2152   20.8912   29.8528 C   0  0  0  0  0  0  0  0  0  0  0  0
   40.6161   22.1464   29.6163 C   0  0  0  0  0  0  0  0  0  0  0  0
   41.3994   23.4282   29.7285 C   0  0  0  0  0  0  0  0  0  0  0  0
   39.2496   22.2095   29.2826 C   0  0  0  0  0  0  0  0  0  0  0  0
   34.6124   20.9717   26.2904 C   0  0  0  0  0  0  0  0  0  0  0  0
   35.3496   21.1347   27.5536 C   0  0  0  0  0  0  0  0  0  0  0  0
   34.9060   21.4409   28.7527 N   0  0  0  0  0  0  0  0  0  0  0  0
   36.0115   21.4624   29.5784 N   0  0  0  0  0  0  0  0  0  0  0  0
   37.0529   21.1683   28.8247 C   0  0  0  0  0  0  0  0  0  0  0  0
   36.7045   20.9473   27.5151 O   0  0  0  0  0  0  0  0  0  0  0  0
   45.8453   20.2731   28.2757 C   0  0  0  0  0  0  0  0  0  0  0  0
   45.5255   19.4734   27.4003 O   0  0  0  0  0  0  0  0  0  0  0  0
   46.9701   21.0684   28.1998 N   0  0  0  0  0  0  0  0  0  0  0  0
   47.1453   21.7130   28.9231 H   0  0  0  0  0  0  0  0  0  0  0  0
   47.8891   20.9903   27.1100 C   0  0  0  0  0  0  0  0  0  0  0  0
   49.2590   21.5981   27.2262 C   0  0  0  0  0  0  0  0  0  0  0  0
   49.1032   20.1063   27.1936 C   0  0  0  0  0  0  0  0  0  0  0  0
 16 17  1  0
 17 18  2  0
 18 19  1  0
 19 20  2  0
 20  9  1  0
  9 10  2  0
 10 11  1  0
 11 12  2  0
 12  1  1  0
  1  2  2  0
  2  3  1  0
  3 22  1  0
 22 23  2  0
 22 24  1  0
 24 26  1  0
 26 27  1  0
 27 28  1  0
  3  4  2  0
  4  5  1  0
  4  6  1  0
  6  7  2  0
  7  8  1  0
 12 13  1  0
 13 14  1  0
 13 15  2  0
 20 21  1  0
 21 17  1  0
 15  9  1  0
  7  1  1  0
 28 26  1  0
 24 25  1  0
M  END
> <minimizedAffinity>
-5.60017

> <CNNscore>
0.2184033543

> <CNNaffinity>
4.8555703163

> <CNN_VS>
1.0604728460

> <CNNaffinity_variance>
0.2401349396

$$$$



 28 31  0  0  0  0  0  0  0  0999 V2000
   42.5746   21.3159   30.8056 C   0  0  0  0  0  0  0  0  0  0  0  0
   43.8708   21.3987   30.2646 C   0  0  0  0  0  0  0  0  0  0  0  0
   45.0177   21.4356   31.0784 C   0  0  0  0  0  0  0  0  0  0  0  0
   44.8592   21.3706   32.4660 C   0  0  0  0  0  0  0  0  0  0  0  0
   46.1775   21.3423   33.5847 Cl  0  0  0  0  0  0  0  0  0  0  0  0
   43.5738   21.2917   33.0192 C   0  0  0  0  0  0  0  0  0  0  0  0
   42.4281   21.2656   32.2062 C   0  0  0  0  0  0  0  0  0  0  0  0
   41.0705   21.1785   32.8535 C   0  0  0  0  0  0  0  0  0  0  0  0
   39.2024   21.3472   28.1199 C   0  0  0  0  0  0  0  0  0  0  0  0
   39.7882   22.5361   28.5678 C   0  0  0  0  0  0  0  0  0  0  0  0
   40.8812   22.5071   29.4393 C   0  0  0  0  0  0  0  0  0  0  0  0
   41.4197   21.2906   29.8922 C   0  0  0  0  0  0  0  0  0  0  0  0
   40.8388   20.0851   29.4456 C   0  0  0  0  0  0  0  0  0  0  0  0
   41.3759   18.7444   29.8737 C   0  0  0  0  0  0  0  0  0  0  0  0
   39.7403   20.1300   28.5659 C   0  0  0  0  0  0  0  0  0  0  0  0
   34.7331   20.3327   26.6525 C   0  0  0  0  0  0  0  0  0  0  0  0
   36.0895   20.8960   26.5592 C   0  0  0  0  0  0  0  0  0  0  0  0
   36.6524   21.5763   25.5851 N   0  0  0  0  0  0  0  0  0  0  0  0
   37.9332   21.8668   26.0086 N   0  0  0  0  0  0  0  0  0  0  0  0
   38.0624   21.3427   27.2118 C   0  0  0  0  0  0  0  0  0  0  0  0
   36.9210   20.7036   27.6287 O   0  0  0  0  0  0  0  0  0  0  0  0
   46.3217   21.5279   30.3622 C   0  0  0  0  0  0  0  0  0  0  0  0
   46.4306   21.0301   29.2448 O   0  0  0  0  0  0  0  0  0  0  0  0
   47.3387   22.2232   30.9833 N   0  0  0  0  0  0  0  0  0  0  0  0
   47.1686   22.6258   31.8654 H   0  0  0  0  0  0  0  0  0  0  0  0
   48.6291   22.3796   30.3925 C   0  0  0  0  0  0  0  0  0  0  0  0
   49.4883   23.5612   30.7461 C   0  0  0  0  0  0  0  0  0  0  0  0
   49.8754   22.1889   31.2128 C   0  0  0  0  0  0  0  0  0  0  0  0
 16 17  1  0
 17 18  2  0
 18 19  1  0
 19 20  2  0
 20  9  1  0
  9 10  2  0
 10 11  1  0
 11 12  2  0
 12  1  1  0
  1  2  2  0
  2  3  1  0
  3 22  1  0
 22 23  2  0
 22 24  1  0
 24 26  1  0
 26 27  1  0
 27 28  1  0
  3  4  2  0
  4  5  1  0
  4  6  1  0
  6  7  2  0
  7  8  1  0
 12 13  1  0
 13 14  1  0
 13 15  2  0
 20 21  1  0
 21 17  1  0
 15  9  1  0
  7  1  1  0
 28 26  1  0
 24 25  1  0
M  END
> <minimizedAffinity>
-5.81581

> <CNNscore>
0.2130091935

> <CNNaffinity>
4.9964680672

> <CNN_VS>
1.0642936230

> <CNNaffinity_variance>
0.4577495158

$$$$



 28 31  0  0  0  0  0  0  0  0999 V2000
   51.5231   36.4849   26.1699 C   0  0  0  0  0  0  0  0  0  0  0  0
   51.4203   35.7463   24.9768 C   0  0  0  0  0  0  0  0  0  0  0  0
   52.2710   35.9781   23.8806 C   0  0  0  0  0  0  0  0  0  0  0  0
   53.2578   36.9621   23.9923 C   0  0  0  0  0  0  0  0  0  0  0  0
   54.4121   37.3122   22.7532 Cl  0  0  0  0  0  0  0  0  0  0  0  0
   53.3695   37.7083   25.1735 C   0  0  0  0  0  0  0  0  0  0  0  0
   52.5126   37.4837   26.2642 C   0  0  0  0  0  0  0  0  0  0  0  0
   52.6777   38.3137   27.5105 C   0  0  0  0  0  0  0  0  0  0  0  0
   48.8649   35.5573   29.4348 C   0  0  0  0  0  0  0  0  0  0  0  0
   50.0099   34.7923   29.1876 C   0  0  0  0  0  0  0  0  0  0  0  0
   50.8607   35.1074   28.1237 C   0  0  0  0  0  0  0  0  0  0  0  0
   50.5920   36.1932   27.2730 C   0  0  0  0  0  0  0  0  0  0  0  0
   49.4413   36.9732   27.5136 C   0  0  0  0  0  0  0  0  0  0  0  0
   49.1013   38.1633   26.6551 C   0  0  0  0  0  0  0  0  0  0  0  0
   48.5954   36.6454   28.5905 C   0  0  0  0  0  0  0  0  0  0  0  0
   46.8744   32.8860   32.9076 C   0  0  0  0  0  0  0  0  0  0  0  0
   47.0750   34.0788   32.0692 C   0  0  0  0  0  0  0  0  0  0  0  0
   46.4584   35.2397   32.0971 N   0  0  0  0  0  0  0  0  0  0  0  0
   47.0314   36.0041   31.1013 N   0  0  0  0  0  0  0  0  0  0  0  0
   47.9576   35.2555   30.5348 C   0  0  0  0  0  0  0  0  0  0  0  0
   48.0407   34.0081   31.1026 O   0  0  0  0  0  0  0  0  0  0  0  0
   52.0396   35.1199   22.6839 C   0  0  0  0  0  0  0  0  0  0  0  0
   51.7014   35.6426   21.6254 O   0  0  0  0  0  0  0  0  0  0  0  0
   52.2702   33.7665   22.8198 N   0  0  0  0  0  0  0  0  0  0  0  0
   52.5735   33.4218   23.6907 H   0  0  0  0  0  0  0  0  0  0  0  0
   52.0849   32.8478   21.7426 C   0  0  0  0  0  0  0  0  0  0  0  0
   50.9224   31.8949   21.7483 C   0  0  0  0  0  0  0  0  0  0  0  0
   50.9545   33.0292   20.7670 C   0  0  0  0  0  0  0  0  0  0  0  0
 16 17  1  0
 17 18  2  0
 18 19  1  0
 19 20  2  0
 20  9  1  0
  9 10  2  0
 10 11  1  0
 11 12  2  0
 12  1  1  0
  1  2  2  0
  2  3  1  0
  3 22  1  0
 22 23  2  0
 22 24  1  0
 24 26  1  0
 26 27  1  0
 27 28  1  0
  3  4  2  0
  4  5  1  0
  4  6  1  0
  6  7  2  0
  7  8  1  0
 12 13  1  0
 13 14  1  0
 13 15  2  0
 20 21  1  0
 21 17  1  0
 15  9  1  0
  7  1  1  0
 28 26  1  0
 24 25  1  0
M  END
> <minimizedAffinity>
-5.69140

> <CNNscore>
0.1814139485

> <CNNaffinity>
4.8209557533

> <CNN_VS>
0.8745886087

> <CNNaffinity_variance>
0.2649126947

$$$$
