


 20 22  0  0  0  0  0  0  0  0999 V2000
    6.3238   61.3777    0.1000 O   0  0  0  0  0  0  0  0  0  0  0  0
    5.9082   60.2670    0.4129 C   0  0  0  0  0  0  0  0  0  0  0  0
    4.6754   60.1226    1.0245 N   0  0  0  0  0  0  0  0  0  0  0  0
    4.1451   58.9254    1.4205 C   0  0  0  0  0  0  0  0  0  0  0  0
    4.7948   57.7763    1.2085 C   0  0  0  0  0  0  0  0  0  0  0  0
    6.0950   57.7973    0.5292 C   0  0  0  0  0  0  0  0  0  0  0  0
    6.8653   56.6788    0.2421 C   0  0  0  0  0  0  0  0  0  0  0  0
    8.0993   56.7659   -0.2884 N   0  0  0  0  0  0  0  0  0  0  0  0
    8.5532   57.9928   -0.5858 C   0  0  0  0  0  0  0  0  0  0  0  0
    7.8962   59.1359   -0.4013 N   0  0  0  0  0  0  0  0  0  0  0  0
    6.6760   59.0037    0.1656 C   0  0  0  0  0  0  0  0  0  0  0  0
    4.1443   60.9358    1.1853 H   0  0  0  0  0  0  0  0  0  0  0  0
    6.4403   55.3660    0.4944 N   0  0  0  0  0  0  0  0  0  0  0  0
    5.8766   54.8595   -0.1341 H   0  0  0  0  0  0  0  0  0  0  0  0
    6.9063   54.8047    1.7781 C   0  0  0  0  0  0  0  0  0  0  0  0
    7.8076   53.5970    1.4513 C   0  0  0  0  0  0  0  0  0  0  0  0
    7.8155   52.5719    2.5773 C   0  0  0  0  0  0  0  0  0  0  0  0
    6.4213   51.9938    2.8228 C   0  0  0  0  0  0  0  0  0  0  0  0
    5.2907   52.9701    2.4936 C   0  0  0  0  0  0  0  0  0  0  0  0
    5.7195   54.4207    2.6877 C   0  0  0  0  0  0  0  0  0  0  0  0
  1  2  2  0
  2  3  1  0
  3  4  1  0
  4  5  2  0
  5  6  1  0
  6  7  2  0
  7 13  1  0
 13 15  1  0
 15 16  1  0
 16 17  1  0
 17 18  1  0
 18 19  1  0
 19 20  1  0
  7  8  1  0
  8  9  2  0
  9 10  1  0
 10 11  2  0
 11  2  1  0
 11  6  1  0
 20 15  1  0
  3 12  1  0
 13 14  1  0
M  END
> <minimizedAffinity>
-7.63991

> <CNNscore>
0.9708517790

> <CNNaffinity>
6.7621798515

> <CNN_VS>
6.5650744438

> <CNNaffinity_variance>
0.0958702937

$$$$



 20 22  0  0  0  0  0  0  0  0999 V2000
    6.0310   61.4569    0.3023 O   0  0  0  0  0  0  0  0  0  0  0  0
    6.6424   60.4200    0.0671 C   0  0  0  0  0  0  0  0  0  0  0  0
    7.8692   60.4551   -0.5723 N   0  0  0  0  0  0  0  0  0  0  0  0
    8.6080   59.3477   -0.8872 C   0  0  0  0  0  0  0  0  0  0  0  0
    8.1901   58.1205   -0.5602 C   0  0  0  0  0  0  0  0  0  0  0  0
    6.9217   57.9581    0.1590 C   0  0  0  0  0  0  0  0  0  0  0  0
    6.3810   56.7449    0.5624 C   0  0  0  0  0  0  0  0  0  0  0  0
    5.1624   56.6466    1.1258 N   0  0  0  0  0  0  0  0  0  0  0  0
    4.4912   57.7887    1.3374 C   0  0  0  0  0  0  0  0  0  0  0  0
    4.9180   59.0138    1.0380 N   0  0  0  0  0  0  0  0  0  0  0  0
    6.1307   59.0622    0.4426 C   0  0  0  0  0  0  0  0  0  0  0  0
    8.2347   61.3359   -0.8169 H   0  0  0  0  0  0  0  0  0  0  0  0
    7.0407   55.5173    0.4037 N   0  0  0  0  0  0  0  0  0  0  0  0
    7.4080   55.2187   -0.4595 H   0  0  0  0  0  0  0  0  0  0  0  0
    7.1400   54.7087    1.6353 C   0  0  0  0  0  0  0  0  0  0  0  0
    8.5654   54.1229    1.6865 C   0  0  0  0  0  0  0  0  0  0  0  0
    8.6163   52.8181    2.4697 C   0  0  0  0  0  0  0  0  0  0  0  0
    7.7479   51.7384    1.8228 C   0  0  0  0  0  0  0  0  0  0  0  0
    6.5385   52.2986    1.0722 C   0  0  0  0  0  0  0  0  0  0  0  0
    6.0541   53.6121    1.6770 C   0  0  0  0  0  0  0  0  0  0  0  0
  1  2  2  0
  2  3  1  0
  3  4  1  0
  4  5  2  0
  5  6  1  0
  6  7  2  0
  7 13  1  0
 13 15  1  0
 15 16  1  0
 16 17  1  0
 17 18  1  0
 18 19  1  0
 19 20  1  0
  7  8  1  0
  8  9  2  0
  9 10  1  0
 10 11  2  0
 11  2  1  0
 11  6  1  0
 20 15  1  0
  3 12  1  0
 13 14  1  0
M  END
> <minimizedAffinity>
-8.00044

> <CNNscore>
0.9122467041

> <CNNaffinity>
6.2432384491

> <CNN_VS>
5.6953735352

> <CNNaffinity_variance>
0.0245047715

$$$$



 20 22  0  0  0  0  0  0  0  0999 V2000
    5.7739   61.1137    0.1064 O   0  0  0  0  0  0  0  0  0  0  0  0
    5.8790   59.9124    0.3302 C   0  0  0  0  0  0  0  0  0  0  0  0
    4.8705   59.2267    0.9842 N   0  0  0  0  0  0  0  0  0  0  0  0
    4.9140   57.8936    1.2880 C   0  0  0  0  0  0  0  0  0  0  0  0
    5.9579   57.1366    0.9346 C   0  0  0  0  0  0  0  0  0  0  0  0
    7.0725   57.7430    0.1982 C   0  0  0  0  0  0  0  0  0  0  0  0
    8.2069   57.0691   -0.2327 C   0  0  0  0  0  0  0  0  0  0  0  0
    9.2468   57.6978   -0.8116 N   0  0  0  0  0  0  0  0  0  0  0  0
    9.1301   59.0194   -1.0108 C   0  0  0  0  0  0  0  0  0  0  0  0
    8.0797   59.7697   -0.6850 N   0  0  0  0  0  0  0  0  0  0  0  0
    7.0740   59.1034   -0.0750 C   0  0  0  0  0  0  0  0  0  0  0  0
    4.0680   59.7320    1.2485 H   0  0  0  0  0  0  0  0  0  0  0  0
    8.3814   55.6848   -0.0881 N   0  0  0  0  0  0  0  0  0  0  0  0
    8.0031   55.0322   -0.7208 H   0  0  0  0  0  0  0  0  0  0  0  0
    9.1779   55.2849    1.0891 C   0  0  0  0  0  0  0  0  0  0  0  0
   10.4396   54.5677    0.5679 C   0  0  0  0  0  0  0  0  0  0  0  0
   10.9846   53.5686    1.5796 C   0  0  0  0  0  0  0  0  0  0  0  0
    9.9731   52.4618    1.8796 C   0  0  0  0  0  0  0  0  0  0  0  0
    8.5180   52.9141    1.7458 C   0  0  0  0  0  0  0  0  0  0  0  0
    8.3556   54.3996    2.0500 C   0  0  0  0  0  0  0  0  0  0  0  0
  1  2  2  0
  2  3  1  0
  3  4  1  0
  4  5  2  0
  5  6  1  0
  6  7  2  0
  7 13  1  0
 13 15  1  0
 15 16  1  0
 16 17  1  0
 17 18  1  0
 18 19  1  0
 19 20  1  0
  7  8  1  0
  8  9  2  0
  9 10  1  0
 10 11  2  0
 11  2  1  0
 11  6  1  0
 20 15  1  0
  3 12  1  0
 13 14  1  0
M  END
> <minimizedAffinity>
-7.74989

> <CNNscore>
0.8918941021

> <CNNaffinity>
6.2631134987

> <CNN_VS>
5.5860338211

> <CNNaffinity_variance>
0.0411132015

$$$$



 20 22  0  0  0  0  0  0  0  0999 V2000
    5.9187   61.4240    0.5510 O   0  0  0  0  0  0  0  0  0  0  0  0
    6.6010   60.4589    0.2233 C   0  0  0  0  0  0  0  0  0  0  0  0
    7.8284   60.6394   -0.3897 N   0  0  0  0  0  0  0  0  0  0  0  0
    8.6433   59.6208   -0.8018 C   0  0  0  0  0  0  0  0  0  0  0  0
    8.3062   58.3420   -0.6056 C   0  0  0  0  0  0  0  0  0  0  0  0
    7.0451   58.0242    0.0733 C   0  0  0  0  0  0  0  0  0  0  0  0
    6.5839   56.7434    0.3448 C   0  0  0  0  0  0  0  0  0  0  0  0
    5.3697   56.5082    0.8760 N   0  0  0  0  0  0  0  0  0  0  0  0
    4.6209   57.5762    1.1899 C   0  0  0  0  0  0  0  0  0  0  0  0
    4.9666   58.8507    1.0211 N   0  0  0  0  0  0  0  0  0  0  0  0
    6.1787   59.0392    0.4531 C   0  0  0  0  0  0  0  0  0  0  0  0
    8.1358   61.5627   -0.5393 H   0  0  0  0  0  0  0  0  0  0  0  0
    7.3266   55.5844    0.0750 N   0  0  0  0  0  0  0  0  0  0  0  0
    7.6259   55.3437   -0.8315 H   0  0  0  0  0  0  0  0  0  0  0  0
    7.6233   54.7544    1.2595 C   0  0  0  0  0  0  0  0  0  0  0  0
    6.2855   54.1743    1.7609 C   0  0  0  0  0  0  0  0  0  0  0  0
    6.3181   53.8777    3.2540 C   0  0  0  0  0  0  0  0  0  0  0  0
    6.5534   55.1459    4.0754 C   0  0  0  0  0  0  0  0  0  0  0  0
    7.3839   56.2008    3.3423 C   0  0  0  0  0  0  0  0  0  0  0  0
    8.3533   55.5695    2.3486 C   0  0  0  0  0  0  0  0  0  0  0  0
  1  2  2  0
  2  3  1  0
  3  4  1  0
  4  5  2  0
  5  6  1  0
  6  7  2  0
  7 13  1  0
 13 15  1  0
 15 16  1  0
 16 17  1  0
 17 18  1  0
 18 19  1  0
 19 20  1  0
  7  8  1  0
  8  9  2  0
  9 10  1  0
 10 11  2  0
 11  2  1  0
 11  6  1  0
 20 15  1  0
  3 12  1  0
 13 14  1  0
M  END
> <minimizedAffinity>
-7.88286

> <CNNscore>
0.8707737327

> <CNNaffinity>
6.3985137939

> <CNN_VS>
5.5716576576

> <CNNaffinity_variance>
0.0402167700

$$$$



 20 22  0  0  0  0  0  0  0  0999 V2000
    7.0132   60.8958   -0.3131 O   0  0  0  0  0  0  0  0  0  0  0  0
    6.7329   59.7366   -0.0268 C   0  0  0  0  0  0  0  0  0  0  0  0
    5.4573   59.4034    0.3936 N   0  0  0  0  0  0  0  0  0  0  0  0
    5.0656   58.1414    0.7477 C   0  0  0  0  0  0  0  0  0  0  0  0
    5.9126   57.1091    0.6802 C   0  0  0  0  0  0  0  0  0  0  0  0
    7.2838   57.3305    0.2079 C   0  0  0  0  0  0  0  0  0  0  0  0
    8.2553   56.3468    0.0837 C   0  0  0  0  0  0  0  0  0  0  0  0
    9.5283   56.6246   -0.2543 N   0  0  0  0  0  0  0  0  0  0  0  0
    9.8253   57.9048   -0.5238 C   0  0  0  0  0  0  0  0  0  0  0  0
    8.9765   58.9297   -0.4844 N   0  0  0  0  0  0  0  0  0  0  0  0
    7.7184   58.6101   -0.1067 C   0  0  0  0  0  0  0  0  0  0  0  0
    4.7868   60.1227    0.4410 H   0  0  0  0  0  0  0  0  0  0  0  0
    8.0071   54.9860    0.3162 N   0  0  0  0  0  0  0  0  0  0  0  0
    8.5692   54.2710   -0.0606 H   0  0  0  0  0  0  0  0  0  0  0  0
    6.8350   54.7119    1.1714 C   0  0  0  0  0  0  0  0  0  0  0  0
    7.3507   54.5309    2.6133 C   0  0  0  0  0  0  0  0  0  0  0  0
    6.4335   53.6374    3.4373 C   0  0  0  0  0  0  0  0  0  0  0  0
    6.3430   52.2284    2.8500 C   0  0  0  0  0  0  0  0  0  0  0  0
    6.5216   52.1892    1.3313 C   0  0  0  0  0  0  0  0  0  0  0  0
    6.0497   53.4804    0.6712 C   0  0  0  0  0  0  0  0  0  0  0  0
  1  2  2  0
  2  3  1  0
  3  4  1  0
  4  5  2  0
  5  6  1  0
  6  7  2  0
  7 13  1  0
 13 15  1  0
 15 16  1  0
 16 17  1  0
 17 18  1  0
 18 19  1  0
 19 20  1  0
  7  8  1  0
  8  9  2  0
  9 10  1  0
 10 11  2  0
 11  2  1  0
 11  6  1  0
 20 15  1  0
  3 12  1  0
 13 14  1  0
M  END
> <minimizedAffinity>
-7.09022

> <CNNscore>
0.8620653152

> <CNNaffinity>
6.4666481018

> <CNN_VS>
5.5746731758

> <CNNaffinity_variance>
0.1976588219

$$$$



 20 22  0  0  0  0  0  0  0  0999 V2000
    8.0168   60.1778   -1.1072 O   0  0  0  0  0  0  0  0  0  0  0  0
    8.2283   59.0858   -0.5903 C   0  0  0  0  0  0  0  0  0  0  0  0
    9.4527   58.4594   -0.7430 N   0  0  0  0  0  0  0  0  0  0  0  0
    9.7658   57.2365   -0.2158 C   0  0  0  0  0  0  0  0  0  0  0  0
    8.8874   56.5586    0.5301 C   0  0  0  0  0  0  0  0  0  0  0  0
    7.5675   57.1405    0.7979 C   0  0  0  0  0  0  0  0  0  0  0  0
    6.5715   56.5462    1.5603 C   0  0  0  0  0  0  0  0  0  0  0  0
    5.3410   57.0773    1.6856 N   0  0  0  0  0  0  0  0  0  0  0  0
    5.1161   58.2524    1.0786 C   0  0  0  0  0  0  0  0  0  0  0  0
    5.9983   58.9424    0.3588 N   0  0  0  0  0  0  0  0  0  0  0  0
    7.2092   58.3551    0.2307 C   0  0  0  0  0  0  0  0  0  0  0  0
   10.1448   58.9250   -1.2659 H   0  0  0  0  0  0  0  0  0  0  0  0
    6.7474   55.3370    2.2492 N   0  0  0  0  0  0  0  0  0  0  0  0
    7.1964   55.2838    3.1238 H   0  0  0  0  0  0  0  0  0  0  0  0
    6.2053   54.1505    1.5575 C   0  0  0  0  0  0  0  0  0  0  0  0
    5.1376   53.5288    2.4801 C   0  0  0  0  0  0  0  0  0  0  0  0
    4.9811   52.0331    2.2416 C   0  0  0  0  0  0  0  0  0  0  0  0
    6.2763   51.2765    2.5385 C   0  0  0  0  0  0  0  0  0  0  0  0
    7.5369   52.1069    2.2910 C   0  0  0  0  0  0  0  0  0  0  0  0
    7.3240   53.1491    1.1982 C   0  0  0  0  0  0  0  0  0  0  0  0
  1  2  2  0
  2  3  1  0
  3  4  1  0
  4  5  2  0
  5  6  1  0
  6  7  2  0
  7 13  1  0
 13 15  1  0
 15 16  1  0
 16 17  1  0
 17 18  1  0
 18 19  1  0
 19 20  1  0
  7  8  1  0
  8  9  2  0
  9 10  1  0
 10 11  2  0
 11  2  1  0
 11  6  1  0
 20 15  1  0
  3 12  1  0
 13 14  1  0
M  END
> <minimizedAffinity>
-6.87379

> <CNNscore>
0.6290923953

> <CNNaffinity>
5.8877696991

> <CNN_VS>
3.7039511204

> <CNNaffinity_variance>
0.1186929047

$$$$



 20 22  0  0  0  0  0  0  0  0999 V2000
    6.4825   59.0628   -0.1253 O   0  0  0  0  0  0  0  0  0  0  0  0
    6.0764   58.1251    0.5530 C   0  0  0  0  0  0  0  0  0  0  0  0
    4.7528   58.0656    0.9522 N   0  0  0  0  0  0  0  0  0  0  0  0
    4.2223   57.0669    1.7220 C   0  0  0  0  0  0  0  0  0  0  0  0
    4.9689   56.0345    2.1276 C   0  0  0  0  0  0  0  0  0  0  0  0
    6.3798   55.9648    1.7315 C   0  0  0  0  0  0  0  0  0  0  0  0
    7.2580   54.9470    2.0774 C   0  0  0  0  0  0  0  0  0  0  0  0
    8.5690   54.9875    1.7748 N   0  0  0  0  0  0  0  0  0  0  0  0
    9.0023   56.0420    1.0676 C   0  0  0  0  0  0  0  0  0  0  0  0
    8.2548   57.0568    0.6389 N   0  0  0  0  0  0  0  0  0  0  0  0
    6.9523   56.9921    0.9952 C   0  0  0  0  0  0  0  0  0  0  0  0
    4.1527   58.7905    0.6629 H   0  0  0  0  0  0  0  0  0  0  0  0
    6.8676   53.8009    2.7856 N   0  0  0  0  0  0  0  0  0  0  0  0
    6.7289   53.7996    3.7603 H   0  0  0  0  0  0  0  0  0  0  0  0
    6.6814   52.5965    1.9520 C   0  0  0  0  0  0  0  0  0  0  0  0
    5.1759   52.4833    1.6381 C   0  0  0  0  0  0  0  0  0  0  0  0
    4.7543   51.0421    1.3860 C   0  0  0  0  0  0  0  0  0  0  0  0
    4.9882   50.1633    2.6153 C   0  0  0  0  0  0  0  0  0  0  0  0
    6.1617   50.6263    3.4804 C   0  0  0  0  0  0  0  0  0  0  0  0
    7.2296   51.3360    2.6548 C   0  0  0  0  0  0  0  0  0  0  0  0
  1  2  2  0
  2  3  1  0
  3  4  1  0
  4  5  2  0
  5  6  1  0
  6  7  2  0
  7 13  1  0
 13 15  1  0
 15 16  1  0
 16 17  1  0
 17 18  1  0
 18 19  1  0
 19 20  1  0
  7  8  1  0
  8  9  2  0
  9 10  1  0
 10 11  2  0
 11  2  1  0
 11  6  1  0
 20 15  1  0
  3 12  1  0
 13 14  1  0
M  END
> <minimizedAffinity>
-6.47062

> <CNNscore>
0.2969976664

> <CNNaffinity>
5.6260981560

> <CNN_VS>
1.6709380150

> <CNNaffinity_variance>
0.0180759002

$$$$



 20 22  0  0  0  0  0  0  0  0999 V2000
    5.3379   58.7469    0.2082 O   0  0  0  0  0  0  0  0  0  0  0  0
    6.1042   57.8049    0.3806 C   0  0  0  0  0  0  0  0  0  0  0  0
    7.3438   57.7835   -0.2341 N   0  0  0  0  0  0  0  0  0  0  0  0
    8.2503   56.7666   -0.1097 C   0  0  0  0  0  0  0  0  0  0  0  0
    7.9985   55.7054    0.6635 C   0  0  0  0  0  0  0  0  0  0  0  0
    6.7322   55.6341    1.4009 C   0  0  0  0  0  0  0  0  0  0  0  0
    6.3532   54.5956    2.2404 C   0  0  0  0  0  0  0  0  0  0  0  0
    5.1347   54.5317    2.8089 N   0  0  0  0  0  0  0  0  0  0  0  0
    4.2953   55.5517    2.5752 C   0  0  0  0  0  0  0  0  0  0  0  0
    4.5546   56.6228    1.8282 N   0  0  0  0  0  0  0  0  0  0  0  0
    5.7762   56.6282    1.2492 C   0  0  0  0  0  0  0  0  0  0  0  0
    7.5898   58.5516   -0.7988 H   0  0  0  0  0  0  0  0  0  0  0  0
    7.1910   53.5158    2.5558 N   0  0  0  0  0  0  0  0  0  0  0  0
    7.9230   53.5842    3.2106 H   0  0  0  0  0  0  0  0  0  0  0  0
    6.8870   52.2682    1.8270 C   0  0  0  0  0  0  0  0  0  0  0  0
    5.7721   52.5895    0.8114 C   0  0  0  0  0  0  0  0  0  0  0  0
    4.9309   51.3633    0.4833 C   0  0  0  0  0  0  0  0  0  0  0  0
    4.2183   50.8208    1.7228 C   0  0  0  0  0  0  0  0  0  0  0  0
    4.9814   51.0750    3.0239 C   0  0  0  0  0  0  0  0  0  0  0  0
    6.4881   51.1341    2.7955 C   0  0  0  0  0  0  0  0  0  0  0  0
  1  2  2  0
  2  3  1  0
  3  4  1  0
  4  5  2  0
  5  6  1  0
  6  7  2  0
  7 13  1  0
 13 15  1  0
 15 16  1  0
 16 17  1  0
 17 18  1  0
 18 19  1  0
 19 20  1  0
  7  8  1  0
  8  9  2  0
  9 10  1  0
 10 11  2  0
 11  2  1  0
 11  6  1  0
 20 15  1  0
  3 12  1  0
 13 14  1  0
M  END
> <minimizedAffinity>
-6.65422

> <CNNscore>
0.2208024263

> <CNNaffinity>
5.1359367371

> <CNN_VS>
1.1340272427

> <CNNaffinity_variance>
0.1259338260

$$$$



 20 22  0  0  0  0  0  0  0  0999 V2000
    2.3508   48.7305    3.9867 O   0  0  0  0  0  0  0  0  0  0  0  0
    3.4647   49.2369    3.9022 C   0  0  0  0  0  0  0  0  0  0  0  0
    4.3851   49.0894    4.9250 N   0  0  0  0  0  0  0  0  0  0  0  0
    5.6400   49.6340    4.9193 C   0  0  0  0  0  0  0  0  0  0  0  0
    6.0819   50.3441    3.8763 C   0  0  0  0  0  0  0  0  0  0  0  0
    5.2103   50.5343    2.7117 C   0  0  0  0  0  0  0  0  0  0  0  0
    5.5496   51.2405    1.5658 C   0  0  0  0  0  0  0  0  0  0  0  0
    4.6723   51.4728    0.5717 N   0  0  0  0  0  0  0  0  0  0  0  0
    3.4457   50.9453    0.7012 C   0  0  0  0  0  0  0  0  0  0  0  0
    3.0128   50.2142    1.7263 N   0  0  0  0  0  0  0  0  0  0  0  0
    3.9154   50.0358    2.7168 C   0  0  0  0  0  0  0  0  0  0  0  0
    4.1190   48.5569    5.7091 H   0  0  0  0  0  0  0  0  0  0  0  0
    6.8219   51.7897    1.3485 N   0  0  0  0  0  0  0  0  0  0  0  0
    7.5125   51.3361    0.8132 H   0  0  0  0  0  0  0  0  0  0  0  0
    7.0423   53.1027    1.9869 C   0  0  0  0  0  0  0  0  0  0  0  0
    5.6565   53.6831    2.3341 C   0  0  0  0  0  0  0  0  0  0  0  0
    5.6701   55.2053    2.3699 C   0  0  0  0  0  0  0  0  0  0  0  0
    6.0380   55.7977    1.0090 C   0  0  0  0  0  0  0  0  0  0  0  0
    6.9652   54.9020    0.1856 C   0  0  0  0  0  0  0  0  0  0  0  0
    7.8587   54.0421    1.0734 C   0  0  0  0  0  0  0  0  0  0  0  0
  1  2  2  0
  2  3  1  0
  3  4  1  0
  4  5  2  0
  5  6  1  0
  6  7  2  0
  7 13  1  0
 13 15  1  0
 15 16  1  0
 16 17  1  0
 17 18  1  0
 18 19  1  0
 19 20  1  0
  7  8  1  0
  8  9  2  0
  9 10  1  0
 10 11  2  0
 11  2  1  0
 11  6  1  0
 20 15  1  0
  3 12  1  0
 13 14  1  0
M  END
> <minimizedAffinity>
-6.89363

> <CNNscore>
0.1844647676

> <CNNaffinity>
4.0599765778

> <CNN_VS>
0.7489226460

> <CNNaffinity_variance>
1.0160384178

$$$$
