


 24 26  0  0  0  0  0  0  0  0999 V2000
    6.1553   10.5190    6.1231 C   0  0  0  0  0  0  0  0  0  0  0  0
    5.4394   10.1220    4.8651 C   0  0  0  0  0  0  0  0  0  0  0  0
    4.0477   10.0019    4.9964 C   0  0  0  0  0  0  0  0  0  0  0  0
    3.1961    9.7644    3.9892 N   0  0  0  0  0  0  0  0  0  0  0  0
    3.7473    9.6743    2.7702 C   0  0  0  0  0  0  0  0  0  0  0  0
    5.1117    9.7669    2.4991 C   0  0  0  0  0  0  0  0  0  0  0  0
    5.5051    9.6692    1.1571 C   0  0  0  0  0  0  0  0  0  0  0  0
    6.8368    9.7458    0.8101 C   0  0  0  0  0  0  0  0  0  0  0  0
    7.1941    9.6567   -0.4764 F   0  0  0  0  0  0  0  0  0  0  0  0
    7.8023    9.8809    1.7819 C   0  0  0  0  0  0  0  0  0  0  0  0
    7.4362    9.9558    3.1431 C   0  0  0  0  0  0  0  0  0  0  0  0
    6.0465    9.9561    3.5637 C   0  0  0  0  0  0  0  0  0  0  0  0
    8.8442    9.9268    4.2586 S   0  0  0  0  0  0  0  0  0  0  0  0
    9.0169   11.2671    4.7874 O   0  0  0  0  0  0  0  0  0  0  0  0
    8.6515    8.8195    5.1654 O   0  0  0  0  0  0  0  0  0  0  0  0
   10.2124    9.6614    3.2453 N   0  0  0  0  0  0  0  0  0  0  0  0
   11.3579   10.5746    3.5633 C   0  0  0  0  0  0  0  0  0  0  0  0
   12.5718   10.4310    2.6511 C   0  0  0  0  0  0  0  0  0  0  0  0
   12.2446   10.0942    1.2015 C   0  0  0  0  0  0  0  0  0  0  0  0
   12.1793    8.6536    0.9746 N   0  0  0  0  0  0  0  0  0  0  0  0
   10.9793    8.0120    1.5235 C   0  0  0  0  0  0  0  0  0  0  0  0
   10.6764    8.2261    3.0365 C   0  0  0  0  0  0  0  0  0  0  0  0
    9.6889    7.1412    3.4725 C   0  0  0  0  0  0  0  0  0  0  0  0
   12.9976    8.2244    1.4067 H   0  0  0  0  0  0  0  0  0  0  0  0
  1  2  1  0
  2  3  2  0
  3  4  1  0
  4  5  2  0
  5  6  1  0
  6  7  2  0
  7  8  1  0
  8  9  1  0
  8 10  2  0
 10 11  1  0
 11 13  1  0
 13 14  2  0
 13 15  2  0
 13 16  1  0
 16 17  1  0
 17 18  1  0
 18 19  1  0
 19 20  1  0
 20 21  1  0
 21 22  1  0
 22 23  1  0
 11 12  2  0
 12  2  1  0
 12  6  1  0
 22 16  1  0
 20 24  1  0
M  END
> <minimizedAffinity>
-9.49535

> <CNNscore>
0.9811417460

> <CNNaffinity>
6.9413123131

> <CNN_VS>
6.8104114532

> <CNNaffinity_variance>
0.0104271844

$$$$



 24 26  0  0  0  0  0  0  0  0999 V2000
    4.2816    9.2574    1.4622 C   0  0  0  0  0  0  0  0  0  0  0  0
    4.4683    9.7077    2.8818 C   0  0  0  0  0  0  0  0  0  0  0  0
    3.2955    9.7178    3.6520 C   0  0  0  0  0  0  0  0  0  0  0  0
    3.2380    9.9788    4.9652 N   0  0  0  0  0  0  0  0  0  0  0  0
    4.4150   10.2102    5.5644 C   0  0  0  0  0  0  0  0  0  0  0  0
    5.6508   10.2374    4.9196 C   0  0  0  0  0  0  0  0  0  0  0  0
    6.7813   10.4756    5.7135 C   0  0  0  0  0  0  0  0  0  0  0  0
    8.0373   10.5228    5.1479 C   0  0  0  0  0  0  0  0  0  0  0  0
    9.1062   10.7452    5.9216 F   0  0  0  0  0  0  0  0  0  0  0  0
    8.1940   10.3746    3.7884 C   0  0  0  0  0  0  0  0  0  0  0  0
    7.0702   10.1593    2.9619 C   0  0  0  0  0  0  0  0  0  0  0  0
    5.7317   10.0254    3.5084 C   0  0  0  0  0  0  0  0  0  0  0  0
    7.4623   10.1933    1.2090 S   0  0  0  0  0  0  0  0  0  0  0  0
    6.7237    9.1201    0.5698 O   0  0  0  0  0  0  0  0  0  0  0  0
    7.2849   11.5527    0.7550 O   0  0  0  0  0  0  0  0  0  0  0  0
    9.1172    9.7231    1.1115 N   0  0  0  0  0  0  0  0  0  0  0  0
    9.4382    8.5410    1.9757 C   0  0  0  0  0  0  0  0  0  0  0  0
   10.9053    8.1239    1.9819 C   0  0  0  0  0  0  0  0  0  0  0  0
   11.8967    9.2753    1.8654 C   0  0  0  0  0  0  0  0  0  0  0  0
   12.2182    9.5834    0.4753 N   0  0  0  0  0  0  0  0  0  0  0  0
   11.1454   10.2713   -0.2521 C   0  0  0  0  0  0  0  0  0  0  0  0
    9.7414    9.5967   -0.2717 C   0  0  0  0  0  0  0  0  0  0  0  0
    8.9411   10.2188   -1.4184 C   0  0  0  0  0  0  0  0  0  0  0  0
   12.4219    8.7082   -0.0074 H   0  0  0  0  0  0  0  0  0  0  0  0
  1  2  1  0
  2  3  2  0
  3  4  1  0
  4  5  2  0
  5  6  1  0
  6  7  2  0
  7  8  1  0
  8  9  1  0
  8 10  2  0
 10 11  1  0
 11 13  1  0
 13 14  2  0
 13 15  2  0
 13 16  1  0
 16 17  1  0
 17 18  1  0
 18 19  1  0
 19 20  1  0
 20 21  1  0
 21 22  1  0
 22 23  1  0
 11 12  2  0
 12  2  1  0
 12  6  1  0
 22 16  1  0
 20 24  1  0
M  END
> <minimizedAffinity>
-9.31994

> <CNNscore>
0.9684092402

> <CNNaffinity>
6.6534962654

> <CNN_VS>
6.4433073997

> <CNNaffinity_variance>
0.2488150746

$$$$



 24 26  0  0  0  0  0  0  0  0999 V2000
    6.1887    9.3883    1.4517 C   0  0  0  0  0  0  0  0  0  0  0  0
    6.3812    9.8912    2.8527 C   0  0  0  0  0  0  0  0  0  0  0  0
    5.1958   10.2391    3.5180 C   0  0  0  0  0  0  0  0  0  0  0  0
    5.1133   10.6084    4.8036 N   0  0  0  0  0  0  0  0  0  0  0  0
    6.2674   10.6006    5.4863 C   0  0  0  0  0  0  0  0  0  0  0  0
    7.5141   10.2836    4.9489 C   0  0  0  0  0  0  0  0  0  0  0  0
    8.6115   10.3086    5.8209 C   0  0  0  0  0  0  0  0  0  0  0  0
    9.8772   10.0124    5.3628 C   0  0  0  0  0  0  0  0  0  0  0  0
   10.9125   10.0351    6.2103 F   0  0  0  0  0  0  0  0  0  0  0  0
   10.0862    9.7253    4.0329 C   0  0  0  0  0  0  0  0  0  0  0  0
    9.0031    9.7183    3.1277 C   0  0  0  0  0  0  0  0  0  0  0  0
    7.6379    9.9486    3.5649 C   0  0  0  0  0  0  0  0  0  0  0  0
    9.5111    9.5212    1.4158 S   0  0  0  0  0  0  0  0  0  0  0  0
    9.2209    8.1546    1.0232 O   0  0  0  0  0  0  0  0  0  0  0  0
    8.9391   10.6166    0.6686 O   0  0  0  0  0  0  0  0  0  0  0  0
   11.2307    9.6273    1.4442 N   0  0  0  0  0  0  0  0  0  0  0  0
   11.7235   10.9914    1.8232 C   0  0  0  0  0  0  0  0  0  0  0  0
   13.2389   11.1620    1.7968 C   0  0  0  0  0  0  0  0  0  0  0  0
   13.9516   10.3687    0.7083 C   0  0  0  0  0  0  0  0  0  0  0  0
   14.3305    9.0339    1.1617 N   0  0  0  0  0  0  0  0  0  0  0  0
   13.2071    8.0974    1.2802 C   0  0  0  0  0  0  0  0  0  0  0  0
   12.0003    8.5290    2.1656 C   0  0  0  0  0  0  0  0  0  0  0  0
   11.1971    7.2710    2.5046 C   0  0  0  0  0  0  0  0  0  0  0  0
   14.7727    9.1204    2.0767 H   0  0  0  0  0  0  0  0  0  0  0  0
  1  2  1  0
  2  3  2  0
  3  4  1  0
  4  5  2  0
  5  6  1  0
  6  7  2  0
  7  8  1  0
  8  9  1  0
  8 10  2  0
 10 11  1  0
 11 13  1  0
 13 14  2  0
 13 15  2  0
 13 16  1  0
 16 17  1  0
 17 18  1  0
 18 19  1  0
 19 20  1  0
 20 21  1  0
 21 22  1  0
 22 23  1  0
 11 12  2  0
 12  2  1  0
 12  6  1  0
 22 16  1  0
 20 24  1  0
M  END
> <minimizedAffinity>
-7.90820

> <CNNscore>
0.7726380229

> <CNNaffinity>
6.5591092110

> <CNN_VS>
5.0678172112

> <CNNaffinity_variance>
0.0925154760

$$$$



 24 26  0  0  0  0  0  0  0  0999 V2000
   10.6889   11.1568    3.7250 C   0  0  0  0  0  0  0  0  0  0  0  0
    9.2963   10.6725    4.0058 C   0  0  0  0  0  0  0  0  0  0  0  0
    8.9199   10.7231    5.3565 C   0  0  0  0  0  0  0  0  0  0  0  0
    7.6962   10.4446    5.8266 N   0  0  0  0  0  0  0  0  0  0  0  0
    6.7760   10.1302    4.9035 C   0  0  0  0  0  0  0  0  0  0  0  0
    7.0151   10.0365    3.5332 C   0  0  0  0  0  0  0  0  0  0  0  0
    5.9238    9.7151    2.7141 C   0  0  0  0  0  0  0  0  0  0  0  0
    6.0821    9.5989    1.3499 C   0  0  0  0  0  0  0  0  0  0  0  0
    5.0283    9.2974    0.5823 F   0  0  0  0  0  0  0  0  0  0  0  0
    7.3236    9.7592    0.7774 C   0  0  0  0  0  0  0  0  0  0  0  0
    8.4447   10.0579    1.5815 C   0  0  0  0  0  0  0  0  0  0  0  0
    8.3266   10.2662    3.0135 C   0  0  0  0  0  0  0  0  0  0  0  0
    9.9954   10.0282    0.6749 S   0  0  0  0  0  0  0  0  0  0  0  0
    9.8052    9.1971   -0.4994 O   0  0  0  0  0  0  0  0  0  0  0  0
   10.4290   11.3969    0.5196 O   0  0  0  0  0  0  0  0  0  0  0  0
   11.0842    9.1480    1.6794 N   0  0  0  0  0  0  0  0  0  0  0  0
   10.6219    7.7484    1.9525 C   0  0  0  0  0  0  0  0  0  0  0  0
   11.5132    6.9450    2.8940 C   0  0  0  0  0  0  0  0  0  0  0  0
   12.1716    7.7603    4.0002 C   0  0  0  0  0  0  0  0  0  0  0  0
   13.4652    8.2977    3.5895 N   0  0  0  0  0  0  0  0  0  0  0  0
   13.3789    9.4183    2.6461 C   0  0  0  0  0  0  0  0  0  0  0  0
   12.5669    9.1953    1.3356 C   0  0  0  0  0  0  0  0  0  0  0  0
   12.9812   10.2813    0.3398 C   0  0  0  0  0  0  0  0  0  0  0  0
   13.9973    7.5480    3.1478 H   0  0  0  0  0  0  0  0  0  0  0  0
  1  2  1  0
  2  3  2  0
  3  4  1  0
  4  5  2  0
  5  6  1  0
  6  7  2  0
  7  8  1  0
  8  9  1  0
  8 10  2  0
 10 11  1  0
 11 13  1  0
 13 14  2  0
 13 15  2  0
 13 16  1  0
 16 17  1  0
 17 18  1  0
 18 19  1  0
 19 20  1  0
 20 21  1  0
 21 22  1  0
 22 23  1  0
 11 12  2  0
 12  2  1  0
 12  6  1  0
 22 16  1  0
 20 24  1  0
M  END
> <minimizedAffinity>
-7.30270

> <CNNscore>
0.5643376112

> <CNNaffinity>
5.8766269684

> <CNN_VS>
3.3164017200

> <CNNaffinity_variance>
0.2286768109

$$$$



 24 26  0  0  0  0  0  0  0  0999 V2000
    6.4350    9.3194    1.5983 C   0  0  0  0  0  0  0  0  0  0  0  0
    6.5184    9.8291    3.0076 C   0  0  0  0  0  0  0  0  0  0  0  0
    5.2943   10.2443    3.5534 C   0  0  0  0  0  0  0  0  0  0  0  0
    5.1085   10.6329    4.8225 N   0  0  0  0  0  0  0  0  0  0  0  0
    6.1902   10.5754    5.6128 C   0  0  0  0  0  0  0  0  0  0  0  0
    7.4646   10.1895    5.1998 C   0  0  0  0  0  0  0  0  0  0  0  0
    8.4736   10.1699    6.1729 C   0  0  0  0  0  0  0  0  0  0  0  0
    9.7604    9.8048    5.8405 C   0  0  0  0  0  0  0  0  0  0  0  0
   10.7098    9.7858    6.7833 F   0  0  0  0  0  0  0  0  0  0  0  0
   10.0804    9.4914    4.5390 C   0  0  0  0  0  0  0  0  0  0  0  0
    9.0897    9.5279    3.5341 C   0  0  0  0  0  0  0  0  0  0  0  0
    7.7026    9.8318    3.8366 C   0  0  0  0  0  0  0  0  0  0  0  0
    9.7481    9.2845    1.8804 S   0  0  0  0  0  0  0  0  0  0  0  0
    9.3180    7.9767    1.4214 O   0  0  0  0  0  0  0  0  0  0  0  0
    9.4154   10.4584    1.1080 O   0  0  0  0  0  0  0  0  0  0  0  0
   11.4528    9.1504    2.0926 N   0  0  0  0  0  0  0  0  0  0  0  0
   11.8806    7.7769    2.5144 C   0  0  0  0  0  0  0  0  0  0  0  0
   13.3733    7.6189    2.7846 C   0  0  0  0  0  0  0  0  0  0  0  0
   14.0462    8.8461    3.3873 C   0  0  0  0  0  0  0  0  0  0  0  0
   14.5520    9.7534    2.3617 N   0  0  0  0  0  0  0  0  0  0  0  0
   13.5090   10.5151    1.6651 C   0  0  0  0  0  0  0  0  0  0  0  0
   12.3529    9.7107    0.9996 C   0  0  0  0  0  0  0  0  0  0  0  0
   11.6687   10.6302   -0.0147 C   0  0  0  0  0  0  0  0  0  0  0  0
   15.0614    9.2027    1.6706 H   0  0  0  0  0  0  0  0  0  0  0  0
  1  2  1  0
  2  3  2  0
  3  4  1  0
  4  5  2  0
  5  6  1  0
  6  7  2  0
  7  8  1  0
  8  9  1  0
  8 10  2  0
 10 11  1  0
 11 13  1  0
 13 14  2  0
 13 15  2  0
 13 16  1  0
 16 17  1  0
 17 18  1  0
 18 19  1  0
 19 20  1  0
 20 21  1  0
 21 22  1  0
 22 23  1  0
 11 12  2  0
 12  2  1  0
 12  6  1  0
 22 16  1  0
 20 24  1  0
M  END
> <minimizedAffinity>
-8.62919

> <CNNscore>
0.5563592315

> <CNNaffinity>
6.4906134605

> <CNN_VS>
3.6111128330

> <CNNaffinity_variance>
0.0509285815

$$$$



 24 26  0  0  0  0  0  0  0  0999 V2000
    9.2479    9.8760    1.3754 C   0  0  0  0  0  0  0  0  0  0  0  0
    7.8722   10.2552    1.8406 C   0  0  0  0  0  0  0  0  0  0  0  0
    6.9264   10.4005    0.8145 C   0  0  0  0  0  0  0  0  0  0  0  0
    5.6186   10.6283    0.9982 N   0  0  0  0  0  0  0  0  0  0  0  0
    5.2110   10.6814    2.2744 C   0  0  0  0  0  0  0  0  0  0  0  0
    6.0427   10.5608    3.3868 C   0  0  0  0  0  0  0  0  0  0  0  0
    5.4354   10.6213    4.6489 C   0  0  0  0  0  0  0  0  0  0  0  0
    6.1920   10.5154    5.7961 C   0  0  0  0  0  0  0  0  0  0  0  0
    5.5951   10.5691    6.9926 F   0  0  0  0  0  0  0  0  0  0  0  0
    7.5602   10.3875    5.7178 C   0  0  0  0  0  0  0  0  0  0  0  0
    8.2005   10.3497    4.4604 C   0  0  0  0  0  0  0  0  0  0  0  0
    7.4506   10.3813    3.2176 C   0  0  0  0  0  0  0  0  0  0  0  0
    9.9930   10.3821    4.5764 S   0  0  0  0  0  0  0  0  0  0  0  0
   10.4637   11.5331    3.8283 O   0  0  0  0  0  0  0  0  0  0  0  0
   10.3361   10.2478    5.9727 O   0  0  0  0  0  0  0  0  0  0  0  0
   10.5244    9.0113    3.6776 N   0  0  0  0  0  0  0  0  0  0  0  0
   11.9914    9.0492    3.3714 C   0  0  0  0  0  0  0  0  0  0  0  0
   12.5038    7.8942    2.5173 C   0  0  0  0  0  0  0  0  0  0  0  0
   11.5188    7.3888    1.4701 C   0  0  0  0  0  0  0  0  0  0  0  0
   10.6582    6.3315    1.9920 N   0  0  0  0  0  0  0  0  0  0  0  0
    9.6219    6.8018    2.9182 C   0  0  0  0  0  0  0  0  0  0  0  0
   10.0827    7.6335    4.1522 C   0  0  0  0  0  0  0  0  0  0  0  0
    8.9446    7.6193    5.1755 C   0  0  0  0  0  0  0  0  0  0  0  0
   11.2436    5.6559    2.4832 H   0  0  0  0  0  0  0  0  0  0  0  0
  1  2  1  0
  2  3  2  0
  3  4  1  0
  4  5  2  0
  5  6  1  0
  6  7  2  0
  7  8  1  0
  8  9  1  0
  8 10  2  0
 10 11  1  0
 11 13  1  0
 13 14  2  0
 13 15  2  0
 13 16  1  0
 16 17  1  0
 17 18  1  0
 18 19  1  0
 19 20  1  0
 20 21  1  0
 21 22  1  0
 22 23  1  0
 11 12  2  0
 12  2  1  0
 12  6  1  0
 22 16  1  0
 20 24  1  0
M  END
> <minimizedAffinity>
-7.91144

> <CNNscore>
0.4397743344

> <CNNaffinity>
5.7252593040

> <CNN_VS>
2.5178220272

> <CNNaffinity_variance>
0.3624536991

$$$$



 24 26  0  0  0  0  0  0  0  0999 V2000
   11.9239    9.9317    1.2250 C   0  0  0  0  0  0  0  0  0  0  0  0
   10.5255   10.0430    0.6914 C   0  0  0  0  0  0  0  0  0  0  0  0
   10.4301   10.0298   -0.7084 C   0  0  0  0  0  0  0  0  0  0  0  0
    9.2840   10.0098   -1.4028 N   0  0  0  0  0  0  0  0  0  0  0  0
    8.1613    9.9645   -0.6711 C   0  0  0  0  0  0  0  0  0  0  0  0
    8.1117    9.9794    0.7221 C   0  0  0  0  0  0  0  0  0  0  0  0
    6.8449    9.9049    1.3178 C   0  0  0  0  0  0  0  0  0  0  0  0
    6.7139    9.9199    2.6897 C   0  0  0  0  0  0  0  0  0  0  0  0
    5.4973    9.8417    3.2416 F   0  0  0  0  0  0  0  0  0  0  0  0
    7.8242   10.0473    3.4932 C   0  0  0  0  0  0  0  0  0  0  0  0
    9.1097   10.1502    2.9194 C   0  0  0  0  0  0  0  0  0  0  0  0
    9.3174   10.0651    1.4850 C   0  0  0  0  0  0  0  0  0  0  0  0
   10.3958   10.5098    4.1212 S   0  0  0  0  0  0  0  0  0  0  0  0
   11.0934   11.7028    3.6785 O   0  0  0  0  0  0  0  0  0  0  0  0
    9.7824   10.4838    5.4282 O   0  0  0  0  0  0  0  0  0  0  0  0
   11.5373    9.2302    3.9516 N   0  0  0  0  0  0  0  0  0  0  0  0
   12.8216    9.4958    4.6778 C   0  0  0  0  0  0  0  0  0  0  0  0
   13.8954    8.4266    4.5047 C   0  0  0  0  0  0  0  0  0  0  0  0
   13.9176    7.7603    3.1344 C   0  0  0  0  0  0  0  0  0  0  0  0
   13.0517    6.5864    3.0815 N   0  0  0  0  0  0  0  0  0  0  0  0
   11.6182    6.8974    3.0433 C   0  0  0  0  0  0  0  0  0  0  0  0
   11.0481    7.8053    4.1735 C   0  0  0  0  0  0  0  0  0  0  0  0
    9.5286    7.6231    4.1961 C   0  0  0  0  0  0  0  0  0  0  0  0
   13.2336    6.0172    3.9082 H   0  0  0  0  0  0  0  0  0  0  0  0
  1  2  1  0
  2  3  2  0
  3  4  1  0
  4  5  2  0
  5  6  1  0
  6  7  2  0
  7  8  1  0
  8  9  1  0
  8 10  2  0
 10 11  1  0
 11 13  1  0
 13 14  2  0
 13 15  2  0
 13 16  1  0
 16 17  1  0
 17 18  1  0
 18 19  1  0
 19 20  1  0
 20 21  1  0
 21 22  1  0
 22 23  1  0
 11 12  2  0
 12  2  1  0
 12  6  1  0
 22 16  1  0
 20 24  1  0
M  END
> <minimizedAffinity>
-8.05790

> <CNNscore>
0.2141872942

> <CNNaffinity>
5.2947311401

> <CNN_VS>
1.1340640783

> <CNNaffinity_variance>
0.6546587944

$$$$



 24 26  0  0  0  0  0  0  0  0999 V2000
    9.0517   10.2950    0.5505 C   0  0  0  0  0  0  0  0  0  0  0  0
    8.1479   10.3455    1.7477 C   0  0  0  0  0  0  0  0  0  0  0  0
    6.7879   10.5164    1.4479 C   0  0  0  0  0  0  0  0  0  0  0  0
    5.7912   10.4836    2.3432 N   0  0  0  0  0  0  0  0  0  0  0  0
    6.1543   10.2315    3.6091 C   0  0  0  0  0  0  0  0  0  0  0  0
    7.4659   10.0494    4.0452 C   0  0  0  0  0  0  0  0  0  0  0  0
    7.6546    9.7735    5.4067 C   0  0  0  0  0  0  0  0  0  0  0  0
    8.9223    9.5867    5.9144 C   0  0  0  0  0  0  0  0  0  0  0  0
    9.0837    9.3181    7.2153 F   0  0  0  0  0  0  0  0  0  0  0  0
   10.0236    9.7070    5.0976 C   0  0  0  0  0  0  0  0  0  0  0  0
    9.8641   10.0096    3.7281 C   0  0  0  0  0  0  0  0  0  0  0  0
    8.5520   10.1432    3.1209 C   0  0  0  0  0  0  0  0  0  0  0  0
   11.4197   10.3206    2.8848 S   0  0  0  0  0  0  0  0  0  0  0  0
   11.2949    9.8205    1.5283 O   0  0  0  0  0  0  0  0  0  0  0  0
   11.7600   11.7062    3.1076 O   0  0  0  0  0  0  0  0  0  0  0  0
   12.5587    9.2768    3.6478 N   0  0  0  0  0  0  0  0  0  0  0  0
   12.9669    9.7560    5.0084 C   0  0  0  0  0  0  0  0  0  0  0  0
   14.0270    8.9067    5.7020 C   0  0  0  0  0  0  0  0  0  0  0  0
   15.0614    8.2893    4.7686 C   0  0  0  0  0  0  0  0  0  0  0  0
   14.6458    6.9780    4.2804 N   0  0  0  0  0  0  0  0  0  0  0  0
   13.5809    7.0214    3.2717 C   0  0  0  0  0  0  0  0  0  0  0  0
   12.2717    7.7814    3.6391 C   0  0  0  0  0  0  0  0  0  0  0  0
   11.1788    7.3228    2.6708 C   0  0  0  0  0  0  0  0  0  0  0  0
   14.3120    6.4320    5.0746 H   0  0  0  0  0  0  0  0  0  0  0  0
  1  2  1  0
  2  3  2  0
  3  4  1  0
  4  5  2  0
  5  6  1  0
  6  7  2  0
  7  8  1  0
  8  9  1  0
  8 10  2  0
 10 11  1  0
 11 13  1  0
 13 14  2  0
 13 15  2  0
 13 16  1  0
 16 17  1  0
 17 18  1  0
 18 19  1  0
 19 20  1  0
 20 21  1  0
 21 22  1  0
 22 23  1  0
 11 12  2  0
 12  2  1  0
 12  6  1  0
 22 16  1  0
 20 24  1  0
M  END
> <minimizedAffinity>
-8.31446

> <CNNscore>
0.1749918759

> <CNNaffinity>
5.4452624321

> <CNN_VS>
0.9528766870

> <CNNaffinity_variance>
0.2519477308

$$$$



 24 26  0  0  0  0  0  0  0  0999 V2000
    8.1553    9.6012   -0.0400 C   0  0  0  0  0  0  0  0  0  0  0  0
    7.4823    9.8732    1.2737 C   0  0  0  0  0  0  0  0  0  0  0  0
    6.2253   10.4881    1.1715 C   0  0  0  0  0  0  0  0  0  0  0  0
    5.3986   10.7278    2.1987 N   0  0  0  0  0  0  0  0  0  0  0  0
    5.8223   10.3031    3.3978 C   0  0  0  0  0  0  0  0  0  0  0  0
    7.0483    9.6857    3.6418 C   0  0  0  0  0  0  0  0  0  0  0  0
    7.3135    9.2892    4.9600 C   0  0  0  0  0  0  0  0  0  0  0  0
    8.5061    8.6775    5.2811 C   0  0  0  0  0  0  0  0  0  0  0  0
    8.7401    8.2999    6.5434 F   0  0  0  0  0  0  0  0  0  0  0  0
    9.4695    8.4825    4.3175 C   0  0  0  0  0  0  0  0  0  0  0  0
    9.2393    8.8953    2.9874 C   0  0  0  0  0  0  0  0  0  0  0  0
    7.9747    9.4765    2.5737 C   0  0  0  0  0  0  0  0  0  0  0  0
   10.6867    8.7362    1.9352 S   0  0  0  0  0  0  0  0  0  0  0  0
   10.5496    7.5058    1.1779 O   0  0  0  0  0  0  0  0  0  0  0  0
   10.8516    9.9902    1.2382 O   0  0  0  0  0  0  0  0  0  0  0  0
   11.9981    8.4565    3.0173 N   0  0  0  0  0  0  0  0  0  0  0  0
   12.9755    7.4453    2.4982 C   0  0  0  0  0  0  0  0  0  0  0  0
   14.1209    7.1069    3.4467 C   0  0  0  0  0  0  0  0  0  0  0  0
   13.7510    7.1213    4.9249 C   0  0  0  0  0  0  0  0  0  0  0  0
   13.9367    8.4395    5.5237 N   0  0  0  0  0  0  0  0  0  0  0  0
   12.9224    9.4256    5.1339 C   0  0  0  0  0  0  0  0  0  0  0  0
   12.7026    9.6689    3.6110 C   0  0  0  0  0  0  0  0  0  0  0  0
   11.9700   11.0034    3.4529 C   0  0  0  0  0  0  0  0  0  0  0  0
   14.8512    8.7928    5.2421 H   0  0  0  0  0  0  0  0  0  0  0  0
  1  2  1  0
  2  3  2  0
  3  4  1  0
  4  5  2  0
  5  6  1  0
  6  7  2  0
  7  8  1  0
  8  9  1  0
  8 10  2  0
 10 11  1  0
 11 13  1  0
 13 14  2  0
 13 15  2  0
 13 16  1  0
 16 17  1  0
 17 18  1  0
 18 19  1  0
 19 20  1  0
 20 21  1  0
 21 22  1  0
 22 23  1  0
 11 12  2  0
 12  2  1  0
 12  6  1  0
 22 16  1  0
 20 24  1  0
M  END
> <minimizedAffinity>
-8.55914

> <CNNscore>
0.1690079570

> <CNNaffinity>
5.8702559471

> <CNN_VS>
0.9921199679

> <CNNaffinity_variance>
0.1408504397

$$$$
