


 20 21  0  0  0  0  0  0  0  0999 V2000
   32.3019  -12.4486    3.8814 N   0  0  0  0  0  0  0  0  0  0  0  0
   31.3521  -13.3870    3.5128 C   0  0  0  0  0  0  0  0  0  0  0  0
   31.2017  -13.8945    2.4099 O   0  0  0  0  0  0  0  0  0  0  0  0
   32.2849  -12.1417    4.8166 H   0  0  0  0  0  0  0  0  0  0  0  0
   30.4434  -13.7913    4.5965 C   0  0  0  0  0  0  0  0  0  0  0  0
   30.6687  -14.9864    5.2891 C   0  0  0  0  0  0  0  0  0  0  0  0
   32.0323  -15.9954    4.9650 Cl  0  0  0  0  0  0  0  0  0  0  0  0
   29.7855  -15.3877    6.2946 C   0  0  0  0  0  0  0  0  0  0  0  0
   28.6808  -14.5945    6.5995 C   0  0  0  0  0  0  0  0  0  0  0  0
   27.4873  -15.1374    7.9607 Br  0  0  0  0  0  0  0  0  0  0  0  0
   28.4494  -13.4026    5.9148 C   0  0  0  0  0  0  0  0  0  0  0  0
   29.3319  -13.0004    4.9091 C   0  0  0  0  0  0  0  0  0  0  0  0
   29.0103  -11.5056    4.1060 Cl  0  0  0  0  0  0  0  0  0  0  0  0
   34.1417   -8.7334    1.7125 O   0  0  0  0  0  0  0  0  0  0  0  0
   34.2432   -9.9378    1.9155 C   0  0  0  0  0  0  0  0  0  0  0  0
   33.2379  -10.5902    2.7853 C   0  0  0  0  0  0  0  0  0  0  0  0
   33.2743  -11.9002    3.0592 C   0  0  0  0  0  0  0  0  0  0  0  0
   34.3489  -12.7704    2.4884 C   0  0  0  0  0  0  0  0  0  0  0  0
   35.2955  -11.9810    1.6294 C   0  0  0  0  0  0  0  0  0  0  0  0
   35.2361  -10.7137    1.3818 N   0  0  0  0  0  0  0  0  0  0  0  0
 14 15  2  0
 15 16  1  0
 16 17  2  0
 17  1  1  0
  1  2  1  0
  2  3  2  0
  2  5  1  0
  5  6  2  0
  6  7  1  0
  6  8  1  0
  8  9  2  0
  9 10  1  0
  9 11  1  0
 11 12  2  0
 12 13  1  0
 17 18  1  0
 18 19  1  0
 19 20  2  0
 20 15  1  0
 12  5  1  0
  1  4  1  0
M  END
> <minimizedAffinity>
-7.38606

> <CNNscore>
0.5465770960

> <CNNaffinity>
6.3622097969

> <CNN_VS>
3.4774382114

> <CNNaffinity_variance>
0.1823395491

$$$$



 20 21  0  0  0  0  0  0  0  0999 V2000
   32.2699  -12.4914    3.8441 N   0  0  0  0  0  0  0  0  0  0  0  0
   31.3438  -13.4440    3.4525 C   0  0  0  0  0  0  0  0  0  0  0  0
   31.2283  -13.9537    2.3464 O   0  0  0  0  0  0  0  0  0  0  0  0
   32.2251  -12.1848    4.7785 H   0  0  0  0  0  0  0  0  0  0  0  0
   30.4147  -13.8620    4.5135 C   0  0  0  0  0  0  0  0  0  0  0  0
   29.3147  -13.0591    4.8364 C   0  0  0  0  0  0  0  0  0  0  0  0
   28.9558  -11.6020    3.9817 Cl  0  0  0  0  0  0  0  0  0  0  0  0
   28.4522  -13.4387    5.8679 C   0  0  0  0  0  0  0  0  0  0  0  0
   28.6960  -14.6161    6.5729 C   0  0  0  0  0  0  0  0  0  0  0  0
   27.5280  -15.1296    7.9673 Br  0  0  0  0  0  0  0  0  0  0  0  0
   29.7889  -15.4215    6.2574 C   0  0  0  0  0  0  0  0  0  0  0  0
   30.6521  -15.0429    5.2261 C   0  0  0  0  0  0  0  0  0  0  0  0
   31.9790  -16.0867    4.8625 Cl  0  0  0  0  0  0  0  0  0  0  0  0
   34.1327   -8.7404    1.7582 O   0  0  0  0  0  0  0  0  0  0  0  0
   34.2350   -9.9471    1.9461 C   0  0  0  0  0  0  0  0  0  0  0  0
   33.2176  -10.6149    2.7897 C   0  0  0  0  0  0  0  0  0  0  0  0
   33.2539  -11.9284    3.0461 C   0  0  0  0  0  0  0  0  0  0  0  0
   34.3410  -12.7871    2.4813 C   0  0  0  0  0  0  0  0  0  0  0  0
   35.2991  -11.9827    1.6494 C   0  0  0  0  0  0  0  0  0  0  0  0
   35.2394  -10.7123    1.4185 N   0  0  0  0  0  0  0  0  0  0  0  0
 14 15  2  0
 15 16  1  0
 16 17  2  0
 17  1  1  0
  1  2  1  0
  2  3  2  0
  2  5  1  0
  5  6  2  0
  6  7  1  0
  6  8  1  0
  8  9  2  0
  9 10  1  0
  9 11  1  0
 11 12  2  0
 12 13  1  0
 17 18  1  0
 18 19  1  0
 19 20  2  0
 20 15  1  0
 12  5  1  0
  1  4  1  0
M  END
> <minimizedAffinity>
-7.37139

> <CNNscore>
0.5181592107

> <CNNaffinity>
6.3585028648

> <CNN_VS>
3.2947168350

> <CNNaffinity_variance>
0.1919822842

$$$$



 20 21  0  0  0  0  0  0  0  0999 V2000
   31.1179  -12.4662    3.7956 N   0  0  0  0  0  0  0  0  0  0  0  0
   31.3754  -13.1929    4.9462 C   0  0  0  0  0  0  0  0  0  0  0  0
   32.0204  -12.8320    5.9211 O   0  0  0  0  0  0  0  0  0  0  0  0
   30.5778  -12.9085    3.1013 H   0  0  0  0  0  0  0  0  0  0  0  0
   30.7912  -14.5428    4.9572 C   0  0  0  0  0  0  0  0  0  0  0  0
   31.4379  -15.5905    4.2917 C   0  0  0  0  0  0  0  0  0  0  0  0
   32.9567  -15.3783    3.4974 Cl  0  0  0  0  0  0  0  0  0  0  0  0
   30.8649  -16.8645    4.2725 C   0  0  0  0  0  0  0  0  0  0  0  0
   29.6477  -17.0833    4.9151 C   0  0  0  0  0  0  0  0  0  0  0  0
   28.8739  -18.8075    4.8899 Br  0  0  0  0  0  0  0  0  0  0  0  0
   28.9972  -16.0455    5.5806 C   0  0  0  0  0  0  0  0  0  0  0  0
   29.5693  -14.7710    5.6003 C   0  0  0  0  0  0  0  0  0  0  0  0
   28.7325  -13.5259    6.4559 Cl  0  0  0  0  0  0  0  0  0  0  0  0
   34.3280   -9.5551    2.0316 O   0  0  0  0  0  0  0  0  0  0  0  0
   33.2437   -9.6414    2.5963 C   0  0  0  0  0  0  0  0  0  0  0  0
   32.7226  -10.9907    2.9130 C   0  0  0  0  0  0  0  0  0  0  0  0
   31.5478  -11.1756    3.5279 C   0  0  0  0  0  0  0  0  0  0  0  0
   30.7017  -10.0078    3.9256 C   0  0  0  0  0  0  0  0  0  0  0  0
   31.3490   -8.7065    3.5450 C   0  0  0  0  0  0  0  0  0  0  0  0
   32.4870   -8.5575    2.9504 N   0  0  0  0  0  0  0  0  0  0  0  0
 14 15  2  0
 15 16  1  0
 16 17  2  0
 17  1  1  0
  1  2  1  0
  2  3  2  0
  2  5  1  0
  5  6  2  0
  6  7  1  0
  6  8  1  0
  8  9  2  0
  9 10  1  0
  9 11  1  0
 11 12  2  0
 12 13  1  0
 17 18  1  0
 18 19  1  0
 19 20  2  0
 20 15  1  0
 12  5  1  0
  1  4  1  0
M  END
> <minimizedAffinity>
-6.54053

> <CNNscore>
0.2834332585

> <CNNaffinity>
5.9809260368

> <CNN_VS>
1.6951934099

> <CNNaffinity_variance>
0.2512579262

$$$$



 20 21  0  0  0  0  0  0  0  0999 V2000
   29.5324   -9.3161    5.9425 N   0  0  0  0  0  0  0  0  0  0  0  0
   29.4133  -10.0608    4.7807 C   0  0  0  0  0  0  0  0  0  0  0  0
   28.3913  -10.2862    4.1472 O   0  0  0  0  0  0  0  0  0  0  0  0
   30.4348   -9.2326    6.3272 H   0  0  0  0  0  0  0  0  0  0  0  0
   30.6787  -10.6255    4.2873 C   0  0  0  0  0  0  0  0  0  0  0  0
   31.5647   -9.8248    3.5574 C   0  0  0  0  0  0  0  0  0  0  0  0
   31.2619   -8.1505    3.2612 Cl  0  0  0  0  0  0  0  0  0  0  0  0
   32.7501  -10.3707    3.0587 C   0  0  0  0  0  0  0  0  0  0  0  0
   33.0413  -11.7141    3.2890 C   0  0  0  0  0  0  0  0  0  0  0  0
   34.6457  -12.4516    2.6150 Br  0  0  0  0  0  0  0  0  0  0  0  0
   32.1646  -12.5184    4.0151 C   0  0  0  0  0  0  0  0  0  0  0  0
   30.9789  -11.9735    4.5143 C   0  0  0  0  0  0  0  0  0  0  0  0
   29.9377  -13.0080    5.4244 Cl  0  0  0  0  0  0  0  0  0  0  0  0
   25.0647   -7.9397    6.1335 O   0  0  0  0  0  0  0  0  0  0  0  0
   26.1441   -7.9518    6.7139 C   0  0  0  0  0  0  0  0  0  0  0  0
   27.2893   -8.6179    6.0525 C   0  0  0  0  0  0  0  0  0  0  0  0
   28.5024   -8.6771    6.6156 C   0  0  0  0  0  0  0  0  0  0  0  0
   28.7530   -8.0629    7.9565 C   0  0  0  0  0  0  0  0  0  0  0  0
   27.5100   -7.4247    8.5085 C   0  0  0  0  0  0  0  0  0  0  0  0
   26.3492   -7.3826    7.9413 N   0  0  0  0  0  0  0  0  0  0  0  0
 14 15  2  0
 15 16  1  0
 16 17  2  0
 17  1  1  0
  1  2  1  0
  2  3  2  0
  2  5  1  0
  5  6  2  0
  6  7  1  0
  6  8  1  0
  8  9  2  0
  9 10  1  0
  9 11  1  0
 11 12  2  0
 12 13  1  0
 17 18  1  0
 18 19  1  0
 19 20  2  0
 20 15  1  0
 12  5  1  0
  1  4  1  0
M  END
> <minimizedAffinity>
-6.82329

> <CNNscore>
0.2580617070

> <CNNaffinity>
4.7538247108

> <CNN_VS>
1.2267801762

> <CNNaffinity_variance>
0.8130019307

$$$$



 20 21  0  0  0  0  0  0  0  0999 V2000
   29.9927  -13.9115    4.0720 N   0  0  0  0  0  0  0  0  0  0  0  0
   31.0938  -13.4185    4.7523 C   0  0  0  0  0  0  0  0  0  0  0  0
   31.2458  -13.3499    5.9642 O   0  0  0  0  0  0  0  0  0  0  0  0
   30.0325  -13.8941    3.0885 H   0  0  0  0  0  0  0  0  0  0  0  0
   32.1783  -12.9337    3.8848 C   0  0  0  0  0  0  0  0  0  0  0  0
   33.0780  -13.8421    3.3155 C   0  0  0  0  0  0  0  0  0  0  0  0
   32.9283  -15.5482    3.5380 Cl  0  0  0  0  0  0  0  0  0  0  0  0
   34.1289  -13.3785    2.5201 C   0  0  0  0  0  0  0  0  0  0  0  0
   34.2767  -12.0100    2.3014 C   0  0  0  0  0  0  0  0  0  0  0  0
   35.6979  -11.3836    1.2243 Br  0  0  0  0  0  0  0  0  0  0  0  0
   33.3849  -11.0985    2.8643 C   0  0  0  0  0  0  0  0  0  0  0  0
   32.3336  -11.5611    3.6599 C   0  0  0  0  0  0  0  0  0  0  0  0
   31.2456  -10.3916    4.3163 Cl  0  0  0  0  0  0  0  0  0  0  0  0
   27.5939  -17.5584    5.7566 O   0  0  0  0  0  0  0  0  0  0  0  0
   27.5758  -16.3537    5.5321 C   0  0  0  0  0  0  0  0  0  0  0  0
   28.7749  -15.7352    4.9219 C   0  0  0  0  0  0  0  0  0  0  0  0
   28.8396  -14.4273    4.6437 C   0  0  0  0  0  0  0  0  0  0  0  0
   27.6848  -13.5246    4.9427 C   0  0  0  0  0  0  0  0  0  0  0  0
   26.5415  -14.2815    5.5567 C   0  0  0  0  0  0  0  0  0  0  0  0
   26.5066  -15.5477    5.8148 N   0  0  0  0  0  0  0  0  0  0  0  0
 14 15  2  0
 15 16  1  0
 16 17  2  0
 17  1  1  0
  1  2  1  0
  2  3  2  0
  2  5  1  0
  5  6  2  0
  6  7  1  0
  6  8  1  0
  8  9  2  0
  9 10  1  0
  9 11  1  0
 11 12  2  0
 12 13  1  0
 17 18  1  0
 18 19  1  0
 19 20  2  0
 20 15  1  0
 12  5  1  0
  1  4  1  0
M  END
> <minimizedAffinity>
-7.89025

> <CNNscore>
0.2554815114

> <CNNaffinity>
5.3115730286

> <CNN_VS>
1.3570086956

> <CNNaffinity_variance>
0.6427045465

$$$$



 20 21  0  0  0  0  0  0  0  0999 V2000
   30.0167  -13.9333    4.0833 N   0  0  0  0  0  0  0  0  0  0  0  0
   31.0886  -13.4188    4.7938 C   0  0  0  0  0  0  0  0  0  0  0  0
   31.1991  -13.3341    6.0092 O   0  0  0  0  0  0  0  0  0  0  0  0
   30.0892  -13.9269    3.1015 H   0  0  0  0  0  0  0  0  0  0  0  0
   32.1956  -12.9309    3.9570 C   0  0  0  0  0  0  0  0  0  0  0  0
   32.3347  -11.5602    3.7104 C   0  0  0  0  0  0  0  0  0  0  0  0
   31.2808  -10.3867    4.4138 Cl  0  0  0  0  0  0  0  0  0  0  0  0
   33.3653  -11.1001    2.8870 C   0  0  0  0  0  0  0  0  0  0  0  0
   34.2483  -12.0123    2.3120 C   0  0  0  0  0  0  0  0  0  0  0  0
   35.6431  -11.3890    1.1992 Br  0  0  0  0  0  0  0  0  0  0  0  0
   34.1171  -13.3790    2.5528 C   0  0  0  0  0  0  0  0  0  0  0  0
   33.0868  -13.8402    3.3760 C   0  0  0  0  0  0  0  0  0  0  0  0
   32.9813  -15.5408    3.6579 Cl  0  0  0  0  0  0  0  0  0  0  0  0
   27.6064  -17.5895    5.7310 O   0  0  0  0  0  0  0  0  0  0  0  0
   27.5815  -16.3878    5.4915 C   0  0  0  0  0  0  0  0  0  0  0  0
   28.7929  -15.7618    4.9141 C   0  0  0  0  0  0  0  0  0  0  0  0
   28.8514  -14.4565    4.6224 C   0  0  0  0  0  0  0  0  0  0  0  0
   27.6766  -13.5646    4.8721 C   0  0  0  0  0  0  0  0  0  0  0  0
   26.5225  -14.3283    5.4567 C   0  0  0  0  0  0  0  0  0  0  0  0
   26.4940  -15.5917    5.7287 N   0  0  0  0  0  0  0  0  0  0  0  0
 14 15  2  0
 15 16  1  0
 16 17  2  0
 17  1  1  0
  1  2  1  0
  2  3  2  0
  2  5  1  0
  5  6  2  0
  6  7  1  0
  6  8  1  0
  8  9  2  0
  9 10  1  0
  9 11  1  0
 11 12  2  0
 12 13  1  0
 17 18  1  0
 18 19  1  0
 19 20  2  0
 20 15  1  0
 12  5  1  0
  1  4  1  0
M  END
> <minimizedAffinity>
-7.86683

> <CNNscore>
0.2500651479

> <CNNaffinity>
5.2911162376

> <CNN_VS>
1.3231238127

> <CNNaffinity_variance>
0.6121466756

$$$$



 20 21  0  0  0  0  0  0  0  0999 V2000
   30.0105  -13.9008    3.9870 N   0  0  0  0  0  0  0  0  0  0  0  0
   31.1052  -13.4214    4.6873 C   0  0  0  0  0  0  0  0  0  0  0  0
   31.2462  -13.3781    5.9017 O   0  0  0  0  0  0  0  0  0  0  0  0
   30.0592  -13.8627    3.0044 H   0  0  0  0  0  0  0  0  0  0  0  0
   32.1969  -12.9178    3.8399 C   0  0  0  0  0  0  0  0  0  0  0  0
   33.1056  -13.8131    3.2641 C   0  0  0  0  0  0  0  0  0  0  0  0
   32.9593  -15.5233    3.4547 Cl  0  0  0  0  0  0  0  0  0  0  0  0
   34.1631  -13.3321    2.4881 C   0  0  0  0  0  0  0  0  0  0  0  0
   34.3087  -11.9594    2.2952 C   0  0  0  0  0  0  0  0  0  0  0  0
   35.7388  -11.3095    1.2444 Br  0  0  0  0  0  0  0  0  0  0  0  0
   33.4080  -11.0610    2.8648 C   0  0  0  0  0  0  0  0  0  0  0  0
   32.3500  -11.5409    3.6410 C   0  0  0  0  0  0  0  0  0  0  0  0
   31.2512  -10.3867    4.3066 Cl  0  0  0  0  0  0  0  0  0  0  0  0
   25.5379  -13.3899    5.2620 O   0  0  0  0  0  0  0  0  0  0  0  0
   26.4924  -14.1568    5.2094 C   0  0  0  0  0  0  0  0  0  0  0  0
   27.7621  -13.6588    4.6328 C   0  0  0  0  0  0  0  0  0  0  0  0
   28.8528  -14.4291    4.5373 C   0  0  0  0  0  0  0  0  0  0  0  0
   28.8318  -15.8460    5.0168 C   0  0  0  0  0  0  0  0  0  0  0  0
   27.4869  -16.2162    5.5749 C   0  0  0  0  0  0  0  0  0  0  0  0
   26.4489  -15.4500    5.6548 N   0  0  0  0  0  0  0  0  0  0  0  0
 14 15  2  0
 15 16  1  0
 16 17  2  0
 17  1  1  0
  1  2  1  0
  2  3  2  0
  2  5  1  0
  5  6  2  0
  6  7  1  0
  6  8  1  0
  8  9  2  0
  9 10  1  0
  9 11  1  0
 11 12  2  0
 12 13  1  0
 17 18  1  0
 18 19  1  0
 19 20  2  0
 20 15  1  0
 12  5  1  0
  1  4  1  0
M  END
> <minimizedAffinity>
-8.10351

> <CNNscore>
0.2479259074

> <CNNaffinity>
5.3358044624

> <CNN_VS>
1.3228842020

> <CNNaffinity_variance>
0.6415164471

$$$$



 20 21  0  0  0  0  0  0  0  0999 V2000
   31.3976  -12.6006    3.6578 N   0  0  0  0  0  0  0  0  0  0  0  0
   31.4913  -13.2866    4.8574 C   0  0  0  0  0  0  0  0  0  0  0  0
   32.0549  -12.9184    5.8788 O   0  0  0  0  0  0  0  0  0  0  0  0
   30.9045  -13.0429    2.9294 H   0  0  0  0  0  0  0  0  0  0  0  0
   30.8264  -14.5987    4.8618 C   0  0  0  0  0  0  0  0  0  0  0  0
   29.5748  -14.7467    5.4704 C   0  0  0  0  0  0  0  0  0  0  0  0
   28.7294  -13.4146    6.1731 Cl  0  0  0  0  0  0  0  0  0  0  0  0
   28.9594  -16.0005    5.5054 C   0  0  0  0  0  0  0  0  0  0  0  0
   29.5998  -17.0994    4.9355 C   0  0  0  0  0  0  0  0  0  0  0  0
   28.7660  -18.7950    4.9822 Br  0  0  0  0  0  0  0  0  0  0  0  0
   30.8461  -16.9606    4.3271 C   0  0  0  0  0  0  0  0  0  0  0  0
   31.4625  -15.7073    4.2916 C   0  0  0  0  0  0  0  0  0  0  0  0
   32.9967  -15.5862    3.5080 Cl  0  0  0  0  0  0  0  0  0  0  0  0
   31.0369   -7.9368    3.7566 O   0  0  0  0  0  0  0  0  0  0  0  0
   31.7388   -8.8895    3.4378 C   0  0  0  0  0  0  0  0  0  0  0  0
   31.2303  -10.2552    3.7008 C   0  0  0  0  0  0  0  0  0  0  0  0
   31.9317  -11.3507    3.3845 C   0  0  0  0  0  0  0  0  0  0  0  0
   33.2782  -11.2368    2.7427 C   0  0  0  0  0  0  0  0  0  0  0  0
   33.6674   -9.8006    2.5354 C   0  0  0  0  0  0  0  0  0  0  0  0
   32.9684   -8.7602    2.8514 N   0  0  0  0  0  0  0  0  0  0  0  0
 14 15  2  0
 15 16  1  0
 16 17  2  0
 17  1  1  0
  1  2  1  0
  2  3  2  0
  2  5  1  0
  5  6  2  0
  6  7  1  0
  6  8  1  0
  8  9  2  0
  9 10  1  0
  9 11  1  0
 11 12  2  0
 12 13  1  0
 17 18  1  0
 18 19  1  0
 19 20  2  0
 20 15  1  0
 12  5  1  0
  1  4  1  0
M  END
> <minimizedAffinity>
-6.52227

> <CNNscore>
0.2472870648

> <CNNaffinity>
6.0431289673

> <CNN_VS>
1.4943876266

> <CNNaffinity_variance>
0.4247037470

$$$$



 20 21  0  0  0  0  0  0  0  0999 V2000
   30.0237  -13.9367    3.9877 N   0  0  0  0  0  0  0  0  0  0  0  0
   31.0794  -13.4139    4.7161 C   0  0  0  0  0  0  0  0  0  0  0  0
   31.1673  -13.3253    5.9331 O   0  0  0  0  0  0  0  0  0  0  0  0
   30.1141  -13.9324    3.0074 H   0  0  0  0  0  0  0  0  0  0  0  0
   32.1985  -12.9214    3.8984 C   0  0  0  0  0  0  0  0  0  0  0  0
   32.3372  -11.5501    3.6556 C   0  0  0  0  0  0  0  0  0  0  0  0
   31.2681  -10.3807    4.3426 Cl  0  0  0  0  0  0  0  0  0  0  0  0
   33.3798  -11.0857    2.8498 C   0  0  0  0  0  0  0  0  0  0  0  0
   34.2752  -11.9944    2.2885 C   0  0  0  0  0  0  0  0  0  0  0  0
   35.6862  -11.3653    1.1997 Br  0  0  0  0  0  0  0  0  0  0  0  0
   34.1445  -13.3617    2.5256 C   0  0  0  0  0  0  0  0  0  0  0  0
   33.1022  -13.8272    3.3312 C   0  0  0  0  0  0  0  0  0  0  0  0
   32.9975  -15.5284    3.6095 Cl  0  0  0  0  0  0  0  0  0  0  0  0
   25.5533  -13.3929    5.2569 O   0  0  0  0  0  0  0  0  0  0  0  0
   26.4928  -14.1758    5.1761 C   0  0  0  0  0  0  0  0  0  0  0  0
   27.7762  -13.6784    4.6300 C   0  0  0  0  0  0  0  0  0  0  0  0
   28.8520  -14.4655    4.5069 C   0  0  0  0  0  0  0  0  0  0  0  0
   28.7995  -15.9015    4.9230 C   0  0  0  0  0  0  0  0  0  0  0  0
   27.4438  -16.2689    5.4560 C   0  0  0  0  0  0  0  0  0  0  0  0
   26.4206  -15.4863    5.5635 N   0  0  0  0  0  0  0  0  0  0  0  0
 14 15  2  0
 15 16  1  0
 16 17  2  0
 17  1  1  0
  1  2  1  0
  2  3  2  0
  2  5  1  0
  5  6  2  0
  6  7  1  0
  6  8  1  0
  8  9  2  0
  9 10  1  0
  9 11  1  0
 11 12  2  0
 12 13  1  0
 17 18  1  0
 18 19  1  0
 19 20  2  0
 20 15  1  0
 12  5  1  0
  1  4  1  0
M  END
> <minimizedAffinity>
-8.11323

> <CNNscore>
0.2434364706

> <CNNaffinity>
5.3280835152

> <CNN_VS>
1.2970498800

> <CNNaffinity_variance>
0.6267983317

$$$$
