


 24 25  0  0  0  0  0  0  0  0999 V2000
  -27.5973  -31.3371    7.3027 N   0  0  0  0  0  0  0  0  0  0  0  0
  -28.1089  -31.2785    6.4636 H   0  0  0  0  0  0  0  0  0  0  0  0
  -27.3818  -36.6307    9.5496 C   0  0  0  0  0  0  0  0  0  0  0  0
  -27.4742  -35.2412    8.9932 C   0  0  0  0  0  0  0  0  0  0  0  0
  -26.6275  -34.2330    9.4516 C   0  0  0  0  0  0  0  0  0  0  0  0
  -26.6919  -32.9485    8.9014 C   0  0  0  0  0  0  0  0  0  0  0  0
  -27.5986  -32.6255    7.8767 C   0  0  0  0  0  0  0  0  0  0  0  0
  -28.4514  -33.6507    7.4131 C   0  0  0  0  0  0  0  0  0  0  0  0
  -28.3736  -34.9454    7.9642 C   0  0  0  0  0  0  0  0  0  0  0  0
  -29.4488  -33.4772    6.3254 C   0  0  0  0  0  0  0  0  0  0  0  0
  -29.7660  -34.3265    5.5114 O   0  0  0  0  0  0  0  0  0  0  0  0
  -30.0546  -32.2759    6.3251 O   0  0  0  0  0  0  0  0  0  0  0  0
  -29.8070  -31.6262    6.9532 H   0  0  0  0  0  0  0  0  0  0  0  0
  -27.0084  -30.1157    7.6922 C   0  0  0  0  0  0  0  0  0  0  0  0
  -25.6660  -30.0680    8.1064 C   0  0  0  0  0  0  0  0  0  0  0  0
  -25.0926  -28.8812    8.5549 C   0  0  0  0  0  0  0  0  0  0  0  0
  -23.8083  -28.8728    8.9344 F   0  0  0  0  0  0  0  0  0  0  0  0
  -25.8288  -27.7092    8.6173 C   0  0  0  0  0  0  0  0  0  0  0  0
  -27.1620  -27.7249    8.2155 C   0  0  0  0  0  0  0  0  0  0  0  0
  -27.7557  -28.9145    7.7477 C   0  0  0  0  0  0  0  0  0  0  0  0
  -29.1861  -28.8061    7.3607 C   0  0  0  0  0  0  0  0  0  0  0  0
  -29.7399  -29.4772    6.5081 O   0  0  0  0  0  0  0  0  0  0  0  0
  -29.8810  -27.9164    8.0908 O   0  0  0  0  0  0  0  0  0  0  0  0
  -29.4460  -27.4049    8.7443 H   0  0  0  0  0  0  0  0  0  0  0  0
  3  4  1  0
  4  5  2  0
  5  6  1  0
  6  7  2  0
  7  1  1  0
  1 14  1  0
 14 15  2  0
 15 16  1  0
 16 17  1  0
 16 18  2  0
 18 19  1  0
 19 20  2  0
 20 21  1  0
 21 22  2  0
 21 23  1  0
  7  8  1  0
  8 10  1  0
 10 11  2  0
 10 12  1  0
  8  9  2  0
  9  4  1  0
 20 14  1  0
  1  2  1  0
 23 24  1  0
 12 13  1  0
M  END
> <minimizedAffinity>
-9.13765

> <CNNscore>
0.9857389927

> <CNNaffinity>
5.6317367554

> <CNN_VS>
5.5514225960

> <CNNaffinity_variance>
0.1098675728

$$$$



 24 25  0  0  0  0  0  0  0  0999 V2000
  -28.2666  -32.4706    7.5732 N   0  0  0  0  0  0  0  0  0  0  0  0
  -29.0663  -32.2704    7.0352 H   0  0  0  0  0  0  0  0  0  0  0  0
  -24.7895  -27.9940    8.5673 C   0  0  0  0  0  0  0  0  0  0  0  0
  -25.6870  -29.1559    8.2617 C   0  0  0  0  0  0  0  0  0  0  0  0
  -25.2194  -30.4648    8.3710 C   0  0  0  0  0  0  0  0  0  0  0  0
  -26.0724  -31.5453    8.1224 C   0  0  0  0  0  0  0  0  0  0  0  0
  -27.4176  -31.3595    7.7590 C   0  0  0  0  0  0  0  0  0  0  0  0
  -27.8876  -30.0325    7.6532 C   0  0  0  0  0  0  0  0  0  0  0  0
  -27.0259  -28.9487    7.9160 C   0  0  0  0  0  0  0  0  0  0  0  0
  -29.2841  -29.6683    7.2994 C   0  0  0  0  0  0  0  0  0  0  0  0
  -29.6564  -29.2533    6.2160 O   0  0  0  0  0  0  0  0  0  0  0  0
  -30.1730  -29.8865    8.2854 O   0  0  0  0  0  0  0  0  0  0  0  0
  -29.8816  -30.2057    9.1168 H   0  0  0  0  0  0  0  0  0  0  0  0
  -28.1972  -33.8117    8.0054 C   0  0  0  0  0  0  0  0  0  0  0  0
  -27.3671  -34.1757    9.0799 C   0  0  0  0  0  0  0  0  0  0  0  0
  -27.2403  -35.5051    9.4736 C   0  0  0  0  0  0  0  0  0  0  0  0
  -26.4458  -35.8128   10.5069 F   0  0  0  0  0  0  0  0  0  0  0  0
  -27.9205  -36.5153    8.8131 C   0  0  0  0  0  0  0  0  0  0  0  0
  -28.7491  -36.1866    7.7434 C   0  0  0  0  0  0  0  0  0  0  0  0
  -28.8986  -34.8449    7.3385 C   0  0  0  0  0  0  0  0  0  0  0  0
  -29.7996  -34.6237    6.1779 C   0  0  0  0  0  0  0  0  0  0  0  0
  -30.5651  -35.4482    5.7108 O   0  0  0  0  0  0  0  0  0  0  0  0
  -29.7585  -33.3722    5.6884 O   0  0  0  0  0  0  0  0  0  0  0  0
  -29.1662  -32.7452    6.0544 H   0  0  0  0  0  0  0  0  0  0  0  0
  3  4  1  0
  4  5  2  0
  5  6  1  0
  6  7  2  0
  7  1  1  0
  1 14  1  0
 14 15  2  0
 15 16  1  0
 16 17  1  0
 16 18  2  0
 18 19  1  0
 19 20  2  0
 20 21  1  0
 21 22  2  0
 21 23  1  0
  7  8  1  0
  8 10  1  0
 10 11  2  0
 10 12  1  0
  8  9  2  0
  9  4  1  0
 20 14  1  0
  1  2  1  0
 23 24  1  0
 12 13  1  0
M  END
> <minimizedAffinity>
-9.14180

> <CNNscore>
0.9749330878

> <CNNaffinity>
5.3662934303

> <CNN_VS>
5.2317771912

> <CNNaffinity_variance>
0.2217127234

$$$$



 24 25  0  0  0  0  0  0  0  0999 V2000
  -28.4507  -34.9925    8.9845 N   0  0  0  0  0  0  0  0  0  0  0  0
  -29.3697  -34.8116    9.2876 H   0  0  0  0  0  0  0  0  0  0  0  0
  -26.7909  -40.4944    9.2870 C   0  0  0  0  0  0  0  0  0  0  0  0
  -27.2313  -39.0613    9.2550 C   0  0  0  0  0  0  0  0  0  0  0  0
  -26.2953  -38.0282    9.2735 C   0  0  0  0  0  0  0  0  0  0  0  0
  -26.7105  -36.6942    9.2043 C   0  0  0  0  0  0  0  0  0  0  0  0
  -28.0690  -36.3443    9.1126 C   0  0  0  0  0  0  0  0  0  0  0  0
  -29.0129  -37.3940    9.0904 C   0  0  0  0  0  0  0  0  0  0  0  0
  -28.5871  -38.7360    9.1493 C   0  0  0  0  0  0  0  0  0  0  0  0
  -30.4808  -37.1928    8.9772 C   0  0  0  0  0  0  0  0  0  0  0  0
  -31.2113  -37.7369    8.1678 O   0  0  0  0  0  0  0  0  0  0  0  0
  -30.9935  -36.3682    9.9084 O   0  0  0  0  0  0  0  0  0  0  0  0
  -30.4275  -35.9523   10.5286 H   0  0  0  0  0  0  0  0  0  0  0  0
  -27.7770  -33.8481    8.5083 C   0  0  0  0  0  0  0  0  0  0  0  0
  -26.6223  -33.3756    9.1560 C   0  0  0  0  0  0  0  0  0  0  0  0
  -25.9863  -32.2108    8.7352 C   0  0  0  0  0  0  0  0  0  0  0  0
  -24.8839  -31.7956    9.3723 F   0  0  0  0  0  0  0  0  0  0  0  0
  -26.4759  -31.4727    7.6699 C   0  0  0  0  0  0  0  0  0  0  0  0
  -27.6193  -31.9141    7.0089 C   0  0  0  0  0  0  0  0  0  0  0  0
  -28.2694  -33.0972    7.4138 C   0  0  0  0  0  0  0  0  0  0  0  0
  -29.4852  -33.4562    6.6386 C   0  0  0  0  0  0  0  0  0  0  0  0
  -30.0107  -34.5550    6.6179 O   0  0  0  0  0  0  0  0  0  0  0  0
  -30.0317  -32.4226    5.9749 O   0  0  0  0  0  0  0  0  0  0  0  0
  -29.6199  -31.5813    5.9969 H   0  0  0  0  0  0  0  0  0  0  0  0
  3  4  1  0
  4  5  2  0
  5  6  1  0
  6  7  2  0
  7  1  1  0
  1 14  1  0
 14 15  2  0
 15 16  1  0
 16 17  1  0
 16 18  2  0
 18 19  1  0
 19 20  2  0
 20 21  1  0
 21 22  2  0
 21 23  1  0
  7  8  1  0
  8 10  1  0
 10 11  2  0
 10 12  1  0
  8  9  2  0
  9  4  1  0
 20 14  1  0
  1  2  1  0
 23 24  1  0
 12 13  1  0
M  END
> <minimizedAffinity>
-7.38055

> <CNNscore>
0.8500176072

> <CNNaffinity>
4.4366440773

> <CNN_VS>
3.7712256908

> <CNNaffinity_variance>
0.4737421572

$$$$



 24 25  0  0  0  0  0  0  0  0999 V2000
  -28.9334  -34.2005    7.9058 N   0  0  0  0  0  0  0  0  0  0  0  0
  -29.5930  -34.1963    8.6367 H   0  0  0  0  0  0  0  0  0  0  0  0
  -24.9836  -30.0730    8.5990 C   0  0  0  0  0  0  0  0  0  0  0  0
  -25.9991  -31.1531    8.3731 C   0  0  0  0  0  0  0  0  0  0  0  0
  -25.7322  -32.4702    8.7443 C   0  0  0  0  0  0  0  0  0  0  0  0
  -26.6982  -33.4663    8.5668 C   0  0  0  0  0  0  0  0  0  0  0  0
  -27.9608  -33.1849    8.0164 C   0  0  0  0  0  0  0  0  0  0  0  0
  -28.2279  -31.8491    7.6455 C   0  0  0  0  0  0  0  0  0  0  0  0
  -27.2543  -30.8485    7.8374 C   0  0  0  0  0  0  0  0  0  0  0  0
  -29.5170  -31.3855    7.0700 C   0  0  0  0  0  0  0  0  0  0  0  0
  -30.1458  -31.9497    6.1920 O   0  0  0  0  0  0  0  0  0  0  0  0
  -30.0036  -30.2710    7.6453 O   0  0  0  0  0  0  0  0  0  0  0  0
  -29.5161  -29.8409    8.3201 H   0  0  0  0  0  0  0  0  0  0  0  0
  -29.1487  -35.2210    6.9558 C   0  0  0  0  0  0  0  0  0  0  0  0
  -29.5201  -34.9051    5.6374 C   0  0  0  0  0  0  0  0  0  0  0  0
  -29.7987  -35.9043    4.7088 C   0  0  0  0  0  0  0  0  0  0  0  0
  -30.1421  -35.5650    3.4596 F   0  0  0  0  0  0  0  0  0  0  0  0
  -29.7289  -37.2438    5.0558 C   0  0  0  0  0  0  0  0  0  0  0  0
  -29.3655  -37.5886    6.3551 C   0  0  0  0  0  0  0  0  0  0  0  0
  -29.0686  -36.5906    7.3050 C   0  0  0  0  0  0  0  0  0  0  0  0
  -28.7064  -37.0840    8.6589 C   0  0  0  0  0  0  0  0  0  0  0  0
  -29.3689  -37.8547    9.3305 O   0  0  0  0  0  0  0  0  0  0  0  0
  -27.5099  -36.6510    9.0933 O   0  0  0  0  0  0  0  0  0  0  0  0
  -27.0078  -36.0583    8.5695 H   0  0  0  0  0  0  0  0  0  0  0  0
  3  4  1  0
  4  5  2  0
  5  6  1  0
  6  7  2  0
  7  1  1  0
  1 14  1  0
 14 15  2  0
 15 16  1  0
 16 17  1  0
 16 18  2  0
 18 19  1  0
 19 20  2  0
 20 21  1  0
 21 22  2  0
 21 23  1  0
  7  8  1  0
  8 10  1  0
 10 11  2  0
 10 12  1  0
  8  9  2  0
  9  4  1  0
 20 14  1  0
  1  2  1  0
 23 24  1  0
 12 13  1  0
M  END
> <minimizedAffinity>
-7.39845

> <CNNscore>
0.8499098420

> <CNNaffinity>
4.4205899239

> <CNN_VS>
3.7571029663

> <CNNaffinity_variance>
0.3878311813

$$$$



 24 25  0  0  0  0  0  0  0  0999 V2000
  -27.1550  -30.7046    7.2431 N   0  0  0  0  0  0  0  0  0  0  0  0
  -26.8607  -30.7182    6.3037 H   0  0  0  0  0  0  0  0  0  0  0  0
  -27.4008  -35.9990    9.4850 C   0  0  0  0  0  0  0  0  0  0  0  0
  -27.3698  -34.6055    8.9320 C   0  0  0  0  0  0  0  0  0  0  0  0
  -26.3905  -33.7000    9.3379 C   0  0  0  0  0  0  0  0  0  0  0  0
  -26.3433  -32.4139    8.7896 C   0  0  0  0  0  0  0  0  0  0  0  0
  -27.2665  -31.9874    7.8190 C   0  0  0  0  0  0  0  0  0  0  0  0
  -28.2540  -32.9090    7.4084 C   0  0  0  0  0  0  0  0  0  0  0  0
  -28.2891  -34.2067    7.9567 C   0  0  0  0  0  0  0  0  0  0  0  0
  -29.2877  -32.6205    6.3806 C   0  0  0  0  0  0  0  0  0  0  0  0
  -29.5023  -33.2871    5.3834 O   0  0  0  0  0  0  0  0  0  0  0  0
  -30.0518  -31.5487    6.6588 O   0  0  0  0  0  0  0  0  0  0  0  0
  -29.8826  -31.0394    7.4268 H   0  0  0  0  0  0  0  0  0  0  0  0
  -27.3813  -29.4061    7.7459 C   0  0  0  0  0  0  0  0  0  0  0  0
  -28.6597  -28.8253    7.6795 C   0  0  0  0  0  0  0  0  0  0  0  0
  -28.8813  -27.5208    8.1127 C   0  0  0  0  0  0  0  0  0  0  0  0
  -30.1147  -27.0038    8.0409 F   0  0  0  0  0  0  0  0  0  0  0  0
  -27.8470  -26.7477    8.6146 C   0  0  0  0  0  0  0  0  0  0  0  0
  -26.5686  -27.2944    8.6913 C   0  0  0  0  0  0  0  0  0  0  0  0
  -26.3282  -28.6172    8.2683 C   0  0  0  0  0  0  0  0  0  0  0  0
  -24.9219  -29.0814    8.3883 C   0  0  0  0  0  0  0  0  0  0  0  0
  -24.5722  -30.2308    8.5898 O   0  0  0  0  0  0  0  0  0  0  0  0
  -24.0108  -28.1128    8.1900 O   0  0  0  0  0  0  0  0  0  0  0  0
  -24.2897  -27.2316    8.0358 H   0  0  0  0  0  0  0  0  0  0  0  0
  3  4  1  0
  4  5  2  0
  5  6  1  0
  6  7  2  0
  7  1  1  0
  1 14  1  0
 14 15  2  0
 15 16  1  0
 16 17  1  0
 16 18  2  0
 18 19  1  0
 19 20  2  0
 20 21  1  0
 21 22  2  0
 21 23  1  0
  7  8  1  0
  8 10  1  0
 10 11  2  0
 10 12  1  0
  8  9  2  0
  9  4  1  0
 20 14  1  0
  1  2  1  0
 23 24  1  0
 12 13  1  0
M  END
> <minimizedAffinity>
-8.83527

> <CNNscore>
0.8437954187

> <CNNaffinity>
4.5071449280

> <CNN_VS>
3.8031082153

> <CNNaffinity_variance>
0.5485376716

$$$$



 24 25  0  0  0  0  0  0  0  0999 V2000
  -29.3296  -35.5973    8.0050 N   0  0  0  0  0  0  0  0  0  0  0  0
  -30.0187  -35.4505    7.3173 H   0  0  0  0  0  0  0  0  0  0  0  0
  -25.5750  -31.2725    8.5673 C   0  0  0  0  0  0  0  0  0  0  0  0
  -26.5257  -32.4182    8.3870 C   0  0  0  0  0  0  0  0  0  0  0  0
  -26.4845  -33.5187    9.2418 C   0  0  0  0  0  0  0  0  0  0  0  0
  -27.3992  -34.5666    9.0927 C   0  0  0  0  0  0  0  0  0  0  0  0
  -28.3851  -34.5532    8.0907 C   0  0  0  0  0  0  0  0  0  0  0  0
  -28.4253  -33.4349    7.2299 C   0  0  0  0  0  0  0  0  0  0  0  0
  -27.5079  -32.3776    7.3926 C   0  0  0  0  0  0  0  0  0  0  0  0
  -29.4159  -33.2599    6.1362 C   0  0  0  0  0  0  0  0  0  0  0  0
  -29.6664  -34.0775    5.2682 O   0  0  0  0  0  0  0  0  0  0  0  0
  -30.0970  -32.1012    6.1951 O   0  0  0  0  0  0  0  0  0  0  0  0
  -29.9005  -31.4758    6.8646 H   0  0  0  0  0  0  0  0  0  0  0  0
  -29.4829  -36.8103    8.7089 C   0  0  0  0  0  0  0  0  0  0  0  0
  -28.4062  -37.7050    8.8367 C   0  0  0  0  0  0  0  0  0  0  0  0
  -28.5626  -38.9337    9.4725 C   0  0  0  0  0  0  0  0  0  0  0  0
  -27.5119  -39.7568    9.5819 F   0  0  0  0  0  0  0  0  0  0  0  0
  -29.7875  -39.3202    9.9918 C   0  0  0  0  0  0  0  0  0  0  0  0
  -30.8738  -38.4563    9.8791 C   0  0  0  0  0  0  0  0  0  0  0  0
  -30.7310  -37.2036    9.2492 C   0  0  0  0  0  0  0  0  0  0  0  0
  -31.9644  -36.3781    9.1802 C   0  0  0  0  0  0  0  0  0  0  0  0
  -32.6318  -36.1876    8.1791 O   0  0  0  0  0  0  0  0  0  0  0  0
  -32.3511  -35.8782   10.3669 O   0  0  0  0  0  0  0  0  0  0  0  0
  -31.8309  -36.0302   11.1313 H   0  0  0  0  0  0  0  0  0  0  0  0
  3  4  1  0
  4  5  2  0
  5  6  1  0
  6  7  2  0
  7  1  1  0
  1 14  1  0
 14 15  2  0
 15 16  1  0
 16 17  1  0
 16 18  2  0
 18 19  1  0
 19 20  2  0
 20 21  1  0
 21 22  2  0
 21 23  1  0
  7  8  1  0
  8 10  1  0
 10 11  2  0
 10 12  1  0
  8  9  2  0
  9  4  1  0
 20 14  1  0
  1  2  1  0
 23 24  1  0
 12 13  1  0
M  END
> <minimizedAffinity>
-8.11542

> <CNNscore>
0.8138850927

> <CNNaffinity>
4.6992058754

> <CNN_VS>
3.8246135712

> <CNNaffinity_variance>
0.2600921094

$$$$



 24 25  0  0  0  0  0  0  0  0999 V2000
  -28.3797  -35.2790    8.4415 N   0  0  0  0  0  0  0  0  0  0  0  0
  -29.0279  -35.2933    9.1823 H   0  0  0  0  0  0  0  0  0  0  0  0
  -28.0028  -40.4124    5.8678 C   0  0  0  0  0  0  0  0  0  0  0  0
  -28.0613  -39.0614    6.5160 C   0  0  0  0  0  0  0  0  0  0  0  0
  -28.8741  -38.0560    5.9943 C   0  0  0  0  0  0  0  0  0  0  0  0
  -28.9543  -36.8103    6.6257 C   0  0  0  0  0  0  0  0  0  0  0  0
  -28.2308  -36.5246    7.7966 C   0  0  0  0  0  0  0  0  0  0  0  0
  -27.4119  -37.5470    8.3233 C   0  0  0  0  0  0  0  0  0  0  0  0
  -27.3443  -38.8033    7.6884 C   0  0  0  0  0  0  0  0  0  0  0  0
  -26.6014  -37.4113    9.5613 C   0  0  0  0  0  0  0  0  0  0  0  0
  -26.6268  -38.1718   10.5130 O   0  0  0  0  0  0  0  0  0  0  0  0
  -25.7503  -36.3695    9.5466 O   0  0  0  0  0  0  0  0  0  0  0  0
  -25.7346  -35.7876    8.8124 H   0  0  0  0  0  0  0  0  0  0  0  0
  -27.7841  -34.0168    8.2357 C   0  0  0  0  0  0  0  0  0  0  0  0
  -26.6182  -33.6532    8.9317 C   0  0  0  0  0  0  0  0  0  0  0  0
  -26.0582  -32.3868    8.7861 C   0  0  0  0  0  0  0  0  0  0  0  0
  -24.9424  -32.0790    9.4598 F   0  0  0  0  0  0  0  0  0  0  0  0
  -26.6370  -31.4389    7.9579 C   0  0  0  0  0  0  0  0  0  0  0  0
  -27.7938  -31.7686    7.2564 C   0  0  0  0  0  0  0  0  0  0  0  0
  -28.3680  -33.0496    7.3825 C   0  0  0  0  0  0  0  0  0  0  0  0
  -29.6068  -33.2756    6.5938 C   0  0  0  0  0  0  0  0  0  0  0  0
  -30.1644  -34.3486    6.4466 O   0  0  0  0  0  0  0  0  0  0  0  0
  -30.1343  -32.1525    6.0762 O   0  0  0  0  0  0  0  0  0  0  0  0
  -29.6978  -31.3319    6.1949 H   0  0  0  0  0  0  0  0  0  0  0  0
  3  4  1  0
  4  5  2  0
  5  6  1  0
  6  7  2  0
  7  1  1  0
  1 14  1  0
 14 15  2  0
 15 16  1  0
 16 17  1  0
 16 18  2  0
 18 19  1  0
 19 20  2  0
 20 21  1  0
 21 22  2  0
 21 23  1  0
  7  8  1  0
  8 10  1  0
 10 11  2  0
 10 12  1  0
  8  9  2  0
  9  4  1  0
 20 14  1  0
  1  2  1  0
 23 24  1  0
 12 13  1  0
M  END
> <minimizedAffinity>
-6.94802

> <CNNscore>
0.7848287225

> <CNNaffinity>
4.4994978905

> <CNN_VS>
3.5313351154

> <CNNaffinity_variance>
0.2650668919

$$$$



 24 25  0  0  0  0  0  0  0  0999 V2000
  -27.6913  -27.1256    5.2241 N   0  0  0  0  0  0  0  0  0  0  0  0
  -28.5537  -26.7083    5.4507 H   0  0  0  0  0  0  0  0  0  0  0  0
  -25.8844  -25.8194   -0.0813 C   0  0  0  0  0  0  0  0  0  0  0  0
  -26.3551  -26.2057    1.2892 C   0  0  0  0  0  0  0  0  0  0  0  0
  -25.4524  -26.3235    2.3450 C   0  0  0  0  0  0  0  0  0  0  0  0
  -25.9024  -26.6462    3.6296 C   0  0  0  0  0  0  0  0  0  0  0  0
  -27.2640  -26.8603    3.9063 C   0  0  0  0  0  0  0  0  0  0  0  0
  -28.1748  -26.7362    2.8347 C   0  0  0  0  0  0  0  0  0  0  0  0
  -27.7159  -26.4000    1.5454 C   0  0  0  0  0  0  0  0  0  0  0  0
  -29.6446  -26.9112    2.9653 C   0  0  0  0  0  0  0  0  0  0  0  0
  -30.4833  -26.0545    2.7478 O   0  0  0  0  0  0  0  0  0  0  0  0
  -30.0190  -28.1577    3.3059 O   0  0  0  0  0  0  0  0  0  0  0  0
  -29.3701  -28.8129    3.4722 H   0  0  0  0  0  0  0  0  0  0  0  0
  -27.1283  -27.8702    6.2818 C   0  0  0  0  0  0  0  0  0  0  0  0
  -25.7561  -27.7766    6.5723 C   0  0  0  0  0  0  0  0  0  0  0  0
  -25.1768  -28.5549    7.5709 C   0  0  0  0  0  0  0  0  0  0  0  0
  -23.8675  -28.4328    7.8243 F   0  0  0  0  0  0  0  0  0  0  0  0
  -25.9316  -29.4553    8.3051 C   0  0  0  0  0  0  0  0  0  0  0  0
  -27.2935  -29.5722    8.0394 C   0  0  0  0  0  0  0  0  0  0  0  0
  -27.8991  -28.7839    7.0403 C   0  0  0  0  0  0  0  0  0  0  0  0
  -29.3544  -29.0090    6.8428 C   0  0  0  0  0  0  0  0  0  0  0  0
  -30.0441  -28.4692    5.9961 O   0  0  0  0  0  0  0  0  0  0  0  0
  -29.8767  -29.9395    7.6607 O   0  0  0  0  0  0  0  0  0  0  0  0
  -29.3380  -30.3490    8.3089 H   0  0  0  0  0  0  0  0  0  0  0  0
  3  4  1  0
  4  5  2  0
  5  6  1  0
  6  7  2  0
  7  1  1  0
  1 14  1  0
 14 15  2  0
 15 16  1  0
 16 17  1  0
 16 18  2  0
 18 19  1  0
 19 20  2  0
 20 21  1  0
 21 22  2  0
 21 23  1  0
  7  8  1  0
  8 10  1  0
 10 11  2  0
 10 12  1  0
  8  9  2  0
  9  4  1  0
 20 14  1  0
  1  2  1  0
 23 24  1  0
 12 13  1  0
M  END
> <minimizedAffinity>
-7.53032

> <CNNscore>
0.6581000686

> <CNNaffinity>
5.3175029755

> <CNN_VS>
3.4994490147

> <CNNaffinity_variance>
0.0964868143

$$$$



 24 25  0  0  0  0  0  0  0  0999 V2000
  -29.8765  -36.1544    7.5035 N   0  0  0  0  0  0  0  0  0  0  0  0
  -29.5498  -36.8013    6.8372 H   0  0  0  0  0  0  0  0  0  0  0  0
  -35.3603  -37.0371    9.0090 C   0  0  0  0  0  0  0  0  0  0  0  0
  -33.9435  -36.7643    8.6001 C   0  0  0  0  0  0  0  0  0  0  0  0
  -33.0105  -36.3049    9.5285 C   0  0  0  0  0  0  0  0  0  0  0  0
  -31.6811  -36.0892    9.1502 C   0  0  0  0  0  0  0  0  0  0  0  0
  -31.2363  -36.3250    7.8376 C   0  0  0  0  0  0  0  0  0  0  0  0
  -32.1838  -36.7937    6.9019 C   0  0  0  0  0  0  0  0  0  0  0  0
  -33.5189  -37.0194    7.2925 C   0  0  0  0  0  0  0  0  0  0  0  0
  -31.8700  -37.1089    5.4841 C   0  0  0  0  0  0  0  0  0  0  0  0
  -30.8878  -37.7144    5.0924 O   0  0  0  0  0  0  0  0  0  0  0  0
  -32.8145  -36.7102    4.6129 O   0  0  0  0  0  0  0  0  0  0  0  0
  -33.5679  -36.2448    4.9192 H   0  0  0  0  0  0  0  0  0  0  0  0
  -28.8918  -35.2407    7.9346 C   0  0  0  0  0  0  0  0  0  0  0  0
  -28.0852  -35.5303    9.0489 C   0  0  0  0  0  0  0  0  0  0  0  0
  -27.1550  -34.6092    9.5232 C   0  0  0  0  0  0  0  0  0  0  0  0
  -26.3988  -34.9235   10.5829 F   0  0  0  0  0  0  0  0  0  0  0  0
  -27.0002  -33.3722    8.9189 C   0  0  0  0  0  0  0  0  0  0  0  0
  -27.7861  -33.0552    7.8140 C   0  0  0  0  0  0  0  0  0  0  0  0
  -28.7245  -33.9798    7.3130 C   0  0  0  0  0  0  0  0  0  0  0  0
  -29.5109  -33.5204    6.1390 C   0  0  0  0  0  0  0  0  0  0  0  0
  -29.7424  -34.1806    5.1418 O   0  0  0  0  0  0  0  0  0  0  0  0
  -30.0286  -32.2876    6.2801 O   0  0  0  0  0  0  0  0  0  0  0  0
  -29.8447  -31.7876    7.0509 H   0  0  0  0  0  0  0  0  0  0  0  0
  3  4  1  0
  4  5  2  0
  5  6  1  0
  6  7  2  0
  7  1  1  0
  1 14  1  0
 14 15  2  0
 15 16  1  0
 16 17  1  0
 16 18  2  0
 18 19  1  0
 19 20  2  0
 20 21  1  0
 21 22  2  0
 21 23  1  0
  7  8  1  0
  8 10  1  0
 10 11  2  0
 10 12  1  0
  8  9  2  0
  9  4  1  0
 20 14  1  0
  1  2  1  0
 23 24  1  0
 12 13  1  0
M  END
> <minimizedAffinity>
-6.84111

> <CNNscore>
0.6433343887

> <CNNaffinity>
3.9804179668

> <CNN_VS>
2.5607397556

> <CNNaffinity_variance>
0.4817568958

$$$$
