


 36 38  0  0  0  0  0  0  0  0999 V2000
   43.4654   10.2843   -2.6533 C   0  0  0  0  0  0  0  0  0  0  0  0
   43.2294    9.0383   -2.0985 C   0  0  0  0  0  0  0  0  0  0  0  0
   44.1311    8.8443   -0.6513 S   0  0  0  0  0  0  0  0  0  0  0  0
   44.8095   10.4184   -0.7571 C   0  0  0  0  0  0  0  0  0  0  0  0
   44.3508   11.0756   -1.8767 C   0  0  0  0  0  0  0  0  0  0  0  0
   44.7877   12.8550   -2.3598 Br  0  0  0  0  0  0  0  0  0  0  0  0
   45.7298   10.8715    0.2840 C   0  0  0  0  0  0  0  0  0  0  0  0
   45.2806   11.7187    1.3005 C   0  0  0  0  0  0  0  0  0  0  0  0
   46.1478   12.0949    2.3230 C   0  0  0  0  0  0  0  0  0  0  0  0
   47.4684   11.6346    2.3280 C   0  0  0  0  0  0  0  0  0  0  0  0
   47.9583   10.8192    1.3026 C   0  0  0  0  0  0  0  0  0  0  0  0
   47.0602   10.4224    0.3010 C   0  0  0  0  0  0  0  0  0  0  0  0
   49.2406   10.2647    1.2980 N   0  0  0  0  0  0  0  0  0  0  0  0
   50.0250   10.8400    1.4500 H   0  0  0  0  0  0  0  0  0  0  0  0
   49.4203    8.8337    1.0682 C   0  0  0  0  0  0  0  0  0  0  0  0
   49.3071    8.1082    2.3873 C   0  0  0  0  0  0  0  0  0  0  0  0
   48.0522    7.8471    2.9556 C   0  0  0  0  0  0  0  0  0  0  0  0
   47.9546    7.1807    4.1788 C   0  0  0  0  0  0  0  0  0  0  0  0
   49.1092    6.7791    4.8495 C   0  0  0  0  0  0  0  0  0  0  0  0
   50.3623    7.0432    4.2999 C   0  0  0  0  0  0  0  0  0  0  0  0
   50.4620    7.7075    3.0768 C   0  0  0  0  0  0  0  0  0  0  0  0
   42.3772    7.9943   -2.6274 C   0  0  0  0  0  0  0  0  0  0  0  0
   42.7553    6.9340   -3.1160 O   0  0  0  0  0  0  0  0  0  0  0  0
   41.0628    8.2720   -2.5240 O   0  0  0  0  0  0  0  0  0  0  0  0
   40.7836    9.0843   -2.1495 H   0  0  0  0  0  0  0  0  0  0  0  0
   42.8162   10.7042   -3.7661 O   0  0  0  0  0  0  0  0  0  0  0  0
   41.7241   11.5738   -3.4572 C   0  0  0  0  0  0  0  0  0  0  0  0
   41.0039   11.9570   -4.7666 C   0  0  0  0  0  0  0  0  0  0  0  0
   41.2599   13.4071   -5.3080 N   0  0  0  0  0  0  0  0  0  0  0  0
   40.0682   13.9235   -6.0877 C   0  0  0  0  0  0  0  0  0  0  0  0
   42.4451   13.3394   -6.3267 C   0  0  0  0  0  0  0  0  0  0  0  0
   41.7615   14.3212   -4.1983 C   0  0  0  0  0  0  0  0  0  0  0  0
   39.6799   14.6497   -2.9546 C   0  0  0  0  0  0  0  0  0  0  0  0
   40.8842   15.4044   -3.5983 N   0  0  0  0  0  0  0  0  0  0  0  0
   41.5508   16.1605   -2.4457 C   0  0  0  0  0  0  0  0  0  0  0  0
   40.2813   16.3951   -4.5746 C   0  0  0  0  0  0  0  0  0  0  0  0
 33 34  1  0
 34 35  1  0
 34 36  1  0
 34 32  1  0
 32 29  1  0
 29 30  1  0
 29 31  1  0
 29 28  1  0
 28 27  1  0
 27 26  1  0
 26  1  1  0
  1  2  2  0
  2 22  1  0
 22 23  2  0
 22 24  1  0
  2  3  1  0
  3  4  1  0
  4  7  1  0
  7  8  2  0
  8  9  1  0
  9 10  2  0
 10 11  1  0
 11 13  1  0
 13 15  1  0
 15 16  1  0
 16 17  2  0
 17 18  1  0
 18 19  2  0
 19 20  1  0
 20 21  2  0
 11 12  2  0
  4  5  2  0
  5  6  1  0
  5  1  1  0
 12  7  1  0
 21 16  1  0
 24 25  1  0
 13 14  1  0
M  CHG 1  29   1
M  CHG 1  34   1
M  END
> <minimizedAffinity>
-5.76363

> <CNNscore>
0.2899419367

> <CNNaffinity>
5.4871249199

> <CNN_VS>
1.5909476280

> <CNNaffinity_variance>
0.3252366483

$$$$



 36 38  0  0  0  0  0  0  0  0999 V2000
   45.2635   14.2663    1.4120 C   0  0  0  0  0  0  0  0  0  0  0  0
   45.1772   15.4092    2.1882 C   0  0  0  0  0  0  0  0  0  0  0  0
   44.5759   16.7218    1.2603 S   0  0  0  0  0  0  0  0  0  0  0  0
   44.4126   15.7631   -0.1551 C   0  0  0  0  0  0  0  0  0  0  0  0
   44.8090   14.4661    0.0829 C   0  0  0  0  0  0  0  0  0  0  0  0
   44.7415   13.0506   -1.1750 Br  0  0  0  0  0  0  0  0  0  0  0  0
   43.8958   16.3754   -1.3774 C   0  0  0  0  0  0  0  0  0  0  0  0
   42.6354   16.0191   -1.8647 C   0  0  0  0  0  0  0  0  0  0  0  0
   42.1244   16.6529   -2.9943 C   0  0  0  0  0  0  0  0  0  0  0  0
   42.8743   17.6370   -3.6464 C   0  0  0  0  0  0  0  0  0  0  0  0
   44.1555   17.9857   -3.2066 C   0  0  0  0  0  0  0  0  0  0  0  0
   44.6380   17.3618   -2.0469 C   0  0  0  0  0  0  0  0  0  0  0  0
   44.9147   19.0155   -3.7679 N   0  0  0  0  0  0  0  0  0  0  0  0
   44.9198   19.9064   -3.3490 H   0  0  0  0  0  0  0  0  0  0  0  0
   45.7008   18.7734   -4.9747 C   0  0  0  0  0  0  0  0  0  0  0  0
   47.1087   19.2696   -4.7494 C   0  0  0  0  0  0  0  0  0  0  0  0
   47.7598   19.0466   -3.5278 C   0  0  0  0  0  0  0  0  0  0  0  0
   49.0599   19.5131   -3.3238 C   0  0  0  0  0  0  0  0  0  0  0  0
   49.7165   20.2153   -4.3338 C   0  0  0  0  0  0  0  0  0  0  0  0
   49.0753   20.4529   -5.5480 C   0  0  0  0  0  0  0  0  0  0  0  0
   47.7767   19.9859   -5.7545 C   0  0  0  0  0  0  0  0  0  0  0  0
   45.5497   15.5495    3.5801 C   0  0  0  0  0  0  0  0  0  0  0  0
   44.8256   15.9600    4.4819 O   0  0  0  0  0  0  0  0  0  0  0  0
   46.8127   15.1582    3.8387 O   0  0  0  0  0  0  0  0  0  0  0  0
   47.3581   14.8462    3.1436 H   0  0  0  0  0  0  0  0  0  0  0  0
   45.6471   13.0765    1.9346 O   0  0  0  0  0  0  0  0  0  0  0  0
   47.0684   12.9213    1.9353 C   0  0  0  0  0  0  0  0  0  0  0  0
   47.4787   12.0644    0.7197 C   0  0  0  0  0  0  0  0  0  0  0  0
   47.7825   10.5510    1.0004 N   0  0  0  0  0  0  0  0  0  0  0  0
   46.6747    9.6596    0.4780 C   0  0  0  0  0  0  0  0  0  0  0  0
   47.8080   10.3436    2.5506 C   0  0  0  0  0  0  0  0  0  0  0  0
   49.1877   10.1845    0.5425 C   0  0  0  0  0  0  0  0  0  0  0  0
   48.7425    8.0133    1.5796 C   0  0  0  0  0  0  0  0  0  0  0  0
   49.6973    8.7560    0.5941 N   0  0  0  0  0  0  0  0  0  0  0  0
   49.5631    8.0119   -0.7374 C   0  0  0  0  0  0  0  0  0  0  0  0
   51.0964    8.5636    1.1450 C   0  0  0  0  0  0  0  0  0  0  0  0
 33 34  1  0
 34 35  1  0
 34 36  1  0
 34 32  1  0
 32 29  1  0
 29 30  1  0
 29 31  1  0
 29 28  1  0
 28 27  1  0
 27 26  1  0
 26  1  1  0
  1  2  2  0
  2 22  1  0
 22 23  2  0
 22 24  1  0
  2  3  1  0
  3  4  1  0
  4  7  1  0
  7  8  2  0
  8  9  1  0
  9 10  2  0
 10 11  1  0
 11 13  1  0
 13 15  1  0
 15 16  1  0
 16 17  2  0
 17 18  1  0
 18 19  2  0
 19 20  1  0
 20 21  2  0
 11 12  2  0
  4  5  2  0
  5  6  1  0
  5  1  1  0
 12  7  1  0
 21 16  1  0
 24 25  1  0
 13 14  1  0
M  CHG 1  29   1
M  CHG 1  34   1
M  END
> <minimizedAffinity>
-6.13565

> <CNNscore>
0.1846165657

> <CNNaffinity>
5.6587352753

> <CNN_VS>
1.0446963310

> <CNNaffinity_variance>
0.1503414065

$$$$



 36 38  0  0  0  0  0  0  0  0999 V2000
   44.0450    9.9700   -2.6353 C   0  0  0  0  0  0  0  0  0  0  0  0
   43.4792    8.8926   -1.9755 C   0  0  0  0  0  0  0  0  0  0  0  0
   44.1688    8.7147   -0.4141 S   0  0  0  0  0  0  0  0  0  0  0  0
   45.1944   10.0777   -0.6136 C   0  0  0  0  0  0  0  0  0  0  0  0
   45.0077   10.6548   -1.8497 C   0  0  0  0  0  0  0  0  0  0  0  0
   45.8824   12.2152   -2.4747 Br  0  0  0  0  0  0  0  0  0  0  0  0
   46.0884   10.4649    0.4757 C   0  0  0  0  0  0  0  0  0  0  0  0
   47.2980    9.7917    0.6668 C   0  0  0  0  0  0  0  0  0  0  0  0
   48.1723   10.2077    1.6674 C   0  0  0  0  0  0  0  0  0  0  0  0
   47.8371   11.2905    2.4867 C   0  0  0  0  0  0  0  0  0  0  0  0
   46.6159   11.9579    2.3464 C   0  0  0  0  0  0  0  0  0  0  0  0
   45.7647   11.5469    1.3103 C   0  0  0  0  0  0  0  0  0  0  0  0
   46.2639   13.0936    3.0800 N   0  0  0  0  0  0  0  0  0  0  0  0
   46.2641   13.0622    4.0640 H   0  0  0  0  0  0  0  0  0  0  0  0
   45.8955   14.3272    2.3905 C   0  0  0  0  0  0  0  0  0  0  0  0
   46.5610   15.4922    3.0825 C   0  0  0  0  0  0  0  0  0  0  0  0
   47.7248   15.3044    3.8416 C   0  0  0  0  0  0  0  0  0  0  0  0
   48.3323   16.3852    4.4839 C   0  0  0  0  0  0  0  0  0  0  0  0
   47.7767   17.6601    4.3825 C   0  0  0  0  0  0  0  0  0  0  0  0
   46.6138   17.8569    3.6402 C   0  0  0  0  0  0  0  0  0  0  0  0
   46.0063   16.7784    2.9960 C   0  0  0  0  0  0  0  0  0  0  0  0
   42.4672    7.9909   -2.4840 C   0  0  0  0  0  0  0  0  0  0  0  0
   41.2532    8.1514   -2.4039 O   0  0  0  0  0  0  0  0  0  0  0  0
   42.9767    6.9091   -3.1047 O   0  0  0  0  0  0  0  0  0  0  0  0
   43.9051    6.7950   -3.1609 H   0  0  0  0  0  0  0  0  0  0  0  0
   43.6191   10.3592   -3.8614 O   0  0  0  0  0  0  0  0  0  0  0  0
   42.5200   11.2705   -3.7860 C   0  0  0  0  0  0  0  0  0  0  0  0
   41.6408   11.0989   -5.0420 C   0  0  0  0  0  0  0  0  0  0  0  0
   40.0904   11.0408   -4.8089 N   0  0  0  0  0  0  0  0  0  0  0  0
   39.3782   12.1512   -5.5536 C   0  0  0  0  0  0  0  0  0  0  0  0
   39.8211   11.2988   -3.2897 C   0  0  0  0  0  0  0  0  0  0  0  0
   39.5551    9.6374   -5.0591 C   0  0  0  0  0  0  0  0  0  0  0  0
   37.3296    9.9440   -6.0291 C   0  0  0  0  0  0  0  0  0  0  0  0
   38.7293    9.3050   -6.2880 N   0  0  0  0  0  0  0  0  0  0  0  0
   39.2461    9.9678   -7.5680 C   0  0  0  0  0  0  0  0  0  0  0  0
   38.4741    7.8330   -6.5454 C   0  0  0  0  0  0  0  0  0  0  0  0
 33 34  1  0
 34 35  1  0
 34 36  1  0
 34 32  1  0
 32 29  1  0
 29 30  1  0
 29 31  1  0
 29 28  1  0
 28 27  1  0
 27 26  1  0
 26  1  1  0
  1  2  2  0
  2 22  1  0
 22 23  2  0
 22 24  1  0
  2  3  1  0
  3  4  1  0
  4  7  1  0
  7  8  2  0
  8  9  1  0
  9 10  2  0
 10 11  1  0
 11 13  1  0
 13 15  1  0
 15 16  1  0
 16 17  2  0
 17 18  1  0
 18 19  2  0
 19 20  1  0
 20 21  2  0
 11 12  2  0
  4  5  2  0
  5  6  1  0
  5  1  1  0
 12  7  1  0
 21 16  1  0
 24 25  1  0
 13 14  1  0
M  CHG 1  29   1
M  CHG 1  34   1
M  END
> <minimizedAffinity>
-6.30396

> <CNNscore>
0.1507573873

> <CNNaffinity>
4.6799511909

> <CNN_VS>
0.7055372000

> <CNNaffinity_variance>
0.6997799873

$$$$



 36 38  0  0  0  0  0  0  0  0999 V2000
   45.3325   14.2630    1.5482 C   0  0  0  0  0  0  0  0  0  0  0  0
   45.1774   15.4289    2.2780 C   0  0  0  0  0  0  0  0  0  0  0  0
   44.5620   16.6838    1.2822 S   0  0  0  0  0  0  0  0  0  0  0  0
   44.4838   15.6696   -0.1015 C   0  0  0  0  0  0  0  0  0  0  0  0
   44.9183   14.3977    0.1979 C   0  0  0  0  0  0  0  0  0  0  0  0
   44.9469   12.9365   -1.0081 Br  0  0  0  0  0  0  0  0  0  0  0  0
   43.9886   16.2178   -1.3625 C   0  0  0  0  0  0  0  0  0  0  0  0
   44.5914   17.3465   -1.9244 C   0  0  0  0  0  0  0  0  0  0  0  0
   44.1542   17.8246   -3.1569 C   0  0  0  0  0  0  0  0  0  0  0  0
   43.1074   17.1836   -3.8271 C   0  0  0  0  0  0  0  0  0  0  0  0
   42.4573   16.0770   -3.2709 C   0  0  0  0  0  0  0  0  0  0  0  0
   42.9353   15.5890   -2.0460 C   0  0  0  0  0  0  0  0  0  0  0  0
   41.4633   15.3492   -3.9298 N   0  0  0  0  0  0  0  0  0  0  0  0
   41.6837   14.4876   -4.3519 H   0  0  0  0  0  0  0  0  0  0  0  0
   40.0980   15.8638   -3.9939 C   0  0  0  0  0  0  0  0  0  0  0  0
   39.2815   15.2231   -2.8975 C   0  0  0  0  0  0  0  0  0  0  0  0
   38.9173   15.9523   -1.7566 C   0  0  0  0  0  0  0  0  0  0  0  0
   38.1668   15.3522   -0.7435 C   0  0  0  0  0  0  0  0  0  0  0  0
   37.7832   14.0164   -0.8563 C   0  0  0  0  0  0  0  0  0  0  0  0
   38.1492   13.2784   -1.9803 C   0  0  0  0  0  0  0  0  0  0  0  0
   38.8975   13.8768   -2.9947 C   0  0  0  0  0  0  0  0  0  0  0  0
   45.4950   15.6329    3.6756 C   0  0  0  0  0  0  0  0  0  0  0  0
   44.7788   16.1870    4.5039 O   0  0  0  0  0  0  0  0  0  0  0  0
   46.6918   15.1272    4.0323 O   0  0  0  0  0  0  0  0  0  0  0  0
   47.2318   14.7059    3.3929 H   0  0  0  0  0  0  0  0  0  0  0  0
   45.7403   13.1080    2.1274 O   0  0  0  0  0  0  0  0  0  0  0  0
   47.0792   12.7649    1.7614 C   0  0  0  0  0  0  0  0  0  0  0  0
   47.4715   11.4528    2.4718 C   0  0  0  0  0  0  0  0  0  0  0  0
   47.8363   10.2383    1.5480 N   0  0  0  0  0  0  0  0  0  0  0  0
   48.7472   10.6614    0.4141 C   0  0  0  0  0  0  0  0  0  0  0  0
   46.5182    9.7307    0.8757 C   0  0  0  0  0  0  0  0  0  0  0  0
   48.3248    9.0552    2.3728 C   0  0  0  0  0  0  0  0  0  0  0  0
   50.5401    8.9153    1.3431 C   0  0  0  0  0  0  0  0  0  0  0  0
   49.3279    8.0582    1.8228 N   0  0  0  0  0  0  0  0  0  0  0  0
   49.8955    7.1140    2.8862 C   0  0  0  0  0  0  0  0  0  0  0  0
   48.8819    7.2556    0.6166 C   0  0  0  0  0  0  0  0  0  0  0  0
 33 34  1  0
 34 35  1  0
 34 36  1  0
 34 32  1  0
 32 29  1  0
 29 30  1  0
 29 31  1  0
 29 28  1  0
 28 27  1  0
 27 26  1  0
 26  1  1  0
  1  2  2  0
  2 22  1  0
 22 23  2  0
 22 24  1  0
  2  3  1  0
  3  4  1  0
  4  7  1  0
  7  8  2  0
  8  9  1  0
  9 10  2  0
 10 11  1  0
 11 13  1  0
 13 15  1  0
 15 16  1  0
 16 17  2  0
 17 18  1  0
 18 19  2  0
 19 20  1  0
 20 21  2  0
 11 12  2  0
  4  5  2  0
  5  6  1  0
  5  1  1  0
 12  7  1  0
 21 16  1  0
 24 25  1  0
 13 14  1  0
M  CHG 1  29   1
M  CHG 1  34   1
M  END
> <minimizedAffinity>
-6.55299

> <CNNscore>
0.1391424388

> <CNNaffinity>
4.9522271156

> <CNN_VS>
0.6890649796

> <CNNaffinity_variance>
1.3551536798

$$$$



 36 38  0  0  0  0  0  0  0  0999 V2000
   45.2494   14.2090    1.3817 C   0  0  0  0  0  0  0  0  0  0  0  0
   45.2242   15.3455    2.1716 C   0  0  0  0  0  0  0  0  0  0  0  0
   44.6918   16.6988    1.2605 S   0  0  0  0  0  0  0  0  0  0  0  0
   44.4768   15.7671   -0.1660 C   0  0  0  0  0  0  0  0  0  0  0  0
   44.8046   14.4483    0.0559 C   0  0  0  0  0  0  0  0  0  0  0  0
   44.6614   13.0534   -1.2186 Br  0  0  0  0  0  0  0  0  0  0  0  0
   43.9915   16.4204   -1.3800 C   0  0  0  0  0  0  0  0  0  0  0  0
   42.7295   16.1068   -1.8917 C   0  0  0  0  0  0  0  0  0  0  0  0
   42.2494   16.7793   -3.0125 C   0  0  0  0  0  0  0  0  0  0  0  0
   43.0318   17.7594   -3.6315 C   0  0  0  0  0  0  0  0  0  0  0  0
   44.3151   18.0659   -3.1672 C   0  0  0  0  0  0  0  0  0  0  0  0
   44.7665   17.4034   -2.0165 C   0  0  0  0  0  0  0  0  0  0  0  0
   45.1068   19.0894   -3.6942 N   0  0  0  0  0  0  0  0  0  0  0  0
   44.8501   20.0297   -3.5556 H   0  0  0  0  0  0  0  0  0  0  0  0
   46.3142   18.7675   -4.4501 C   0  0  0  0  0  0  0  0  0  0  0  0
   45.9705   17.7511   -5.5121 C   0  0  0  0  0  0  0  0  0  0  0  0
   45.2897   18.1343   -6.6765 C   0  0  0  0  0  0  0  0  0  0  0  0
   44.9697   17.1883   -7.6524 C   0  0  0  0  0  0  0  0  0  0  0  0
   45.3171   15.8504   -7.4687 C   0  0  0  0  0  0  0  0  0  0  0  0
   45.9837   15.4558   -6.3103 C   0  0  0  0  0  0  0  0  0  0  0  0
   46.3060   16.4000   -5.3347 C   0  0  0  0  0  0  0  0  0  0  0  0
   45.6050   15.4493    3.5645 C   0  0  0  0  0  0  0  0  0  0  0  0
   44.9061   15.8904    4.4716 O   0  0  0  0  0  0  0  0  0  0  0  0
   46.8440   14.9841    3.8171 O   0  0  0  0  0  0  0  0  0  0  0  0
   47.3703   14.6492    3.1180 H   0  0  0  0  0  0  0  0  0  0  0  0
   45.5704   12.9945    1.8895 O   0  0  0  0  0  0  0  0  0  0  0  0
   46.9812   12.7621    1.8799 C   0  0  0  0  0  0  0  0  0  0  0  0
   47.3642   12.0635    0.5587 C   0  0  0  0  0  0  0  0  0  0  0  0
   47.3762   10.4947    0.5741 N   0  0  0  0  0  0  0  0  0  0  0  0
   48.0779    9.9361   -0.6467 C   0  0  0  0  0  0  0  0  0  0  0  0
   45.8950   10.0000    0.4841 C   0  0  0  0  0  0  0  0  0  0  0  0
   47.8744    9.9678    1.9131 C   0  0  0  0  0  0  0  0  0  0  0  0
   48.1204    7.6522    1.1615 C   0  0  0  0  0  0  0  0  0  0  0  0
   48.8047    8.7725    2.0047 N   0  0  0  0  0  0  0  0  0  0  0  0
   50.1646    9.0053    1.3405 C   0  0  0  0  0  0  0  0  0  0  0  0
   49.0085    8.1869    3.3881 C   0  0  0  0  0  0  0  0  0  0  0  0
 33 34  1  0
 34 35  1  0
 34 36  1  0
 34 32  1  0
 32 29  1  0
 29 30  1  0
 29 31  1  0
 29 28  1  0
 28 27  1  0
 27 26  1  0
 26  1  1  0
  1  2  2  0
  2 22  1  0
 22 23  2  0
 22 24  1  0
  2  3  1  0
  3  4  1  0
  4  7  1  0
  7  8  2  0
  8  9  1  0
  9 10  2  0
 10 11  1  0
 11 13  1  0
 13 15  1  0
 15 16  1  0
 16 17  2  0
 17 18  1  0
 18 19  2  0
 19 20  1  0
 20 21  2  0
 11 12  2  0
  4  5  2  0
  5  6  1  0
  5  1  1  0
 12  7  1  0
 21 16  1  0
 24 25  1  0
 13 14  1  0
M  CHG 1  29   1
M  CHG 1  34   1
M  END
> <minimizedAffinity>
-5.44566

> <CNNscore>
0.1312266886

> <CNNaffinity>
5.4987335205

> <CNN_VS>
0.7215805650

> <CNNaffinity_variance>
0.3881398737

$$$$



 36 38  0  0  0  0  0  0  0  0999 V2000
   44.6897    8.9354   -2.9328 C   0  0  0  0  0  0  0  0  0  0  0  0
   43.6099    8.4969   -2.1859 C   0  0  0  0  0  0  0  0  0  0  0  0
   43.9289    8.6713   -0.5087 S   0  0  0  0  0  0  0  0  0  0  0  0
   45.4837    9.3467   -0.7832 C   0  0  0  0  0  0  0  0  0  0  0  0
   45.7478    9.4370   -2.1316 C   0  0  0  0  0  0  0  0  0  0  0  0
   47.3171   10.1758   -2.8946 Br  0  0  0  0  0  0  0  0  0  0  0  0
   46.3046    9.7392    0.3605 C   0  0  0  0  0  0  0  0  0  0  0  0
   47.0591    8.7837    1.0465 C   0  0  0  0  0  0  0  0  0  0  0  0
   47.8867    9.1764    2.0951 C   0  0  0  0  0  0  0  0  0  0  0  0
   47.9558   10.5224    2.4685 C   0  0  0  0  0  0  0  0  0  0  0  0
   47.1817   11.4954    1.8278 C   0  0  0  0  0  0  0  0  0  0  0  0
   46.3815   11.0859    0.7513 C   0  0  0  0  0  0  0  0  0  0  0  0
   47.2703   12.8623    2.1031 N   0  0  0  0  0  0  0  0  0  0  0  0
   47.4574   13.4986    1.3756 H   0  0  0  0  0  0  0  0  0  0  0  0
   47.0861   13.3492    3.4676 C   0  0  0  0  0  0  0  0  0  0  0  0
   46.9832   14.8552    3.4401 C   0  0  0  0  0  0  0  0  0  0  0  0
   45.9191   15.4884    2.7824 C   0  0  0  0  0  0  0  0  0  0  0  0
   45.8328   16.8818    2.7558 C   0  0  0  0  0  0  0  0  0  0  0  0
   46.8139   17.6543    3.3763 C   0  0  0  0  0  0  0  0  0  0  0  0
   47.8823   17.0363    4.0232 C   0  0  0  0  0  0  0  0  0  0  0  0
   47.9694   15.6439    4.0525 C   0  0  0  0  0  0  0  0  0  0  0  0
   42.3723    7.9366   -2.6861 C   0  0  0  0  0  0  0  0  0  0  0  0
   41.2420    8.3314   -2.4168 O   0  0  0  0  0  0  0  0  0  0  0  0
   42.5550    6.9041   -3.5321 O   0  0  0  0  0  0  0  0  0  0  0  0
   43.4218    6.6097   -3.7317 H   0  0  0  0  0  0  0  0  0  0  0  0
   44.6559    8.9637   -4.2870 O   0  0  0  0  0  0  0  0  0  0  0  0
   45.4067    7.8943   -4.8675 C   0  0  0  0  0  0  0  0  0  0  0  0
   44.8721    7.6213   -6.2886 C   0  0  0  0  0  0  0  0  0  0  0  0
   45.9437    7.3193   -7.3939 N   0  0  0  0  0  0  0  0  0  0  0  0
   46.0107    5.8389   -7.7079 C   0  0  0  0  0  0  0  0  0  0  0  0
   47.3482    7.7026   -6.8216 C   0  0  0  0  0  0  0  0  0  0  0  0
   45.7580    8.2351   -8.5961 C   0  0  0  0  0  0  0  0  0  0  0  0
   45.1716   10.4338   -7.6962 C   0  0  0  0  0  0  0  0  0  0  0  0
   44.6699    9.2923   -8.6341 N   0  0  0  0  0  0  0  0  0  0  0  0
   44.4999    9.9438  -10.0093 C   0  0  0  0  0  0  0  0  0  0  0  0
   43.3142    8.8776   -8.0972 C   0  0  0  0  0  0  0  0  0  0  0  0
 33 34  1  0
 34 35  1  0
 34 36  1  0
 34 32  1  0
 32 29  1  0
 29 30  1  0
 29 31  1  0
 29 28  1  0
 28 27  1  0
 27 26  1  0
 26  1  1  0
  1  2  2  0
  2 22  1  0
 22 23  2  0
 22 24  1  0
  2  3  1  0
  3  4  1  0
  4  7  1  0
  7  8  2  0
  8  9  1  0
  9 10  2  0
 10 11  1  0
 11 13  1  0
 13 15  1  0
 15 16  1  0
 16 17  2  0
 17 18  1  0
 18 19  2  0
 19 20  1  0
 20 21  2  0
 11 12  2  0
  4  5  2  0
  5  6  1  0
  5  1  1  0
 12  7  1  0
 21 16  1  0
 24 25  1  0
 13 14  1  0
M  CHG 1  29   1
M  CHG 1  34   1
M  END
> <minimizedAffinity>
-6.15035

> <CNNscore>
0.1256434172

> <CNNaffinity>
4.2440929413

> <CNN_VS>
0.5332423449

> <CNNaffinity_variance>
1.0470058918

$$$$



 36 38  0  0  0  0  0  0  0  0999 V2000
   44.8076    8.8132   -2.8433 C   0  0  0  0  0  0  0  0  0  0  0  0
   43.7048    8.4432   -2.0930 C   0  0  0  0  0  0  0  0  0  0  0  0
   44.0095    8.6783   -0.4205 S   0  0  0  0  0  0  0  0  0  0  0  0
   45.5896    9.2891   -0.7027 C   0  0  0  0  0  0  0  0  0  0  0  0
   45.8725    9.3129   -2.0501 C   0  0  0  0  0  0  0  0  0  0  0  0
   47.4748    9.9656   -2.8227 Br  0  0  0  0  0  0  0  0  0  0  0  0
   46.4096    9.7025    0.4342 C   0  0  0  0  0  0  0  0  0  0  0  0
   47.1983    8.7677    1.1102 C   0  0  0  0  0  0  0  0  0  0  0  0
   48.0242    9.1816    2.1520 C   0  0  0  0  0  0  0  0  0  0  0  0
   48.0576   10.5281    2.5285 C   0  0  0  0  0  0  0  0  0  0  0  0
   47.2493   11.4798    1.8981 C   0  0  0  0  0  0  0  0  0  0  0  0
   46.4510   11.0498    0.8281 C   0  0  0  0  0  0  0  0  0  0  0  0
   47.3007   12.8479    2.1764 N   0  0  0  0  0  0  0  0  0  0  0  0
   48.1623   13.3231    2.1465 H   0  0  0  0  0  0  0  0  0  0  0  0
   46.0791   13.5747    2.5116 C   0  0  0  0  0  0  0  0  0  0  0  0
   46.4408   14.9896    2.8943 C   0  0  0  0  0  0  0  0  0  0  0  0
   47.5813   15.2534    3.6660 C   0  0  0  0  0  0  0  0  0  0  0  0
   47.9072   16.5638    4.0215 C   0  0  0  0  0  0  0  0  0  0  0  0
   47.0911   17.6202    3.6185 C   0  0  0  0  0  0  0  0  0  0  0  0
   45.9488   17.3692    2.8610 C   0  0  0  0  0  0  0  0  0  0  0  0
   45.6224   16.0605    2.5032 C   0  0  0  0  0  0  0  0  0  0  0  0
   42.4548    7.9037   -2.5854 C   0  0  0  0  0  0  0  0  0  0  0  0
   41.3320    8.2976   -2.2852 O   0  0  0  0  0  0  0  0  0  0  0  0
   42.6158    6.8932   -3.4619 O   0  0  0  0  0  0  0  0  0  0  0  0
   43.4771    6.5993   -3.6850 H   0  0  0  0  0  0  0  0  0  0  0  0
   44.7907    8.7847   -4.1979 O   0  0  0  0  0  0  0  0  0  0  0  0
   44.4332   10.0502   -4.7592 C   0  0  0  0  0  0  0  0  0  0  0  0
   44.8313   10.0669   -6.2496 C   0  0  0  0  0  0  0  0  0  0  0  0
   43.8928   10.8708   -7.2161 N   0  0  0  0  0  0  0  0  0  0  0  0
   44.6813   11.8433   -8.0689 C   0  0  0  0  0  0  0  0  0  0  0  0
   42.9337   11.7438   -6.3416 C   0  0  0  0  0  0  0  0  0  0  0  0
   42.9669    9.9334   -7.9794 C   0  0  0  0  0  0  0  0  0  0  0  0
   40.9196   11.0687   -7.2672 C   0  0  0  0  0  0  0  0  0  0  0  0
   41.5471    9.6623   -7.5172 N   0  0  0  0  0  0  0  0  0  0  0  0
   40.6695    9.0127   -8.5908 C   0  0  0  0  0  0  0  0  0  0  0  0
   41.4007    8.9030   -6.2134 C   0  0  0  0  0  0  0  0  0  0  0  0
 33 34  1  0
 34 35  1  0
 34 36  1  0
 34 32  1  0
 32 29  1  0
 29 30  1  0
 29 31  1  0
 29 28  1  0
 28 27  1  0
 27 26  1  0
 26  1  1  0
  1  2  2  0
  2 22  1  0
 22 23  2  0
 22 24  1  0
  2  3  1  0
  3  4  1  0
  4  7  1  0
  7  8  2  0
  8  9  1  0
  9 10  2  0
 10 11  1  0
 11 13  1  0
 13 15  1  0
 15 16  1  0
 16 17  2  0
 17 18  1  0
 18 19  2  0
 19 20  1  0
 20 21  2  0
 11 12  2  0
  4  5  2  0
  5  6  1  0
  5  1  1  0
 12  7  1  0
 21 16  1  0
 24 25  1  0
 13 14  1  0
M  CHG 1  29   1
M  CHG 1  34   1
M  END
> <minimizedAffinity>
-5.90115

> <CNNscore>
0.1193816662

> <CNNaffinity>
4.3386940956

> <CNN_VS>
0.5179605484

> <CNNaffinity_variance>
0.9432951808

$$$$



 36 38  0  0  0  0  0  0  0  0999 V2000
   43.2471   10.3780   -2.8021 C   0  0  0  0  0  0  0  0  0  0  0  0
   43.2463    9.0773   -2.3286 C   0  0  0  0  0  0  0  0  0  0  0  0
   44.3968    8.8958   -1.0682 S   0  0  0  0  0  0  0  0  0  0  0  0
   44.8714   10.5446   -1.1426 C   0  0  0  0  0  0  0  0  0  0  0  0
   44.1600   11.2163   -2.1114 C   0  0  0  0  0  0  0  0  0  0  0  0
   44.3116   13.0647   -2.4997 Br  0  0  0  0  0  0  0  0  0  0  0  0
   45.9004   11.0341   -0.2274 C   0  0  0  0  0  0  0  0  0  0  0  0
   47.2448   10.7229   -0.4483 C   0  0  0  0  0  0  0  0  0  0  0  0
   48.2243   11.2452    0.3923 C   0  0  0  0  0  0  0  0  0  0  0  0
   47.8638   12.0713    1.4617 C   0  0  0  0  0  0  0  0  0  0  0  0
   46.5238   12.3671    1.7325 C   0  0  0  0  0  0  0  0  0  0  0  0
   45.5549   11.8608    0.8539 C   0  0  0  0  0  0  0  0  0  0  0  0
   46.1113   13.2493    2.7342 N   0  0  0  0  0  0  0  0  0  0  0  0
   46.1420   12.9701    3.6777 H   0  0  0  0  0  0  0  0  0  0  0  0
   45.6348   14.5849    2.3848 C   0  0  0  0  0  0  0  0  0  0  0  0
   46.4635   15.6088    3.1224 C   0  0  0  0  0  0  0  0  0  0  0  0
   46.0790   16.9569    3.1485 C   0  0  0  0  0  0  0  0  0  0  0  0
   46.8530   17.9000    3.8277 C   0  0  0  0  0  0  0  0  0  0  0  0
   48.0225   17.5066    4.4771 C   0  0  0  0  0  0  0  0  0  0  0  0
   48.4207   16.1715    4.4483 C   0  0  0  0  0  0  0  0  0  0  0  0
   47.6477   15.2272    3.7717 C   0  0  0  0  0  0  0  0  0  0  0  0
   42.4356    7.9758   -2.8034 C   0  0  0  0  0  0  0  0  0  0  0  0
   42.8549    6.9258   -3.2803 O   0  0  0  0  0  0  0  0  0  0  0  0
   41.1121    8.1843   -2.6607 O   0  0  0  0  0  0  0  0  0  0  0  0
   40.8014    8.9893   -2.2955 H   0  0  0  0  0  0  0  0  0  0  0  0
   42.3762   10.7909   -3.7544 O   0  0  0  0  0  0  0  0  0  0  0  0
   42.9056   10.6342   -5.0733 C   0  0  0  0  0  0  0  0  0  0  0  0
   41.7614   10.8004   -6.0947 C   0  0  0  0  0  0  0  0  0  0  0  0
   41.6519    9.7010   -7.2086 N   0  0  0  0  0  0  0  0  0  0  0  0
   43.0136    9.3455   -7.7691 C   0  0  0  0  0  0  0  0  0  0  0  0
   40.8382   10.3023   -8.4015 C   0  0  0  0  0  0  0  0  0  0  0  0
   40.8140    8.5232   -6.7296 C   0  0  0  0  0  0  0  0  0  0  0  0
   42.3537    6.6624   -7.1227 C   0  0  0  0  0  0  0  0  0  0  0  0
   40.8998    7.1605   -7.3918 N   0  0  0  0  0  0  0  0  0  0  0  0
   39.9875    6.1116   -6.7497 C   0  0  0  0  0  0  0  0  0  0  0  0
   40.7225    7.1349   -8.8971 C   0  0  0  0  0  0  0  0  0  0  0  0
 33 34  1  0
 34 35  1  0
 34 36  1  0
 34 32  1  0
 32 29  1  0
 29 30  1  0
 29 31  1  0
 29 28  1  0
 28 27  1  0
 27 26  1  0
 26  1  1  0
  1  2  2  0
  2 22  1  0
 22 23  2  0
 22 24  1  0
  2  3  1  0
  3  4  1  0
  4  7  1  0
  7  8  2  0
  8  9  1  0
  9 10  2  0
 10 11  1  0
 11 13  1  0
 13 15  1  0
 15 16  1  0
 16 17  2  0
 17 18  1  0
 18 19  2  0
 19 20  1  0
 20 21  2  0
 11 12  2  0
  4  5  2  0
  5  6  1  0
  5  1  1  0
 12  7  1  0
 21 16  1  0
 24 25  1  0
 13 14  1  0
M  CHG 1  29   1
M  CHG 1  34   1
M  END
> <minimizedAffinity>
-6.06363

> <CNNscore>
0.1168138981

> <CNNaffinity>
4.6071047783

> <CNN_VS>
0.5381738544

> <CNNaffinity_variance>
0.4866109788

$$$$



 36 38  0  0  0  0  0  0  0  0999 V2000
   44.6715    9.0611   -2.8460 C   0  0  0  0  0  0  0  0  0  0  0  0
   43.6109    8.5996   -2.0854 C   0  0  0  0  0  0  0  0  0  0  0  0
   43.9791    8.7080   -0.4127 S   0  0  0  0  0  0  0  0  0  0  0  0
   45.5296    9.3856   -0.7063 C   0  0  0  0  0  0  0  0  0  0  0  0
   45.7553    9.5262   -2.0573 C   0  0  0  0  0  0  0  0  0  0  0  0
   47.3064   10.2857   -2.8367 Br  0  0  0  0  0  0  0  0  0  0  0  0
   46.3854    9.7298    0.4273 C   0  0  0  0  0  0  0  0  0  0  0  0
   47.1154    8.7364    1.0855 C   0  0  0  0  0  0  0  0  0  0  0  0
   47.9763    9.0819    2.1239 C   0  0  0  0  0  0  0  0  0  0  0  0
   48.1034   10.4187    2.5148 C   0  0  0  0  0  0  0  0  0  0  0  0
   47.3554   11.4297    1.9026 C   0  0  0  0  0  0  0  0  0  0  0  0
   46.5207   11.0666    0.8355 C   0  0  0  0  0  0  0  0  0  0  0  0
   47.5010   12.7879    2.1954 N   0  0  0  0  0  0  0  0  0  0  0  0
   47.8870   13.3963    1.5244 H   0  0  0  0  0  0  0  0  0  0  0  0
   47.0821   13.3074    3.4944 C   0  0  0  0  0  0  0  0  0  0  0  0
   46.9588   14.8093    3.4043 C   0  0  0  0  0  0  0  0  0  0  0  0
   45.8717   15.4004    2.7449 C   0  0  0  0  0  0  0  0  0  0  0  0
   45.7665   16.7902    2.6602 C   0  0  0  0  0  0  0  0  0  0  0  0
   46.7513   17.6007    3.2237 C   0  0  0  0  0  0  0  0  0  0  0  0
   47.8422   17.0245    3.8716 C   0  0  0  0  0  0  0  0  0  0  0  0
   47.9482   15.6358    3.9590 C   0  0  0  0  0  0  0  0  0  0  0  0
   42.3559    8.0653   -2.5705 C   0  0  0  0  0  0  0  0  0  0  0  0
   41.2412    8.5258   -2.3441 O   0  0  0  0  0  0  0  0  0  0  0  0
   42.5029    6.9754   -3.3489 O   0  0  0  0  0  0  0  0  0  0  0  0
   43.3581    6.6310   -3.5161 H   0  0  0  0  0  0  0  0  0  0  0  0
   44.5987    9.1414   -4.1966 O   0  0  0  0  0  0  0  0  0  0  0  0
   45.2030    8.0148   -4.8369 C   0  0  0  0  0  0  0  0  0  0  0  0
   46.1752    8.5188   -5.9235 C   0  0  0  0  0  0  0  0  0  0  0  0
   47.5388    7.7537   -6.0525 N   0  0  0  0  0  0  0  0  0  0  0  0
   47.4864    6.7138   -7.1528 C   0  0  0  0  0  0  0  0  0  0  0  0
   47.7762    6.9636   -4.7235 C   0  0  0  0  0  0  0  0  0  0  0  0
   48.7048    8.7299   -6.1303 C   0  0  0  0  0  0  0  0  0  0  0  0
   50.4545    8.8148   -7.8389 C   0  0  0  0  0  0  0  0  0  0  0  0
   50.1196    8.2627   -6.4185 N   0  0  0  0  0  0  0  0  0  0  0  0
   51.1673    8.8792   -5.4874 C   0  0  0  0  0  0  0  0  0  0  0  0
   50.3272    6.7630   -6.4947 C   0  0  0  0  0  0  0  0  0  0  0  0
 33 34  1  0
 34 35  1  0
 34 36  1  0
 34 32  1  0
 32 29  1  0
 29 30  1  0
 29 31  1  0
 29 28  1  0
 28 27  1  0
 27 26  1  0
 26  1  1  0
  1  2  2  0
  2 22  1  0
 22 23  2  0
 22 24  1  0
  2  3  1  0
  3  4  1  0
  4  7  1  0
  7  8  2  0
  8  9  1  0
  9 10  2  0
 10 11  1  0
 11 13  1  0
 13 15  1  0
 15 16  1  0
 16 17  2  0
 17 18  1  0
 18 19  2  0
 19 20  1  0
 20 21  2  0
 11 12  2  0
  4  5  2  0
  5  6  1  0
  5  1  1  0
 12  7  1  0
 21 16  1  0
 24 25  1  0
 13 14  1  0
M  CHG 1  29   1
M  CHG 1  34   1
M  END
> <minimizedAffinity>
-6.10917

> <CNNscore>
0.1135199293

> <CNNaffinity>
4.4031090736

> <CNN_VS>
0.4998406172

> <CNNaffinity_variance>
0.7736380100

$$$$
