


 35 38  0  0  0  0  0  0  0  0999 V2000
  -41.0093   -2.4523    0.3707 N   0  0  0  0  0  0  0  0  0  0  0  0
  -41.8226   -2.6033   -0.7368 C   0  0  0  0  0  0  0  0  0  0  0  0
  -41.4909   -2.9882   -1.8509 O   0  0  0  0  0  0  0  0  0  0  0  0
  -41.4522   -2.1334    1.1901 H   0  0  0  0  0  0  0  0  0  0  0  0
  -43.2557   -2.2422   -0.4734 C   0  0  0  0  0  0  0  0  0  0  0  0
  -43.5926   -2.0184    0.8320 N   0  0  0  0  0  0  0  0  0  0  0  0
  -44.8937   -1.6942    1.0762 C   0  0  0  0  0  0  0  0  0  0  0  0
  -45.8454   -1.5924    0.0583 C   0  0  0  0  0  0  0  0  0  0  0  0
  -47.1159   -1.2605    0.3289 F   0  0  0  0  0  0  0  0  0  0  0  0
  -45.4727   -1.8252   -1.2585 C   0  0  0  0  0  0  0  0  0  0  0  0
  -44.1511   -2.1569   -1.5356 C   0  0  0  0  0  0  0  0  0  0  0  0
  -45.2442   -1.4594    2.4725 C   0  0  0  0  0  0  0  0  0  0  0  0
  -46.0527   -0.3805    2.8467 C   0  0  0  0  0  0  0  0  0  0  0  0
  -46.5375    0.4497    1.9106 F   0  0  0  0  0  0  0  0  0  0  0  0
  -46.3869   -0.1383    4.1798 C   0  0  0  0  0  0  0  0  0  0  0  0
  -45.9067   -0.9820    5.1782 C   0  0  0  0  0  0  0  0  0  0  0  0
  -45.0974   -2.0622    4.8333 C   0  0  0  0  0  0  0  0  0  0  0  0
  -44.7771   -2.2921    3.4937 C   0  0  0  0  0  0  0  0  0  0  0  0
  -44.0050   -3.3502    3.2007 F   0  0  0  0  0  0  0  0  0  0  0  0
  -36.8985   -3.1580    0.5825 C   0  0  0  0  0  0  0  0  0  0  0  0
  -37.4251   -2.8200   -0.6033 N   0  0  0  0  0  0  0  0  0  0  0  0
  -38.7646   -2.5997   -0.6293 C   0  0  0  0  0  0  0  0  0  0  0  0
  -39.6225   -2.6983    0.4736 C   0  0  0  0  0  0  0  0  0  0  0  0
  -39.0406   -3.0563    1.7089 C   0  0  0  0  0  0  0  0  0  0  0  0
  -37.6484   -3.2850    1.7391 C   0  0  0  0  0  0  0  0  0  0  0  0
  -39.7777   -3.2290    3.0330 C   0  0  0  0  0  0  0  0  0  0  0  0
  -39.1175   -4.2548    3.9710 C   0  0  0  0  0  0  0  0  0  0  0  0
  -39.9463   -4.4472    5.2477 C   0  0  0  0  0  0  0  0  0  0  0  0
  -39.2602   -5.3571    6.1663 N   0  0  0  0  0  0  0  0  0  0  0  0
  -40.2131   -3.1087    5.9455 C   0  0  0  0  0  0  0  0  0  0  0  0
  -40.9103   -2.1094    5.0129 C   0  0  0  0  0  0  0  0  0  0  0  0
  -41.1445   -0.7802    5.7300 C   0  0  0  0  0  0  0  0  0  0  0  0
  -40.0886   -1.8936    3.7330 C   0  0  0  0  0  0  0  0  0  0  0  0
  -38.3630   -4.9542    6.4370 H   0  0  0  0  0  0  0  0  0  0  0  0
  -39.1050   -6.2532    5.7046 H   0  0  0  0  0  0  0  0  0  0  0  0
 20 21  2  0
 21 22  1  0
 22 23  2  0
 23  1  1  0
  1  2  1  0
  2  3  2  0
  2  5  1  0
  5  6  2  0
  6  7  1  0
  7 12  1  0
 12 13  2  0
 13 14  1  0
 13 15  1  0
 15 16  2  0
 16 17  1  0
 17 18  2  0
 18 19  1  0
  7  8  2  0
  8  9  1  0
  8 10  1  0
 10 11  2  0
 23 24  1  0
 26 24  1  0
 26 27  1  0
 27 28  1  0
 28 29  1  0
 28 30  1  0
 30 31  1  0
 31 32  1  0
 31 33  1  0
 24 25  2  0
 25 20  1  0
 11  5  1  0
 33 26  1  0
 18 12  1  0
  1  4  1  0
 29 34  1  0
 29 35  1  0
M  END
> <minimizedAffinity>
-11.10424

> <CNNscore>
0.9724151492

> <CNNaffinity>
9.1387434006

> <CNN_VS>
8.8866529465

> <CNNaffinity_variance>
0.1327140480

$$$$



 35 38  0  0  0  0  0  0  0  0999 V2000
  -40.8754   -2.6060    0.1322 N   0  0  0  0  0  0  0  0  0  0  0  0
  -41.5716   -1.6506   -0.5842 C   0  0  0  0  0  0  0  0  0  0  0  0
  -41.1056   -0.8110   -1.3441 O   0  0  0  0  0  0  0  0  0  0  0  0
  -41.4193   -3.2044    0.6938 H   0  0  0  0  0  0  0  0  0  0  0  0
  -43.0552   -1.7077   -0.3624 C   0  0  0  0  0  0  0  0  0  0  0  0
  -43.4796   -1.5615    0.9284 N   0  0  0  0  0  0  0  0  0  0  0  0
  -44.8256   -1.6168    1.1349 C   0  0  0  0  0  0  0  0  0  0  0  0
  -45.7369   -1.8125    0.0942 C   0  0  0  0  0  0  0  0  0  0  0  0
  -47.0567   -1.8511    0.3275 F   0  0  0  0  0  0  0  0  0  0  0  0
  -45.2755   -1.9574   -1.2070 C   0  0  0  0  0  0  0  0  0  0  0  0
  -43.9066   -1.9041   -1.4457 C   0  0  0  0  0  0  0  0  0  0  0  0
  -45.2687   -1.4620    2.5160 C   0  0  0  0  0  0  0  0  0  0  0  0
  -44.8666   -2.3581    3.5125 C   0  0  0  0  0  0  0  0  0  0  0  0
  -44.0415   -3.3718    3.2086 F   0  0  0  0  0  0  0  0  0  0  0  0
  -45.2915   -2.2276    4.8353 C   0  0  0  0  0  0  0  0  0  0  0  0
  -46.1436   -1.1845    5.1891 C   0  0  0  0  0  0  0  0  0  0  0  0
  -46.5615   -0.2797    4.2157 C   0  0  0  0  0  0  0  0  0  0  0  0
  -46.1224   -0.4228    2.8979 C   0  0  0  0  0  0  0  0  0  0  0  0
  -46.5374    0.4764    1.9918 F   0  0  0  0  0  0  0  0  0  0  0  0
  -36.7546   -3.2840    0.1174 C   0  0  0  0  0  0  0  0  0  0  0  0
  -37.4182   -3.3774   -1.0439 N   0  0  0  0  0  0  0  0  0  0  0  0
  -38.7560   -3.1502   -0.9956 C   0  0  0  0  0  0  0  0  0  0  0  0
  -39.4816   -2.8310    0.1592 C   0  0  0  0  0  0  0  0  0  0  0  0
  -38.7569   -2.7399    1.3673 C   0  0  0  0  0  0  0  0  0  0  0  0
  -37.3662   -2.9747    1.3201 C   0  0  0  0  0  0  0  0  0  0  0  0
  -39.3360   -2.4140    2.7402 C   0  0  0  0  0  0  0  0  0  0  0  0
  -40.5780   -1.5075    2.6803 C   0  0  0  0  0  0  0  0  0  0  0  0
  -41.0650   -1.1465    4.0897 C   0  0  0  0  0  0  0  0  0  0  0  0
  -42.2966   -0.3590    4.0153 N   0  0  0  0  0  0  0  0  0  0  0  0
  -41.3022   -2.4024    4.9357 C   0  0  0  0  0  0  0  0  0  0  0  0
  -40.0439   -3.2762    5.0232 C   0  0  0  0  0  0  0  0  0  0  0  0
  -40.3173   -4.5285    5.8553 C   0  0  0  0  0  0  0  0  0  0  0  0
  -39.5476   -3.6590    3.6206 C   0  0  0  0  0  0  0  0  0  0  0  0
  -43.0272   -0.9120    3.5672 H   0  0  0  0  0  0  0  0  0  0  0  0
  -42.1273    0.4863    3.4701 H   0  0  0  0  0  0  0  0  0  0  0  0
 20 21  2  0
 21 22  1  0
 22 23  2  0
 23  1  1  0
  1  2  1  0
  2  3  2  0
  2  5  1  0
  5  6  2  0
  6  7  1  0
  7 12  1  0
 12 13  2  0
 13 14  1  0
 13 15  1  0
 15 16  2  0
 16 17  1  0
 17 18  2  0
 18 19  1  0
  7  8  2  0
  8  9  1  0
  8 10  1  0
 10 11  2  0
 23 24  1  0
 26 24  1  0
 26 27  1  0
 27 28  1  0
 28 29  1  0
 28 30  1  0
 30 31  1  0
 31 32  1  0
 31 33  1  0
 24 25  2  0
 25 20  1  0
 11  5  1  0
 33 26  1  0
 18 12  1  0
  1  4  1  0
 29 34  1  0
 29 35  1  0
M  END
> <minimizedAffinity>
-10.19430

> <CNNscore>
0.7412132621

> <CNNaffinity>
8.2730913162

> <CNN_VS>
6.1321249008

> <CNNaffinity_variance>
0.0086298408

$$$$



 35 38  0  0  0  0  0  0  0  0999 V2000
  -44.5388   -1.3620    2.2843 N   0  0  0  0  0  0  0  0  0  0  0  0
  -44.5591   -0.8265    1.0101 C   0  0  0  0  0  0  0  0  0  0  0  0
  -45.2070    0.1381    0.6236 O   0  0  0  0  0  0  0  0  0  0  0  0
  -43.9514   -2.1413    2.4147 H   0  0  0  0  0  0  0  0  0  0  0  0
  -43.6645   -1.5524    0.0477 C   0  0  0  0  0  0  0  0  0  0  0  0
  -42.3794   -1.7662    0.4605 N   0  0  0  0  0  0  0  0  0  0  0  0
  -41.5626   -2.4214   -0.4119 C   0  0  0  0  0  0  0  0  0  0  0  0
  -41.9992   -2.8576   -1.6654 C   0  0  0  0  0  0  0  0  0  0  0  0
  -41.1747   -3.5097   -2.4975 F   0  0  0  0  0  0  0  0  0  0  0  0
  -43.3109   -2.6261   -2.0565 C   0  0  0  0  0  0  0  0  0  0  0  0
  -44.1658   -1.9603   -1.1850 C   0  0  0  0  0  0  0  0  0  0  0  0
  -40.1924   -2.6429    0.0365 C   0  0  0  0  0  0  0  0  0  0  0  0
  -39.3053   -3.4334   -0.7023 C   0  0  0  0  0  0  0  0  0  0  0  0
  -39.7045   -3.9875   -1.8574 F   0  0  0  0  0  0  0  0  0  0  0  0
  -37.9952   -3.6620   -0.2794 C   0  0  0  0  0  0  0  0  0  0  0  0
  -37.5439   -3.0986    0.9115 C   0  0  0  0  0  0  0  0  0  0  0  0
  -38.4076   -2.3096    1.6679 C   0  0  0  0  0  0  0  0  0  0  0  0
  -39.7138   -2.0876    1.2269 C   0  0  0  0  0  0  0  0  0  0  0  0
  -40.5114   -1.3116    1.9774 F   0  0  0  0  0  0  0  0  0  0  0  0
  -46.7302   -0.0623    5.5934 C   0  0  0  0  0  0  0  0  0  0  0  0
  -47.2705    0.0857    4.3753 N   0  0  0  0  0  0  0  0  0  0  0  0
  -46.5257   -0.3491    3.3265 C   0  0  0  0  0  0  0  0  0  0  0  0
  -45.2552   -0.9310    3.4224 C   0  0  0  0  0  0  0  0  0  0  0  0
  -44.7110   -1.0737    4.7171 C   0  0  0  0  0  0  0  0  0  0  0  0
  -45.4833   -0.6235    5.8091 C   0  0  0  0  0  0  0  0  0  0  0  0
  -43.3492   -1.6694    5.0589 C   0  0  0  0  0  0  0  0  0  0  0  0
  -43.1663   -3.1096    4.5485 C   0  0  0  0  0  0  0  0  0  0  0  0
  -41.8148   -3.6840    4.9927 C   0  0  0  0  0  0  0  0  0  0  0  0
  -41.6192   -5.0190    4.4251 N   0  0  0  0  0  0  0  0  0  0  0  0
  -40.6572   -2.7689    4.5779 C   0  0  0  0  0  0  0  0  0  0  0  0
  -40.8297   -1.3473    5.1290 C   0  0  0  0  0  0  0  0  0  0  0  0
  -39.6720   -0.4550    4.6828 C   0  0  0  0  0  0  0  0  0  0  0  0
  -42.1731   -0.7495    4.6841 C   0  0  0  0  0  0  0  0  0  0  0  0
  -41.6102   -4.9576    3.4070 H   0  0  0  0  0  0  0  0  0  0  0  0
  -42.3802   -5.6297    4.7222 H   0  0  0  0  0  0  0  0  0  0  0  0
 20 21  2  0
 21 22  1  0
 22 23  2  0
 23  1  1  0
  1  2  1  0
  2  3  2  0
  2  5  1  0
  5  6  2  0
  6  7  1  0
  7 12  1  0
 12 13  2  0
 13 14  1  0
 13 15  1  0
 15 16  2  0
 16 17  1  0
 17 18  2  0
 18 19  1  0
  7  8  2  0
  8  9  1  0
  8 10  1  0
 10 11  2  0
 23 24  1  0
 26 24  1  0
 26 27  1  0
 27 28  1  0
 28 29  1  0
 28 30  1  0
 30 31  1  0
 31 32  1  0
 31 33  1  0
 24 25  2  0
 25 20  1  0
 11  5  1  0
 33 26  1  0
 18 12  1  0
  1  4  1  0
 29 34  1  0
 29 35  1  0
M  END
> <minimizedAffinity>
-11.22607

> <CNNscore>
0.6653813720

> <CNNaffinity>
8.0545845032

> <CNN_VS>
5.3593707085

> <CNNaffinity_variance>
0.1276347637

$$$$



 35 38  0  0  0  0  0  0  0  0999 V2000
  -41.3950   -1.9917    0.8553 N   0  0  0  0  0  0  0  0  0  0  0  0
  -42.6305   -2.3183    0.3284 C   0  0  0  0  0  0  0  0  0  0  0  0
  -42.8542   -2.9909   -0.6702 O   0  0  0  0  0  0  0  0  0  0  0  0
  -41.4067   -1.4419    1.6719 H   0  0  0  0  0  0  0  0  0  0  0  0
  -43.7782   -1.7582    1.1175 C   0  0  0  0  0  0  0  0  0  0  0  0
  -43.8185   -2.0880    2.4431 N   0  0  0  0  0  0  0  0  0  0  0  0
  -44.8611   -1.5849    3.1624 C   0  0  0  0  0  0  0  0  0  0  0  0
  -45.8452   -0.7744    2.5909 C   0  0  0  0  0  0  0  0  0  0  0  0
  -46.8530   -0.2852    3.3274 F   0  0  0  0  0  0  0  0  0  0  0  0
  -45.7770   -0.4563    1.2414 C   0  0  0  0  0  0  0  0  0  0  0  0
  -44.7229   -0.9558    0.4844 C   0  0  0  0  0  0  0  0  0  0  0  0
  -44.8967   -1.9441    4.5757 C   0  0  0  0  0  0  0  0  0  0  0  0
  -44.0201   -1.3591    5.4960 C   0  0  0  0  0  0  0  0  0  0  0  0
  -43.1385   -0.4338    5.0867 F   0  0  0  0  0  0  0  0  0  0  0  0
  -44.0365   -1.7013    6.8488 C   0  0  0  0  0  0  0  0  0  0  0  0
  -44.9414   -2.6534    7.3112 C   0  0  0  0  0  0  0  0  0  0  0  0
  -45.8236   -3.2535    6.4154 C   0  0  0  0  0  0  0  0  0  0  0  0
  -45.7963   -2.8953    5.0660 C   0  0  0  0  0  0  0  0  0  0  0  0
  -46.6705   -3.4869    4.2368 F   0  0  0  0  0  0  0  0  0  0  0  0
  -37.6408   -3.0057   -0.6677 C   0  0  0  0  0  0  0  0  0  0  0  0
  -38.5110   -2.3893   -1.4804 N   0  0  0  0  0  0  0  0  0  0  0  0
  -39.7200   -2.0774   -0.9467 C   0  0  0  0  0  0  0  0  0  0  0  0
  -40.1182   -2.3482    0.3686 C   0  0  0  0  0  0  0  0  0  0  0  0
  -39.1818   -2.9984    1.2013 C   0  0  0  0  0  0  0  0  0  0  0  0
  -37.9241   -3.3231    0.6496 C   0  0  0  0  0  0  0  0  0  0  0  0
  -39.3984   -3.3965    2.6576 C   0  0  0  0  0  0  0  0  0  0  0  0
  -38.4776   -4.5382    3.1229 C   0  0  0  0  0  0  0  0  0  0  0  0
  -38.7974   -4.9509    4.5655 C   0  0  0  0  0  0  0  0  0  0  0  0
  -37.8557   -5.9744    5.0216 N   0  0  0  0  0  0  0  0  0  0  0  0
  -38.7534   -3.7461    5.5121 C   0  0  0  0  0  0  0  0  0  0  0  0
  -39.7077   -2.6324    5.0612 C   0  0  0  0  0  0  0  0  0  0  0  0
  -39.6267   -1.4389    6.0123 C   0  0  0  0  0  0  0  0  0  0  0  0
  -39.3949   -2.1963    3.6217 C   0  0  0  0  0  0  0  0  0  0  0  0
  -36.9091   -5.5946    5.0106 H   0  0  0  0  0  0  0  0  0  0  0  0
  -37.9050   -6.7825    4.4013 H   0  0  0  0  0  0  0  0  0  0  0  0
 20 21  2  0
 21 22  1  0
 22 23  2  0
 23  1  1  0
  1  2  1  0
  2  3  2  0
  2  5  1  0
  5  6  2  0
  6  7  1  0
  7 12  1  0
 12 13  2  0
 13 14  1  0
 13 15  1  0
 15 16  2  0
 16 17  1  0
 17 18  2  0
 18 19  1  0
  7  8  2  0
  8  9  1  0
  8 10  1  0
 10 11  2  0
 23 24  1  0
 26 24  1  0
 26 27  1  0
 27 28  1  0
 28 29  1  0
 28 30  1  0
 30 31  1  0
 31 32  1  0
 31 33  1  0
 24 25  2  0
 25 20  1  0
 11  5  1  0
 33 26  1  0
 18 12  1  0
  1  4  1  0
 29 34  1  0
 29 35  1  0
M  END
> <minimizedAffinity>
-10.65678

> <CNNscore>
0.6194821596

> <CNNaffinity>
8.3137054443

> <CNN_VS>
5.1501922607

> <CNNaffinity_variance>
0.0044488474

$$$$



 35 38  0  0  0  0  0  0  0  0999 V2000
  -41.2944   -1.9532    1.1023 N   0  0  0  0  0  0  0  0  0  0  0  0
  -42.4857   -2.3810    0.5468 C   0  0  0  0  0  0  0  0  0  0  0  0
  -42.6292   -3.1766   -0.3730 O   0  0  0  0  0  0  0  0  0  0  0  0
  -41.3713   -1.3090    1.8428 H   0  0  0  0  0  0  0  0  0  0  0  0
  -43.6945   -1.7668    1.1911 C   0  0  0  0  0  0  0  0  0  0  0  0
  -43.8779   -2.0412    2.5173 N   0  0  0  0  0  0  0  0  0  0  0  0
  -44.9764   -1.4889    3.1053 C   0  0  0  0  0  0  0  0  0  0  0  0
  -45.8774   -0.6833    2.4044 C   0  0  0  0  0  0  0  0  0  0  0  0
  -46.9434   -0.1447    3.0136 F   0  0  0  0  0  0  0  0  0  0  0  0
  -45.6641   -0.4221    1.0578 C   0  0  0  0  0  0  0  0  0  0  0  0
  -44.5503   -0.9726    0.4334 C   0  0  0  0  0  0  0  0  0  0  0  0
  -45.1648   -1.7892    4.5202 C   0  0  0  0  0  0  0  0  0  0  0  0
  -46.0163   -2.8182    4.9370 C   0  0  0  0  0  0  0  0  0  0  0  0
  -46.6622   -3.5633    4.0268 F   0  0  0  0  0  0  0  0  0  0  0  0
  -46.2137   -3.1092    6.2875 C   0  0  0  0  0  0  0  0  0  0  0  0
  -45.5558   -2.3608    7.2603 C   0  0  0  0  0  0  0  0  0  0  0  0
  -44.7044   -1.3286    6.8726 C   0  0  0  0  0  0  0  0  0  0  0  0
  -44.5150   -1.0546    5.5165 C   0  0  0  0  0  0  0  0  0  0  0  0
  -43.6773   -0.0603    5.1831 F   0  0  0  0  0  0  0  0  0  0  0  0
  -37.4283   -3.0245   -0.0582 C   0  0  0  0  0  0  0  0  0  0  0  0
  -38.2691   -2.5650   -0.9962 N   0  0  0  0  0  0  0  0  0  0  0  0
  -39.5161   -2.2283   -0.5776 C   0  0  0  0  0  0  0  0  0  0  0  0
  -39.9810   -2.3246    0.7402 C   0  0  0  0  0  0  0  0  0  0  0  0
  -39.0743   -2.8120    1.7062 C   0  0  0  0  0  0  0  0  0  0  0  0
  -37.7772   -3.1618    1.2743 C   0  0  0  0  0  0  0  0  0  0  0  0
  -39.3621   -3.0068    3.1913 C   0  0  0  0  0  0  0  0  0  0  0  0
  -40.8390   -3.3170    3.4923 C   0  0  0  0  0  0  0  0  0  0  0  0
  -41.0835   -3.4196    5.0034 C   0  0  0  0  0  0  0  0  0  0  0  0
  -42.4712   -3.8023    5.2685 N   0  0  0  0  0  0  0  0  0  0  0  0
  -40.1328   -4.4308    5.6540 C   0  0  0  0  0  0  0  0  0  0  0  0
  -38.6624   -4.0862    5.3826 C   0  0  0  0  0  0  0  0  0  0  0  0
  -37.7412   -5.1219    6.0263 C   0  0  0  0  0  0  0  0  0  0  0  0
  -38.3946   -3.9912    3.8729 C   0  0  0  0  0  0  0  0  0  0  0  0
  -42.6546   -4.7196    4.8619 H   0  0  0  0  0  0  0  0  0  0  0  0
  -43.0990   -3.1144    4.8525 H   0  0  0  0  0  0  0  0  0  0  0  0
 20 21  2  0
 21 22  1  0
 22 23  2  0
 23  1  1  0
  1  2  1  0
  2  3  2  0
  2  5  1  0
  5  6  2  0
  6  7  1  0
  7 12  1  0
 12 13  2  0
 13 14  1  0
 13 15  1  0
 15 16  2  0
 16 17  1  0
 17 18  2  0
 18 19  1  0
  7  8  2  0
  8  9  1  0
  8 10  1  0
 10 11  2  0
 23 24  1  0
 26 24  1  0
 26 27  1  0
 27 28  1  0
 28 29  1  0
 28 30  1  0
 30 31  1  0
 31 32  1  0
 31 33  1  0
 24 25  2  0
 25 20  1  0
 11  5  1  0
 33 26  1  0
 18 12  1  0
  1  4  1  0
 29 34  1  0
 29 35  1  0
M  END
> <minimizedAffinity>
-10.67756

> <CNNscore>
0.5408658981

> <CNNaffinity>
8.2816839218

> <CNN_VS>
4.4792804718

> <CNNaffinity_variance>
0.0451993681

$$$$



 35 38  0  0  0  0  0  0  0  0999 V2000
  -44.3167   -1.3421    2.2501 N   0  0  0  0  0  0  0  0  0  0  0  0
  -44.5223   -0.9804    0.9318 C   0  0  0  0  0  0  0  0  0  0  0  0
  -45.3687   -0.2078    0.5004 O   0  0  0  0  0  0  0  0  0  0  0  0
  -43.5821   -1.9769    2.4130 H   0  0  0  0  0  0  0  0  0  0  0  0
  -43.5673   -1.6406   -0.0198 C   0  0  0  0  0  0  0  0  0  0  0  0
  -42.3060   -1.8721    0.4529 N   0  0  0  0  0  0  0  0  0  0  0  0
  -41.4345   -2.4676   -0.4092 C   0  0  0  0  0  0  0  0  0  0  0  0
  -41.7943   -2.8283   -1.7101 C   0  0  0  0  0  0  0  0  0  0  0  0
  -40.9173   -3.4232   -2.5314 F   0  0  0  0  0  0  0  0  0  0  0  0
  -43.0834   -2.5806   -2.1617 C   0  0  0  0  0  0  0  0  0  0  0  0
  -43.9931   -1.9747   -1.3020 C   0  0  0  0  0  0  0  0  0  0  0  0
  -40.0903   -2.7085    0.1035 C   0  0  0  0  0  0  0  0  0  0  0  0
  -39.7320   -2.3382    1.4043 C   0  0  0  0  0  0  0  0  0  0  0  0
  -40.6390   -1.7678    2.2123 F   0  0  0  0  0  0  0  0  0  0  0  0
  -38.4468   -2.5532    1.9037 C   0  0  0  0  0  0  0  0  0  0  0  0
  -37.4807   -3.1478    1.0959 C   0  0  0  0  0  0  0  0  0  0  0  0
  -37.8102   -3.5237   -0.2044 C   0  0  0  0  0  0  0  0  0  0  0  0
  -39.1026   -3.3052   -0.6859 C   0  0  0  0  0  0  0  0  0  0  0  0
  -39.3844   -3.6926   -1.9397 F   0  0  0  0  0  0  0  0  0  0  0  0
  -46.5005   -0.0667    5.5737 C   0  0  0  0  0  0  0  0  0  0  0  0
  -47.1094   -0.0779    4.3792 N   0  0  0  0  0  0  0  0  0  0  0  0
  -46.3646   -0.4987    3.3248 C   0  0  0  0  0  0  0  0  0  0  0  0
  -45.0289   -0.9148    3.3922 C   0  0  0  0  0  0  0  0  0  0  0  0
  -44.4133   -0.8922    4.6625 C   0  0  0  0  0  0  0  0  0  0  0  0
  -45.1852   -0.4561    5.7604 C   0  0  0  0  0  0  0  0  0  0  0  0
  -42.9742   -1.2923    4.9709 C   0  0  0  0  0  0  0  0  0  0  0  0
  -42.5084   -0.8656    6.3741 C   0  0  0  0  0  0  0  0  0  0  0  0
  -41.0321   -1.2195    6.5958 C   0  0  0  0  0  0  0  0  0  0  0  0
  -40.6304   -0.8885    7.9638 N   0  0  0  0  0  0  0  0  0  0  0  0
  -40.7682   -2.7045    6.3222 C   0  0  0  0  0  0  0  0  0  0  0  0
  -41.1973   -3.1074    4.9052 C   0  0  0  0  0  0  0  0  0  0  0  0
  -40.9404   -4.5955    4.6698 C   0  0  0  0  0  0  0  0  0  0  0  0
  -42.6776   -2.7722    4.6679 C   0  0  0  0  0  0  0  0  0  0  0  0
  -41.1829   -1.4372    8.6227 H   0  0  0  0  0  0  0  0  0  0  0  0
  -40.7873    0.1050    8.1333 H   0  0  0  0  0  0  0  0  0  0  0  0
 20 21  2  0
 21 22  1  0
 22 23  2  0
 23  1  1  0
  1  2  1  0
  2  3  2  0
  2  5  1  0
  5  6  2  0
  6  7  1  0
  7 12  1  0
 12 13  2  0
 13 14  1  0
 13 15  1  0
 15 16  2  0
 16 17  1  0
 17 18  2  0
 18 19  1  0
  7  8  2  0
  8  9  1  0
  8 10  1  0
 10 11  2  0
 23 24  1  0
 26 24  1  0
 26 27  1  0
 27 28  1  0
 28 29  1  0
 28 30  1  0
 30 31  1  0
 31 32  1  0
 31 33  1  0
 24 25  2  0
 25 20  1  0
 11  5  1  0
 33 26  1  0
 18 12  1  0
  1  4  1  0
 29 34  1  0
 29 35  1  0
M  END
> <minimizedAffinity>
-11.25962

> <CNNscore>
0.4000746012

> <CNNaffinity>
7.8027863503

> <CNN_VS>
3.1216967106

> <CNNaffinity_variance>
0.0724936649

$$$$



 35 38  0  0  0  0  0  0  0  0999 V2000
  -44.5346   -2.5960    3.0479 N   0  0  0  0  0  0  0  0  0  0  0  0
  -44.9936   -1.6748    2.1253 C   0  0  0  0  0  0  0  0  0  0  0  0
  -45.8372   -0.8056    2.3051 O   0  0  0  0  0  0  0  0  0  0  0  0
  -43.8461   -3.2218    2.7259 H   0  0  0  0  0  0  0  0  0  0  0  0
  -44.3424   -1.8089    0.7793 C   0  0  0  0  0  0  0  0  0  0  0  0
  -43.0110   -2.1168    0.7799 N   0  0  0  0  0  0  0  0  0  0  0  0
  -42.4148   -2.2355   -0.4399 C   0  0  0  0  0  0  0  0  0  0  0  0
  -43.1125   -2.0548   -1.6368 C   0  0  0  0  0  0  0  0  0  0  0  0
  -42.5005   -2.1894   -2.8221 F   0  0  0  0  0  0  0  0  0  0  0  0
  -44.4648   -1.7430   -1.6052 C   0  0  0  0  0  0  0  0  0  0  0  0
  -45.0980   -1.6168   -0.3736 C   0  0  0  0  0  0  0  0  0  0  0  0
  -40.9932   -2.5621   -0.4291 C   0  0  0  0  0  0  0  0  0  0  0  0
  -40.4025   -3.2693   -1.4820 C   0  0  0  0  0  0  0  0  0  0  0  0
  -41.1431   -3.6424   -2.5371 F   0  0  0  0  0  0  0  0  0  0  0  0
  -39.0462   -3.5974   -1.4794 C   0  0  0  0  0  0  0  0  0  0  0  0
  -38.2451   -3.2218   -0.4039 C   0  0  0  0  0  0  0  0  0  0  0  0
  -38.8086   -2.5193    0.6590 C   0  0  0  0  0  0  0  0  0  0  0  0
  -40.1668   -2.1954    0.6372 C   0  0  0  0  0  0  0  0  0  0  0  0
  -40.6694   -1.5071    1.6741 F   0  0  0  0  0  0  0  0  0  0  0  0
  -45.7926   -3.0739    7.0015 C   0  0  0  0  0  0  0  0  0  0  0  0
  -46.7090   -3.1669    6.0272 N   0  0  0  0  0  0  0  0  0  0  0  0
  -46.2590   -3.0050    4.7564 C   0  0  0  0  0  0  0  0  0  0  0  0
  -44.9298   -2.7518    4.3947 C   0  0  0  0  0  0  0  0  0  0  0  0
  -43.9869   -2.6585    5.4412 C   0  0  0  0  0  0  0  0  0  0  0  0
  -44.4515   -2.8272    6.7629 C   0  0  0  0  0  0  0  0  0  0  0  0
  -42.4948   -2.3838    5.2845 C   0  0  0  0  0  0  0  0  0  0  0  0
  -41.8322   -1.8556    6.5690 C   0  0  0  0  0  0  0  0  0  0  0  0
  -40.3548   -1.5191    6.3286 C   0  0  0  0  0  0  0  0  0  0  0  0
  -39.7184   -1.1036    7.5795 N   0  0  0  0  0  0  0  0  0  0  0  0
  -39.6009   -2.7143    5.7347 C   0  0  0  0  0  0  0  0  0  0  0  0
  -40.2462   -3.2042    4.4316 C   0  0  0  0  0  0  0  0  0  0  0  0
  -39.4850   -4.4069    3.8752 C   0  0  0  0  0  0  0  0  0  0  0  0
  -41.7243   -3.5585    4.6550 C   0  0  0  0  0  0  0  0  0  0  0  0
  -39.7563   -1.8702    8.2513 H   0  0  0  0  0  0  0  0  0  0  0  0
  -40.2103   -0.2945    7.9588 H   0  0  0  0  0  0  0  0  0  0  0  0
 20 21  2  0
 21 22  1  0
 22 23  2  0
 23  1  1  0
  1  2  1  0
  2  3  2  0
  2  5  1  0
  5  6  2  0
  6  7  1  0
  7 12  1  0
 12 13  2  0
 13 14  1  0
 13 15  1  0
 15 16  2  0
 16 17  1  0
 17 18  2  0
 18 19  1  0
  7  8  2  0
  8  9  1  0
  8 10  1  0
 10 11  2  0
 23 24  1  0
 26 24  1  0
 26 27  1  0
 27 28  1  0
 28 29  1  0
 28 30  1  0
 30 31  1  0
 31 32  1  0
 31 33  1  0
 24 25  2  0
 25 20  1  0
 11  5  1  0
 33 26  1  0
 18 12  1  0
  1  4  1  0
 29 34  1  0
 29 35  1  0
M  END
> <minimizedAffinity>
-10.57113

> <CNNscore>
0.3388411999

> <CNNaffinity>
7.7149796486

> <CNN_VS>
2.6141529083

> <CNNaffinity_variance>
0.0665185973

$$$$



 35 38  0  0  0  0  0  0  0  0999 V2000
  -41.9784   -2.3482    0.5534 N   0  0  0  0  0  0  0  0  0  0  0  0
  -40.8473   -1.9867   -0.1542 C   0  0  0  0  0  0  0  0  0  0  0  0
  -40.7917   -1.2616   -1.1394 O   0  0  0  0  0  0  0  0  0  0  0  0
  -41.8320   -2.9397    1.3267 H   0  0  0  0  0  0  0  0  0  0  0  0
  -39.5853   -2.5796    0.4022 C   0  0  0  0  0  0  0  0  0  0  0  0
  -39.6747   -3.1293    1.6502 N   0  0  0  0  0  0  0  0  0  0  0  0
  -38.5303   -3.6651    2.1608 C   0  0  0  0  0  0  0  0  0  0  0  0
  -37.3217   -3.6606    1.4598 C   0  0  0  0  0  0  0  0  0  0  0  0
  -36.2149   -4.2058    1.9844 F   0  0  0  0  0  0  0  0  0  0  0  0
  -37.2624   -3.0950    0.1935 C   0  0  0  0  0  0  0  0  0  0  0  0
  -38.4159   -2.5419   -0.3516 C   0  0  0  0  0  0  0  0  0  0  0  0
  -38.6350   -4.2475    3.4941 C   0  0  0  0  0  0  0  0  0  0  0  0
  -39.7991   -4.1087    4.2578 C   0  0  0  0  0  0  0  0  0  0  0  0
  -40.8537   -3.4467    3.7574 F   0  0  0  0  0  0  0  0  0  0  0  0
  -39.9087   -4.6517    5.5386 C   0  0  0  0  0  0  0  0  0  0  0  0
  -38.8367   -5.3502    6.0885 C   0  0  0  0  0  0  0  0  0  0  0  0
  -37.6648   -5.5006    5.3506 C   0  0  0  0  0  0  0  0  0  0  0  0
  -37.5745   -4.9546    4.0685 C   0  0  0  0  0  0  0  0  0  0  0  0
  -36.4333   -5.1317    3.3846 F   0  0  0  0  0  0  0  0  0  0  0  0
  -45.9301   -1.2764   -0.2689 C   0  0  0  0  0  0  0  0  0  0  0  0
  -45.1909   -1.7897   -1.2628 N   0  0  0  0  0  0  0  0  0  0  0  0
  -43.9117   -2.1246   -0.9540 C   0  0  0  0  0  0  0  0  0  0  0  0
  -43.3177   -1.9752    0.3057 C   0  0  0  0  0  0  0  0  0  0  0  0
  -44.1195   -1.4318    1.3326 C   0  0  0  0  0  0  0  0  0  0  0  0
  -45.4496   -1.0837    1.0149 C   0  0  0  0  0  0  0  0  0  0  0  0
  -43.6840   -1.1739    2.7715 C   0  0  0  0  0  0  0  0  0  0  0  0
  -44.0948   -2.2930    3.7445 C   0  0  0  0  0  0  0  0  0  0  0  0
  -43.7050   -1.9405    5.1858 C   0  0  0  0  0  0  0  0  0  0  0  0
  -44.0218   -3.0520    6.0840 N   0  0  0  0  0  0  0  0  0  0  0  0
  -42.2150   -1.5962    5.2915 C   0  0  0  0  0  0  0  0  0  0  0  0
  -41.8271   -0.4502    4.3477 C   0  0  0  0  0  0  0  0  0  0  0  0
  -40.3341   -0.1440    4.4614 C   0  0  0  0  0  0  0  0  0  0  0  0
  -42.1985   -0.7900    2.8963 C   0  0  0  0  0  0  0  0  0  0  0  0
  -43.4843   -3.8744    5.8099 H   0  0  0  0  0  0  0  0  0  0  0  0
  -45.0182   -3.2623    6.0264 H   0  0  0  0  0  0  0  0  0  0  0  0
 20 21  2  0
 21 22  1  0
 22 23  2  0
 23  1  1  0
  1  2  1  0
  2  3  2  0
  2  5  1  0
  5  6  2  0
  6  7  1  0
  7 12  1  0
 12 13  2  0
 13 14  1  0
 13 15  1  0
 15 16  2  0
 16 17  1  0
 17 18  2  0
 18 19  1  0
  7  8  2  0
  8  9  1  0
  8 10  1  0
 10 11  2  0
 23 24  1  0
 26 24  1  0
 26 27  1  0
 27 28  1  0
 28 29  1  0
 28 30  1  0
 30 31  1  0
 31 32  1  0
 31 33  1  0
 24 25  2  0
 25 20  1  0
 11  5  1  0
 33 26  1  0
 18 12  1  0
  1  4  1  0
 29 34  1  0
 29 35  1  0
M  END
> <minimizedAffinity>
-11.43921

> <CNNscore>
0.3232271671

> <CNNaffinity>
7.7842140198

> <CNN_VS>
2.5160694122

> <CNNaffinity_variance>
0.1812088042

$$$$



 35 38  0  0  0  0  0  0  0  0999 V2000
  -42.5161   -2.2855    0.6666 N   0  0  0  0  0  0  0  0  0  0  0  0
  -41.4034   -1.7896    0.0132 C   0  0  0  0  0  0  0  0  0  0  0  0
  -41.3855   -0.9891   -0.9132 O   0  0  0  0  0  0  0  0  0  0  0  0
  -42.3390   -2.9222    1.3962 H   0  0  0  0  0  0  0  0  0  0  0  0
  -40.1104   -2.3303    0.5511 C   0  0  0  0  0  0  0  0  0  0  0  0
  -40.0794   -2.6031    1.8898 N   0  0  0  0  0  0  0  0  0  0  0  0
  -38.9060   -3.0903    2.3831 C   0  0  0  0  0  0  0  0  0  0  0  0
  -37.7849   -3.3048    1.5775 C   0  0  0  0  0  0  0  0  0  0  0  0
  -36.6476   -3.7960    2.0901 F   0  0  0  0  0  0  0  0  0  0  0  0
  -37.8471   -3.0185    0.2206 C   0  0  0  0  0  0  0  0  0  0  0  0
  -39.0328   -2.5211   -0.3089 C   0  0  0  0  0  0  0  0  0  0  0  0
  -38.8819   -3.3763    3.8133 C   0  0  0  0  0  0  0  0  0  0  0  0
  -39.1515   -2.3798    4.7577 C   0  0  0  0  0  0  0  0  0  0  0  0
  -39.4591   -1.1381    4.3524 F   0  0  0  0  0  0  0  0  0  0  0  0
  -39.1215   -2.6374    6.1289 C   0  0  0  0  0  0  0  0  0  0  0  0
  -38.8117   -3.9156    6.5867 C   0  0  0  0  0  0  0  0  0  0  0  0
  -38.5364   -4.9256    5.6676 C   0  0  0  0  0  0  0  0  0  0  0  0
  -38.5758   -4.6510    4.2990 C   0  0  0  0  0  0  0  0  0  0  0  0
  -38.3167   -5.6536    3.4451 F   0  0  0  0  0  0  0  0  0  0  0  0
  -46.5152   -1.4116   -0.1609 C   0  0  0  0  0  0  0  0  0  0  0  0
  -45.6396   -1.4031   -1.1763 N   0  0  0  0  0  0  0  0  0  0  0  0
  -44.3499   -1.6919   -0.8648 C   0  0  0  0  0  0  0  0  0  0  0  0
  -43.8751   -1.9927    0.4182 C   0  0  0  0  0  0  0  0  0  0  0  0
  -44.8193   -1.9938    1.4677 C   0  0  0  0  0  0  0  0  0  0  0  0
  -46.1606   -1.6948    1.1468 C   0  0  0  0  0  0  0  0  0  0  0  0
  -44.5297   -2.2843    2.9367 C   0  0  0  0  0  0  0  0  0  0  0  0
  -43.3623   -3.2644    3.1476 C   0  0  0  0  0  0  0  0  0  0  0  0
  -43.1722   -3.5827    4.6363 C   0  0  0  0  0  0  0  0  0  0  0  0
  -42.0043   -4.4443    4.8264 N   0  0  0  0  0  0  0  0  0  0  0  0
  -43.0128   -2.3022    5.4636 C   0  0  0  0  0  0  0  0  0  0  0  0
  -44.2035   -1.3524    5.2780 C   0  0  0  0  0  0  0  0  0  0  0  0
  -44.0063   -0.0784    6.0987 C   0  0  0  0  0  0  0  0  0  0  0  0
  -44.4026   -1.0116    3.7934 C   0  0  0  0  0  0  0  0  0  0  0  0
  -41.1673   -3.9585    4.5040 H   0  0  0  0  0  0  0  0  0  0  0  0
  -42.1255   -5.3043    4.2914 H   0  0  0  0  0  0  0  0  0  0  0  0
 20 21  2  0
 21 22  1  0
 22 23  2  0
 23  1  1  0
  1  2  1  0
  2  3  2  0
  2  5  1  0
  5  6  2  0
  6  7  1  0
  7 12  1  0
 12 13  2  0
 13 14  1  0
 13 15  1  0
 15 16  2  0
 16 17  1  0
 17 18  2  0
 18 19  1  0
  7  8  2  0
  8  9  1  0
  8 10  1  0
 10 11  2  0
 23 24  1  0
 26 24  1  0
 26 27  1  0
 27 28  1  0
 28 29  1  0
 28 30  1  0
 30 31  1  0
 31 32  1  0
 31 33  1  0
 24 25  2  0
 25 20  1  0
 11  5  1  0
 33 26  1  0
 18 12  1  0
  1  4  1  0
 29 34  1  0
 29 35  1  0
M  END
> <minimizedAffinity>
-10.31525

> <CNNscore>
0.1892529130

> <CNNaffinity>
7.4134058952

> <CNN_VS>
1.4030086994

> <CNNaffinity_variance>
0.5160705447

$$$$
