


 27 28  0  0  0  0  0  0  0  0999 V2000
   -8.2261   14.4519   22.9784 C   0  0  0  0  0  0  0  0  0  0  0  0
   -7.4199   14.9999   21.7828 C   0  0  0  0  0  0  0  0  0  0  0  0
   -8.1990   15.1355   20.5821 O   0  0  0  0  0  0  0  0  0  0  0  0
   -8.2049   16.5153   20.1683 C   0  0  0  0  0  0  0  0  0  0  0  0
   -7.6897   17.3206   21.3651 C   0  0  0  0  0  0  0  0  0  0  0  0
   -6.7833   16.3519   22.0853 C   0  0  0  0  0  0  0  0  0  0  0  0
   -6.6893   16.6802   23.4660 O   0  0  0  0  0  0  0  0  0  0  0  0
   -6.2820   15.5688   24.2650 C   0  0  0  0  0  0  0  0  0  0  0  0
   -7.2556   14.3699   24.1945 C   0  0  0  0  0  0  0  0  0  0  0  0
   -9.5876   17.0657   19.7914 C   0  0  0  0  0  0  0  0  0  0  0  0
  -10.3400   16.5746   18.9613 O   0  0  0  0  0  0  0  0  0  0  0  0
   -9.9814   18.1190   20.5303 O   0  0  0  0  0  0  0  0  0  0  0  0
   -9.3999   18.4901   21.1644 H   0  0  0  0  0  0  0  0  0  0  0  0
  -10.5720   14.9019   22.4837 C   0  0  0  0  0  0  0  0  0  0  0  0
   -9.4198   15.2780   23.2904 N   0  0  0  0  0  0  0  0  0  0  0  0
   -9.6547   15.1577   24.2757 H   0  0  0  0  0  0  0  0  0  0  0  0
   -7.9820   14.2853   25.4388 O   0  0  0  0  0  0  0  0  0  0  0  0
   -7.5154   13.2469   26.2916 C   0  0  0  0  0  0  0  0  0  0  0  0
   -7.2468   16.6415   18.9568 C   0  0  0  0  0  0  0  0  0  0  0  0
   -6.6722   15.3012   18.4525 C   0  0  0  0  0  0  0  0  0  0  0  0
   -6.9587   14.2259   19.4380 N   0  0  0  0  0  0  0  0  0  0  0  0
   -6.5097   14.4500   20.3260 H   0  0  0  0  0  0  0  0  0  0  0  0
   -6.5965   13.3388   19.0882 H   0  0  0  0  0  0  0  0  0  0  0  0
   -5.1479   15.3813   18.2657 C   0  0  0  0  0  0  0  0  0  0  0  0
   -4.4039   16.2615   18.6675 O   0  0  0  0  0  0  0  0  0  0  0  0
   -4.6427   14.3063   17.6149 O   0  0  0  0  0  0  0  0  0  0  0  0
   -5.2166   13.6323   17.3078 H   0  0  0  0  0  0  0  0  0  0  0  0
 14 15  1  0
  1 15  1  0
  1  2  1  0
  2  3  1  0
  3  4  1  0
  4 19  1  0
 19 20  1  0
 20 21  1  0
 20 24  1  0
 24 25  2  0
 24 26  1  0
  4 10  1  0
 10 11  2  0
 10 12  1  0
  4  5  1  0
  6  5  1  0
  6  7  1  0
  7  8  1  0
  8  9  1  0
  9 17  1  0
 17 18  1  0
  9  1  1  0
  6  2  1  0
 15 16  1  0
 21 22  1  0
 21 23  1  0
 26 27  1  0
 12 13  1  0
M  END
> <minimizedAffinity>
-1.31386

> <CNNscore>
0.5840568542

> <CNNaffinity>
6.1546692848

> <CNN_VS>
3.5946767330

> <CNNaffinity_variance>
0.5541250110

$$$$



 27 28  0  0  0  0  0  0  0  0999 V2000
   -2.4248   10.0649   30.1942 C   0  0  0  0  0  0  0  0  0  0  0  0
   -2.8106   11.2651   29.3053 C   0  0  0  0  0  0  0  0  0  0  0  0
   -4.0591   11.0871   28.6148 O   0  0  0  0  0  0  0  0  0  0  0  0
   -4.9776   12.1237   29.0112 C   0  0  0  0  0  0  0  0  0  0  0  0
   -4.3778   12.7669   30.2653 C   0  0  0  0  0  0  0  0  0  0  0  0
   -2.8913   12.5672   30.0944 C   0  0  0  0  0  0  0  0  0  0  0  0
   -2.2361   12.5504   31.3566 O   0  0  0  0  0  0  0  0  0  0  0  0
   -0.9708   11.8901   31.3063 C   0  0  0  0  0  0  0  0  0  0  0  0
   -1.0659   10.4086   30.8745 C   0  0  0  0  0  0  0  0  0  0  0  0
   -6.3877   11.6300   29.3645 C   0  0  0  0  0  0  0  0  0  0  0  0
   -7.2317   11.2686   28.5562 O   0  0  0  0  0  0  0  0  0  0  0  0
   -6.6200   11.5260   30.6858 O   0  0  0  0  0  0  0  0  0  0  0  0
   -5.9690   11.8049   31.2993 H   0  0  0  0  0  0  0  0  0  0  0  0
   -2.9524    9.7863   32.5594 C   0  0  0  0  0  0  0  0  0  0  0  0
   -3.4683    9.7381   31.1988 N   0  0  0  0  0  0  0  0  0  0  0  0
   -4.2305   10.4104   31.1120 H   0  0  0  0  0  0  0  0  0  0  0  0
   -0.8309    9.5712   32.0264 O   0  0  0  0  0  0  0  0  0  0  0  0
    0.5372    9.5183   32.4119 C   0  0  0  0  0  0  0  0  0  0  0  0
   -5.0597   13.1425   27.8464 C   0  0  0  0  0  0  0  0  0  0  0  0
   -6.1582   12.8388   26.8063 C   0  0  0  0  0  0  0  0  0  0  0  0
   -5.6737   11.8148   25.8439 N   0  0  0  0  0  0  0  0  0  0  0  0
   -4.8574   12.1732   25.3484 H   0  0  0  0  0  0  0  0  0  0  0  0
   -6.4122   11.6020   25.1733 H   0  0  0  0  0  0  0  0  0  0  0  0
   -6.5375   14.0983   26.0097 C   0  0  0  0  0  0  0  0  0  0  0  0
   -5.8267   15.0633   25.7790 O   0  0  0  0  0  0  0  0  0  0  0  0
   -7.7934   14.0409   25.5058 O   0  0  0  0  0  0  0  0  0  0  0  0
   -8.3366   13.2987   25.6847 H   0  0  0  0  0  0  0  0  0  0  0  0
 14 15  1  0
  1 15  1  0
  1  2  1  0
  2  3  1  0
  3  4  1  0
  4 19  1  0
 19 20  1  0
 20 21  1  0
 20 24  1  0
 24 25  2  0
 24 26  1  0
  4 10  1  0
 10 11  2  0
 10 12  1  0
  4  5  1  0
  6  5  1  0
  6  7  1  0
  7  8  1  0
  8  9  1  0
  9 17  1  0
 17 18  1  0
  9  1  1  0
  6  2  1  0
 15 16  1  0
 21 22  1  0
 21 23  1  0
 26 27  1  0
 12 13  1  0
M  END
> <minimizedAffinity>
-4.83244

> <CNNscore>
0.4941987693

> <CNNaffinity>
5.0275478363

> <CNN_VS>
2.4846079350

> <CNNaffinity_variance>
0.0226995889

$$$$



 27 28  0  0  0  0  0  0  0  0999 V2000
  -12.7137   10.2297   27.3127 C   0  0  0  0  0  0  0  0  0  0  0  0
  -11.2065   10.5359   27.4312 C   0  0  0  0  0  0  0  0  0  0  0  0
  -10.7012   10.4099   28.7714 O   0  0  0  0  0  0  0  0  0  0  0  0
   -9.6721    9.4024   28.8024 C   0  0  0  0  0  0  0  0  0  0  0  0
   -9.7926    8.6303   27.4849 C   0  0  0  0  0  0  0  0  0  0  0  0
  -10.3624    9.6465   26.5250 C   0  0  0  0  0  0  0  0  0  0  0  0
  -11.0749    9.0045   25.4748 O   0  0  0  0  0  0  0  0  0  0  0  0
  -12.0216    9.8707   24.8481 C   0  0  0  0  0  0  0  0  0  0  0  0
  -13.1060   10.4003   25.8146 C   0  0  0  0  0  0  0  0  0  0  0  0
   -9.7978    8.3928   29.9521 C   0  0  0  0  0  0  0  0  0  0  0  0
   -9.0061    8.2750   30.8771 O   0  0  0  0  0  0  0  0  0  0  0  0
  -10.9341    7.6723   29.9308 O   0  0  0  0  0  0  0  0  0  0  0  0
  -11.5360    7.7676   29.2191 H   0  0  0  0  0  0  0  0  0  0  0  0
  -14.4870    8.7489   28.0960 C   0  0  0  0  0  0  0  0  0  0  0  0
  -13.0640    8.8771   27.8157 N   0  0  0  0  0  0  0  0  0  0  0  0
  -12.8040    8.1867   27.1113 H   0  0  0  0  0  0  0  0  0  0  0  0
  -14.3548    9.7384   25.5221 O   0  0  0  0  0  0  0  0  0  0  0  0
  -14.3170    8.9728   24.3238 C   0  0  0  0  0  0  0  0  0  0  0  0
   -8.3088   10.1330   28.8983 C   0  0  0  0  0  0  0  0  0  0  0  0
   -7.8359   10.4195   30.3388 C   0  0  0  0  0  0  0  0  0  0  0  0
   -8.7420   11.4074   30.9811 N   0  0  0  0  0  0  0  0  0  0  0  0
   -8.7160   12.2828   30.4581 H   0  0  0  0  0  0  0  0  0  0  0  0
   -8.4373   11.5750   31.9400 H   0  0  0  0  0  0  0  0  0  0  0  0
   -6.4118   10.9997   30.3548 C   0  0  0  0  0  0  0  0  0  0  0  0
   -5.9758   11.8957   29.6499 O   0  0  0  0  0  0  0  0  0  0  0  0
   -5.6278   10.4377   31.3055 O   0  0  0  0  0  0  0  0  0  0  0  0
   -5.9656    9.7500   31.8450 H   0  0  0  0  0  0  0  0  0  0  0  0
 14 15  1  0
  1 15  1  0
  1  2  1  0
  2  3  1  0
  3  4  1  0
  4 19  1  0
 19 20  1  0
 20 21  1  0
 20 24  1  0
 24 25  2  0
 24 26  1  0
  4 10  1  0
 10 11  2  0
 10 12  1  0
  4  5  1  0
  6  5  1  0
  6  7  1  0
  7  8  1  0
  8  9  1  0
  9 17  1  0
 17 18  1  0
  9  1  1  0
  6  2  1  0
 15 16  1  0
 21 22  1  0
 21 23  1  0
 26 27  1  0
 12 13  1  0
M  END
> <minimizedAffinity>
0.29303

> <CNNscore>
0.4655004740

> <CNNaffinity>
4.9459104538

> <CNN_VS>
2.3023235798

> <CNNaffinity_variance>
0.8150334954

$$$$



 27 28  0  0  0  0  0  0  0  0999 V2000
   -9.4359   13.8465   21.3124 C   0  0  0  0  0  0  0  0  0  0  0  0
   -8.6251   15.1565   21.2336 C   0  0  0  0  0  0  0  0  0  0  0  0
   -7.2434   14.9539   20.8917 O   0  0  0  0  0  0  0  0  0  0  0  0
   -6.9469   15.6478   19.6647 C   0  0  0  0  0  0  0  0  0  0  0  0
   -8.2993   16.0092   19.0428 C   0  0  0  0  0  0  0  0  0  0  0  0
   -9.2169   16.1439   20.2339 C   0  0  0  0  0  0  0  0  0  0  0  0
  -10.5664   15.8919   19.8622 O   0  0  0  0  0  0  0  0  0  0  0  0
  -11.3787   15.5182   20.9758 C   0  0  0  0  0  0  0  0  0  0  0  0
  -10.9007   14.2283   21.6815 C   0  0  0  0  0  0  0  0  0  0  0  0
   -6.1614   14.8230   18.6353 C   0  0  0  0  0  0  0  0  0  0  0  0
   -5.2506   15.2478   17.9380 O   0  0  0  0  0  0  0  0  0  0  0  0
   -6.4885   13.5180   18.6098 O   0  0  0  0  0  0  0  0  0  0  0  0
   -7.1874   13.1996   19.1465 H   0  0  0  0  0  0  0  0  0  0  0  0
   -8.7605   11.7587   20.2468 C   0  0  0  0  0  0  0  0  0  0  0  0
   -9.3797   13.0622   20.0528 N   0  0  0  0  0  0  0  0  0  0  0  0
  -10.3296   12.9269   19.7068 H   0  0  0  0  0  0  0  0  0  0  0  0
  -11.8157   13.1577   21.3661 O   0  0  0  0  0  0  0  0  0  0  0  0
  -12.1682   12.3694   22.4964 C   0  0  0  0  0  0  0  0  0  0  0  0
   -6.1441   16.9212   20.0330 C   0  0  0  0  0  0  0  0  0  0  0  0
   -6.5158   17.5404   21.3965 C   0  0  0  0  0  0  0  0  0  0  0  0
   -7.0207   16.4829   22.3110 N   0  0  0  0  0  0  0  0  0  0  0  0
   -7.8607   16.0623   21.9135 H   0  0  0  0  0  0  0  0  0  0  0  0
   -7.2429   16.8947   23.2173 H   0  0  0  0  0  0  0  0  0  0  0  0
   -7.6160   18.6042   21.2462 C   0  0  0  0  0  0  0  0  0  0  0  0
   -8.7787   18.5144   21.6065 O   0  0  0  0  0  0  0  0  0  0  0  0
   -7.1629   19.7506   20.6850 O   0  0  0  0  0  0  0  0  0  0  0  0
   -6.2698   19.8163   20.4095 H   0  0  0  0  0  0  0  0  0  0  0  0
 14 15  1  0
  1 15  1  0
  1  2  1  0
  2  3  1  0
  3  4  1  0
  4 19  1  0
 19 20  1  0
 20 21  1  0
 20 24  1  0
 24 25  2  0
 24 26  1  0
  4 10  1  0
 10 11  2  0
 10 12  1  0
  4  5  1  0
  6  5  1  0
  6  7  1  0
  7  8  1  0
  8  9  1  0
  9 17  1  0
 17 18  1  0
  9  1  1  0
  6  2  1  0
 15 16  1  0
 21 22  1  0
 21 23  1  0
 26 27  1  0
 12 13  1  0
M  END
> <minimizedAffinity>
-5.65608

> <CNNscore>
0.4314254224

> <CNNaffinity>
6.0863842964

> <CNN_VS>
2.6258208752

> <CNNaffinity_variance>
0.6528046727

$$$$



 27 28  0  0  0  0  0  0  0  0999 V2000
   -2.1222    9.8737   30.7768 C   0  0  0  0  0  0  0  0  0  0  0  0
   -3.3044   10.7552   30.3240 C   0  0  0  0  0  0  0  0  0  0  0  0
   -4.5595   10.0547   30.2896 O   0  0  0  0  0  0  0  0  0  0  0  0
   -5.4866   10.6886   31.1917 C   0  0  0  0  0  0  0  0  0  0  0  0
   -4.6502   11.6151   32.0796 C   0  0  0  0  0  0  0  0  0  0  0  0
   -3.4778   11.9876   31.2048 C   0  0  0  0  0  0  0  0  0  0  0  0
   -2.3463   12.3290   31.9959 O   0  0  0  0  0  0  0  0  0  0  0  0
   -1.1190   12.2032   31.2765 C   0  0  0  0  0  0  0  0  0  0  0  0
   -0.8465   10.7681   30.7698 C   0  0  0  0  0  0  0  0  0  0  0  0
   -6.2511    9.7230   32.1082 C   0  0  0  0  0  0  0  0  0  0  0  0
   -5.8062    8.6760   32.5578 O   0  0  0  0  0  0  0  0  0  0  0  0
   -7.4668   10.1633   32.4808 O   0  0  0  0  0  0  0  0  0  0  0  0
   -7.8013   10.9663   32.1324 H   0  0  0  0  0  0  0  0  0  0  0  0
   -1.3245    8.2716   32.4344 C   0  0  0  0  0  0  0  0  0  0  0  0
   -2.3460    9.2566   32.1088 N   0  0  0  0  0  0  0  0  0  0  0  0
   -2.3335    9.9901   32.8175 H   0  0  0  0  0  0  0  0  0  0  0  0
    0.2061   10.1844   31.5664 O   0  0  0  0  0  0  0  0  0  0  0  0
    1.1748   11.1324   31.9979 C   0  0  0  0  0  0  0  0  0  0  0  0
   -6.4920   11.4968   30.3330 C   0  0  0  0  0  0  0  0  0  0  0  0
   -7.7507   10.7103   29.9110 C   0  0  0  0  0  0  0  0  0  0  0  0
   -7.8208   10.6265   28.4286 N   0  0  0  0  0  0  0  0  0  0  0  0
   -7.8876   11.5663   28.0377 H   0  0  0  0  0  0  0  0  0  0  0  0
   -8.6423   10.0862   28.1571 H   0  0  0  0  0  0  0  0  0  0  0  0
   -9.0328   11.3977   30.4097 C   0  0  0  0  0  0  0  0  0  0  0  0
   -9.4330   11.4590   31.5611 O   0  0  0  0  0  0  0  0  0  0  0  0
   -9.7164   12.0149   29.4167 O   0  0  0  0  0  0  0  0  0  0  0  0
   -9.4065   11.9659   28.5338 H   0  0  0  0  0  0  0  0  0  0  0  0
 14 15  1  0
  1 15  1  0
  1  2  1  0
  2  3  1  0
  3  4  1  0
  4 19  1  0
 19 20  1  0
 20 21  1  0
 20 24  1  0
 24 25  2  0
 24 26  1  0
  4 10  1  0
 10 11  2  0
 10 12  1  0
  4  5  1  0
  6  5  1  0
  6  7  1  0
  7  8  1  0
  8  9  1  0
  9 17  1  0
 17 18  1  0
  9  1  1  0
  6  2  1  0
 15 16  1  0
 21 22  1  0
 21 23  1  0
 26 27  1  0
 12 13  1  0
M  END
> <minimizedAffinity>
-1.91981

> <CNNscore>
0.4242176116

> <CNNaffinity>
3.9520225525

> <CNN_VS>
1.6765176058

> <CNNaffinity_variance>
0.1244834885

$$$$



 27 28  0  0  0  0  0  0  0  0999 V2000
   -9.9940   13.2566   21.7784 C   0  0  0  0  0  0  0  0  0  0  0  0
   -8.9023   14.3459   21.7439 C   0  0  0  0  0  0  0  0  0  0  0  0
   -7.6369   13.8718   21.2526 O   0  0  0  0  0  0  0  0  0  0  0  0
   -7.2730   14.6136   20.0727 C   0  0  0  0  0  0  0  0  0  0  0  0
   -8.5415   15.3436   19.6208 C   0  0  0  0  0  0  0  0  0  0  0  0
   -9.3122   15.5494   20.9024 C   0  0  0  0  0  0  0  0  0  0  0  0
  -10.7061   15.6575   20.6412 O   0  0  0  0  0  0  0  0  0  0  0  0
  -11.5016   15.3565   21.7884 C   0  0  0  0  0  0  0  0  0  0  0  0
  -11.2950   13.9199   22.3213 C   0  0  0  0  0  0  0  0  0  0  0  0
   -6.7830   13.7526   18.8998 C   0  0  0  0  0  0  0  0  0  0  0  0
   -6.0664   14.1437   17.9889 O   0  0  0  0  0  0  0  0  0  0  0  0
   -7.1296   12.4553   18.9862 O   0  0  0  0  0  0  0  0  0  0  0  0
   -7.6788   12.1628   19.6867 H   0  0  0  0  0  0  0  0  0  0  0  0
   -9.5277   11.3517   20.3276 C   0  0  0  0  0  0  0  0  0  0  0  0
  -10.2172   12.6281   20.4517 N   0  0  0  0  0  0  0  0  0  0  0  0
  -11.2176   12.4753   20.3243 H   0  0  0  0  0  0  0  0  0  0  0  0
  -12.4591   13.1305   21.9975 O   0  0  0  0  0  0  0  0  0  0  0  0
  -12.6478   12.0242   22.8715 C   0  0  0  0  0  0  0  0  0  0  0  0
   -6.1654   15.6187   20.4786 C   0  0  0  0  0  0  0  0  0  0  0  0
   -5.8187   16.6613   19.3953 C   0  0  0  0  0  0  0  0  0  0  0  0
   -6.9352   16.7668   18.4197 N   0  0  0  0  0  0  0  0  0  0  0  0
   -7.0724   15.8660   17.9613 H   0  0  0  0  0  0  0  0  0  0  0  0
   -6.7094   17.4736   17.7197 H   0  0  0  0  0  0  0  0  0  0  0  0
   -4.5488   16.2647   18.6238 C   0  0  0  0  0  0  0  0  0  0  0  0
   -4.4918   15.7390   17.5238 O   0  0  0  0  0  0  0  0  0  0  0  0
   -3.4118   16.6040   19.2768 O   0  0  0  0  0  0  0  0  0  0  0  0
   -3.4590   17.0075   20.1212 H   0  0  0  0  0  0  0  0  0  0  0  0
 14 15  1  0
  1 15  1  0
  1  2  1  0
  2  3  1  0
  3  4  1  0
  4 19  1  0
 19 20  1  0
 20 21  1  0
 20 24  1  0
 24 25  2  0
 24 26  1  0
  4 10  1  0
 10 11  2  0
 10 12  1  0
  4  5  1  0
  6  5  1  0
  6  7  1  0
  7  8  1  0
  8  9  1  0
  9 17  1  0
 17 18  1  0
  9  1  1  0
  6  2  1  0
 15 16  1  0
 21 22  1  0
 21 23  1  0
 26 27  1  0
 12 13  1  0
M  END
> <minimizedAffinity>
-2.32364

> <CNNscore>
0.3802287877

> <CNNaffinity>
6.0959835052

> <CNN_VS>
2.3178684711

> <CNNaffinity_variance>
0.2958810031

$$$$



 27 28  0  0  0  0  0  0  0  0999 V2000
  -15.9972    8.3667   29.0898 C   0  0  0  0  0  0  0  0  0  0  0  0
  -17.1808    7.4108   29.3444 C   0  0  0  0  0  0  0  0  0  0  0  0
  -17.7801    7.5756   30.6409 O   0  0  0  0  0  0  0  0  0  0  0  0
  -19.1640    7.9441   30.4855 C   0  0  0  0  0  0  0  0  0  0  0  0
  -19.3312    8.3618   29.0213 C   0  0  0  0  0  0  0  0  0  0  0  0
  -18.2789    7.5577   28.2969 C   0  0  0  0  0  0  0  0  0  0  0  0
  -17.8846    8.2088   27.0955 O   0  0  0  0  0  0  0  0  0  0  0  0
  -16.5973    7.7873   26.6431 C   0  0  0  0  0  0  0  0  0  0  0  0
  -15.4644    8.0744   27.6552 C   0  0  0  0  0  0  0  0  0  0  0  0
  -19.6173    9.1186   31.3642 C   0  0  0  0  0  0  0  0  0  0  0  0
  -20.5255    9.8922   31.0940 O   0  0  0  0  0  0  0  0  0  0  0  0
  -18.9865    9.1948   32.5503 O   0  0  0  0  0  0  0  0  0  0  0  0
  -18.2916    8.5989   32.7505 H   0  0  0  0  0  0  0  0  0  0  0  0
  -17.7694    9.9569   29.6199 C   0  0  0  0  0  0  0  0  0  0  0  0
  -16.3705    9.7949   29.2504 N   0  0  0  0  0  0  0  0  0  0  0  0
  -15.7879   10.2072   29.9791 H   0  0  0  0  0  0  0  0  0  0  0  0
  -14.6641    9.1692   27.1611 O   0  0  0  0  0  0  0  0  0  0  0  0
  -14.0446    8.8920   25.9110 C   0  0  0  0  0  0  0  0  0  0  0  0
  -20.0178    6.6921   30.8096 C   0  0  0  0  0  0  0  0  0  0  0  0
  -19.3790    5.7286   31.8316 C   0  0  0  0  0  0  0  0  0  0  0  0
  -18.2823    6.4188   32.5598 N   0  0  0  0  0  0  0  0  0  0  0  0
  -17.5607    6.7033   31.8974 H   0  0  0  0  0  0  0  0  0  0  0  0
  -17.8798    5.7839   33.2493 H   0  0  0  0  0  0  0  0  0  0  0  0
  -18.7846    4.4915   31.1379 C   0  0  0  0  0  0  0  0  0  0  0  0
  -17.6047    4.2678   30.9197 O   0  0  0  0  0  0  0  0  0  0  0  0
  -19.7254    3.5778   30.7997 O   0  0  0  0  0  0  0  0  0  0  0  0
  -20.6304    3.7527   30.9686 H   0  0  0  0  0  0  0  0  0  0  0  0
 14 15  1  0
  1 15  1  0
  1  2  1  0
  2  3  1  0
  3  4  1  0
  4 19  1  0
 19 20  1  0
 20 21  1  0
 20 24  1  0
 24 25  2  0
 24 26  1  0
  4 10  1  0
 10 11  2  0
 10 12  1  0
  4  5  1  0
  6  5  1  0
  6  7  1  0
  7  8  1  0
  8  9  1  0
  9 17  1  0
 17 18  1  0
  9  1  1  0
  6  2  1  0
 15 16  1  0
 21 22  1  0
 21 23  1  0
 26 27  1  0
 12 13  1  0
M  END
> <minimizedAffinity>
-3.41807

> <CNNscore>
0.3646363020

> <CNNaffinity>
4.2404570580

> <CNN_VS>
1.5462245941

> <CNNaffinity_variance>
0.7472009063

$$$$



 27 28  0  0  0  0  0  0  0  0999 V2000
   -4.3032   25.1588   10.0682 C   0  0  0  0  0  0  0  0  0  0  0  0
   -3.8546   24.1928   11.1841 C   0  0  0  0  0  0  0  0  0  0  0  0
   -4.9430   23.4764   11.7918 O   0  0  0  0  0  0  0  0  0  0  0  0
   -4.7483   22.0613   11.6054 C   0  0  0  0  0  0  0  0  0  0  0  0
   -3.6650   21.9187   10.5318 C   0  0  0  0  0  0  0  0  0  0  0  0
   -2.8367   23.1708   10.6900 C   0  0  0  0  0  0  0  0  0  0  0  0
   -2.1890   23.5049    9.4687 O   0  0  0  0  0  0  0  0  0  0  0  0
   -1.8198   24.8830    9.4057 C   0  0  0  0  0  0  0  0  0  0  0  0
   -3.0232   25.8483    9.5083 C   0  0  0  0  0  0  0  0  0  0  0  0
   -5.9917   21.3012   11.1225 C   0  0  0  0  0  0  0  0  0  0  0  0
   -6.6306   21.5632   10.1128 O   0  0  0  0  0  0  0  0  0  0  0  0
   -6.2979   20.2197   11.8621 O   0  0  0  0  0  0  0  0  0  0  0  0
   -5.8042   20.0251   12.6344 H   0  0  0  0  0  0  0  0  0  0  0  0
   -6.4507   24.9254    8.9348 C   0  0  0  0  0  0  0  0  0  0  0  0
   -5.0670   24.4760    8.9934 N   0  0  0  0  0  0  0  0  0  0  0  0
   -4.6198   24.6705    8.0975 H   0  0  0  0  0  0  0  0  0  0  0  0
   -3.2672   26.4291    8.2098 O   0  0  0  0  0  0  0  0  0  0  0  0
   -2.4647   27.5739    7.9473 C   0  0  0  0  0  0  0  0  0  0  0  0
   -4.2731   21.4750   12.9589 C   0  0  0  0  0  0  0  0  0  0  0  0
   -2.8745   21.9491   13.4063 C   0  0  0  0  0  0  0  0  0  0  0  0
   -1.9089   21.8028   12.2858 N   0  0  0  0  0  0  0  0  0  0  0  0
   -1.8416   20.8200   12.0211 H   0  0  0  0  0  0  0  0  0  0  0  0
   -0.9922   22.1390   12.5808 H   0  0  0  0  0  0  0  0  0  0  0  0
   -2.3559   21.1191   14.5925 C   0  0  0  0  0  0  0  0  0  0  0  0
   -2.9295   20.9103   15.6494 O   0  0  0  0  0  0  0  0  0  0  0  0
   -1.1480   20.5566   14.3499 O   0  0  0  0  0  0  0  0  0  0  0  0
   -0.7102   20.7189   13.5375 H   0  0  0  0  0  0  0  0  0  0  0  0
 14 15  1  0
  1 15  1  0
  1  2  1  0
  2  3  1  0
  3  4  1  0
  4 19  1  0
 19 20  1  0
 20 21  1  0
 20 24  1  0
 24 25  2  0
 24 26  1  0
  4 10  1  0
 10 11  2  0
 10 12  1  0
  4  5  1  0
  6  5  1  0
  6  7  1  0
  7  8  1  0
  8  9  1  0
  9 17  1  0
 17 18  1  0
  9  1  1  0
  6  2  1  0
 15 16  1  0
 21 22  1  0
 21 23  1  0
 26 27  1  0
 12 13  1  0
M  END
> <minimizedAffinity>
-2.77516

> <CNNscore>
0.3411100507

> <CNNaffinity>
3.5195248127

> <CNN_VS>
1.2005453110

> <CNNaffinity_variance>
0.4339153767

$$$$



 27 28  0  0  0  0  0  0  0  0999 V2000
  -18.3215    5.9374   29.2554 C   0  0  0  0  0  0  0  0  0  0  0  0
  -16.8579    6.3857   29.0644 C   0  0  0  0  0  0  0  0  0  0  0  0
  -16.6096    6.9981   27.7874 O   0  0  0  0  0  0  0  0  0  0  0  0
  -16.1456    8.3474   27.9855 C   0  0  0  0  0  0  0  0  0  0  0  0
  -16.4532    8.6931   29.4457 C   0  0  0  0  0  0  0  0  0  0  0  0
  -16.4044    7.3577   30.1480 C   0  0  0  0  0  0  0  0  0  0  0  0
  -17.2096    7.3744   31.3202 O   0  0  0  0  0  0  0  0  0  0  0  0
  -17.5987    6.0641   31.7341 C   0  0  0  0  0  0  0  0  0  0  0  0
  -18.4323    5.3060   30.6754 C   0  0  0  0  0  0  0  0  0  0  0  0
  -16.8305    9.3975   27.0994 C   0  0  0  0  0  0  0  0  0  0  0  0
  -17.7214   10.1533   27.4617 O   0  0  0  0  0  0  0  0  0  0  0  0
  -16.3037    9.5057   25.8660 O   0  0  0  0  0  0  0  0  0  0  0  0
  -15.6215    8.9233   25.5952 H   0  0  0  0  0  0  0  0  0  0  0  0
  -20.1660    6.8367   27.9364 C   0  0  0  0  0  0  0  0  0  0  0  0
  -19.2885    7.0503   29.0784 N   0  0  0  0  0  0  0  0  0  0  0  0
  -19.8581    7.1282   29.9209 H   0  0  0  0  0  0  0  0  0  0  0  0
  -19.8053    5.2485   31.1167 O   0  0  0  0  0  0  0  0  0  0  0  0
  -20.3369    6.5214   31.4640 C   0  0  0  0  0  0  0  0  0  0  0  0
  -14.6189    8.3579   27.7193 C   0  0  0  0  0  0  0  0  0  0  0  0
  -14.2106    8.9570   26.3573 C   0  0  0  0  0  0  0  0  0  0  0  0
  -14.2670    7.9075   25.3062 N   0  0  0  0  0  0  0  0  0  0  0  0
  -13.6101    7.1616   25.5349 H   0  0  0  0  0  0  0  0  0  0  0  0
  -14.0183    8.3152   24.4049 H   0  0  0  0  0  0  0  0  0  0  0  0
  -12.7773    9.5127   26.3981 C   0  0  0  0  0  0  0  0  0  0  0  0
  -12.2055   10.1352   25.5176 O   0  0  0  0  0  0  0  0  0  0  0  0
  -12.1612    9.2863   27.5828 O   0  0  0  0  0  0  0  0  0  0  0  0
  -12.6029    8.8080   28.2567 H   0  0  0  0  0  0  0  0  0  0  0  0
 14 15  1  0
  1 15  1  0
  1  2  1  0
  2  3  1  0
  3  4  1  0
  4 19  1  0
 19 20  1  0
 20 21  1  0
 20 24  1  0
 24 25  2  0
 24 26  1  0
  4 10  1  0
 10 11  2  0
 10 12  1  0
  4  5  1  0
  6  5  1  0
  6  7  1  0
  7  8  1  0
  8  9  1  0
  9 17  1  0
 17 18  1  0
  9  1  1  0
  6  2  1  0
 15 16  1  0
 21 22  1  0
 21 23  1  0
 26 27  1  0
 12 13  1  0
M  END
> <minimizedAffinity>
0.04211

> <CNNscore>
0.3305689096

> <CNNaffinity>
4.0786652565

> <CNN_VS>
1.3482799530

> <CNNaffinity_variance>
0.1423430443

$$$$
