


 36 38  0  0  0  0  0  0  0  0999 V2000
   35.9285   -2.4260  -10.4910 C   0  0  0  0  0  0  0  0  0  0  0  0
   36.9729   -2.5457   -9.6521 C   0  0  0  0  0  0  0  0  0  0  0  0
   37.1017   -0.5496  -12.8133 C   0  0  0  0  0  0  0  0  0  0  0  0
   37.4138   -2.0120  -12.5046 C   0  0  0  0  0  0  0  0  0  0  0  0
   36.0562   -2.5186  -11.9868 C   0  0  0  0  0  0  0  0  0  0  0  0
   35.0277   -1.6942  -12.5630 O   0  0  0  0  0  0  0  0  0  0  0  0
   35.6707   -0.6737  -13.3533 C   0  0  0  0  0  0  0  0  0  0  0  0
   34.9409    0.6163  -13.2640 N   0  0  0  0  0  0  0  0  0  0  0  0
   35.2500    1.5188  -12.2477 C   0  0  0  0  0  0  0  0  0  0  0  0
   34.6431    2.6985  -12.0669 C   0  0  0  0  0  0  0  0  0  0  0  0
   33.5582    3.0689  -13.0053 C   0  0  0  0  0  0  0  0  0  0  0  0
   32.9495    4.1261  -12.8908 O   0  0  0  0  0  0  0  0  0  0  0  0
   33.2300    2.1079  -14.0858 C   0  0  0  0  0  0  0  0  0  0  0  0
   33.9248    0.9654  -14.1477 C   0  0  0  0  0  0  0  0  0  0  0  0
   39.3369   -0.3616  -13.5930 C   0  0  0  0  0  0  0  0  0  0  0  0
   37.9916    0.0693  -13.7483 O   0  0  0  0  0  0  0  0  0  0  0  0
   37.7820   -2.6993  -13.7171 O   0  0  0  0  0  0  0  0  0  0  0  0
   38.9403   -3.5111  -13.5554 C   0  0  0  0  0  0  0  0  0  0  0  0
   36.9599   -2.4075   -8.1614 C   0  0  0  0  0  0  0  0  0  0  0  0
   36.6483   -3.6562   -7.5142 N   0  0  0  0  0  0  0  0  0  0  0  0
   37.5550   -4.3093   -6.7119 C   0  0  0  0  0  0  0  0  0  0  0  0
   38.6172   -3.8087   -6.3545 O   0  0  0  0  0  0  0  0  0  0  0  0
   35.7584   -4.0547   -7.6503 H   0  0  0  0  0  0  0  0  0  0  0  0
   37.2177   -5.7038   -6.2853 C   0  0  0  0  0  0  0  0  0  0  0  0
   38.1476   -6.3652   -5.4616 C   0  0  0  0  0  0  0  0  0  0  0  0
   37.9243   -7.6942   -5.0676 C   0  0  0  0  0  0  0  0  0  0  0  0
   36.7818   -8.3876   -5.4868 C   0  0  0  0  0  0  0  0  0  0  0  0
   35.8680   -7.7283   -6.2968 C   0  0  0  0  0  0  0  0  0  0  0  0
   34.7383   -8.3513   -6.7563 O   0  0  0  0  0  0  0  0  0  0  0  0
   36.0716   -6.3994   -6.6900 C   0  0  0  0  0  0  0  0  0  0  0  0
   35.1175   -5.8307   -7.4971 O   0  0  0  0  0  0  0  0  0  0  0  0
   34.5634   -9.2402   -6.5173 H   0  0  0  0  0  0  0  0  0  0  0  0
   34.3622   -6.3247   -7.7493 H   0  0  0  0  0  0  0  0  0  0  0  0
   38.9058   -8.3746   -4.2121 N   0  0  0  0  0  0  0  0  0  0  0  0
   38.5590   -9.4249   -3.6557 O   0  0  0  0  0  0  0  0  0  0  0  0
   40.0254   -7.8558   -4.1068 O   0  0  0  0  0  0  0  0  0  0  0  0
 15 16  1  0
  3 16  1  0
  3  4  1  0
  4 17  1  0
 17 18  1  0
  4  5  1  0
  5  1  1  0
  1  2  2  0
  2 19  1  0
 19 20  1  0
 20 21  1  0
 21 22  2  0
 21 24  1  0
 24 25  2  0
 25 26  1  0
 26 34  1  0
 34 35  2  0
 34 36  1  0
 26 27  2  0
 27 28  1  0
 28 29  1  0
 28 30  2  0
 30 31  1  0
  5  6  1  0
  6  7  1  0
  7  8  1  0
  8  9  1  0
  9 10  2  0
 10 11  1  0
 11 12  2  0
 11 13  1  0
 13 14  2  0
  7  3  1  0
 14  8  1  0
 30 24  1  0
 20 23  1  0
 29 32  1  0
 31 33  1  0
M  CHG 1  34   1
M  CHG 1  36  -1
M  END
> <minimizedAffinity>
-10.26577

> <CNNscore>
0.9659900069

> <CNNaffinity>
6.8644256592

> <CNN_VS>
6.6309666634

> <CNNaffinity_variance>
0.5288357139

$$$$



 36 38  0  0  0  0  0  0  0  0999 V2000
   35.8894   -2.8726  -10.3862 C   0  0  0  0  0  0  0  0  0  0  0  0
   36.8724   -2.7795   -9.4730 C   0  0  0  0  0  0  0  0  0  0  0  0
   37.2358   -0.8765  -12.5059 C   0  0  0  0  0  0  0  0  0  0  0  0
   37.5311   -2.3522  -12.2480 C   0  0  0  0  0  0  0  0  0  0  0  0
   36.1391   -2.8878  -11.8694 C   0  0  0  0  0  0  0  0  0  0  0  0
   35.1558   -2.0371  -12.4847 O   0  0  0  0  0  0  0  0  0  0  0  0
   35.8544   -0.9759  -13.1667 C   0  0  0  0  0  0  0  0  0  0  0  0
   35.1115    0.3062  -13.0714 N   0  0  0  0  0  0  0  0  0  0  0  0
   34.1116    0.5987  -13.9975 C   0  0  0  0  0  0  0  0  0  0  0  0
   33.3950    1.7296  -14.0120 C   0  0  0  0  0  0  0  0  0  0  0  0
   33.6910    2.7490  -12.9787 C   0  0  0  0  0  0  0  0  0  0  0  0
   33.0850    3.8133  -12.9410 O   0  0  0  0  0  0  0  0  0  0  0  0
   34.7552    2.4370  -11.9944 C   0  0  0  0  0  0  0  0  0  0  0  0
   35.3872    1.2617  -12.0986 C   0  0  0  0  0  0  0  0  0  0  0  0
   37.9242   -0.3598  -14.7192 C   0  0  0  0  0  0  0  0  0  0  0  0
   38.1949   -0.2083  -13.3323 O   0  0  0  0  0  0  0  0  0  0  0  0
   38.0013   -2.9754  -13.4599 O   0  0  0  0  0  0  0  0  0  0  0  0
   39.3008   -3.5388  -13.3166 C   0  0  0  0  0  0  0  0  0  0  0  0
   36.7241   -2.6939   -7.9857 C   0  0  0  0  0  0  0  0  0  0  0  0
   37.2446   -3.8667   -7.3309 N   0  0  0  0  0  0  0  0  0  0  0  0
   36.5186   -5.0309   -7.2321 C   0  0  0  0  0  0  0  0  0  0  0  0
   35.4612   -5.2148   -7.8276 O   0  0  0  0  0  0  0  0  0  0  0  0
   38.1484   -3.8339   -6.9418 H   0  0  0  0  0  0  0  0  0  0  0  0
   37.0529   -6.1013   -6.3325 C   0  0  0  0  0  0  0  0  0  0  0  0
   38.3738   -5.9510   -5.8708 C   0  0  0  0  0  0  0  0  0  0  0  0
   38.9602   -6.9429   -5.0685 C   0  0  0  0  0  0  0  0  0  0  0  0
   38.2502   -8.0978   -4.7167 C   0  0  0  0  0  0  0  0  0  0  0  0
   36.9472   -8.2382   -5.1734 C   0  0  0  0  0  0  0  0  0  0  0  0
   36.2017   -9.3490   -4.8811 O   0  0  0  0  0  0  0  0  0  0  0  0
   36.3450   -7.2528   -5.9662 C   0  0  0  0  0  0  0  0  0  0  0  0
   35.0548   -7.4803   -6.3772 O   0  0  0  0  0  0  0  0  0  0  0  0
   36.5661  -10.0324   -4.3537 H   0  0  0  0  0  0  0  0  0  0  0  0
   34.6100   -8.2617   -6.1137 H   0  0  0  0  0  0  0  0  0  0  0  0
   40.3418   -6.7759   -4.5978 N   0  0  0  0  0  0  0  0  0  0  0  0
   40.6552   -5.6876   -4.0974 O   0  0  0  0  0  0  0  0  0  0  0  0
   41.1070   -7.7412   -4.7254 O   0  0  0  0  0  0  0  0  0  0  0  0
 15 16  1  0
  3 16  1  0
  3  4  1  0
  4 17  1  0
 17 18  1  0
  4  5  1  0
  5  1  1  0
  1  2  2  0
  2 19  1  0
 19 20  1  0
 20 21  1  0
 21 22  2  0
 21 24  1  0
 24 25  2  0
 25 26  1  0
 26 34  1  0
 34 35  2  0
 34 36  1  0
 26 27  2  0
 27 28  1  0
 28 29  1  0
 28 30  2  0
 30 31  1  0
  5  6  1  0
  6  7  1  0
  7  8  1  0
  8  9  1  0
  9 10  2  0
 10 11  1  0
 11 12  2  0
 11 13  1  0
 13 14  2  0
  7  3  1  0
 14  8  1  0
 30 24  1  0
 20 23  1  0
 29 32  1  0
 31 33  1  0
M  CHG 1  34   1
M  CHG 1  36  -1
M  END
> <minimizedAffinity>
-9.11479

> <CNNscore>
0.8751778603

> <CNNaffinity>
6.5590667725

> <CNN_VS>
5.7403502464

> <CNNaffinity_variance>
0.5356011987

$$$$



 36 38  0  0  0  0  0  0  0  0999 V2000
   36.6968   -1.9034  -10.2087 C   0  0  0  0  0  0  0  0  0  0  0  0
   37.6288   -2.6436   -9.5822 C   0  0  0  0  0  0  0  0  0  0  0  0
   38.4122   -2.9301  -12.7174 C   0  0  0  0  0  0  0  0  0  0  0  0
   36.9422   -3.1783  -12.3874 C   0  0  0  0  0  0  0  0  0  0  0  0
   36.5479   -1.8568  -11.7047 C   0  0  0  0  0  0  0  0  0  0  0  0
   37.4229   -0.8267  -12.1970 O   0  0  0  0  0  0  0  0  0  0  0  0
   38.3705   -1.4427  -13.0925 C   0  0  0  0  0  0  0  0  0  0  0  0
   39.7103   -0.8136  -12.9748 N   0  0  0  0  0  0  0  0  0  0  0  0
   40.1904   -0.0067  -14.0051 C   0  0  0  0  0  0  0  0  0  0  0  0
   41.3877    0.5926  -14.0075 C   0  0  0  0  0  0  0  0  0  0  0  0
   42.2717    0.3759  -12.8387 C   0  0  0  0  0  0  0  0  0  0  0  0
   43.3865    0.8810  -12.7801 O   0  0  0  0  0  0  0  0  0  0  0  0
   41.7602   -0.4829  -11.7435 C   0  0  0  0  0  0  0  0  0  0  0  0
   40.5387   -1.0143  -11.8754 C   0  0  0  0  0  0  0  0  0  0  0  0
   40.2786   -4.1539  -13.5287 C   0  0  0  0  0  0  0  0  0  0  0  0
   38.9377   -3.7486  -13.7678 O   0  0  0  0  0  0  0  0  0  0  0  0
   36.1926   -3.3630  -13.6048 O   0  0  0  0  0  0  0  0  0  0  0  0
   34.8514   -2.8981  -13.4971 C   0  0  0  0  0  0  0  0  0  0  0  0
   37.8972   -2.7091   -8.1108 C   0  0  0  0  0  0  0  0  0  0  0  0
   37.3936   -3.9282   -7.5319 N   0  0  0  0  0  0  0  0  0  0  0  0
   37.9216   -4.4622   -6.3795 C   0  0  0  0  0  0  0  0  0  0  0  0
   38.7323   -3.8681   -5.6748 O   0  0  0  0  0  0  0  0  0  0  0  0
   36.6479   -4.3939   -7.9751 H   0  0  0  0  0  0  0  0  0  0  0  0
   37.4882   -5.8435   -5.9990 C   0  0  0  0  0  0  0  0  0  0  0  0
   38.3624   -6.5890   -5.1863 C   0  0  0  0  0  0  0  0  0  0  0  0
   38.0475   -7.9115   -4.8353 C   0  0  0  0  0  0  0  0  0  0  0  0
   36.8671   -8.5152   -5.2872 C   0  0  0  0  0  0  0  0  0  0  0  0
   36.0086   -7.7732   -6.0862 C   0  0  0  0  0  0  0  0  0  0  0  0
   34.8463   -8.3063   -6.5761 O   0  0  0  0  0  0  0  0  0  0  0  0
   36.3040   -6.4496   -6.4366 C   0  0  0  0  0  0  0  0  0  0  0  0
   35.3993   -5.7954   -7.2359 O   0  0  0  0  0  0  0  0  0  0  0  0
   34.6104   -9.1885   -6.3661 H   0  0  0  0  0  0  0  0  0  0  0  0
   34.6164   -6.2307   -7.5108 H   0  0  0  0  0  0  0  0  0  0  0  0
   38.9715   -8.6803   -3.9907 N   0  0  0  0  0  0  0  0  0  0  0  0
   40.1651   -8.3514   -3.9905 O   0  0  0  0  0  0  0  0  0  0  0  0
   38.4944   -9.6084   -3.3238 O   0  0  0  0  0  0  0  0  0  0  0  0
 15 16  1  0
  3 16  1  0
  3  4  1  0
  4 17  1  0
 17 18  1  0
  4  5  1  0
  5  1  1  0
  1  2  2  0
  2 19  1  0
 19 20  1  0
 20 21  1  0
 21 22  2  0
 21 24  1  0
 24 25  2  0
 25 26  1  0
 26 34  1  0
 34 35  2  0
 34 36  1  0
 26 27  2  0
 27 28  1  0
 28 29  1  0
 28 30  2  0
 30 31  1  0
  5  6  1  0
  6  7  1  0
  7  8  1  0
  8  9  1  0
  9 10  2  0
 10 11  1  0
 11 12  2  0
 11 13  1  0
 13 14  2  0
  7  3  1  0
 14  8  1  0
 30 24  1  0
 20 23  1  0
 29 32  1  0
 31 33  1  0
M  CHG 1  34   1
M  CHG 1  36  -1
M  END
> <minimizedAffinity>
-7.12841

> <CNNscore>
0.5654560328

> <CNNaffinity>
5.8985524178

> <CNN_VS>
3.3353719711

> <CNNaffinity_variance>
0.5962180495

$$$$



 36 38  0  0  0  0  0  0  0  0999 V2000
   36.8291   -2.7495   -9.0844 C   0  0  0  0  0  0  0  0  0  0  0  0
   36.4559   -1.8472  -10.0093 C   0  0  0  0  0  0  0  0  0  0  0  0
   39.2679   -3.8410   -7.3091 C   0  0  0  0  0  0  0  0  0  0  0  0
   38.9924   -2.4222   -7.8016 C   0  0  0  0  0  0  0  0  0  0  0  0
   37.4547   -2.3734   -7.7693 C   0  0  0  0  0  0  0  0  0  0  0  0
   37.0029   -3.3211   -6.7859 O   0  0  0  0  0  0  0  0  0  0  0  0
   38.1627   -3.9941   -6.2555 C   0  0  0  0  0  0  0  0  0  0  0  0
   37.8740   -5.4229   -5.9728 N   0  0  0  0  0  0  0  0  0  0  0  0
   36.6370   -5.9625   -6.3215 C   0  0  0  0  0  0  0  0  0  0  0  0
   36.2691   -7.2302   -6.0970 C   0  0  0  0  0  0  0  0  0  0  0  0
   37.2391   -8.1220   -5.4200 C   0  0  0  0  0  0  0  0  0  0  0  0
   36.9644   -9.2895   -5.1693 O   0  0  0  0  0  0  0  0  0  0  0  0
   38.5545   -7.5469   -5.0491 C   0  0  0  0  0  0  0  0  0  0  0  0
   38.7866   -6.2612   -5.3404 C   0  0  0  0  0  0  0  0  0  0  0  0
   40.6683   -3.6737   -5.3985 C   0  0  0  0  0  0  0  0  0  0  0  0
   40.5773   -4.0443   -6.7675 O   0  0  0  0  0  0  0  0  0  0  0  0
   39.5491   -1.4672   -6.8764 O   0  0  0  0  0  0  0  0  0  0  0  0
   40.6281   -0.7270   -7.4376 C   0  0  0  0  0  0  0  0  0  0  0  0
   35.8860   -2.1214  -11.3663 C   0  0  0  0  0  0  0  0  0  0  0  0
   35.1225   -1.0032  -11.8583 N   0  0  0  0  0  0  0  0  0  0  0  0
   35.7143    0.0585  -12.5023 C   0  0  0  0  0  0  0  0  0  0  0  0
   36.8909    0.0599  -12.8519 O   0  0  0  0  0  0  0  0  0  0  0  0
   34.1465   -0.9989  -11.7297 H   0  0  0  0  0  0  0  0  0  0  0  0
   34.8686    1.2667  -12.7583 C   0  0  0  0  0  0  0  0  0  0  0  0
   34.8875    2.2812  -11.7831 C   0  0  0  0  0  0  0  0  0  0  0  0
   34.0771    3.4185  -11.9292 C   0  0  0  0  0  0  0  0  0  0  0  0
   33.2344    3.5648  -13.0384 C   0  0  0  0  0  0  0  0  0  0  0  0
   33.2228    2.5616  -13.9973 C   0  0  0  0  0  0  0  0  0  0  0  0
   32.4110    2.6323  -15.0979 O   0  0  0  0  0  0  0  0  0  0  0  0
   34.0328    1.4259  -13.8707 C   0  0  0  0  0  0  0  0  0  0  0  0
   33.9504    0.4825  -14.8648 O   0  0  0  0  0  0  0  0  0  0  0  0
   31.8529    3.3748  -15.2215 H   0  0  0  0  0  0  0  0  0  0  0  0
   33.3807    0.6207  -15.5958 H   0  0  0  0  0  0  0  0  0  0  0  0
   34.1025    4.4675  -10.9012 N   0  0  0  0  0  0  0  0  0  0  0  0
   33.7968    5.6182  -11.2408 O   0  0  0  0  0  0  0  0  0  0  0  0
   34.4225    4.1314   -9.7530 O   0  0  0  0  0  0  0  0  0  0  0  0
 15 16  1  0
  3 16  1  0
  3  4  1  0
  4 17  1  0
 17 18  1  0
  4  5  1  0
  5  1  1  0
  1  2  2  0
  2 19  1  0
 19 20  1  0
 20 21  1  0
 21 22  2  0
 21 24  1  0
 24 25  2  0
 25 26  1  0
 26 34  1  0
 34 35  2  0
 34 36  1  0
 26 27  2  0
 27 28  1  0
 28 29  1  0
 28 30  2  0
 30 31  1  0
  5  6  1  0
  6  7  1  0
  7  8  1  0
  8  9  1  0
  9 10  2  0
 10 11  1  0
 11 12  2  0
 11 13  1  0
 13 14  2  0
  7  3  1  0
 14  8  1  0
 30 24  1  0
 20 23  1  0
 29 32  1  0
 31 33  1  0
M  CHG 1  34   1
M  CHG 1  36  -1
M  END
> <minimizedAffinity>
-8.12310

> <CNNscore>
0.5534214377

> <CNNaffinity>
6.2756686211

> <CNN_VS>
3.4730894566

> <CNNaffinity_variance>
0.1501501501

$$$$



 36 38  0  0  0  0  0  0  0  0999 V2000
   36.4862   -2.9045  -11.0456 C   0  0  0  0  0  0  0  0  0  0  0  0
   36.7887   -2.8493   -9.7363 C   0  0  0  0  0  0  0  0  0  0  0  0
   39.3774   -3.6388  -12.2256 C   0  0  0  0  0  0  0  0  0  0  0  0
   38.0531   -3.4535  -12.9628 C   0  0  0  0  0  0  0  0  0  0  0  0
   37.3794   -2.3539  -12.1233 C   0  0  0  0  0  0  0  0  0  0  0  0
   38.4159   -1.5905  -11.4812 O   0  0  0  0  0  0  0  0  0  0  0  0
   39.6821   -2.1896  -11.8233 C   0  0  0  0  0  0  0  0  0  0  0  0
   40.6320   -2.1290  -10.6837 N   0  0  0  0  0  0  0  0  0  0  0  0
   41.7399   -1.2855  -10.7485 C   0  0  0  0  0  0  0  0  0  0  0  0
   42.6641   -1.1678   -9.7870 C   0  0  0  0  0  0  0  0  0  0  0  0
   42.5070   -2.0000   -8.5714 C   0  0  0  0  0  0  0  0  0  0  0  0
   43.3226   -1.9548   -7.6581 O   0  0  0  0  0  0  0  0  0  0  0  0
   41.3285   -2.8972   -8.5037 C   0  0  0  0  0  0  0  0  0  0  0  0
   40.4822   -2.9078   -9.5408 C   0  0  0  0  0  0  0  0  0  0  0  0
   41.1157   -5.2541  -12.3158 C   0  0  0  0  0  0  0  0  0  0  0  0
   40.4229   -4.2246  -13.0085 O   0  0  0  0  0  0  0  0  0  0  0  0
   38.3017   -2.9865  -14.3037 O   0  0  0  0  0  0  0  0  0  0  0  0
   37.9853   -1.6084  -14.4703 C   0  0  0  0  0  0  0  0  0  0  0  0
   35.9433   -3.3094   -8.5895 C   0  0  0  0  0  0  0  0  0  0  0  0
   36.5801   -4.3699   -7.8512 N   0  0  0  0  0  0  0  0  0  0  0  0
   35.9339   -5.5497   -7.5634 C   0  0  0  0  0  0  0  0  0  0  0  0
   34.8476   -5.8549   -8.0466 O   0  0  0  0  0  0  0  0  0  0  0  0
   37.5069   -4.2465   -7.5430 H   0  0  0  0  0  0  0  0  0  0  0  0
   36.5966   -6.4793   -6.5954 C   0  0  0  0  0  0  0  0  0  0  0  0
   37.8998   -6.1496   -6.1791 C   0  0  0  0  0  0  0  0  0  0  0  0
   38.6042   -7.0037   -5.3155 C   0  0  0  0  0  0  0  0  0  0  0  0
   38.0312   -8.1965   -4.8566 C   0  0  0  0  0  0  0  0  0  0  0  0
   36.7448   -8.5140   -5.2692 C   0  0  0  0  0  0  0  0  0  0  0  0
   36.1307   -9.6719   -4.8723 O   0  0  0  0  0  0  0  0  0  0  0  0
   36.0255   -7.6674   -6.1224 C   0  0  0  0  0  0  0  0  0  0  0  0
   34.7621   -8.0661   -6.4830 O   0  0  0  0  0  0  0  0  0  0  0  0
   36.5763  -10.2667   -4.3016 H   0  0  0  0  0  0  0  0  0  0  0  0
   34.4102   -8.8673   -6.1480 H   0  0  0  0  0  0  0  0  0  0  0  0
   39.9661   -6.6501   -4.8929 N   0  0  0  0  0  0  0  0  0  0  0  0
   40.1384   -5.5458   -4.3603 O   0  0  0  0  0  0  0  0  0  0  0  0
   40.8582   -7.4860   -5.0906 O   0  0  0  0  0  0  0  0  0  0  0  0
 15 16  1  0
  3 16  1  0
  3  4  1  0
  4 17  1  0
 17 18  1  0
  4  5  1  0
  5  1  1  0
  1  2  2  0
  2 19  1  0
 19 20  1  0
 20 21  1  0
 21 22  2  0
 21 24  1  0
 24 25  2  0
 25 26  1  0
 26 34  1  0
 34 35  2  0
 34 36  1  0
 26 27  2  0
 27 28  1  0
 28 29  1  0
 28 30  2  0
 30 31  1  0
  5  6  1  0
  6  7  1  0
  7  8  1  0
  8  9  1  0
  9 10  2  0
 10 11  1  0
 11 12  2  0
 11 13  1  0
 13 14  2  0
  7  3  1  0
 14  8  1  0
 30 24  1  0
 20 23  1  0
 29 32  1  0
 31 33  1  0
M  CHG 1  34   1
M  CHG 1  36  -1
M  END
> <minimizedAffinity>
-6.37670

> <CNNscore>
0.4565353692

> <CNNaffinity>
5.6883406639

> <CNN_VS>
2.5969285965

> <CNNaffinity_variance>
0.0688185319

$$$$



 36 38  0  0  0  0  0  0  0  0999 V2000
   35.9575   -2.2457  -10.4011 C   0  0  0  0  0  0  0  0  0  0  0  0
   36.9597   -2.6561   -9.6037 C   0  0  0  0  0  0  0  0  0  0  0  0
   36.9699   -0.5397  -12.9220 C   0  0  0  0  0  0  0  0  0  0  0  0
   37.2807   -1.9874  -12.5494 C   0  0  0  0  0  0  0  0  0  0  0  0
   35.9612   -2.4313  -11.8938 C   0  0  0  0  0  0  0  0  0  0  0  0
   34.9037   -1.6204  -12.4355 O   0  0  0  0  0  0  0  0  0  0  0  0
   35.4977   -0.6642  -13.3367 C   0  0  0  0  0  0  0  0  0  0  0  0
   34.8003    0.6449  -13.2692 N   0  0  0  0  0  0  0  0  0  0  0  0
   35.1734    1.5806  -12.3058 C   0  0  0  0  0  0  0  0  0  0  0  0
   34.6004    2.7803  -12.1479 C   0  0  0  0  0  0  0  0  0  0  0  0
   33.4829    3.1372  -13.0526 C   0  0  0  0  0  0  0  0  0  0  0  0
   32.9024    4.2119  -12.9556 O   0  0  0  0  0  0  0  0  0  0  0  0
   33.0864    2.1410  -14.0768 C   0  0  0  0  0  0  0  0  0  0  0  0
   33.7533    0.9812  -14.1214 C   0  0  0  0  0  0  0  0  0  0  0  0
   39.1797   -0.1456  -13.6972 C   0  0  0  0  0  0  0  0  0  0  0  0
   37.7913    0.0016  -13.9621 O   0  0  0  0  0  0  0  0  0  0  0  0
   37.5368   -2.7548  -13.7425 O   0  0  0  0  0  0  0  0  0  0  0  0
   38.6076   -3.6786  -13.5792 C   0  0  0  0  0  0  0  0  0  0  0  0
   37.0787   -2.4636   -8.1238 C   0  0  0  0  0  0  0  0  0  0  0  0
   37.3652   -3.7028   -7.4475 N   0  0  0  0  0  0  0  0  0  0  0  0
   38.1171   -3.7500   -6.2966 C   0  0  0  0  0  0  0  0  0  0  0  0
   38.4540   -2.7474   -5.6737 O   0  0  0  0  0  0  0  0  0  0  0  0
   37.0118   -4.5425   -7.8209 H   0  0  0  0  0  0  0  0  0  0  0  0
   38.5513   -5.0982   -5.8125 C   0  0  0  0  0  0  0  0  0  0  0  0
   37.5687   -6.1035   -5.7477 C   0  0  0  0  0  0  0  0  0  0  0  0
   37.8906   -7.3769   -5.2513 C   0  0  0  0  0  0  0  0  0  0  0  0
   39.1864   -7.6708   -4.8082 C   0  0  0  0  0  0  0  0  0  0  0  0
   40.1509   -6.6754   -4.8774 C   0  0  0  0  0  0  0  0  0  0  0  0
   41.4330   -6.8892   -4.4462 O   0  0  0  0  0  0  0  0  0  0  0  0
   39.8477   -5.4033   -5.3794 C   0  0  0  0  0  0  0  0  0  0  0  0
   40.8636   -4.4800   -5.4039 O   0  0  0  0  0  0  0  0  0  0  0  0
   41.6784   -7.7258   -4.1030 H   0  0  0  0  0  0  0  0  0  0  0  0
   41.7198   -4.7175   -5.1066 H   0  0  0  0  0  0  0  0  0  0  0  0
   36.8540   -8.4156   -5.1841 N   0  0  0  0  0  0  0  0  0  0  0  0
   37.1271   -9.4685   -4.5926 O   0  0  0  0  0  0  0  0  0  0  0  0
   35.7650   -8.1681   -5.7195 O   0  0  0  0  0  0  0  0  0  0  0  0
 15 16  1  0
  3 16  1  0
  3  4  1  0
  4 17  1  0
 17 18  1  0
  4  5  1  0
  5  1  1  0
  1  2  2  0
  2 19  1  0
 19 20  1  0
 20 21  1  0
 21 22  2  0
 21 24  1  0
 24 25  2  0
 25 26  1  0
 26 34  1  0
 34 35  2  0
 34 36  1  0
 26 27  2  0
 27 28  1  0
 28 29  1  0
 28 30  2  0
 30 31  1  0
  5  6  1  0
  6  7  1  0
  7  8  1  0
  8  9  1  0
  9 10  2  0
 10 11  1  0
 11 12  2  0
 11 13  1  0
 13 14  2  0
  7  3  1  0
 14  8  1  0
 30 24  1  0
 20 23  1  0
 29 32  1  0
 31 33  1  0
M  CHG 1  34   1
M  CHG 1  36  -1
M  END
> <minimizedAffinity>
-8.98833

> <CNNscore>
0.4362415075

> <CNNaffinity>
6.0179677010

> <CNN_VS>
2.6252872944

> <CNNaffinity_variance>
0.4606339931

$$$$



 36 38  0  0  0  0  0  0  0  0999 V2000
   40.8303   -2.9190   -9.0788 C   0  0  0  0  0  0  0  0  0  0  0  0
   39.5497   -2.6074   -8.8105 C   0  0  0  0  0  0  0  0  0  0  0  0
   40.4332   -1.2570  -11.7937 C   0  0  0  0  0  0  0  0  0  0  0  0
   41.7237   -1.6042  -11.0550 C   0  0  0  0  0  0  0  0  0  0  0  0
   41.3881   -2.9890  -10.4739 C   0  0  0  0  0  0  0  0  0  0  0  0
   40.3861   -3.5896  -11.3133 O   0  0  0  0  0  0  0  0  0  0  0  0
   40.0393   -2.6365  -12.3383 C   0  0  0  0  0  0  0  0  0  0  0  0
   38.5923   -2.7000  -12.6655 N   0  0  0  0  0  0  0  0  0  0  0  0
   38.1875   -2.8826  -13.9867 C   0  0  0  0  0  0  0  0  0  0  0  0
   36.9124   -2.9371  -14.3914 C   0  0  0  0  0  0  0  0  0  0  0  0
   35.8544   -2.7815  -13.3662 C   0  0  0  0  0  0  0  0  0  0  0  0
   34.6668   -2.8059  -13.6668 O   0  0  0  0  0  0  0  0  0  0  0  0
   36.2861   -2.5869  -11.9611 C   0  0  0  0  0  0  0  0  0  0  0  0
   37.5990   -2.5576  -11.7019 C   0  0  0  0  0  0  0  0  0  0  0  0
   41.0124   -0.8398  -14.0586 C   0  0  0  0  0  0  0  0  0  0  0  0
   40.5787   -0.2776  -12.8275 O   0  0  0  0  0  0  0  0  0  0  0  0
   42.8135   -1.6993  -11.9938 O   0  0  0  0  0  0  0  0  0  0  0  0
   43.7961   -2.6498  -11.5966 C   0  0  0  0  0  0  0  0  0  0  0  0
   38.8863   -2.5726   -7.4688 C   0  0  0  0  0  0  0  0  0  0  0  0
   38.2454   -3.8252   -7.1598 N   0  0  0  0  0  0  0  0  0  0  0  0
   38.1976   -4.3248   -5.8791 C   0  0  0  0  0  0  0  0  0  0  0  0
   38.5402   -3.6784   -4.8934 O   0  0  0  0  0  0  0  0  0  0  0  0
   37.8284   -4.3398   -7.8881 H   0  0  0  0  0  0  0  0  0  0  0  0
   37.7224   -5.7337   -5.7068 C   0  0  0  0  0  0  0  0  0  0  0  0
   38.5171   -6.5870   -4.9189 C   0  0  0  0  0  0  0  0  0  0  0  0
   38.1629   -7.9361   -4.7586 C   0  0  0  0  0  0  0  0  0  0  0  0
   37.0216   -8.4598   -5.3790 C   0  0  0  0  0  0  0  0  0  0  0  0
   36.2412   -7.6120   -6.1525 C   0  0  0  0  0  0  0  0  0  0  0  0
   35.1216   -8.0615   -6.8004 O   0  0  0  0  0  0  0  0  0  0  0  0
   36.5759   -6.2615   -6.3137 C   0  0  0  0  0  0  0  0  0  0  0  0
   35.7489   -5.5000   -7.1019 O   0  0  0  0  0  0  0  0  0  0  0  0
   34.8617   -8.9581   -6.7196 H   0  0  0  0  0  0  0  0  0  0  0  0
   34.9894   -5.8849   -7.4931 H   0  0  0  0  0  0  0  0  0  0  0  0
   39.0044   -8.8172   -3.9378 N   0  0  0  0  0  0  0  0  0  0  0  0
   38.5066   -9.8731   -3.5251 O   0  0  0  0  0  0  0  0  0  0  0  0
   40.1660   -8.4497   -3.7159 O   0  0  0  0  0  0  0  0  0  0  0  0
 15 16  1  0
  3 16  1  0
  3  4  1  0
  4 17  1  0
 17 18  1  0
  4  5  1  0
  5  1  1  0
  1  2  2  0
  2 19  1  0
 19 20  1  0
 20 21  1  0
 21 22  2  0
 21 24  1  0
 24 25  2  0
 25 26  1  0
 26 34  1  0
 34 35  2  0
 34 36  1  0
 26 27  2  0
 27 28  1  0
 28 29  1  0
 28 30  2  0
 30 31  1  0
  5  6  1  0
  6  7  1  0
  7  8  1  0
  8  9  1  0
  9 10  2  0
 10 11  1  0
 11 12  2  0
 11 13  1  0
 13 14  2  0
  7  3  1  0
 14  8  1  0
 30 24  1  0
 20 23  1  0
 29 32  1  0
 31 33  1  0
M  CHG 1  34   1
M  CHG 1  36  -1
M  END
> <minimizedAffinity>
-7.28670

> <CNNscore>
0.3627103865

> <CNNaffinity>
5.3798861504

> <CNN_VS>
1.9513405561

> <CNNaffinity_variance>
0.6178473830

$$$$



 36 38  0  0  0  0  0  0  0  0999 V2000
   37.5553   -3.1527  -12.8913 C   0  0  0  0  0  0  0  0  0  0  0  0
   36.6860   -2.3732  -12.2239 C   0  0  0  0  0  0  0  0  0  0  0  0
   40.5318   -4.2596  -12.4375 C   0  0  0  0  0  0  0  0  0  0  0  0
   39.8369   -3.8659  -13.7388 C   0  0  0  0  0  0  0  0  0  0  0  0
   38.9392   -2.7054  -13.2748 C   0  0  0  0  0  0  0  0  0  0  0  0
   39.5445   -2.1167  -12.1102 O   0  0  0  0  0  0  0  0  0  0  0  0
   40.7251   -2.8810  -11.7918 C   0  0  0  0  0  0  0  0  0  0  0  0
   40.9169   -2.9893  -10.3234 N   0  0  0  0  0  0  0  0  0  0  0  0
   42.1056   -3.5112   -9.8160 C   0  0  0  0  0  0  0  0  0  0  0  0
   42.3733   -3.6678   -8.5135 C   0  0  0  0  0  0  0  0  0  0  0  0
   41.3297   -3.2694   -7.5405 C   0  0  0  0  0  0  0  0  0  0  0  0
   41.5003   -3.3986   -6.3340 O   0  0  0  0  0  0  0  0  0  0  0  0
   40.0654   -2.7148   -8.0813 C   0  0  0  0  0  0  0  0  0  0  0  0
   39.9381   -2.6116   -9.4098 C   0  0  0  0  0  0  0  0  0  0  0  0
   41.6559   -6.3455  -12.2795 C   0  0  0  0  0  0  0  0  0  0  0  0
   41.7650   -4.9667  -12.6061 O   0  0  0  0  0  0  0  0  0  0  0  0
   40.8129   -3.4014  -14.6926 O   0  0  0  0  0  0  0  0  0  0  0  0
   41.9938   -2.9070  -14.0700 C   0  0  0  0  0  0  0  0  0  0  0  0
   35.2731   -2.7011  -11.8528 C   0  0  0  0  0  0  0  0  0  0  0  0
   35.2128   -3.5783  -10.7116 N   0  0  0  0  0  0  0  0  0  0  0  0
   35.8382   -3.2761   -9.5243 C   0  0  0  0  0  0  0  0  0  0  0  0
   36.3440   -2.1822   -9.2918 O   0  0  0  0  0  0  0  0  0  0  0  0
   34.7081   -4.4204  -10.7838 H   0  0  0  0  0  0  0  0  0  0  0  0
   35.9118   -4.3561   -8.4905 C   0  0  0  0  0  0  0  0  0  0  0  0
   36.8782   -4.2100   -7.4780 C   0  0  0  0  0  0  0  0  0  0  0  0
   37.0420   -5.2103   -6.5064 C   0  0  0  0  0  0  0  0  0  0  0  0
   36.2561   -6.3695   -6.5264 C   0  0  0  0  0  0  0  0  0  0  0  0
   35.3034   -6.5057   -7.5263 C   0  0  0  0  0  0  0  0  0  0  0  0
   34.5126   -7.6202   -7.6150 O   0  0  0  0  0  0  0  0  0  0  0  0
   35.1212   -5.5121   -8.4966 C   0  0  0  0  0  0  0  0  0  0  0  0
   34.1597   -5.7358   -9.4508 O   0  0  0  0  0  0  0  0  0  0  0  0
   34.6018   -8.3091   -6.9862 H   0  0  0  0  0  0  0  0  0  0  0  0
   33.6481   -6.5204   -9.4254 H   0  0  0  0  0  0  0  0  0  0  0  0
   38.0583   -5.0476   -5.4581 N   0  0  0  0  0  0  0  0  0  0  0  0
   38.8235   -5.9966   -5.2416 O   0  0  0  0  0  0  0  0  0  0  0  0
   38.0901   -3.9638   -4.8597 O   0  0  0  0  0  0  0  0  0  0  0  0
 15 16  1  0
  3 16  1  0
  3  4  1  0
  4 17  1  0
 17 18  1  0
  4  5  1  0
  5  1  1  0
  1  2  2  0
  2 19  1  0
 19 20  1  0
 20 21  1  0
 21 22  2  0
 21 24  1  0
 24 25  2  0
 25 26  1  0
 26 34  1  0
 34 35  2  0
 34 36  1  0
 26 27  2  0
 27 28  1  0
 28 29  1  0
 28 30  2  0
 30 31  1  0
  5  6  1  0
  6  7  1  0
  7  8  1  0
  8  9  1  0
  9 10  2  0
 10 11  1  0
 11 12  2  0
 11 13  1  0
 13 14  2  0
  7  3  1  0
 14  8  1  0
 30 24  1  0
 20 23  1  0
 29 32  1  0
 31 33  1  0
M  CHG 1  34   1
M  CHG 1  36  -1
M  END
> <minimizedAffinity>
-6.86253

> <CNNscore>
0.3597980738

> <CNNaffinity>
5.6749782562

> <CNN_VS>
2.0418462753

> <CNNaffinity_variance>
0.3934164047

$$$$



 36 38  0  0  0  0  0  0  0  0999 V2000
   40.3900   -2.5927   -5.1099 C   0  0  0  0  0  0  0  0  0  0  0  0
   39.5209   -1.8778   -5.8465 C   0  0  0  0  0  0  0  0  0  0  0  0
   43.2602   -3.1969   -3.8108 C   0  0  0  0  0  0  0  0  0  0  0  0
   42.7063   -1.8836   -4.3585 C   0  0  0  0  0  0  0  0  0  0  0  0
   41.2144   -2.0002   -4.0000 C   0  0  0  0  0  0  0  0  0  0  0  0
   41.1002   -2.8712   -2.8608 O   0  0  0  0  0  0  0  0  0  0  0  0
   42.4217   -3.3469   -2.5344 C   0  0  0  0  0  0  0  0  0  0  0  0
   42.3868   -4.7562   -2.0681 N   0  0  0  0  0  0  0  0  0  0  0  0
   41.4790   -5.1380   -1.0817 C   0  0  0  0  0  0  0  0  0  0  0  0
   41.3763   -6.3749   -0.5795 C   0  0  0  0  0  0  0  0  0  0  0  0
   42.2991   -7.4108   -1.0990 C   0  0  0  0  0  0  0  0  0  0  0  0
   42.2715   -8.5600   -0.6746 O   0  0  0  0  0  0  0  0  0  0  0  0
   43.2647   -7.0035   -2.1480 C   0  0  0  0  0  0  0  0  0  0  0  0
   43.2510   -5.7297   -2.5589 C   0  0  0  0  0  0  0  0  0  0  0  0
   45.4472   -3.1761   -4.7360 C   0  0  0  0  0  0  0  0  0  0  0  0
   44.6674   -3.1912   -3.5480 O   0  0  0  0  0  0  0  0  0  0  0  0
   43.3086   -0.7725   -3.6653 O   0  0  0  0  0  0  0  0  0  0  0  0
   43.5802    0.3276   -4.5272 C   0  0  0  0  0  0  0  0  0  0  0  0
   38.7051   -2.3577   -7.0065 C   0  0  0  0  0  0  0  0  0  0  0  0
   38.3063   -3.7324   -6.8437 N   0  0  0  0  0  0  0  0  0  0  0  0
   37.0716   -4.1871   -7.2451 C   0  0  0  0  0  0  0  0  0  0  0  0
   36.2928   -3.5130   -7.9126 O   0  0  0  0  0  0  0  0  0  0  0  0
   38.9372   -4.3663   -6.4323 H   0  0  0  0  0  0  0  0  0  0  0  0
   36.6726   -5.5647   -6.8167 C   0  0  0  0  0  0  0  0  0  0  0  0
   37.5340   -6.2349   -5.9282 C   0  0  0  0  0  0  0  0  0  0  0  0
   37.2524   -7.5505   -5.5267 C   0  0  0  0  0  0  0  0  0  0  0  0
   36.1187   -8.2217   -6.0020 C   0  0  0  0  0  0  0  0  0  0  0  0
   35.2724   -7.5538   -6.8758 C   0  0  0  0  0  0  0  0  0  0  0  0
   34.1558   -8.1557   -7.3918 O   0  0  0  0  0  0  0  0  0  0  0  0
   35.5344   -6.2378   -7.2778 C   0  0  0  0  0  0  0  0  0  0  0  0
   34.6453   -5.6593   -8.1496 O   0  0  0  0  0  0  0  0  0  0  0  0
   33.9434   -9.0355   -7.1493 H   0  0  0  0  0  0  0  0  0  0  0  0
   33.8934   -6.1381   -8.4384 H   0  0  0  0  0  0  0  0  0  0  0  0
   38.1629   -8.2404   -4.6030 N   0  0  0  0  0  0  0  0  0  0  0  0
   39.3422   -7.8652   -4.5647 O   0  0  0  0  0  0  0  0  0  0  0  0
   37.6892   -9.1531   -3.9127 O   0  0  0  0  0  0  0  0  0  0  0  0
 15 16  1  0
  3 16  1  0
  3  4  1  0
  4 17  1  0
 17 18  1  0
  4  5  1  0
  5  1  1  0
  1  2  2  0
  2 19  1  0
 19 20  1  0
 20 21  1  0
 21 22  2  0
 21 24  1  0
 24 25  2  0
 25 26  1  0
 26 34  1  0
 34 35  2  0
 34 36  1  0
 26 27  2  0
 27 28  1  0
 28 29  1  0
 28 30  2  0
 30 31  1  0
  5  6  1  0
  6  7  1  0
  7  8  1  0
  8  9  1  0
  9 10  2  0
 10 11  1  0
 11 12  2  0
 11 13  1  0
 13 14  2  0
  7  3  1  0
 14  8  1  0
 30 24  1  0
 20 23  1  0
 29 32  1  0
 31 33  1  0
M  CHG 1  34   1
M  CHG 1  36  -1
M  END
> <minimizedAffinity>
-5.66761

> <CNNscore>
0.3522385657

> <CNNaffinity>
5.7832870483

> <CNN_VS>
2.0370967388

> <CNNaffinity_variance>
0.0562584586

$$$$
