


 22 22  0  0  0  0  0  0  0  0999 V2000
   17.0436   66.8189   17.7986 C   0  0  0  0  0  0  0  0  0  0  0  0
   16.3229   67.6342   16.7938 N   0  0  0  0  0  0  0  0  0  0  0  0
   15.9634   68.4798   17.2366 H   0  0  0  0  0  0  0  0  0  0  0  0
   15.5465   67.0942   16.4115 H   0  0  0  0  0  0  0  0  0  0  0  0
   16.0437   66.4175   18.9124 C   0  0  0  0  0  0  0  0  0  0  0  0
   15.8460   64.8866   19.1949 C   0  0  0  0  0  0  0  0  0  0  0  0
   16.5803   64.1255   18.0698 C   0  0  0  0  0  0  0  0  0  0  0  0
   16.5209   64.5357   20.5361 C   0  0  0  0  0  0  0  0  0  0  0  0
   14.3363   64.5251   19.2008 C   0  0  0  0  0  0  0  0  0  0  0  0
   13.5320   62.1186   18.7203 C   0  0  0  0  0  0  0  0  0  0  0  0
   13.7958   63.5125   18.1802 C   0  0  0  0  0  0  0  0  0  0  0  0
   18.2471   67.6361   18.3436 C   0  0  0  0  0  0  0  0  0  0  0  0
   17.8384   68.7247   19.2405 N   0  0  0  0  0  0  0  0  0  0  0  0
   17.3684   69.9102   18.7064 C   0  0  0  0  0  0  0  0  0  0  0  0
   17.0352   70.9416   19.4808 C   0  0  0  0  0  0  0  0  0  0  0  0
   16.5775   72.1036   18.9802 F   0  0  0  0  0  0  0  0  0  0  0  0
   17.1707   70.8305   20.9452 C   0  0  0  0  0  0  0  0  0  0  0  0
   16.8763   71.7421   21.7101 O   0  0  0  0  0  0  0  0  0  0  0  0
   17.6534   69.6276   21.3910 N   0  0  0  0  0  0  0  0  0  0  0  0
   18.0205   68.5594   20.6105 C   0  0  0  0  0  0  0  0  0  0  0  0
   18.4733   67.5406   21.1271 O   0  0  0  0  0  0  0  0  0  0  0  0
   17.7458   69.5191   22.3652 H   0  0  0  0  0  0  0  0  0  0  0  0
 10 11  1  0
 11  9  1  0
  9  6  1  0
  6  7  1  0
  6  8  1  0
  6  5  1  0
  5  1  1  0
  1  2  1  0
  1 12  1  0
 12 13  1  0
 13 14  1  0
 14 15  2  0
 15 16  1  0
 15 17  1  0
 17 18  2  0
 17 19  1  0
 19 20  1  0
 20 21  2  0
 20 13  1  0
  2  3  1  0
  2  4  1  0
 19 22  1  0
M  END
> <minimizedAffinity>
-4.86580

> <CNNscore>
0.2685285509

> <CNNaffinity>
4.7767548561

> <CNN_VS>
1.2826950550

> <CNNaffinity_variance>
0.2056552023

$$$$



 22 22  0  0  0  0  0  0  0  0999 V2000
   17.3354   68.7996   17.9748 C   0  0  0  0  0  0  0  0  0  0  0  0
   17.4853   69.1471   16.5429 N   0  0  0  0  0  0  0  0  0  0  0  0
   18.4438   69.4464   16.3642 H   0  0  0  0  0  0  0  0  0  0  0  0
   16.8433   69.9041   16.3078 H   0  0  0  0  0  0  0  0  0  0  0  0
   17.6335   70.0640   18.8197 C   0  0  0  0  0  0  0  0  0  0  0  0
   16.7471   70.3153   20.0901 C   0  0  0  0  0  0  0  0  0  0  0  0
   15.3948   69.6141   19.8379 C   0  0  0  0  0  0  0  0  0  0  0  0
   17.4184   69.6472   21.3068 C   0  0  0  0  0  0  0  0  0  0  0  0
   16.5375   71.8370   20.3147 C   0  0  0  0  0  0  0  0  0  0  0  0
   16.4384   73.0761   22.5782 C   0  0  0  0  0  0  0  0  0  0  0  0
   17.2979   72.5479   21.4440 C   0  0  0  0  0  0  0  0  0  0  0  0
   18.2879   67.6193   18.3109 C   0  0  0  0  0  0  0  0  0  0  0  0
   17.6257   66.5497   19.0686 N   0  0  0  0  0  0  0  0  0  0  0  0
   16.3187   66.2103   18.7717 C   0  0  0  0  0  0  0  0  0  0  0  0
   15.6629   65.2822   19.4668 C   0  0  0  0  0  0  0  0  0  0  0  0
   14.3908   64.9391   19.1944 F   0  0  0  0  0  0  0  0  0  0  0  0
   16.3348   64.5959   20.5860 C   0  0  0  0  0  0  0  0  0  0  0  0
   15.7864   63.7307   21.2594 O   0  0  0  0  0  0  0  0  0  0  0  0
   17.6239   64.9986   20.8204 N   0  0  0  0  0  0  0  0  0  0  0  0
   18.3117   65.9653   20.1294 C   0  0  0  0  0  0  0  0  0  0  0  0
   19.4581   66.2639   20.4562 O   0  0  0  0  0  0  0  0  0  0  0  0
   18.1028   64.5516   21.5552 H   0  0  0  0  0  0  0  0  0  0  0  0
 10 11  1  0
 11  9  1  0
  9  6  1  0
  6  7  1  0
  6  8  1  0
  6  5  1  0
  5  1  1  0
  1  2  1  0
  1 12  1  0
 12 13  1  0
 13 14  1  0
 14 15  2  0
 15 16  1  0
 15 17  1  0
 17 18  2  0
 17 19  1  0
 19 20  1  0
 20 21  2  0
 20 13  1  0
  2  3  1  0
  2  4  1  0
 19 22  1  0
M  END
> <minimizedAffinity>
-4.85329

> <CNNscore>
0.2346794307

> <CNNaffinity>
3.6646153927

> <CNN_VS>
0.8600098491

> <CNNaffinity_variance>
1.0170507431

$$$$



 22 22  0  0  0  0  0  0  0  0999 V2000
   17.7088   69.4401   20.7909 C   0  0  0  0  0  0  0  0  0  0  0  0
   17.2681   68.7387   22.0186 N   0  0  0  0  0  0  0  0  0  0  0  0
   16.4490   68.1682   21.8089 H   0  0  0  0  0  0  0  0  0  0  0  0
   17.0303   69.4246   22.7352 H   0  0  0  0  0  0  0  0  0  0  0  0
   16.5598   70.3649   20.3157 C   0  0  0  0  0  0  0  0  0  0  0  0
   16.8531   71.9043   20.2312 C   0  0  0  0  0  0  0  0  0  0  0  0
   18.3721   72.0826   20.4430 C   0  0  0  0  0  0  0  0  0  0  0  0
   16.5008   72.4022   18.8151 C   0  0  0  0  0  0  0  0  0  0  0  0
   16.0580   72.6702   21.3226 C   0  0  0  0  0  0  0  0  0  0  0  0
   16.4277   73.2500   23.8118 C   0  0  0  0  0  0  0  0  0  0  0  0
   16.8152   73.5045   22.3663 C   0  0  0  0  0  0  0  0  0  0  0  0
   18.1070   68.3858   19.7216 C   0  0  0  0  0  0  0  0  0  0  0  0
   17.3731   67.1219   19.8655 N   0  0  0  0  0  0  0  0  0  0  0  0
   16.1042   67.0037   19.3293 C   0  0  0  0  0  0  0  0  0  0  0  0
   15.3828   65.8941   19.4802 C   0  0  0  0  0  0  0  0  0  0  0  0
   14.1460   65.7602   18.9674 F   0  0  0  0  0  0  0  0  0  0  0  0
   15.9380   64.7584   20.2398 C   0  0  0  0  0  0  0  0  0  0  0  0
   15.3254   63.7101   20.4091 O   0  0  0  0  0  0  0  0  0  0  0  0
   17.1953   64.9617   20.7465 N   0  0  0  0  0  0  0  0  0  0  0  0
   17.9481   66.1029   20.6192 C   0  0  0  0  0  0  0  0  0  0  0  0
   19.0542   66.1782   21.1492 O   0  0  0  0  0  0  0  0  0  0  0  0
   17.5974   64.2176   21.2503 H   0  0  0  0  0  0  0  0  0  0  0  0
 10 11  1  0
 11  9  1  0
  9  6  1  0
  6  7  1  0
  6  8  1  0
  6  5  1  0
  5  1  1  0
  1  2  1  0
  1 12  1  0
 12 13  1  0
 13 14  1  0
 14 15  2  0
 15 16  1  0
 15 17  1  0
 17 18  2  0
 17 19  1  0
 19 20  1  0
 20 21  2  0
 20 13  1  0
  2  3  1  0
  2  4  1  0
 19 22  1  0
M  END
> <minimizedAffinity>
-4.93802

> <CNNscore>
0.2069156319

> <CNNaffinity>
4.1483378410

> <CNN_VS>
0.8583559394

> <CNNaffinity_variance>
0.5378750563

$$$$



 22 22  0  0  0  0  0  0  0  0999 V2000
   12.3241   57.0984   19.3606 C   0  0  0  0  0  0  0  0  0  0  0  0
   12.4449   57.6642   17.9972 N   0  0  0  0  0  0  0  0  0  0  0  0
   13.3997   57.9906   17.8479 H   0  0  0  0  0  0  0  0  0  0  0  0
   11.7983   58.4465   17.8953 H   0  0  0  0  0  0  0  0  0  0  0  0
   12.6394   58.2174   20.3852 C   0  0  0  0  0  0  0  0  0  0  0  0
   11.7174   59.4873   20.3819 C   0  0  0  0  0  0  0  0  0  0  0  0
   12.2902   60.4532   19.3222 C   0  0  0  0  0  0  0  0  0  0  0  0
   10.2991   59.0727   19.9415 C   0  0  0  0  0  0  0  0  0  0  0  0
   11.7101   60.1578   21.7820 C   0  0  0  0  0  0  0  0  0  0  0  0
   13.1731   62.0172   22.8169 C   0  0  0  0  0  0  0  0  0  0  0  0
   13.0406   60.5528   22.4397 C   0  0  0  0  0  0  0  0  0  0  0  0
   13.2831   55.8832   19.4904 C   0  0  0  0  0  0  0  0  0  0  0  0
   13.1404   55.1779   20.7706 N   0  0  0  0  0  0  0  0  0  0  0  0
   11.9150   54.6434   21.1235 C   0  0  0  0  0  0  0  0  0  0  0  0
   11.7276   54.0407   22.2965 C   0  0  0  0  0  0  0  0  0  0  0  0
   10.5429   53.5158   22.6588 F   0  0  0  0  0  0  0  0  0  0  0  0
   12.8454   53.9387   23.2533 C   0  0  0  0  0  0  0  0  0  0  0  0
   12.7367   53.3924   24.3453 O   0  0  0  0  0  0  0  0  0  0  0  0
   14.0208   54.5031   22.8306 N   0  0  0  0  0  0  0  0  0  0  0  0
   14.2306   55.1450   21.6352 C   0  0  0  0  0  0  0  0  0  0  0  0
   15.3255   55.6422   21.3822 O   0  0  0  0  0  0  0  0  0  0  0  0
   14.7889   54.4423   23.4435 H   0  0  0  0  0  0  0  0  0  0  0  0
 10 11  1  0
 11  9  1  0
  9  6  1  0
  6  7  1  0
  6  8  1  0
  6  5  1  0
  5  1  1  0
  1  2  1  0
  1 12  1  0
 12 13  1  0
 13 14  1  0
 14 15  2  0
 15 16  1  0
 15 17  1  0
 17 18  2  0
 17 19  1  0
 19 20  1  0
 20 21  2  0
 20 13  1  0
  2  3  1  0
  2  4  1  0
 19 22  1  0
M  END
> <minimizedAffinity>
-5.66545

> <CNNscore>
0.2058349252

> <CNNaffinity>
4.0867724419

> <CNN_VS>
0.8412004709

> <CNNaffinity_variance>
1.0247088671

$$$$



 22 22  0  0  0  0  0  0  0  0999 V2000
   12.0900   57.5236   19.0868 C   0  0  0  0  0  0  0  0  0  0  0  0
   12.3737   58.2155   17.8084 N   0  0  0  0  0  0  0  0  0  0  0  0
   13.3446   58.5281   17.7991 H   0  0  0  0  0  0  0  0  0  0  0  0
   11.7561   59.0217   17.7137 H   0  0  0  0  0  0  0  0  0  0  0  0
   12.3060   58.5287   20.2463 C   0  0  0  0  0  0  0  0  0  0  0  0
   11.6051   59.9284   20.1355 C   0  0  0  0  0  0  0  0  0  0  0  0
   11.2226   60.3521   21.5702 C   0  0  0  0  0  0  0  0  0  0  0  0
   12.6182   60.9512   19.5834 C   0  0  0  0  0  0  0  0  0  0  0  0
   10.3401   59.8339   19.2406 C   0  0  0  0  0  0  0  0  0  0  0  0
    8.0042   60.9002   18.9663 C   0  0  0  0  0  0  0  0  0  0  0  0
    8.9587   60.1169   19.8493 C   0  0  0  0  0  0  0  0  0  0  0  0
   13.0075   56.2753   19.2006 C   0  0  0  0  0  0  0  0  0  0  0  0
   12.3782   55.1695   19.9339 N   0  0  0  0  0  0  0  0  0  0  0  0
   12.6105   55.0288   21.2896 C   0  0  0  0  0  0  0  0  0  0  0  0
   12.1018   54.0119   21.9836 C   0  0  0  0  0  0  0  0  0  0  0  0
   12.3176   53.8568   23.3026 F   0  0  0  0  0  0  0  0  0  0  0  0
   11.2726   53.0020   21.2999 C   0  0  0  0  0  0  0  0  0  0  0  0
   10.7731   52.0471   21.8842 O   0  0  0  0  0  0  0  0  0  0  0  0
   11.1008   53.2094   19.9559 N   0  0  0  0  0  0  0  0  0  0  0  0
   11.6309   54.2388   19.2180 C   0  0  0  0  0  0  0  0  0  0  0  0
   11.4325   54.2998   18.0068 O   0  0  0  0  0  0  0  0  0  0  0  0
   10.5434   52.5572   19.4729 H   0  0  0  0  0  0  0  0  0  0  0  0
 10 11  1  0
 11  9  1  0
  9  6  1  0
  6  7  1  0
  6  8  1  0
  6  5  1  0
  5  1  1  0
  1  2  1  0
  1 12  1  0
 12 13  1  0
 13 14  1  0
 14 15  2  0
 15 16  1  0
 15 17  1  0
 17 18  2  0
 17 19  1  0
 19 20  1  0
 20 21  2  0
 20 13  1  0
  2  3  1  0
  2  4  1  0
 19 22  1  0
M  END
> <minimizedAffinity>
-5.71622

> <CNNscore>
0.1925637275

> <CNNaffinity>
3.8086111546

> <CNN_VS>
0.7334003448

> <CNNaffinity_variance>
0.9213190079

$$$$



 22 22  0  0  0  0  0  0  0  0999 V2000
   14.9555   63.9593   19.4750 C   0  0  0  0  0  0  0  0  0  0  0  0
   16.4097   64.0054   19.1977 N   0  0  0  0  0  0  0  0  0  0  0  0
   16.8554   64.6707   19.8296 H   0  0  0  0  0  0  0  0  0  0  0  0
   16.5627   64.2982   18.2327 H   0  0  0  0  0  0  0  0  0  0  0  0
   14.3634   65.3686   19.2210 C   0  0  0  0  0  0  0  0  0  0  0  0
   15.2590   66.4070   18.4580 C   0  0  0  0  0  0  0  0  0  0  0  0
   15.6619   65.7519   17.1191 C   0  0  0  0  0  0  0  0  0  0  0  0
   14.4161   67.6604   18.1484 C   0  0  0  0  0  0  0  0  0  0  0  0
   16.5197   66.7559   19.2940 C   0  0  0  0  0  0  0  0  0  0  0  0
   18.5291   68.1653   18.4910 C   0  0  0  0  0  0  0  0  0  0  0  0
   17.8952   66.7913   18.6117 C   0  0  0  0  0  0  0  0  0  0  0  0
   14.7341   63.4731   20.9337 C   0  0  0  0  0  0  0  0  0  0  0  0
   13.8360   62.3144   21.0189 N   0  0  0  0  0  0  0  0  0  0  0  0
   13.3851   61.7125   19.8587 C   0  0  0  0  0  0  0  0  0  0  0  0
   12.5296   60.6919   19.8882 C   0  0  0  0  0  0  0  0  0  0  0  0
   12.0782   60.0940   18.7705 F   0  0  0  0  0  0  0  0  0  0  0  0
   12.0400   60.1852   21.1838 C   0  0  0  0  0  0  0  0  0  0  0  0
   11.2563   59.2471   21.2764 O   0  0  0  0  0  0  0  0  0  0  0  0
   12.5268   60.8439   22.2829 N   0  0  0  0  0  0  0  0  0  0  0  0
   13.3934   61.9088   22.2746 C   0  0  0  0  0  0  0  0  0  0  0  0
   13.7338   62.4394   23.3294 O   0  0  0  0  0  0  0  0  0  0  0  0
   12.2260   60.5223   23.1635 H   0  0  0  0  0  0  0  0  0  0  0  0
 10 11  1  0
 11  9  1  0
  9  6  1  0
  6  7  1  0
  6  8  1  0
  6  5  1  0
  5  1  1  0
  1  2  1  0
  1 12  1  0
 12 13  1  0
 13 14  1  0
 14 15  2  0
 15 16  1  0
 15 17  1  0
 17 18  2  0
 17 19  1  0
 19 20  1  0
 20 21  2  0
 20 13  1  0
  2  3  1  0
  2  4  1  0
 19 22  1  0
M  END
> <minimizedAffinity>
-5.08615

> <CNNscore>
0.1893289983

> <CNNaffinity>
4.5935134888

> <CNN_VS>
0.8696852922

> <CNNaffinity_variance>
0.0771515444

$$$$



 22 22  0  0  0  0  0  0  0  0999 V2000
   19.3788   69.0468   19.0768 C   0  0  0  0  0  0  0  0  0  0  0  0
   20.6099   69.5116   18.3971 N   0  0  0  0  0  0  0  0  0  0  0  0
   21.3489   69.6466   19.0870 H   0  0  0  0  0  0  0  0  0  0  0  0
   20.4232   70.3945   17.9217 H   0  0  0  0  0  0  0  0  0  0  0  0
   18.9338   70.1373   20.0839 C   0  0  0  0  0  0  0  0  0  0  0  0
   17.4099   70.2090   20.4518 C   0  0  0  0  0  0  0  0  0  0  0  0
   17.1828   69.2168   21.6129 C   0  0  0  0  0  0  0  0  0  0  0  0
   17.0854   71.6286   20.9587 C   0  0  0  0  0  0  0  0  0  0  0  0
   16.5362   69.8235   19.2279 C   0  0  0  0  0  0  0  0  0  0  0  0
   15.0586   67.7222   18.9633 C   0  0  0  0  0  0  0  0  0  0  0  0
   15.1716   69.1550   19.4517 C   0  0  0  0  0  0  0  0  0  0  0  0
   19.6641   67.6824   19.7624 C   0  0  0  0  0  0  0  0  0  0  0  0
   18.7968   66.6042   19.2705 N   0  0  0  0  0  0  0  0  0  0  0  0
   18.5438   66.4950   17.9157 C   0  0  0  0  0  0  0  0  0  0  0  0
   17.7230   65.5644   17.4311 C   0  0  0  0  0  0  0  0  0  0  0  0
   17.4630   65.4430   16.1166 F   0  0  0  0  0  0  0  0  0  0  0  0
   17.0578   64.6245   18.3526 C   0  0  0  0  0  0  0  0  0  0  0  0
   16.2962   63.7444   17.9674 O   0  0  0  0  0  0  0  0  0  0  0  0
   17.3539   64.8081   19.6782 N   0  0  0  0  0  0  0  0  0  0  0  0
   18.1811   65.7715   20.2004 C   0  0  0  0  0  0  0  0  0  0  0  0
   18.3430   65.8575   21.4155 O   0  0  0  0  0  0  0  0  0  0  0  0
   16.9327   64.1893   20.3178 H   0  0  0  0  0  0  0  0  0  0  0  0
 10 11  1  0
 11  9  1  0
  9  6  1  0
  6  7  1  0
  6  8  1  0
  6  5  1  0
  5  1  1  0
  1  2  1  0
  1 12  1  0
 12 13  1  0
 13 14  1  0
 14 15  2  0
 15 16  1  0
 15 17  1  0
 17 18  2  0
 17 19  1  0
 19 20  1  0
 20 21  2  0
 20 13  1  0
  2  3  1  0
  2  4  1  0
 19 22  1  0
M  END
> <minimizedAffinity>
-4.97849

> <CNNscore>
0.1816442609

> <CNNaffinity>
3.4846637249

> <CNN_VS>
0.6329691410

> <CNNaffinity_variance>
1.4773558378

$$$$



 22 22  0  0  0  0  0  0  0  0999 V2000
   17.0952   65.2635   19.1965 C   0  0  0  0  0  0  0  0  0  0  0  0
   17.8234   64.3814   20.1374 N   0  0  0  0  0  0  0  0  0  0  0  0
   18.3407   63.6769   19.6117 H   0  0  0  0  0  0  0  0  0  0  0  0
   17.1567   63.9215   20.7574 H   0  0  0  0  0  0  0  0  0  0  0  0
   16.0920   64.3992   18.3915 C   0  0  0  0  0  0  0  0  0  0  0  0
   14.5797   64.4651   18.8054 C   0  0  0  0  0  0  0  0  0  0  0  0
   14.4728   63.8354   20.2111 C   0  0  0  0  0  0  0  0  0  0  0  0
   14.1536   65.9436   18.9043 C   0  0  0  0  0  0  0  0  0  0  0  0
   13.7035   63.6824   17.7906 C   0  0  0  0  0  0  0  0  0  0  0  0
   12.6187   61.3701   18.1713 C   0  0  0  0  0  0  0  0  0  0  0  0
   13.8301   62.1544   17.7008 C   0  0  0  0  0  0  0  0  0  0  0  0
   18.1230   65.9890   18.2853 C   0  0  0  0  0  0  0  0  0  0  0  0
   18.4018   67.3633   18.7212 N   0  0  0  0  0  0  0  0  0  0  0  0
   17.8894   68.4261   18.0005 C   0  0  0  0  0  0  0  0  0  0  0  0
   18.1591   69.6883   18.3300 C   0  0  0  0  0  0  0  0  0  0  0  0
   17.6715   70.7358   17.6405 F   0  0  0  0  0  0  0  0  0  0  0  0
   19.0283   69.9724   19.4871 C   0  0  0  0  0  0  0  0  0  0  0  0
   19.3092   71.1115   19.8425 O   0  0  0  0  0  0  0  0  0  0  0  0
   19.5026   68.8639   20.1392 N   0  0  0  0  0  0  0  0  0  0  0  0
   19.2529   67.5557   19.8056 C   0  0  0  0  0  0  0  0  0  0  0  0
   19.7646   66.6430   20.4499 O   0  0  0  0  0  0  0  0  0  0  0  0
   20.0779   69.0210   20.9225 H   0  0  0  0  0  0  0  0  0  0  0  0
 10 11  1  0
 11  9  1  0
  9  6  1  0
  6  7  1  0
  6  8  1  0
  6  5  1  0
  5  1  1  0
  1  2  1  0
  1 12  1  0
 12 13  1  0
 13 14  1  0
 14 15  2  0
 15 16  1  0
 15 17  1  0
 17 18  2  0
 17 19  1  0
 19 20  1  0
 20 21  2  0
 20 13  1  0
  2  3  1  0
  2  4  1  0
 19 22  1  0
M  END
> <minimizedAffinity>
-5.67797

> <CNNscore>
0.1708355546

> <CNNaffinity>
4.1244816780

> <CNN_VS>
0.7046081424

> <CNNaffinity_variance>
0.4464958608

$$$$



 22 22  0  0  0  0  0  0  0  0999 V2000
   15.0324   65.2009   18.8343 C   0  0  0  0  0  0  0  0  0  0  0  0
   13.6780   65.7925   18.9305 N   0  0  0  0  0  0  0  0  0  0  0  0
   13.2480   65.8096   18.0057 H   0  0  0  0  0  0  0  0  0  0  0  0
   13.7475   66.7442   19.2908 H   0  0  0  0  0  0  0  0  0  0  0  0
   15.8895   66.0889   17.8973 C   0  0  0  0  0  0  0  0  0  0  0  0
   17.4484   65.9185   17.9592 C   0  0  0  0  0  0  0  0  0  0  0  0
   17.8461   65.0074   16.7778 C   0  0  0  0  0  0  0  0  0  0  0  0
   18.1093   67.2959   17.7511 C   0  0  0  0  0  0  0  0  0  0  0  0
   17.8722   65.2770   19.3078 C   0  0  0  0  0  0  0  0  0  0  0  0
   17.9609   66.7355   21.4371 C   0  0  0  0  0  0  0  0  0  0  0  0
   18.7242   66.0861   20.2969 C   0  0  0  0  0  0  0  0  0  0  0  0
   14.9103   63.7388   18.3238 C   0  0  0  0  0  0  0  0  0  0  0  0
   14.2486   62.8509   19.2883 N   0  0  0  0  0  0  0  0  0  0  0  0
   13.3370   61.9131   18.8401 C   0  0  0  0  0  0  0  0  0  0  0  0
   12.6759   61.1225   19.6841 C   0  0  0  0  0  0  0  0  0  0  0  0
   11.7841   60.2051   19.2677 F   0  0  0  0  0  0  0  0  0  0  0  0
   12.9097   61.2439   21.1352 C   0  0  0  0  0  0  0  0  0  0  0  0
   12.3361   60.5425   21.9610 O   0  0  0  0  0  0  0  0  0  0  0  0
   13.8193   62.2040   21.4955 N   0  0  0  0  0  0  0  0  0  0  0  0
   14.4971   63.0416   20.6445 C   0  0  0  0  0  0  0  0  0  0  0  0
   15.2664   63.8892   21.0913 O   0  0  0  0  0  0  0  0  0  0  0  0
   14.0044   62.3025   22.4573 H   0  0  0  0  0  0  0  0  0  0  0  0
 10 11  1  0
 11  9  1  0
  9  6  1  0
  6  7  1  0
  6  8  1  0
  6  5  1  0
  5  1  1  0
  1  2  1  0
  1 12  1  0
 12 13  1  0
 13 14  1  0
 14 15  2  0
 15 16  1  0
 15 17  1  0
 17 18  2  0
 17 19  1  0
 19 20  1  0
 20 21  2  0
 20 13  1  0
  2  3  1  0
  2  4  1  0
 19 22  1  0
M  END
> <minimizedAffinity>
-5.19788

> <CNNscore>
0.1696084142

> <CNNaffinity>
3.8965532780

> <CNN_VS>
0.6608881950

> <CNNaffinity_variance>
0.6732004285

$$$$
