


 25 26  0  0  0  0  0  0  0  0999 V2000
   -3.4485  -12.9256  -31.3200 C   0  0  0  0  0  0  0  0  0  0  0  0
   -4.4878  -12.4815  -30.4963 C   0  0  0  0  0  0  0  0  0  0  0  0
   -4.6658  -11.1171  -30.2564 C   0  0  0  0  0  0  0  0  0  0  0  0
   -3.8123  -10.1737  -30.8313 C   0  0  0  0  0  0  0  0  0  0  0  0
   -2.7761  -10.6090  -31.6566 C   0  0  0  0  0  0  0  0  0  0  0  0
   -2.5969  -11.9760  -31.9001 C   0  0  0  0  0  0  0  0  0  0  0  0
   -3.2497  -14.4006  -31.5903 C   0  0  0  0  0  0  0  0  0  0  0  0
   -2.5503  -14.6874  -32.9330 C   0  0  0  0  0  0  0  0  0  0  0  0
   -3.0380  -15.9397  -33.5638 N   0  0  0  0  0  0  0  0  0  0  0  0
   -2.8217  -16.7319  -32.9587 H   0  0  0  0  0  0  0  0  0  0  0  0
   -2.5803  -16.0664  -34.4665 H   0  0  0  0  0  0  0  0  0  0  0  0
    1.1390  -14.0742  -33.6455 C   0  0  0  0  0  0  0  0  0  0  0  0
   -0.2988  -14.1415  -33.7137 N   0  0  0  0  0  0  0  0  0  0  0  0
   -1.0216  -14.8101  -32.7379 C   0  0  0  0  0  0  0  0  0  0  0  0
   -0.4952  -15.4598  -31.8408 O   0  0  0  0  0  0  0  0  0  0  0  0
   -0.7723  -13.7085  -34.4604 H   0  0  0  0  0  0  0  0  0  0  0  0
   -4.0988   -8.8758  -30.5105 O   0  0  0  0  0  0  0  0  0  0  0  0
   -4.0786   -7.9261  -31.5716 C   0  0  0  0  0  0  0  0  0  0  0  0
   -3.3529   -6.6960  -31.0816 C   0  0  0  0  0  0  0  0  0  0  0  0
   -1.9566   -6.6040  -31.1809 C   0  0  0  0  0  0  0  0  0  0  0  0
   -1.2899   -5.4574  -30.7421 C   0  0  0  0  0  0  0  0  0  0  0  0
   -2.0171   -4.3942  -30.2109 C   0  0  0  0  0  0  0  0  0  0  0  0
   -1.1953   -2.9820  -29.6708 Cl  0  0  0  0  0  0  0  0  0  0  0  0
   -3.4056   -4.4648  -30.1189 C   0  0  0  0  0  0  0  0  0  0  0  0
   -4.0722   -5.6110  -30.5575 C   0  0  0  0  0  0  0  0  0  0  0  0
 12 13  1  0
 13 14  1  0
 14 15  2  0
 14  8  1  0
  8  9  1  0
  8  7  1  0
  7  1  1  0
  1  2  2  0
  2  3  1  0
  3  4  2  0
  4 17  1  0
 17 18  1  0
 18 19  1  0
 19 20  2  0
 20 21  1  0
 21 22  2  0
 22 23  1  0
 22 24  1  0
 24 25  2  0
  4  5  1  0
  5  6  2  0
  6  1  1  0
 25 19  1  0
 13 16  1  0
  9 10  1  0
  9 11  1  0
M  END
> <minimizedAffinity>
-7.27193

> <CNNscore>
0.9383783340

> <CNNaffinity>
4.9100489616

> <CNN_VS>
4.6074833870

> <CNNaffinity_variance>
0.7644338608

$$$$



 25 26  0  0  0  0  0  0  0  0999 V2000
   -9.7046   -2.9543  -30.7660 C   0  0  0  0  0  0  0  0  0  0  0  0
   -9.0123   -3.9253  -30.0354 C   0  0  0  0  0  0  0  0  0  0  0  0
   -7.6178   -3.9872  -30.0860 C   0  0  0  0  0  0  0  0  0  0  0  0
   -6.8908   -3.0852  -30.8649 C   0  0  0  0  0  0  0  0  0  0  0  0
   -7.5742   -2.1121  -31.5932 C   0  0  0  0  0  0  0  0  0  0  0  0
   -8.9718   -2.0467  -31.5424 C   0  0  0  0  0  0  0  0  0  0  0  0
  -11.2144   -2.8753  -30.7145 C   0  0  0  0  0  0  0  0  0  0  0  0
  -11.7372   -1.7709  -29.7759 C   0  0  0  0  0  0  0  0  0  0  0  0
  -11.1390   -0.4464  -30.0794 N   0  0  0  0  0  0  0  0  0  0  0  0
  -10.1305   -0.4871  -29.9321 H   0  0  0  0  0  0  0  0  0  0  0  0
  -11.5443    0.2588  -29.4639 H   0  0  0  0  0  0  0  0  0  0  0  0
  -10.5137   -1.1821  -26.2190 C   0  0  0  0  0  0  0  0  0  0  0  0
  -10.8032   -1.0746  -27.6265 N   0  0  0  0  0  0  0  0  0  0  0  0
  -11.4250   -2.1138  -28.3011 C   0  0  0  0  0  0  0  0  0  0  0  0
  -11.6633   -3.2005  -27.7850 O   0  0  0  0  0  0  0  0  0  0  0  0
  -10.5570   -0.2552  -28.1137 H   0  0  0  0  0  0  0  0  0  0  0  0
   -5.5355   -3.2610  -30.8248 O   0  0  0  0  0  0  0  0  0  0  0  0
   -5.0593   -4.5391  -30.4150 C   0  0  0  0  0  0  0  0  0  0  0  0
   -3.5504   -4.5112  -30.4633 C   0  0  0  0  0  0  0  0  0  0  0  0
   -2.8474   -3.3414  -30.1388 C   0  0  0  0  0  0  0  0  0  0  0  0
   -1.4507   -3.3241  -30.1682 C   0  0  0  0  0  0  0  0  0  0  0  0
   -0.7509   -4.4785  -30.5128 C   0  0  0  0  0  0  0  0  0  0  0  0
    0.9694   -4.4564  -30.5485 Cl  0  0  0  0  0  0  0  0  0  0  0  0
   -1.4346   -5.6520  -30.8238 C   0  0  0  0  0  0  0  0  0  0  0  0
   -2.8309   -5.6696  -30.7945 C   0  0  0  0  0  0  0  0  0  0  0  0
 12 13  1  0
 13 14  1  0
 14 15  2  0
 14  8  1  0
  8  9  1  0
  8  7  1  0
  7  1  1  0
  1  2  2  0
  2  3  1  0
  3  4  2  0
  4 17  1  0
 17 18  1  0
 18 19  1  0
 19 20  2  0
 20 21  1  0
 21 22  2  0
 22 23  1  0
 22 24  1  0
 24 25  2  0
  4  5  1  0
  5  6  2  0
  6  1  1  0
 25 19  1  0
 13 16  1  0
  9 10  1  0
  9 11  1  0
M  END
> <minimizedAffinity>
-7.09223

> <CNNscore>
0.8956879377

> <CNNaffinity>
4.8414502144

> <CNN_VS>
4.3364286423

> <CNNaffinity_variance>
1.1143994331

$$$$



 25 26  0  0  0  0  0  0  0  0999 V2000
   -4.4518  -12.7204  -30.6613 C   0  0  0  0  0  0  0  0  0  0  0  0
   -4.9271  -11.5669  -30.0295 C   0  0  0  0  0  0  0  0  0  0  0  0
   -4.4145  -10.3127  -30.3692 C   0  0  0  0  0  0  0  0  0  0  0  0
   -3.4208  -10.1870  -31.3416 C   0  0  0  0  0  0  0  0  0  0  0  0
   -2.9447  -11.3326  -31.9783 C   0  0  0  0  0  0  0  0  0  0  0  0
   -3.4584  -12.5906  -31.6409 C   0  0  0  0  0  0  0  0  0  0  0  0
   -5.0034  -14.0831  -30.3044 C   0  0  0  0  0  0  0  0  0  0  0  0
   -5.2703  -14.2591  -28.7972 C   0  0  0  0  0  0  0  0  0  0  0  0
   -4.4056  -15.3032  -28.1920 N   0  0  0  0  0  0  0  0  0  0  0  0
   -4.6105  -16.2054  -28.6216 H   0  0  0  0  0  0  0  0  0  0  0  0
   -4.5861  -15.3551  -27.1895 H   0  0  0  0  0  0  0  0  0  0  0  0
   -8.4241  -14.9398  -26.7760 C   0  0  0  0  0  0  0  0  0  0  0  0
   -7.0712  -14.6794  -27.1980 N   0  0  0  0  0  0  0  0  0  0  0  0
   -6.7448  -14.6493  -28.5450 C   0  0  0  0  0  0  0  0  0  0  0  0
   -7.5382  -14.9406  -29.4336 O   0  0  0  0  0  0  0  0  0  0  0  0
   -6.3719  -14.5214  -26.5233 H   0  0  0  0  0  0  0  0  0  0  0  0
   -3.0089   -8.9039  -31.5729 O   0  0  0  0  0  0  0  0  0  0  0  0
   -3.9801   -7.8736  -31.4196 C   0  0  0  0  0  0  0  0  0  0  0  0
   -3.2564   -6.6050  -31.0364 C   0  0  0  0  0  0  0  0  0  0  0  0
   -1.8683   -6.4955  -31.2074 C   0  0  0  0  0  0  0  0  0  0  0  0
   -1.2045   -5.3142  -30.8675 C   0  0  0  0  0  0  0  0  0  0  0  0
   -1.9267   -4.2342  -30.3641 C   0  0  0  0  0  0  0  0  0  0  0  0
   -1.1082   -2.7794  -29.9459 Cl  0  0  0  0  0  0  0  0  0  0  0  0
   -3.3076   -4.3227  -30.2019 C   0  0  0  0  0  0  0  0  0  0  0  0
   -3.9716   -5.5036  -30.5416 C   0  0  0  0  0  0  0  0  0  0  0  0
 12 13  1  0
 13 14  1  0
 14 15  2  0
 14  8  1  0
  8  9  1  0
  8  7  1  0
  7  1  1  0
  1  2  2  0
  2  3  1  0
  3  4  2  0
  4 17  1  0
 17 18  1  0
 18 19  1  0
 19 20  2  0
 20 21  1  0
 21 22  2  0
 22 23  1  0
 22 24  1  0
 24 25  2  0
  4  5  1  0
  5  6  2  0
  6  1  1  0
 25 19  1  0
 13 16  1  0
  9 10  1  0
  9 11  1  0
M  END
> <minimizedAffinity>
-7.34099

> <CNNscore>
0.8621223569

> <CNNaffinity>
4.6857180595

> <CNN_VS>
4.0396623611

> <CNNaffinity_variance>
0.8572251201

$$$$



 25 26  0  0  0  0  0  0  0  0999 V2000
   -9.1204   -2.4374  -32.0485 C   0  0  0  0  0  0  0  0  0  0  0  0
   -7.9315   -1.7343  -31.8295 C   0  0  0  0  0  0  0  0  0  0  0  0
   -6.8625   -2.3422  -31.1671 C   0  0  0  0  0  0  0  0  0  0  0  0
   -6.9602   -3.6582  -30.7117 C   0  0  0  0  0  0  0  0  0  0  0  0
   -8.1413   -4.3666  -30.9298 C   0  0  0  0  0  0  0  0  0  0  0  0
   -9.2134   -3.7600  -31.5953 C   0  0  0  0  0  0  0  0  0  0  0  0
  -10.2824   -1.7901  -32.7690 C   0  0  0  0  0  0  0  0  0  0  0  0
  -11.1364   -0.8839  -31.8615 C   0  0  0  0  0  0  0  0  0  0  0  0
  -10.4358    0.3763  -31.5076 N   0  0  0  0  0  0  0  0  0  0  0  0
   -9.5930    0.1590  -30.9757 H   0  0  0  0  0  0  0  0  0  0  0  0
  -11.0524    0.9613  -30.9436 H   0  0  0  0  0  0  0  0  0  0  0  0
  -11.1282   -1.6023  -28.1227 C   0  0  0  0  0  0  0  0  0  0  0  0
  -10.8449   -1.1019  -29.4440 N   0  0  0  0  0  0  0  0  0  0  0  0
  -11.5048   -1.6148  -30.5500 C   0  0  0  0  0  0  0  0  0  0  0  0
  -12.2687   -2.5723  -30.4904 O   0  0  0  0  0  0  0  0  0  0  0  0
  -10.1764   -0.3890  -29.5623 H   0  0  0  0  0  0  0  0  0  0  0  0
   -5.8425   -4.1266  -30.0786 O   0  0  0  0  0  0  0  0  0  0  0  0
   -5.2333   -5.2952  -30.6184 C   0  0  0  0  0  0  0  0  0  0  0  0
   -3.7364   -5.1023  -30.5753 C   0  0  0  0  0  0  0  0  0  0  0  0
   -2.8708   -6.1626  -30.8826 C   0  0  0  0  0  0  0  0  0  0  0  0
   -1.4865   -5.9759  -30.8580 C   0  0  0  0  0  0  0  0  0  0  0  0
   -0.9619   -4.7261  -30.5355 C   0  0  0  0  0  0  0  0  0  0  0  0
    0.7433   -4.4968  -30.5058 Cl  0  0  0  0  0  0  0  0  0  0  0  0
   -1.8089   -3.6595  -30.2419 C   0  0  0  0  0  0  0  0  0  0  0  0
   -3.1929   -3.8459  -30.2663 C   0  0  0  0  0  0  0  0  0  0  0  0
 12 13  1  0
 13 14  1  0
 14 15  2  0
 14  8  1  0
  8  9  1  0
  8  7  1  0
  7  1  1  0
  1  2  2  0
  2  3  1  0
  3  4  2  0
  4 17  1  0
 17 18  1  0
 18 19  1  0
 19 20  2  0
 20 21  1  0
 21 22  2  0
 22 23  1  0
 22 24  1  0
 24 25  2  0
  4  5  1  0
  5  6  2  0
  6  1  1  0
 25 19  1  0
 13 16  1  0
  9 10  1  0
  9 11  1  0
M  END
> <minimizedAffinity>
-6.92736

> <CNNscore>
0.8049047589

> <CNNaffinity>
5.1972994804

> <CNN_VS>
4.1833310127

> <CNNaffinity_variance>
0.4722136557

$$$$



 25 26  0  0  0  0  0  0  0  0999 V2000
   -8.8672   -2.3589  -31.7643 C   0  0  0  0  0  0  0  0  0  0  0  0
   -9.1063   -3.5748  -31.1161 C   0  0  0  0  0  0  0  0  0  0  0  0
   -8.0595   -4.2661  -30.5018 C   0  0  0  0  0  0  0  0  0  0  0  0
   -6.7590   -3.7591  -30.5237 C   0  0  0  0  0  0  0  0  0  0  0  0
   -6.5139   -2.5454  -31.1651 C   0  0  0  0  0  0  0  0  0  0  0  0
   -7.5619   -1.8497  -31.7798 C   0  0  0  0  0  0  0  0  0  0  0  0
   -9.9944   -1.5996  -32.4286 C   0  0  0  0  0  0  0  0  0  0  0  0
  -10.1040   -0.1354  -31.9617 C   0  0  0  0  0  0  0  0  0  0  0  0
  -11.0799    0.0295  -30.8550 N   0  0  0  0  0  0  0  0  0  0  0  0
  -12.0103   -0.2327  -31.1804 H   0  0  0  0  0  0  0  0  0  0  0  0
  -11.0878    1.0031  -30.5510 H   0  0  0  0  0  0  0  0  0  0  0  0
  -10.1528    1.2451  -35.5094 C   0  0  0  0  0  0  0  0  0  0  0  0
   -9.8252    0.5453  -34.2932 N   0  0  0  0  0  0  0  0  0  0  0  0
  -10.5404    0.7795  -33.1290 C   0  0  0  0  0  0  0  0  0  0  0  0
  -11.4000    1.6490  -33.0337 O   0  0  0  0  0  0  0  0  0  0  0  0
   -9.0864   -0.1054  -34.2890 H   0  0  0  0  0  0  0  0  0  0  0  0
   -5.8328   -4.5381  -29.8875 O   0  0  0  0  0  0  0  0  0  0  0  0
   -5.1684   -5.5252  -30.6700 C   0  0  0  0  0  0  0  0  0  0  0  0
   -3.6838   -5.2618  -30.5891 C   0  0  0  0  0  0  0  0  0  0  0  0
   -2.7617   -6.2815  -30.8682 C   0  0  0  0  0  0  0  0  0  0  0  0
   -1.3888   -6.0297  -30.8088 C   0  0  0  0  0  0  0  0  0  0  0  0
   -0.9321   -4.7553  -30.4794 C   0  0  0  0  0  0  0  0  0  0  0  0
    0.7592   -4.4459  -30.4067 Cl  0  0  0  0  0  0  0  0  0  0  0  0
   -1.8356   -3.7286  -30.2135 C   0  0  0  0  0  0  0  0  0  0  0  0
   -3.2082   -3.9800  -30.2727 C   0  0  0  0  0  0  0  0  0  0  0  0
 12 13  1  0
 13 14  1  0
 14 15  2  0
 14  8  1  0
  8  9  1  0
  8  7  1  0
  7  1  1  0
  1  2  2  0
  2  3  1  0
  3  4  2  0
  4 17  1  0
 17 18  1  0
 18 19  1  0
 19 20  2  0
 20 21  1  0
 21 22  2  0
 22 23  1  0
 22 24  1  0
 24 25  2  0
  4  5  1  0
  5  6  2  0
  6  1  1  0
 25 19  1  0
 13 16  1  0
  9 10  1  0
  9 11  1  0
M  END
> <minimizedAffinity>
-6.95004

> <CNNscore>
0.8041749597

> <CNNaffinity>
5.0330924988

> <CNN_VS>
4.0474867821

> <CNNaffinity_variance>
0.5056480169

$$$$



 25 26  0  0  0  0  0  0  0  0999 V2000
   -9.2464   -2.6548  -32.7109 C   0  0  0  0  0  0  0  0  0  0  0  0
   -9.1777   -3.7549  -31.8502 C   0  0  0  0  0  0  0  0  0  0  0  0
   -8.0382   -3.9739  -31.0726 C   0  0  0  0  0  0  0  0  0  0  0  0
   -6.9495   -3.1027  -31.1400 C   0  0  0  0  0  0  0  0  0  0  0  0
   -7.0125   -2.0017  -31.9933 C   0  0  0  0  0  0  0  0  0  0  0  0
   -8.1543   -1.7790  -32.7722 C   0  0  0  0  0  0  0  0  0  0  0  0
  -10.4775   -2.4057  -33.5539 C   0  0  0  0  0  0  0  0  0  0  0  0
  -10.2193   -1.4725  -34.7525 C   0  0  0  0  0  0  0  0  0  0  0  0
  -11.3159   -0.4904  -34.9458 N   0  0  0  0  0  0  0  0  0  0  0  0
  -12.1826   -0.9855  -35.1558 H   0  0  0  0  0  0  0  0  0  0  0  0
  -11.0830    0.1311  -35.7203 H   0  0  0  0  0  0  0  0  0  0  0  0
   -8.7588   -2.4505  -38.1296 C   0  0  0  0  0  0  0  0  0  0  0  0
   -9.0988   -1.7723  -36.9046 N   0  0  0  0  0  0  0  0  0  0  0  0
  -10.0674   -2.2877  -36.0572 C   0  0  0  0  0  0  0  0  0  0  0  0
  -10.7530   -3.2649  -36.3385 O   0  0  0  0  0  0  0  0  0  0  0  0
   -8.6389   -0.9348  -36.6671 H   0  0  0  0  0  0  0  0  0  0  0  0
   -5.9009   -3.4371  -30.3288 O   0  0  0  0  0  0  0  0  0  0  0  0
   -5.4215   -4.7758  -30.4076 C   0  0  0  0  0  0  0  0  0  0  0  0
   -3.9140   -4.7270  -30.4793 C   0  0  0  0  0  0  0  0  0  0  0  0
   -3.2244   -3.5369  -30.2034 C   0  0  0  0  0  0  0  0  0  0  0  0
   -1.8288   -3.4997  -30.2543 C   0  0  0  0  0  0  0  0  0  0  0  0
   -1.1164   -4.6542  -30.5719 C   0  0  0  0  0  0  0  0  0  0  0  0
    0.6027   -4.6075  -30.6341 Cl  0  0  0  0  0  0  0  0  0  0  0  0
   -1.7864   -5.8472  -30.8345 C   0  0  0  0  0  0  0  0  0  0  0  0
   -3.1817   -5.8847  -30.7838 C   0  0  0  0  0  0  0  0  0  0  0  0
 12 13  1  0
 13 14  1  0
 14 15  2  0
 14  8  1  0
  8  9  1  0
  8  7  1  0
  7  1  1  0
  1  2  2  0
  2  3  1  0
  3  4  2  0
  4 17  1  0
 17 18  1  0
 18 19  1  0
 19 20  2  0
 20 21  1  0
 21 22  2  0
 22 23  1  0
 22 24  1  0
 24 25  2  0
  4  5  1  0
  5  6  2  0
  6  1  1  0
 25 19  1  0
 13 16  1  0
  9 10  1  0
  9 11  1  0
M  END
> <minimizedAffinity>
-6.56916

> <CNNscore>
0.7953255773

> <CNNaffinity>
4.6905150414

> <CNN_VS>
3.7304866314

> <CNNaffinity_variance>
0.5689596534

$$$$



 25 26  0  0  0  0  0  0  0  0999 V2000
  -12.5940   -1.5334  -25.1746 C   0  0  0  0  0  0  0  0  0  0  0  0
  -11.2295   -1.2595  -25.0375 C   0  0  0  0  0  0  0  0  0  0  0  0
  -10.6713   -1.0648  -23.7720 C   0  0  0  0  0  0  0  0  0  0  0  0
  -11.4620   -1.1385  -22.6238 C   0  0  0  0  0  0  0  0  0  0  0  0
  -12.8226   -1.4149  -22.7528 C   0  0  0  0  0  0  0  0  0  0  0  0
  -13.3840   -1.6124  -24.0200 C   0  0  0  0  0  0  0  0  0  0  0  0
  -13.2078   -1.7507  -26.5401 C   0  0  0  0  0  0  0  0  0  0  0  0
  -13.1831   -0.4923  -27.4289 C   0  0  0  0  0  0  0  0  0  0  0  0
  -12.2977    0.5654  -26.8799 N   0  0  0  0  0  0  0  0  0  0  0  0
  -12.6519    0.8683  -25.9727 H   0  0  0  0  0  0  0  0  0  0  0  0
  -12.2792    1.3594  -27.5200 H   0  0  0  0  0  0  0  0  0  0  0  0
  -15.8381    2.2106  -27.8023 C   0  0  0  0  0  0  0  0  0  0  0  0
  -14.6123    1.4850  -27.5852 N   0  0  0  0  0  0  0  0  0  0  0  0
  -14.6037    0.0988  -27.5792 C   0  0  0  0  0  0  0  0  0  0  0  0
  -15.6239   -0.5782  -27.6474 O   0  0  0  0  0  0  0  0  0  0  0  0
  -13.7729    1.9785  -27.4397 H   0  0  0  0  0  0  0  0  0  0  0  0
  -10.7883   -0.9250  -21.4533 O   0  0  0  0  0  0  0  0  0  0  0  0
  -11.0968   -1.7856  -20.3614 C   0  0  0  0  0  0  0  0  0  0  0  0
   -9.8477   -2.5576  -20.0097 C   0  0  0  0  0  0  0  0  0  0  0  0
   -9.6584   -3.0564  -18.7122 C   0  0  0  0  0  0  0  0  0  0  0  0
   -8.5093   -3.7846  -18.3947 C   0  0  0  0  0  0  0  0  0  0  0  0
   -7.5491   -4.0255  -19.3753 C   0  0  0  0  0  0  0  0  0  0  0  0
   -6.1341   -4.9229  -18.9835 Cl  0  0  0  0  0  0  0  0  0  0  0  0
   -7.7296   -3.5489  -20.6720 C   0  0  0  0  0  0  0  0  0  0  0  0
   -8.8783   -2.8207  -20.9896 C   0  0  0  0  0  0  0  0  0  0  0  0
 12 13  1  0
 13 14  1  0
 14 15  2  0
 14  8  1  0
  8  9  1  0
  8  7  1  0
  7  1  1  0
  1  2  2  0
  2  3  1  0
  3  4  2  0
  4 17  1  0
 17 18  1  0
 18 19  1  0
 19 20  2  0
 20 21  1  0
 21 22  2  0
 22 23  1  0
 22 24  1  0
 24 25  2  0
  4  5  1  0
  5  6  2  0
  6  1  1  0
 25 19  1  0
 13 16  1  0
  9 10  1  0
  9 11  1  0
M  END
> <minimizedAffinity>
-4.28084

> <CNNscore>
0.7821730375

> <CNNaffinity>
5.1325926781

> <CNN_VS>
4.0145754814

> <CNNaffinity_variance>
0.0085490299

$$$$



 25 26  0  0  0  0  0  0  0  0999 V2000
   -9.7862   -2.2380  -30.9633 C   0  0  0  0  0  0  0  0  0  0  0  0
   -8.8049   -1.4456  -31.5674 C   0  0  0  0  0  0  0  0  0  0  0  0
   -7.4632   -1.8322  -31.5315 C   0  0  0  0  0  0  0  0  0  0  0  0
   -7.0771   -3.0122  -30.8932 C   0  0  0  0  0  0  0  0  0  0  0  0
   -8.0506   -3.8091  -30.2919 C   0  0  0  0  0  0  0  0  0  0  0  0
   -9.3963   -3.4247  -30.3284 C   0  0  0  0  0  0  0  0  0  0  0  0
  -11.2427   -1.8310  -31.0006 C   0  0  0  0  0  0  0  0  0  0  0  0
  -11.7442   -1.2310  -29.6729 C   0  0  0  0  0  0  0  0  0  0  0  0
  -12.6145   -2.1726  -28.9246 N   0  0  0  0  0  0  0  0  0  0  0  0
  -13.4490   -2.3750  -29.4751 H   0  0  0  0  0  0  0  0  0  0  0  0
  -12.8870   -1.7511  -28.0366 H   0  0  0  0  0  0  0  0  0  0  0  0
  -12.4501    2.2416  -31.0648 C   0  0  0  0  0  0  0  0  0  0  0  0
  -11.8329    1.0045  -30.6586 N   0  0  0  0  0  0  0  0  0  0  0  0
  -12.5452    0.0666  -29.9274 C   0  0  0  0  0  0  0  0  0  0  0  0
  -13.6763    0.2688  -29.4988 O   0  0  0  0  0  0  0  0  0  0  0  0
  -10.8965    0.8237  -30.9027 H   0  0  0  0  0  0  0  0  0  0  0  0
   -5.7343   -3.2675  -30.9311 O   0  0  0  0  0  0  0  0  0  0  0  0
   -5.2927   -4.5004  -30.3716 C   0  0  0  0  0  0  0  0  0  0  0  0
   -3.7833   -4.5150  -30.4099 C   0  0  0  0  0  0  0  0  0  0  0  0
   -3.0895   -5.6814  -30.7650 C   0  0  0  0  0  0  0  0  0  0  0  0
   -1.6934   -5.6865  -30.8158 C   0  0  0  0  0  0  0  0  0  0  0  0
   -0.9854   -4.5232  -30.5210 C   0  0  0  0  0  0  0  0  0  0  0  0
    0.7343   -4.5302  -30.5840 Cl  0  0  0  0  0  0  0  0  0  0  0  0
   -1.6608   -3.3531  -30.1806 C   0  0  0  0  0  0  0  0  0  0  0  0
   -3.0566   -3.3477  -30.1297 C   0  0  0  0  0  0  0  0  0  0  0  0
 12 13  1  0
 13 14  1  0
 14 15  2  0
 14  8  1  0
  8  9  1  0
  8  7  1  0
  7  1  1  0
  1  2  2  0
  2  3  1  0
  3  4  2  0
  4 17  1  0
 17 18  1  0
 18 19  1  0
 19 20  2  0
 20 21  1  0
 21 22  2  0
 22 23  1  0
 22 24  1  0
 24 25  2  0
  4  5  1  0
  5  6  2  0
  6  1  1  0
 25 19  1  0
 13 16  1  0
  9 10  1  0
  9 11  1  0
M  END
> <minimizedAffinity>
-6.70586

> <CNNscore>
0.7601131797

> <CNNaffinity>
4.6968550682

> <CNN_VS>
3.5701415539

> <CNNaffinity_variance>
0.9396800995

$$$$



 25 26  0  0  0  0  0  0  0  0999 V2000
   -9.7307   -2.9955  -30.2832 C   0  0  0  0  0  0  0  0  0  0  0  0
   -8.9803   -3.9407  -29.5765 C   0  0  0  0  0  0  0  0  0  0  0  0
   -7.6031   -4.0482  -29.7837 C   0  0  0  0  0  0  0  0  0  0  0  0
   -6.9517   -3.2179  -30.6976 C   0  0  0  0  0  0  0  0  0  0  0  0
   -7.6929   -2.2707  -31.4030 C   0  0  0  0  0  0  0  0  0  0  0  0
   -9.0731   -2.1598  -31.1956 C   0  0  0  0  0  0  0  0  0  0  0  0
  -11.2218   -2.8675  -30.0629 C   0  0  0  0  0  0  0  0  0  0  0  0
  -11.8944   -4.1901  -29.6476 C   0  0  0  0  0  0  0  0  0  0  0  0
  -11.2660   -4.7849  -28.4411 N   0  0  0  0  0  0  0  0  0  0  0  0
  -10.2930   -5.0149  -28.6429 H   0  0  0  0  0  0  0  0  0  0  0  0
  -11.7685   -5.6329  -28.1790 H   0  0  0  0  0  0  0  0  0  0  0  0
  -12.2236   -5.5330  -33.1949 C   0  0  0  0  0  0  0  0  0  0  0  0
  -12.2970   -4.7366  -31.9963 N   0  0  0  0  0  0  0  0  0  0  0  0
  -11.8156   -5.2265  -30.7922 C   0  0  0  0  0  0  0  0  0  0  0  0
  -11.4082   -6.3744  -30.6503 O   0  0  0  0  0  0  0  0  0  0  0  0
  -12.6929   -3.8359  -32.0329 H   0  0  0  0  0  0  0  0  0  0  0  0
   -5.6054   -3.4322  -30.8030 O   0  0  0  0  0  0  0  0  0  0  0  0
   -5.1190   -4.7097  -30.4035 C   0  0  0  0  0  0  0  0  0  0  0  0
   -3.6116   -4.6805  -30.4860 C   0  0  0  0  0  0  0  0  0  0  0  0
   -2.9059   -3.4939  -30.2370 C   0  0  0  0  0  0  0  0  0  0  0  0
   -1.5103   -3.4745  -30.2977 C   0  0  0  0  0  0  0  0  0  0  0  0
   -0.8139   -4.6433  -30.5980 C   0  0  0  0  0  0  0  0  0  0  0  0
    0.9051   -4.6187  -30.6723 Cl  0  0  0  0  0  0  0  0  0  0  0  0
   -1.5000   -5.8329  -30.8337 C   0  0  0  0  0  0  0  0  0  0  0  0
   -2.8952   -5.8525  -30.7732 C   0  0  0  0  0  0  0  0  0  0  0  0
 12 13  1  0
 13 14  1  0
 14 15  2  0
 14  8  1  0
  8  9  1  0
  8  7  1  0
  7  1  1  0
  1  2  2  0
  2  3  1  0
  3  4  2  0
  4 17  1  0
 17 18  1  0
 18 19  1  0
 19 20  2  0
 20 21  1  0
 21 22  2  0
 22 23  1  0
 22 24  1  0
 24 25  2  0
  4  5  1  0
  5  6  2  0
  6  1  1  0
 25 19  1  0
 13 16  1  0
  9 10  1  0
  9 11  1  0
M  END
> <minimizedAffinity>
-6.20980

> <CNNscore>
0.6144939065

> <CNNaffinity>
4.7175526619

> <CNN_VS>
2.8989074230

> <CNNaffinity_variance>
0.3882029951

$$$$
