


 14 14  0  0  0  0  0  0  0  0999 V2000
   15.6525    3.8956   16.0123 C   0  0  0  0  0  0  0  0  0  0  0  0
   16.8570    3.9352   15.3016 C   0  0  0  0  0  0  0  0  0  0  0  0
   17.2155    5.1075   14.6320 C   0  0  0  0  0  0  0  0  0  0  0  0
   16.3733    6.2162   14.6802 C   0  0  0  0  0  0  0  0  0  0  0  0
   16.7244    7.3359   14.0354 F   0  0  0  0  0  0  0  0  0  0  0  0
   15.1770    6.1794   15.3850 C   0  0  0  0  0  0  0  0  0  0  0  0
   14.8217    5.0116   16.0511 C   0  0  0  0  0  0  0  0  0  0  0  0
   13.6660    4.9870   16.7276 F   0  0  0  0  0  0  0  0  0  0  0  0
   15.6038    1.1762   15.9069 N   0  0  0  0  0  0  0  0  0  0  0  0
   15.1245    2.4665   16.8812 S   0  0  0  0  0  0  0  0  0  0  0  0
   13.6821    2.4179   16.8665 O   0  0  0  0  0  0  0  0  0  0  0  0
   15.9159    2.3309   18.0806 O   0  0  0  0  0  0  0  0  0  0  0  0
   15.3303    0.2977   16.3472 H   0  0  0  0  0  0  0  0  0  0  0  0
   16.6168    1.1967   15.7895 H   0  0  0  0  0  0  0  0  0  0  0  0
  9 10  1  0
 10 11  2  0
 10 12  2  0
 10  1  1  0
  1  2  2  0
  2  3  1  0
  3  4  2  0
  4  5  1  0
  4  6  1  0
  6  7  2  0
  7  8  1  0
  7  1  1  0
  9 13  1  0
  9 14  1  0
M  END
> <minimizedAffinity>
-7.09929

> <CNNscore>
0.9754526615

> <CNNaffinity>
7.1257400513

> <CNN_VS>
6.9508218765

> <CNNaffinity_variance>
1.7525352240

$$$$



 14 14  0  0  0  0  0  0  0  0999 V2000
   15.6398    3.9277   16.0764 C   0  0  0  0  0  0  0  0  0  0  0  0
   14.7654    4.9743   15.7641 C   0  0  0  0  0  0  0  0  0  0  0  0
   15.2595    6.1017   15.1037 C   0  0  0  0  0  0  0  0  0  0  0  0
   16.6095    6.1688   14.7664 C   0  0  0  0  0  0  0  0  0  0  0  0
   17.0749    7.2531   14.1336 F   0  0  0  0  0  0  0  0  0  0  0  0
   17.4795    5.1312   15.0753 C   0  0  0  0  0  0  0  0  0  0  0  0
   16.9860    4.0095   15.7327 C   0  0  0  0  0  0  0  0  0  0  0  0
   17.8337    3.0148   16.0258 F   0  0  0  0  0  0  0  0  0  0  0  0
   15.5567    1.2141   15.8801 N   0  0  0  0  0  0  0  0  0  0  0  0
   15.1054    2.4763   16.9035 S   0  0  0  0  0  0  0  0  0  0  0  0
   13.6624    2.4452   16.9058 O   0  0  0  0  0  0  0  0  0  0  0  0
   15.9101    2.2909   18.0873 O   0  0  0  0  0  0  0  0  0  0  0  0
   15.2780    0.3245   16.2941 H   0  0  0  0  0  0  0  0  0  0  0  0
   16.5683    1.2267   15.7504 H   0  0  0  0  0  0  0  0  0  0  0  0
  9 10  1  0
 10 11  2  0
 10 12  2  0
 10  1  1  0
  1  2  2  0
  2  3  1  0
  3  4  2  0
  4  5  1  0
  4  6  1  0
  6  7  2  0
  7  8  1  0
  7  1  1  0
  9 13  1  0
  9 14  1  0
M  END
> <minimizedAffinity>
-7.34678

> <CNNscore>
0.9700591564

> <CNNaffinity>
6.7076034546

> <CNN_VS>
6.5067720413

> <CNNaffinity_variance>
1.0114141703

$$$$



 14 14  0  0  0  0  0  0  0  0999 V2000
   16.2462    4.1732   14.8960 C   0  0  0  0  0  0  0  0  0  0  0  0
   17.0659    4.4687   13.8014 C   0  0  0  0  0  0  0  0  0  0  0  0
   16.9396    5.7082   13.1698 C   0  0  0  0  0  0  0  0  0  0  0  0
   16.0039    6.6292   13.6357 C   0  0  0  0  0  0  0  0  0  0  0  0
   15.8892    7.8149   13.0245 F   0  0  0  0  0  0  0  0  0  0  0  0
   15.1890    6.3382   14.7221 C   0  0  0  0  0  0  0  0  0  0  0  0
   15.3161    5.1038   15.3498 C   0  0  0  0  0  0  0  0  0  0  0  0
   14.5253    4.8335   16.3965 F   0  0  0  0  0  0  0  0  0  0  0  0
   16.4481    1.4838   14.5278 N   0  0  0  0  0  0  0  0  0  0  0  0
   16.3374    2.6427   15.7480 S   0  0  0  0  0  0  0  0  0  0  0  0
   15.0663    2.3848   16.3811 O   0  0  0  0  0  0  0  0  0  0  0  0
   17.6031    2.5675   16.4377 O   0  0  0  0  0  0  0  0  0  0  0  0
   16.5056    0.5550   14.9454 H   0  0  0  0  0  0  0  0  0  0  0  0
   17.2832    1.6576   13.9686 H   0  0  0  0  0  0  0  0  0  0  0  0
  9 10  1  0
 10 11  2  0
 10 12  2  0
 10  1  1  0
  1  2  2  0
  2  3  1  0
  3  4  2  0
  4  5  1  0
  4  6  1  0
  6  7  2  0
  7  8  1  0
  7  1  1  0
  9 13  1  0
  9 14  1  0
M  END
> <minimizedAffinity>
-5.83190

> <CNNscore>
0.9445748329

> <CNNaffinity>
6.5972023010

> <CNN_VS>
6.2315511703

> <CNNaffinity_variance>
0.9256653190

$$$$



 14 14  0  0  0  0  0  0  0  0999 V2000
   15.7854    3.9838   16.0622 C   0  0  0  0  0  0  0  0  0  0  0  0
   14.8416    4.9629   15.7334 C   0  0  0  0  0  0  0  0  0  0  0  0
   15.2568    6.1081   15.0498 C   0  0  0  0  0  0  0  0  0  0  0  0
   16.5984    6.2596   14.7060 C   0  0  0  0  0  0  0  0  0  0  0  0
   16.9879    7.3604   14.0509 F   0  0  0  0  0  0  0  0  0  0  0  0
   17.5372    5.2891   15.0312 C   0  0  0  0  0  0  0  0  0  0  0  0
   17.1222    4.1496   15.7118 C   0  0  0  0  0  0  0  0  0  0  0  0
   18.0358    3.2201   16.0205 F   0  0  0  0  0  0  0  0  0  0  0  0
   13.6686    2.5565   17.0060 N   0  0  0  0  0  0  0  0  0  0  0  0
   15.3523    2.5159   16.9188 S   0  0  0  0  0  0  0  0  0  0  0  0
   15.7908    2.6289   18.2893 O   0  0  0  0  0  0  0  0  0  0  0  0
   15.6462    1.3807   16.0773 O   0  0  0  0  0  0  0  0  0  0  0  0
   13.3334    1.7271   17.4960 H   0  0  0  0  0  0  0  0  0  0  0  0
   13.2797    2.5749   16.0632 H   0  0  0  0  0  0  0  0  0  0  0  0
  9 10  1  0
 10 11  2  0
 10 12  2  0
 10  1  1  0
  1  2  2  0
  2  3  1  0
  3  4  2  0
  4  5  1  0
  4  6  1  0
  6  7  2  0
  7  8  1  0
  7  1  1  0
  9 13  1  0
  9 14  1  0
M  END
> <minimizedAffinity>
-6.64992

> <CNNscore>
0.9344566464

> <CNNaffinity>
6.3079667091

> <CNN_VS>
5.8945212364

> <CNNaffinity_variance>
0.3470340967

$$$$



 14 14  0  0  0  0  0  0  0  0999 V2000
   16.3489    3.9851   14.6803 C   0  0  0  0  0  0  0  0  0  0  0  0
   16.8167    4.3589   13.4158 C   0  0  0  0  0  0  0  0  0  0  0  0
   16.5572    5.6486   12.9466 C   0  0  0  0  0  0  0  0  0  0  0  0
   15.8396    6.5414   13.7396 C   0  0  0  0  0  0  0  0  0  0  0  0
   15.5951    7.7757   13.2821 F   0  0  0  0  0  0  0  0  0  0  0  0
   15.3741    6.1728   14.9952 C   0  0  0  0  0  0  0  0  0  0  0  0
   15.6334    4.8883   15.4609 C   0  0  0  0  0  0  0  0  0  0  0  0
   15.1798    4.5433   16.6730 F   0  0  0  0  0  0  0  0  0  0  0  0
   15.1654    1.9680   16.0731 N   0  0  0  0  0  0  0  0  0  0  0  0
   16.6290    2.3875   15.3478 S   0  0  0  0  0  0  0  0  0  0  0  0
   17.5608    2.4969   16.4445 O   0  0  0  0  0  0  0  0  0  0  0  0
   16.7800    1.4483   14.2622 O   0  0  0  0  0  0  0  0  0  0  0  0
   15.2460    1.0406   16.4899 H   0  0  0  0  0  0  0  0  0  0  0  0
   14.4269    1.9616   15.3696 H   0  0  0  0  0  0  0  0  0  0  0  0
  9 10  1  0
 10 11  2  0
 10 12  2  0
 10  1  1  0
  1  2  2  0
  2  3  1  0
  3  4  2  0
  4  5  1  0
  4  6  1  0
  6  7  2  0
  7  8  1  0
  7  1  1  0
  9 13  1  0
  9 14  1  0
M  END
> <minimizedAffinity>
-5.50583

> <CNNscore>
0.9207366705

> <CNNaffinity>
6.3169388771

> <CNN_VS>
5.8162374496

> <CNNaffinity_variance>
0.6011730433

$$$$



 14 14  0  0  0  0  0  0  0  0999 V2000
   15.9398    3.7974   15.4546 C   0  0  0  0  0  0  0  0  0  0  0  0
   14.8312    4.0665   16.2646 C   0  0  0  0  0  0  0  0  0  0  0  0
   14.3254    5.3674   16.3179 C   0  0  0  0  0  0  0  0  0  0  0  0
   14.9282    6.3747   15.5677 C   0  0  0  0  0  0  0  0  0  0  0  0
   14.4370    7.6190   15.6247 F   0  0  0  0  0  0  0  0  0  0  0  0
   16.0288    6.1101   14.7629 C   0  0  0  0  0  0  0  0  0  0  0  0
   16.5311    4.8145   14.7110 C   0  0  0  0  0  0  0  0  0  0  0  0
   17.5928    4.5704   13.9317 F   0  0  0  0  0  0  0  0  0  0  0  0
   15.4862    1.1721   16.0124 N   0  0  0  0  0  0  0  0  0  0  0  0
   16.6398    2.1942   15.3279 S   0  0  0  0  0  0  0  0  0  0  0  0
   17.7745    2.1091   16.2158 O   0  0  0  0  0  0  0  0  0  0  0  0
   16.6842    1.8132   13.9365 O   0  0  0  0  0  0  0  0  0  0  0  0
   15.8212    0.2093   15.9772 H   0  0  0  0  0  0  0  0  0  0  0  0
   14.6129    1.2475   15.4909 H   0  0  0  0  0  0  0  0  0  0  0  0
  9 10  1  0
 10 11  2  0
 10 12  2  0
 10  1  1  0
  1  2  2  0
  2  3  1  0
  3  4  2  0
  4  5  1  0
  4  6  1  0
  6  7  2  0
  7  8  1  0
  7  1  1  0
  9 13  1  0
  9 14  1  0
M  END
> <minimizedAffinity>
-6.28734

> <CNNscore>
0.8811635971

> <CNNaffinity>
6.0241494179

> <CNN_VS>
5.3082613945

> <CNNaffinity_variance>
0.7859608531

$$$$



 14 14  0  0  0  0  0  0  0  0999 V2000
   15.7380    3.9360   15.9312 C   0  0  0  0  0  0  0  0  0  0  0  0
   14.8396    4.7721   16.6031 C   0  0  0  0  0  0  0  0  0  0  0  0
   14.4112    5.9494   15.9854 C   0  0  0  0  0  0  0  0  0  0  0  0
   14.8815    6.2740   14.7149 C   0  0  0  0  0  0  0  0  0  0  0  0
   14.4659    7.4044   14.1299 F   0  0  0  0  0  0  0  0  0  0  0  0
   15.7734    5.4457   14.0458 C   0  0  0  0  0  0  0  0  0  0  0  0
   16.1988    4.2740   14.6622 C   0  0  0  0  0  0  0  0  0  0  0  0
   17.0589    3.4826   14.0081 F   0  0  0  0  0  0  0  0  0  0  0  0
   15.5686    1.2261   15.7401 N   0  0  0  0  0  0  0  0  0  0  0  0
   16.3277    2.4399   16.6314 S   0  0  0  0  0  0  0  0  0  0  0  0
   15.7893    2.3044   17.9637 O   0  0  0  0  0  0  0  0  0  0  0  0
   17.7296    2.2991   16.3184 O   0  0  0  0  0  0  0  0  0  0  0  0
   15.8622    0.3138   16.0893 H   0  0  0  0  0  0  0  0  0  0  0  0
   15.8274    1.3134   14.7574 H   0  0  0  0  0  0  0  0  0  0  0  0
  9 10  1  0
 10 11  2  0
 10 12  2  0
 10  1  1  0
  1  2  2  0
  2  3  1  0
  3  4  2  0
  4  5  1  0
  4  6  1  0
  6  7  2  0
  7  8  1  0
  7  1  1  0
  9 13  1  0
  9 14  1  0
M  END
> <minimizedAffinity>
-6.41387

> <CNNscore>
0.8612090349

> <CNNaffinity>
6.1404037476

> <CNN_VS>
5.2881712914

> <CNNaffinity_variance>
0.4288192689

$$$$



 14 14  0  0  0  0  0  0  0  0999 V2000
   15.5886    4.7130   15.3299 C   0  0  0  0  0  0  0  0  0  0  0  0
   16.2782    3.5388   15.0089 C   0  0  0  0  0  0  0  0  0  0  0  0
   16.1186    2.4113   15.8178 C   0  0  0  0  0  0  0  0  0  0  0  0
   15.2792    2.4704   16.9281 C   0  0  0  0  0  0  0  0  0  0  0  0
   15.1319    1.3852   17.6983 F   0  0  0  0  0  0  0  0  0  0  0  0
   14.5935    3.6348   17.2489 C   0  0  0  0  0  0  0  0  0  0  0  0
   14.7534    4.7564   16.4425 C   0  0  0  0  0  0  0  0  0  0  0  0
   14.0876    5.8740   16.7610 F   0  0  0  0  0  0  0  0  0  0  0  0
   16.3340    5.6500   12.8855 N   0  0  0  0  0  0  0  0  0  0  0  0
   15.7301    6.1742   14.3702 S   0  0  0  0  0  0  0  0  0  0  0  0
   16.7815    6.9947   14.9219 O   0  0  0  0  0  0  0  0  0  0  0  0
   14.4064    6.6663   14.0718 O   0  0  0  0  0  0  0  0  0  0  0  0
   16.4464    6.4498   12.2626 H   0  0  0  0  0  0  0  0  0  0  0  0
   15.6829    4.9840   12.4696 H   0  0  0  0  0  0  0  0  0  0  0  0
  9 10  1  0
 10 11  2  0
 10 12  2  0
 10  1  1  0
  1  2  2  0
  2  3  1  0
  3  4  2  0
  4  5  1  0
  4  6  1  0
  6  7  2  0
  7  8  1  0
  7  1  1  0
  9 13  1  0
  9 14  1  0
M  END
> <minimizedAffinity>
-5.87806

> <CNNscore>
0.7581708431

> <CNNaffinity>
4.2053427696

> <CNN_VS>
3.1883683205

> <CNNaffinity_variance>
0.5840395093

$$$$



 14 14  0  0  0  0  0  0  0  0999 V2000
   16.5150    4.5719   14.9123 C   0  0  0  0  0  0  0  0  0  0  0  0
   15.5534    5.4536   15.4177 C   0  0  0  0  0  0  0  0  0  0  0  0
   15.2280    6.5992   14.6879 C   0  0  0  0  0  0  0  0  0  0  0  0
   15.8620    6.8479   13.4726 C   0  0  0  0  0  0  0  0  0  0  0  0
   15.5443    7.9485   12.7794 F   0  0  0  0  0  0  0  0  0  0  0  0
   16.8170    5.9743   12.9687 C   0  0  0  0  0  0  0  0  0  0  0  0
   17.1397    4.8341   13.6965 C   0  0  0  0  0  0  0  0  0  0  0  0
   18.0620    3.9985   13.2014 F   0  0  0  0  0  0  0  0  0  0  0  0
   16.0442    3.1134   17.1617 N   0  0  0  0  0  0  0  0  0  0  0  0
   16.9842    3.1108   15.7615 S   0  0  0  0  0  0  0  0  0  0  0  0
   18.3402    3.2602   16.2329 O   0  0  0  0  0  0  0  0  0  0  0  0
   16.5202    1.9670   15.0134 O   0  0  0  0  0  0  0  0  0  0  0  0
   16.2598    2.2857   17.7175 H   0  0  0  0  0  0  0  0  0  0  0  0
   15.0563    3.1046   16.9080 H   0  0  0  0  0  0  0  0  0  0  0  0
  9 10  1  0
 10 11  2  0
 10 12  2  0
 10  1  1  0
  1  2  2  0
  2  3  1  0
  3  4  2  0
  4  5  1  0
  4  6  1  0
  6  7  2  0
  7  8  1  0
  7  1  1  0
  9 13  1  0
  9 14  1  0
M  END
> <minimizedAffinity>
-5.53493

> <CNNscore>
0.6781622767

> <CNNaffinity>
5.3076376915

> <CNN_VS>
3.5994396210

> <CNNaffinity_variance>
0.1413428336

$$$$
