


 27 28  0  0  0  0  0  0  0  0999 V2000
   58.7621   76.7630   -6.7543 O   0  0  0  0  0  0  0  0  0  0  0  0
   58.1814   75.7250   -7.0814 C   0  0  0  0  0  0  0  0  0  0  0  0
   58.3224   75.1708   -8.4891 C   0  0  0  0  0  0  0  0  0  0  0  0
   58.7992   73.7203   -8.5668 C   0  0  0  0  0  0  0  0  0  0  0  0
   60.0090   73.3797   -7.6944 C   0  0  0  0  0  0  0  0  0  0  0  0
   61.2646   74.1975   -8.0132 C   0  0  0  0  0  0  0  0  0  0  0  0
   62.2962   74.1269   -6.8826 C   0  0  0  0  0  0  0  0  0  0  0  0
   61.8387   74.9002   -5.6757 C   0  0  0  0  0  0  0  0  0  0  0  0
   61.5564   74.3511   -4.4839 C   0  0  0  0  0  0  0  0  0  0  0  0
   61.1062   75.1490   -3.2891 C   0  0  0  0  0  0  0  0  0  0  0  0
   59.7632   74.6744   -2.7224 C   0  0  0  0  0  0  0  0  0  0  0  0
   58.6353   75.0285   -3.5469 O   0  0  0  0  0  0  0  0  0  0  0  0
   58.2387   76.3176   -3.4714 C   0  0  0  0  0  0  0  0  0  0  0  0
   58.7994   77.1957   -2.8267 O   0  0  0  0  0  0  0  0  0  0  0  0
   56.9010   76.5491   -4.0934 C   0  0  0  0  0  0  0  0  0  0  0  0
   56.0773   77.4896   -3.4247 C   0  0  0  0  0  0  0  0  0  0  0  0
   56.4951   78.1513   -2.2911 O   0  0  0  0  0  0  0  0  0  0  0  0
   54.7927   77.7800   -3.8924 C   0  0  0  0  0  0  0  0  0  0  0  0
   53.6732   79.0210   -2.9774 Br  0  0  0  0  0  0  0  0  0  0  0  0
   54.3260   77.1671   -5.0526 C   0  0  0  0  0  0  0  0  0  0  0  0
   53.0725   77.4527   -5.5368 O   0  0  0  0  0  0  0  0  0  0  0  0
   55.1382   76.2583   -5.7480 C   0  0  0  0  0  0  0  0  0  0  0  0
   54.5165   75.5857   -7.2299 Cl  0  0  0  0  0  0  0  0  0  0  0  0
   56.4317   75.9140   -5.2764 C   0  0  0  0  0  0  0  0  0  0  0  0
   57.2925   74.9770   -6.1056 C   0  0  0  0  0  0  0  0  0  0  0  0
   57.3489   77.9882   -1.9413 H   0  0  0  0  0  0  0  0  0  0  0  0
   52.5209   78.0579   -5.0812 H   0  0  0  0  0  0  0  0  0  0  0  0
  1  2  2  0
  2  3  1  0
  3  4  1  0
  4  5  1  0
  5  6  1  0
  6  7  1  0
  7  8  1  0
  8  9  2  0
  9 10  1  0
 10 11  1  0
 11 12  1  0
 12 13  1  0
 13 14  2  0
 13 15  1  0
 15 16  2  0
 16 17  1  0
 16 18  1  0
 18 19  1  0
 18 20  2  0
 20 21  1  0
 20 22  1  0
 22 23  1  0
 22 24  2  0
 24 25  1  0
 25  2  1  0
 24 15  1  0
 17 26  1  0
 21 27  1  0
M  END
> <minimizedAffinity>
-8.06843

> <CNNscore>
0.8508663774

> <CNNaffinity>
6.2829017639

> <CNN_VS>
5.3459100723

> <CNNaffinity_variance>
0.1993733197

$$$$



 27 28  0  0  0  0  0  0  0  0999 V2000
   60.4343   76.6994   -5.0056 O   0  0  0  0  0  0  0  0  0  0  0  0
   60.1204   75.5564   -5.3472 C   0  0  0  0  0  0  0  0  0  0  0  0
   60.7413   74.9193   -6.5789 C   0  0  0  0  0  0  0  0  0  0  0  0
   61.4106   73.5661   -6.3376 C   0  0  0  0  0  0  0  0  0  0  0  0
   62.3456   73.5029   -5.1283 C   0  0  0  0  0  0  0  0  0  0  0  0
   63.5175   74.4879   -5.1870 C   0  0  0  0  0  0  0  0  0  0  0  0
   64.1717   74.6818   -3.8153 C   0  0  0  0  0  0  0  0  0  0  0  0
   63.2806   75.4654   -2.8901 C   0  0  0  0  0  0  0  0  0  0  0  0
   62.7377   74.9770   -1.7640 C   0  0  0  0  0  0  0  0  0  0  0  0
   61.8537   75.7849   -0.8515 C   0  0  0  0  0  0  0  0  0  0  0  0
   60.4803   75.1431   -0.6242 C   0  0  0  0  0  0  0  0  0  0  0  0
   59.6069   75.2371   -1.7669 O   0  0  0  0  0  0  0  0  0  0  0  0
   59.0359   76.4448   -1.9676 C   0  0  0  0  0  0  0  0  0  0  0  0
   59.2593   77.4534   -1.3089 O   0  0  0  0  0  0  0  0  0  0  0  0
   57.9211   76.4003   -2.9601 C   0  0  0  0  0  0  0  0  0  0  0  0
   56.8187   77.2434   -2.6703 C   0  0  0  0  0  0  0  0  0  0  0  0
   56.7926   78.0559   -1.5582 O   0  0  0  0  0  0  0  0  0  0  0  0
   55.7009   77.2782   -3.5086 C   0  0  0  0  0  0  0  0  0  0  0  0
   54.2059   78.3881   -3.1040 Br  0  0  0  0  0  0  0  0  0  0  0  0
   55.6821   76.5035   -4.6656 C   0  0  0  0  0  0  0  0  0  0  0  0
   54.5992   76.5373   -5.5104 O   0  0  0  0  0  0  0  0  0  0  0  0
   56.7771   75.6873   -4.9881 C   0  0  0  0  0  0  0  0  0  0  0  0
   56.7139   74.8019   -6.4871 Cl  0  0  0  0  0  0  0  0  0  0  0  0
   57.9094   75.6013   -4.1368 C   0  0  0  0  0  0  0  0  0  0  0  0
   59.0935   74.7545   -4.5697 C   0  0  0  0  0  0  0  0  0  0  0  0
   57.5201   78.0654   -0.9678 H   0  0  0  0  0  0  0  0  0  0  0  0
   53.8621   77.0784   -5.3058 H   0  0  0  0  0  0  0  0  0  0  0  0
  1  2  2  0
  2  3  1  0
  3  4  1  0
  4  5  1  0
  5  6  1  0
  6  7  1  0
  7  8  1  0
  8  9  2  0
  9 10  1  0
 10 11  1  0
 11 12  1  0
 12 13  1  0
 13 14  2  0
 13 15  1  0
 15 16  2  0
 16 17  1  0
 16 18  1  0
 18 19  1  0
 18 20  2  0
 20 21  1  0
 20 22  1  0
 22 23  1  0
 22 24  2  0
 24 25  1  0
 25  2  1  0
 24 15  1  0
 17 26  1  0
 21 27  1  0
M  END
> <minimizedAffinity>
-7.74319

> <CNNscore>
0.6656041741

> <CNNaffinity>
6.1234664917

> <CNN_VS>
4.0758047104

> <CNNaffinity_variance>
0.0003472290

$$$$



 27 28  0  0  0  0  0  0  0  0999 V2000
   59.8733   74.1335   -2.1759 O   0  0  0  0  0  0  0  0  0  0  0  0
   59.9415   75.2434   -1.6420 C   0  0  0  0  0  0  0  0  0  0  0  0
   60.2703   75.3717   -0.1641 C   0  0  0  0  0  0  0  0  0  0  0  0
   61.4619   76.2745    0.1559 C   0  0  0  0  0  0  0  0  0  0  0  0
   62.7139   76.0327   -0.6895 C   0  0  0  0  0  0  0  0  0  0  0  0
   63.2850   74.6156   -0.5768 C   0  0  0  0  0  0  0  0  0  0  0  0
   64.2572   74.2977   -1.7175 C   0  0  0  0  0  0  0  0  0  0  0  0
   63.5310   74.1316   -3.0248 C   0  0  0  0  0  0  0  0  0  0  0  0
   63.6791   74.9422   -4.0843 C   0  0  0  0  0  0  0  0  0  0  0  0
   62.9446   74.7500   -5.3845 C   0  0  0  0  0  0  0  0  0  0  0  0
   62.1281   75.9793   -5.7994 C   0  0  0  0  0  0  0  0  0  0  0  0
   60.9399   76.1730   -5.0070 O   0  0  0  0  0  0  0  0  0  0  0  0
   59.9038   75.3567   -5.2988 C   0  0  0  0  0  0  0  0  0  0  0  0
   59.9286   74.4433   -6.1149 O   0  0  0  0  0  0  0  0  0  0  0  0
   58.6225   75.8018   -4.6743 C   0  0  0  0  0  0  0  0  0  0  0  0
   57.4636   75.6092   -5.4680 C   0  0  0  0  0  0  0  0  0  0  0  0
   57.5216   75.0360   -6.7192 O   0  0  0  0  0  0  0  0  0  0  0  0
   56.2041   76.0036   -5.0080 C   0  0  0  0  0  0  0  0  0  0  0  0
   54.6500   75.7732   -6.0860 Br  0  0  0  0  0  0  0  0  0  0  0  0
   56.0768   76.5595   -3.7375 C   0  0  0  0  0  0  0  0  0  0  0  0
   54.8447   76.9379   -3.2618 O   0  0  0  0  0  0  0  0  0  0  0  0
   57.2068   76.7281   -2.9229 C   0  0  0  0  0  0  0  0  0  0  0  0
   56.9620   77.3626   -1.3190 Cl  0  0  0  0  0  0  0  0  0  0  0  0
   58.5037   76.3733   -3.3773 C   0  0  0  0  0  0  0  0  0  0  0  0
   59.6808   76.5146   -2.4281 C   0  0  0  0  0  0  0  0  0  0  0  0
   58.3448   74.7562   -7.0686 H   0  0  0  0  0  0  0  0  0  0  0  0
   54.0828   76.8302   -3.7964 H   0  0  0  0  0  0  0  0  0  0  0  0
  1  2  2  0
  2  3  1  0
  3  4  1  0
  4  5  1  0
  5  6  1  0
  6  7  1  0
  7  8  1  0
  8  9  2  0
  9 10  1  0
 10 11  1  0
 11 12  1  0
 12 13  1  0
 13 14  2  0
 13 15  1  0
 15 16  2  0
 16 17  1  0
 16 18  1  0
 18 19  1  0
 18 20  2  0
 20 21  1  0
 20 22  1  0
 22 23  1  0
 22 24  2  0
 24 25  1  0
 25  2  1  0
 24 15  1  0
 17 26  1  0
 21 27  1  0
M  END
> <minimizedAffinity>
-7.54657

> <CNNscore>
0.2946901321

> <CNNaffinity>
5.6240410805

> <CNN_VS>
1.6573494673

> <CNNaffinity_variance>
0.0606865138

$$$$



 27 28  0  0  0  0  0  0  0  0999 V2000
   58.3773   77.7274   -3.2077 O   0  0  0  0  0  0  0  0  0  0  0  0
   58.0391   76.8686   -2.3894 C   0  0  0  0  0  0  0  0  0  0  0  0
   57.1667   77.2342   -1.2003 C   0  0  0  0  0  0  0  0  0  0  0  0
   55.8864   76.4102   -1.0617 C   0  0  0  0  0  0  0  0  0  0  0  0
   55.0674   76.2497   -2.3439 C   0  0  0  0  0  0  0  0  0  0  0  0
   54.5903   77.5710   -2.9552 C   0  0  0  0  0  0  0  0  0  0  0  0
   54.1465   77.4008   -4.4117 C   0  0  0  0  0  0  0  0  0  0  0  0
   55.3235   77.1594   -5.3174 C   0  0  0  0  0  0  0  0  0  0  0  0
   55.5356   76.0240   -6.0011 C   0  0  0  0  0  0  0  0  0  0  0  0
   56.7193   75.8101   -6.9067 C   0  0  0  0  0  0  0  0  0  0  0  0
   57.5497   74.5787   -6.5275 C   0  0  0  0  0  0  0  0  0  0  0  0
   58.3331   74.7611   -5.3316 O   0  0  0  0  0  0  0  0  0  0  0  0
   59.4535   75.5022   -5.4747 C   0  0  0  0  0  0  0  0  0  0  0  0
   59.8000   76.0728   -6.5020 O   0  0  0  0  0  0  0  0  0  0  0  0
   60.3701   75.3985   -4.3005 C   0  0  0  0  0  0  0  0  0  0  0  0
   61.7534   75.3921   -4.6113 C   0  0  0  0  0  0  0  0  0  0  0  0
   62.2119   75.4916   -5.9064 O   0  0  0  0  0  0  0  0  0  0  0  0
   62.7156   75.2772   -3.6040 C   0  0  0  0  0  0  0  0  0  0  0  0
   64.5739   75.2379   -4.0229 Br  0  0  0  0  0  0  0  0  0  0  0  0
   62.3148   75.2058   -2.2723 C   0  0  0  0  0  0  0  0  0  0  0  0
   63.2467   75.1094   -1.2674 O   0  0  0  0  0  0  0  0  0  0  0  0
   60.9518   75.2441   -1.9409 C   0  0  0  0  0  0  0  0  0  0  0  0
   60.5278   75.2231   -0.2513 Cl  0  0  0  0  0  0  0  0  0  0  0  0
   59.9504   75.3209   -2.9437 C   0  0  0  0  0  0  0  0  0  0  0  0
   58.4947   75.4276   -2.5240 C   0  0  0  0  0  0  0  0  0  0  0  0
   61.6030   75.5704   -6.6142 H   0  0  0  0  0  0  0  0  0  0  0  0
   64.1597   75.0830   -1.4762 H   0  0  0  0  0  0  0  0  0  0  0  0
  1  2  2  0
  2  3  1  0
  3  4  1  0
  4  5  1  0
  5  6  1  0
  6  7  1  0
  7  8  1  0
  8  9  2  0
  9 10  1  0
 10 11  1  0
 11 12  1  0
 12 13  1  0
 13 14  2  0
 13 15  1  0
 15 16  2  0
 16 17  1  0
 16 18  1  0
 18 19  1  0
 18 20  2  0
 20 21  1  0
 20 22  1  0
 22 23  1  0
 22 24  2  0
 24 25  1  0
 25  2  1  0
 24 15  1  0
 17 26  1  0
 21 27  1  0
M  END
> <minimizedAffinity>
-9.06113

> <CNNscore>
0.2312221229

> <CNNaffinity>
5.3412203789

> <CNN_VS>
1.2350083590

> <CNNaffinity_variance>
0.4417303801

$$$$



 27 28  0  0  0  0  0  0  0  0999 V2000
   59.1021   74.3452   -6.8832 O   0  0  0  0  0  0  0  0  0  0  0  0
   58.1722   74.7227   -7.6004 C   0  0  0  0  0  0  0  0  0  0  0  0
   56.7648   74.1920   -7.3851 C   0  0  0  0  0  0  0  0  0  0  0  0
   55.6948   75.2649   -7.1817 C   0  0  0  0  0  0  0  0  0  0  0  0
   56.0506   76.3648   -6.1796 C   0  0  0  0  0  0  0  0  0  0  0  0
   56.3364   75.8567   -4.7628 C   0  0  0  0  0  0  0  0  0  0  0  0
   57.0715   76.9016   -3.9172 C   0  0  0  0  0  0  0  0  0  0  0  0
   58.4950   77.0718   -4.3740 C   0  0  0  0  0  0  0  0  0  0  0  0
   58.9926   78.1995   -4.9052 C   0  0  0  0  0  0  0  0  0  0  0  0
   60.4239   78.3460   -5.3488 C   0  0  0  0  0  0  0  0  0  0  0  0
   60.5569   78.7611   -6.8184 C   0  0  0  0  0  0  0  0  0  0  0  0
   60.2422   77.7024   -7.7444 O   0  0  0  0  0  0  0  0  0  0  0  0
   61.1970   76.7594   -7.8995 C   0  0  0  0  0  0  0  0  0  0  0  0
   62.2482   76.7043   -7.2726 O   0  0  0  0  0  0  0  0  0  0  0  0
   60.9524   75.8766   -9.0788 C   0  0  0  0  0  0  0  0  0  0  0  0
   62.1133   75.4836   -9.7916 C   0  0  0  0  0  0  0  0  0  0  0  0
   63.3757   75.8788   -9.4073 O   0  0  0  0  0  0  0  0  0  0  0  0
   62.0193   74.6755  -10.9282 C   0  0  0  0  0  0  0  0  0  0  0  0
   63.5760   74.1717  -11.9046 Br  0  0  0  0  0  0  0  0  0  0  0  0
   60.7730   74.2171  -11.3474 C   0  0  0  0  0  0  0  0  0  0  0  0
   60.6626   73.4084  -12.4525 O   0  0  0  0  0  0  0  0  0  0  0  0
   59.6149   74.5673  -10.6365 C   0  0  0  0  0  0  0  0  0  0  0  0
   58.0996   73.8986  -11.1765 Cl  0  0  0  0  0  0  0  0  0  0  0  0
   59.6743   75.4178   -9.5020 C   0  0  0  0  0  0  0  0  0  0  0  0
   58.3980   75.7082   -8.7317 C   0  0  0  0  0  0  0  0  0  0  0  0
   63.4870   76.4211   -8.6514 H   0  0  0  0  0  0  0  0  0  0  0  0
   61.4287   73.1677  -12.9353 H   0  0  0  0  0  0  0  0  0  0  0  0
  1  2  2  0
  2  3  1  0
  3  4  1  0
  4  5  1  0
  5  6  1  0
  6  7  1  0
  7  8  1  0
  8  9  2  0
  9 10  1  0
 10 11  1  0
 11 12  1  0
 12 13  1  0
 13 14  2  0
 13 15  1  0
 15 16  2  0
 16 17  1  0
 16 18  1  0
 18 19  1  0
 18 20  2  0
 20 21  1  0
 20 22  1  0
 22 23  1  0
 22 24  2  0
 24 25  1  0
 25  2  1  0
 24 15  1  0
 17 26  1  0
 21 27  1  0
M  END
> <minimizedAffinity>
-6.50558

> <CNNscore>
0.2278157175

> <CNNaffinity>
4.0167369843

> <CNN_VS>
0.9150758386

> <CNNaffinity_variance>
1.1396409273

$$$$



 27 28  0  0  0  0  0  0  0  0999 V2000
   60.5874   74.1873   -5.1543 O   0  0  0  0  0  0  0  0  0  0  0  0
   60.9681   75.3373   -5.3871 C   0  0  0  0  0  0  0  0  0  0  0  0
   62.0320   75.9901   -4.5207 C   0  0  0  0  0  0  0  0  0  0  0  0
   63.2453   76.5249   -5.2819 C   0  0  0  0  0  0  0  0  0  0  0  0
   63.8524   75.5648   -6.3067 C   0  0  0  0  0  0  0  0  0  0  0  0
   64.3442   74.2406   -5.7138 C   0  0  0  0  0  0  0  0  0  0  0  0
   64.5552   73.1735   -6.7927 C   0  0  0  0  0  0  0  0  0  0  0  0
   63.2428   72.6860   -7.3439 C   0  0  0  0  0  0  0  0  0  0  0  0
   62.8390   72.8621   -8.6118 C   0  0  0  0  0  0  0  0  0  0  0  0
   61.5223   72.3582   -9.1403 C   0  0  0  0  0  0  0  0  0  0  0  0
   60.6558   73.4674   -9.7475 C   0  0  0  0  0  0  0  0  0  0  0  0
   60.0730   74.3440   -8.7630 O   0  0  0  0  0  0  0  0  0  0  0  0
   59.0098   73.8465   -8.0945 C   0  0  0  0  0  0  0  0  0  0  0  0
   58.5663   72.7105   -8.2119 O   0  0  0  0  0  0  0  0  0  0  0  0
   58.2687   74.8909   -7.3264 C   0  0  0  0  0  0  0  0  0  0  0  0
   56.8592   74.7389   -7.3033 C   0  0  0  0  0  0  0  0  0  0  0  0
   56.2268   73.6900   -7.9335 O   0  0  0  0  0  0  0  0  0  0  0  0
   56.0479   75.6619   -6.6374 C   0  0  0  0  0  0  0  0  0  0  0  0
   54.1517   75.4757   -6.6313 Br  0  0  0  0  0  0  0  0  0  0  0  0
   56.6311   76.7260   -5.9542 C   0  0  0  0  0  0  0  0  0  0  0  0
   55.8508   77.6338   -5.2800 O   0  0  0  0  0  0  0  0  0  0  0  0
   58.0262   76.8758   -5.9367 C   0  0  0  0  0  0  0  0  0  0  0  0
   58.6886   78.1883   -5.0021 Cl  0  0  0  0  0  0  0  0  0  0  0  0
   58.8736   75.9772   -6.6358 C   0  0  0  0  0  0  0  0  0  0  0  0
   60.3787   76.1482   -6.5260 C   0  0  0  0  0  0  0  0  0  0  0  0
   56.7305   73.0469   -8.3925 H   0  0  0  0  0  0  0  0  0  0  0  0
   54.9181   77.5444   -5.2843 H   0  0  0  0  0  0  0  0  0  0  0  0
  1  2  2  0
  2  3  1  0
  3  4  1  0
  4  5  1  0
  5  6  1  0
  6  7  1  0
  7  8  1  0
  8  9  2  0
  9 10  1  0
 10 11  1  0
 11 12  1  0
 12 13  1  0
 13 14  2  0
 13 15  1  0
 15 16  2  0
 16 17  1  0
 16 18  1  0
 18 19  1  0
 18 20  2  0
 20 21  1  0
 20 22  1  0
 22 23  1  0
 22 24  2  0
 24 25  1  0
 25  2  1  0
 24 15  1  0
 17 26  1  0
 21 27  1  0
M  END
> <minimizedAffinity>
-6.08275

> <CNNscore>
0.2196756303

> <CNNaffinity>
4.2838540077

> <CNN_VS>
0.9410583377

> <CNNaffinity_variance>
0.6432777047

$$$$



 27 28  0  0  0  0  0  0  0  0999 V2000
   61.9383   76.2179   -5.9305 O   0  0  0  0  0  0  0  0  0  0  0  0
   60.7761   75.8569   -5.7287 C   0  0  0  0  0  0  0  0  0  0  0  0
   59.6114   76.6329   -6.3203 C   0  0  0  0  0  0  0  0  0  0  0  0
   58.6440   75.8017   -7.1633 C   0  0  0  0  0  0  0  0  0  0  0  0
   59.2978   74.8782   -8.1930 C   0  0  0  0  0  0  0  0  0  0  0  0
   60.1603   75.6037   -9.2307 C   0  0  0  0  0  0  0  0  0  0  0  0
   61.1016   74.6435   -9.9650 C   0  0  0  0  0  0  0  0  0  0  0  0
   62.2082   74.1665   -9.0640 C   0  0  0  0  0  0  0  0  0  0  0  0
   62.3754   72.8928   -8.6751 C   0  0  0  0  0  0  0  0  0  0  0  0
   63.4959   72.4402   -7.7772 C   0  0  0  0  0  0  0  0  0  0  0  0
   63.0012   71.7288   -6.5127 C   0  0  0  0  0  0  0  0  0  0  0  0
   62.4128   72.6209   -5.5455 O   0  0  0  0  0  0  0  0  0  0  0  0
   63.2855   73.3540   -4.8205 C   0  0  0  0  0  0  0  0  0  0  0  0
   64.5010   73.3661   -4.9742 O   0  0  0  0  0  0  0  0  0  0  0  0
   62.6480   74.0150   -3.6430 C   0  0  0  0  0  0  0  0  0  0  0  0
   63.4493   74.0739   -2.4748 C   0  0  0  0  0  0  0  0  0  0  0  0
   64.7307   73.5696   -2.4413 O   0  0  0  0  0  0  0  0  0  0  0  0
   62.9616   74.6475   -1.2973 C   0  0  0  0  0  0  0  0  0  0  0  0
   64.0263   74.7000    0.2821 Br  0  0  0  0  0  0  0  0  0  0  0  0
   61.6851   75.2037   -1.2782 C   0  0  0  0  0  0  0  0  0  0  0  0
   61.1950   75.7866   -0.1348 O   0  0  0  0  0  0  0  0  0  0  0  0
   60.8884   75.1854   -2.4332 C   0  0  0  0  0  0  0  0  0  0  0  0
   59.3316   75.9635   -2.3560 Cl  0  0  0  0  0  0  0  0  0  0  0  0
   61.3409   74.5757   -3.6323 C   0  0  0  0  0  0  0  0  0  0  0  0
   60.4640   74.6455   -4.8703 C   0  0  0  0  0  0  0  0  0  0  0  0
   65.0994   73.1758   -3.2074 H   0  0  0  0  0  0  0  0  0  0  0  0
   61.7176   75.8050    0.6428 H   0  0  0  0  0  0  0  0  0  0  0  0
  1  2  2  0
  2  3  1  0
  3  4  1  0
  4  5  1  0
  5  6  1  0
  6  7  1  0
  7  8  1  0
  8  9  2  0
  9 10  1  0
 10 11  1  0
 11 12  1  0
 12 13  1  0
 13 14  2  0
 13 15  1  0
 15 16  2  0
 16 17  1  0
 16 18  1  0
 18 19  1  0
 18 20  2  0
 20 21  1  0
 20 22  1  0
 22 23  1  0
 22 24  2  0
 24 25  1  0
 25  2  1  0
 24 15  1  0
 17 26  1  0
 21 27  1  0
M  END
> <minimizedAffinity>
-5.93380

> <CNNscore>
0.2142022699

> <CNNaffinity>
4.4174075127

> <CNN_VS>
0.9462187290

> <CNNaffinity_variance>
0.7768712044

$$$$



 27 28  0  0  0  0  0  0  0  0999 V2000
   60.4637   77.4447   -4.9952 O   0  0  0  0  0  0  0  0  0  0  0  0
   59.3796   76.9795   -4.6349 C   0  0  0  0  0  0  0  0  0  0  0  0
   58.1065   77.7998   -4.7584 C   0  0  0  0  0  0  0  0  0  0  0  0
   56.9785   77.1267   -5.5407 C   0  0  0  0  0  0  0  0  0  0  0  0
   57.3879   76.5021   -6.8759 C   0  0  0  0  0  0  0  0  0  0  0  0
   57.9888   77.4943   -7.8766 C   0  0  0  0  0  0  0  0  0  0  0  0
   58.7454   76.7836   -9.0035 C   0  0  0  0  0  0  0  0  0  0  0  0
   60.0300   76.1800   -8.5041 C   0  0  0  0  0  0  0  0  0  0  0  0
   60.2885   74.8633   -8.4717 C   0  0  0  0  0  0  0  0  0  0  0  0
   61.5859   74.2849   -7.9726 C   0  0  0  0  0  0  0  0  0  0  0  0
   61.3943   73.2765   -6.8340 C   0  0  0  0  0  0  0  0  0  0  0  0
   61.0346   73.8888   -5.5798 O   0  0  0  0  0  0  0  0  0  0  0  0
   62.0444   74.4877   -4.9115 C   0  0  0  0  0  0  0  0  0  0  0  0
   63.1934   74.6060   -5.3199 O   0  0  0  0  0  0  0  0  0  0  0  0
   61.6859   74.8246   -3.5016 C   0  0  0  0  0  0  0  0  0  0  0  0
   62.7303   74.6631   -2.5565 C   0  0  0  0  0  0  0  0  0  0  0  0
   63.9890   74.2407   -2.9234 O   0  0  0  0  0  0  0  0  0  0  0  0
   62.5182   74.9238   -1.1999 C   0  0  0  0  0  0  0  0  0  0  0  0
   63.9123   74.6780    0.0756 Br  0  0  0  0  0  0  0  0  0  0  0  0
   61.2758   75.3849   -0.7721 C   0  0  0  0  0  0  0  0  0  0  0  0
   61.0536   75.6624    0.5550 O   0  0  0  0  0  0  0  0  0  0  0  0
   60.2385   75.5832   -1.6962 C   0  0  0  0  0  0  0  0  0  0  0  0
   58.7349   76.2302   -1.1000 Cl  0  0  0  0  0  0  0  0  0  0  0  0
   60.4117   75.2902   -3.0740 C   0  0  0  0  0  0  0  0  0  0  0  0
   59.2770   75.5881   -4.0385 C   0  0  0  0  0  0  0  0  0  0  0  0
   64.1772   74.0540   -3.8221 H   0  0  0  0  0  0  0  0  0  0  0  0
   61.7384   75.5340    1.1815 H   0  0  0  0  0  0  0  0  0  0  0  0
  1  2  2  0
  2  3  1  0
  3  4  1  0
  4  5  1  0
  5  6  1  0
  6  7  1  0
  7  8  1  0
  8  9  2  0
  9 10  1  0
 10 11  1  0
 11 12  1  0
 12 13  1  0
 13 14  2  0
 13 15  1  0
 15 16  2  0
 16 17  1  0
 16 18  1  0
 18 19  1  0
 18 20  2  0
 20 21  1  0
 20 22  1  0
 22 23  1  0
 22 24  2  0
 24 25  1  0
 25  2  1  0
 24 15  1  0
 17 26  1  0
 21 27  1  0
M  END
> <minimizedAffinity>
-7.37793

> <CNNscore>
0.2066211700

> <CNNaffinity>
4.8892140388

> <CNN_VS>
1.0102151632

> <CNNaffinity_variance>
0.7013465762

$$$$



 27 28  0  0  0  0  0  0  0  0999 V2000
   58.6264   74.4332   -6.8367 O   0  0  0  0  0  0  0  0  0  0  0  0
   58.5904   74.9628   -7.9502 C   0  0  0  0  0  0  0  0  0  0  0  0
   57.5302   76.0004   -8.2790 C   0  0  0  0  0  0  0  0  0  0  0  0
   58.0711   77.3370   -8.7871 C   0  0  0  0  0  0  0  0  0  0  0  0
   59.2203   77.9325   -7.9713 C   0  0  0  0  0  0  0  0  0  0  0  0
   58.8735   78.2092   -6.5050 C   0  0  0  0  0  0  0  0  0  0  0  0
   60.1277   78.4065   -5.6475 C   0  0  0  0  0  0  0  0  0  0  0  0
   60.8657   77.1100   -5.4512 C   0  0  0  0  0  0  0  0  0  0  0  0
   62.0982   76.8591   -5.9194 C   0  0  0  0  0  0  0  0  0  0  0  0
   62.8177   75.5543   -5.7034 C   0  0  0  0  0  0  0  0  0  0  0  0
   63.2510   74.8844   -7.0123 C   0  0  0  0  0  0  0  0  0  0  0  0
   62.1563   74.3077   -7.7515 O   0  0  0  0  0  0  0  0  0  0  0  0
   61.6866   73.1329   -7.2779 C   0  0  0  0  0  0  0  0  0  0  0  0
   62.0665   72.5782   -6.2538 O   0  0  0  0  0  0  0  0  0  0  0  0
   60.7811   72.4405   -8.2425 C   0  0  0  0  0  0  0  0  0  0  0  0
   60.8977   71.0279   -8.2746 C   0  0  0  0  0  0  0  0  0  0  0  0
   61.7749   70.3482   -7.4586 O   0  0  0  0  0  0  0  0  0  0  0  0
   60.1220   70.2627   -9.1501 C   0  0  0  0  0  0  0  0  0  0  0  0
   60.2994   68.3667   -9.2158 Br  0  0  0  0  0  0  0  0  0  0  0  0
   59.1937   70.8901   -9.9771 C   0  0  0  0  0  0  0  0  0  0  0  0
   58.4106   70.1530  -10.8321 O   0  0  0  0  0  0  0  0  0  0  0  0
   59.0391   72.2842   -9.9369 C   0  0  0  0  0  0  0  0  0  0  0  0
   57.8089   72.9924  -10.9468 Cl  0  0  0  0  0  0  0  0  0  0  0  0
   59.8394   73.0912   -9.0869 C   0  0  0  0  0  0  0  0  0  0  0  0
   59.5820   74.5871   -9.0352 C   0  0  0  0  0  0  0  0  0  0  0  0
   62.3152   70.8199   -6.8557 H   0  0  0  0  0  0  0  0  0  0  0  0
   58.5046   69.2214  -10.8679 H   0  0  0  0  0  0  0  0  0  0  0  0
  1  2  2  0
  2  3  1  0
  3  4  1  0
  4  5  1  0
  5  6  1  0
  6  7  1  0
  7  8  1  0
  8  9  2  0
  9 10  1  0
 10 11  1  0
 11 12  1  0
 12 13  1  0
 13 14  2  0
 13 15  1  0
 15 16  2  0
 16 17  1  0
 16 18  1  0
 18 19  1  0
 18 20  2  0
 20 21  1  0
 20 22  1  0
 22 23  1  0
 22 24  2  0
 24 25  1  0
 25  2  1  0
 24 15  1  0
 17 26  1  0
 21 27  1  0
M  END
> <minimizedAffinity>
-6.41742

> <CNNscore>
0.2032168359

> <CNNaffinity>
3.9776039124

> <CNN_VS>
0.8083160520

> <CNNaffinity_variance>
0.9305353165

$$$$
