


 30 34  0  0  0  0  0  0  0  0999 V2000
    8.7025   52.0596    1.0323 C   0  0  0  0  0  0  0  0  0  0  0  0
    8.2637   51.2053    0.2582 O   0  0  0  0  0  0  0  0  0  0  0  0
    7.8775   53.0930    1.4994 N   0  0  0  0  0  0  0  0  0  0  0  0
    8.2788   54.0280    2.5472 C   0  0  0  0  0  0  0  0  0  0  0  0
    7.2153   55.0826    2.8450 C   0  0  0  0  0  0  0  0  0  0  0  0
    6.5574   55.5969    1.5582 C   0  0  0  0  0  0  0  0  0  0  0  0
    5.9385   54.4375    0.7457 C   0  0  0  0  0  0  0  0  0  0  0  0
    6.4618   53.0602    1.1545 C   0  0  0  0  0  0  0  0  0  0  0  0
    7.4742   56.4568    0.8109 N   0  0  0  0  0  0  0  0  0  0  0  0
    8.7424   56.1024    0.3967 C   0  0  0  0  0  0  0  0  0  0  0  0
    9.3564   57.0752   -0.2441 N   0  0  0  0  0  0  0  0  0  0  0  0
    8.4642   58.1152   -0.2487 C   0  0  0  0  0  0  0  0  0  0  0  0
    8.5434   59.4172   -0.7762 C   0  0  0  0  0  0  0  0  0  0  0  0
    7.5282   60.3294   -0.6548 N   0  0  0  0  0  0  0  0  0  0  0  0
    6.4476   59.8886    0.0113 C   0  0  0  0  0  0  0  0  0  0  0  0
    5.3034   60.5822    0.2862 N   0  0  0  0  0  0  0  0  0  0  0  0
    4.4519   59.7771    1.0002 C   0  0  0  0  0  0  0  0  0  0  0  0
    2.7369   60.3037    1.6244 Br  0  0  0  0  0  0  0  0  0  0  0  0
    5.0335   58.5388    1.1931 C   0  0  0  0  0  0  0  0  0  0  0  0
    6.2926   58.6318    0.5540 C   0  0  0  0  0  0  0  0  0  0  0  0
    7.3095   57.7365    0.4139 C   0  0  0  0  0  0  0  0  0  0  0  0
    5.1193   61.5106    0.0156 H   0  0  0  0  0  0  0  0  0  0  0  0
   10.9345   50.9241    0.9464 N   0  0  0  0  0  0  0  0  0  0  0  0
   12.2030   51.4048    0.4085 C   0  0  0  0  0  0  0  0  0  0  0  0
   11.8246   52.7544   -0.1667 C   0  0  0  0  0  0  0  0  0  0  0  0
   10.8785   53.3158    0.8804 C   0  0  0  0  0  0  0  0  0  0  0  0
   10.1896   52.0840    1.4803 C   0  0  0  0  0  0  0  0  0  0  0  0
   12.4840   49.2972    1.9908 C   0  0  0  0  0  0  0  0  0  0  0  0
   11.0259   49.7177    1.7734 C   0  0  0  0  0  0  0  0  0  0  0  0
   10.2140   48.5157    1.2725 C   0  0  0  0  0  0  0  0  0  0  0  0
 28 29  1  0
 29 30  1  0
 29 23  1  0
 23 24  1  0
 24 25  1  0
 25 26  1  0
 26 27  1  0
 27  1  1  0
  1  2  2  0
  1  3  1  0
  3  4  1  0
  4  5  1  0
  5  6  1  0
  6  9  1  0
  9 10  1  0
 10 11  2  0
 11 12  1  0
 12 13  2  0
 13 14  1  0
 14 15  2  0
 15 16  1  0
 16 17  1  0
 17 18  1  0
 17 19  2  0
 19 20  1  0
 20 21  2  0
  6  7  1  0
  7  8  1  0
 27 23  1  0
  8  3  1  0
 21  9  1  0
 21 12  1  0
 20 15  1  0
 16 22  1  0
M  END
> <minimizedAffinity>
-7.36840

> <CNNscore>
0.7322745323

> <CNNaffinity>
7.7698168755

> <CNN_VS>
5.6896390915

> <CNNaffinity_variance>
0.0906422138

$$$$



 30 34  0  0  0  0  0  0  0  0999 V2000
    6.3063   51.9105    1.9399 C   0  0  0  0  0  0  0  0  0  0  0  0
    5.5473   51.3305    1.1595 O   0  0  0  0  0  0  0  0  0  0  0  0
    6.1267   53.2696    2.2352 N   0  0  0  0  0  0  0  0  0  0  0  0
    6.8737   53.9695    3.2769 C   0  0  0  0  0  0  0  0  0  0  0  0
    6.5198   55.4520    3.3712 C   0  0  0  0  0  0  0  0  0  0  0  0
    6.3548   56.0803    1.9814 C   0  0  0  0  0  0  0  0  0  0  0  0
    5.2844   55.3332    1.1547 C   0  0  0  0  0  0  0  0  0  0  0  0
    4.9502   53.9457    1.7030 C   0  0  0  0  0  0  0  0  0  0  0  0
    7.6505   56.2353    1.3214 N   0  0  0  0  0  0  0  0  0  0  0  0
    8.7092   55.3554    1.4241 C   0  0  0  0  0  0  0  0  0  0  0  0
    9.7625   55.7479    0.7382 N   0  0  0  0  0  0  0  0  0  0  0  0
    9.3900   56.9356    0.1653 C   0  0  0  0  0  0  0  0  0  0  0  0
   10.0806   57.8307   -0.6724 C   0  0  0  0  0  0  0  0  0  0  0  0
    9.5250   58.9967   -1.1297 N   0  0  0  0  0  0  0  0  0  0  0  0
    8.2676   59.2258   -0.7148 C   0  0  0  0  0  0  0  0  0  0  0  0
    7.4820   60.3043   -1.0068 N   0  0  0  0  0  0  0  0  0  0  0  0
    6.2727   60.1624   -0.3739 C   0  0  0  0  0  0  0  0  0  0  0  0
    4.8504   61.4178   -0.4683 Br  0  0  0  0  0  0  0  0  0  0  0  0
    6.2549   58.9776    0.3365 C   0  0  0  0  0  0  0  0  0  0  0  0
    7.5252   58.4003    0.1009 C   0  0  0  0  0  0  0  0  0  0  0  0
    8.0922   57.2411    0.5368 C   0  0  0  0  0  0  0  0  0  0  0  0
    7.7416   61.0619   -1.5794 H   0  0  0  0  0  0  0  0  0  0  0  0
    7.3352   49.7379    2.6470 N   0  0  0  0  0  0  0  0  0  0  0  0
    8.5610   49.0948    2.1852 C   0  0  0  0  0  0  0  0  0  0  0  0
    9.0357   50.0372    1.0979 C   0  0  0  0  0  0  0  0  0  0  0  0
    8.7602   51.4071    1.6928 C   0  0  0  0  0  0  0  0  0  0  0  0
    7.5294   51.2021    2.5842 C   0  0  0  0  0  0  0  0  0  0  0  0
    6.6043   47.6450    3.7535 C   0  0  0  0  0  0  0  0  0  0  0  0
    6.7529   49.1668    3.8646 C   0  0  0  0  0  0  0  0  0  0  0  0
    5.4178   49.7823    4.3046 C   0  0  0  0  0  0  0  0  0  0  0  0
 28 29  1  0
 29 30  1  0
 29 23  1  0
 23 24  1  0
 24 25  1  0
 25 26  1  0
 26 27  1  0
 27  1  1  0
  1  2  2  0
  1  3  1  0
  3  4  1  0
  4  5  1  0
  5  6  1  0
  6  9  1  0
  9 10  1  0
 10 11  2  0
 11 12  1  0
 12 13  2  0
 13 14  1  0
 14 15  2  0
 15 16  1  0
 16 17  1  0
 17 18  1  0
 17 19  2  0
 19 20  1  0
 20 21  2  0
  6  7  1  0
  7  8  1  0
 27 23  1  0
  8  3  1  0
 21  9  1  0
 21 12  1  0
 20 15  1  0
 16 22  1  0
M  END
> <minimizedAffinity>
-7.61093

> <CNNscore>
0.3887010515

> <CNNaffinity>
7.3502116203

> <CNN_VS>
2.8570349216

> <CNNaffinity_variance>
0.3856395781

$$$$



 30 34  0  0  0  0  0  0  0  0999 V2000
    5.9696   52.0289    1.2573 C   0  0  0  0  0  0  0  0  0  0  0  0
    5.0002   51.7711    0.5395 O   0  0  0  0  0  0  0  0  0  0  0  0
    6.0709   53.2688    1.9047 N   0  0  0  0  0  0  0  0  0  0  0  0
    7.0944   53.5719    2.9014 C   0  0  0  0  0  0  0  0  0  0  0  0
    7.0114   55.0038    3.4255 C   0  0  0  0  0  0  0  0  0  0  0  0
    6.7099   55.9989    2.2976 C   0  0  0  0  0  0  0  0  0  0  0  0
    5.4026   55.6291    1.5617 C   0  0  0  0  0  0  0  0  0  0  0  0
    4.9465   54.1920    1.8152 C   0  0  0  0  0  0  0  0  0  0  0  0
    7.8768   56.1792    1.4347 N   0  0  0  0  0  0  0  0  0  0  0  0
    8.9624   55.3290    1.3722 C   0  0  0  0  0  0  0  0  0  0  0  0
    9.8793   55.7399    0.5210 N   0  0  0  0  0  0  0  0  0  0  0  0
    9.3856   56.9094    0.0054 C   0  0  0  0  0  0  0  0  0  0  0  0
    9.9059   57.8111   -0.9412 C   0  0  0  0  0  0  0  0  0  0  0  0
    9.2510   58.9558   -1.3128 N   0  0  0  0  0  0  0  0  0  0  0  0
    8.0714   59.1572   -0.7015 C   0  0  0  0  0  0  0  0  0  0  0  0
    7.2187   60.2106   -0.8718 N   0  0  0  0  0  0  0  0  0  0  0  0
    6.1324   60.0454   -0.0499 C   0  0  0  0  0  0  0  0  0  0  0  0
    4.6787   61.2614    0.0764 Br  0  0  0  0  0  0  0  0  0  0  0  0
    6.2632   58.8702    0.6646 C   0  0  0  0  0  0  0  0  0  0  0  0
    7.4944   58.3235    0.2312 C   0  0  0  0  0  0  0  0  0  0  0  0
    8.1570   57.1856    0.5799 C   0  0  0  0  0  0  0  0  0  0  0  0
    7.3607   60.9670   -1.4858 H   0  0  0  0  0  0  0  0  0  0  0  0
    8.3930   51.7433    1.8266 N   0  0  0  0  0  0  0  0  0  0  0  0
    9.0105   51.0043    2.9230 C   0  0  0  0  0  0  0  0  0  0  0  0
    7.8089   50.5015    3.6970 C   0  0  0  0  0  0  0  0  0  0  0  0
    6.8469   50.0870    2.5973 C   0  0  0  0  0  0  0  0  0  0  0  0
    7.1535   51.0392    1.4350 C   0  0  0  0  0  0  0  0  0  0  0  0
    9.3491   51.1596   -0.3834 C   0  0  0  0  0  0  0  0  0  0  0  0
    9.3121   52.1709    0.7683 C   0  0  0  0  0  0  0  0  0  0  0  0
   10.7437   52.4789    1.2273 C   0  0  0  0  0  0  0  0  0  0  0  0
 28 29  1  0
 29 30  1  0
 29 23  1  0
 23 24  1  0
 24 25  1  0
 25 26  1  0
 26 27  1  0
 27  1  1  0
  1  2  2  0
  1  3  1  0
  3  4  1  0
  4  5  1  0
  5  6  1  0
  6  9  1  0
  9 10  1  0
 10 11  2  0
 11 12  1  0
 12 13  2  0
 13 14  1  0
 14 15  2  0
 15 16  1  0
 16 17  1  0
 17 18  1  0
 17 19  2  0
 19 20  1  0
 20 21  2  0
  6  7  1  0
  7  8  1  0
 27 23  1  0
  8  3  1  0
 21  9  1  0
 21 12  1  0
 20 15  1  0
 16 22  1  0
M  END
> <minimizedAffinity>
-6.31674

> <CNNscore>
0.2516581416

> <CNNaffinity>
7.2547550201

> <CNN_VS>
1.8257181644

> <CNNaffinity_variance>
0.0118085817

$$$$



 30 34  0  0  0  0  0  0  0  0999 V2000
   10.3585   50.5813   -1.5362 C   0  0  0  0  0  0  0  0  0  0  0  0
   10.1092   50.6455   -2.7425 O   0  0  0  0  0  0  0  0  0  0  0  0
   11.2839   51.4565   -0.9493 N   0  0  0  0  0  0  0  0  0  0  0  0
   11.4939   51.5525    0.4928 C   0  0  0  0  0  0  0  0  0  0  0  0
   12.5846   52.5519    0.8717 C   0  0  0  0  0  0  0  0  0  0  0  0
   13.7834   52.4642   -0.0815 C   0  0  0  0  0  0  0  0  0  0  0  0
   13.3485   52.6875   -1.5473 C   0  0  0  0  0  0  0  0  0  0  0  0
   11.8444   52.5244   -1.7678 C   0  0  0  0  0  0  0  0  0  0  0  0
   14.5522   51.2434    0.1575 N   0  0  0  0  0  0  0  0  0  0  0  0
   14.0208   50.0258    0.5325 C   0  0  0  0  0  0  0  0  0  0  0  0
   14.9423   49.0994    0.6952 N   0  0  0  0  0  0  0  0  0  0  0  0
   16.1291   49.7285    0.4244 C   0  0  0  0  0  0  0  0  0  0  0  0
   17.4586   49.2677    0.4318 C   0  0  0  0  0  0  0  0  0  0  0  0
   18.5257   50.0778    0.1448 N   0  0  0  0  0  0  0  0  0  0  0  0
   18.2085   51.3517   -0.1421 C   0  0  0  0  0  0  0  0  0  0  0  0
   19.0650   52.3692   -0.4532 N   0  0  0  0  0  0  0  0  0  0  0  0
   18.3413   53.5162   -0.6621 C   0  0  0  0  0  0  0  0  0  0  0  0
   19.0941   55.2019   -1.1089 Br  0  0  0  0  0  0  0  0  0  0  0  0
   16.9950   53.2545   -0.4954 C   0  0  0  0  0  0  0  0  0  0  0  0
   16.9357   51.8780   -0.1726 C   0  0  0  0  0  0  0  0  0  0  0  0
   15.8877   51.0537    0.1062 C   0  0  0  0  0  0  0  0  0  0  0  0
   20.0444   52.2921   -0.5171 H   0  0  0  0  0  0  0  0  0  0  0  0
   10.7528   48.6114   -0.0385 N   0  0  0  0  0  0  0  0  0  0  0  0
   10.4716   48.4535    1.3847 C   0  0  0  0  0  0  0  0  0  0  0  0
    9.9422   49.8205    1.7677 C   0  0  0  0  0  0  0  0  0  0  0  0
    9.0623   50.1866    0.5852 C   0  0  0  0  0  0  0  0  0  0  0  0
    9.7241   49.5019   -0.6168 C   0  0  0  0  0  0  0  0  0  0  0  0
   12.3413   47.5319   -1.6038 C   0  0  0  0  0  0  0  0  0  0  0  0
   11.0777   47.3724   -0.7504 C   0  0  0  0  0  0  0  0  0  0  0  0
    9.9464   46.7942   -1.6112 C   0  0  0  0  0  0  0  0  0  0  0  0
 28 29  1  0
 29 30  1  0
 29 23  1  0
 23 24  1  0
 24 25  1  0
 25 26  1  0
 26 27  1  0
 27  1  1  0
  1  2  2  0
  1  3  1  0
  3  4  1  0
  4  5  1  0
  5  6  1  0
  6  9  1  0
  9 10  1  0
 10 11  2  0
 11 12  1  0
 12 13  2  0
 13 14  1  0
 14 15  2  0
 15 16  1  0
 16 17  1  0
 17 18  1  0
 17 19  2  0
 19 20  1  0
 20 21  2  0
  6  7  1  0
  7  8  1  0
 27 23  1  0
  8  3  1  0
 21  9  1  0
 21 12  1  0
 20 15  1  0
 16 22  1  0
M  END
> <minimizedAffinity>
-4.97200

> <CNNscore>
0.1437668353

> <CNNaffinity>
4.5115375519

> <CNN_VS>
0.6486094594

> <CNNaffinity_variance>
0.5246596336

$$$$



 30 34  0  0  0  0  0  0  0  0999 V2000
   10.3481   48.9769    1.2272 C   0  0  0  0  0  0  0  0  0  0  0  0
    9.6056   48.9933    2.2121 O   0  0  0  0  0  0  0  0  0  0  0  0
   10.9990   47.7960    0.8416 N   0  0  0  0  0  0  0  0  0  0  0  0
   11.7461   47.6629   -0.4062 C   0  0  0  0  0  0  0  0  0  0  0  0
   12.3928   46.2893   -0.5708 C   0  0  0  0  0  0  0  0  0  0  0  0
   12.9936   45.7888    0.7489 C   0  0  0  0  0  0  0  0  0  0  0  0
   11.9263   45.7398    1.8651 C   0  0  0  0  0  0  0  0  0  0  0  0
   10.6773   46.5634    1.5499 C   0  0  0  0  0  0  0  0  0  0  0  0
   14.2076   46.5319    1.0849 N   0  0  0  0  0  0  0  0  0  0  0  0
   14.9012   47.3589    0.2245 C   0  0  0  0  0  0  0  0  0  0  0  0
   15.9685   47.8905    0.7832 N   0  0  0  0  0  0  0  0  0  0  0  0
   15.9863   47.3918    2.0593 C   0  0  0  0  0  0  0  0  0  0  0  0
   16.8765   47.5880    3.1312 C   0  0  0  0  0  0  0  0  0  0  0  0
   16.7246   46.9686    4.3439 N   0  0  0  0  0  0  0  0  0  0  0  0
   15.6603   46.1532    4.4340 C   0  0  0  0  0  0  0  0  0  0  0  0
   15.2758   45.4081    5.5123 N   0  0  0  0  0  0  0  0  0  0  0  0
   14.1453   44.7011    5.1884 C   0  0  0  0  0  0  0  0  0  0  0  0
   13.2420   43.5117    6.3621 Br  0  0  0  0  0  0  0  0  0  0  0  0
   13.7741   44.9858    3.8884 C   0  0  0  0  0  0  0  0  0  0  0  0
   14.7440   45.9106    3.4341 C   0  0  0  0  0  0  0  0  0  0  0  0
   14.9073   46.5438    2.2392 C   0  0  0  0  0  0  0  0  0  0  0  0
   15.7361   45.3824    6.3822 H   0  0  0  0  0  0  0  0  0  0  0  0
   12.0932   50.3469    0.0626 N   0  0  0  0  0  0  0  0  0  0  0  0
   12.2059   50.7070   -1.3470 C   0  0  0  0  0  0  0  0  0  0  0  0
   11.0319   49.9766   -1.9667 C   0  0  0  0  0  0  0  0  0  0  0  0
    9.9281   50.1800   -0.9435 C   0  0  0  0  0  0  0  0  0  0  0  0
   10.6575   50.2568    0.4033 C   0  0  0  0  0  0  0  0  0  0  0  0
   12.5149   52.5414    1.1328 C   0  0  0  0  0  0  0  0  0  0  0  0
   12.9758   51.0886    0.9673 C   0  0  0  0  0  0  0  0  0  0  0  0
   14.4654   51.0612    0.5995 C   0  0  0  0  0  0  0  0  0  0  0  0
 28 29  1  0
 29 30  1  0
 29 23  1  0
 23 24  1  0
 24 25  1  0
 25 26  1  0
 26 27  1  0
 27  1  1  0
  1  2  2  0
  1  3  1  0
  3  4  1  0
  4  5  1  0
  5  6  1  0
  6  9  1  0
  9 10  1  0
 10 11  2  0
 11 12  1  0
 12 13  2  0
 13 14  1  0
 14 15  2  0
 15 16  1  0
 16 17  1  0
 17 18  1  0
 17 19  2  0
 19 20  1  0
 20 21  2  0
  6  7  1  0
  7  8  1  0
 27 23  1  0
  8  3  1  0
 21  9  1  0
 21 12  1  0
 20 15  1  0
 16 22  1  0
M  END
> <minimizedAffinity>
-4.58745

> <CNNscore>
0.1319625229

> <CNNaffinity>
4.2395520210

> <CNN_VS>
0.5594619513

> <CNNaffinity_variance>
0.5955895782

$$$$



 30 34  0  0  0  0  0  0  0  0999 V2000
   13.6812   50.8162   -0.0226 C   0  0  0  0  0  0  0  0  0  0  0  0
   14.6965   50.9768    0.6593 O   0  0  0  0  0  0  0  0  0  0  0  0
   12.6557   51.7727   -0.0151 N   0  0  0  0  0  0  0  0  0  0  0  0
   11.5148   51.7326   -0.9261 C   0  0  0  0  0  0  0  0  0  0  0  0
   10.5200   52.8661   -0.6867 C   0  0  0  0  0  0  0  0  0  0  0  0
   10.3067   53.1203    0.8110 C   0  0  0  0  0  0  0  0  0  0  0  0
   11.6435   53.4323    1.5202 C   0  0  0  0  0  0  0  0  0  0  0  0
   12.8731   53.0173    0.7117 C   0  0  0  0  0  0  0  0  0  0  0  0
    9.5204   52.0459    1.4160 N   0  0  0  0  0  0  0  0  0  0  0  0
    9.9924   50.7847    1.7194 C   0  0  0  0  0  0  0  0  0  0  0  0
    9.0657   50.0094    2.2429 N   0  0  0  0  0  0  0  0  0  0  0  0
    7.9359   50.7838    2.2816 C   0  0  0  0  0  0  0  0  0  0  0  0
    6.6290   50.5154    2.7287 C   0  0  0  0  0  0  0  0  0  0  0  0
    5.6182   51.4379    2.6612 N   0  0  0  0  0  0  0  0  0  0  0  0
    5.9670   52.6224    2.1310 C   0  0  0  0  0  0  0  0  0  0  0  0
    5.1658   53.7112    1.9356 N   0  0  0  0  0  0  0  0  0  0  0  0
    5.9032   54.7118    1.3543 C   0  0  0  0  0  0  0  0  0  0  0  0
    5.2207   56.4192    0.8779 Br  0  0  0  0  0  0  0  0  0  0  0  0
    7.2043   54.2849    1.1701 C   0  0  0  0  0  0  0  0  0  0  0  0
    7.2214   52.9627    1.6741 C   0  0  0  0  0  0  0  0  0  0  0  0
    8.2149   52.0348    1.7590 C   0  0  0  0  0  0  0  0  0  0  0  0
    4.2122   53.7688    2.1737 H   0  0  0  0  0  0  0  0  0  0  0  0
   14.7075   49.0399   -1.4613 N   0  0  0  0  0  0  0  0  0  0  0  0
   14.7747   47.5972   -1.2528 C   0  0  0  0  0  0  0  0  0  0  0  0
   14.1284   47.4322    0.1076 C   0  0  0  0  0  0  0  0  0  0  0  0
   12.9632   48.4047    0.0492 C   0  0  0  0  0  0  0  0  0  0  0  0
   13.4470   49.5344   -0.8681 C   0  0  0  0  0  0  0  0  0  0  0  0
   16.5714   49.7429   -2.9346 C   0  0  0  0  0  0  0  0  0  0  0  0
   15.0642   49.4917   -2.8090 C   0  0  0  0  0  0  0  0  0  0  0  0
   14.2951   50.7196   -3.3145 C   0  0  0  0  0  0  0  0  0  0  0  0
 28 29  1  0
 29 30  1  0
 29 23  1  0
 23 24  1  0
 24 25  1  0
 25 26  1  0
 26 27  1  0
 27  1  1  0
  1  2  2  0
  1  3  1  0
  3  4  1  0
  4  5  1  0
  5  6  1  0
  6  9  1  0
  9 10  1  0
 10 11  2  0
 11 12  1  0
 12 13  2  0
 13 14  1  0
 14 15  2  0
 15 16  1  0
 16 17  1  0
 17 18  1  0
 17 19  2  0
 19 20  1  0
 20 21  2  0
  6  7  1  0
  7  8  1  0
 27 23  1  0
  8  3  1  0
 21  9  1  0
 21 12  1  0
 20 15  1  0
 16 22  1  0
M  END
> <minimizedAffinity>
-6.15543

> <CNNscore>
0.1088152751

> <CNNaffinity>
4.1623525620

> <CNN_VS>
0.4529275298

> <CNNaffinity_variance>
2.0889170170

$$$$



 30 34  0  0  0  0  0  0  0  0999 V2000
   10.1728   52.0620   -5.1078 C   0  0  0  0  0  0  0  0  0  0  0  0
    9.0267   52.4791   -5.2921 O   0  0  0  0  0  0  0  0  0  0  0  0
   10.4068   50.7035   -4.8501 N   0  0  0  0  0  0  0  0  0  0  0  0
   11.7427   50.1155   -4.7984 C   0  0  0  0  0  0  0  0  0  0  0  0
   11.7265   48.6262   -4.4615 C   0  0  0  0  0  0  0  0  0  0  0  0
   10.6973   48.3078   -3.3694 C   0  0  0  0  0  0  0  0  0  0  0  0
    9.2827   48.7711   -3.7834 C   0  0  0  0  0  0  0  0  0  0  0  0
    9.2840   49.7779   -4.9341 C   0  0  0  0  0  0  0  0  0  0  0  0
   11.1516   48.7929   -2.0667 N   0  0  0  0  0  0  0  0  0  0  0  0
   12.1603   49.7133   -1.8649 C   0  0  0  0  0  0  0  0  0  0  0  0
   12.3744   49.9586   -0.5890 N   0  0  0  0  0  0  0  0  0  0  0  0
   11.4787   49.1660    0.0796 C   0  0  0  0  0  0  0  0  0  0  0  0
   11.2276   48.9853    1.4522 C   0  0  0  0  0  0  0  0  0  0  0  0
   10.2826   48.1128    1.9245 N   0  0  0  0  0  0  0  0  0  0  0  0
    9.6124   47.4363    0.9764 C   0  0  0  0  0  0  0  0  0  0  0  0
    8.6313   46.5039    1.1605 N   0  0  0  0  0  0  0  0  0  0  0  0
    8.2181   46.0405   -0.0632 C   0  0  0  0  0  0  0  0  0  0  0  0
    6.8767   44.7208   -0.3215 Br  0  0  0  0  0  0  0  0  0  0  0  0
    8.9258   46.6760   -1.0653 C   0  0  0  0  0  0  0  0  0  0  0  0
    9.7973   47.5580   -0.3833 C   0  0  0  0  0  0  0  0  0  0  0  0
   10.7348   48.4380   -0.8328 C   0  0  0  0  0  0  0  0  0  0  0  0
    8.2774   46.2114    2.0314 H   0  0  0  0  0  0  0  0  0  0  0  0
   11.4053   53.9237   -6.2452 N   0  0  0  0  0  0  0  0  0  0  0  0
   11.7075   55.2686   -5.7664 C   0  0  0  0  0  0  0  0  0  0  0  0
   11.0185   55.2987   -4.4173 C   0  0  0  0  0  0  0  0  0  0  0  0
   11.3170   53.9204   -3.8536 C   0  0  0  0  0  0  0  0  0  0  0  0
   11.4038   53.0090   -5.0838 C   0  0  0  0  0  0  0  0  0  0  0  0
   13.5357   54.1274   -7.4936 C   0  0  0  0  0  0  0  0  0  0  0  0
   12.1314   53.5138   -7.4504 C   0  0  0  0  0  0  0  0  0  0  0  0
   11.4099   53.7887   -8.7766 C   0  0  0  0  0  0  0  0  0  0  0  0
 28 29  1  0
 29 30  1  0
 29 23  1  0
 23 24  1  0
 24 25  1  0
 25 26  1  0
 26 27  1  0
 27  1  1  0
  1  2  2  0
  1  3  1  0
  3  4  1  0
  4  5  1  0
  5  6  1  0
  6  9  1  0
  9 10  1  0
 10 11  2  0
 11 12  1  0
 12 13  2  0
 13 14  1  0
 14 15  2  0
 15 16  1  0
 16 17  1  0
 17 18  1  0
 17 19  2  0
 19 20  1  0
 20 21  2  0
  6  7  1  0
  7  8  1  0
 27 23  1  0
  8  3  1  0
 21  9  1  0
 21 12  1  0
 20 15  1  0
 16 22  1  0
M  END
> <minimizedAffinity>
-4.76765

> <CNNscore>
0.0926779136

> <CNNaffinity>
4.0180807114

> <CNN_VS>
0.3723873496

> <CNNaffinity_variance>
0.7747884393

$$$$



 30 34  0  0  0  0  0  0  0  0999 V2000
   10.5780   47.7818   -2.4486 C   0  0  0  0  0  0  0  0  0  0  0  0
    9.6053   48.0704   -3.1501 O   0  0  0  0  0  0  0  0  0  0  0  0
   10.5218   47.9235   -1.0545 N   0  0  0  0  0  0  0  0  0  0  0  0
   11.5658   47.4375   -0.1563 C   0  0  0  0  0  0  0  0  0  0  0  0
   11.2839   47.7514    1.3114 C   0  0  0  0  0  0  0  0  0  0  0  0
   10.7088   49.1630    1.4841 C   0  0  0  0  0  0  0  0  0  0  0  0
    9.4227   49.3480    0.6480 C   0  0  0  0  0  0  0  0  0  0  0  0
    9.2503   48.2933   -0.4454 C   0  0  0  0  0  0  0  0  0  0  0  0
   11.7400   50.1770    1.2671 N   0  0  0  0  0  0  0  0  0  0  0  0
   13.0958   49.9316    1.1829 C   0  0  0  0  0  0  0  0  0  0  0  0
   13.7989   51.0297    0.9996 N   0  0  0  0  0  0  0  0  0  0  0  0
   12.8750   52.0411    0.9680 C   0  0  0  0  0  0  0  0  0  0  0  0
   13.0115   53.4321    0.8050 C   0  0  0  0  0  0  0  0  0  0  0  0
   11.9426   54.2891    0.8235 N   0  0  0  0  0  0  0  0  0  0  0  0
   10.7490   53.7017    1.0132 C   0  0  0  0  0  0  0  0  0  0  0  0
    9.5279   54.3097    1.0844 N   0  0  0  0  0  0  0  0  0  0  0  0
    8.5649   53.3570    1.3028 C   0  0  0  0  0  0  0  0  0  0  0  0
    6.7094   53.7192    1.4870 Br  0  0  0  0  0  0  0  0  0  0  0  0
    9.1518   52.1079    1.3695 C   0  0  0  0  0  0  0  0  0  0  0  0
   10.5326   52.3511    1.1779 C   0  0  0  0  0  0  0  0  0  0  0  0
   11.6074   51.5149    1.1465 C   0  0  0  0  0  0  0  0  0  0  0  0
    9.3650   55.2764    0.9935 H   0  0  0  0  0  0  0  0  0  0  0  0
   11.7176   46.3796   -4.1845 N   0  0  0  0  0  0  0  0  0  0  0  0
   12.5898   46.7844   -5.2822 C   0  0  0  0  0  0  0  0  0  0  0  0
   12.5825   48.2951   -5.1664 C   0  0  0  0  0  0  0  0  0  0  0  0
   12.6536   48.5203   -3.6662 C   0  0  0  0  0  0  0  0  0  0  0  0
   11.9278   47.3139   -3.0584 C   0  0  0  0  0  0  0  0  0  0  0  0
   10.2979   44.3517   -4.0801 C   0  0  0  0  0  0  0  0  0  0  0  0
   11.7012   44.9421   -3.8998 C   0  0  0  0  0  0  0  0  0  0  0  0
   12.2554   44.5388   -2.5268 C   0  0  0  0  0  0  0  0  0  0  0  0
 28 29  1  0
 29 30  1  0
 29 23  1  0
 23 24  1  0
 24 25  1  0
 25 26  1  0
 26 27  1  0
 27  1  1  0
  1  2  2  0
  1  3  1  0
  3  4  1  0
  4  5  1  0
  5  6  1  0
  6  9  1  0
  9 10  1  0
 10 11  2  0
 11 12  1  0
 12 13  2  0
 13 14  1  0
 14 15  2  0
 15 16  1  0
 16 17  1  0
 17 18  1  0
 17 19  2  0
 19 20  1  0
 20 21  2  0
  6  7  1  0
  7  8  1  0
 27 23  1  0
  8  3  1  0
 21  9  1  0
 21 12  1  0
 20 15  1  0
 16 22  1  0
M  END
> <minimizedAffinity>
-5.10274

> <CNNscore>
0.0920772329

> <CNNaffinity>
4.1450076103

> <CNN_VS>
0.3816608191

> <CNNaffinity_variance>
1.1110655069

$$$$



 30 34  0  0  0  0  0  0  0  0999 V2000
   13.6621   50.7976   -0.0340 C   0  0  0  0  0  0  0  0  0  0  0  0
   14.6808   50.9590    0.6425 O   0  0  0  0  0  0  0  0  0  0  0  0
   12.6393   51.7570   -0.0271 N   0  0  0  0  0  0  0  0  0  0  0  0
   11.4944   51.7152   -0.9329 C   0  0  0  0  0  0  0  0  0  0  0  0
   10.5037   52.8528   -0.6952 C   0  0  0  0  0  0  0  0  0  0  0  0
   10.2976   53.1154    0.8021 C   0  0  0  0  0  0  0  0  0  0  0  0
   11.6384   53.4274    1.5038 C   0  0  0  0  0  0  0  0  0  0  0  0
   12.8633   53.0048    0.6922 C   0  0  0  0  0  0  0  0  0  0  0  0
    9.5111   52.0464    1.4162 N   0  0  0  0  0  0  0  0  0  0  0  0
    9.9824   50.7873    1.7291 C   0  0  0  0  0  0  0  0  0  0  0  0
    9.0555   50.0168    2.2595 N   0  0  0  0  0  0  0  0  0  0  0  0
    7.9264   50.7923    2.2930 C   0  0  0  0  0  0  0  0  0  0  0  0
    6.6196   50.5283    2.7431 C   0  0  0  0  0  0  0  0  0  0  0  0
    5.6094   51.4510    2.6692 N   0  0  0  0  0  0  0  0  0  0  0  0
    5.9587   52.6310    2.1294 C   0  0  0  0  0  0  0  0  0  0  0  0
    5.1581   53.7188    1.9261 N   0  0  0  0  0  0  0  0  0  0  0  0
    5.8957   54.7143    1.3363 C   0  0  0  0  0  0  0  0  0  0  0  0
    5.2141   56.4184    0.8471 Br  0  0  0  0  0  0  0  0  0  0  0  0
    7.1963   54.2850    1.1545 C   0  0  0  0  0  0  0  0  0  0  0  0
    7.2129   52.9668    1.6689 C   0  0  0  0  0  0  0  0  0  0  0  0
    8.2058   52.0388    1.7603 C   0  0  0  0  0  0  0  0  0  0  0  0
    4.2047   53.7790    2.1645 H   0  0  0  0  0  0  0  0  0  0  0  0
   12.1173   48.8932   -0.5495 N   0  0  0  0  0  0  0  0  0  0  0  0
   11.4554   48.5450   -1.8025 C   0  0  0  0  0  0  0  0  0  0  0  0
   11.8734   49.6764   -2.7194 C   0  0  0  0  0  0  0  0  0  0  0  0
   13.3334   49.8848   -2.3566 C   0  0  0  0  0  0  0  0  0  0  0  0
   13.4207   49.5120   -0.8717 C   0  0  0  0  0  0  0  0  0  0  0  0
   10.6756   47.2526    0.6203 C   0  0  0  0  0  0  0  0  0  0  0  0
   12.0785   47.8557    0.4847 C   0  0  0  0  0  0  0  0  0  0  0  0
   12.5876   48.2872    1.8666 C   0  0  0  0  0  0  0  0  0  0  0  0
 28 29  1  0
 29 30  1  0
 29 23  1  0
 23 24  1  0
 24 25  1  0
 25 26  1  0
 26 27  1  0
 27  1  1  0
  1  2  2  0
  1  3  1  0
  3  4  1  0
  4  5  1  0
  5  6  1  0
  6  9  1  0
  9 10  1  0
 10 11  2  0
 11 12  1  0
 12 13  2  0
 13 14  1  0
 14 15  2  0
 15 16  1  0
 16 17  1  0
 17 18  1  0
 17 19  2  0
 19 20  1  0
 20 21  2  0
  6  7  1  0
  7  8  1  0
 27 23  1  0
  8  3  1  0
 21  9  1  0
 21 12  1  0
 20 15  1  0
 16 22  1  0
M  END
> <minimizedAffinity>
-6.54834

> <CNNscore>
0.0861238018

> <CNNaffinity>
4.1386113167

> <CNN_VS>
0.3564329445

> <CNNaffinity_variance>
2.2496464252

$$$$
