


 89 91  0  0  0  0  0  0  0  0999 V2000
   19.7053    6.9089    6.7658 N   0  0  0  0  0  0  0  0  0  0  0  0
   19.9054    6.1029    7.8770 C   0  0  0  0  0  0  0  0  0  0  0  0
   20.3355    6.5551    8.9392 O   0  0  0  0  0  0  0  0  0  0  0  0
   19.3606    6.5198    5.9297 H   0  0  0  0  0  0  0  0  0  0  0  0
   19.6834    4.5887    7.6297 C   0  0  0  0  0  0  0  0  0  0  0  0
   18.2595    4.2415    7.7700 N   0  0  0  0  0  0  0  0  0  0  0  0
   17.4727    3.8526    6.7148 C   0  0  0  0  0  0  0  0  0  0  0  0
   17.8860    3.7973    5.5584 O   0  0  0  0  0  0  0  0  0  0  0  0
   17.8517    4.2907    8.6647 H   0  0  0  0  0  0  0  0  0  0  0  0
   16.0432    3.4858    7.0826 C   0  0  0  0  0  0  0  0  0  0  0  0
   15.5710    4.1977    8.3565 C   0  0  0  0  0  0  0  0  0  0  0  0
   15.4479    3.2454    9.5506 C   0  0  0  0  0  0  0  0  0  0  0  0
   14.2199    3.4949   10.4292 C   0  0  0  0  0  0  0  0  0  0  0  0
   13.1690    4.4486    9.8679 C   0  0  0  0  0  0  0  0  0  0  0  0
   11.8515    4.4218   10.4724 N   0  0  0  0  0  0  0  0  0  0  0  0
   11.1290    5.5849   10.7026 C   0  0  0  0  0  0  0  0  0  0  0  0
   11.6238    6.7006   10.8177 O   0  0  0  0  0  0  0  0  0  0  0  0
   11.4585    3.5556   10.7265 H   0  0  0  0  0  0  0  0  0  0  0  0
    9.6141    5.3501   10.8050 C   0  0  0  0  0  0  0  0  0  0  0  0
    9.2985    4.5944   11.9979 O   0  0  0  0  0  0  0  0  0  0  0  0
    8.3103    5.3465   12.7321 C   0  0  0  0  0  0  0  0  0  0  0  0
    8.5323    6.8094   12.3427 C   0  0  0  0  0  0  0  0  0  0  0  0
    7.3860    7.6296   12.5490 O   0  0  0  0  0  0  0  0  0  0  0  0
    8.8349    6.6616   10.8575 C   0  0  0  0  0  0  0  0  0  0  0  0
    7.6044    6.5228   10.1278 O   0  0  0  0  0  0  0  0  0  0  0  0
    6.6353    7.2667   12.0534 H   0  0  0  0  0  0  0  0  0  0  0  0
    7.1000    5.7747   10.4839 H   0  0  0  0  0  0  0  0  0  0  0  0
    8.4705    5.0480   14.1350 N   0  0  0  0  0  0  0  0  0  0  0  0
    7.6971    5.4985   15.1745 C   0  0  0  0  0  0  0  0  0  0  0  0
    8.1405    5.0752   16.3396 N   0  0  0  0  0  0  0  0  0  0  0  0
    9.2562    4.3196   16.0422 C   0  0  0  0  0  0  0  0  0  0  0  0
   10.1731    3.6185   16.8393 C   0  0  0  0  0  0  0  0  0  0  0  0
   10.0803    3.5541   18.2239 N   0  0  0  0  0  0  0  0  0  0  0  0
   11.2067    2.9912   16.2409 N   0  0  0  0  0  0  0  0  0  0  0  0
   11.3103    3.0461   14.8942 C   0  0  0  0  0  0  0  0  0  0  0  0
   12.7897    2.1294   14.1202 Br  0  0  0  0  0  0  0  0  0  0  0  0
   10.4855    3.6836   14.0333 N   0  0  0  0  0  0  0  0  0  0  0  0
    9.4811    4.2980   14.6758 C   0  0  0  0  0  0  0  0  0  0  0  0
    9.3371    4.0020   18.6888 H   0  0  0  0  0  0  0  0  0  0  0  0
   10.7578    3.0604   18.7402 H   0  0  0  0  0  0  0  0  0  0  0  0
   20.5305    3.7336    8.5959 C   0  0  0  0  0  0  0  0  0  0  0  0
   19.8628    2.4373    9.0722 C   0  0  0  0  0  0  0  0  0  0  0  0
   20.7895    1.4569    9.7998 C   0  0  0  0  0  0  0  0  0  0  0  0
   21.8911    0.8665    8.9153 C   0  0  0  0  0  0  0  0  0  0  0  0
   21.8483   -0.5905    8.9103 N   0  0  0  0  0  0  0  0  0  0  0  0
   21.9925   -0.9381    9.8584 H   0  0  0  0  0  0  0  0  0  0  0  0
   22.5829   -0.9502    8.3009 H   0  0  0  0  0  0  0  0  0  0  0  0
   20.0057    8.3296    6.8386 C   0  0  0  0  0  0  0  0  0  0  0  0
   20.9355    8.8022    5.7190 C   0  0  0  0  0  0  0  0  0  0  0  0
   20.9280   10.3225    5.4932 C   0  0  0  0  0  0  0  0  0  0  0  0
   21.4999   10.7969    4.1485 C   0  0  0  0  0  0  0  0  0  0  0  0
   21.6279   12.3156    4.0038 C   0  0  0  0  0  0  0  0  0  0  0  0
   20.6807   14.2900    2.9873 N   0  0  0  0  0  0  0  0  0  0  0  0
   20.5617   12.9283    3.1178 C   0  0  0  0  0  0  0  0  0  0  0  0
   19.6566   12.2848    2.5953 O   0  0  0  0  0  0  0  0  0  0  0  0
   21.4353   14.7448    3.4266 H   0  0  0  0  0  0  0  0  0  0  0  0
   19.7292   15.0866    2.2210 C   0  0  0  0  0  0  0  0  0  0  0  0
   17.8291   16.5087    2.8406 N   0  0  0  0  0  0  0  0  0  0  0  0
   19.1205   16.1463    3.1527 C   0  0  0  0  0  0  0  0  0  0  0  0
   19.7696   16.6506    4.0672 O   0  0  0  0  0  0  0  0  0  0  0  0
   17.3376   15.9748    2.1753 H   0  0  0  0  0  0  0  0  0  0  0  0
   17.1537   17.6576    3.4577 C   0  0  0  0  0  0  0  0  0  0  0  0
   16.3067   18.3286    2.3564 C   0  0  0  0  0  0  0  0  0  0  0  0
   16.9874   18.6330    1.2035 N   0  0  0  0  0  0  0  0  0  0  0  0
   15.1041   18.5402    2.4461 O   0  0  0  0  0  0  0  0  0  0  0  0
   17.9544   18.4586    1.1422 H   0  0  0  0  0  0  0  0  0  0  0  0
   16.5084   19.0256    0.4382 H   0  0  0  0  0  0  0  0  0  0  0  0
   16.2280   17.2406    4.6116 C   0  0  0  0  0  0  0  0  0  0  0  0
   16.7855   17.4014    6.0326 C   0  0  0  0  0  0  0  0  0  0  0  0
   17.5960   18.6753    6.2717 C   0  0  0  0  0  0  0  0  0  0  0  0
   18.5402   18.4551    7.3551 N   0  0  0  0  0  0  0  0  0  0  0  0
   19.4508   18.8200    7.2723 H   0  0  0  0  0  0  0  0  0  0  0  0
   18.6969   16.6255    8.8060 N   0  0  0  0  0  0  0  0  0  0  0  0
   18.2126   17.7661    8.4743 C   0  0  0  0  0  0  0  0  0  0  0  0
   17.3247   18.4452    9.2279 N   0  0  0  0  0  0  0  0  0  0  0  0
   18.4047   16.1902    9.6393 H   0  0  0  0  0  0  0  0  0  0  0  0
   16.9992   18.0590   10.0729 H   0  0  0  0  0  0  0  0  0  0  0  0
   17.0019   19.3274    8.9332 H   0  0  0  0  0  0  0  0  0  0  0  0
   20.3765   15.7106    0.9696 C   0  0  0  0  0  0  0  0  0  0  0  0
   20.0735   17.2012    0.7352 C   0  0  0  0  0  0  0  0  0  0  0  0
   21.2127   18.1356    1.1497 C   0  0  0  0  0  0  0  0  0  0  0  0
   20.7528   19.5067    1.2046 N   0  0  0  0  0  0  0  0  0  0  0  0
   20.7967   19.9598    2.0775 H   0  0  0  0  0  0  0  0  0  0  0  0
   20.2700   20.2186    0.1672 C   0  0  0  0  0  0  0  0  0  0  0  0
   19.0650   20.5847   -0.0606 N   0  0  0  0  0  0  0  0  0  0  0  0
   21.2437   20.5653   -0.6992 N   0  0  0  0  0  0  0  0  0  0  0  0
   18.3481   20.3360    0.5665 H   0  0  0  0  0  0  0  0  0  0  0  0
   22.1733   20.2879   -0.5316 H   0  0  0  0  0  0  0  0  0  0  0  0
   21.0248   21.0957   -1.4991 H   0  0  0  0  0  0  0  0  0  0  0  0
 73 74  2  0
 74 75  1  0
 74 71  1  0
 71 70  1  0
 70 69  1  0
 69 68  1  0
 62 68  1  0
 62 58  1  0
 58 59  1  0
 59 60  2  0
 59 57  1  0
 57 79  1  0
 79 80  1  0
 80 81  1  0
 81 82  1  0
 82 84  1  0
 84 85  2  0
 84 86  1  0
 57 53  1  0
 53 54  1  0
 54 55  2  0
 54 52  1  0
 52 51  1  0
 51 50  1  0
 50 49  1  0
 49 48  1  0
 48  1  1  0
  1  2  1  0
  2  3  2  0
  2  5  1  0
  5 41  1  0
 41 42  1  0
 42 43  1  0
 43 44  1  0
 44 45  1  0
  5  6  1  0
  6  7  1  0
  7  8  2  0
  7 10  1  0
 10 11  1  0
 11 12  1  0
 12 13  1  0
 13 14  1  0
 14 15  1  0
 15 16  1  0
 16 17  2  0
 19 16  1  0
 19 20  1  0
 20 21  1  0
 21 28  1  0
 28 29  1  0
 29 30  2  0
 30 31  1  0
 31 32  2  0
 32 33  1  0
 32 34  1  0
 34 35  2  0
 35 36  1  0
 35 37  1  0
 37 38  2  0
 21 22  1  0
 22 23  1  0
 22 24  1  0
 24 25  1  0
 62 63  1  0
 63 64  1  0
 63 65  2  0
 24 19  1  0
 38 28  1  0
 38 31  1  0
 73 76  1  0
 75 77  1  0
 75 78  1  0
 71 72  1  0
 58 61  1  0
 82 83  1  0
 85 87  1  0
 86 88  1  0
 86 89  1  0
 53 56  1  0
  1  4  1  0
 45 46  1  0
 45 47  1  0
  6  9  1  0
 15 18  1  0
 33 39  1  0
 33 40  1  0
 23 26  1  0
 25 27  1  0
 64 66  1  0
 64 67  1  0
M  END
> <minimizedAffinity>
-7.40099

> <CNNscore>
0.4640199542

> <CNNaffinity>
7.3482108116

> <CNN_VS>
3.4097163677

> <CNNaffinity_variance>
2.1970875263

$$$$



 89 91  0  0  0  0  0  0  0  0999 V2000
   19.5252    6.9318    6.6515 N   0  0  0  0  0  0  0  0  0  0  0  0
   19.8439    6.2656    7.8259 C   0  0  0  0  0  0  0  0  0  0  0  0
   20.2393    6.8654    8.8267 O   0  0  0  0  0  0  0  0  0  0  0  0
   19.2119    6.4262    5.8669 H   0  0  0  0  0  0  0  0  0  0  0  0
   19.7997    4.7191    7.7280 C   0  0  0  0  0  0  0  0  0  0  0  0
   18.4200    4.2272    7.8774 N   0  0  0  0  0  0  0  0  0  0  0  0
   17.7159    3.6407    6.8558 C   0  0  0  0  0  0  0  0  0  0  0  0
   18.1695    3.5109    5.7206 O   0  0  0  0  0  0  0  0  0  0  0  0
   17.9810    4.3238    8.7533 H   0  0  0  0  0  0  0  0  0  0  0  0
   16.3257    3.1529    7.2333 C   0  0  0  0  0  0  0  0  0  0  0  0
   15.7376    3.9344    8.4149 C   0  0  0  0  0  0  0  0  0  0  0  0
   15.5801    3.0707    9.6706 C   0  0  0  0  0  0  0  0  0  0  0  0
   14.2646    3.2883   10.4218 C   0  0  0  0  0  0  0  0  0  0  0  0
   13.1945    4.0956    9.6923 C   0  0  0  0  0  0  0  0  0  0  0  0
   11.8883    4.1896   10.3145 N   0  0  0  0  0  0  0  0  0  0  0  0
   11.2174    5.4001   10.4266 C   0  0  0  0  0  0  0  0  0  0  0  0
   11.7587    6.5000   10.4123 O   0  0  0  0  0  0  0  0  0  0  0  0
   11.4657    3.3733   10.6670 H   0  0  0  0  0  0  0  0  0  0  0  0
    9.6965    5.2415   10.5751 C   0  0  0  0  0  0  0  0  0  0  0  0
    9.3806    4.4862   11.7682 O   0  0  0  0  0  0  0  0  0  0  0  0
    8.4561    5.2773   12.5434 C   0  0  0  0  0  0  0  0  0  0  0  0
    8.7406    6.7323   12.1651 C   0  0  0  0  0  0  0  0  0  0  0  0
    7.6451    7.6070   12.4186 O   0  0  0  0  0  0  0  0  0  0  0  0
    8.9878    6.5901   10.6691 C   0  0  0  0  0  0  0  0  0  0  0  0
    7.7293    6.5244    9.9781 O   0  0  0  0  0  0  0  0  0  0  0  0
    6.8614    7.2898   11.9432 H   0  0  0  0  0  0  0  0  0  0  0  0
    7.1986    5.7981   10.3411 H   0  0  0  0  0  0  0  0  0  0  0  0
    8.6454    4.9514   13.9365 N   0  0  0  0  0  0  0  0  0  0  0  0
    7.8559    5.3283   14.9932 C   0  0  0  0  0  0  0  0  0  0  0  0
    8.3330    4.9006   16.1433 N   0  0  0  0  0  0  0  0  0  0  0  0
    9.4881    4.2195   15.8178 C   0  0  0  0  0  0  0  0  0  0  0  0
   10.4509    3.5519   16.5893 C   0  0  0  0  0  0  0  0  0  0  0  0
   10.3737    3.4453   17.9722 N   0  0  0  0  0  0  0  0  0  0  0  0
   11.5140    3.0019   15.9670 N   0  0  0  0  0  0  0  0  0  0  0  0
   11.6027    3.0986   14.6215 C   0  0  0  0  0  0  0  0  0  0  0  0
   13.1262    2.2905   13.8128 Br  0  0  0  0  0  0  0  0  0  0  0  0
   10.7351    3.7098   13.7840 N   0  0  0  0  0  0  0  0  0  0  0  0
    9.7023    4.2474   14.4498 C   0  0  0  0  0  0  0  0  0  0  0  0
    9.6097    3.8367   18.4543 H   0  0  0  0  0  0  0  0  0  0  0  0
   11.0830    2.9784   18.4703 H   0  0  0  0  0  0  0  0  0  0  0  0
   20.7088    4.0648    8.7900 C   0  0  0  0  0  0  0  0  0  0  0  0
   20.5557    2.5449    8.9292 C   0  0  0  0  0  0  0  0  0  0  0  0
   21.8438    1.7394    8.7258 C   0  0  0  0  0  0  0  0  0  0  0  0
   21.7478    0.2824    9.1867 C   0  0  0  0  0  0  0  0  0  0  0  0
   22.4468   -0.6134    8.2738 N   0  0  0  0  0  0  0  0  0  0  0  0
   22.0238   -0.5528    7.3476 H   0  0  0  0  0  0  0  0  0  0  0  0
   22.3771   -1.5713    8.6174 H   0  0  0  0  0  0  0  0  0  0  0  0
   19.6547    8.3782    6.5819 C   0  0  0  0  0  0  0  0  0  0  0  0
   20.9256    8.8305    5.8595 C   0  0  0  0  0  0  0  0  0  0  0  0
   20.9246   10.3120    5.4505 C   0  0  0  0  0  0  0  0  0  0  0  0
   19.8922   10.7053    4.3827 C   0  0  0  0  0  0  0  0  0  0  0  0
   19.1267   11.9988    4.6737 C   0  0  0  0  0  0  0  0  0  0  0  0
   19.0215   14.3351    4.0744 N   0  0  0  0  0  0  0  0  0  0  0  0
   19.8470   13.2450    4.1991 C   0  0  0  0  0  0  0  0  0  0  0  0
   21.0409   13.2765    3.9162 O   0  0  0  0  0  0  0  0  0  0  0  0
   18.0739   14.2442    4.3257 H   0  0  0  0  0  0  0  0  0  0  0  0
   19.4984   15.6229    3.5831 C   0  0  0  0  0  0  0  0  0  0  0  0
   18.3893   16.8244    1.7548 N   0  0  0  0  0  0  0  0  0  0  0  0
   19.1561   15.7304    2.0888 C   0  0  0  0  0  0  0  0  0  0  0  0
   19.5086   14.8713    1.2828 O   0  0  0  0  0  0  0  0  0  0  0  0
   18.2521   17.5276    2.4300 H   0  0  0  0  0  0  0  0  0  0  0  0
   17.7674   16.9871    0.4343 C   0  0  0  0  0  0  0  0  0  0  0  0
   16.2397   16.9553    0.6475 C   0  0  0  0  0  0  0  0  0  0  0  0
   15.5183   17.7684   -0.1913 N   0  0  0  0  0  0  0  0  0  0  0  0
   15.6726   16.2322    1.4565 O   0  0  0  0  0  0  0  0  0  0  0  0
   15.9845   18.3459   -0.8382 H   0  0  0  0  0  0  0  0  0  0  0  0
   14.5349   17.7738   -0.1460 H   0  0  0  0  0  0  0  0  0  0  0  0
   18.1486   18.3190   -0.2311 C   0  0  0  0  0  0  0  0  0  0  0  0
   18.7307   19.4037    0.6857 C   0  0  0  0  0  0  0  0  0  0  0  0
   19.9707   20.1149    0.1438 C   0  0  0  0  0  0  0  0  0  0  0  0
   19.5822   21.3811   -0.4559 N   0  0  0  0  0  0  0  0  0  0  0  0
   19.5771   22.1900    0.1052 H   0  0  0  0  0  0  0  0  0  0  0  0
   19.6405   20.7220   -2.7007 N   0  0  0  0  0  0  0  0  0  0  0  0
   19.2272   21.4882   -1.7586 C   0  0  0  0  0  0  0  0  0  0  0  0
   18.3491   22.4934   -1.9481 N   0  0  0  0  0  0  0  0  0  0  0  0
   19.3331   20.8680   -3.6245 H   0  0  0  0  0  0  0  0  0  0  0  0
   18.0061   22.6837   -2.8511 H   0  0  0  0  0  0  0  0  0  0  0  0
   18.0509   23.0373   -1.1836 H   0  0  0  0  0  0  0  0  0  0  0  0
   18.9275   16.7983    4.3999 C   0  0  0  0  0  0  0  0  0  0  0  0
   18.2377   16.4183    5.7221 C   0  0  0  0  0  0  0  0  0  0  0  0
   18.4273   17.4504    6.8364 C   0  0  0  0  0  0  0  0  0  0  0  0
   17.7326   18.6791    6.5166 N   0  0  0  0  0  0  0  0  0  0  0  0
   17.4081   18.7833    5.5930 H   0  0  0  0  0  0  0  0  0  0  0  0
   17.4904   19.6932    7.3704 C   0  0  0  0  0  0  0  0  0  0  0  0
   16.4558   20.4422    7.4508 N   0  0  0  0  0  0  0  0  0  0  0  0
   18.5119   19.8783    8.2313 N   0  0  0  0  0  0  0  0  0  0  0  0
   15.7056   20.3140    6.8263 H   0  0  0  0  0  0  0  0  0  0  0  0
   19.3115   19.3066    8.1766 H   0  0  0  0  0  0  0  0  0  0  0  0
   18.4579   20.5851    8.9145 H   0  0  0  0  0  0  0  0  0  0  0  0
 73 74  2  0
 74 75  1  0
 74 71  1  0
 71 70  1  0
 70 69  1  0
 69 68  1  0
 62 68  1  0
 62 58  1  0
 58 59  1  0
 59 60  2  0
 59 57  1  0
 57 79  1  0
 79 80  1  0
 80 81  1  0
 81 82  1  0
 82 84  1  0
 84 85  2  0
 84 86  1  0
 57 53  1  0
 53 54  1  0
 54 55  2  0
 54 52  1  0
 52 51  1  0
 51 50  1  0
 50 49  1  0
 49 48  1  0
 48  1  1  0
  1  2  1  0
  2  3  2  0
  2  5  1  0
  5 41  1  0
 41 42  1  0
 42 43  1  0
 43 44  1  0
 44 45  1  0
  5  6  1  0
  6  7  1  0
  7  8  2  0
  7 10  1  0
 10 11  1  0
 11 12  1  0
 12 13  1  0
 13 14  1  0
 14 15  1  0
 15 16  1  0
 16 17  2  0
 19 16  1  0
 19 20  1  0
 20 21  1  0
 21 28  1  0
 28 29  1  0
 29 30  2  0
 30 31  1  0
 31 32  2  0
 32 33  1  0
 32 34  1  0
 34 35  2  0
 35 36  1  0
 35 37  1  0
 37 38  2  0
 21 22  1  0
 22 23  1  0
 22 24  1  0
 24 25  1  0
 62 63  1  0
 63 64  1  0
 63 65  2  0
 24 19  1  0
 38 28  1  0
 38 31  1  0
 73 76  1  0
 75 77  1  0
 75 78  1  0
 71 72  1  0
 58 61  1  0
 82 83  1  0
 85 87  1  0
 86 88  1  0
 86 89  1  0
 53 56  1  0
  1  4  1  0
 45 46  1  0
 45 47  1  0
  6  9  1  0
 15 18  1  0
 33 39  1  0
 33 40  1  0
 23 26  1  0
 25 27  1  0
 64 66  1  0
 64 67  1  0
M  END
> <minimizedAffinity>
-7.40807

> <CNNscore>
0.3415412307

> <CNNaffinity>
6.9239678383

> <CNN_VS>
2.3648204803

> <CNNaffinity_variance>
1.6552824974

$$$$



 89 91  0  0  0  0  0  0  0  0999 V2000
   12.6432    4.2891   10.1243 N   0  0  0  0  0  0  0  0  0  0  0  0
   11.3037    4.5899   10.3236 C   0  0  0  0  0  0  0  0  0  0  0  0
   10.4398    4.2878    9.4988 O   0  0  0  0  0  0  0  0  0  0  0  0
   13.3119    4.5432   10.8008 H   0  0  0  0  0  0  0  0  0  0  0  0
   11.0109    5.4498   11.5797 C   0  0  0  0  0  0  0  0  0  0  0  0
   10.1918    4.6987   12.5455 N   0  0  0  0  0  0  0  0  0  0  0  0
   10.5408    4.5380   13.8631 C   0  0  0  0  0  0  0  0  0  0  0  0
   11.5863    4.9794   14.3356 O   0  0  0  0  0  0  0  0  0  0  0  0
    9.3524    4.2918   12.2307 H   0  0  0  0  0  0  0  0  0  0  0  0
    9.5302    3.7743   14.7050 C   0  0  0  0  0  0  0  0  0  0  0  0
    9.1692    4.5198   15.9960 C   0  0  0  0  0  0  0  0  0  0  0  0
    7.6775    4.8591   16.0812 C   0  0  0  0  0  0  0  0  0  0  0  0
    7.0604    5.3155   14.7571 C   0  0  0  0  0  0  0  0  0  0  0  0
    6.8591    6.8187   14.5872 C   0  0  0  0  0  0  0  0  0  0  0  0
    5.6436    7.3955   15.1275 N   0  0  0  0  0  0  0  0  0  0  0  0
    4.7221    8.0480   14.3195 C   0  0  0  0  0  0  0  0  0  0  0  0
    4.9834    8.5539   13.2338 O   0  0  0  0  0  0  0  0  0  0  0  0
    5.4669    7.3224   16.0932 H   0  0  0  0  0  0  0  0  0  0  0  0
    3.3072    8.0850   14.9172 C   0  0  0  0  0  0  0  0  0  0  0  0
    3.0113    9.4031   15.4358 O   0  0  0  0  0  0  0  0  0  0  0  0
    1.7782    9.8364   14.8251 C   0  0  0  0  0  0  0  0  0  0  0  0
    1.7015    9.1021   13.4849 C   0  0  0  0  0  0  0  0  0  0  0  0
    0.3763    8.9969   12.9729 O   0  0  0  0  0  0  0  0  0  0  0  0
    2.2408    7.7347   13.8830 C   0  0  0  0  0  0  0  0  0  0  0  0
    1.1961    6.9688   14.5058 O   0  0  0  0  0  0  0  0  0  0  0  0
   -0.1880    8.5529   13.6251 H   0  0  0  0  0  0  0  0  0  0  0  0
    0.8371    7.4639   15.2587 H   0  0  0  0  0  0  0  0  0  0  0  0
    1.8011   11.2770   14.7413 N   0  0  0  0  0  0  0  0  0  0  0  0
    1.0477   12.1641   15.4674 C   0  0  0  0  0  0  0  0  0  0  0  0
    1.2783   13.4116   15.1155 N   0  0  0  0  0  0  0  0  0  0  0  0
    2.2210   13.3293   14.1113 C   0  0  0  0  0  0  0  0  0  0  0  0
    2.8598   14.2968   13.3215 C   0  0  0  0  0  0  0  0  0  0  0  0
    2.6258   15.6596   13.4548 N   0  0  0  0  0  0  0  0  0  0  0  0
    3.7290   13.8901   12.3733 N   0  0  0  0  0  0  0  0  0  0  0  0
    3.9659   12.5667   12.2317 C   0  0  0  0  0  0  0  0  0  0  0  0
    5.2113   12.0691   10.8792 Br  0  0  0  0  0  0  0  0  0  0  0  0
    3.4142   11.5543   12.9378 N   0  0  0  0  0  0  0  0  0  0  0  0
    2.5524   12.0083   13.8599 C   0  0  0  0  0  0  0  0  0  0  0  0
    1.9967   15.9866   14.1378 H   0  0  0  0  0  0  0  0  0  0  0  0
    3.0890   16.2985   12.8661 H   0  0  0  0  0  0  0  0  0  0  0  0
   10.3022    6.7682   11.2029 C   0  0  0  0  0  0  0  0  0  0  0  0
   11.0875    7.6791   10.2507 C   0  0  0  0  0  0  0  0  0  0  0  0
   12.4997    8.0474   10.7189 C   0  0  0  0  0  0  0  0  0  0  0  0
   13.2476    8.9855    9.7674 C   0  0  0  0  0  0  0  0  0  0  0  0
   14.4772    9.4864   10.3687 N   0  0  0  0  0  0  0  0  0  0  0  0
   14.2527   10.0148   11.2118 H   0  0  0  0  0  0  0  0  0  0  0  0
   14.9576   10.0937    9.7047 H   0  0  0  0  0  0  0  0  0  0  0  0
   13.0575    3.5979    8.9141 C   0  0  0  0  0  0  0  0  0  0  0  0
   14.0702    2.4820    9.1800 C   0  0  0  0  0  0  0  0  0  0  0  0
   14.1088    1.3944    8.0948 C   0  0  0  0  0  0  0  0  0  0  0  0
   15.5082    0.8928    7.7069 C   0  0  0  0  0  0  0  0  0  0  0  0
   15.7251    0.6885    6.2052 C   0  0  0  0  0  0  0  0  0  0  0  0
   16.1256    3.0688    6.2542 N   0  0  0  0  0  0  0  0  0  0  0  0
   16.2280    1.9294    5.4949 C   0  0  0  0  0  0  0  0  0  0  0  0
   16.6513    1.9313    4.3429 O   0  0  0  0  0  0  0  0  0  0  0  0
   15.7843    2.9967    7.1749 H   0  0  0  0  0  0  0  0  0  0  0  0
   16.5046    4.3822    5.7455 C   0  0  0  0  0  0  0  0  0  0  0  0
   18.5090    4.7534    7.1096 N   0  0  0  0  0  0  0  0  0  0  0  0
   18.0324    4.5178    5.8392 C   0  0  0  0  0  0  0  0  0  0  0  0
   18.7473    4.4647    4.8402 O   0  0  0  0  0  0  0  0  0  0  0  0
   17.8904    4.6600    7.8698 H   0  0  0  0  0  0  0  0  0  0  0  0
   19.9005    5.1381    7.3788 C   0  0  0  0  0  0  0  0  0  0  0  0
   19.9189    6.6704    7.5585 C   0  0  0  0  0  0  0  0  0  0  0  0
   19.8587    7.1042    8.8597 N   0  0  0  0  0  0  0  0  0  0  0  0
   20.0326    7.4699    6.6382 O   0  0  0  0  0  0  0  0  0  0  0  0
   19.7673    6.4527    9.5921 H   0  0  0  0  0  0  0  0  0  0  0  0
   19.9069    8.0668    9.0604 H   0  0  0  0  0  0  0  0  0  0  0  0
   20.4519    4.4817    8.6545 C   0  0  0  0  0  0  0  0  0  0  0  0
   21.0704    3.0858    8.4972 C   0  0  0  0  0  0  0  0  0  0  0  0
   20.3232    1.9602    9.2126 C   0  0  0  0  0  0  0  0  0  0  0  0
   21.2797    1.0090    9.7548 N   0  0  0  0  0  0  0  0  0  0  0  0
   21.8920    1.3053   10.4665 H   0  0  0  0  0  0  0  0  0  0  0  0
   22.1993   -0.7009    8.4482 N   0  0  0  0  0  0  0  0  0  0  0  0
   21.3590   -0.2701    9.3164 C   0  0  0  0  0  0  0  0  0  0  0  0
   20.4555   -1.0583    9.9326 N   0  0  0  0  0  0  0  0  0  0  0  0
   22.1906   -1.6490    8.1830 H   0  0  0  0  0  0  0  0  0  0  0  0
   20.4033   -2.0155    9.7084 H   0  0  0  0  0  0  0  0  0  0  0  0
   19.8479   -0.6768   10.6068 H   0  0  0  0  0  0  0  0  0  0  0  0
   15.9832    4.6180    4.3147 C   0  0  0  0  0  0  0  0  0  0  0  0
   15.6322    6.0750    3.9648 C   0  0  0  0  0  0  0  0  0  0  0  0
   14.2388    6.2451    3.3547 C   0  0  0  0  0  0  0  0  0  0  0  0
   13.5494    7.3632    3.9624 N   0  0  0  0  0  0  0  0  0  0  0  0
   13.5059    8.1987    3.4436 H   0  0  0  0  0  0  0  0  0  0  0  0
   12.9619    7.3624    5.1752 C   0  0  0  0  0  0  0  0  0  0  0  0
   13.2137    8.1042    6.1872 N   0  0  0  0  0  0  0  0  0  0  0  0
   11.9814    6.4399    5.2565 N   0  0  0  0  0  0  0  0  0  0  0  0
   13.9276    8.7802    6.1366 H   0  0  0  0  0  0  0  0  0  0  0  0
   11.7810    5.8651    4.4827 H   0  0  0  0  0  0  0  0  0  0  0  0
   11.4661    6.3413    6.0895 H   0  0  0  0  0  0  0  0  0  0  0  0
 73 74  2  0
 74 75  1  0
 74 71  1  0
 71 70  1  0
 70 69  1  0
 69 68  1  0
 62 68  1  0
 62 58  1  0
 58 59  1  0
 59 60  2  0
 59 57  1  0
 57 79  1  0
 79 80  1  0
 80 81  1  0
 81 82  1  0
 82 84  1  0
 84 85  2  0
 84 86  1  0
 57 53  1  0
 53 54  1  0
 54 55  2  0
 54 52  1  0
 52 51  1  0
 51 50  1  0
 50 49  1  0
 49 48  1  0
 48  1  1  0
  1  2  1  0
  2  3  2  0
  2  5  1  0
  5 41  1  0
 41 42  1  0
 42 43  1  0
 43 44  1  0
 44 45  1  0
  5  6  1  0
  6  7  1  0
  7  8  2  0
  7 10  1  0
 10 11  1  0
 11 12  1  0
 12 13  1  0
 13 14  1  0
 14 15  1  0
 15 16  1  0
 16 17  2  0
 19 16  1  0
 19 20  1  0
 20 21  1  0
 21 28  1  0
 28 29  1  0
 29 30  2  0
 30 31  1  0
 31 32  2  0
 32 33  1  0
 32 34  1  0
 34 35  2  0
 35 36  1  0
 35 37  1  0
 37 38  2  0
 21 22  1  0
 22 23  1  0
 22 24  1  0
 24 25  1  0
 62 63  1  0
 63 64  1  0
 63 65  2  0
 24 19  1  0
 38 28  1  0
 38 31  1  0
 73 76  1  0
 75 77  1  0
 75 78  1  0
 71 72  1  0
 58 61  1  0
 82 83  1  0
 85 87  1  0
 86 88  1  0
 86 89  1  0
 53 56  1  0
  1  4  1  0
 45 46  1  0
 45 47  1  0
  6  9  1  0
 15 18  1  0
 33 39  1  0
 33 40  1  0
 23 26  1  0
 25 27  1  0
 64 66  1  0
 64 67  1  0
M  END
> <minimizedAffinity>
-7.87969

> <CNNscore>
0.2949162126

> <CNNaffinity>
7.3942637444

> <CNN_VS>
2.1806881428

> <CNNaffinity_variance>
2.4801518917

$$$$



 89 91  0  0  0  0  0  0  0  0999 V2000
   18.1344    6.4660    7.7420 N   0  0  0  0  0  0  0  0  0  0  0  0
   17.2317    5.8171    6.9122 C   0  0  0  0  0  0  0  0  0  0  0  0
   16.9394    6.2571    5.7992 O   0  0  0  0  0  0  0  0  0  0  0  0
   18.3487    6.0912    8.6268 H   0  0  0  0  0  0  0  0  0  0  0  0
   16.5266    4.5929    7.5505 C   0  0  0  0  0  0  0  0  0  0  0  0
   15.6535    5.0143    8.6586 N   0  0  0  0  0  0  0  0  0  0  0  0
   14.2846    4.9278    8.6122 C   0  0  0  0  0  0  0  0  0  0  0  0
   13.6741    4.5235    7.6247 O   0  0  0  0  0  0  0  0  0  0  0  0
   16.0723    5.3760    9.4729 H   0  0  0  0  0  0  0  0  0  0  0  0
   13.5716    5.3652    9.8824 C   0  0  0  0  0  0  0  0  0  0  0  0
   13.7947    6.8511   10.1908 C   0  0  0  0  0  0  0  0  0  0  0  0
   13.8880    7.1317   11.6942 C   0  0  0  0  0  0  0  0  0  0  0  0
   12.5525    7.4891   12.3507 C   0  0  0  0  0  0  0  0  0  0  0  0
   11.3625    7.6645   11.4115 C   0  0  0  0  0  0  0  0  0  0  0  0
   10.0904    7.1121   11.8343 N   0  0  0  0  0  0  0  0  0  0  0  0
    8.8932    7.5034   11.2502 C   0  0  0  0  0  0  0  0  0  0  0  0
    8.7185    8.5667   10.6656 O   0  0  0  0  0  0  0  0  0  0  0  0
   10.0752    6.4416   12.5550 H   0  0  0  0  0  0  0  0  0  0  0  0
    7.7729    6.4630   11.4027 C   0  0  0  0  0  0  0  0  0  0  0  0
    8.1622    5.4344   12.3430 O   0  0  0  0  0  0  0  0  0  0  0  0
    7.1261    5.3551   13.3438 C   0  0  0  0  0  0  0  0  0  0  0  0
    6.4845    6.7436   13.3839 C   0  0  0  0  0  0  0  0  0  0  0  0
    5.1625    6.7404   13.9148 O   0  0  0  0  0  0  0  0  0  0  0  0
    6.4741    7.0908   11.9012 C   0  0  0  0  0  0  0  0  0  0  0  0
    5.3536    6.4530   11.2660 O   0  0  0  0  0  0  0  0  0  0  0  0
    4.6079    6.1356   13.3977 H   0  0  0  0  0  0  0  0  0  0  0  0
    5.3916    5.4972   11.4270 H   0  0  0  0  0  0  0  0  0  0  0  0
    7.7286    4.9155   14.5793 N   0  0  0  0  0  0  0  0  0  0  0  0
    7.1590    4.9127   15.8272 C   0  0  0  0  0  0  0  0  0  0  0  0
    7.9958    4.4893   16.7511 N   0  0  0  0  0  0  0  0  0  0  0  0
    9.1638    4.2096   16.0717 C   0  0  0  0  0  0  0  0  0  0  0  0
   10.4204    3.7446   16.4869 C   0  0  0  0  0  0  0  0  0  0  0  0
   10.7173    3.4398   17.8092 N   0  0  0  0  0  0  0  0  0  0  0  0
   11.3966    3.6027   15.5665 N   0  0  0  0  0  0  0  0  0  0  0  0
   11.1223    3.8963   14.2758 C   0  0  0  0  0  0  0  0  0  0  0  0
   12.5466    3.6631   13.0328 Br  0  0  0  0  0  0  0  0  0  0  0  0
    9.9522    4.3433   13.7669 N   0  0  0  0  0  0  0  0  0  0  0  0
    9.0183    4.4762   14.7204 C   0  0  0  0  0  0  0  0  0  0  0  0
   10.0253    3.5335   18.5033 H   0  0  0  0  0  0  0  0  0  0  0  0
   11.6196    3.1300   18.0524 H   0  0  0  0  0  0  0  0  0  0  0  0
   17.5527    3.5561    8.0550 C   0  0  0  0  0  0  0  0  0  0  0  0
   17.3161    2.1195    7.5721 C   0  0  0  0  0  0  0  0  0  0  0  0
   15.9050    1.5740    7.8180 C   0  0  0  0  0  0  0  0  0  0  0  0
   15.4616    0.5125    6.8074 C   0  0  0  0  0  0  0  0  0  0  0  0
   15.8964    0.8467    5.4568 N   0  0  0  0  0  0  0  0  0  0  0  0
   15.4808    1.7348    5.1759 H   0  0  0  0  0  0  0  0  0  0  0  0
   15.5995    0.1135    4.8129 H   0  0  0  0  0  0  0  0  0  0  0  0
   18.7632    7.7010    7.3022 C   0  0  0  0  0  0  0  0  0  0  0  0
   20.0216    7.4655    6.4641 C   0  0  0  0  0  0  0  0  0  0  0  0
   20.6950    8.7531    5.9631 C   0  0  0  0  0  0  0  0  0  0  0  0
   19.8228    9.6581    5.0796 C   0  0  0  0  0  0  0  0  0  0  0  0
   20.0478   11.1595    5.2769 C   0  0  0  0  0  0  0  0  0  0  0  0
   20.4432   12.5503    3.3435 N   0  0  0  0  0  0  0  0  0  0  0  0
   19.4791   12.0063    4.1559 C   0  0  0  0  0  0  0  0  0  0  0  0
   18.2802   12.2205    4.0038 O   0  0  0  0  0  0  0  0  0  0  0  0
   21.3877   12.3321    3.5158 H   0  0  0  0  0  0  0  0  0  0  0  0
   20.1181   13.4399    2.2344 C   0  0  0  0  0  0  0  0  0  0  0  0
   19.0032   15.4686    3.0453 N   0  0  0  0  0  0  0  0  0  0  0  0
   20.2131   14.8911    2.7309 C   0  0  0  0  0  0  0  0  0  0  0  0
   21.2888   15.4840    2.7886 O   0  0  0  0  0  0  0  0  0  0  0  0
   18.2046   14.8946    3.0906 H   0  0  0  0  0  0  0  0  0  0  0  0
   18.8530   16.9043    3.3159 C   0  0  0  0  0  0  0  0  0  0  0  0
   18.9835   17.6350    1.9633 C   0  0  0  0  0  0  0  0  0  0  0  0
   20.1783   18.2814    1.7643 N   0  0  0  0  0  0  0  0  0  0  0  0
   18.1294   17.6170    1.0862 O   0  0  0  0  0  0  0  0  0  0  0  0
   20.8581   18.2896    2.4764 H   0  0  0  0  0  0  0  0  0  0  0  0
   20.3552   18.7367    0.9096 H   0  0  0  0  0  0  0  0  0  0  0  0
   17.4870   17.2428    3.9337 C   0  0  0  0  0  0  0  0  0  0  0  0
   17.3527   17.0534    5.4509 C   0  0  0  0  0  0  0  0  0  0  0  0
   18.5229   17.5862    6.2778 C   0  0  0  0  0  0  0  0  0  0  0  0
   18.4632   19.0380    6.3263 N   0  0  0  0  0  0  0  0  0  0  0  0
   18.7098   19.5500    5.5224 H   0  0  0  0  0  0  0  0  0  0  0  0
   18.8332   19.9565    8.4467 N   0  0  0  0  0  0  0  0  0  0  0  0
   18.0806   19.7117    7.4372 C   0  0  0  0  0  0  0  0  0  0  0  0
   16.8021   20.1291    7.3437 N   0  0  0  0  0  0  0  0  0  0  0  0
   18.4765   20.4544    9.2175 H   0  0  0  0  0  0  0  0  0  0  0  0
   16.3936   20.6335    8.0839 H   0  0  0  0  0  0  0  0  0  0  0  0
   16.2770   19.9294    6.5353 H   0  0  0  0  0  0  0  0  0  0  0  0
   21.0137   13.1818    1.0073 C   0  0  0  0  0  0  0  0  0  0  0  0
   22.2203   12.2565    1.2455 C   0  0  0  0  0  0  0  0  0  0  0  0
   23.4632   12.6429    0.4402 C   0  0  0  0  0  0  0  0  0  0  0  0
   23.6043   14.0820    0.3798 N   0  0  0  0  0  0  0  0  0  0  0  0
   23.3504   14.5915    1.1830 H   0  0  0  0  0  0  0  0  0  0  0  0
   24.0522   14.7867   -0.6779 C   0  0  0  0  0  0  0  0  0  0  0  0
   23.3828   15.2937   -1.6436 N   0  0  0  0  0  0  0  0  0  0  0  0
   25.3907   14.9488   -0.6416 N   0  0  0  0  0  0  0  0  0  0  0  0
   22.4055   15.1802   -1.6780 H   0  0  0  0  0  0  0  0  0  0  0  0
   25.9134   14.5622    0.0977 H   0  0  0  0  0  0  0  0  0  0  0  0
   25.8449   15.4537   -1.3543 H   0  0  0  0  0  0  0  0  0  0  0  0
 73 74  2  0
 74 75  1  0
 74 71  1  0
 71 70  1  0
 70 69  1  0
 69 68  1  0
 62 68  1  0
 62 58  1  0
 58 59  1  0
 59 60  2  0
 59 57  1  0
 57 79  1  0
 79 80  1  0
 80 81  1  0
 81 82  1  0
 82 84  1  0
 84 85  2  0
 84 86  1  0
 57 53  1  0
 53 54  1  0
 54 55  2  0
 54 52  1  0
 52 51  1  0
 51 50  1  0
 50 49  1  0
 49 48  1  0
 48  1  1  0
  1  2  1  0
  2  3  2  0
  2  5  1  0
  5 41  1  0
 41 42  1  0
 42 43  1  0
 43 44  1  0
 44 45  1  0
  5  6  1  0
  6  7  1  0
  7  8  2  0
  7 10  1  0
 10 11  1  0
 11 12  1  0
 12 13  1  0
 13 14  1  0
 14 15  1  0
 15 16  1  0
 16 17  2  0
 19 16  1  0
 19 20  1  0
 20 21  1  0
 21 28  1  0
 28 29  1  0
 29 30  2  0
 30 31  1  0
 31 32  2  0
 32 33  1  0
 32 34  1  0
 34 35  2  0
 35 36  1  0
 35 37  1  0
 37 38  2  0
 21 22  1  0
 22 23  1  0
 22 24  1  0
 24 25  1  0
 62 63  1  0
 63 64  1  0
 63 65  2  0
 24 19  1  0
 38 28  1  0
 38 31  1  0
 73 76  1  0
 75 77  1  0
 75 78  1  0
 71 72  1  0
 58 61  1  0
 82 83  1  0
 85 87  1  0
 86 88  1  0
 86 89  1  0
 53 56  1  0
  1  4  1  0
 45 46  1  0
 45 47  1  0
  6  9  1  0
 15 18  1  0
 33 39  1  0
 33 40  1  0
 23 26  1  0
 25 27  1  0
 64 66  1  0
 64 67  1  0
M  END
> <minimizedAffinity>
-6.74677

> <CNNscore>
0.2615899444

> <CNNaffinity>
7.2119278908

> <CNN_VS>
1.8865678310

> <CNNaffinity_variance>
1.7928746939

$$$$



 89 91  0  0  0  0  0  0  0  0999 V2000
   13.7695    3.4157    9.9280 N   0  0  0  0  0  0  0  0  0  0  0  0
   13.9307    3.8062   11.2494 C   0  0  0  0  0  0  0  0  0  0  0  0
   14.8523    3.3783   11.9460 O   0  0  0  0  0  0  0  0  0  0  0  0
   13.0232    3.7739    9.3952 H   0  0  0  0  0  0  0  0  0  0  0  0
   12.7913    4.6973   11.8070 C   0  0  0  0  0  0  0  0  0  0  0  0
   12.1421    4.0514   12.9599 N   0  0  0  0  0  0  0  0  0  0  0  0
   11.4434    4.7454   13.9158 C   0  0  0  0  0  0  0  0  0  0  0  0
   11.3333    5.9698   13.9052 O   0  0  0  0  0  0  0  0  0  0  0  0
   12.2128    3.0735   13.0496 H   0  0  0  0  0  0  0  0  0  0  0  0
   10.8042    3.8840   14.9940 C   0  0  0  0  0  0  0  0  0  0  0  0
    9.2788    3.8114   14.8502 C   0  0  0  0  0  0  0  0  0  0  0  0
    8.5458    4.4516   16.0336 C   0  0  0  0  0  0  0  0  0  0  0  0
    7.2179    5.1170   15.6646 C   0  0  0  0  0  0  0  0  0  0  0  0
    7.3098    6.4080   14.8560 C   0  0  0  0  0  0  0  0  0  0  0  0
    6.1888    7.3244   14.9305 N   0  0  0  0  0  0  0  0  0  0  0  0
    4.9915    7.0696   14.2752 C   0  0  0  0  0  0  0  0  0  0  0  0
    4.8743    6.3375   13.2989 O   0  0  0  0  0  0  0  0  0  0  0  0
    6.2789    8.1494   15.4600 H   0  0  0  0  0  0  0  0  0  0  0  0
    3.7915    7.8038   14.8927 C   0  0  0  0  0  0  0  0  0  0  0  0
    3.9139    9.2316   14.6923 O   0  0  0  0  0  0  0  0  0  0  0  0
    2.6986    9.6804   14.0573 C   0  0  0  0  0  0  0  0  0  0  0  0
    2.1629    8.4698   13.2901 C   0  0  0  0  0  0  0  0  0  0  0  0
    0.7658    8.5435   13.0219 O   0  0  0  0  0  0  0  0  0  0  0  0
    2.4685    7.3530   14.2793 C   0  0  0  0  0  0  0  0  0  0  0  0
    1.4515    7.3184   15.2944 O   0  0  0  0  0  0  0  0  0  0  0  0
    0.2814    8.6461   13.8560 H   0  0  0  0  0  0  0  0  0  0  0  0
    1.3886    8.1884   15.7188 H   0  0  0  0  0  0  0  0  0  0  0  0
    3.0139   10.8348   13.2506 N   0  0  0  0  0  0  0  0  0  0  0  0
    3.7474   10.8639   12.0918 C   0  0  0  0  0  0  0  0  0  0  0  0
    3.8882   12.0877   11.6271 N   0  0  0  0  0  0  0  0  0  0  0  0
    3.2195   12.8896   12.5292 C   0  0  0  0  0  0  0  0  0  0  0  0
    3.0178   14.2757   12.6059 C   0  0  0  0  0  0  0  0  0  0  0  0
    3.5069   15.1668   11.6591 N   0  0  0  0  0  0  0  0  0  0  0  0
    2.3338   14.7750   13.6561 N   0  0  0  0  0  0  0  0  0  0  0  0
    1.8525   13.9196   14.5858 C   0  0  0  0  0  0  0  0  0  0  0  0
    0.8898   14.6966   16.0341 Br  0  0  0  0  0  0  0  0  0  0  0  0
    1.9822   12.5741   14.6079 N   0  0  0  0  0  0  0  0  0  0  0  0
    2.6758   12.1279   13.5501 C   0  0  0  0  0  0  0  0  0  0  0  0
    4.0099   14.8321   10.8817 H   0  0  0  0  0  0  0  0  0  0  0  0
    3.3506   16.1329   11.7654 H   0  0  0  0  0  0  0  0  0  0  0  0
   11.7414    5.0091   10.7195 C   0  0  0  0  0  0  0  0  0  0  0  0
   12.1592    6.0759    9.6995 C   0  0  0  0  0  0  0  0  0  0  0  0
   13.1856    7.0950   10.2066 C   0  0  0  0  0  0  0  0  0  0  0  0
   12.6621    8.0062   11.3203 C   0  0  0  0  0  0  0  0  0  0  0  0
   13.7402    8.4586   12.1908 N   0  0  0  0  0  0  0  0  0  0  0  0
   14.1819    7.6521   12.6322 H   0  0  0  0  0  0  0  0  0  0  0  0
   13.3608    9.0744   12.9100 H   0  0  0  0  0  0  0  0  0  0  0  0
   14.7053    2.4761    9.3317 C   0  0  0  0  0  0  0  0  0  0  0  0
   14.1604    1.8120    8.0654 C   0  0  0  0  0  0  0  0  0  0  0  0
   14.8249    0.4693    7.7222 C   0  0  0  0  0  0  0  0  0  0  0  0
   15.8754    0.5156    6.6021 C   0  0  0  0  0  0  0  0  0  0  0  0
   15.5895    1.5321    5.4935 C   0  0  0  0  0  0  0  0  0  0  0  0
   17.2856    2.9866    6.4081 N   0  0  0  0  0  0  0  0  0  0  0  0
   16.7334    2.4961    5.2505 C   0  0  0  0  0  0  0  0  0  0  0  0
   17.1109    2.8388    4.1340 O   0  0  0  0  0  0  0  0  0  0  0  0
   16.9408    2.6643    7.2721 H   0  0  0  0  0  0  0  0  0  0  0  0
   18.3646    3.9679    6.4032 C   0  0  0  0  0  0  0  0  0  0  0  0
   17.9158    5.9521    5.0329 N   0  0  0  0  0  0  0  0  0  0  0  0
   17.7474    5.3688    6.2689 C   0  0  0  0  0  0  0  0  0  0  0  0
   17.1947    5.9238    7.2168 O   0  0  0  0  0  0  0  0  0  0  0  0
   18.2581    5.3993    4.2937 H   0  0  0  0  0  0  0  0  0  0  0  0
   17.6065    7.3635    4.7703 C   0  0  0  0  0  0  0  0  0  0  0  0
   16.0898    7.5422    4.9906 C   0  0  0  0  0  0  0  0  0  0  0  0
   15.3039    6.5512    4.4565 N   0  0  0  0  0  0  0  0  0  0  0  0
   15.5909    8.4563    5.6342 O   0  0  0  0  0  0  0  0  0  0  0  0
   15.7155    5.8207    3.9406 H   0  0  0  0  0  0  0  0  0  0  0  0
   14.3286    6.5710    4.5895 H   0  0  0  0  0  0  0  0  0  0  0  0
   18.3608    8.3127    5.7148 C   0  0  0  0  0  0  0  0  0  0  0  0
   19.1893    9.4238    5.0553 C   0  0  0  0  0  0  0  0  0  0  0  0
   20.4962    9.7698    5.7689 C   0  0  0  0  0  0  0  0  0  0  0  0
   21.6212    9.2845    4.9863 N   0  0  0  0  0  0  0  0  0  0  0  0
   21.8040    8.3173    4.9676 H   0  0  0  0  0  0  0  0  0  0  0  0
   22.1697   11.3433    4.0183 N   0  0  0  0  0  0  0  0  0  0  0  0
   22.4271   10.1146    4.2821 C   0  0  0  0  0  0  0  0  0  0  0  0
   23.5658    9.4963    3.9100 N   0  0  0  0  0  0  0  0  0  0  0  0
   22.8109   11.8799    3.4985 H   0  0  0  0  0  0  0  0  0  0  0  0
   24.2441    9.9852    3.3902 H   0  0  0  0  0  0  0  0  0  0  0  0
   23.7190    8.5560    4.1580 H   0  0  0  0  0  0  0  0  0  0  0  0
   19.2634    3.8417    7.6485 C   0  0  0  0  0  0  0  0  0  0  0  0
   18.9972    2.6168    8.5414 C   0  0  0  0  0  0  0  0  0  0  0  0
   20.2287    2.1352    9.3123 C   0  0  0  0  0  0  0  0  0  0  0  0
   20.0212    0.7954    9.8186 N   0  0  0  0  0  0  0  0  0  0  0  0
   19.2068    0.6375   10.3488 H   0  0  0  0  0  0  0  0  0  0  0  0
   20.8433   -0.2554    9.6289 C   0  0  0  0  0  0  0  0  0  0  0  0
   21.8984   -0.3265    8.9080 N   0  0  0  0  0  0  0  0  0  0  0  0
   20.4455   -1.3361   10.3309 N   0  0  0  0  0  0  0  0  0  0  0  0
   22.1960    0.4575    8.3924 H   0  0  0  0  0  0  0  0  0  0  0  0
   19.6351   -1.2902   10.8880 H   0  0  0  0  0  0  0  0  0  0  0  0
   20.9655   -2.1709   10.2862 H   0  0  0  0  0  0  0  0  0  0  0  0
 73 74  2  0
 74 75  1  0
 74 71  1  0
 71 70  1  0
 70 69  1  0
 69 68  1  0
 62 68  1  0
 62 58  1  0
 58 59  1  0
 59 60  2  0
 59 57  1  0
 57 79  1  0
 79 80  1  0
 80 81  1  0
 81 82  1  0
 82 84  1  0
 84 85  2  0
 84 86  1  0
 57 53  1  0
 53 54  1  0
 54 55  2  0
 54 52  1  0
 52 51  1  0
 51 50  1  0
 50 49  1  0
 49 48  1  0
 48  1  1  0
  1  2  1  0
  2  3  2  0
  2  5  1  0
  5 41  1  0
 41 42  1  0
 42 43  1  0
 43 44  1  0
 44 45  1  0
  5  6  1  0
  6  7  1  0
  7  8  2  0
  7 10  1  0
 10 11  1  0
 11 12  1  0
 12 13  1  0
 13 14  1  0
 14 15  1  0
 15 16  1  0
 16 17  2  0
 19 16  1  0
 19 20  1  0
 20 21  1  0
 21 28  1  0
 28 29  1  0
 29 30  2  0
 30 31  1  0
 31 32  2  0
 32 33  1  0
 32 34  1  0
 34 35  2  0
 35 36  1  0
 35 37  1  0
 37 38  2  0
 21 22  1  0
 22 23  1  0
 22 24  1  0
 24 25  1  0
 62 63  1  0
 63 64  1  0
 63 65  2  0
 24 19  1  0
 38 28  1  0
 38 31  1  0
 73 76  1  0
 75 77  1  0
 75 78  1  0
 71 72  1  0
 58 61  1  0
 82 83  1  0
 85 87  1  0
 86 88  1  0
 86 89  1  0
 53 56  1  0
  1  4  1  0
 45 46  1  0
 45 47  1  0
  6  9  1  0
 15 18  1  0
 33 39  1  0
 33 40  1  0
 23 26  1  0
 25 27  1  0
 64 66  1  0
 64 67  1  0
M  END
> <minimizedAffinity>
-7.64674

> <CNNscore>
0.2601596117

> <CNNaffinity>
7.2364706993

> <CNN_VS>
1.8826373816

> <CNNaffinity_variance>
2.6709728241

$$$$



 89 91  0  0  0  0  0  0  0  0999 V2000
   16.9727    6.5211    5.7020 N   0  0  0  0  0  0  0  0  0  0  0  0
   16.3957    5.3211    6.0914 C   0  0  0  0  0  0  0  0  0  0  0  0
   15.3898    5.2836    6.8018 O   0  0  0  0  0  0  0  0  0  0  0  0
   17.7769    6.5204    5.1341 H   0  0  0  0  0  0  0  0  0  0  0  0
   17.1923    4.0550    5.6846 C   0  0  0  0  0  0  0  0  0  0  0  0
   16.5706    2.8452    6.2484 N   0  0  0  0  0  0  0  0  0  0  0  0
   16.2961    1.7246    5.5051 C   0  0  0  0  0  0  0  0  0  0  0  0
   16.5153    1.6539    4.2975 O   0  0  0  0  0  0  0  0  0  0  0  0
   16.3405    2.8399    7.2056 H   0  0  0  0  0  0  0  0  0  0  0  0
   15.7027    0.5648    6.2898 C   0  0  0  0  0  0  0  0  0  0  0  0
   15.1970    0.9976    7.6717 C   0  0  0  0  0  0  0  0  0  0  0  0
   13.8117    0.4287    7.9953 C   0  0  0  0  0  0  0  0  0  0  0  0
   12.6967    1.4761    8.0383 C   0  0  0  0  0  0  0  0  0  0  0  0
   12.9511    2.7671    7.2652 C   0  0  0  0  0  0  0  0  0  0  0  0
   13.2523    3.9584    8.0347 N   0  0  0  0  0  0  0  0  0  0  0  0
   12.2949    4.5790    8.8260 C   0  0  0  0  0  0  0  0  0  0  0  0
   11.0842    4.4761    8.6635 O   0  0  0  0  0  0  0  0  0  0  0  0
   14.1600    4.3375    7.9951 H   0  0  0  0  0  0  0  0  0  0  0  0
   12.8968    5.4308    9.9541 C   0  0  0  0  0  0  0  0  0  0  0  0
   11.8493    6.0853   10.7080 O   0  0  0  0  0  0  0  0  0  0  0  0
   12.0455    5.7462   12.0965 C   0  0  0  0  0  0  0  0  0  0  0  0
   12.7659    4.3964   12.0935 C   0  0  0  0  0  0  0  0  0  0  0  0
   13.4803    4.1341   13.2978 O   0  0  0  0  0  0  0  0  0  0  0  0
   13.7230    4.5917   10.9251 C   0  0  0  0  0  0  0  0  0  0  0  0
   14.8673    5.3437   11.3618 O   0  0  0  0  0  0  0  0  0  0  0  0
   14.1176    4.8476   13.4576 H   0  0  0  0  0  0  0  0  0  0  0  0
   14.5738    6.1826   11.7503 H   0  0  0  0  0  0  0  0  0  0  0  0
   10.7577    5.7594   12.7478 N   0  0  0  0  0  0  0  0  0  0  0  0
    9.6189    6.3968   12.3253 C   0  0  0  0  0  0  0  0  0  0  0  0
    8.6246    6.2462   13.1750 N   0  0  0  0  0  0  0  0  0  0  0  0
    9.1442    5.4801   14.1982 C   0  0  0  0  0  0  0  0  0  0  0  0
    8.6003    4.9945   15.3966 C   0  0  0  0  0  0  0  0  0  0  0  0
    7.2852    5.2242   15.7805 N   0  0  0  0  0  0  0  0  0  0  0  0
    9.3918    4.2866   16.2288 N   0  0  0  0  0  0  0  0  0  0  0  0
   10.6742    4.0560   15.8686 C   0  0  0  0  0  0  0  0  0  0  0  0
   11.7277    3.0421   17.0893 Br  0  0  0  0  0  0  0  0  0  0  0  0
   11.2967    4.4688   14.7417 N   0  0  0  0  0  0  0  0  0  0  0  0
   10.4725    5.1743   13.9530 C   0  0  0  0  0  0  0  0  0  0  0  0
    6.6837    5.7376   15.1940 H   0  0  0  0  0  0  0  0  0  0  0  0
    6.9547    4.8738   16.6391 H   0  0  0  0  0  0  0  0  0  0  0  0
   18.6643    4.1498    6.1391 C   0  0  0  0  0  0  0  0  0  0  0  0
   18.8695    4.2894    7.6529 C   0  0  0  0  0  0  0  0  0  0  0  0
   19.4868    3.0672    8.3417 C   0  0  0  0  0  0  0  0  0  0  0  0
   20.8513    3.3352    8.9826 C   0  0  0  0  0  0  0  0  0  0  0  0
   20.8867    4.6365    9.6384 N   0  0  0  0  0  0  0  0  0  0  0  0
   20.7188    5.3693    8.9491 H   0  0  0  0  0  0  0  0  0  0  0  0
   21.8015    4.7763   10.0673 H   0  0  0  0  0  0  0  0  0  0  0  0
   16.3873    7.7796    6.1346 C   0  0  0  0  0  0  0  0  0  0  0  0
   15.5708    8.4672    5.0382 C   0  0  0  0  0  0  0  0  0  0  0  0
   14.8373    9.7362    5.5007 C   0  0  0  0  0  0  0  0  0  0  0  0
   15.6890   10.7474    6.2834 C   0  0  0  0  0  0  0  0  0  0  0  0
   15.1995   12.1960    6.2072 C   0  0  0  0  0  0  0  0  0  0  0  0
   17.2106   13.5287    6.1197 N   0  0  0  0  0  0  0  0  0  0  0  0
   16.1166   13.1007    5.4088 C   0  0  0  0  0  0  0  0  0  0  0  0
   15.8927   13.4510    4.2540 O   0  0  0  0  0  0  0  0  0  0  0  0
   17.3353   13.2036    7.0405 H   0  0  0  0  0  0  0  0  0  0  0  0
   18.1946   14.4479    5.5591 C   0  0  0  0  0  0  0  0  0  0  0  0
   19.6183   12.4819    5.2066 N   0  0  0  0  0  0  0  0  0  0  0  0
   19.1443   13.6499    4.6521 C   0  0  0  0  0  0  0  0  0  0  0  0
   19.4778   14.0645    3.5435 O   0  0  0  0  0  0  0  0  0  0  0  0
   19.2117   12.1584    6.0429 H   0  0  0  0  0  0  0  0  0  0  0  0
   20.7043   11.6981    4.6039 C   0  0  0  0  0  0  0  0  0  0  0  0
   20.0498   10.5088    3.8706 C   0  0  0  0  0  0  0  0  0  0  0  0
   20.4746    9.2687    4.2790 N   0  0  0  0  0  0  0  0  0  0  0  0
   19.1748   10.6210    3.0216 O   0  0  0  0  0  0  0  0  0  0  0  0
   21.1788    9.1900    4.9624 H   0  0  0  0  0  0  0  0  0  0  0  0
   20.0749    8.4582    3.8884 H   0  0  0  0  0  0  0  0  0  0  0  0
   21.5232   12.5157    3.5924 C   0  0  0  0  0  0  0  0  0  0  0  0
   22.3716   11.7195    2.5913 C   0  0  0  0  0  0  0  0  0  0  0  0
   23.3665   12.5490    1.7795 C   0  0  0  0  0  0  0  0  0  0  0  0
   24.7203   12.2513    2.2181 N   0  0  0  0  0  0  0  0  0  0  0  0
   24.8771   12.0486    3.1687 H   0  0  0  0  0  0  0  0  0  0  0  0
   26.8686   12.8874    1.5422 N   0  0  0  0  0  0  0  0  0  0  0  0
   25.7735   12.2428    1.3667 C   0  0  0  0  0  0  0  0  0  0  0  0
   25.5445   11.4392    0.3088 N   0  0  0  0  0  0  0  0  0  0  0  0
   27.5879   12.8273    0.8727 H   0  0  0  0  0  0  0  0  0  0  0  0
   26.2298   11.3392   -0.3910 H   0  0  0  0  0  0  0  0  0  0  0  0
   24.6919   10.9523    0.2359 H   0  0  0  0  0  0  0  0  0  0  0  0
   17.5282   15.6233    4.8182 C   0  0  0  0  0  0  0  0  0  0  0  0
   18.0737   17.0214    5.1591 C   0  0  0  0  0  0  0  0  0  0  0  0
   18.5016   17.1780    6.6202 C   0  0  0  0  0  0  0  0  0  0  0  0
   17.3880   17.6184    7.4329 N   0  0  0  0  0  0  0  0  0  0  0  0
   16.4918   17.3041    7.1737 H   0  0  0  0  0  0  0  0  0  0  0  0
   17.4686   18.4204    8.5129 C   0  0  0  0  0  0  0  0  0  0  0  0
   16.7782   18.3847    9.5899 N   0  0  0  0  0  0  0  0  0  0  0  0
   18.4327   19.3531    8.3737 N   0  0  0  0  0  0  0  0  0  0  0  0
   16.0724   17.7071    9.6999 H   0  0  0  0  0  0  0  0  0  0  0  0
   18.9686   19.3878    7.5485 H   0  0  0  0  0  0  0  0  0  0  0  0
   18.6007   19.9993    9.0972 H   0  0  0  0  0  0  0  0  0  0  0  0
 73 74  2  0
 74 75  1  0
 74 71  1  0
 71 70  1  0
 70 69  1  0
 69 68  1  0
 62 68  1  0
 62 58  1  0
 58 59  1  0
 59 60  2  0
 59 57  1  0
 57 79  1  0
 79 80  1  0
 80 81  1  0
 81 82  1  0
 82 84  1  0
 84 85  2  0
 84 86  1  0
 57 53  1  0
 53 54  1  0
 54 55  2  0
 54 52  1  0
 52 51  1  0
 51 50  1  0
 50 49  1  0
 49 48  1  0
 48  1  1  0
  1  2  1  0
  2  3  2  0
  2  5  1  0
  5 41  1  0
 41 42  1  0
 42 43  1  0
 43 44  1  0
 44 45  1  0
  5  6  1  0
  6  7  1  0
  7  8  2  0
  7 10  1  0
 10 11  1  0
 11 12  1  0
 12 13  1  0
 13 14  1  0
 14 15  1  0
 15 16  1  0
 16 17  2  0
 19 16  1  0
 19 20  1  0
 20 21  1  0
 21 28  1  0
 28 29  1  0
 29 30  2  0
 30 31  1  0
 31 32  2  0
 32 33  1  0
 32 34  1  0
 34 35  2  0
 35 36  1  0
 35 37  1  0
 37 38  2  0
 21 22  1  0
 22 23  1  0
 22 24  1  0
 24 25  1  0
 62 63  1  0
 63 64  1  0
 63 65  2  0
 24 19  1  0
 38 28  1  0
 38 31  1  0
 73 76  1  0
 75 77  1  0
 75 78  1  0
 71 72  1  0
 58 61  1  0
 82 83  1  0
 85 87  1  0
 86 88  1  0
 86 89  1  0
 53 56  1  0
  1  4  1  0
 45 46  1  0
 45 47  1  0
  6  9  1  0
 15 18  1  0
 33 39  1  0
 33 40  1  0
 23 26  1  0
 25 27  1  0
 64 66  1  0
 64 67  1  0
M  END
> <minimizedAffinity>
-7.69211

> <CNNscore>
0.2568713427

> <CNNaffinity>
7.7768669128

> <CNN_VS>
1.9976541996

> <CNNaffinity_variance>
1.4560027122

$$$$



 89 91  0  0  0  0  0  0  0  0999 V2000
   13.4980    3.4753   10.1135 N   0  0  0  0  0  0  0  0  0  0  0  0
   13.7727    3.7071   11.4534 C   0  0  0  0  0  0  0  0  0  0  0  0
   14.6917    3.1312   12.0378 O   0  0  0  0  0  0  0  0  0  0  0  0
   12.7567    3.9500    9.6726 H   0  0  0  0  0  0  0  0  0  0  0  0
   12.7541    4.6256   12.1759 C   0  0  0  0  0  0  0  0  0  0  0  0
   11.8110    3.8281   12.9772 N   0  0  0  0  0  0  0  0  0  0  0  0
   11.2492    4.2782   14.1458 C   0  0  0  0  0  0  0  0  0  0  0  0
   11.5168    5.3728   14.6372 O   0  0  0  0  0  0  0  0  0  0  0  0
   11.5715    2.9277   12.6592 H   0  0  0  0  0  0  0  0  0  0  0  0
   10.2589    3.3209   14.7909 C   0  0  0  0  0  0  0  0  0  0  0  0
    8.8054    3.7694   14.5931 C   0  0  0  0  0  0  0  0  0  0  0  0
    8.2590    4.5403   15.7992 C   0  0  0  0  0  0  0  0  0  0  0  0
    6.9330    5.2583   15.5376 C   0  0  0  0  0  0  0  0  0  0  0  0
    7.0196    6.5915   14.7999 C   0  0  0  0  0  0  0  0  0  0  0  0
    5.8694    7.4712   14.8724 N   0  0  0  0  0  0  0  0  0  0  0  0
    4.5866    7.0222   14.5887 C   0  0  0  0  0  0  0  0  0  0  0  0
    4.3285    6.0460   13.8936 O   0  0  0  0  0  0  0  0  0  0  0  0
    6.0016    8.4123   15.1296 H   0  0  0  0  0  0  0  0  0  0  0  0
    3.4858    7.8759   15.2367 C   0  0  0  0  0  0  0  0  0  0  0  0
    3.7128    9.2802   14.9722 O   0  0  0  0  0  0  0  0  0  0  0  0
    2.5053    9.8055   14.3827 C   0  0  0  0  0  0  0  0  0  0  0  0
    1.8318    8.6167   13.6941 C   0  0  0  0  0  0  0  0  0  0  0  0
    0.4327    8.7968   13.4952 O   0  0  0  0  0  0  0  0  0  0  0  0
    2.0990    7.5150   14.7110 C   0  0  0  0  0  0  0  0  0  0  0  0
    1.1395    7.6024   15.7775 O   0  0  0  0  0  0  0  0  0  0  0  0
    0.0045    8.9698   14.3482 H   0  0  0  0  0  0  0  0  0  0  0  0
    1.1708    8.4894   16.1687 H   0  0  0  0  0  0  0  0  0  0  0  0
    2.8690   10.8993   13.5144 N   0  0  0  0  0  0  0  0  0  0  0  0
    3.6242   10.8374   12.3709 C   0  0  0  0  0  0  0  0  0  0  0  0
    3.8092   12.0262   11.8363 N   0  0  0  0  0  0  0  0  0  0  0  0
    3.1478   12.9000   12.6749 C   0  0  0  0  0  0  0  0  0  0  0  0
    2.9854   14.2933   12.6639 C   0  0  0  0  0  0  0  0  0  0  0  0
    3.5177   15.1111   11.6752 N   0  0  0  0  0  0  0  0  0  0  0  0
    2.2971   14.8745   13.6682 N   0  0  0  0  0  0  0  0  0  0  0  0
    1.7741   14.0911   14.6378 C   0  0  0  0  0  0  0  0  0  0  0  0
    0.8081   14.9814   16.0171 Br  0  0  0  0  0  0  0  0  0  0  0  0
    1.8639   12.7462   14.7435 N   0  0  0  0  0  0  0  0  0  0  0  0
    2.5634   12.2173   13.7286 C   0  0  0  0  0  0  0  0  0  0  0  0
    4.0248   14.7158   10.9296 H   0  0  0  0  0  0  0  0  0  0  0  0
    3.3878   16.0859   11.7200 H   0  0  0  0  0  0  0  0  0  0  0  0
   11.9784    5.5018   11.1695 C   0  0  0  0  0  0  0  0  0  0  0  0
   12.4232    6.9686   11.1068 C   0  0  0  0  0  0  0  0  0  0  0  0
   13.3856    7.3089    9.9636 C   0  0  0  0  0  0  0  0  0  0  0  0
   13.0981    8.6509    9.2846 C   0  0  0  0  0  0  0  0  0  0  0  0
   12.9349    9.7196   10.2622 N   0  0  0  0  0  0  0  0  0  0  0  0
   12.1457    9.5053   10.8717 H   0  0  0  0  0  0  0  0  0  0  0  0
   12.7610   10.6001    9.7775 H   0  0  0  0  0  0  0  0  0  0  0  0
   14.3074    2.5299    9.3618 C   0  0  0  0  0  0  0  0  0  0  0  0
   13.5231    1.8164    8.2585 C   0  0  0  0  0  0  0  0  0  0  0  0
   14.2268    0.5753    7.6870 C   0  0  0  0  0  0  0  0  0  0  0  0
   15.7091    0.7591    7.3272 C   0  0  0  0  0  0  0  0  0  0  0  0
   15.9821    1.0347    5.8462 C   0  0  0  0  0  0  0  0  0  0  0  0
   16.3327    3.2758    6.6727 N   0  0  0  0  0  0  0  0  0  0  0  0
   16.3961    2.4655    5.5660 C   0  0  0  0  0  0  0  0  0  0  0  0
   16.7211    2.8765    4.4561 O   0  0  0  0  0  0  0  0  0  0  0  0
   16.0715    2.8809    7.5359 H   0  0  0  0  0  0  0  0  0  0  0  0
   16.6385    4.7008    6.6151 C   0  0  0  0  0  0  0  0  0  0  0  0
   18.2337    5.4405    4.9050 N   0  0  0  0  0  0  0  0  0  0  0  0
   18.0934    4.8675    6.1493 C   0  0  0  0  0  0  0  0  0  0  0  0
   19.0379    4.4700    6.8290 O   0  0  0  0  0  0  0  0  0  0  0  0
   17.4421    5.8421    4.4792 H   0  0  0  0  0  0  0  0  0  0  0  0
   19.5137    5.4782    4.1860 C   0  0  0  0  0  0  0  0  0  0  0  0
   19.2289    5.0421    2.7336 C   0  0  0  0  0  0  0  0  0  0  0  0
   17.9154    5.1360    2.3451 N   0  0  0  0  0  0  0  0  0  0  0  0
   20.0908    4.6854    1.9406 O   0  0  0  0  0  0  0  0  0  0  0  0
   17.2304    5.4239    2.9910 H   0  0  0  0  0  0  0  0  0  0  0  0
   17.6586    4.9153    1.4207 H   0  0  0  0  0  0  0  0  0  0  0  0
   20.1338    6.8844    4.1700 C   0  0  0  0  0  0  0  0  0  0  0  0
   19.1562    8.0661    4.1071 C   0  0  0  0  0  0  0  0  0  0  0  0
   19.2902    9.0806    5.2429 C   0  0  0  0  0  0  0  0  0  0  0  0
   20.5960    8.9426    5.8670 N   0  0  0  0  0  0  0  0  0  0  0  0
   20.9257    8.0404    6.0828 H   0  0  0  0  0  0  0  0  0  0  0  0
   21.7717   10.8899    5.3172 N   0  0  0  0  0  0  0  0  0  0  0  0
   21.3754   10.0101    6.1624 C   0  0  0  0  0  0  0  0  0  0  0  0
   21.6665   10.0579    7.4779 N   0  0  0  0  0  0  0  0  0  0  0  0
   22.3384   11.6381    5.6145 H   0  0  0  0  0  0  0  0  0  0  0  0
   22.2276   10.7853    7.8318 H   0  0  0  0  0  0  0  0  0  0  0  0
   21.3179    9.3654    8.0846 H   0  0  0  0  0  0  0  0  0  0  0  0
   15.6461    5.4670    5.7192 C   0  0  0  0  0  0  0  0  0  0  0  0
   14.2135    4.9062    5.6798 C   0  0  0  0  0  0  0  0  0  0  0  0
   13.3169    5.4226    6.8077 C   0  0  0  0  0  0  0  0  0  0  0  0
   12.1554    6.0962    6.2676 N   0  0  0  0  0  0  0  0  0  0  0  0
   12.3173    6.8155    5.6151 H   0  0  0  0  0  0  0  0  0  0  0  0
   10.8721    5.8268    6.5781 C   0  0  0  0  0  0  0  0  0  0  0  0
    9.8411    5.8603    5.8207 N   0  0  0  0  0  0  0  0  0  0  0  0
   10.7335    5.4716    7.8718 N   0  0  0  0  0  0  0  0  0  0  0  0
    9.9332    6.1184    4.8751 H   0  0  0  0  0  0  0  0  0  0  0  0
   11.5213    5.4432    8.4616 H   0  0  0  0  0  0  0  0  0  0  0  0
    9.8446    5.2408    8.2264 H   0  0  0  0  0  0  0  0  0  0  0  0
 73 74  2  0
 74 75  1  0
 74 71  1  0
 71 70  1  0
 70 69  1  0
 69 68  1  0
 62 68  1  0
 62 58  1  0
 58 59  1  0
 59 60  2  0
 59 57  1  0
 57 79  1  0
 79 80  1  0
 80 81  1  0
 81 82  1  0
 82 84  1  0
 84 85  2  0
 84 86  1  0
 57 53  1  0
 53 54  1  0
 54 55  2  0
 54 52  1  0
 52 51  1  0
 51 50  1  0
 50 49  1  0
 49 48  1  0
 48  1  1  0
  1  2  1  0
  2  3  2  0
  2  5  1  0
  5 41  1  0
 41 42  1  0
 42 43  1  0
 43 44  1  0
 44 45  1  0
  5  6  1  0
  6  7  1  0
  7  8  2  0
  7 10  1  0
 10 11  1  0
 11 12  1  0
 12 13  1  0
 13 14  1  0
 14 15  1  0
 15 16  1  0
 16 17  2  0
 19 16  1  0
 19 20  1  0
 20 21  1  0
 21 28  1  0
 28 29  1  0
 29 30  2  0
 30 31  1  0
 31 32  2  0
 32 33  1  0
 32 34  1  0
 34 35  2  0
 35 36  1  0
 35 37  1  0
 37 38  2  0
 21 22  1  0
 22 23  1  0
 22 24  1  0
 24 25  1  0
 62 63  1  0
 63 64  1  0
 63 65  2  0
 24 19  1  0
 38 28  1  0
 38 31  1  0
 73 76  1  0
 75 77  1  0
 75 78  1  0
 71 72  1  0
 58 61  1  0
 82 83  1  0
 85 87  1  0
 86 88  1  0
 86 89  1  0
 53 56  1  0
  1  4  1  0
 45 46  1  0
 45 47  1  0
  6  9  1  0
 15 18  1  0
 33 39  1  0
 33 40  1  0
 23 26  1  0
 25 27  1  0
 64 66  1  0
 64 67  1  0
M  END
> <minimizedAffinity>
-7.21778

> <CNNscore>
0.2550781071

> <CNNaffinity>
6.6965765953

> <CNN_VS>
1.7081500292

> <CNNaffinity_variance>
2.2999303341

$$$$



 89 91  0  0  0  0  0  0  0  0999 V2000
   13.9801    4.3249   10.4377 N   0  0  0  0  0  0  0  0  0  0  0  0
   14.1029    4.1956   11.8134 C   0  0  0  0  0  0  0  0  0  0  0  0
   14.9120    3.4193   12.3238 O   0  0  0  0  0  0  0  0  0  0  0  0
   13.3243    4.9534   10.0578 H   0  0  0  0  0  0  0  0  0  0  0  0
   13.0558    4.9888   12.6365 C   0  0  0  0  0  0  0  0  0  0  0  0
   11.9185    4.1272   13.0004 N   0  0  0  0  0  0  0  0  0  0  0  0
   11.2754    4.2020   14.2106 C   0  0  0  0  0  0  0  0  0  0  0  0
   11.6212    4.9723   15.1042 O   0  0  0  0  0  0  0  0  0  0  0  0
   11.6040    3.4650   12.3434 H   0  0  0  0  0  0  0  0  0  0  0  0
   10.0908    3.2609   14.3658 C   0  0  0  0  0  0  0  0  0  0  0  0
    8.7490    4.0007   14.2957 C   0  0  0  0  0  0  0  0  0  0  0  0
    8.1539    4.2711   15.6815 C   0  0  0  0  0  0  0  0  0  0  0  0
    6.9238    5.1816   15.6703 C   0  0  0  0  0  0  0  0  0  0  0  0
    7.0433    6.4701   14.8611 C   0  0  0  0  0  0  0  0  0  0  0  0
    5.9725    7.4395   14.9865 N   0  0  0  0  0  0  0  0  0  0  0  0
    4.7095    7.2059   14.4593 C   0  0  0  0  0  0  0  0  0  0  0  0
    4.4710    6.4297   13.5409 O   0  0  0  0  0  0  0  0  0  0  0  0
    6.1457    8.2862   15.4580 H   0  0  0  0  0  0  0  0  0  0  0  0
    3.6038    8.0256   15.1420 C   0  0  0  0  0  0  0  0  0  0  0  0
    3.7786    9.4361   14.8704 O   0  0  0  0  0  0  0  0  0  0  0  0
    2.5371    9.9230   14.3198 C   0  0  0  0  0  0  0  0  0  0  0  0
    1.8793    8.7131   13.6529 C   0  0  0  0  0  0  0  0  0  0  0  0
    0.4697    8.8496   13.4988 O   0  0  0  0  0  0  0  0  0  0  0  0
    2.2129    7.6213   14.6608 C   0  0  0  0  0  0  0  0  0  0  0  0
    1.2856    7.6799   15.7574 O   0  0  0  0  0  0  0  0  0  0  0  0
    0.0637    9.0100   14.3650 H   0  0  0  0  0  0  0  0  0  0  0  0
    1.3018    8.5679   16.1474 H   0  0  0  0  0  0  0  0  0  0  0  0
    2.8388   11.0268   13.4403 N   0  0  0  0  0  0  0  0  0  0  0  0
    3.5499   10.9854   12.2679 C   0  0  0  0  0  0  0  0  0  0  0  0
    3.6838   12.1791   11.7292 N   0  0  0  0  0  0  0  0  0  0  0  0
    3.0340   13.0348   12.5949 C   0  0  0  0  0  0  0  0  0  0  0  0
    2.8362   14.4236   12.5934 C   0  0  0  0  0  0  0  0  0  0  0  0
    3.3085   15.2558   11.5864 N   0  0  0  0  0  0  0  0  0  0  0  0
    2.1734   14.9860   13.6252 N   0  0  0  0  0  0  0  0  0  0  0  0
    1.7087   14.1884   14.6128 C   0  0  0  0  0  0  0  0  0  0  0  0
    0.7754   15.0523   16.0308 Br  0  0  0  0  0  0  0  0  0  0  0  0
    1.8365   12.8461   14.7119 N   0  0  0  0  0  0  0  0  0  0  0  0
    2.5088   12.3363   13.6693 C   0  0  0  0  0  0  0  0  0  0  0  0
    3.7958   14.8744   10.8207 H   0  0  0  0  0  0  0  0  0  0  0  0
    3.1559   16.2270   11.6384 H   0  0  0  0  0  0  0  0  0  0  0  0
   12.5520    6.2237   11.8598 C   0  0  0  0  0  0  0  0  0  0  0  0
   11.0276    6.3294   11.7250 C   0  0  0  0  0  0  0  0  0  0  0  0
   10.3756    7.4385   12.5580 C   0  0  0  0  0  0  0  0  0  0  0  0
    9.4582    8.3647   11.7547 C   0  0  0  0  0  0  0  0  0  0  0  0
    8.7064    9.2587   12.6265 N   0  0  0  0  0  0  0  0  0  0  0  0
    8.1192    8.7083   13.2531 H   0  0  0  0  0  0  0  0  0  0  0  0
    8.1190    9.8711   12.0605 H   0  0  0  0  0  0  0  0  0  0  0  0
   14.8220    3.5304    9.5580 C   0  0  0  0  0  0  0  0  0  0  0  0
   14.0198    2.6495    8.5978 C   0  0  0  0  0  0  0  0  0  0  0  0
   14.5067    1.1937    8.5223 C   0  0  0  0  0  0  0  0  0  0  0  0
   15.2098    0.7957    7.2155 C   0  0  0  0  0  0  0  0  0  0  0  0
   15.0596    1.8024    6.0718 C   0  0  0  0  0  0  0  0  0  0  0  0
   17.1050    3.0831    6.1413 N   0  0  0  0  0  0  0  0  0  0  0  0
   16.3759    2.1718    5.4177 C   0  0  0  0  0  0  0  0  0  0  0  0
   16.7446    1.7338    4.3321 O   0  0  0  0  0  0  0  0  0  0  0  0
   16.7554    3.3887    7.0094 H   0  0  0  0  0  0  0  0  0  0  0  0
   18.3787    3.6144    5.6695 C   0  0  0  0  0  0  0  0  0  0  0  0
   18.7502    6.0243    5.4039 N   0  0  0  0  0  0  0  0  0  0  0  0
   18.1074    4.9160    4.8991 C   0  0  0  0  0  0  0  0  0  0  0  0
   17.3370    4.9501    3.9413 O   0  0  0  0  0  0  0  0  0  0  0  0
   19.4421    5.8950    6.0923 H   0  0  0  0  0  0  0  0  0  0  0  0
   18.4479    7.3910    4.9593 C   0  0  0  0  0  0  0  0  0  0  0  0
   18.5224    8.2981    6.2052 C   0  0  0  0  0  0  0  0  0  0  0  0
   19.1592    7.7463    7.2892 N   0  0  0  0  0  0  0  0  0  0  0  0
   18.1050    9.4484    6.2449 O   0  0  0  0  0  0  0  0  0  0  0  0
   19.4909    6.8204    7.2464 H   0  0  0  0  0  0  0  0  0  0  0  0
   19.2841    8.2766    8.1092 H   0  0  0  0  0  0  0  0  0  0  0  0
   19.4517    7.9007    3.9130 C   0  0  0  0  0  0  0  0  0  0  0  0
   20.6052    6.9556    3.5495 C   0  0  0  0  0  0  0  0  0  0  0  0
   21.6835    6.8046    4.6225 C   0  0  0  0  0  0  0  0  0  0  0  0
   22.2050    5.4476    4.6008 N   0  0  0  0  0  0  0  0  0  0  0  0
   21.5875    4.6995    4.7688 H   0  0  0  0  0  0  0  0  0  0  0  0
   24.1548    4.1749    4.8352 N   0  0  0  0  0  0  0  0  0  0  0  0
   23.5093    5.1754    4.3578 C   0  0  0  0  0  0  0  0  0  0  0  0
   24.0519    6.0780    3.5163 N   0  0  0  0  0  0  0  0  0  0  0  0
   25.1045    4.0485    4.6087 H   0  0  0  0  0  0  0  0  0  0  0  0
   24.9974    5.9997    3.2533 H   0  0  0  0  0  0  0  0  0  0  0  0
   23.5026    6.8155    3.1646 H   0  0  0  0  0  0  0  0  0  0  0  0
   19.3814    3.8152    6.8223 C   0  0  0  0  0  0  0  0  0  0  0  0
   18.9972    3.1614    8.1615 C   0  0  0  0  0  0  0  0  0  0  0  0
   20.1911    2.6095    8.9442 C   0  0  0  0  0  0  0  0  0  0  0  0
   19.7467    1.6918    9.9713 N   0  0  0  0  0  0  0  0  0  0  0  0
   19.3862    2.0852   10.7987 H   0  0  0  0  0  0  0  0  0  0  0  0
   19.7825    0.3468    9.8962 C   0  0  0  0  0  0  0  0  0  0  0  0
   20.7820   -0.4374   10.0505 N   0  0  0  0  0  0  0  0  0  0  0  0
   18.5665   -0.1728    9.6311 N   0  0  0  0  0  0  0  0  0  0  0  0
   21.6732   -0.0666   10.2443 H   0  0  0  0  0  0  0  0  0  0  0  0
   17.7921    0.4231    9.5109 H   0  0  0  0  0  0  0  0  0  0  0  0
   18.4532   -1.1480    9.5577 H   0  0  0  0  0  0  0  0  0  0  0  0
 73 74  2  0
 74 75  1  0
 74 71  1  0
 71 70  1  0
 70 69  1  0
 69 68  1  0
 62 68  1  0
 62 58  1  0
 58 59  1  0
 59 60  2  0
 59 57  1  0
 57 79  1  0
 79 80  1  0
 80 81  1  0
 81 82  1  0
 82 84  1  0
 84 85  2  0
 84 86  1  0
 57 53  1  0
 53 54  1  0
 54 55  2  0
 54 52  1  0
 52 51  1  0
 51 50  1  0
 50 49  1  0
 49 48  1  0
 48  1  1  0
  1  2  1  0
  2  3  2  0
  2  5  1  0
  5 41  1  0
 41 42  1  0
 42 43  1  0
 43 44  1  0
 44 45  1  0
  5  6  1  0
  6  7  1  0
  7  8  2  0
  7 10  1  0
 10 11  1  0
 11 12  1  0
 12 13  1  0
 13 14  1  0
 14 15  1  0
 15 16  1  0
 16 17  2  0
 19 16  1  0
 19 20  1  0
 20 21  1  0
 21 28  1  0
 28 29  1  0
 29 30  2  0
 30 31  1  0
 31 32  2  0
 32 33  1  0
 32 34  1  0
 34 35  2  0
 35 36  1  0
 35 37  1  0
 37 38  2  0
 21 22  1  0
 22 23  1  0
 22 24  1  0
 24 25  1  0
 62 63  1  0
 63 64  1  0
 63 65  2  0
 24 19  1  0
 38 28  1  0
 38 31  1  0
 73 76  1  0
 75 77  1  0
 75 78  1  0
 71 72  1  0
 58 61  1  0
 82 83  1  0
 85 87  1  0
 86 88  1  0
 86 89  1  0
 53 56  1  0
  1  4  1  0
 45 46  1  0
 45 47  1  0
  6  9  1  0
 15 18  1  0
 33 39  1  0
 33 40  1  0
 23 26  1  0
 25 27  1  0
 64 66  1  0
 64 67  1  0
M  END
> <minimizedAffinity>
-7.29812

> <CNNscore>
0.2429368496

> <CNNaffinity>
7.2389335632

> <CNN_VS>
1.7586036921

> <CNNaffinity_variance>
2.1164503098

$$$$



 89 91  0  0  0  0  0  0  0  0999 V2000
   17.2992    6.6907    5.8082 N   0  0  0  0  0  0  0  0  0  0  0  0
   17.1812    5.4839    6.4822 C   0  0  0  0  0  0  0  0  0  0  0  0
   16.9112    5.4336    7.6831 O   0  0  0  0  0  0  0  0  0  0  0  0
   17.5164    6.7003    4.8480 H   0  0  0  0  0  0  0  0  0  0  0  0
   17.5533    4.2332    5.6451 C   0  0  0  0  0  0  0  0  0  0  0  0
   16.9650    3.0187    6.2340 N   0  0  0  0  0  0  0  0  0  0  0  0
   16.5145    1.9614    5.4838 C   0  0  0  0  0  0  0  0  0  0  0  0
   16.5333    1.9587    4.2546 O   0  0  0  0  0  0  0  0  0  0  0  0
   16.8912    2.9623    7.2141 H   0  0  0  0  0  0  0  0  0  0  0  0
   15.9923    0.7813    6.2886 C   0  0  0  0  0  0  0  0  0  0  0  0
   15.6717    1.1644    7.7388 C   0  0  0  0  0  0  0  0  0  0  0  0
   14.1800    1.4361    7.9589 C   0  0  0  0  0  0  0  0  0  0  0  0
   13.8280    2.9169    8.1188 C   0  0  0  0  0  0  0  0  0  0  0  0
   14.1437    3.5449    9.4735 C   0  0  0  0  0  0  0  0  0  0  0  0
   13.2035    4.5179    9.9943 N   0  0  0  0  0  0  0  0  0  0  0  0
   13.1315    5.8087    9.4880 C   0  0  0  0  0  0  0  0  0  0  0  0
   14.0434    6.3767    8.8974 O   0  0  0  0  0  0  0  0  0  0  0  0
   12.5998    4.2562   10.7267 H   0  0  0  0  0  0  0  0  0  0  0  0
   11.7752    6.4857    9.7377 C   0  0  0  0  0  0  0  0  0  0  0  0
   11.0406    5.7828   10.7673 O   0  0  0  0  0  0  0  0  0  0  0  0
   10.6805    6.7519   11.7736 C   0  0  0  0  0  0  0  0  0  0  0  0
   11.7431    7.8494   11.6880 C   0  0  0  0  0  0  0  0  0  0  0  0
   11.3105    9.0981   12.2200 O   0  0  0  0  0  0  0  0  0  0  0  0
   11.9341    7.9380   10.1797 C   0  0  0  0  0  0  0  0  0  0  0  0
   10.8837    8.7353    9.6082 O   0  0  0  0  0  0  0  0  0  0  0  0
   10.5044    9.3829   11.7617 H   0  0  0  0  0  0  0  0  0  0  0  0
   10.0233    8.3622    9.8559 H   0  0  0  0  0  0  0  0  0  0  0  0
   10.5954    6.0701   13.0428 N   0  0  0  0  0  0  0  0  0  0  0  0
   11.6165    5.4682   13.7333 C   0  0  0  0  0  0  0  0  0  0  0  0
   11.1934    4.8952   14.8405 N   0  0  0  0  0  0  0  0  0  0  0  0
    9.8343    5.1321   14.8665 C   0  0  0  0  0  0  0  0  0  0  0  0
    8.8206    4.7716   15.7667 C   0  0  0  0  0  0  0  0  0  0  0  0
    9.0590    4.0429   16.9251 N   0  0  0  0  0  0  0  0  0  0  0  0
    7.5496    5.1299   15.4906 N   0  0  0  0  0  0  0  0  0  0  0  0
    7.3026    5.8387   14.3662 C   0  0  0  0  0  0  0  0  0  0  0  0
    5.4863    6.3162   14.0478 Br  0  0  0  0  0  0  0  0  0  0  0  0
    8.1983    6.2425   13.4375 N   0  0  0  0  0  0  0  0  0  0  0  0
    9.4434    5.8552   13.7519 C   0  0  0  0  0  0  0  0  0  0  0  0
    9.9762    3.7672   17.1532 H   0  0  0  0  0  0  0  0  0  0  0  0
    8.3108    3.8023   17.5180 H   0  0  0  0  0  0  0  0  0  0  0  0
   19.0839    4.0725    5.5289 C   0  0  0  0  0  0  0  0  0  0  0  0
   19.8809    4.5332    6.7560 C   0  0  0  0  0  0  0  0  0  0  0  0
   20.6754    3.4323    7.4673 C   0  0  0  0  0  0  0  0  0  0  0  0
   20.1937    3.1355    8.8902 C   0  0  0  0  0  0  0  0  0  0  0  0
   18.7388    3.1542    8.9760 N   0  0  0  0  0  0  0  0  0  0  0  0
   18.3949    4.0795    8.7192 H   0  0  0  0  0  0  0  0  0  0  0  0
   18.4517    2.9377    9.9306 H   0  0  0  0  0  0  0  0  0  0  0  0
   17.1015    7.9412    6.5230 C   0  0  0  0  0  0  0  0  0  0  0  0
   16.3107    8.9727    5.7156 C   0  0  0  0  0  0  0  0  0  0  0  0
   15.3185    9.7992    6.5490 C   0  0  0  0  0  0  0  0  0  0  0  0
   14.9849   11.1927    5.9945 C   0  0  0  0  0  0  0  0  0  0  0  0
   16.0421   12.2650    6.2709 C   0  0  0  0  0  0  0  0  0  0  0  0
   17.1767   14.1980    5.3739 N   0  0  0  0  0  0  0  0  0  0  0  0
   16.2178   13.2462    5.1292 C   0  0  0  0  0  0  0  0  0  0  0  0
   15.5485   13.2227    4.1007 O   0  0  0  0  0  0  0  0  0  0  0  0
   17.6837   14.1554    6.2168 H   0  0  0  0  0  0  0  0  0  0  0  0
   17.4711   15.2698    4.4296 C   0  0  0  0  0  0  0  0  0  0  0  0
   17.0775   16.9089    6.2115 N   0  0  0  0  0  0  0  0  0  0  0  0
   17.9427   16.4996    5.2213 C   0  0  0  0  0  0  0  0  0  0  0  0
   18.9886   17.0836    4.9435 O   0  0  0  0  0  0  0  0  0  0  0  0
   16.3257   16.3209    6.4529 H   0  0  0  0  0  0  0  0  0  0  0  0
   17.2284   18.1849    6.9228 C   0  0  0  0  0  0  0  0  0  0  0  0
   17.9440   17.8776    8.2547 C   0  0  0  0  0  0  0  0  0  0  0  0
   17.2960   18.3244    9.3797 N   0  0  0  0  0  0  0  0  0  0  0  0
   18.9845   17.2388    8.3456 O   0  0  0  0  0  0  0  0  0  0  0  0
   16.4598   18.8372    9.2951 H   0  0  0  0  0  0  0  0  0  0  0  0
   17.6674   18.1319   10.2709 H   0  0  0  0  0  0  0  0  0  0  0  0
   18.0677   19.1998    6.1305 C   0  0  0  0  0  0  0  0  0  0  0  0
   18.1254   20.6286    6.6884 C   0  0  0  0  0  0  0  0  0  0  0  0
   16.8542   21.4544    6.4911 C   0  0  0  0  0  0  0  0  0  0  0  0
   16.7579   21.8751    5.1027 N   0  0  0  0  0  0  0  0  0  0  0  0
   17.4795   22.4270    4.7232 H   0  0  0  0  0  0  0  0  0  0  0  0
   15.5560   20.3955    3.7453 N   0  0  0  0  0  0  0  0  0  0  0  0
   15.7117   21.5354    4.3126 C   0  0  0  0  0  0  0  0  0  0  0  0
   14.8216   22.5432    4.2144 N   0  0  0  0  0  0  0  0  0  0  0  0
   14.7641   20.2287    3.1846 H   0  0  0  0  0  0  0  0  0  0  0  0
   14.0099   22.4316    3.6686 H   0  0  0  0  0  0  0  0  0  0  0  0
   14.9834   23.3907    4.6885 H   0  0  0  0  0  0  0  0  0  0  0  0
   18.4943   14.8331    3.3633 C   0  0  0  0  0  0  0  0  0  0  0  0
   18.1434   15.2038    1.9114 C   0  0  0  0  0  0  0  0  0  0  0  0
   18.5982   16.6077    1.5053 C   0  0  0  0  0  0  0  0  0  0  0  0
   20.0066   16.6107    1.1723 N   0  0  0  0  0  0  0  0  0  0  0  0
   20.2628   16.2242    0.3039 H   0  0  0  0  0  0  0  0  0  0  0  0
   20.9986   17.0954    1.9450 C   0  0  0  0  0  0  0  0  0  0  0  0
   21.7957   18.0680    1.7077 N   0  0  0  0  0  0  0  0  0  0  0  0
   21.0987   16.4250    3.1110 N   0  0  0  0  0  0  0  0  0  0  0  0
   21.7296   18.5628    0.8592 H   0  0  0  0  0  0  0  0  0  0  0  0
   20.4896   15.6755    3.3018 H   0  0  0  0  0  0  0  0  0  0  0  0
   21.7809   16.6852    3.7714 H   0  0  0  0  0  0  0  0  0  0  0  0
 73 74  2  0
 74 75  1  0
 74 71  1  0
 71 70  1  0
 70 69  1  0
 69 68  1  0
 62 68  1  0
 62 58  1  0
 58 59  1  0
 59 60  2  0
 59 57  1  0
 57 79  1  0
 79 80  1  0
 80 81  1  0
 81 82  1  0
 82 84  1  0
 84 85  2  0
 84 86  1  0
 57 53  1  0
 53 54  1  0
 54 55  2  0
 54 52  1  0
 52 51  1  0
 51 50  1  0
 50 49  1  0
 49 48  1  0
 48  1  1  0
  1  2  1  0
  2  3  2  0
  2  5  1  0
  5 41  1  0
 41 42  1  0
 42 43  1  0
 43 44  1  0
 44 45  1  0
  5  6  1  0
  6  7  1  0
  7  8  2  0
  7 10  1  0
 10 11  1  0
 11 12  1  0
 12 13  1  0
 13 14  1  0
 14 15  1  0
 15 16  1  0
 16 17  2  0
 19 16  1  0
 19 20  1  0
 20 21  1  0
 21 28  1  0
 28 29  1  0
 29 30  2  0
 30 31  1  0
 31 32  2  0
 32 33  1  0
 32 34  1  0
 34 35  2  0
 35 36  1  0
 35 37  1  0
 37 38  2  0
 21 22  1  0
 22 23  1  0
 22 24  1  0
 24 25  1  0
 62 63  1  0
 63 64  1  0
 63 65  2  0
 24 19  1  0
 38 28  1  0
 38 31  1  0
 73 76  1  0
 75 77  1  0
 75 78  1  0
 71 72  1  0
 58 61  1  0
 82 83  1  0
 85 87  1  0
 86 88  1  0
 86 89  1  0
 53 56  1  0
  1  4  1  0
 45 46  1  0
 45 47  1  0
  6  9  1  0
 15 18  1  0
 33 39  1  0
 33 40  1  0
 23 26  1  0
 25 27  1  0
 64 66  1  0
 64 67  1  0
M  END
> <minimizedAffinity>
-7.67569

> <CNNscore>
0.2091765851

> <CNNaffinity>
6.8226180077

> <CNN_VS>
1.4271318913

> <CNNaffinity_variance>
2.7202329636

$$$$
