


 18 17  0  0  0  0  0  0  0  0999 V2000
   -1.9069    9.7929   19.4107 C   0  0  0  0  0  0  0  0  0  0  0  0
   -2.2523   10.7362   18.2520 C   0  0  0  0  0  0  0  0  0  0  0  0
   -3.7154   11.1703   18.1376 C   0  0  0  0  0  0  0  0  0  0  0  0
   -3.8941   12.5058   17.4152 C   0  0  0  0  0  0  0  0  0  0  0  0
   -3.0683   13.6539   18.0083 C   0  0  0  0  0  0  0  0  0  0  0  0
   -3.6340   15.0539   17.7414 C   0  0  0  0  0  0  0  0  0  0  0  0
   -2.6356   16.1694   18.0675 C   0  0  0  0  0  0  0  0  0  0  0  0
   -4.4828   17.5574   16.9799 C   0  0  0  0  0  0  0  0  0  0  0  0
   -3.1595   17.5674   17.7294 C   0  0  0  0  0  0  0  0  0  0  0  0
   -2.5085    8.3870   19.2904 C   0  0  0  0  0  0  0  0  0  0  0  0
   -1.4487    7.2869   19.1772 C   0  0  0  0  0  0  0  0  0  0  0  0
   -1.7214    6.0843   20.0868 C   0  0  0  0  0  0  0  0  0  0  0  0
   -1.4060    4.7354   19.4304 C   0  0  0  0  0  0  0  0  0  0  0  0
   -2.5265    3.7312   19.7091 C   0  0  0  0  0  0  0  0  0  0  0  0
   -2.4938    2.4933   18.7931 N   0  0  0  0  0  0  0  0  0  0  0  0
   -3.7827    1.6860   18.8947 C   0  0  0  0  0  0  0  0  0  0  0  0
   -1.3019    1.5960   19.1060 C   0  0  0  0  0  0  0  0  0  0  0  0
   -2.3531    2.9881   17.3493 C   0  0  0  0  0  0  0  0  0  0  0  0
  8  9  1  0
  9  7  1  0
  7  6  1  0
  6  5  1  0
  5  4  1  0
  4  3  1  0
  3  2  1  0
  2  1  1  0
  1 10  1  0
 10 11  1  0
 11 12  1  0
 12 13  1  0
 13 14  1  0
 14 15  1  0
 15 16  1  0
 15 17  1  0
 15 18  1  0
M  CHG 1  15   1
M  END
> <minimizedAffinity>
-5.46966

> <CNNscore>
0.8724840283

> <CNNaffinity>
5.7347283363

> <CNN_VS>
5.0034589767

> <CNNaffinity_variance>
0.3125738204

$$$$



 18 17  0  0  0  0  0  0  0  0999 V2000
   -3.0547   10.9861   18.2446 C   0  0  0  0  0  0  0  0  0  0  0  0
   -2.5613   12.3321   18.7892 C   0  0  0  0  0  0  0  0  0  0  0  0
   -2.9634   13.5782   17.9969 C   0  0  0  0  0  0  0  0  0  0  0  0
   -2.0749   14.7888   18.2838 C   0  0  0  0  0  0  0  0  0  0  0  0
   -2.7318   16.1373   17.9644 C   0  0  0  0  0  0  0  0  0  0  0  0
   -4.1489   16.0385   17.3874 C   0  0  0  0  0  0  0  0  0  0  0  0
   -4.6529   17.3696   16.8203 C   0  0  0  0  0  0  0  0  0  0  0  0
   -3.8288   19.2321   15.2797 C   0  0  0  0  0  0  0  0  0  0  0  0
   -3.5253   18.3467   16.4784 C   0  0  0  0  0  0  0  0  0  0  0  0
   -2.4624    9.7576   18.9468 C   0  0  0  0  0  0  0  0  0  0  0  0
   -1.9345    8.7027   17.9697 C   0  0  0  0  0  0  0  0  0  0  0  0
   -2.1505    7.2647   18.4528 C   0  0  0  0  0  0  0  0  0  0  0  0
   -1.2698    6.8805   19.6473 C   0  0  0  0  0  0  0  0  0  0  0  0
   -0.7227    5.4622   19.4726 C   0  0  0  0  0  0  0  0  0  0  0  0
   -1.4063    4.4169   20.3741 N   0  0  0  0  0  0  0  0  0  0  0  0
   -0.4946    3.9763   21.5133 C   0  0  0  0  0  0  0  0  0  0  0  0
   -1.8553    3.1974   19.5772 C   0  0  0  0  0  0  0  0  0  0  0  0
   -2.6499    5.0728   20.9845 C   0  0  0  0  0  0  0  0  0  0  0  0
  8  9  1  0
  9  7  1  0
  7  6  1  0
  6  5  1  0
  5  4  1  0
  4  3  1  0
  3  2  1  0
  2  1  1  0
  1 10  1  0
 10 11  1  0
 11 12  1  0
 12 13  1  0
 13 14  1  0
 14 15  1  0
 15 16  1  0
 15 17  1  0
 15 18  1  0
M  CHG 1  15   1
M  END
> <minimizedAffinity>
-6.47078

> <CNNscore>
0.8639314175

> <CNNaffinity>
5.7011170387

> <CNN_VS>
4.9253740311

> <CNNaffinity_variance>
0.9625042081

$$$$



 18 17  0  0  0  0  0  0  0  0999 V2000
   -2.2702    9.6265   19.1972 C   0  0  0  0  0  0  0  0  0  0  0  0
   -2.7965   11.0201   18.8333 C   0  0  0  0  0  0  0  0  0  0  0  0
   -2.0665   12.2108   19.4592 C   0  0  0  0  0  0  0  0  0  0  0  0
   -2.1261   13.4745   18.6007 C   0  0  0  0  0  0  0  0  0  0  0  0
   -3.4715   13.6908   17.8973 C   0  0  0  0  0  0  0  0  0  0  0  0
   -3.4807   14.8275   16.8683 C   0  0  0  0  0  0  0  0  0  0  0  0
   -3.4647   16.2154   17.5172 C   0  0  0  0  0  0  0  0  0  0  0  0
   -3.8681   18.4319   16.3145 C   0  0  0  0  0  0  0  0  0  0  0  0
   -4.4889   17.1780   16.9108 C   0  0  0  0  0  0  0  0  0  0  0  0
   -2.1691    8.6537   18.0155 C   0  0  0  0  0  0  0  0  0  0  0  0
   -2.0676    7.1883   18.4498 C   0  0  0  0  0  0  0  0  0  0  0  0
   -1.0998    6.9659   19.6168 C   0  0  0  0  0  0  0  0  0  0  0  0
   -0.4340    5.5852   19.6064 C   0  0  0  0  0  0  0  0  0  0  0  0
   -1.4634    4.4986   19.2884 C   0  0  0  0  0  0  0  0  0  0  0  0
   -1.6215    3.4470   20.4027 N   0  0  0  0  0  0  0  0  0  0  0  0
   -0.7643    3.7833   21.6173 C   0  0  0  0  0  0  0  0  0  0  0  0
   -1.2777    2.0476   19.9054 C   0  0  0  0  0  0  0  0  0  0  0  0
   -3.0907    3.4510   20.8395 C   0  0  0  0  0  0  0  0  0  0  0  0
  8  9  1  0
  9  7  1  0
  7  6  1  0
  6  5  1  0
  5  4  1  0
  4  3  1  0
  3  2  1  0
  2  1  1  0
  1 10  1  0
 10 11  1  0
 11 12  1  0
 12 13  1  0
 13 14  1  0
 14 15  1  0
 15 16  1  0
 15 17  1  0
 15 18  1  0
M  CHG 1  15   1
M  END
> <minimizedAffinity>
-6.22484

> <CNNscore>
0.8389878273

> <CNNaffinity>
5.7776913643

> <CNN_VS>
4.8474125862

> <CNNaffinity_variance>
0.6323427558

$$$$



 18 17  0  0  0  0  0  0  0  0999 V2000
   -2.0501    7.7008   18.4624 C   0  0  0  0  0  0  0  0  0  0  0  0
   -2.3213    8.9864   19.2532 C   0  0  0  0  0  0  0  0  0  0  0  0
   -2.3343   10.2907   18.4526 C   0  0  0  0  0  0  0  0  0  0  0  0
   -2.7661   11.5021   19.2793 C   0  0  0  0  0  0  0  0  0  0  0  0
   -2.0640   12.8086   18.8894 C   0  0  0  0  0  0  0  0  0  0  0  0
   -2.9248   13.7786   18.0713 C   0  0  0  0  0  0  0  0  0  0  0  0
   -2.3859   15.2127   18.0925 C   0  0  0  0  0  0  0  0  0  0  0  0
   -3.4329   17.4889   17.5981 C   0  0  0  0  0  0  0  0  0  0  0  0
   -3.0468   16.1223   17.0537 C   0  0  0  0  0  0  0  0  0  0  0  0
   -1.0557    6.7403   19.1270 C   0  0  0  0  0  0  0  0  0  0  0  0
   -1.6064    6.0905   20.4000 C   0  0  0  0  0  0  0  0  0  0  0  0
   -3.1164    5.8353   20.3479 C   0  0  0  0  0  0  0  0  0  0  0  0
   -3.4939    4.5345   19.6301 C   0  0  0  0  0  0  0  0  0  0  0  0
   -4.4736    3.7214   20.4790 C   0  0  0  0  0  0  0  0  0  0  0  0
   -5.8219    3.4518   19.7850 N   0  0  0  0  0  0  0  0  0  0  0  0
   -6.6911    4.7033   19.7422 C   0  0  0  0  0  0  0  0  0  0  0  0
   -6.5859    2.3213   20.4647 C   0  0  0  0  0  0  0  0  0  0  0  0
   -5.5247    3.0276   18.3425 C   0  0  0  0  0  0  0  0  0  0  0  0
  8  9  1  0
  9  7  1  0
  7  6  1  0
  6  5  1  0
  5  4  1  0
  4  3  1  0
  3  2  1  0
  2  1  1  0
  1 10  1  0
 10 11  1  0
 11 12  1  0
 12 13  1  0
 13 14  1  0
 14 15  1  0
 15 16  1  0
 15 17  1  0
 15 18  1  0
M  CHG 1  15   1
M  END
> <minimizedAffinity>
-5.51380

> <CNNscore>
0.8363720179

> <CNNaffinity>
5.7035851479

> <CNN_VS>
4.7703189850

> <CNNaffinity_variance>
0.4348067939

$$$$



 18 17  0  0  0  0  0  0  0  0999 V2000
   -2.0129   10.3269   19.7609 C   0  0  0  0  0  0  0  0  0  0  0  0
   -2.3075   11.6539   19.0509 C   0  0  0  0  0  0  0  0  0  0  0  0
   -3.6653   11.7691   18.3543 C   0  0  0  0  0  0  0  0  0  0  0  0
   -3.8771   13.1166   17.6638 C   0  0  0  0  0  0  0  0  0  0  0  0
   -2.7878   14.1530   17.9657 C   0  0  0  0  0  0  0  0  0  0  0  0
   -2.7747   15.3616   17.0222 C   0  0  0  0  0  0  0  0  0  0  0  0
   -4.0164   16.2462   17.1737 C   0  0  0  0  0  0  0  0  0  0  0  0
   -3.8628   18.5812   16.1511 C   0  0  0  0  0  0  0  0  0  0  0  0
   -3.6827   17.7238   17.3943 C   0  0  0  0  0  0  0  0  0  0  0  0
   -2.8564    9.1417   19.2743 C   0  0  0  0  0  0  0  0  0  0  0  0
   -2.0979    8.2162   18.3181 C   0  0  0  0  0  0  0  0  0  0  0  0
   -1.4086    7.0445   19.0252 C   0  0  0  0  0  0  0  0  0  0  0  0
   -2.0654    5.6878   18.7459 C   0  0  0  0  0  0  0  0  0  0  0  0
   -3.3418    5.8723   17.9224 C   0  0  0  0  0  0  0  0  0  0  0  0
   -4.2402    4.6219   17.8800 N   0  0  0  0  0  0  0  0  0  0  0  0
   -4.2386    3.8843   19.2139 C   0  0  0  0  0  0  0  0  0  0  0  0
   -3.8209    3.6680   16.7673 C   0  0  0  0  0  0  0  0  0  0  0  0
   -5.6719    5.0886   17.5944 C   0  0  0  0  0  0  0  0  0  0  0  0
  8  9  1  0
  9  7  1  0
  7  6  1  0
  6  5  1  0
  5  4  1  0
  4  3  1  0
  3  2  1  0
  2  1  1  0
  1 10  1  0
 10 11  1  0
 11 12  1  0
 12 13  1  0
 13 14  1  0
 14 15  1  0
 15 16  1  0
 15 17  1  0
 15 18  1  0
M  CHG 1  15   1
M  END
> <minimizedAffinity>
-5.93437

> <CNNscore>
0.8200047016

> <CNNaffinity>
5.7790145874

> <CNN_VS>
4.7388191223

> <CNNaffinity_variance>
0.6080645919

$$$$



 18 17  0  0  0  0  0  0  0  0999 V2000
   -2.9860    7.4692   19.0986 C   0  0  0  0  0  0  0  0  0  0  0  0
   -2.2244    8.6178   18.4261 C   0  0  0  0  0  0  0  0  0  0  0  0
   -2.3400    9.9934   19.0870 C   0  0  0  0  0  0  0  0  0  0  0  0
   -2.3559   11.1462   18.0829 C   0  0  0  0  0  0  0  0  0  0  0  0
   -3.6496   11.9697   18.0955 C   0  0  0  0  0  0  0  0  0  0  0  0
   -3.6573   13.1646   17.1347 C   0  0  0  0  0  0  0  0  0  0  0  0
   -3.8654   14.5020   17.8526 C   0  0  0  0  0  0  0  0  0  0  0  0
   -2.9859   16.8981   17.7674 C   0  0  0  0  0  0  0  0  0  0  0  0
   -2.6399   15.4173   17.7928 C   0  0  0  0  0  0  0  0  0  0  0  0
   -2.8875    6.1240   18.3683 C   0  0  0  0  0  0  0  0  0  0  0  0
   -1.7797    5.2206   18.9186 C   0  0  0  0  0  0  0  0  0  0  0  0
   -1.7134    3.8526   18.2314 C   0  0  0  0  0  0  0  0  0  0  0  0
   -2.9428    3.5385   17.3712 C   0  0  0  0  0  0  0  0  0  0  0  0
   -2.5523    2.6547   16.1847 C   0  0  0  0  0  0  0  0  0  0  0  0
   -3.1155    1.2233   16.2641 N   0  0  0  0  0  0  0  0  0  0  0  0
   -3.5215    0.7031   14.8901 C   0  0  0  0  0  0  0  0  0  0  0  0
   -4.3046    1.1408   17.2143 C   0  0  0  0  0  0  0  0  0  0  0  0
   -2.0055    0.3174   16.8085 C   0  0  0  0  0  0  0  0  0  0  0  0
  8  9  1  0
  9  7  1  0
  7  6  1  0
  6  5  1  0
  5  4  1  0
  4  3  1  0
  3  2  1  0
  2  1  1  0
  1 10  1  0
 10 11  1  0
 11 12  1  0
 12 13  1  0
 13 14  1  0
 14 15  1  0
 15 16  1  0
 15 17  1  0
 15 18  1  0
M  CHG 1  15   1
M  END
> <minimizedAffinity>
-4.68540

> <CNNscore>
0.8161188364

> <CNNaffinity>
5.4509754181

> <CNN_VS>
4.4486436844

> <CNNaffinity_variance>
0.3184586167

$$$$



 18 17  0  0  0  0  0  0  0  0999 V2000
   -3.3880    6.8204   18.3734 C   0  0  0  0  0  0  0  0  0  0  0  0
   -2.4036    7.9865   18.2230 C   0  0  0  0  0  0  0  0  0  0  0  0
   -2.5043    9.1039   19.2639 C   0  0  0  0  0  0  0  0  0  0  0  0
   -2.2383   10.4938   18.6852 C   0  0  0  0  0  0  0  0  0  0  0  0
   -3.5052   11.2532   18.2726 C   0  0  0  0  0  0  0  0  0  0  0  0
   -3.2579   12.4697   17.3725 C   0  0  0  0  0  0  0  0  0  0  0  0
   -3.7864   13.7737   17.9789 C   0  0  0  0  0  0  0  0  0  0  0  0
   -3.0612   16.0547   17.0886 C   0  0  0  0  0  0  0  0  0  0  0  0
   -2.7409   14.8912   18.0142 C   0  0  0  0  0  0  0  0  0  0  0  0
   -3.0036    5.5560   17.5946 C   0  0  0  0  0  0  0  0  0  0  0  0
   -3.5616    4.2729   18.2178 C   0  0  0  0  0  0  0  0  0  0  0  0
   -3.1698    3.0049   17.4518 C   0  0  0  0  0  0  0  0  0  0  0  0
   -1.6835    2.6499   17.5734 C   0  0  0  0  0  0  0  0  0  0  0  0
   -1.4309    1.8393   18.8465 C   0  0  0  0  0  0  0  0  0  0  0  0
   -0.8723    0.4281   18.5842 N   0  0  0  0  0  0  0  0  0  0  0  0
    0.1084    0.0020   19.6704 C   0  0  0  0  0  0  0  0  0  0  0  0
   -0.1968    0.3373   17.2207 C   0  0  0  0  0  0  0  0  0  0  0  0
   -2.0535   -0.5485   18.5979 C   0  0  0  0  0  0  0  0  0  0  0  0
  8  9  1  0
  9  7  1  0
  7  6  1  0
  6  5  1  0
  5  4  1  0
  4  3  1  0
  3  2  1  0
  2  1  1  0
  1 10  1  0
 10 11  1  0
 11 12  1  0
 12 13  1  0
 13 14  1  0
 14 15  1  0
 15 16  1  0
 15 17  1  0
 15 18  1  0
M  CHG 1  15   1
M  END
> <minimizedAffinity>
-4.18414

> <CNNscore>
0.7960141897

> <CNNaffinity>
5.3970718384

> <CNN_VS>
4.2961459160

> <CNNaffinity_variance>
0.2891563475

$$$$



 18 17  0  0  0  0  0  0  0  0999 V2000
   -2.6132   10.7840   18.6194 C   0  0  0  0  0  0  0  0  0  0  0  0
   -3.7843   11.4966   17.9322 C   0  0  0  0  0  0  0  0  0  0  0  0
   -3.7031   13.0227   17.8522 C   0  0  0  0  0  0  0  0  0  0  0  0
   -2.3415   13.5776   18.2711 C   0  0  0  0  0  0  0  0  0  0  0  0
   -2.2178   15.1004   18.1373 C   0  0  0  0  0  0  0  0  0  0  0  0
   -3.4929   15.8070   17.6619 C   0  0  0  0  0  0  0  0  0  0  0  0
   -3.3394   17.3302   17.6001 C   0  0  0  0  0  0  0  0  0  0  0  0
   -3.7069   18.9789   15.6849 C   0  0  0  0  0  0  0  0  0  0  0  0
   -4.3441   18.0014   16.6603 C   0  0  0  0  0  0  0  0  0  0  0  0
   -1.9312    9.7075   17.7655 C   0  0  0  0  0  0  0  0  0  0  0  0
   -2.1961    8.2848   18.2672 C   0  0  0  0  0  0  0  0  0  0  0  0
   -1.8262    8.0809   19.7402 C   0  0  0  0  0  0  0  0  0  0  0  0
   -2.8841    7.3085   20.5366 C   0  0  0  0  0  0  0  0  0  0  0  0
   -2.5078    5.8281   20.6279 C   0  0  0  0  0  0  0  0  0  0  0  0
   -3.4381    4.8997   19.8247 N   0  0  0  0  0  0  0  0  0  0  0  0
   -3.8360    3.6694   20.6317 C   0  0  0  0  0  0  0  0  0  0  0  0
   -2.7982    4.4651   18.5112 C   0  0  0  0  0  0  0  0  0  0  0  0
   -4.7111    5.6882   19.4978 C   0  0  0  0  0  0  0  0  0  0  0  0
  8  9  1  0
  9  7  1  0
  7  6  1  0
  6  5  1  0
  5  4  1  0
  4  3  1  0
  3  2  1  0
  2  1  1  0
  1 10  1  0
 10 11  1  0
 11 12  1  0
 12 13  1  0
 13 14  1  0
 14 15  1  0
 15 16  1  0
 15 17  1  0
 15 18  1  0
M  CHG 1  15   1
M  END
> <minimizedAffinity>
-6.38371

> <CNNscore>
0.7395853400

> <CNNaffinity>
5.7479071617

> <CNN_VS>
4.2510676384

> <CNNaffinity_variance>
0.8927329183

$$$$



 18 17  0  0  0  0  0  0  0  0999 V2000
   -1.9759    8.3686   18.7888 C   0  0  0  0  0  0  0  0  0  0  0  0
   -2.0715    9.4372   17.6931 C   0  0  0  0  0  0  0  0  0  0  0  0
   -2.9826   10.6324   17.9824 C   0  0  0  0  0  0  0  0  0  0  0  0
   -2.3832   11.6200   18.9838 C   0  0  0  0  0  0  0  0  0  0  0  0
   -2.3553   13.0720   18.4910 C   0  0  0  0  0  0  0  0  0  0  0  0
   -3.6265   13.5258   17.7635 C   0  0  0  0  0  0  0  0  0  0  0  0
   -3.4455   14.8571   17.0269 C   0  0  0  0  0  0  0  0  0  0  0  0
   -3.4142   17.3383   17.6304 C   0  0  0  0  0  0  0  0  0  0  0  0
   -2.8415   15.9562   17.9045 C   0  0  0  0  0  0  0  0  0  0  0  0
   -3.2280    7.4956   18.9400 C   0  0  0  0  0  0  0  0  0  0  0  0
   -3.5573    6.6926   17.6779 C   0  0  0  0  0  0  0  0  0  0  0  0
   -2.7575    5.3909   17.5597 C   0  0  0  0  0  0  0  0  0  0  0  0
   -2.9970    4.4169   18.7190 C   0  0  0  0  0  0  0  0  0  0  0  0
   -1.6727    3.8123   19.1904 C   0  0  0  0  0  0  0  0  0  0  0  0
   -1.1541    4.4068   20.5133 N   0  0  0  0  0  0  0  0  0  0  0  0
   -0.5106    3.3414   21.3931 C   0  0  0  0  0  0  0  0  0  0  0  0
   -2.2656    5.1065   21.2871 C   0  0  0  0  0  0  0  0  0  0  0  0
   -0.0849    5.4488   20.1662 C   0  0  0  0  0  0  0  0  0  0  0  0
  8  9  1  0
  9  7  1  0
  7  6  1  0
  6  5  1  0
  5  4  1  0
  4  3  1  0
  3  2  1  0
  2  1  1  0
  1 10  1  0
 10 11  1  0
 11 12  1  0
 12 13  1  0
 13 14  1  0
 14 15  1  0
 15 16  1  0
 15 17  1  0
 15 18  1  0
M  CHG 1  15   1
M  END
> <minimizedAffinity>
-5.41634

> <CNNscore>
0.7046259046

> <CNNaffinity>
5.4989032745

> <CNN_VS>
3.8746697903

> <CNNaffinity_variance>
0.7621555328

$$$$
