


 44 45  0  0  0  0  0  0  0  0999 V2000
  -18.7010   52.1196   19.9831 N   0  0  0  0  0  0  0  0  0  0  0  0
  -18.2993   53.4330   20.0546 C   0  0  0  0  0  0  0  0  0  0  0  0
  -17.5863   53.8484   20.9644 O   0  0  0  0  0  0  0  0  0  0  0  0
  -19.2826   51.8397   19.2397 H   0  0  0  0  0  0  0  0  0  0  0  0
  -18.7646   54.3674   18.9835 C   0  0  0  0  0  0  0  0  0  0  0  0
  -18.4135   55.7199   18.9319 C   0  0  0  0  0  0  0  0  0  0  0  0
  -18.8713   56.5282   17.8843 C   0  0  0  0  0  0  0  0  0  0  0  0
  -19.6793   56.0013   16.8656 C   0  0  0  0  0  0  0  0  0  0  0  0
  -20.1346   56.8002   15.8036 C   0  0  0  0  0  0  0  0  0  0  0  0
  -20.9354   56.2645   14.7822 C   0  0  0  0  0  0  0  0  0  0  0  0
  -21.2773   54.9086   14.8310 C   0  0  0  0  0  0  0  0  0  0  0  0
  -20.8334   54.1048   15.8832 C   0  0  0  0  0  0  0  0  0  0  0  0
  -20.0340   54.6364   16.9063 C   0  0  0  0  0  0  0  0  0  0  0  0
  -19.5737   53.8373   17.9659 C   0  0  0  0  0  0  0  0  0  0  0  0
  -21.3813   57.1284   13.6339 C   0  0  0  0  0  0  0  0  0  0  0  0
  -21.2036   56.5530   12.4100 F   0  0  0  0  0  0  0  0  0  0  0  0
  -22.6959   57.4870   13.6979 F   0  0  0  0  0  0  0  0  0  0  0  0
  -20.5573   58.7206   13.4133 P   0  0  0  0  0  0  0  0  0  0  0  0
  -19.9671   59.4106   14.6069 O   0  0  0  0  0  0  0  0  0  0  0  0
  -19.4424   58.5814   12.2554 O   0  0  0  0  0  0  0  0  0  0  0  0
  -21.5877   59.7175   12.6693 O   0  0  0  0  0  0  0  0  0  0  0  0
  -18.7324   57.9945   12.5591 H   0  0  0  0  0  0  0  0  0  0  0  0
  -22.3379   59.9035   13.2554 H   0  0  0  0  0  0  0  0  0  0  0  0
  -18.2939   51.1271   20.9726 C   0  0  0  0  0  0  0  0  0  0  0  0
  -17.0142   50.4589   20.4393 C   0  0  0  0  0  0  0  0  0  0  0  0
  -15.8337   50.9886   20.8770 N   0  0  0  0  0  0  0  0  0  0  0  0
  -17.0238   49.4794   19.6952 O   0  0  0  0  0  0  0  0  0  0  0  0
  -15.8367   51.7727   21.4724 H   0  0  0  0  0  0  0  0  0  0  0  0
  -14.9798   50.5863   20.5972 H   0  0  0  0  0  0  0  0  0  0  0  0
  -19.3785   50.0625   21.1983 C   0  0  0  0  0  0  0  0  0  0  0  0
  -20.5956   50.5939   21.9659 C   0  0  0  0  0  0  0  0  0  0  0  0
  -21.8052   50.7729   21.0350 C   0  0  0  0  0  0  0  0  0  0  0  0
  -23.0180   51.5501   21.6304 C   0  0  0  0  0  0  0  0  0  0  0  0
  -22.5550   52.5748   22.6752 C   0  0  0  0  0  0  0  0  0  0  0  0
  -23.9514   50.5456   22.3588 C   0  0  0  0  0  0  0  0  0  0  0  0
  -23.8845   52.1941   20.4880 C   0  0  0  0  0  0  0  0  0  0  0  0
  -24.0622   53.7382   20.2656 C   0  0  0  0  0  0  0  0  0  0  0  0
  -22.7805   54.4769   19.8852 C   0  0  0  0  0  0  0  0  0  0  0  0
  -24.5857   54.3811   21.5806 C   0  0  0  0  0  0  0  0  0  0  0  0
  -25.2116   53.9780   19.2074 C   0  0  0  0  0  0  0  0  0  0  0  0
  -26.4878   55.4863   17.6750 C   0  0  0  0  0  0  0  0  0  0  0  0
  -26.1016   55.2654   19.1603 C   0  0  0  0  0  0  0  0  0  0  0  0
  -27.4195   55.0912   19.9398 C   0  0  0  0  0  0  0  0  0  0  0  0
  -25.3980   56.5379   19.6458 C   0  0  0  0  0  0  0  0  0  0  0  0
 41 42  1  0
 42 43  1  0
 42 44  1  0
 42 40  1  0
 40 37  1  0
 37 38  1  0
 37 39  1  0
 37 36  1  0
 36 33  1  0
 33 34  1  0
 33 35  1  0
 33 32  1  0
 32 31  1  0
 31 30  1  0
 24 30  1  0
 24  1  1  0
  1  2  1  0
  2  3  2  0
  2  5  1  0
  5  6  2  0
  6  7  1  0
  7  8  2  0
  8  9  1  0
  9 10  2  0
 10 15  1  0
 15 16  1  0
 15 17  1  0
 15 18  1  0
 18 19  2  0
 18 20  1  0
 18 21  1  0
 10 11  1  0
 11 12  2  0
 12 13  1  0
 13 14  2  0
 24 25  1  0
 25 26  1  0
 25 27  2  0
 14  5  1  0
 13  8  1  0
  1  4  1  0
 20 22  1  0
 21 23  1  0
 26 28  1  0
 26 29  1  0
M  END
> <minimizedAffinity>
-7.44116

> <CNNscore>
0.7239825726

> <CNNaffinity>
6.6555142403

> <CNN_VS>
4.8184762001

> <CNNaffinity_variance>
0.2745160460

$$$$



 44 45  0  0  0  0  0  0  0  0999 V2000
  -17.9446   51.7402   19.1921 N   0  0  0  0  0  0  0  0  0  0  0  0
  -18.2891   53.0641   19.3332 C   0  0  0  0  0  0  0  0  0  0  0  0
  -18.0370   53.6983   20.3545 O   0  0  0  0  0  0  0  0  0  0  0  0
  -18.1803   51.2735   18.3578 H   0  0  0  0  0  0  0  0  0  0  0  0
  -18.9994   53.7284   18.1970 C   0  0  0  0  0  0  0  0  0  0  0  0
  -19.9042   53.0684   17.3596 C   0  0  0  0  0  0  0  0  0  0  0  0
  -20.5476   53.7636   16.3286 C   0  0  0  0  0  0  0  0  0  0  0  0
  -20.3075   55.1300   16.1195 C   0  0  0  0  0  0  0  0  0  0  0  0
  -20.9561   55.8401   15.0956 C   0  0  0  0  0  0  0  0  0  0  0  0
  -20.7183   57.2097   14.8973 C   0  0  0  0  0  0  0  0  0  0  0  0
  -19.8199   57.8699   15.7428 C   0  0  0  0  0  0  0  0  0  0  0  0
  -19.1665   57.1742   16.7621 C   0  0  0  0  0  0  0  0  0  0  0  0
  -19.4004   55.8055   16.9629 C   0  0  0  0  0  0  0  0  0  0  0  0
  -18.7565   55.0955   17.9898 C   0  0  0  0  0  0  0  0  0  0  0  0
  -21.4517   57.9602   13.8191 C   0  0  0  0  0  0  0  0  0  0  0  0
  -22.6209   57.3716   13.4357 F   0  0  0  0  0  0  0  0  0  0  0  0
  -21.7665   59.2422   14.1628 F   0  0  0  0  0  0  0  0  0  0  0  0
  -20.6151   58.1802   12.2334 P   0  0  0  0  0  0  0  0  0  0  0  0
  -20.4011   56.9891   11.3475 O   0  0  0  0  0  0  0  0  0  0  0  0
  -21.3538   59.3516   11.4055 O   0  0  0  0  0  0  0  0  0  0  0  0
  -19.1993   58.9061   12.5119 O   0  0  0  0  0  0  0  0  0  0  0  0
  -22.2449   59.0597   11.1575 H   0  0  0  0  0  0  0  0  0  0  0  0
  -18.6243   58.3103   13.0172 H   0  0  0  0  0  0  0  0  0  0  0  0
  -17.2413   51.0040   20.2377 C   0  0  0  0  0  0  0  0  0  0  0  0
  -18.3066   50.5016   21.2284 C   0  0  0  0  0  0  0  0  0  0  0  0
  -18.9714   49.3639   20.8685 N   0  0  0  0  0  0  0  0  0  0  0  0
  -18.5377   51.0482   22.3058 O   0  0  0  0  0  0  0  0  0  0  0  0
  -18.7792   48.9340   20.0040 H   0  0  0  0  0  0  0  0  0  0  0  0
  -19.6428   48.9738   21.4738 H   0  0  0  0  0  0  0  0  0  0  0  0
  -16.2229   51.8864   20.9758 C   0  0  0  0  0  0  0  0  0  0  0  0
  -14.9317   52.1134   20.1794 C   0  0  0  0  0  0  0  0  0  0  0  0
  -13.7309   52.3228   21.1153 C   0  0  0  0  0  0  0  0  0  0  0  0
  -13.4111   53.7994   21.4989 C   0  0  0  0  0  0  0  0  0  0  0  0
  -14.5939   54.7210   21.1704 C   0  0  0  0  0  0  0  0  0  0  0  0
  -12.2032   54.2887   20.6549 C   0  0  0  0  0  0  0  0  0  0  0  0
  -12.9582   53.9014   23.0005 C   0  0  0  0  0  0  0  0  0  0  0  0
  -11.5819   53.3874   23.5542 C   0  0  0  0  0  0  0  0  0  0  0  0
  -10.3997   54.3143   23.2776 C   0  0  0  0  0  0  0  0  0  0  0  0
  -11.2517   52.0185   22.8956 C   0  0  0  0  0  0  0  0  0  0  0  0
  -11.7310   53.0738   25.0963 C   0  0  0  0  0  0  0  0  0  0  0  0
  -10.7163   54.1090   27.1336 C   0  0  0  0  0  0  0  0  0  0  0  0
  -11.9481   54.1692   26.1938 C   0  0  0  0  0  0  0  0  0  0  0  0
  -11.9830   55.5906   25.5994 C   0  0  0  0  0  0  0  0  0  0  0  0
  -13.1961   53.9583   27.0587 C   0  0  0  0  0  0  0  0  0  0  0  0
 41 42  1  0
 42 43  1  0
 42 44  1  0
 42 40  1  0
 40 37  1  0
 37 38  1  0
 37 39  1  0
 37 36  1  0
 36 33  1  0
 33 34  1  0
 33 35  1  0
 33 32  1  0
 32 31  1  0
 31 30  1  0
 24 30  1  0
 24  1  1  0
  1  2  1  0
  2  3  2  0
  2  5  1  0
  5  6  2  0
  6  7  1  0
  7  8  2  0
  8  9  1  0
  9 10  2  0
 10 15  1  0
 15 16  1  0
 15 17  1  0
 15 18  1  0
 18 19  2  0
 18 20  1  0
 18 21  1  0
 10 11  1  0
 11 12  2  0
 12 13  1  0
 13 14  2  0
 24 25  1  0
 25 26  1  0
 25 27  2  0
 14  5  1  0
 13  8  1  0
  1  4  1  0
 20 22  1  0
 21 23  1  0
 26 28  1  0
 26 29  1  0
M  END
> <minimizedAffinity>
-7.61147

> <CNNscore>
0.7234819531

> <CNNaffinity>
6.3912129402

> <CNN_VS>
4.6239271164

> <CNNaffinity_variance>
0.1385211945

$$$$



 44 45  0  0  0  0  0  0  0  0999 V2000
  -17.7695   51.8333   19.0770 N   0  0  0  0  0  0  0  0  0  0  0  0
  -18.5184   52.9576   19.3352 C   0  0  0  0  0  0  0  0  0  0  0  0
  -18.6238   53.4255   20.4660 O   0  0  0  0  0  0  0  0  0  0  0  0
  -17.7272   51.4913   18.1548 H   0  0  0  0  0  0  0  0  0  0  0  0
  -19.2238   53.6084   18.1882 C   0  0  0  0  0  0  0  0  0  0  0  0
  -20.2179   52.9773   17.4339 C   0  0  0  0  0  0  0  0  0  0  0  0
  -20.8492   53.6597   16.3870 C   0  0  0  0  0  0  0  0  0  0  0  0
  -20.5075   54.9851   16.0791 C   0  0  0  0  0  0  0  0  0  0  0  0
  -21.1425   55.6833   15.0386 C   0  0  0  0  0  0  0  0  0  0  0  0
  -20.8024   57.0128   14.7414 C   0  0  0  0  0  0  0  0  0  0  0  0
  -19.8143   57.6452   15.5040 C   0  0  0  0  0  0  0  0  0  0  0  0
  -19.1735   56.9607   16.5390 C   0  0  0  0  0  0  0  0  0  0  0  0
  -19.5097   55.6319   16.8384 C   0  0  0  0  0  0  0  0  0  0  0  0
  -18.8792   54.9344   17.8821 C   0  0  0  0  0  0  0  0  0  0  0  0
  -21.5210   57.7549   13.6475 C   0  0  0  0  0  0  0  0  0  0  0  0
  -22.4931   57.0227   13.0315 F   0  0  0  0  0  0  0  0  0  0  0  0
  -22.1214   58.9045   14.0701 F   0  0  0  0  0  0  0  0  0  0  0  0
  -20.5439   58.3250   12.2394 P   0  0  0  0  0  0  0  0  0  0  0  0
  -19.1902   58.9230   12.4821 O   0  0  0  0  0  0  0  0  0  0  0  0
  -20.4287   57.1316   11.1597 O   0  0  0  0  0  0  0  0  0  0  0  0
  -21.4469   59.3618   11.3916 O   0  0  0  0  0  0  0  0  0  0  0  0
  -19.8982   56.4095   11.5313 H   0  0  0  0  0  0  0  0  0  0  0  0
  -21.6092   60.1577   11.9217 H   0  0  0  0  0  0  0  0  0  0  0  0
  -17.0356   51.1305   20.1244 C   0  0  0  0  0  0  0  0  0  0  0  0
  -18.0389   50.2019   20.8312 C   0  0  0  0  0  0  0  0  0  0  0  0
  -19.3476   50.3439   20.4664 N   0  0  0  0  0  0  0  0  0  0  0  0
  -17.7059   49.3457   21.6492 O   0  0  0  0  0  0  0  0  0  0  0  0
  -19.6039   51.0323   19.8109 H   0  0  0  0  0  0  0  0  0  0  0  0
  -20.0344   49.7580   20.8590 H   0  0  0  0  0  0  0  0  0  0  0  0
  -16.4204   52.1006   21.1448 C   0  0  0  0  0  0  0  0  0  0  0  0
  -14.9362   52.3883   20.8854 C   0  0  0  0  0  0  0  0  0  0  0  0
  -14.4416   53.5684   21.7367 C   0  0  0  0  0  0  0  0  0  0  0  0
  -12.9049   53.6341   21.9887 C   0  0  0  0  0  0  0  0  0  0  0  0
  -12.4697   52.5749   23.0109 C   0  0  0  0  0  0  0  0  0  0  0  0
  -12.5520   55.0212   22.5905 C   0  0  0  0  0  0  0  0  0  0  0  0
  -12.1117   53.5363   20.6353 C   0  0  0  0  0  0  0  0  0  0  0  0
  -10.6536   52.9713   20.4943 C   0  0  0  0  0  0  0  0  0  0  0  0
  -10.5780   51.5115   20.0513 C   0  0  0  0  0  0  0  0  0  0  0  0
   -9.9393   53.0673   21.8717 C   0  0  0  0  0  0  0  0  0  0  0  0
   -9.8244   53.9169   19.5369 C   0  0  0  0  0  0  0  0  0  0  0  0
   -9.9640   56.2919   20.3062 C   0  0  0  0  0  0  0  0  0  0  0  0
  -10.2837   55.3529   19.1144 C   0  0  0  0  0  0  0  0  0  0  0  0
   -9.4909   55.8860   17.9052 C   0  0  0  0  0  0  0  0  0  0  0  0
  -11.7836   55.4761   18.8225 C   0  0  0  0  0  0  0  0  0  0  0  0
 41 42  1  0
 42 43  1  0
 42 44  1  0
 42 40  1  0
 40 37  1  0
 37 38  1  0
 37 39  1  0
 37 36  1  0
 36 33  1  0
 33 34  1  0
 33 35  1  0
 33 32  1  0
 32 31  1  0
 31 30  1  0
 24 30  1  0
 24  1  1  0
  1  2  1  0
  2  3  2  0
  2  5  1  0
  5  6  2  0
  6  7  1  0
  7  8  2  0
  8  9  1  0
  9 10  2  0
 10 15  1  0
 15 16  1  0
 15 17  1  0
 15 18  1  0
 18 19  2  0
 18 20  1  0
 18 21  1  0
 10 11  1  0
 11 12  2  0
 12 13  1  0
 13 14  2  0
 24 25  1  0
 25 26  1  0
 25 27  2  0
 14  5  1  0
 13  8  1  0
  1  4  1  0
 20 22  1  0
 21 23  1  0
 26 28  1  0
 26 29  1  0
M  END
> <minimizedAffinity>
-8.76461

> <CNNscore>
0.7143819332

> <CNNaffinity>
6.4051938057

> <CNN_VS>
4.5757546425

> <CNNaffinity_variance>
0.3389328718

$$$$



 44 45  0  0  0  0  0  0  0  0999 V2000
  -18.0057   51.8304   19.1893 N   0  0  0  0  0  0  0  0  0  0  0  0
  -18.4528   53.1213   19.3468 C   0  0  0  0  0  0  0  0  0  0  0  0
  -18.2896   53.7451   20.3923 O   0  0  0  0  0  0  0  0  0  0  0  0
  -18.1724   51.3699   18.3353 H   0  0  0  0  0  0  0  0  0  0  0  0
  -19.1643   53.7616   18.1976 C   0  0  0  0  0  0  0  0  0  0  0  0
  -20.1323   53.1092   17.4278 C   0  0  0  0  0  0  0  0  0  0  0  0
  -20.7717   53.7822   16.3798 C   0  0  0  0  0  0  0  0  0  0  0  0
  -20.4643   55.1192   16.0861 C   0  0  0  0  0  0  0  0  0  0  0  0
  -21.1079   55.8079   15.0445 C   0  0  0  0  0  0  0  0  0  0  0  0
  -20.8022   57.1489   14.7617 C   0  0  0  0  0  0  0  0  0  0  0  0
  -19.8403   57.8024   15.5397 C   0  0  0  0  0  0  0  0  0  0  0  0
  -19.1913   57.1276   16.5759 C   0  0  0  0  0  0  0  0  0  0  0  0
  -19.4930   55.7875   16.8611 C   0  0  0  0  0  0  0  0  0  0  0  0
  -18.8540   55.0993   17.9058 C   0  0  0  0  0  0  0  0  0  0  0  0
  -21.5300   57.8796   13.6662 C   0  0  0  0  0  0  0  0  0  0  0  0
  -22.6387   57.2281   13.2114 F   0  0  0  0  0  0  0  0  0  0  0  0
  -21.9436   59.1293   14.0238 F   0  0  0  0  0  0  0  0  0  0  0  0
  -20.6342   58.1945   12.1297 P   0  0  0  0  0  0  0  0  0  0  0  0
  -20.3607   57.0540   11.1951 O   0  0  0  0  0  0  0  0  0  0  0  0
  -21.3615   59.3932   11.3314 O   0  0  0  0  0  0  0  0  0  0  0  0
  -19.2455   58.9304   12.5028 O   0  0  0  0  0  0  0  0  0  0  0  0
  -22.2359   59.0986   11.0322 H   0  0  0  0  0  0  0  0  0  0  0  0
  -18.6798   58.3199   13.0012 H   0  0  0  0  0  0  0  0  0  0  0  0
  -17.2922   51.1202   20.2460 C   0  0  0  0  0  0  0  0  0  0  0  0
  -18.3013   50.1639   20.9061 C   0  0  0  0  0  0  0  0  0  0  0  0
  -19.5253   50.6936   21.2010 N   0  0  0  0  0  0  0  0  0  0  0  0
  -18.0616   48.9781   21.1286 O   0  0  0  0  0  0  0  0  0  0  0  0
  -19.7073   51.6439   21.0190 H   0  0  0  0  0  0  0  0  0  0  0  0
  -20.2256   50.1252   21.5955 H   0  0  0  0  0  0  0  0  0  0  0  0
  -16.7231   52.0813   21.3011 C   0  0  0  0  0  0  0  0  0  0  0  0
  -15.2362   51.8445   21.5940 C   0  0  0  0  0  0  0  0  0  0  0  0
  -14.5654   53.1189   22.1304 C   0  0  0  0  0  0  0  0  0  0  0  0
  -13.2594   53.5626   21.4045 C   0  0  0  0  0  0  0  0  0  0  0  0
  -12.8117   52.5066   20.3844 C   0  0  0  0  0  0  0  0  0  0  0  0
  -12.1214   53.6963   22.4522 C   0  0  0  0  0  0  0  0  0  0  0  0
  -13.4306   54.9897   20.7685 C   0  0  0  0  0  0  0  0  0  0  0  0
  -12.2704   55.8186   20.1110 C   0  0  0  0  0  0  0  0  0  0  0  0
  -11.4283   55.0418   19.1007 C   0  0  0  0  0  0  0  0  0  0  0  0
  -11.3057   56.3101   21.2264 C   0  0  0  0  0  0  0  0  0  0  0  0
  -12.8719   57.1371   19.4802 C   0  0  0  0  0  0  0  0  0  0  0  0
  -13.6346   59.5150   19.6075 C   0  0  0  0  0  0  0  0  0  0  0  0
  -13.8274   58.1144   20.2442 C   0  0  0  0  0  0  0  0  0  0  0  0
  -15.3114   57.7431   20.0572 C   0  0  0  0  0  0  0  0  0  0  0  0
  -13.5300   58.2463   21.7422 C   0  0  0  0  0  0  0  0  0  0  0  0
 41 42  1  0
 42 43  1  0
 42 44  1  0
 42 40  1  0
 40 37  1  0
 37 38  1  0
 37 39  1  0
 37 36  1  0
 36 33  1  0
 33 34  1  0
 33 35  1  0
 33 32  1  0
 32 31  1  0
 31 30  1  0
 24 30  1  0
 24  1  1  0
  1  2  1  0
  2  3  2  0
  2  5  1  0
  5  6  2  0
  6  7  1  0
  7  8  2  0
  8  9  1  0
  9 10  2  0
 10 15  1  0
 15 16  1  0
 15 17  1  0
 15 18  1  0
 18 19  2  0
 18 20  1  0
 18 21  1  0
 10 11  1  0
 11 12  2  0
 12 13  1  0
 13 14  2  0
 24 25  1  0
 25 26  1  0
 25 27  2  0
 14  5  1  0
 13  8  1  0
  1  4  1  0
 20 22  1  0
 21 23  1  0
 26 28  1  0
 26 29  1  0
M  END
> <minimizedAffinity>
-8.91223

> <CNNscore>
0.7090321779

> <CNNaffinity>
6.2760901451

> <CNN_VS>
4.4499497414

> <CNNaffinity_variance>
0.3655103445

$$$$



 44 45  0  0  0  0  0  0  0  0999 V2000
  -17.7642   51.8695   19.1780 N   0  0  0  0  0  0  0  0  0  0  0  0
  -18.4209   53.0614   19.3766 C   0  0  0  0  0  0  0  0  0  0  0  0
  -18.4393   53.6217   20.4696 O   0  0  0  0  0  0  0  0  0  0  0  0
  -17.7899   51.4550   18.2854 H   0  0  0  0  0  0  0  0  0  0  0  0
  -19.1344   53.6708   18.2121 C   0  0  0  0  0  0  0  0  0  0  0  0
  -20.0815   52.9880   17.4425 C   0  0  0  0  0  0  0  0  0  0  0  0
  -20.7245   53.6331   16.3793 C   0  0  0  0  0  0  0  0  0  0  0  0
  -20.4418   54.9720   16.0698 C   0  0  0  0  0  0  0  0  0  0  0  0
  -21.0895   55.6328   15.0127 C   0  0  0  0  0  0  0  0  0  0  0  0
  -20.8087   56.9757   14.7139 C   0  0  0  0  0  0  0  0  0  0  0  0
  -19.8678   57.6596   15.4916 C   0  0  0  0  0  0  0  0  0  0  0  0
  -19.2150   57.0128   16.5430 C   0  0  0  0  0  0  0  0  0  0  0  0
  -19.4919   55.6708   16.8442 C   0  0  0  0  0  0  0  0  0  0  0  0
  -18.8488   55.0105   17.9043 C   0  0  0  0  0  0  0  0  0  0  0  0
  -21.5409   57.6759   13.6016 C   0  0  0  0  0  0  0  0  0  0  0  0
  -22.4524   56.8891   12.9608 F   0  0  0  0  0  0  0  0  0  0  0  0
  -22.2181   58.7881   14.0082 F   0  0  0  0  0  0  0  0  0  0  0  0
  -20.5627   58.3038   12.2190 P   0  0  0  0  0  0  0  0  0  0  0  0
  -19.2278   58.9303   12.4920 O   0  0  0  0  0  0  0  0  0  0  0  0
  -20.4044   57.1395   11.1134 O   0  0  0  0  0  0  0  0  0  0  0  0
  -21.4824   59.3369   11.3847 O   0  0  0  0  0  0  0  0  0  0  0  0
  -19.8597   56.4227   11.4744 H   0  0  0  0  0  0  0  0  0  0  0  0
  -21.6712   60.1157   11.9312 H   0  0  0  0  0  0  0  0  0  0  0  0
  -17.0306   51.1985   20.2465 C   0  0  0  0  0  0  0  0  0  0  0  0
  -18.0767   50.6132   21.2118 C   0  0  0  0  0  0  0  0  0  0  0  0
  -17.7380   50.6130   22.5351 N   0  0  0  0  0  0  0  0  0  0  0  0
  -19.1766   50.2012   20.8464 O   0  0  0  0  0  0  0  0  0  0  0  0
  -16.8552   50.9449   22.8173 H   0  0  0  0  0  0  0  0  0  0  0  0
  -18.3769   50.2810   23.2066 H   0  0  0  0  0  0  0  0  0  0  0  0
  -16.1091   52.1654   21.0057 C   0  0  0  0  0  0  0  0  0  0  0  0
  -14.6661   51.6583   21.1220 C   0  0  0  0  0  0  0  0  0  0  0  0
  -13.7131   52.4877   20.2471 C   0  0  0  0  0  0  0  0  0  0  0  0
  -13.2089   53.8274   20.8639 C   0  0  0  0  0  0  0  0  0  0  0  0
  -12.3455   53.5699   22.1066 C   0  0  0  0  0  0  0  0  0  0  0  0
  -14.4342   54.6624   21.3246 C   0  0  0  0  0  0  0  0  0  0  0  0
  -12.4744   54.6995   19.7820 C   0  0  0  0  0  0  0  0  0  0  0  0
  -11.8757   56.1273   20.0431 C   0  0  0  0  0  0  0  0  0  0  0  0
  -12.5332   56.8918   21.1904 C   0  0  0  0  0  0  0  0  0  0  0  0
  -12.0496   56.9901   18.7617 C   0  0  0  0  0  0  0  0  0  0  0  0
  -10.3128   56.0026   20.2432 C   0  0  0  0  0  0  0  0  0  0  0  0
  -10.1464   54.8906   18.0098 C   0  0  0  0  0  0  0  0  0  0  0  0
   -9.3832   55.1250   19.3390 C   0  0  0  0  0  0  0  0  0  0  0  0
   -8.0721   55.8488   18.9756 C   0  0  0  0  0  0  0  0  0  0  0  0
   -9.0485   53.7486   19.9251 C   0  0  0  0  0  0  0  0  0  0  0  0
 41 42  1  0
 42 43  1  0
 42 44  1  0
 42 40  1  0
 40 37  1  0
 37 38  1  0
 37 39  1  0
 37 36  1  0
 36 33  1  0
 33 34  1  0
 33 35  1  0
 33 32  1  0
 32 31  1  0
 31 30  1  0
 24 30  1  0
 24  1  1  0
  1  2  1  0
  2  3  2  0
  2  5  1  0
  5  6  2  0
  6  7  1  0
  7  8  2  0
  8  9  1  0
  9 10  2  0
 10 15  1  0
 15 16  1  0
 15 17  1  0
 15 18  1  0
 18 19  2  0
 18 20  1  0
 18 21  1  0
 10 11  1  0
 11 12  2  0
 12 13  1  0
 13 14  2  0
 24 25  1  0
 25 26  1  0
 25 27  2  0
 14  5  1  0
 13  8  1  0
  1  4  1  0
 20 22  1  0
 21 23  1  0
 26 28  1  0
 26 29  1  0
M  END
> <minimizedAffinity>
-8.96433

> <CNNscore>
0.6316146851

> <CNNaffinity>
6.4168753624

> <CNN_VS>
4.0529928207

> <CNNaffinity_variance>
0.2834861577

$$$$



 44 45  0  0  0  0  0  0  0  0999 V2000
  -17.4262   52.4103   19.1628 N   0  0  0  0  0  0  0  0  0  0  0  0
  -18.7405   52.7783   19.3322 C   0  0  0  0  0  0  0  0  0  0  0  0
  -19.3601   52.5281   20.3628 O   0  0  0  0  0  0  0  0  0  0  0  0
  -16.9781   52.6239   18.3126 H   0  0  0  0  0  0  0  0  0  0  0  0
  -19.4172   53.4976   18.2091 C   0  0  0  0  0  0  0  0  0  0  0  0
  -20.4612   52.9490   17.4577 C   0  0  0  0  0  0  0  0  0  0  0  0
  -21.0605   53.6928   16.4342 C   0  0  0  0  0  0  0  0  0  0  0  0
  -20.6362   54.9990   16.1472 C   0  0  0  0  0  0  0  0  0  0  0  0
  -21.2381   55.7587   15.1303 C   0  0  0  0  0  0  0  0  0  0  0  0
  -20.8150   57.0687   14.8542 C   0  0  0  0  0  0  0  0  0  0  0  0
  -19.7767   57.6189   15.6139 C   0  0  0  0  0  0  0  0  0  0  0  0
  -19.1683   56.8726   16.6253 C   0  0  0  0  0  0  0  0  0  0  0  0
  -19.5874   55.5629   16.9037 C   0  0  0  0  0  0  0  0  0  0  0  0
  -18.9899   54.8041   17.9238 C   0  0  0  0  0  0  0  0  0  0  0  0
  -21.4981   57.8789   13.7861 C   0  0  0  0  0  0  0  0  0  0  0  0
  -22.6655   57.3314   13.3412 F   0  0  0  0  0  0  0  0  0  0  0  0
  -21.7987   59.1517   14.1739 F   0  0  0  0  0  0  0  0  0  0  0  0
  -20.6062   58.1476   12.2385 P   0  0  0  0  0  0  0  0  0  0  0  0
  -20.3428   56.9809   11.3337 O   0  0  0  0  0  0  0  0  0  0  0  0
  -21.3297   59.3287   11.4112 O   0  0  0  0  0  0  0  0  0  0  0  0
  -19.2119   58.8850   12.5869 O   0  0  0  0  0  0  0  0  0  0  0  0
  -22.2069   59.0313   11.1231 H   0  0  0  0  0  0  0  0  0  0  0  0
  -18.6479   58.2848   13.0994 H   0  0  0  0  0  0  0  0  0  0  0  0
  -16.6737   51.7138   20.2013 C   0  0  0  0  0  0  0  0  0  0  0  0
  -17.6040   50.6353   20.7843 C   0  0  0  0  0  0  0  0  0  0  0  0
  -17.9711   49.6343   19.9305 N   0  0  0  0  0  0  0  0  0  0  0  0
  -17.9772   50.6275   21.9564 O   0  0  0  0  0  0  0  0  0  0  0  0
  -17.6671   49.6497   18.9942 H   0  0  0  0  0  0  0  0  0  0  0  0
  -18.5395   48.8973   20.2515 H   0  0  0  0  0  0  0  0  0  0  0  0
  -16.2204   52.6659   21.3187 C   0  0  0  0  0  0  0  0  0  0  0  0
  -16.5086   54.1404   21.0094 C   0  0  0  0  0  0  0  0  0  0  0  0
  -15.2728   55.0153   21.2721 C   0  0  0  0  0  0  0  0  0  0  0  0
  -14.5039   54.7336   22.5983 C   0  0  0  0  0  0  0  0  0  0  0  0
  -15.4789   54.5292   23.7661 C   0  0  0  0  0  0  0  0  0  0  0  0
  -13.6288   55.9684   22.9453 C   0  0  0  0  0  0  0  0  0  0  0  0
  -13.5053   53.5328   22.4213 C   0  0  0  0  0  0  0  0  0  0  0  0
  -12.3872   53.4568   21.3216 C   0  0  0  0  0  0  0  0  0  0  0  0
  -10.9736   53.7273   21.8331 C   0  0  0  0  0  0  0  0  0  0  0  0
  -12.6854   54.5163   20.2239 C   0  0  0  0  0  0  0  0  0  0  0  0
  -12.4850   52.0632   20.5822 C   0  0  0  0  0  0  0  0  0  0  0  0
  -10.1810   51.6938   19.6837 C   0  0  0  0  0  0  0  0  0  0  0  0
  -11.3123   51.0283   20.5093 C   0  0  0  0  0  0  0  0  0  0  0  0
  -10.7227   50.7172   21.8987 C   0  0  0  0  0  0  0  0  0  0  0  0
  -11.6743   49.7112   19.8135 C   0  0  0  0  0  0  0  0  0  0  0  0
 41 42  1  0
 42 43  1  0
 42 44  1  0
 42 40  1  0
 40 37  1  0
 37 38  1  0
 37 39  1  0
 37 36  1  0
 36 33  1  0
 33 34  1  0
 33 35  1  0
 33 32  1  0
 32 31  1  0
 31 30  1  0
 24 30  1  0
 24  1  1  0
  1  2  1  0
  2  3  2  0
  2  5  1  0
  5  6  2  0
  6  7  1  0
  7  8  2  0
  8  9  1  0
  9 10  2  0
 10 15  1  0
 15 16  1  0
 15 17  1  0
 15 18  1  0
 18 19  2  0
 18 20  1  0
 18 21  1  0
 10 11  1  0
 11 12  2  0
 12 13  1  0
 13 14  2  0
 24 25  1  0
 25 26  1  0
 25 27  2  0
 14  5  1  0
 13  8  1  0
  1  4  1  0
 20 22  1  0
 21 23  1  0
 26 28  1  0
 26 29  1  0
M  END
> <minimizedAffinity>
-7.83082

> <CNNscore>
0.6188590527

> <CNNaffinity>
6.3858466148

> <CNN_VS>
3.9519388676

> <CNNaffinity_variance>
0.2820395827

$$$$



 44 45  0  0  0  0  0  0  0  0999 V2000
  -19.0192   52.2467   19.9364 N   0  0  0  0  0  0  0  0  0  0  0  0
  -18.3401   53.4215   20.1606 C   0  0  0  0  0  0  0  0  0  0  0  0
  -17.5591   53.5544   21.0993 O   0  0  0  0  0  0  0  0  0  0  0  0
  -19.6433   52.1954   19.1768 H   0  0  0  0  0  0  0  0  0  0  0  0
  -18.5831   54.5612   19.2232 C   0  0  0  0  0  0  0  0  0  0  0  0
  -18.1455   55.8672   19.4647 C   0  0  0  0  0  0  0  0  0  0  0  0
  -18.3922   56.8785   18.5284 C   0  0  0  0  0  0  0  0  0  0  0  0
  -19.0712   56.6046   17.3316 C   0  0  0  0  0  0  0  0  0  0  0  0
  -19.3139   57.6089   16.3799 C   0  0  0  0  0  0  0  0  0  0  0  0
  -19.9859   57.3263   15.1798 C   0  0  0  0  0  0  0  0  0  0  0  0
  -20.4141   56.0166   14.9362 C   0  0  0  0  0  0  0  0  0  0  0  0
  -20.1815   55.0102   15.8760 C   0  0  0  0  0  0  0  0  0  0  0  0
  -19.5114   55.2886   17.0767 C   0  0  0  0  0  0  0  0  0  0  0  0
  -19.2634   54.2841   18.0268 C   0  0  0  0  0  0  0  0  0  0  0  0
  -20.2025   58.4082   14.1570 C   0  0  0  0  0  0  0  0  0  0  0  0
  -20.8630   59.4993   14.6404 F   0  0  0  0  0  0  0  0  0  0  0  0
  -19.0468   58.8775   13.6047 F   0  0  0  0  0  0  0  0  0  0  0  0
  -21.1882   57.9991   12.6997 P   0  0  0  0  0  0  0  0  0  0  0  0
  -21.8669   59.1013   11.9423 O   0  0  0  0  0  0  0  0  0  0  0  0
  -20.2948   57.1120   11.6908 O   0  0  0  0  0  0  0  0  0  0  0  0
  -22.2802   56.8895   13.1306 O   0  0  0  0  0  0  0  0  0  0  0  0
  -19.5730   57.6543   11.3361 H   0  0  0  0  0  0  0  0  0  0  0  0
  -22.9096   57.2812   13.7561 H   0  0  0  0  0  0  0  0  0  0  0  0
  -18.8453   51.0736   20.7870 C   0  0  0  0  0  0  0  0  0  0  0  0
  -17.8478   50.1441   20.0730 C   0  0  0  0  0  0  0  0  0  0  0  0
  -18.1548   48.8131   20.0838 N   0  0  0  0  0  0  0  0  0  0  0  0
  -16.8477   50.5518   19.4842 O   0  0  0  0  0  0  0  0  0  0  0  0
  -18.9575   48.4969   20.5579 H   0  0  0  0  0  0  0  0  0  0  0  0
  -17.5732   48.1701   19.6174 H   0  0  0  0  0  0  0  0  0  0  0  0
  -20.1701   50.3309   21.0193 C   0  0  0  0  0  0  0  0  0  0  0  0
  -21.3541   51.2730   21.2714 C   0  0  0  0  0  0  0  0  0  0  0  0
  -22.3661   51.2154   20.1163 C   0  0  0  0  0  0  0  0  0  0  0  0
  -23.2240   52.4974   19.8932 C   0  0  0  0  0  0  0  0  0  0  0  0
  -24.3578   52.5863   20.9241 C   0  0  0  0  0  0  0  0  0  0  0  0
  -23.8869   52.4222   18.4912 C   0  0  0  0  0  0  0  0  0  0  0  0
  -22.3168   53.7807   19.8735 C   0  0  0  0  0  0  0  0  0  0  0  0
  -22.6601   55.1275   20.6040 C   0  0  0  0  0  0  0  0  0  0  0  0
  -21.5868   56.2075   20.4829 C   0  0  0  0  0  0  0  0  0  0  0  0
  -22.8532   54.8447   22.1204 C   0  0  0  0  0  0  0  0  0  0  0  0
  -24.0675   55.6425   20.1016 C   0  0  0  0  0  0  0  0  0  0  0  0
  -23.7682   57.8893   21.1573 C   0  0  0  0  0  0  0  0  0  0  0  0
  -24.8375   56.8459   20.7426 C   0  0  0  0  0  0  0  0  0  0  0  0
  -25.7704   57.5441   19.7341 C   0  0  0  0  0  0  0  0  0  0  0  0
  -25.6390   56.4859   21.9988 C   0  0  0  0  0  0  0  0  0  0  0  0
 41 42  1  0
 42 43  1  0
 42 44  1  0
 42 40  1  0
 40 37  1  0
 37 38  1  0
 37 39  1  0
 37 36  1  0
 36 33  1  0
 33 34  1  0
 33 35  1  0
 33 32  1  0
 32 31  1  0
 31 30  1  0
 24 30  1  0
 24  1  1  0
  1  2  1  0
  2  3  2  0
  2  5  1  0
  5  6  2  0
  6  7  1  0
  7  8  2  0
  8  9  1  0
  9 10  2  0
 10 15  1  0
 15 16  1  0
 15 17  1  0
 15 18  1  0
 18 19  2  0
 18 20  1  0
 18 21  1  0
 10 11  1  0
 11 12  2  0
 12 13  1  0
 13 14  2  0
 24 25  1  0
 25 26  1  0
 25 27  2  0
 14  5  1  0
 13  8  1  0
  1  4  1  0
 20 22  1  0
 21 23  1  0
 26 28  1  0
 26 29  1  0
M  END
> <minimizedAffinity>
-7.37675

> <CNNscore>
0.6069053411

> <CNNaffinity>
6.3824324608

> <CNN_VS>
3.8735322952

> <CNNaffinity_variance>
0.2285160273

$$$$



 44 45  0  0  0  0  0  0  0  0999 V2000
  -17.9655   52.4320   19.2627 N   0  0  0  0  0  0  0  0  0  0  0  0
  -18.1659   53.7373   19.6466 C   0  0  0  0  0  0  0  0  0  0  0  0
  -17.9059   54.1309   20.7808 O   0  0  0  0  0  0  0  0  0  0  0  0
  -18.2015   52.1643   18.3452 H   0  0  0  0  0  0  0  0  0  0  0  0
  -18.7266   54.6867   18.6361 C   0  0  0  0  0  0  0  0  0  0  0  0
  -18.4577   56.0590   18.6325 C   0  0  0  0  0  0  0  0  0  0  0  0
  -19.0024   56.8821   17.6395 C   0  0  0  0  0  0  0  0  0  0  0  0
  -19.8171   56.3513   16.6282 C   0  0  0  0  0  0  0  0  0  0  0  0
  -20.3594   57.1658   15.6203 C   0  0  0  0  0  0  0  0  0  0  0  0
  -21.1665   56.6268   14.6056 C   0  0  0  0  0  0  0  0  0  0  0  0
  -21.4260   55.2518   14.6058 C   0  0  0  0  0  0  0  0  0  0  0  0
  -20.8952   54.4322   15.6042 C   0  0  0  0  0  0  0  0  0  0  0  0
  -20.0893   54.9669   16.6204 C   0  0  0  0  0  0  0  0  0  0  0  0
  -19.5420   54.1527   17.6258 C   0  0  0  0  0  0  0  0  0  0  0  0
  -21.7065   57.5103   13.5140 C   0  0  0  0  0  0  0  0  0  0  0  0
  -22.5451   56.8690   12.6503 F   0  0  0  0  0  0  0  0  0  0  0  0
  -22.3941   58.5934   13.9776 F   0  0  0  0  0  0  0  0  0  0  0  0
  -20.5189   58.2634   12.3804 P   0  0  0  0  0  0  0  0  0  0  0  0
  -19.1978   58.7345   12.9114 O   0  0  0  0  0  0  0  0  0  0  0  0
  -20.2833   57.2727   11.1289 O   0  0  0  0  0  0  0  0  0  0  0  0
  -21.2584   59.4805   11.6182 O   0  0  0  0  0  0  0  0  0  0  0  0
  -19.8338   56.4688   11.4331 H   0  0  0  0  0  0  0  0  0  0  0  0
  -21.4724   60.1791   12.2561 H   0  0  0  0  0  0  0  0  0  0  0  0
  -17.4145   51.4306   20.1701 C   0  0  0  0  0  0  0  0  0  0  0  0
  -18.6069   50.7404   20.8561 C   0  0  0  0  0  0  0  0  0  0  0  0
  -19.8095   50.8452   20.2169 N   0  0  0  0  0  0  0  0  0  0  0  0
  -18.5044   50.0918   21.8962 O   0  0  0  0  0  0  0  0  0  0  0  0
  -19.8810   51.3667   19.3850 H   0  0  0  0  0  0  0  0  0  0  0  0
  -20.6048   50.3992   20.5882 H   0  0  0  0  0  0  0  0  0  0  0  0
  -16.4990   52.0591   21.2320 C   0  0  0  0  0  0  0  0  0  0  0  0
  -15.0323   52.1435   20.7911 C   0  0  0  0  0  0  0  0  0  0  0  0
  -14.4998   53.5807   20.9034 C   0  0  0  0  0  0  0  0  0  0  0  0
  -13.0800   53.7380   21.5271 C   0  0  0  0  0  0  0  0  0  0  0  0
  -11.9997   53.2041   20.5763 C   0  0  0  0  0  0  0  0  0  0  0  0
  -13.0039   52.8908   22.8260 C   0  0  0  0  0  0  0  0  0  0  0  0
  -12.8239   55.2253   21.9661 C   0  0  0  0  0  0  0  0  0  0  0  0
  -12.4019   56.3828   20.9928 C   0  0  0  0  0  0  0  0  0  0  0  0
  -12.6558   56.0942   19.5145 C   0  0  0  0  0  0  0  0  0  0  0  0
  -10.8779   56.6454   21.1508 C   0  0  0  0  0  0  0  0  0  0  0  0
  -13.0981   57.7246   21.4547 C   0  0  0  0  0  0  0  0  0  0  0  0
  -13.5572   58.9543   19.3265 C   0  0  0  0  0  0  0  0  0  0  0  0
  -14.2167   58.4550   20.6380 C   0  0  0  0  0  0  0  0  0  0  0  0
  -15.3547   57.5007   20.2265 C   0  0  0  0  0  0  0  0  0  0  0  0
  -14.8185   59.6760   21.3430 C   0  0  0  0  0  0  0  0  0  0  0  0
 41 42  1  0
 42 43  1  0
 42 44  1  0
 42 40  1  0
 40 37  1  0
 37 38  1  0
 37 39  1  0
 37 36  1  0
 36 33  1  0
 33 34  1  0
 33 35  1  0
 33 32  1  0
 32 31  1  0
 31 30  1  0
 24 30  1  0
 24  1  1  0
  1  2  1  0
  2  3  2  0
  2  5  1  0
  5  6  2  0
  6  7  1  0
  7  8  2  0
  8  9  1  0
  9 10  2  0
 10 15  1  0
 15 16  1  0
 15 17  1  0
 15 18  1  0
 18 19  2  0
 18 20  1  0
 18 21  1  0
 10 11  1  0
 11 12  2  0
 12 13  1  0
 13 14  2  0
 24 25  1  0
 25 26  1  0
 25 27  2  0
 14  5  1  0
 13  8  1  0
  1  4  1  0
 20 22  1  0
 21 23  1  0
 26 28  1  0
 26 29  1  0
M  END
> <minimizedAffinity>
-8.37728

> <CNNscore>
0.5789161921

> <CNNaffinity>
6.2484450340

> <CNN_VS>
3.6173260212

> <CNNaffinity_variance>
0.2996525764

$$$$



 44 45  0  0  0  0  0  0  0  0999 V2000
  -17.6510   51.9212   19.0368 N   0  0  0  0  0  0  0  0  0  0  0  0
  -18.5199   52.9429   19.3410 C   0  0  0  0  0  0  0  0  0  0  0  0
  -18.7365   53.2918   20.4987 O   0  0  0  0  0  0  0  0  0  0  0  0
  -17.5215   51.6718   18.0932 H   0  0  0  0  0  0  0  0  0  0  0  0
  -19.2171   53.6300   18.2103 C   0  0  0  0  0  0  0  0  0  0  0  0
  -20.2069   53.0241   17.4303 C   0  0  0  0  0  0  0  0  0  0  0  0
  -20.8306   53.7396   16.4011 C   0  0  0  0  0  0  0  0  0  0  0  0
  -20.4853   55.0734   16.1368 C   0  0  0  0  0  0  0  0  0  0  0  0
  -21.1127   55.8045   15.1144 C   0  0  0  0  0  0  0  0  0  0  0  0
  -20.7691   57.1421   14.8609 C   0  0  0  0  0  0  0  0  0  0  0  0
  -19.7852   57.7491   15.6492 C   0  0  0  0  0  0  0  0  0  0  0  0
  -19.1520   57.0319   16.6664 C   0  0  0  0  0  0  0  0  0  0  0  0
  -19.4917   55.6949   16.9222 C   0  0  0  0  0  0  0  0  0  0  0  0
  -18.8688   54.9645   17.9478 C   0  0  0  0  0  0  0  0  0  0  0  0
  -21.4796   57.9188   13.7860 C   0  0  0  0  0  0  0  0  0  0  0  0
  -22.6468   57.3465   13.3726 F   0  0  0  0  0  0  0  0  0  0  0  0
  -21.7907   59.1963   14.1496 F   0  0  0  0  0  0  0  0  0  0  0  0
  -20.6162   58.1633   12.2184 P   0  0  0  0  0  0  0  0  0  0  0  0
  -20.3793   56.9846   11.3219 O   0  0  0  0  0  0  0  0  0  0  0  0
  -21.3468   59.3407   11.3919 O   0  0  0  0  0  0  0  0  0  0  0  0
  -19.2099   58.8938   12.5313 O   0  0  0  0  0  0  0  0  0  0  0  0
  -22.2317   59.0469   11.1244 H   0  0  0  0  0  0  0  0  0  0  0  0
  -18.6405   58.2950   13.0394 H   0  0  0  0  0  0  0  0  0  0  0  0
  -16.9145   51.1943   20.0660 C   0  0  0  0  0  0  0  0  0  0  0  0
  -17.8847   50.1636   20.6702 C   0  0  0  0  0  0  0  0  0  0  0  0
  -18.0535   49.0098   19.9588 N   0  0  0  0  0  0  0  0  0  0  0  0
  -18.4557   50.3247   21.7477 O   0  0  0  0  0  0  0  0  0  0  0  0
  -17.5920   48.8906   19.0974 H   0  0  0  0  0  0  0  0  0  0  0  0
  -18.6368   48.2974   20.3075 H   0  0  0  0  0  0  0  0  0  0  0  0
  -16.3977   52.1287   21.1707 C   0  0  0  0  0  0  0  0  0  0  0  0
  -15.1539   52.9245   20.7554 C   0  0  0  0  0  0  0  0  0  0  0  0
  -14.4649   53.5558   21.9755 C   0  0  0  0  0  0  0  0  0  0  0  0
  -14.8073   55.0498   22.2581 C   0  0  0  0  0  0  0  0  0  0  0  0
  -15.8462   55.5745   21.2574 C   0  0  0  0  0  0  0  0  0  0  0  0
  -13.5240   55.9043   22.0738 C   0  0  0  0  0  0  0  0  0  0  0  0
  -15.2475   55.2492   23.7538 C   0  0  0  0  0  0  0  0  0  0  0  0
  -14.2923   55.1062   24.9917 C   0  0  0  0  0  0  0  0  0  0  0  0
  -13.3950   56.3161   25.2449 C   0  0  0  0  0  0  0  0  0  0  0  0
  -13.3576   53.8839   24.7701 C   0  0  0  0  0  0  0  0  0  0  0  0
  -15.1515   54.7382   26.2663 C   0  0  0  0  0  0  0  0  0  0  0  0
  -17.5790   54.3036   26.6789 C   0  0  0  0  0  0  0  0  0  0  0  0
  -16.2443   53.6171   26.2898 C   0  0  0  0  0  0  0  0  0  0  0  0
  -16.4598   52.9844   24.9012 C   0  0  0  0  0  0  0  0  0  0  0  0
  -15.9857   52.5040   27.3116 C   0  0  0  0  0  0  0  0  0  0  0  0
 41 42  1  0
 42 43  1  0
 42 44  1  0
 42 40  1  0
 40 37  1  0
 37 38  1  0
 37 39  1  0
 37 36  1  0
 36 33  1  0
 33 34  1  0
 33 35  1  0
 33 32  1  0
 32 31  1  0
 31 30  1  0
 24 30  1  0
 24  1  1  0
  1  2  1  0
  2  3  2  0
  2  5  1  0
  5  6  2  0
  6  7  1  0
  7  8  2  0
  8  9  1  0
  9 10  2  0
 10 15  1  0
 15 16  1  0
 15 17  1  0
 15 18  1  0
 18 19  2  0
 18 20  1  0
 18 21  1  0
 10 11  1  0
 11 12  2  0
 12 13  1  0
 13 14  2  0
 24 25  1  0
 25 26  1  0
 25 27  2  0
 14  5  1  0
 13  8  1  0
  1  4  1  0
 20 22  1  0
 21 23  1  0
 26 28  1  0
 26 29  1  0
M  END
> <minimizedAffinity>
-7.46710

> <CNNscore>
0.5752710700

> <CNNaffinity>
6.2838973999

> <CNN_VS>
3.6149444580

> <CNNaffinity_variance>
0.0773297921

$$$$
