


 33 35  0  0  0  0  0  0  0  0999 V2000
   90.8263   95.5518  -44.9503 C   0  0  0  0  0  0  0  0  0  0  0  0
   90.9119   94.5718  -45.9570 C   0  0  0  0  0  0  0  0  0  0  0  0
   91.4565   93.3130  -45.6906 C   0  0  0  0  0  0  0  0  0  0  0  0
   91.9194   93.0092  -44.4102 C   0  0  0  0  0  0  0  0  0  0  0  0
   91.8334   93.9681  -43.3998 C   0  0  0  0  0  0  0  0  0  0  0  0
   92.5361   93.4704  -41.4947 I   0  0  0  0  0  0  0  0  0  0  0  0
   91.2856   95.2305  -43.6662 C   0  0  0  0  0  0  0  0  0  0  0  0
   91.1829   96.1798  -42.6846 O   0  0  0  0  0  0  0  0  0  0  0  0
   91.4825   95.9909  -41.8171 H   0  0  0  0  0  0  0  0  0  0  0  0
   91.5340   92.3317  -46.7287 C   0  0  0  0  0  0  0  0  0  0  0  0
   91.5895   91.5091  -47.6029 C   0  0  0  0  0  0  0  0  0  0  0  0
   91.6519   90.5053  -48.6727 C   0  0  0  0  0  0  0  0  0  0  0  0
   90.6374   89.4896  -48.4341 N   0  0  0  0  0  0  0  0  0  0  0  0
   90.5109   89.1238  -47.5289 H   0  0  0  0  0  0  0  0  0  0  0  0
   89.8429   89.0334  -49.4882 C   0  0  0  0  0  0  0  0  0  0  0  0
   89.3124   89.9794  -50.3799 C   0  0  0  0  0  0  0  0  0  0  0  0
   88.5655   89.5913  -51.4973 C   0  0  0  0  0  0  0  0  0  0  0  0
   88.3624   88.2401  -51.7526 C   0  0  0  0  0  0  0  0  0  0  0  0
   87.4483   87.7528  -53.1260 Cl  0  0  0  0  0  0  0  0  0  0  0  0
   88.9100   87.2805  -50.9069 C   0  0  0  0  0  0  0  0  0  0  0  0
   89.6570   87.6781  -49.7909 C   0  0  0  0  0  0  0  0  0  0  0  0
   90.2082   96.8989  -45.2685 C   0  0  0  0  0  0  0  0  0  0  0  0
   91.5429  100.2056  -42.9768 C   0  0  0  0  0  0  0  0  0  0  0  0
   92.0252  100.1129  -44.4325 C   0  0  0  0  0  0  0  0  0  0  0  0
   91.8004   98.6989  -44.9931 C   0  0  0  0  0  0  0  0  0  0  0  0
   90.6721   97.9790  -44.3759 N   0  0  0  0  0  0  0  0  0  0  0  0
   89.5938   98.9022  -44.0171 C   0  0  0  0  0  0  0  0  0  0  0  0
   90.0439   99.8458  -42.8916 C   0  0  0  0  0  0  0  0  0  0  0  0
   91.9356  101.4846  -42.3305 N   0  0  0  0  0  0  0  0  0  0  0  0
   91.1711  101.9018  -40.0068 C   0  0  0  0  0  0  0  0  0  0  0  0
   92.2761  101.3479  -40.9042 C   0  0  0  0  0  0  0  0  0  0  0  0
   93.0123  102.1794  -43.0638 C   0  0  0  0  0  0  0  0  0  0  0  0
   94.0392  102.8315  -42.1415 C   0  0  0  0  0  0  0  0  0  0  0  0
 30 31  1  0
 31 29  1  0
 29 32  1  0
 32 33  1  0
 29 23  1  0
 23 24  1  0
 24 25  1  0
 25 26  1  0
 26 22  1  0
 22  1  1  0
  1  2  2  0
  2  3  1  0
  3 10  1  0
 10 11  3  0
 11 12  1  0
 12 13  1  0
 13 15  1  0
 15 16  2  0
 16 17  1  0
 17 18  2  0
 18 19  1  0
 18 20  1  0
 20 21  2  0
  3  4  2  0
  4  5  1  0
  5  6  1  0
  5  7  2  0
  7  8  1  0
 26 27  1  0
 27 28  1  0
 28 23  1  0
  7  1  1  0
 21 15  1  0
 13 14  1  0
  8  9  1  0
M  END
> <minimizedAffinity>
-7.58162

> <CNNscore>
0.8914211392

> <CNNaffinity>
6.1524968147

> <CNN_VS>
5.4844655991

> <CNNaffinity_variance>
0.6469464898

$$$$



 33 35  0  0  0  0  0  0  0  0999 V2000
   90.8864   95.6983  -45.1374 C   0  0  0  0  0  0  0  0  0  0  0  0
   91.0109   94.6186  -46.0319 C   0  0  0  0  0  0  0  0  0  0  0  0
   91.4794   93.3758  -45.5981 C   0  0  0  0  0  0  0  0  0  0  0  0
   91.8259   93.1885  -44.2598 C   0  0  0  0  0  0  0  0  0  0  0  0
   91.6998   94.2477  -43.3597 C   0  0  0  0  0  0  0  0  0  0  0  0
   92.2273   93.9231  -41.3629 I   0  0  0  0  0  0  0  0  0  0  0  0
   91.2282   95.4941  -43.7941 C   0  0  0  0  0  0  0  0  0  0  0  0
   91.0876   96.5412  -42.9229 O   0  0  0  0  0  0  0  0  0  0  0  0
   91.3090   96.4316  -42.0191 H   0  0  0  0  0  0  0  0  0  0  0  0
   91.5982   92.2920  -46.5242 C   0  0  0  0  0  0  0  0  0  0  0  0
   91.7065   91.3789  -47.2979 C   0  0  0  0  0  0  0  0  0  0  0  0
   91.8437   90.2615  -48.2406 C   0  0  0  0  0  0  0  0  0  0  0  0
   90.5324   89.9215  -48.7721 N   0  0  0  0  0  0  0  0  0  0  0  0
   89.9639   89.2709  -48.3000 H   0  0  0  0  0  0  0  0  0  0  0  0
   90.0796   90.5172  -49.9513 C   0  0  0  0  0  0  0  0  0  0  0  0
   88.9327   89.9896  -50.5659 C   0  0  0  0  0  0  0  0  0  0  0  0
   88.3819   90.5764  -51.7101 C   0  0  0  0  0  0  0  0  0  0  0  0
   88.9608   91.7232  -52.2410 C   0  0  0  0  0  0  0  0  0  0  0  0
   88.2886   92.4541  -53.6457 Cl  0  0  0  0  0  0  0  0  0  0  0  0
   90.0747   92.2895  -51.6291 C   0  0  0  0  0  0  0  0  0  0  0  0
   90.6192   91.6957  -50.4833 C   0  0  0  0  0  0  0  0  0  0  0  0
   90.3525   97.0260  -45.6374 C   0  0  0  0  0  0  0  0  0  0  0  0
   86.5682   98.2995  -44.2144 C   0  0  0  0  0  0  0  0  0  0  0  0
   87.6783   99.3567  -44.3157 C   0  0  0  0  0  0  0  0  0  0  0  0
   89.0569   98.6894  -44.4519 C   0  0  0  0  0  0  0  0  0  0  0  0
   89.0227   97.3625  -45.0925 N   0  0  0  0  0  0  0  0  0  0  0  0
   87.9742   97.2989  -46.1124 C   0  0  0  0  0  0  0  0  0  0  0  0
   86.5848   97.3929  -45.4641 C   0  0  0  0  0  0  0  0  0  0  0  0
   85.2511   98.8930  -43.8671 N   0  0  0  0  0  0  0  0  0  0  0  0
   84.5322  101.2231  -44.3274 C   0  0  0  0  0  0  0  0  0  0  0  0
   84.7292   99.8164  -44.8889 C   0  0  0  0  0  0  0  0  0  0  0  0
   84.2452   97.8693  -43.5207 C   0  0  0  0  0  0  0  0  0  0  0  0
   83.0427   97.8706  -44.4612 C   0  0  0  0  0  0  0  0  0  0  0  0
 30 31  1  0
 31 29  1  0
 29 32  1  0
 32 33  1  0
 29 23  1  0
 23 24  1  0
 24 25  1  0
 25 26  1  0
 26 22  1  0
 22  1  1  0
  1  2  2  0
  2  3  1  0
  3 10  1  0
 10 11  3  0
 11 12  1  0
 12 13  1  0
 13 15  1  0
 15 16  2  0
 16 17  1  0
 17 18  2  0
 18 19  1  0
 18 20  1  0
 20 21  2  0
  3  4  2  0
  4  5  1  0
  5  6  1  0
  5  7  2  0
  7  8  1  0
 26 27  1  0
 27 28  1  0
 28 23  1  0
  7  1  1  0
 21 15  1  0
 13 14  1  0
  8  9  1  0
M  END
> <minimizedAffinity>
-7.03068

> <CNNscore>
0.8278821111

> <CNNaffinity>
5.5744185448

> <CNN_VS>
4.6149616241

> <CNNaffinity_variance>
1.0707699060

$$$$



 33 35  0  0  0  0  0  0  0  0999 V2000
   90.9574   95.8100  -45.0188 C   0  0  0  0  0  0  0  0  0  0  0  0
   90.9947   94.8274  -46.0259 C   0  0  0  0  0  0  0  0  0  0  0  0
   91.3895   93.5182  -45.7389 C   0  0  0  0  0  0  0  0  0  0  0  0
   91.7479   93.1664  -44.4374 C   0  0  0  0  0  0  0  0  0  0  0  0
   91.7078   94.1281  -43.4268 C   0  0  0  0  0  0  0  0  0  0  0  0
   92.2502   93.5577  -41.4900 I   0  0  0  0  0  0  0  0  0  0  0  0
   91.3102   95.4411  -43.7140 C   0  0  0  0  0  0  0  0  0  0  0  0
   91.2541   96.3950  -42.7330 O   0  0  0  0  0  0  0  0  0  0  0  0
   91.4848   96.1750  -41.8519 H   0  0  0  0  0  0  0  0  0  0  0  0
   91.4202   92.5352  -46.7778 C   0  0  0  0  0  0  0  0  0  0  0  0
   91.4365   91.7077  -47.6490 C   0  0  0  0  0  0  0  0  0  0  0  0
   91.4505   90.6957  -48.7128 C   0  0  0  0  0  0  0  0  0  0  0  0
   90.5545   89.6082  -48.3490 N   0  0  0  0  0  0  0  0  0  0  0  0
   90.4257   89.3729  -47.4017 H   0  0  0  0  0  0  0  0  0  0  0  0
   89.8771   88.8979  -49.3425 C   0  0  0  0  0  0  0  0  0  0  0  0
   89.1535   89.6227  -50.3031 C   0  0  0  0  0  0  0  0  0  0  0  0
   88.5078   88.9833  -51.3667 C   0  0  0  0  0  0  0  0  0  0  0  0
   88.6023   87.6027  -51.4980 C   0  0  0  0  0  0  0  0  0  0  0  0
   87.8146   86.8077  -52.8044 Cl  0  0  0  0  0  0  0  0  0  0  0  0
   89.3454   86.8643  -50.5824 C   0  0  0  0  0  0  0  0  0  0  0  0
   89.9893   87.5128  -49.5210 C   0  0  0  0  0  0  0  0  0  0  0  0
   90.5016   97.2147  -45.3608 C   0  0  0  0  0  0  0  0  0  0  0  0
   86.5992   98.3720  -44.1780 C   0  0  0  0  0  0  0  0  0  0  0  0
   87.7291   99.3951  -43.9863 C   0  0  0  0  0  0  0  0  0  0  0  0
   89.1043   98.7128  -44.0748 C   0  0  0  0  0  0  0  0  0  0  0  0
   89.1235   97.5047  -44.9189 N   0  0  0  0  0  0  0  0  0  0  0  0
   88.1971   97.6364  -46.0450 C   0  0  0  0  0  0  0  0  0  0  0  0
   86.7445   97.6728  -45.5468 C   0  0  0  0  0  0  0  0  0  0  0  0
   85.2600   98.9464  -43.8874 N   0  0  0  0  0  0  0  0  0  0  0  0
   84.6737  101.2676  -44.5405 C   0  0  0  0  0  0  0  0  0  0  0  0
   84.7355   99.8017  -44.9655 C   0  0  0  0  0  0  0  0  0  0  0  0
   84.2744   97.9147  -43.5081 C   0  0  0  0  0  0  0  0  0  0  0  0
   83.0167   97.9430  -44.3730 C   0  0  0  0  0  0  0  0  0  0  0  0
 30 31  1  0
 31 29  1  0
 29 32  1  0
 32 33  1  0
 29 23  1  0
 23 24  1  0
 24 25  1  0
 25 26  1  0
 26 22  1  0
 22  1  1  0
  1  2  2  0
  2  3  1  0
  3 10  1  0
 10 11  3  0
 11 12  1  0
 12 13  1  0
 13 15  1  0
 15 16  2  0
 16 17  1  0
 17 18  2  0
 18 19  1  0
 18 20  1  0
 20 21  2  0
  3  4  2  0
  4  5  1  0
  5  6  1  0
  5  7  2  0
  7  8  1  0
 26 27  1  0
 27 28  1  0
 28 23  1  0
  7  1  1  0
 21 15  1  0
 13 14  1  0
  8  9  1  0
M  END
> <minimizedAffinity>
-7.18286

> <CNNscore>
0.7891340852

> <CNNaffinity>
5.5498905182

> <CNN_VS>
4.3796076775

> <CNNaffinity_variance>
1.0053511858

$$$$



 33 35  0  0  0  0  0  0  0  0999 V2000
   90.3036   96.0826  -45.4226 C   0  0  0  0  0  0  0  0  0  0  0  0
   90.6871   94.9213  -46.1196 C   0  0  0  0  0  0  0  0  0  0  0  0
   91.3588   93.8821  -45.4707 C   0  0  0  0  0  0  0  0  0  0  0  0
   91.6534   93.9828  -44.1109 C   0  0  0  0  0  0  0  0  0  0  0  0
   91.2720   95.1248  -43.4049 C   0  0  0  0  0  0  0  0  0  0  0  0
   91.7307   95.2335  -41.3681 I   0  0  0  0  0  0  0  0  0  0  0  0
   90.5966   96.1668  -44.0551 C   0  0  0  0  0  0  0  0  0  0  0  0
   90.2049   97.2896  -43.3761 O   0  0  0  0  0  0  0  0  0  0  0  0
   90.3884   97.3715  -42.4608 H   0  0  0  0  0  0  0  0  0  0  0  0
   91.7394   92.7107  -46.1983 C   0  0  0  0  0  0  0  0  0  0  0  0
   92.0606   91.7219  -46.8009 C   0  0  0  0  0  0  0  0  0  0  0  0
   92.4536   90.5108  -47.5322 C   0  0  0  0  0  0  0  0  0  0  0  0
   92.1465   90.6848  -48.9440 N   0  0  0  0  0  0  0  0  0  0  0  0
   92.8758   90.7341  -49.6035 H   0  0  0  0  0  0  0  0  0  0  0  0
   90.8182   90.7818  -49.3642 C   0  0  0  0  0  0  0  0  0  0  0  0
   90.4360   91.9097  -50.1082 C   0  0  0  0  0  0  0  0  0  0  0  0
   89.1412   92.0418  -50.6209 C   0  0  0  0  0  0  0  0  0  0  0  0
   88.2142   91.0263  -50.4170 C   0  0  0  0  0  0  0  0  0  0  0  0
   86.6205   91.1781  -51.0465 Cl  0  0  0  0  0  0  0  0  0  0  0  0
   88.5780   89.8803  -49.7168 C   0  0  0  0  0  0  0  0  0  0  0  0
   89.8768   89.7561  -49.2076 C   0  0  0  0  0  0  0  0  0  0  0  0
   89.5555   97.1803  -46.1527 C   0  0  0  0  0  0  0  0  0  0  0  0
   91.3878  100.9563  -45.5597 C   0  0  0  0  0  0  0  0  0  0  0  0
   90.1812  100.6088  -44.6747 C   0  0  0  0  0  0  0  0  0  0  0  0
   89.3970   99.4235  -45.2615 C   0  0  0  0  0  0  0  0  0  0  0  0
   90.2169   98.4967  -46.0624 N   0  0  0  0  0  0  0  0  0  0  0  0
   91.5749   98.3982  -45.5240 C   0  0  0  0  0  0  0  0  0  0  0  0
   92.3190   99.7318  -45.6904 C   0  0  0  0  0  0  0  0  0  0  0  0
   92.0451  102.2239  -45.1486 N   0  0  0  0  0  0  0  0  0  0  0  0
   93.4110  103.4579  -43.4843 C   0  0  0  0  0  0  0  0  0  0  0  0
   92.8155  102.1135  -43.8983 C   0  0  0  0  0  0  0  0  0  0  0  0
   92.8709  102.8058  -46.2253 C   0  0  0  0  0  0  0  0  0  0  0  0
   92.0845  103.7366  -47.1450 C   0  0  0  0  0  0  0  0  0  0  0  0
 30 31  1  0
 31 29  1  0
 29 32  1  0
 32 33  1  0
 29 23  1  0
 23 24  1  0
 24 25  1  0
 25 26  1  0
 26 22  1  0
 22  1  1  0
  1  2  2  0
  2  3  1  0
  3 10  1  0
 10 11  3  0
 11 12  1  0
 12 13  1  0
 13 15  1  0
 15 16  2  0
 16 17  1  0
 17 18  2  0
 18 19  1  0
 18 20  1  0
 20 21  2  0
  3  4  2  0
  4  5  1  0
  5  6  1  0
  5  7  2  0
  7  8  1  0
 26 27  1  0
 27 28  1  0
 28 23  1  0
  7  1  1  0
 21 15  1  0
 13 14  1  0
  8  9  1  0
M  END
> <minimizedAffinity>
-6.17593

> <CNNscore>
0.7500504851

> <CNNaffinity>
6.4183044434

> <CNN_VS>
4.8140525818

> <CNNaffinity_variance>
0.8997364044

$$$$



 33 35  0  0  0  0  0  0  0  0999 V2000
   90.9922   95.7089  -44.0423 C   0  0  0  0  0  0  0  0  0  0  0  0
   90.9282   94.9497  -45.2259 C   0  0  0  0  0  0  0  0  0  0  0  0
   91.4270   93.6454  -45.2713 C   0  0  0  0  0  0  0  0  0  0  0  0
   91.9931   93.0742  -44.1315 C   0  0  0  0  0  0  0  0  0  0  0  0
   92.0559   93.8120  -42.9485 C   0  0  0  0  0  0  0  0  0  0  0  0
   92.9097   92.9170  -41.2630 I   0  0  0  0  0  0  0  0  0  0  0  0
   91.5541   95.1199  -42.9020 C   0  0  0  0  0  0  0  0  0  0  0  0
   91.5971   95.8547  -41.7472 O   0  0  0  0  0  0  0  0  0  0  0  0
   91.9676   95.4848  -40.9701 H   0  0  0  0  0  0  0  0  0  0  0  0
   91.3518   92.8916  -46.4849 C   0  0  0  0  0  0  0  0  0  0  0  0
   91.2824   92.2651  -47.5079 C   0  0  0  0  0  0  0  0  0  0  0  0
   91.1942   91.5038  -48.7604 C   0  0  0  0  0  0  0  0  0  0  0  0
   90.7870   90.1389  -48.4618 N   0  0  0  0  0  0  0  0  0  0  0  0
   91.0584   89.7191  -47.6136 H   0  0  0  0  0  0  0  0  0  0  0  0
   90.0118   89.4241  -49.3774 C   0  0  0  0  0  0  0  0  0  0  0  0
   89.4038   90.1292  -50.4285 C   0  0  0  0  0  0  0  0  0  0  0  0
   88.6703   89.4709  -51.4214 C   0  0  0  0  0  0  0  0  0  0  0  0
   88.5589   88.0858  -51.3891 C   0  0  0  0  0  0  0  0  0  0  0  0
   87.6619   87.2670  -52.6074 Cl  0  0  0  0  0  0  0  0  0  0  0  0
   89.1841   87.3591  -50.3807 C   0  0  0  0  0  0  0  0  0  0  0  0
   89.9171   88.0263  -49.3911 C   0  0  0  0  0  0  0  0  0  0  0  0
   90.4201   97.1126  -44.0223 C   0  0  0  0  0  0  0  0  0  0  0  0
   92.1812   99.9975  -46.5802 C   0  0  0  0  0  0  0  0  0  0  0  0
   90.6486   99.8922  -46.5820 C   0  0  0  0  0  0  0  0  0  0  0  0
   90.1912   98.5738  -45.9363 C   0  0  0  0  0  0  0  0  0  0  0  0
   91.1243   98.0425  -44.9267 N   0  0  0  0  0  0  0  0  0  0  0  0
   91.7848   99.1282  -44.1996 C   0  0  0  0  0  0  0  0  0  0  0  0
   92.7161   99.9148  -45.1343 C   0  0  0  0  0  0  0  0  0  0  0  0
   92.6706  101.1483  -47.3828 N   0  0  0  0  0  0  0  0  0  0  0  0
   92.7561  102.1486  -49.6522 C   0  0  0  0  0  0  0  0  0  0  0  0
   91.9358  101.3466  -48.6436 C   0  0  0  0  0  0  0  0  0  0  0  0
   92.7210  102.3998  -46.6012 C   0  0  0  0  0  0  0  0  0  0  0  0
   91.3607  103.0809  -46.4750 C   0  0  0  0  0  0  0  0  0  0  0  0
 30 31  1  0
 31 29  1  0
 29 32  1  0
 32 33  1  0
 29 23  1  0
 23 24  1  0
 24 25  1  0
 25 26  1  0
 26 22  1  0
 22  1  1  0
  1  2  2  0
  2  3  1  0
  3 10  1  0
 10 11  3  0
 11 12  1  0
 12 13  1  0
 13 15  1  0
 15 16  2  0
 16 17  1  0
 17 18  2  0
 18 19  1  0
 18 20  1  0
 20 21  2  0
  3  4  2  0
  4  5  1  0
  5  6  1  0
  5  7  2  0
  7  8  1  0
 26 27  1  0
 27 28  1  0
 28 23  1  0
  7  1  1  0
 21 15  1  0
 13 14  1  0
  8  9  1  0
M  END
> <minimizedAffinity>
-6.15672

> <CNNscore>
0.6206488013

> <CNNaffinity>
5.7731208801

> <CNN_VS>
3.5830805302

> <CNNaffinity_variance>
0.7949591279

$$$$



 33 35  0  0  0  0  0  0  0  0999 V2000
   90.4749   96.5464  -45.0647 C   0  0  0  0  0  0  0  0  0  0  0  0
   90.6838   95.3757  -45.8178 C   0  0  0  0  0  0  0  0  0  0  0  0
   91.2254   94.2297  -45.2299 C   0  0  0  0  0  0  0  0  0  0  0  0
   91.5619   94.2318  -43.8761 C   0  0  0  0  0  0  0  0  0  0  0  0
   91.3528   95.3828  -43.1150 C   0  0  0  0  0  0  0  0  0  0  0  0
   91.8684   95.3420  -41.0893 I   0  0  0  0  0  0  0  0  0  0  0  0
   90.8078   96.5321  -43.7038 C   0  0  0  0  0  0  0  0  0  0  0  0
   90.5853   97.6666  -42.9700 O   0  0  0  0  0  0  0  0  0  0  0  0
   90.7989   97.6840  -42.0579 H   0  0  0  0  0  0  0  0  0  0  0  0
   91.4294   93.0506  -46.0139 C   0  0  0  0  0  0  0  0  0  0  0  0
   91.6001   92.0546  -46.6642 C   0  0  0  0  0  0  0  0  0  0  0  0
   91.8081   90.8344  -47.4540 C   0  0  0  0  0  0  0  0  0  0  0  0
   91.9426   91.1917  -48.8583 N   0  0  0  0  0  0  0  0  0  0  0  0
   92.8029   91.5266  -49.2003 H   0  0  0  0  0  0  0  0  0  0  0  0
   90.8525   91.0599  -49.7211 C   0  0  0  0  0  0  0  0  0  0  0  0
   90.6707   92.0323  -50.7176 C   0  0  0  0  0  0  0  0  0  0  0  0
   89.6421   91.9289  -51.6600 C   0  0  0  0  0  0  0  0  0  0  0  0
   88.7934   90.8283  -51.6331 C   0  0  0  0  0  0  0  0  0  0  0  0
   87.5277   90.6905  -52.7899 Cl  0  0  0  0  0  0  0  0  0  0  0  0
   88.9754   89.8304  -50.6808 C   0  0  0  0  0  0  0  0  0  0  0  0
   90.0084   89.9418  -49.7415 C   0  0  0  0  0  0  0  0  0  0  0  0
   89.8635   97.7640  -45.7292 C   0  0  0  0  0  0  0  0  0  0  0  0
   85.6357   98.0459  -45.8444 C   0  0  0  0  0  0  0  0  0  0  0  0
   86.4298   99.3576  -45.7489 C   0  0  0  0  0  0  0  0  0  0  0  0
   87.8808   99.0872  -45.3180 C   0  0  0  0  0  0  0  0  0  0  0  0
   88.3876   97.7598  -45.7098 N   0  0  0  0  0  0  0  0  0  0  0  0
   87.8183   97.3379  -46.9911 C   0  0  0  0  0  0  0  0  0  0  0  0
   86.3081   97.0921  -46.8553 C   0  0  0  0  0  0  0  0  0  0  0  0
   84.1820   98.2775  -46.0467 N   0  0  0  0  0  0  0  0  0  0  0  0
   82.4306   99.9277  -46.6531 C   0  0  0  0  0  0  0  0  0  0  0  0
   83.7978   99.6989  -46.0116 C   0  0  0  0  0  0  0  0  0  0  0  0
   83.6719   97.6251  -47.2690 C   0  0  0  0  0  0  0  0  0  0  0  0
   82.7949   96.4103  -46.9765 C   0  0  0  0  0  0  0  0  0  0  0  0
 30 31  1  0
 31 29  1  0
 29 32  1  0
 32 33  1  0
 29 23  1  0
 23 24  1  0
 24 25  1  0
 25 26  1  0
 26 22  1  0
 22  1  1  0
  1  2  2  0
  2  3  1  0
  3 10  1  0
 10 11  3  0
 11 12  1  0
 12 13  1  0
 13 15  1  0
 15 16  2  0
 16 17  1  0
 17 18  2  0
 18 19  1  0
 18 20  1  0
 20 21  2  0
  3  4  2  0
  4  5  1  0
  5  6  1  0
  5  7  2  0
  7  8  1  0
 26 27  1  0
 27 28  1  0
 28 23  1  0
  7  1  1  0
 21 15  1  0
 13 14  1  0
  8  9  1  0
M  END
> <minimizedAffinity>
-6.21845

> <CNNscore>
0.6083074808

> <CNNaffinity>
5.2431564331

> <CNN_VS>
3.1894512177

> <CNNaffinity_variance>
1.1512545347

$$$$



 33 35  0  0  0  0  0  0  0  0999 V2000
   91.5956   95.3763  -42.8854 C   0  0  0  0  0  0  0  0  0  0  0  0
   91.3165   94.7898  -44.1342 C   0  0  0  0  0  0  0  0  0  0  0  0
   91.9000   93.5756  -44.5048 C   0  0  0  0  0  0  0  0  0  0  0  0
   92.7684   92.9224  -43.6301 C   0  0  0  0  0  0  0  0  0  0  0  0
   93.0481   93.4878  -42.3851 C   0  0  0  0  0  0  0  0  0  0  0  0
   94.3526   92.4744  -41.1037 I   0  0  0  0  0  0  0  0  0  0  0  0
   92.4616   94.7050  -42.0121 C   0  0  0  0  0  0  0  0  0  0  0  0
   92.7156   95.2689  -40.7904 O   0  0  0  0  0  0  0  0  0  0  0  0
   93.2911   94.8409  -40.1874 H   0  0  0  0  0  0  0  0  0  0  0  0
   91.6025   92.9973  -45.7790 C   0  0  0  0  0  0  0  0  0  0  0  0
   91.3520   92.5026  -46.8451 C   0  0  0  0  0  0  0  0  0  0  0  0
   91.0453   91.8929  -48.1452 C   0  0  0  0  0  0  0  0  0  0  0  0
   90.7977   90.4709  -47.9591 N   0  0  0  0  0  0  0  0  0  0  0  0
   91.1177   90.0183  -47.1455 H   0  0  0  0  0  0  0  0  0  0  0  0
   90.1066   89.7479  -48.9337 C   0  0  0  0  0  0  0  0  0  0  0  0
   89.4146   90.4609  -49.9260 C   0  0  0  0  0  0  0  0  0  0  0  0
   88.7580   89.8051  -50.9727 C   0  0  0  0  0  0  0  0  0  0  0  0
   88.8095   88.4184  -51.0548 C   0  0  0  0  0  0  0  0  0  0  0  0
   88.0081   87.6032  -52.3402 Cl  0  0  0  0  0  0  0  0  0  0  0  0
   89.5209   87.6896  -50.1069 C   0  0  0  0  0  0  0  0  0  0  0  0
   90.1760   88.3545  -49.0626 C   0  0  0  0  0  0  0  0  0  0  0  0
   90.9266   96.6827  -42.5064 C   0  0  0  0  0  0  0  0  0  0  0  0
   89.6733   98.8639  -45.9179 C   0  0  0  0  0  0  0  0  0  0  0  0
   90.9271   99.3606  -45.1820 C   0  0  0  0  0  0  0  0  0  0  0  0
   91.0197   98.7374  -43.7794 C   0  0  0  0  0  0  0  0  0  0  0  0
   90.3788   97.4151  -43.6648 N   0  0  0  0  0  0  0  0  0  0  0  0
   90.5106   96.6581  -44.9111 C   0  0  0  0  0  0  0  0  0  0  0  0
   89.7029   97.3247  -46.0349 C   0  0  0  0  0  0  0  0  0  0  0  0
   89.4312   99.6013  -47.1850 N   0  0  0  0  0  0  0  0  0  0  0  0
   88.1744   99.6866  -49.3231 C   0  0  0  0  0  0  0  0  0  0  0  0
   88.7391   98.8038  -48.2118 C   0  0  0  0  0  0  0  0  0  0  0  0
   88.7415  100.8881  -46.9654 C   0  0  0  0  0  0  0  0  0  0  0  0
   89.6665  102.0941  -47.1088 C   0  0  0  0  0  0  0  0  0  0  0  0
 30 31  1  0
 31 29  1  0
 29 32  1  0
 32 33  1  0
 29 23  1  0
 23 24  1  0
 24 25  1  0
 25 26  1  0
 26 22  1  0
 22  1  1  0
  1  2  2  0
  2  3  1  0
  3 10  1  0
 10 11  3  0
 11 12  1  0
 12 13  1  0
 13 15  1  0
 15 16  2  0
 16 17  1  0
 17 18  2  0
 18 19  1  0
 18 20  1  0
 20 21  2  0
  3  4  2  0
  4  5  1  0
  5  6  1  0
  5  7  2  0
  7  8  1  0
 26 27  1  0
 27 28  1  0
 28 23  1  0
  7  1  1  0
 21 15  1  0
 13 14  1  0
  8  9  1  0
M  END
> <minimizedAffinity>
-5.56735

> <CNNscore>
0.4995457828

> <CNNaffinity>
6.1376891136

> <CNN_VS>
3.0660567284

> <CNNaffinity_variance>
0.3606702089

$$$$



 33 35  0  0  0  0  0  0  0  0999 V2000
   84.0529   96.7605  -46.2433 C   0  0  0  0  0  0  0  0  0  0  0  0
   85.4593   96.7345  -46.1899 C   0  0  0  0  0  0  0  0  0  0  0  0
   86.1707   97.7158  -45.4950 C   0  0  0  0  0  0  0  0  0  0  0  0
   85.4879   98.7377  -44.8350 C   0  0  0  0  0  0  0  0  0  0  0  0
   84.0931   98.7717  -44.8723 C   0  0  0  0  0  0  0  0  0  0  0  0
   83.1095  100.3188  -43.8674 I   0  0  0  0  0  0  0  0  0  0  0  0
   83.3790   97.7864  -45.5679 C   0  0  0  0  0  0  0  0  0  0  0  0
   82.0102   97.7976  -45.6059 O   0  0  0  0  0  0  0  0  0  0  0  0
   81.5346   98.4724  -45.1627 H   0  0  0  0  0  0  0  0  0  0  0  0
   87.6000   97.6703  -45.4536 C   0  0  0  0  0  0  0  0  0  0  0  0
   88.8004   97.6233  -45.4237 C   0  0  0  0  0  0  0  0  0  0  0  0
   90.2670   97.5610  -45.3902 C   0  0  0  0  0  0  0  0  0  0  0  0
   90.7164   97.6284  -44.0078 N   0  0  0  0  0  0  0  0  0  0  0  0
   90.7935   98.5006  -43.5576 H   0  0  0  0  0  0  0  0  0  0  0  0
   91.0383   96.4570  -43.3190 C   0  0  0  0  0  0  0  0  0  0  0  0
   91.2438   95.2831  -44.0616 C   0  0  0  0  0  0  0  0  0  0  0  0
   91.6359   94.0893  -43.4469 C   0  0  0  0  0  0  0  0  0  0  0  0
   91.8555   94.0627  -42.0746 C   0  0  0  0  0  0  0  0  0  0  0  0
   92.3413   92.6003  -41.3100 Cl  0  0  0  0  0  0  0  0  0  0  0  0
   91.6972   95.2211  -41.3204 C   0  0  0  0  0  0  0  0  0  0  0  0
   91.3050   96.4122  -41.9443 C   0  0  0  0  0  0  0  0  0  0  0  0
   83.3123   95.6666  -46.9868 C   0  0  0  0  0  0  0  0  0  0  0  0
   83.2699   91.8091  -45.2304 C   0  0  0  0  0  0  0  0  0  0  0  0
   81.9218   92.5281  -45.3909 C   0  0  0  0  0  0  0  0  0  0  0  0
   82.1313   94.0282  -45.6557 C   0  0  0  0  0  0  0  0  0  0  0  0
   83.4032   94.3489  -46.3280 N   0  0  0  0  0  0  0  0  0  0  0  0
   83.7851   93.2881  -47.2620 C   0  0  0  0  0  0  0  0  0  0  0  0
   84.1252   91.9971  -46.5020 C   0  0  0  0  0  0  0  0  0  0  0  0
   83.1119   90.4077  -44.7624 N   0  0  0  0  0  0  0  0  0  0  0  0
   81.2013   88.9833  -44.0704 C   0  0  0  0  0  0  0  0  0  0  0  0
   81.8566   89.7744  -45.2009 C   0  0  0  0  0  0  0  0  0  0  0  0
   84.2741   89.5643  -45.1055 C   0  0  0  0  0  0  0  0  0  0  0  0
   84.0109   88.6368  -46.2891 C   0  0  0  0  0  0  0  0  0  0  0  0
 30 31  1  0
 31 29  1  0
 29 32  1  0
 32 33  1  0
 29 23  1  0
 23 24  1  0
 24 25  1  0
 25 26  1  0
 26 22  1  0
 22  1  1  0
  1  2  2  0
  2  3  1  0
  3 10  1  0
 10 11  3  0
 11 12  1  0
 12 13  1  0
 13 15  1  0
 15 16  2  0
 16 17  1  0
 17 18  2  0
 18 19  1  0
 18 20  1  0
 20 21  2  0
  3  4  2  0
  4  5  1  0
  5  6  1  0
  5  7  2  0
  7  8  1  0
 26 27  1  0
 27 28  1  0
 28 23  1  0
  7  1  1  0
 21 15  1  0
 13 14  1  0
  8  9  1  0
M  END
> <minimizedAffinity>
-5.71162

> <CNNscore>
0.4120565057

> <CNNaffinity>
5.2983355522

> <CNN_VS>
2.1832137108

> <CNNaffinity_variance>
0.5949451923

$$$$



 33 35  0  0  0  0  0  0  0  0999 V2000
   87.7667   88.9815  -50.7153 C   0  0  0  0  0  0  0  0  0  0  0  0
   88.7256   89.3628  -49.7580 C   0  0  0  0  0  0  0  0  0  0  0  0
   89.5404   90.4794  -49.9616 C   0  0  0  0  0  0  0  0  0  0  0  0
   89.4063   91.2390  -51.1240 C   0  0  0  0  0  0  0  0  0  0  0  0
   88.4541   90.8778  -52.0783 C   0  0  0  0  0  0  0  0  0  0  0  0
   88.2845   92.0453  -53.8043 I   0  0  0  0  0  0  0  0  0  0  0  0
   87.6353   89.7588  -51.8737 C   0  0  0  0  0  0  0  0  0  0  0  0
   86.6883   89.3961  -52.7938 O   0  0  0  0  0  0  0  0  0  0  0  0
   86.5795   89.8986  -53.5772 H   0  0  0  0  0  0  0  0  0  0  0  0
   90.5086   90.8491  -48.9755 C   0  0  0  0  0  0  0  0  0  0  0  0
   91.3230   91.1683  -48.1516 C   0  0  0  0  0  0  0  0  0  0  0  0
   92.3185   91.5638  -47.1473 C   0  0  0  0  0  0  0  0  0  0  0  0
   91.6529   91.7660  -45.8691 N   0  0  0  0  0  0  0  0  0  0  0  0
   91.2701   90.9977  -45.3869 H   0  0  0  0  0  0  0  0  0  0  0  0
   91.5566   93.0489  -45.3258 C   0  0  0  0  0  0  0  0  0  0  0  0
   91.1318   94.0952  -46.1604 C   0  0  0  0  0  0  0  0  0  0  0  0
   90.9459   95.3917  -45.6690 C   0  0  0  0  0  0  0  0  0  0  0  0
   91.1580   95.6526  -44.3203 C   0  0  0  0  0  0  0  0  0  0  0  0
   90.9286   97.2430  -43.7060 Cl  0  0  0  0  0  0  0  0  0  0  0  0
   91.5414   94.6258  -43.4632 C   0  0  0  0  0  0  0  0  0  0  0  0
   91.7245   93.3305  -43.9636 C   0  0  0  0  0  0  0  0  0  0  0  0
   86.8834   87.7783  -50.4511 C   0  0  0  0  0  0  0  0  0  0  0  0
   85.2248   85.8367  -53.8344 C   0  0  0  0  0  0  0  0  0  0  0  0
   86.3484   85.1086  -53.0811 C   0  0  0  0  0  0  0  0  0  0  0  0
   87.1042   86.0783  -52.1577 C   0  0  0  0  0  0  0  0  0  0  0  0
   86.2904   87.2094  -51.6772 N   0  0  0  0  0  0  0  0  0  0  0  0
   84.8960   86.8075  -51.4829 C   0  0  0  0  0  0  0  0  0  0  0  0
   84.2388   86.4716  -52.8301 C   0  0  0  0  0  0  0  0  0  0  0  0
   84.6116   84.9915  -54.8915 N   0  0  0  0  0  0  0  0  0  0  0  0
   82.7110   83.4790  -54.3834 C   0  0  0  0  0  0  0  0  0  0  0  0
   83.1462   84.8856  -54.7899 C   0  0  0  0  0  0  0  0  0  0  0  0
   85.0159   85.4060  -56.2497 C   0  0  0  0  0  0  0  0  0  0  0  0
   85.8957   84.3749  -56.9522 C   0  0  0  0  0  0  0  0  0  0  0  0
 30 31  1  0
 31 29  1  0
 29 32  1  0
 32 33  1  0
 29 23  1  0
 23 24  1  0
 24 25  1  0
 25 26  1  0
 26 22  1  0
 22  1  1  0
  1  2  2  0
  2  3  1  0
  3 10  1  0
 10 11  3  0
 11 12  1  0
 12 13  1  0
 13 15  1  0
 15 16  2  0
 16 17  1  0
 17 18  2  0
 18 19  1  0
 18 20  1  0
 20 21  2  0
  3  4  2  0
  4  5  1  0
  5  6  1  0
  5  7  2  0
  7  8  1  0
 26 27  1  0
 27 28  1  0
 28 23  1  0
  7  1  1  0
 21 15  1  0
 13 14  1  0
  8  9  1  0
M  END
> <minimizedAffinity>
-4.61189

> <CNNscore>
0.3979274035

> <CNNaffinity>
5.0464529991

> <CNN_VS>
2.0081219673

> <CNNaffinity_variance>
0.4257483482

$$$$
