


 20 21  0  0  0  0  0  0  0  0999 V2000
   29.5466   66.6587    7.7078 C   0  0  0  0  0  0  0  0  0  0  0  0
   30.9525   66.2808    7.1551 C   0  0  0  0  0  0  0  0  0  0  0  0
   31.3112   67.1693    6.0949 O   0  0  0  0  0  0  0  0  0  0  0  0
   32.0343   66.3369    8.2476 C   0  0  0  0  0  0  0  0  0  0  0  0
   33.3207   66.0300    7.6886 O   0  0  0  0  0  0  0  0  0  0  0  0
   31.7133   65.3675    9.3873 C   0  0  0  0  0  0  0  0  0  0  0  0
   32.5907   65.5618   10.4951 O   0  0  0  0  0  0  0  0  0  0  0  0
   30.2813   65.5243    9.8152 C   0  0  0  0  0  0  0  0  0  0  0  0
   29.7386   65.1995   10.9904 N   0  0  0  0  0  0  0  0  0  0  0  0
   28.4189   65.5582   11.0339 C   0  0  0  0  0  0  0  0  0  0  0  0
   27.3525   65.3608   12.3825 Cl  0  0  0  0  0  0  0  0  0  0  0  0
   28.1389   66.1287    9.8211 C   0  0  0  0  0  0  0  0  0  0  0  0
   29.3096   66.0681    9.0604 N   0  0  0  0  0  0  0  0  0  0  0  0
   31.3594   68.0763    6.4354 H   0  0  0  0  0  0  0  0  0  0  0  0
   33.3093   65.1306    7.3256 H   0  0  0  0  0  0  0  0  0  0  0  0
   32.4784   66.4603   10.8428 H   0  0  0  0  0  0  0  0  0  0  0  0
   30.2226   64.7609   11.7270 H   0  0  0  0  0  0  0  0  0  0  0  0
   27.1609   66.3442    7.2356 O   0  0  0  0  0  0  0  0  0  0  0  0
   28.4696   66.2569    6.6731 C   0  0  0  0  0  0  0  0  0  0  0  0
   26.5047   66.0879    6.5689 H   0  0  0  0  0  0  0  0  0  0  0  0
 18 19  1  0
  1 19  1  0
  1  2  1  0
  2  3  1  0
  2  4  1  0
  4  5  1  0
  4  6  1  0
  6  7  1  0
  6  8  1  0
  8  9  1  0
  9 10  1  0
 10 11  1  0
 10 12  2  0
 12 13  1  0
 13  1  1  0
 13  8  2  0
 18 20  1  0
  3 14  1  0
  5 15  1  0
  7 16  1  0
  9 17  1  0
M  CHG 1  13   1
M  END
> <minimizedAffinity>
-8.43765

> <CNNscore>
0.9413959980

> <CNNaffinity>
5.5218653679

> <CNN_VS>
5.1982617378

> <CNNaffinity_variance>
0.5686220527

$$$$



 20 21  0  0  0  0  0  0  0  0999 V2000
   30.6523   66.9759   16.3793 C   0  0  0  0  0  0  0  0  0  0  0  0
   29.7340   66.2795   17.4265 C   0  0  0  0  0  0  0  0  0  0  0  0
   28.8715   65.3477   16.7708 O   0  0  0  0  0  0  0  0  0  0  0  0
   30.5468   65.5419   18.5045 C   0  0  0  0  0  0  0  0  0  0  0  0
   29.6656   64.8744   19.4206 O   0  0  0  0  0  0  0  0  0  0  0  0
   31.4564   66.5104   19.2637 C   0  0  0  0  0  0  0  0  0  0  0  0
   32.3618   65.8107   20.1156 O   0  0  0  0  0  0  0  0  0  0  0  0
   32.2085   67.3822   18.2980 C   0  0  0  0  0  0  0  0  0  0  0  0
   33.3573   68.0296   18.5042 N   0  0  0  0  0  0  0  0  0  0  0  0
   33.7709   68.6639   17.3646 C   0  0  0  0  0  0  0  0  0  0  0  0
   35.2278   69.5793   17.1788 Cl  0  0  0  0  0  0  0  0  0  0  0  0
   32.8245   68.3934   16.4130 C   0  0  0  0  0  0  0  0  0  0  0  0
   31.8378   67.6169   17.0263 N   0  0  0  0  0  0  0  0  0  0  0  0
   29.4047   64.6615   16.3399 H   0  0  0  0  0  0  0  0  0  0  0  0
   29.1050   65.5293   19.8653 H   0  0  0  0  0  0  0  0  0  0  0  0
   32.9343   65.2398   19.5797 H   0  0  0  0  0  0  0  0  0  0  0  0
   33.8418   68.0482   19.3610 H   0  0  0  0  0  0  0  0  0  0  0  0
   30.0018   67.7499   14.1453 O   0  0  0  0  0  0  0  0  0  0  0  0
   29.8086   67.9659   15.5427 C   0  0  0  0  0  0  0  0  0  0  0  0
   29.4634   68.3814   13.6431 H   0  0  0  0  0  0  0  0  0  0  0  0
 18 19  1  0
  1 19  1  0
  1  2  1  0
  2  3  1  0
  2  4  1  0
  4  5  1  0
  4  6  1  0
  6  7  1  0
  6  8  1  0
  8  9  1  0
  9 10  1  0
 10 11  1  0
 10 12  2  0
 12 13  1  0
 13  1  1  0
 13  8  2  0
 18 20  1  0
  3 14  1  0
  5 15  1  0
  7 16  1  0
  9 17  1  0
M  CHG 1  13   1
M  END
> <minimizedAffinity>
-5.41610

> <CNNscore>
0.3683335185

> <CNNaffinity>
3.0946743488

> <CNN_VS>
1.1398723125

> <CNNaffinity_variance>
1.0100144148

$$$$



 20 21  0  0  0  0  0  0  0  0999 V2000
   33.3648   68.0668   17.5509 C   0  0  0  0  0  0  0  0  0  0  0  0
   33.9958   68.3068   18.9542 C   0  0  0  0  0  0  0  0  0  0  0  0
   34.2788   67.0531   19.5790 O   0  0  0  0  0  0  0  0  0  0  0  0
   35.2917   69.1315   18.8690 C   0  0  0  0  0  0  0  0  0  0  0  0
   35.8667   69.2890   20.1751 O   0  0  0  0  0  0  0  0  0  0  0  0
   35.0285   70.5030   18.2433 C   0  0  0  0  0  0  0  0  0  0  0  0
   36.2483   71.1894   17.9679 O   0  0  0  0  0  0  0  0  0  0  0  0
   34.2127   70.3547   16.9901 C   0  0  0  0  0  0  0  0  0  0  0  0
   34.1286   71.2035   15.9635 N   0  0  0  0  0  0  0  0  0  0  0  0
   33.3403   70.6904   14.9699 C   0  0  0  0  0  0  0  0  0  0  0  0
   33.0008   71.4407   13.4477 Cl  0  0  0  0  0  0  0  0  0  0  0  0
   32.9174   69.4658   15.4129 C   0  0  0  0  0  0  0  0  0  0  0  0
   33.4478   69.2885   16.6935 N   0  0  0  0  0  0  0  0  0  0  0  0
   34.9221   66.5629   19.0436 H   0  0  0  0  0  0  0  0  0  0  0  0
   35.2454   69.7672   20.7464 H   0  0  0  0  0  0  0  0  0  0  0  0
   36.7699   70.6783   17.3295 H   0  0  0  0  0  0  0  0  0  0  0  0
   34.5739   72.0807   15.9263 H   0  0  0  0  0  0  0  0  0  0  0  0
   31.9122   66.2346   18.2898 O   0  0  0  0  0  0  0  0  0  0  0  0
   31.9193   67.5458   17.7266 C   0  0  0  0  0  0  0  0  0  0  0  0
   30.9965   65.9306   18.3899 H   0  0  0  0  0  0  0  0  0  0  0  0
 18 19  1  0
  1 19  1  0
  1  2  1  0
  2  3  1  0
  2  4  1  0
  4  5  1  0
  4  6  1  0
  6  7  1  0
  6  8  1  0
  8  9  1  0
  9 10  1  0
 10 11  1  0
 10 12  2  0
 12 13  1  0
 13  1  1  0
 13  8  2  0
 18 20  1  0
  3 14  1  0
  5 15  1  0
  7 16  1  0
  9 17  1  0
M  CHG 1  13   1
M  END
> <minimizedAffinity>
-5.23529

> <CNNscore>
0.3148484826

> <CNNaffinity>
3.0392882824

> <CNN_VS>
0.9569153190

> <CNNaffinity_variance>
1.2468310595

$$$$



 20 21  0  0  0  0  0  0  0  0999 V2000
   26.1595   63.3506   11.1233 C   0  0  0  0  0  0  0  0  0  0  0  0
   27.6339   63.1419   11.5791 C   0  0  0  0  0  0  0  0  0  0  0  0
   28.5239   63.5063   10.5221 O   0  0  0  0  0  0  0  0  0  0  0  0
   27.9719   63.9699   12.8308 C   0  0  0  0  0  0  0  0  0  0  0  0
   29.3501   63.7877   13.1893 O   0  0  0  0  0  0  0  0  0  0  0  0
   27.0694   63.5827   14.0045 C   0  0  0  0  0  0  0  0  0  0  0  0
   27.2297   64.4823   15.0999 O   0  0  0  0  0  0  0  0  0  0  0  0
   25.6334   63.5396   13.5637 C   0  0  0  0  0  0  0  0  0  0  0  0
   24.5413   63.6594   14.3214 N   0  0  0  0  0  0  0  0  0  0  0  0
   23.4098   63.6414   13.5523 C   0  0  0  0  0  0  0  0  0  0  0  0
   21.7854   63.8128   14.1241 Cl  0  0  0  0  0  0  0  0  0  0  0  0
   23.8314   63.4998   12.2574 C   0  0  0  0  0  0  0  0  0  0  0  0
   25.2252   63.4048   12.2890 N   0  0  0  0  0  0  0  0  0  0  0  0
   28.4079   64.4460   10.3113 H   0  0  0  0  0  0  0  0  0  0  0  0
   29.5094   62.8537   13.3972 H   0  0  0  0  0  0  0  0  0  0  0  0
   26.9738   65.3764   14.8242 H   0  0  0  0  0  0  0  0  0  0  0  0
   24.5488   63.7487   15.3018 H   0  0  0  0  0  0  0  0  0  0  0  0
   26.7719   61.2249   10.0652 O   0  0  0  0  0  0  0  0  0  0  0  0
   25.7858   62.2560   10.0965 C   0  0  0  0  0  0  0  0  0  0  0  0
   26.5155   60.5520    9.4153 H   0  0  0  0  0  0  0  0  0  0  0  0
 18 19  1  0
  1 19  1  0
  1  2  1  0
  2  3  1  0
  2  4  1  0
  4  5  1  0
  4  6  1  0
  6  7  1  0
  6  8  1  0
  8  9  1  0
  9 10  1  0
 10 11  1  0
 10 12  2  0
 12 13  1  0
 13  1  1  0
 13  8  2  0
 18 20  1  0
  3 14  1  0
  5 15  1  0
  7 16  1  0
  9 17  1  0
M  CHG 1  13   1
M  END
> <minimizedAffinity>
-6.31252

> <CNNscore>
0.2505189776

> <CNNaffinity>
3.1905212402

> <CNN_VS>
0.7992861271

> <CNNaffinity_variance>
0.4470525682

$$$$



 20 21  0  0  0  0  0  0  0  0999 V2000
   33.2213   70.8858   15.5426 C   0  0  0  0  0  0  0  0  0  0  0  0
   34.6935   71.3929   15.5625 C   0  0  0  0  0  0  0  0  0  0  0  0
   34.7293   72.7886   15.2575 O   0  0  0  0  0  0  0  0  0  0  0  0
   35.3647   71.1575   16.9266 C   0  0  0  0  0  0  0  0  0  0  0  0
   36.7015   71.6814   16.9190 O   0  0  0  0  0  0  0  0  0  0  0  0
   35.3875   69.6680   17.2766 C   0  0  0  0  0  0  0  0  0  0  0  0
   35.8137   69.4585   18.6217 O   0  0  0  0  0  0  0  0  0  0  0  0
   34.0313   69.0607   17.0528 C   0  0  0  0  0  0  0  0  0  0  0  0
   33.5283   67.9557   17.6070 N   0  0  0  0  0  0  0  0  0  0  0  0
   32.2326   67.7592   17.2136 C   0  0  0  0  0  0  0  0  0  0  0  0
   31.1942   66.4743   17.7292 Cl  0  0  0  0  0  0  0  0  0  0  0  0
   31.9284   68.7958   16.3725 C   0  0  0  0  0  0  0  0  0  0  0  0
   33.0783   69.5816   16.2589 N   0  0  0  0  0  0  0  0  0  0  0  0
   34.2364   73.2800   15.9331 H   0  0  0  0  0  0  0  0  0  0  0  0
   37.2254   71.2209   16.2450 H   0  0  0  0  0  0  0  0  0  0  0  0
   35.1898   69.8862   19.2289 H   0  0  0  0  0  0  0  0  0  0  0  0
   34.0229   67.3618   18.2168 H   0  0  0  0  0  0  0  0  0  0  0  0
   33.8092   70.9562   13.1630 O   0  0  0  0  0  0  0  0  0  0  0  0
   32.7224   70.8325   14.0796 C   0  0  0  0  0  0  0  0  0  0  0  0
   33.4715   70.9199   12.2544 H   0  0  0  0  0  0  0  0  0  0  0  0
 18 19  1  0
  1 19  1  0
  1  2  1  0
  2  3  1  0
  2  4  1  0
  4  5  1  0
  4  6  1  0
  6  7  1  0
  6  8  1  0
  8  9  1  0
  9 10  1  0
 10 11  1  0
 10 12  2  0
 12 13  1  0
 13  1  1  0
 13  8  2  0
 18 20  1  0
  3 14  1  0
  5 15  1  0
  7 16  1  0
  9 17  1  0
M  CHG 1  13   1
M  END
> <minimizedAffinity>
-5.38797

> <CNNscore>
0.2381395996

> <CNNaffinity>
2.7532196045

> <CNN_VS>
0.6556506157

> <CNNaffinity_variance>
1.2847400904

$$$$



 20 21  0  0  0  0  0  0  0  0999 V2000
   33.0522   69.7751   16.2689 C   0  0  0  0  0  0  0  0  0  0  0  0
   33.7181   70.6901   15.1993 C   0  0  0  0  0  0  0  0  0  0  0  0
   32.7101   71.3370   14.4197 O   0  0  0  0  0  0  0  0  0  0  0  0
   34.6236   71.7572   15.8382 C   0  0  0  0  0  0  0  0  0  0  0  0
   35.1790   72.6087   14.8243 O   0  0  0  0  0  0  0  0  0  0  0  0
   35.7465   71.1084   16.6506 C   0  0  0  0  0  0  0  0  0  0  0  0
   36.4612   72.0790   17.4136 O   0  0  0  0  0  0  0  0  0  0  0  0
   35.1883   70.0397   17.5475 C   0  0  0  0  0  0  0  0  0  0  0  0
   35.7234   69.5506   18.6681 N   0  0  0  0  0  0  0  0  0  0  0  0
   34.8866   68.6376   19.2500 C   0  0  0  0  0  0  0  0  0  0  0  0
   35.1699   67.7969   20.7359 Cl  0  0  0  0  0  0  0  0  0  0  0  0
   33.7842   68.5618   18.4416 C   0  0  0  0  0  0  0  0  0  0  0  0
   34.0070   69.4228   17.3638 N   0  0  0  0  0  0  0  0  0  0  0  0
   32.1672   71.8985   14.9949 H   0  0  0  0  0  0  0  0  0  0  0  0
   35.7221   72.0795   14.2195 H   0  0  0  0  0  0  0  0  0  0  0  0
   35.8582   72.5020   18.0447 H   0  0  0  0  0  0  0  0  0  0  0  0
   36.6019   69.8115   19.0277 H   0  0  0  0  0  0  0  0  0  0  0  0
   32.8818   68.4476   14.2142 O   0  0  0  0  0  0  0  0  0  0  0  0
   32.4460   68.5356   15.5703 C   0  0  0  0  0  0  0  0  0  0  0  0
   32.4891   67.6641   13.7986 H   0  0  0  0  0  0  0  0  0  0  0  0
 18 19  1  0
  1 19  1  0
  1  2  1  0
  2  3  1  0
  2  4  1  0
  4  5  1  0
  4  6  1  0
  6  7  1  0
  6  8  1  0
  8  9  1  0
  9 10  1  0
 10 11  1  0
 10 12  2  0
 12 13  1  0
 13  1  1  0
 13  8  2  0
 18 20  1  0
  3 14  1  0
  5 15  1  0
  7 16  1  0
  9 17  1  0
M  CHG 1  13   1
M  END
> <minimizedAffinity>
-5.22699

> <CNNscore>
0.2236535698

> <CNNaffinity>
2.4499709606

> <CNN_VS>
0.5479447246

> <CNNaffinity_variance>
2.0505611897

$$$$



 20 21  0  0  0  0  0  0  0  0999 V2000
   26.9189   64.2754   15.0794 C   0  0  0  0  0  0  0  0  0  0  0  0
   27.8361   65.4943   15.3924 C   0  0  0  0  0  0  0  0  0  0  0  0
   28.5402   65.2694   16.6154 O   0  0  0  0  0  0  0  0  0  0  0  0
   28.8517   65.7543   14.2664 C   0  0  0  0  0  0  0  0  0  0  0  0
   29.7081   66.8529   14.6143 O   0  0  0  0  0  0  0  0  0  0  0  0
   28.1406   66.0428   12.9425 C   0  0  0  0  0  0  0  0  0  0  0  0
   29.0636   66.0769   11.8554 O   0  0  0  0  0  0  0  0  0  0  0  0
   27.0703   65.0178   12.6932 C   0  0  0  0  0  0  0  0  0  0  0  0
   26.5326   64.6645   11.5239 N   0  0  0  0  0  0  0  0  0  0  0  0
   25.6366   63.6435   11.6879 C   0  0  0  0  0  0  0  0  0  0  0  0
   24.7474   62.8553   10.4297 Cl  0  0  0  0  0  0  0  0  0  0  0  0
   25.6229   63.3599   13.0274 C   0  0  0  0  0  0  0  0  0  0  0  0
   26.5029   64.2535   13.6438 N   0  0  0  0  0  0  0  0  0  0  0  0
   29.1062   64.4871   16.5235 H   0  0  0  0  0  0  0  0  0  0  0  0
   29.1750   67.6554   14.7267 H   0  0  0  0  0  0  0  0  0  0  0  0
   29.4922   65.2112   11.7679 H   0  0  0  0  0  0  0  0  0  0  0  0
   26.7512   65.0823   10.6597 H   0  0  0  0  0  0  0  0  0  0  0  0
   26.0337   63.5569   17.2504 O   0  0  0  0  0  0  0  0  0  0  0  0
   25.7215   64.2765   16.0582 C   0  0  0  0  0  0  0  0  0  0  0  0
   25.2688   63.5719   17.8468 H   0  0  0  0  0  0  0  0  0  0  0  0
 18 19  1  0
  1 19  1  0
  1  2  1  0
  2  3  1  0
  2  4  1  0
  4  5  1  0
  4  6  1  0
  6  7  1  0
  6  8  1  0
  8  9  1  0
  9 10  1  0
 10 11  1  0
 10 12  2  0
 12 13  1  0
 13  1  1  0
 13  8  2  0
 18 20  1  0
  3 14  1  0
  5 15  1  0
  7 16  1  0
  9 17  1  0
M  CHG 1  13   1
M  END
> <minimizedAffinity>
-5.10256

> <CNNscore>
0.1871860325

> <CNNaffinity>
3.0235319138

> <CNN_VS>
0.5659629703

> <CNNaffinity_variance>
0.5820538998

$$$$



 20 21  0  0  0  0  0  0  0  0999 V2000
   27.8165   64.7516   14.9010 C   0  0  0  0  0  0  0  0  0  0  0  0
   27.9836   64.2472   13.4373 C   0  0  0  0  0  0  0  0  0  0  0  0
   29.3271   63.8085   13.2263 O   0  0  0  0  0  0  0  0  0  0  0  0
   27.0195   63.0930   13.1128 C   0  0  0  0  0  0  0  0  0  0  0  0
   27.2381   62.6253   11.7731 O   0  0  0  0  0  0  0  0  0  0  0  0
   25.5632   63.5304   13.2843 C   0  0  0  0  0  0  0  0  0  0  0  0
   24.6741   62.4188   13.1916 O   0  0  0  0  0  0  0  0  0  0  0  0
   25.3847   64.2400   14.5969 C   0  0  0  0  0  0  0  0  0  0  0  0
   24.2584   64.3965   15.2957 N   0  0  0  0  0  0  0  0  0  0  0  0
   24.5041   65.0370   16.4795 C   0  0  0  0  0  0  0  0  0  0  0  0
   23.3358   65.4014   17.7032 Cl  0  0  0  0  0  0  0  0  0  0  0  0
   25.8497   65.2884   16.5047 C   0  0  0  0  0  0  0  0  0  0  0  0
   26.3778   64.8111   15.3022 N   0  0  0  0  0  0  0  0  0  0  0  0
   29.5222   63.0670   13.8205 H   0  0  0  0  0  0  0  0  0  0  0  0
   27.0634   63.3452   11.1468 H   0  0  0  0  0  0  0  0  0  0  0  0
   24.8696   61.7882   13.9023 H   0  0  0  0  0  0  0  0  0  0  0  0
   23.3704   64.0920   14.9992 H   0  0  0  0  0  0  0  0  0  0  0  0
   28.2566   66.9740   13.9628 O   0  0  0  0  0  0  0  0  0  0  0  0
   28.5467   66.1059   15.0577 C   0  0  0  0  0  0  0  0  0  0  0  0
   28.7250   67.8148   14.0839 H   0  0  0  0  0  0  0  0  0  0  0  0
 18 19  1  0
  1 19  1  0
  1  2  1  0
  2  3  1  0
  2  4  1  0
  4  5  1  0
  4  6  1  0
  6  7  1  0
  6  8  1  0
  8  9  1  0
  9 10  1  0
 10 11  1  0
 10 12  2  0
 12 13  1  0
 13  1  1  0
 13  8  2  0
 18 20  1  0
  3 14  1  0
  5 15  1  0
  7 16  1  0
  9 17  1  0
M  CHG 1  13   1
M  END
> <minimizedAffinity>
-4.95411

> <CNNscore>
0.1765743643

> <CNNaffinity>
2.6422796249

> <CNN_VS>
0.4665588439

> <CNNaffinity_variance>
0.7683334351

$$$$



 20 21  0  0  0  0  0  0  0  0999 V2000
   23.7884   66.6126    9.8434 C   0  0  0  0  0  0  0  0  0  0  0  0
   23.8820   65.2496    9.0963 C   0  0  0  0  0  0  0  0  0  0  0  0
   22.7431   65.0820    8.2495 O   0  0  0  0  0  0  0  0  0  0  0  0
   25.1610   65.1451    8.2477 C   0  0  0  0  0  0  0  0  0  0  0  0
   25.1857   63.8970    7.5386 O   0  0  0  0  0  0  0  0  0  0  0  0
   26.4106   65.2767    9.1211 C   0  0  0  0  0  0  0  0  0  0  0  0
   27.5889   65.3918    8.3253 O   0  0  0  0  0  0  0  0  0  0  0  0
   26.2792   66.4569   10.0420 C   0  0  0  0  0  0  0  0  0  0  0  0
   27.2575   67.1470   10.6320 N   0  0  0  0  0  0  0  0  0  0  0  0
   26.7509   68.2015   11.3416 C   0  0  0  0  0  0  0  0  0  0  0  0
   27.6707   69.3754   12.2197 Cl  0  0  0  0  0  0  0  0  0  0  0  0
   25.3922   68.1518   11.1802 C   0  0  0  0  0  0  0  0  0  0  0  0
   25.1146   67.0331   10.3903 N   0  0  0  0  0  0  0  0  0  0  0  0
   22.7296   65.7863    7.5827 H   0  0  0  0  0  0  0  0  0  0  0  0
   25.1884   63.1641    8.1740 H   0  0  0  0  0  0  0  0  0  0  0  0
   27.5342   66.1925    7.7806 H   0  0  0  0  0  0  0  0  0  0  0  0
   28.2148   66.9269   10.5655 H   0  0  0  0  0  0  0  0  0  0  0  0
   21.4037   66.3198   10.3340 O   0  0  0  0  0  0  0  0  0  0  0  0
   22.6865   66.5241   10.9251 C   0  0  0  0  0  0  0  0  0  0  0  0
   20.7311   66.2678   11.0310 H   0  0  0  0  0  0  0  0  0  0  0  0
 18 19  1  0
  1 19  1  0
  1  2  1  0
  2  3  1  0
  2  4  1  0
  4  5  1  0
  4  6  1  0
  6  7  1  0
  6  8  1  0
  8  9  1  0
  9 10  1  0
 10 11  1  0
 10 12  2  0
 12 13  1  0
 13  1  1  0
 13  8  2  0
 18 20  1  0
  3 14  1  0
  5 15  1  0
  7 16  1  0
  9 17  1  0
M  CHG 1  13   1
M  END
> <minimizedAffinity>
-5.56756

> <CNNscore>
0.1741232574

> <CNNaffinity>
2.3483574390

> <CNN_VS>
0.4089036584

> <CNNaffinity_variance>
1.5223478079

$$$$
