


 24 27  0  0  0  0  0  0  0  0999 V2000
   11.0044   52.2614   59.6903 C   0  0  0  0  0  0  0  0  0  0  0  0
   11.6444   51.1328   59.0770 O   0  0  0  0  0  0  0  0  0  0  0  0
   12.9885   51.3117   58.8765 C   0  0  0  0  0  0  0  0  0  0  0  0
   13.5541   50.5235   57.8732 C   0  0  0  0  0  0  0  0  0  0  0  0
   14.9037   50.6635   57.5678 C   0  0  0  0  0  0  0  0  0  0  0  0
   15.6701   49.6092   56.1981 Br  0  0  0  0  0  0  0  0  0  0  0  0
   15.6910   51.5872   58.2499 C   0  0  0  0  0  0  0  0  0  0  0  0
   15.1175   52.3549   59.2640 C   0  0  0  0  0  0  0  0  0  0  0  0
   15.8746   53.2905   59.9137 O   0  0  0  0  0  0  0  0  0  0  0  0
   13.7697   52.2063   59.6225 C   0  0  0  0  0  0  0  0  0  0  0  0
   13.1582   53.0054   60.7543 C   0  0  0  0  0  0  0  0  0  0  0  0
   13.7904   52.7640   62.1303 C   0  0  0  0  0  0  0  0  0  0  0  0
   13.1468   51.4787   62.6252 C   0  0  0  0  0  0  0  0  0  0  0  0
   11.7347   51.4876   62.0509 C   0  0  0  0  0  0  0  0  0  0  0  0
   11.6902   52.6250   61.0087 C   0  0  0  0  0  0  0  0  0  0  0  0
   16.7767   53.4030   59.6867 H   0  0  0  0  0  0  0  0  0  0  0  0
    5.4403   51.2630   60.3203 O   0  0  0  0  0  0  0  0  0  0  0  0
    6.7759   51.4803   60.1537 C   0  0  0  0  0  0  0  0  0  0  0  0
    7.3715   52.4723   60.9213 C   0  0  0  0  0  0  0  0  0  0  0  0
    8.7371   52.7293   60.7838 C   0  0  0  0  0  0  0  0  0  0  0  0
    9.5170   51.9943   59.8769 C   0  0  0  0  0  0  0  0  0  0  0  0
    8.8901   50.9964   59.1093 C   0  0  0  0  0  0  0  0  0  0  0  0
    7.5236   50.7381   59.2469 C   0  0  0  0  0  0  0  0  0  0  0  0
    4.9557   51.7752   60.9373 H   0  0  0  0  0  0  0  0  0  0  0  0
 17 18  1  0
 18 19  2  0
 19 20  1  0
 20 21  2  0
  1 21  1  0
  1  2  1  0
  2  3  1  0
  3  4  2  0
  4  5  1  0
  5  6  1  0
  5  7  2  0
  7  8  1  0
  8  9  1  0
  8 10  2  0
 10 11  1  0
 11 12  1  0
 12 13  1  0
 13 14  1  0
 15 14  1  0
 21 22  1  0
 22 23  2  0
 23 18  1  0
 15  1  1  0
 10  3  1  0
 15 11  1  0
 17 24  1  0
  9 16  1  0
M  END
> <minimizedAffinity>
-8.91944

> <CNNscore>
0.8590171933

> <CNNaffinity>
7.7007203102

> <CNN_VS>
6.6150512695

> <CNNaffinity_variance>
0.4402422011

$$$$



 24 27  0  0  0  0  0  0  0  0999 V2000
   10.8810   52.2665   59.4826 C   0  0  0  0  0  0  0  0  0  0  0  0
   11.5270   51.1282   58.8939 O   0  0  0  0  0  0  0  0  0  0  0  0
   12.8661   51.3172   58.6708 C   0  0  0  0  0  0  0  0  0  0  0  0
   13.4285   50.5069   57.6834 C   0  0  0  0  0  0  0  0  0  0  0  0
   14.7724   50.6539   57.3566 C   0  0  0  0  0  0  0  0  0  0  0  0
   15.5341   49.5695   56.0080 Br  0  0  0  0  0  0  0  0  0  0  0  0
   15.5569   51.6062   58.0015 C   0  0  0  0  0  0  0  0  0  0  0  0
   14.9870   52.3962   59.0004 C   0  0  0  0  0  0  0  0  0  0  0  0
   15.7408   53.3591   59.6129 O   0  0  0  0  0  0  0  0  0  0  0  0
   13.6457   52.2421   59.3806 C   0  0  0  0  0  0  0  0  0  0  0  0
   13.0389   53.0665   60.4966 C   0  0  0  0  0  0  0  0  0  0  0  0
   13.6914   52.8725   61.8707 C   0  0  0  0  0  0  0  0  0  0  0  0
   13.0698   51.5946   62.4109 C   0  0  0  0  0  0  0  0  0  0  0  0
   11.6505   51.5702   61.8549 C   0  0  0  0  0  0  0  0  0  0  0  0
   11.5790   52.6762   60.7810 C   0  0  0  0  0  0  0  0  0  0  0  0
   16.6385   53.4756   59.3711 H   0  0  0  0  0  0  0  0  0  0  0  0
    5.3569   51.2229   60.3473 O   0  0  0  0  0  0  0  0  0  0  0  0
    6.6792   51.4945   60.1563 C   0  0  0  0  0  0  0  0  0  0  0  0
    7.3572   50.7653   59.1886 C   0  0  0  0  0  0  0  0  0  0  0  0
    8.7126   51.0099   58.9589 C   0  0  0  0  0  0  0  0  0  0  0  0
    9.3995   51.9874   59.6962 C   0  0  0  0  0  0  0  0  0  0  0  0
    8.6912   52.7112   60.6723 C   0  0  0  0  0  0  0  0  0  0  0  0
    7.3346   52.4674   60.9021 C   0  0  0  0  0  0  0  0  0  0  0  0
    4.9352   50.5627   59.8331 H   0  0  0  0  0  0  0  0  0  0  0  0
 17 18  1  0
 18 19  2  0
 19 20  1  0
 20 21  2  0
  1 21  1  0
  1  2  1  0
  2  3  1  0
  3  4  2  0
  4  5  1  0
  5  6  1  0
  5  7  2  0
  7  8  1  0
  8  9  1  0
  8 10  2  0
 10 11  1  0
 11 12  1  0
 12 13  1  0
 13 14  1  0
 15 14  1  0
 21 22  1  0
 22 23  2  0
 23 18  1  0
 15  1  1  0
 10  3  1  0
 15 11  1  0
 17 24  1  0
  9 16  1  0
M  END
> <minimizedAffinity>
-8.99864

> <CNNscore>
0.8259785771

> <CNNaffinity>
7.6460928917

> <CNN_VS>
6.3155088425

> <CNNaffinity_variance>
0.3994298875

$$$$



 24 27  0  0  0  0  0  0  0  0999 V2000
   11.9697   52.1862   59.3447 C   0  0  0  0  0  0  0  0  0  0  0  0
   12.1953   50.7927   59.6029 O   0  0  0  0  0  0  0  0  0  0  0  0
   13.5232   50.4598   59.6720 C   0  0  0  0  0  0  0  0  0  0  0  0
   13.8186   49.1203   59.4147 C   0  0  0  0  0  0  0  0  0  0  0  0
   15.1427   48.6949   59.4208 C   0  0  0  0  0  0  0  0  0  0  0  0
   15.5483   46.8845   59.0566 Br  0  0  0  0  0  0  0  0  0  0  0  0
   16.1737   49.5955   59.6746 C   0  0  0  0  0  0  0  0  0  0  0  0
   15.8631   50.9276   59.9496 C   0  0  0  0  0  0  0  0  0  0  0  0
   16.8716   51.8265   60.1633 O   0  0  0  0  0  0  0  0  0  0  0  0
   14.5350   51.3770   59.9916 C   0  0  0  0  0  0  0  0  0  0  0  0
   14.1947   52.8118   60.3361 C   0  0  0  0  0  0  0  0  0  0  0  0
   14.6343   53.2617   61.7346 C   0  0  0  0  0  0  0  0  0  0  0  0
   13.5536   52.7313   62.6630 C   0  0  0  0  0  0  0  0  0  0  0  0
   12.2655   52.7749   61.8488 C   0  0  0  0  0  0  0  0  0  0  0  0
   12.6770   53.0537   60.3878 C   0  0  0  0  0  0  0  0  0  0  0  0
   17.7645   51.5434   60.1388 H   0  0  0  0  0  0  0  0  0  0  0  0
    6.4026   53.3341   59.1373 O   0  0  0  0  0  0  0  0  0  0  0  0
    7.7423   53.0851   59.1825 C   0  0  0  0  0  0  0  0  0  0  0  0
    8.1537   51.7597   59.2292 C   0  0  0  0  0  0  0  0  0  0  0  0
    9.5161   51.4578   59.2764 C   0  0  0  0  0  0  0  0  0  0  0  0
   10.4774   52.4809   59.2763 C   0  0  0  0  0  0  0  0  0  0  0  0
   10.0356   53.8154   59.2306 C   0  0  0  0  0  0  0  0  0  0  0  0
    8.6722   54.1183   59.1827 C   0  0  0  0  0  0  0  0  0  0  0  0
    5.7935   52.6221   59.1381 H   0  0  0  0  0  0  0  0  0  0  0  0
 17 18  1  0
 18 19  2  0
 19 20  1  0
 20 21  2  0
  1 21  1  0
  1  2  1  0
  2  3  1  0
  3  4  2  0
  4  5  1  0
  5  6  1  0
  5  7  2  0
  7  8  1  0
  8  9  1  0
  8 10  2  0
 10 11  1  0
 11 12  1  0
 12 13  1  0
 13 14  1  0
 15 14  1  0
 21 22  1  0
 22 23  2  0
 23 18  1  0
 15  1  1  0
 10  3  1  0
 15 11  1  0
 17 24  1  0
  9 16  1  0
M  END
> <minimizedAffinity>
-5.38481

> <CNNscore>
0.7036479115

> <CNNaffinity>
7.4338669777

> <CNN_VS>
5.2308249474

> <CNNaffinity_variance>
0.6485201716

$$$$



 24 27  0  0  0  0  0  0  0  0999 V2000
   16.1568   53.6859   69.6734 C   0  0  0  0  0  0  0  0  0  0  0  0
   15.3659   54.4862   70.5643 O   0  0  0  0  0  0  0  0  0  0  0  0
   15.1281   55.7514   70.0937 C   0  0  0  0  0  0  0  0  0  0  0  0
   14.8300   56.7058   71.0673 C   0  0  0  0  0  0  0  0  0  0  0  0
   14.6140   58.0273   70.6912 C   0  0  0  0  0  0  0  0  0  0  0  0
   14.2262   59.3266   72.0088 Br  0  0  0  0  0  0  0  0  0  0  0  0
   14.6995   58.4048   69.3538 C   0  0  0  0  0  0  0  0  0  0  0  0
   14.9789   57.4370   68.3885 C   0  0  0  0  0  0  0  0  0  0  0  0
   15.1013   57.8058   67.0772 O   0  0  0  0  0  0  0  0  0  0  0  0
   15.1602   56.0894   68.7329 C   0  0  0  0  0  0  0  0  0  0  0  0
   15.4168   55.0305   67.6811 C   0  0  0  0  0  0  0  0  0  0  0  0
   14.2928   54.8561   66.6528 C   0  0  0  0  0  0  0  0  0  0  0  0
   13.2670   53.9802   67.3541 C   0  0  0  0  0  0  0  0  0  0  0  0
   14.0753   53.0631   68.2649 C   0  0  0  0  0  0  0  0  0  0  0  0
   15.5143   53.6203   68.2865 C   0  0  0  0  0  0  0  0  0  0  0  0
   14.9834   58.7018   66.8296 H   0  0  0  0  0  0  0  0  0  0  0  0
   17.0719   48.5246   71.8817 O   0  0  0  0  0  0  0  0  0  0  0  0
   16.8622   49.7729   71.3750 C   0  0  0  0  0  0  0  0  0  0  0  0
   16.1605   49.8782   70.1815 C   0  0  0  0  0  0  0  0  0  0  0  0
   15.9223   51.1368   69.6259 C   0  0  0  0  0  0  0  0  0  0  0  0
   16.3844   52.3000   70.2616 C   0  0  0  0  0  0  0  0  0  0  0  0
   17.0945   52.1670   71.4684 C   0  0  0  0  0  0  0  0  0  0  0  0
   17.3326   50.9078   72.0254 C   0  0  0  0  0  0  0  0  0  0  0  0
   16.7458   47.7733   71.4264 H   0  0  0  0  0  0  0  0  0  0  0  0
 17 18  1  0
 18 19  2  0
 19 20  1  0
 20 21  2  0
  1 21  1  0
  1  2  1  0
  2  3  1  0
  3  4  2  0
  4  5  1  0
  5  6  1  0
  5  7  2  0
  7  8  1  0
  8  9  1  0
  8 10  2  0
 10 11  1  0
 11 12  1  0
 12 13  1  0
 13 14  1  0
 15 14  1  0
 21 22  1  0
 22 23  2  0
 23 18  1  0
 15  1  1  0
 10  3  1  0
 15 11  1  0
 17 24  1  0
  9 16  1  0
M  END
> <minimizedAffinity>
-6.39455

> <CNNscore>
0.6917526126

> <CNNaffinity>
5.8558869362

> <CNN_VS>
4.0508251190

> <CNNaffinity_variance>
0.0697356984

$$$$



 24 27  0  0  0  0  0  0  0  0999 V2000
   10.8977   51.3347   60.6029 C   0  0  0  0  0  0  0  0  0  0  0  0
   11.4284   52.4230   61.3735 O   0  0  0  0  0  0  0  0  0  0  0  0
   12.5523   52.0898   62.0839 C   0  0  0  0  0  0  0  0  0  0  0  0
   12.8150   52.8886   63.1977 C   0  0  0  0  0  0  0  0  0  0  0  0
   13.9106   52.6031   64.0055 C   0  0  0  0  0  0  0  0  0  0  0  0
   14.2604   53.6729   65.5247 Br  0  0  0  0  0  0  0  0  0  0  0  0
   14.7413   51.5243   63.7150 C   0  0  0  0  0  0  0  0  0  0  0  0
   14.4787   50.7457   62.5874 C   0  0  0  0  0  0  0  0  0  0  0  0
   15.2678   49.6622   62.3156 O   0  0  0  0  0  0  0  0  0  0  0  0
   13.4060   51.0345   61.7309 C   0  0  0  0  0  0  0  0  0  0  0  0
   13.1482   50.2188   60.4814 C   0  0  0  0  0  0  0  0  0  0  0  0
   14.2809   50.2446   59.4482 C   0  0  0  0  0  0  0  0  0  0  0  0
   14.0810   51.5504   58.6958 C   0  0  0  0  0  0  0  0  0  0  0  0
   12.5740   51.7802   58.6804 C   0  0  0  0  0  0  0  0  0  0  0  0
   11.9629   50.7619   59.6660 C   0  0  0  0  0  0  0  0  0  0  0  0
   15.9886   49.4548   62.8772 H   0  0  0  0  0  0  0  0  0  0  0  0
    6.2291   53.0234   57.8272 O   0  0  0  0  0  0  0  0  0  0  0  0
    7.3568   52.6443   58.4930 C   0  0  0  0  0  0  0  0  0  0  0  0
    7.5995   51.2844   58.6340 C   0  0  0  0  0  0  0  0  0  0  0  0
    8.7424   50.8504   59.3086 C   0  0  0  0  0  0  0  0  0  0  0  0
    9.6515   51.7749   59.8468 C   0  0  0  0  0  0  0  0  0  0  0  0
    9.3823   53.1467   59.6927 C   0  0  0  0  0  0  0  0  0  0  0  0
    8.2391   53.5818   59.0171 C   0  0  0  0  0  0  0  0  0  0  0  0
    5.6481   52.3743   57.4821 H   0  0  0  0  0  0  0  0  0  0  0  0
 17 18  1  0
 18 19  2  0
 19 20  1  0
 20 21  2  0
  1 21  1  0
  1  2  1  0
  2  3  1  0
  3  4  2  0
  4  5  1  0
  5  6  1  0
  5  7  2  0
  7  8  1  0
  8  9  1  0
  8 10  2  0
 10 11  1  0
 11 12  1  0
 12 13  1  0
 13 14  1  0
 15 14  1  0
 21 22  1  0
 22 23  2  0
 23 18  1  0
 15  1  1  0
 10  3  1  0
 15 11  1  0
 17 24  1  0
  9 16  1  0
M  END
> <minimizedAffinity>
-5.27606

> <CNNscore>
0.6839091182

> <CNNaffinity>
7.3488693237

> <CNN_VS>
5.0259585381

> <CNNaffinity_variance>
0.8044283986

$$$$



 24 27  0  0  0  0  0  0  0  0999 V2000
   11.6197   50.7353   59.5458 C   0  0  0  0  0  0  0  0  0  0  0  0
   12.7200   51.6564   59.5698 O   0  0  0  0  0  0  0  0  0  0  0  0
   13.9426   51.0422   59.6517 C   0  0  0  0  0  0  0  0  0  0  0  0
   14.9721   51.8256   60.1753 C   0  0  0  0  0  0  0  0  0  0  0  0
   16.2399   51.2768   60.3361 C   0  0  0  0  0  0  0  0  0  0  0  0
   17.6332   52.3298   61.0604 Br  0  0  0  0  0  0  0  0  0  0  0  0
   16.4867   49.9522   59.9854 C   0  0  0  0  0  0  0  0  0  0  0  0
   15.4536   49.1860   59.4448 C   0  0  0  0  0  0  0  0  0  0  0  0
   15.6778   47.8736   59.1322 O   0  0  0  0  0  0  0  0  0  0  0  0
   14.1759   49.7244   59.2321 C   0  0  0  0  0  0  0  0  0  0  0  0
   13.0670   48.9078   58.6021 C   0  0  0  0  0  0  0  0  0  0  0  0
   13.3528   48.4227   57.1758 C   0  0  0  0  0  0  0  0  0  0  0  0
   13.0370   49.6210   56.2951 C   0  0  0  0  0  0  0  0  0  0  0  0
   11.8997   50.3512   57.0004 C   0  0  0  0  0  0  0  0  0  0  0  0
   11.7802   49.7267   58.4066 C   0  0  0  0  0  0  0  0  0  0  0  0
   16.5253   47.4978   59.2680 H   0  0  0  0  0  0  0  0  0  0  0  0
    6.6642   53.5020   59.1704 O   0  0  0  0  0  0  0  0  0  0  0  0
    7.8386   52.8154   59.2615 C   0  0  0  0  0  0  0  0  0  0  0  0
    9.0054   53.5478   59.4348 C   0  0  0  0  0  0  0  0  0  0  0  0
   10.2311   52.8863   59.5332 C   0  0  0  0  0  0  0  0  0  0  0  0
   10.2978   51.4860   59.4596 C   0  0  0  0  0  0  0  0  0  0  0  0
    9.1023   50.7667   59.2817 C   0  0  0  0  0  0  0  0  0  0  0  0
    7.8752   51.4280   59.1838 C   0  0  0  0  0  0  0  0  0  0  0  0
    6.6629   54.4374   59.2254 H   0  0  0  0  0  0  0  0  0  0  0  0
 17 18  1  0
 18 19  2  0
 19 20  1  0
 20 21  2  0
  1 21  1  0
  1  2  1  0
  2  3  1  0
  3  4  2  0
  4  5  1  0
  5  6  1  0
  5  7  2  0
  7  8  1  0
  8  9  1  0
  8 10  2  0
 10 11  1  0
 11 12  1  0
 12 13  1  0
 13 14  1  0
 15 14  1  0
 21 22  1  0
 22 23  2  0
 23 18  1  0
 15  1  1  0
 10  3  1  0
 15 11  1  0
 17 24  1  0
  9 16  1  0
M  END
> <minimizedAffinity>
-5.05112

> <CNNscore>
0.5485112667

> <CNNaffinity>
7.3548483849

> <CNN_VS>
4.0342173576

> <CNNaffinity_variance>
0.6468490958

$$$$



 24 27  0  0  0  0  0  0  0  0999 V2000
   16.4794   61.6319   64.3879 C   0  0  0  0  0  0  0  0  0  0  0  0
   17.2555   60.4768   64.7387 O   0  0  0  0  0  0  0  0  0  0  0  0
   17.9812   59.9702   63.6920 C   0  0  0  0  0  0  0  0  0  0  0  0
   18.3331   58.6243   63.8038 C   0  0  0  0  0  0  0  0  0  0  0  0
   19.0347   58.0093   62.7724 C   0  0  0  0  0  0  0  0  0  0  0  0
   19.4990   56.1818   62.9126 Br  0  0  0  0  0  0  0  0  0  0  0  0
   19.3818   58.7237   61.6289 C   0  0  0  0  0  0  0  0  0  0  0  0
   19.0410   60.0736   61.5386 C   0  0  0  0  0  0  0  0  0  0  0  0
   19.3455   60.7731   60.4034 O   0  0  0  0  0  0  0  0  0  0  0  0
   18.3704   60.7315   62.5803 C   0  0  0  0  0  0  0  0  0  0  0  0
   18.0417   62.2077   62.5032 C   0  0  0  0  0  0  0  0  0  0  0  0
   19.2578   63.1349   62.3905 C   0  0  0  0  0  0  0  0  0  0  0  0
   19.7655   63.2728   63.8169 C   0  0  0  0  0  0  0  0  0  0  0  0
   18.5232   63.1915   64.6967 C   0  0  0  0  0  0  0  0  0  0  0  0
   17.3687   62.7220   63.7865 C   0  0  0  0  0  0  0  0  0  0  0  0
   19.7932   60.3492   59.6979 H   0  0  0  0  0  0  0  0  0  0  0  0
   13.5685   63.5765   68.8710 O   0  0  0  0  0  0  0  0  0  0  0  0
   14.2491   63.1233   67.7800 C   0  0  0  0  0  0  0  0  0  0  0  0
   15.2424   62.1749   67.9841 C   0  0  0  0  0  0  0  0  0  0  0  0
   15.9651   61.6824   66.8956 C   0  0  0  0  0  0  0  0  0  0  0  0
   15.6981   62.1355   65.5939 C   0  0  0  0  0  0  0  0  0  0  0  0
   14.6886   63.0980   65.4134 C   0  0  0  0  0  0  0  0  0  0  0  0
   13.9645   63.5908   66.5022 C   0  0  0  0  0  0  0  0  0  0  0  0
   13.7769   63.2475   69.7232 H   0  0  0  0  0  0  0  0  0  0  0  0
 17 18  1  0
 18 19  2  0
 19 20  1  0
 20 21  2  0
  1 21  1  0
  1  2  1  0
  2  3  1  0
  3  4  2  0
  4  5  1  0
  5  6  1  0
  5  7  2  0
  7  8  1  0
  8  9  1  0
  8 10  2  0
 10 11  1  0
 11 12  1  0
 12 13  1  0
 13 14  1  0
 15 14  1  0
 21 22  1  0
 22 23  2  0
 23 18  1  0
 15  1  1  0
 10  3  1  0
 15 11  1  0
 17 24  1  0
  9 16  1  0
M  END
> <minimizedAffinity>
-4.39581

> <CNNscore>
0.5476259589

> <CNNaffinity>
4.6183466911

> <CNN_VS>
2.5291266441

> <CNNaffinity_variance>
0.0223140549

$$$$



 24 27  0  0  0  0  0  0  0  0999 V2000
   14.9835   53.9623   67.4027 C   0  0  0  0  0  0  0  0  0  0  0  0
   14.9196   52.6960   68.0750 O   0  0  0  0  0  0  0  0  0  0  0  0
   15.4988   52.7094   69.3172 C   0  0  0  0  0  0  0  0  0  0  0  0
   15.9197   51.4673   69.7947 C   0  0  0  0  0  0  0  0  0  0  0  0
   16.5564   51.3849   71.0285 C   0  0  0  0  0  0  0  0  0  0  0  0
   17.1427   49.7063   71.6714 Br  0  0  0  0  0  0  0  0  0  0  0  0
   16.7823   52.5312   71.7857 C   0  0  0  0  0  0  0  0  0  0  0  0
   16.3390   53.7639   71.3055 C   0  0  0  0  0  0  0  0  0  0  0  0
   16.5896   54.8994   72.0255 O   0  0  0  0  0  0  0  0  0  0  0  0
   15.6570   53.8726   70.0846 C   0  0  0  0  0  0  0  0  0  0  0  0
   15.1341   55.2031   69.5850 C   0  0  0  0  0  0  0  0  0  0  0  0
   14.0914   55.8685   70.4912 C   0  0  0  0  0  0  0  0  0  0  0  0
   12.7856   55.1706   70.1461 C   0  0  0  0  0  0  0  0  0  0  0  0
   12.8933   54.8228   68.6657 C   0  0  0  0  0  0  0  0  0  0  0  0
   14.3628   55.0657   68.2618 C   0  0  0  0  0  0  0  0  0  0  0  0
   17.0440   54.8449   72.8432 H   0  0  0  0  0  0  0  0  0  0  0  0
   12.5863   53.5875   62.2582 O   0  0  0  0  0  0  0  0  0  0  0  0
   13.1628   53.6504   63.4921 C   0  0  0  0  0  0  0  0  0  0  0  0
   13.1930   54.8828   64.1310 C   0  0  0  0  0  0  0  0  0  0  0  0
   13.7735   54.9940   65.3960 C   0  0  0  0  0  0  0  0  0  0  0  0
   14.3277   53.8716   66.0315 C   0  0  0  0  0  0  0  0  0  0  0  0
   14.2867   52.6348   65.3630 C   0  0  0  0  0  0  0  0  0  0  0  0
   13.7053   52.5227   64.0972 C   0  0  0  0  0  0  0  0  0  0  0  0
   12.2268   54.3603   61.8691 H   0  0  0  0  0  0  0  0  0  0  0  0
 17 18  1  0
 18 19  2  0
 19 20  1  0
 20 21  2  0
  1 21  1  0
  1  2  1  0
  2  3  1  0
  3  4  2  0
  4  5  1  0
  5  6  1  0
  5  7  2  0
  7  8  1  0
  8  9  1  0
  8 10  2  0
 10 11  1  0
 11 12  1  0
 12 13  1  0
 13 14  1  0
 15 14  1  0
 21 22  1  0
 22 23  2  0
 23 18  1  0
 15  1  1  0
 10  3  1  0
 15 11  1  0
 17 24  1  0
  9 16  1  0
M  END
> <minimizedAffinity>
-2.39092

> <CNNscore>
0.4828071892

> <CNNaffinity>
5.2723717690

> <CNN_VS>
2.5455389023

> <CNNaffinity_variance>
0.0027714062

$$$$



 24 27  0  0  0  0  0  0  0  0999 V2000
   17.5096   41.5781   70.2075 C   0  0  0  0  0  0  0  0  0  0  0  0
   18.1758   41.9985   69.0079 O   0  0  0  0  0  0  0  0  0  0  0  0
   19.4733   42.3894   69.2141 C   0  0  0  0  0  0  0  0  0  0  0  0
   19.9981   43.2536   68.2521 C   0  0  0  0  0  0  0  0  0  0  0  0
   21.2937   43.7382   68.3969 C   0  0  0  0  0  0  0  0  0  0  0  0
   22.0025   44.9222   67.1045 Br  0  0  0  0  0  0  0  0  0  0  0  0
   22.0666   43.3730   69.4958 C   0  0  0  0  0  0  0  0  0  0  0  0
   21.5368   42.4928   70.4399 C   0  0  0  0  0  0  0  0  0  0  0  0
   22.2754   42.1582   71.5412 O   0  0  0  0  0  0  0  0  0  0  0  0
   20.2489   41.9552   70.2990 C   0  0  0  0  0  0  0  0  0  0  0  0
   19.6908   40.9635   71.2981 C   0  0  0  0  0  0  0  0  0  0  0  0
   20.4765   39.6518   71.4138 C   0  0  0  0  0  0  0  0  0  0  0  0
   19.9949   38.8142   70.2400 C   0  0  0  0  0  0  0  0  0  0  0  0
   18.5361   39.2072   70.0358 C   0  0  0  0  0  0  0  0  0  0  0  0
   18.2925   40.4616   70.9012 C   0  0  0  0  0  0  0  0  0  0  0  0
   23.1376   42.5083   71.6512 H   0  0  0  0  0  0  0  0  0  0  0  0
   12.1724   39.9683   69.0781 O   0  0  0  0  0  0  0  0  0  0  0  0
   13.4512   40.3392   69.3713 C   0  0  0  0  0  0  0  0  0  0  0  0
   14.0302   41.3361   68.5974 C   0  0  0  0  0  0  0  0  0  0  0  0
   15.3380   41.7477   68.8619 C   0  0  0  0  0  0  0  0  0  0  0  0
   16.0759   41.1646   69.9042 C   0  0  0  0  0  0  0  0  0  0  0  0
   15.4681   40.1554   70.6724 C   0  0  0  0  0  0  0  0  0  0  0  0
   14.1591   39.7435   70.4087 C   0  0  0  0  0  0  0  0  0  0  0  0
   11.7139   40.3834   68.3742 H   0  0  0  0  0  0  0  0  0  0  0  0
 17 18  1  0
 18 19  2  0
 19 20  1  0
 20 21  2  0
  1 21  1  0
  1  2  1  0
  2  3  1  0
  3  4  2  0
  4  5  1  0
  5  6  1  0
  5  7  2  0
  7  8  1  0
  8  9  1  0
  8 10  2  0
 10 11  1  0
 11 12  1  0
 12 13  1  0
 13 14  1  0
 15 14  1  0
 21 22  1  0
 22 23  2  0
 23 18  1  0
 15  1  1  0
 10  3  1  0
 15 11  1  0
 17 24  1  0
  9 16  1  0
M  END
> <minimizedAffinity>
-4.54487

> <CNNscore>
0.4684339464

> <CNNaffinity>
4.7652492523

> <CNN_VS>
2.2322044373

> <CNNaffinity_variance>
0.1196913943

$$$$
