


 28 30  0  0  0  0  0  0  0  0999 V2000
   28.9341   65.8000    8.2935 C   0  0  0  0  0  0  0  0  0  0  0  0
   28.2823   66.7067    7.2299 C   0  0  0  0  0  0  0  0  0  0  0  0
   29.2153   66.9774    6.0421 C   0  0  0  0  0  0  0  0  0  0  0  0
   30.6916   66.7980    6.4073 C   0  0  0  0  0  0  0  0  0  0  0  0
   31.5289   67.5491    5.5233 O   0  0  0  0  0  0  0  0  0  0  0  0
   30.9470   67.2094    7.8715 C   0  0  0  0  0  0  0  0  0  0  0  0
   32.4204   67.0727    8.3238 C   0  0  0  0  0  0  0  0  0  0  0  0
   33.2164   66.2583    7.4432 O   0  0  0  0  0  0  0  0  0  0  0  0
   32.3256   66.3714    9.6846 C   0  0  0  0  0  0  0  0  0  0  0  0
   33.4663   65.5584    9.9351 O   0  0  0  0  0  0  0  0  0  0  0  0
   31.0507   65.5394    9.5448 C   0  0  0  0  0  0  0  0  0  0  0  0
   30.1315   66.4506    8.8549 N   0  0  0  0  0  0  0  0  0  0  0  0
   31.3221   68.4931    5.6062 H   0  0  0  0  0  0  0  0  0  0  0  0
   32.8314   65.3696    7.3885 H   0  0  0  0  0  0  0  0  0  0  0  0
   33.5639   64.9094    9.2209 H   0  0  0  0  0  0  0  0  0  0  0  0
   27.9354   65.3843    9.3883 C   0  0  0  0  0  0  0  0  0  0  0  0
   28.1768   66.0682   10.7229 C   0  0  0  0  0  0  0  0  0  0  0  0
   29.0748   65.7181   11.4923 O   0  0  0  0  0  0  0  0  0  0  0  0
   25.5453   69.3175   11.8227 C   0  0  0  0  0  0  0  0  0  0  0  0
   25.4269   68.6475   10.5873 C   0  0  0  0  0  0  0  0  0  0  0  0
   26.2875   67.5984   10.2377 C   0  0  0  0  0  0  0  0  0  0  0  0
   27.3016   67.2027   11.1127 C   0  0  0  0  0  0  0  0  0  0  0  0
   27.4417   67.8464   12.3421 C   0  0  0  0  0  0  0  0  0  0  0  0
   26.5741   68.8948   12.6883 C   0  0  0  0  0  0  0  0  0  0  0  0
   24.0689   71.1474   10.9008 C   0  0  0  0  0  0  0  0  0  0  0  0
   24.5562   70.4460   12.1895 C   0  0  0  0  0  0  0  0  0  0  0  0
   25.2570   71.4823   13.0980 C   0  0  0  0  0  0  0  0  0  0  0  0
   23.2969   69.9535   12.9388 C   0  0  0  0  0  0  0  0  0  0  0  0
 25 26  1  0
 26 27  1  0
 26 28  1  0
 26 19  1  0
 19 20  2  0
 20 21  1  0
 21 22  2  0
 22 17  1  0
 17 18  2  0
 17 16  1  0
  1 16  1  0
  1  2  1  0
  2  3  1  0
  3  4  1  0
  4  5  1  0
  4  6  1  0
  6  7  1  0
  7  8  1  0
  7  9  1  0
  9 10  1  0
  9 11  1  0
 11 12  1  0
 22 23  1  0
 23 24  2  0
 24 19  1  0
 12  1  1  0
  6 12  1  0
  5 13  1  0
  8 14  1  0
 10 15  1  0
M  END
> <minimizedAffinity>
-7.38557

> <CNNscore>
0.9338360429

> <CNNaffinity>
6.3330941200

> <CNN_VS>
5.9140715599

> <CNNaffinity_variance>
0.3004976213

$$$$



 28 30  0  0  0  0  0  0  0  0999 V2000
   28.8827   65.8560    8.2033 C   0  0  0  0  0  0  0  0  0  0  0  0
   28.2420   66.7377    7.1122 C   0  0  0  0  0  0  0  0  0  0  0  0
   29.1832   66.9719    5.9232 C   0  0  0  0  0  0  0  0  0  0  0  0
   30.6564   66.7945    6.3017 C   0  0  0  0  0  0  0  0  0  0  0  0
   31.5028   67.5174    5.4031 O   0  0  0  0  0  0  0  0  0  0  0  0
   30.9057   67.2431    7.7560 C   0  0  0  0  0  0  0  0  0  0  0  0
   32.3756   67.1107    8.2203 C   0  0  0  0  0  0  0  0  0  0  0  0
   33.1722   66.2690    7.3663 O   0  0  0  0  0  0  0  0  0  0  0  0
   32.2692   66.4461    9.5987 C   0  0  0  0  0  0  0  0  0  0  0  0
   33.4040   65.6341    9.8773 O   0  0  0  0  0  0  0  0  0  0  0  0
   30.9907   65.6175    9.4734 C   0  0  0  0  0  0  0  0  0  0  0  0
   30.0804   66.5150    8.7542 N   0  0  0  0  0  0  0  0  0  0  0  0
   31.3006   68.4644    5.4598 H   0  0  0  0  0  0  0  0  0  0  0  0
   32.7827   65.3813    7.3329 H   0  0  0  0  0  0  0  0  0  0  0  0
   33.5022   64.9659    9.1811 H   0  0  0  0  0  0  0  0  0  0  0  0
   27.8755   65.4747    9.3028 C   0  0  0  0  0  0  0  0  0  0  0  0
   28.4120   65.6646   10.7111 C   0  0  0  0  0  0  0  0  0  0  0  0
   28.9356   64.7476   11.3483 O   0  0  0  0  0  0  0  0  0  0  0  0
   28.2063   69.5782   12.5369 C   0  0  0  0  0  0  0  0  0  0  0  0
   29.1982   68.6406   12.8924 C   0  0  0  0  0  0  0  0  0  0  0  0
   29.2540   67.3727   12.2983 C   0  0  0  0  0  0  0  0  0  0  0  0
   28.3056   67.0048   11.3414 C   0  0  0  0  0  0  0  0  0  0  0  0
   27.3137   67.9121   10.9691 C   0  0  0  0  0  0  0  0  0  0  0  0
   27.2650   69.1823   11.5655 C   0  0  0  0  0  0  0  0  0  0  0  0
   29.4118   71.7926   12.6835 C   0  0  0  0  0  0  0  0  0  0  0  0
   28.1970   70.9795   13.1869 C   0  0  0  0  0  0  0  0  0  0  0  0
   28.2783   70.8442   14.7249 C   0  0  0  0  0  0  0  0  0  0  0  0
   26.9335   71.8094   12.8637 C   0  0  0  0  0  0  0  0  0  0  0  0
 25 26  1  0
 26 27  1  0
 26 28  1  0
 26 19  1  0
 19 20  2  0
 20 21  1  0
 21 22  2  0
 22 17  1  0
 17 18  2  0
 17 16  1  0
  1 16  1  0
  1  2  1  0
  2  3  1  0
  3  4  1  0
  4  5  1  0
  4  6  1  0
  6  7  1  0
  7  8  1  0
  7  9  1  0
  9 10  1  0
  9 11  1  0
 11 12  1  0
 22 23  1  0
 23 24  2  0
 24 19  1  0
 12  1  1  0
  6 12  1  0
  5 13  1  0
  8 14  1  0
 10 15  1  0
M  END
> <minimizedAffinity>
-8.01217

> <CNNscore>
0.9244058132

> <CNNaffinity>
6.5360627174

> <CNN_VS>
6.0419745445

> <CNNaffinity_variance>
0.4057104290

$$$$



 28 30  0  0  0  0  0  0  0  0999 V2000
   28.8397   65.9554    8.2696 C   0  0  0  0  0  0  0  0  0  0  0  0
   28.2021   66.8057    7.1521 C   0  0  0  0  0  0  0  0  0  0  0  0
   29.1253   66.9586    5.9360 C   0  0  0  0  0  0  0  0  0  0  0  0
   30.6002   66.7552    6.2939 C   0  0  0  0  0  0  0  0  0  0  0  0
   31.4484   67.4120    5.3475 O   0  0  0  0  0  0  0  0  0  0  0  0
   30.8917   67.2610    7.7214 C   0  0  0  0  0  0  0  0  0  0  0  0
   32.3665   67.1065    8.1631 C   0  0  0  0  0  0  0  0  0  0  0  0
   33.1212   66.2043    7.3331 O   0  0  0  0  0  0  0  0  0  0  0  0
   32.2693   66.5078    9.5720 C   0  0  0  0  0  0  0  0  0  0  0  0
   33.3860   65.6760    9.8655 O   0  0  0  0  0  0  0  0  0  0  0  0
   30.9654   65.7123    9.5089 C   0  0  0  0  0  0  0  0  0  0  0  0
   30.0666   66.6029    8.7672 N   0  0  0  0  0  0  0  0  0  0  0  0
   31.2745   68.3661    5.3650 H   0  0  0  0  0  0  0  0  0  0  0  0
   32.7060   65.3278    7.3475 H   0  0  0  0  0  0  0  0  0  0  0  0
   33.4509   64.9747    9.1986 H   0  0  0  0  0  0  0  0  0  0  0  0
   27.8446   65.6535    9.4043 C   0  0  0  0  0  0  0  0  0  0  0  0
   27.3225   66.8976   10.1020 C   0  0  0  0  0  0  0  0  0  0  0  0
   28.0729   67.7536   10.5766 O   0  0  0  0  0  0  0  0  0  0  0  0
   23.0651   67.5600   10.4601 C   0  0  0  0  0  0  0  0  0  0  0  0
   23.9681   67.9498   11.4710 C   0  0  0  0  0  0  0  0  0  0  0  0
   25.3460   67.7267   11.3479 C   0  0  0  0  0  0  0  0  0  0  0  0
   25.8545   67.0916   10.2127 C   0  0  0  0  0  0  0  0  0  0  0  0
   24.9852   66.6962    9.1962 C   0  0  0  0  0  0  0  0  0  0  0  0
   23.6058   66.9255    9.3237 C   0  0  0  0  0  0  0  0  0  0  0  0
   20.9785   67.0072   11.7711 C   0  0  0  0  0  0  0  0  0  0  0  0
   21.5565   67.8542   10.6141 C   0  0  0  0  0  0  0  0  0  0  0  0
   20.8166   67.4970    9.3042 C   0  0  0  0  0  0  0  0  0  0  0  0
   21.2381   69.3326   10.9344 C   0  0  0  0  0  0  0  0  0  0  0  0
 25 26  1  0
 26 27  1  0
 26 28  1  0
 26 19  1  0
 19 20  2  0
 20 21  1  0
 21 22  2  0
 22 17  1  0
 17 18  2  0
 17 16  1  0
  1 16  1  0
  1  2  1  0
  2  3  1  0
  3  4  1  0
  4  5  1  0
  4  6  1  0
  6  7  1  0
  7  8  1  0
  7  9  1  0
  9 10  1  0
  9 11  1  0
 11 12  1  0
 22 23  1  0
 23 24  2  0
 24 19  1  0
 12  1  1  0
  6 12  1  0
  5 13  1  0
  8 14  1  0
 10 15  1  0
M  END
> <minimizedAffinity>
-7.90177

> <CNNscore>
0.7914126515

> <CNNaffinity>
6.1351752281

> <CNN_VS>
4.8554553986

> <CNNaffinity_variance>
0.3164295256

$$$$



 28 30  0  0  0  0  0  0  0  0999 V2000
   28.8145   66.0427    8.3887 C   0  0  0  0  0  0  0  0  0  0  0  0
   28.1813   66.8559    7.2415 C   0  0  0  0  0  0  0  0  0  0  0  0
   29.0842   66.9181    6.0023 C   0  0  0  0  0  0  0  0  0  0  0  0
   30.5590   66.6858    6.3429 C   0  0  0  0  0  0  0  0  0  0  0  0
   31.4080   67.2669    5.3488 O   0  0  0  0  0  0  0  0  0  0  0  0
   30.8946   67.2529    7.7372 C   0  0  0  0  0  0  0  0  0  0  0  0
   32.3724   67.0736    8.1589 C   0  0  0  0  0  0  0  0  0  0  0  0
   33.0820   66.1074    7.3619 O   0  0  0  0  0  0  0  0  0  0  0  0
   32.2850   66.5497    9.5979 C   0  0  0  0  0  0  0  0  0  0  0  0
   33.3810   65.6984    9.9125 O   0  0  0  0  0  0  0  0  0  0  0  0
   30.9561   65.7941    9.5992 C   0  0  0  0  0  0  0  0  0  0  0  0
   30.0706   66.6747    8.8301 N   0  0  0  0  0  0  0  0  0  0  0  0
   31.2641   68.2258    5.3211 H   0  0  0  0  0  0  0  0  0  0  0  0
   32.6403   65.2464    7.4284 H   0  0  0  0  0  0  0  0  0  0  0  0
   33.4108   64.9628    9.2809 H   0  0  0  0  0  0  0  0  0  0  0  0
   27.8335   65.8299    9.5554 C   0  0  0  0  0  0  0  0  0  0  0  0
   28.3324   64.8433   10.5970 C   0  0  0  0  0  0  0  0  0  0  0  0
   28.7698   63.7299   10.2970 O   0  0  0  0  0  0  0  0  0  0  0  0
   28.1890   66.0821   14.7367 C   0  0  0  0  0  0  0  0  0  0  0  0
   28.6941   66.9233   13.7236 C   0  0  0  0  0  0  0  0  0  0  0  0
   28.7408   66.5113   12.3851 C   0  0  0  0  0  0  0  0  0  0  0  0
   28.2958   65.2363   12.0285 C   0  0  0  0  0  0  0  0  0  0  0  0
   27.7899   64.3831   13.0091 C   0  0  0  0  0  0  0  0  0  0  0  0
   27.7426   64.8031   14.3481 C   0  0  0  0  0  0  0  0  0  0  0  0
   29.5203   66.4884   16.8440 C   0  0  0  0  0  0  0  0  0  0  0  0
   28.1198   66.5833   16.1962 C   0  0  0  0  0  0  0  0  0  0  0  0
   27.1273   65.7139   17.0023 C   0  0  0  0  0  0  0  0  0  0  0  0
   27.6592   68.0528   16.3306 C   0  0  0  0  0  0  0  0  0  0  0  0
 25 26  1  0
 26 27  1  0
 26 28  1  0
 26 19  1  0
 19 20  2  0
 20 21  1  0
 21 22  2  0
 22 17  1  0
 17 18  2  0
 17 16  1  0
  1 16  1  0
  1  2  1  0
  2  3  1  0
  3  4  1  0
  4  5  1  0
  4  6  1  0
  6  7  1  0
  7  8  1  0
  7  9  1  0
  9 10  1  0
  9 11  1  0
 11 12  1  0
 22 23  1  0
 23 24  2  0
 24 19  1  0
 12  1  1  0
  6 12  1  0
  5 13  1  0
  8 14  1  0
 10 15  1  0
M  END
> <minimizedAffinity>
-8.15188

> <CNNscore>
0.6910518408

> <CNNaffinity>
5.7683258057

> <CNN_VS>
3.9862122536

> <CNNaffinity_variance>
0.2905018330

$$$$



 28 30  0  0  0  0  0  0  0  0999 V2000
   29.0809   65.8979    9.6289 C   0  0  0  0  0  0  0  0  0  0  0  0
   27.7549   66.2986    8.9509 C   0  0  0  0  0  0  0  0  0  0  0  0
   27.7883   66.0858    7.4316 C   0  0  0  0  0  0  0  0  0  0  0  0
   29.2144   66.0845    6.8739 C   0  0  0  0  0  0  0  0  0  0  0  0
   29.2180   66.4321    5.4862 O   0  0  0  0  0  0  0  0  0  0  0  0
   30.1155   67.0475    7.6734 C   0  0  0  0  0  0  0  0  0  0  0  0
   31.5762   67.1201    7.1683 C   0  0  0  0  0  0  0  0  0  0  0  0
   31.9352   66.0323    6.2964 O   0  0  0  0  0  0  0  0  0  0  0  0
   32.4152   67.0169    8.4483 C   0  0  0  0  0  0  0  0  0  0  0  0
   33.6665   66.3847    8.2045 O   0  0  0  0  0  0  0  0  0  0  0  0
   31.5231   66.1825    9.3674 C   0  0  0  0  0  0  0  0  0  0  0  0
   30.1855   66.7327    9.1238 N   0  0  0  0  0  0  0  0  0  0  0  0
   28.8643   67.3286    5.3765 H   0  0  0  0  0  0  0  0  0  0  0  0
   31.8165   65.1907    6.7637 H   0  0  0  0  0  0  0  0  0  0  0  0
   33.5157   65.5063    7.8215 H   0  0  0  0  0  0  0  0  0  0  0  0
   28.9800   65.9398   11.1641 C   0  0  0  0  0  0  0  0  0  0  0  0
   28.6994   67.3264   11.7172 C   0  0  0  0  0  0  0  0  0  0  0  0
   29.6005   68.1102   12.0252 O   0  0  0  0  0  0  0  0  0  0  0  0
   24.5954   68.5456   12.3192 C   0  0  0  0  0  0  0  0  0  0  0  0
   25.0992   67.3376   12.8446 C   0  0  0  0  0  0  0  0  0  0  0  0
   26.4298   66.9486   12.6403 C   0  0  0  0  0  0  0  0  0  0  0  0
   27.2881   67.7547   11.8891 C   0  0  0  0  0  0  0  0  0  0  0  0
   26.8177   68.9557   11.3583 C   0  0  0  0  0  0  0  0  0  0  0  0
   25.4843   69.3417   11.5693 C   0  0  0  0  0  0  0  0  0  0  0  0
   22.4892   69.4878   11.2921 C   0  0  0  0  0  0  0  0  0  0  0  0
   23.1328   68.9594   12.5947 C   0  0  0  0  0  0  0  0  0  0  0  0
   23.0963   70.0726   13.6672 C   0  0  0  0  0  0  0  0  0  0  0  0
   22.2414   67.8025   13.1013 C   0  0  0  0  0  0  0  0  0  0  0  0
 25 26  1  0
 26 27  1  0
 26 28  1  0
 26 19  1  0
 19 20  2  0
 20 21  1  0
 21 22  2  0
 22 17  1  0
 17 18  2  0
 17 16  1  0
  1 16  1  0
  1  2  1  0
  2  3  1  0
  3  4  1  0
  4  5  1  0
  4  6  1  0
  6  7  1  0
  7  8  1  0
  7  9  1  0
  9 10  1  0
  9 11  1  0
 11 12  1  0
 22 23  1  0
 23 24  2  0
 24 19  1  0
 12  1  1  0
  6 12  1  0
  5 13  1  0
  8 14  1  0
 10 15  1  0
M  END
> <minimizedAffinity>
-7.09923

> <CNNscore>
0.5684620142

> <CNNaffinity>
6.0290923119

> <CNN_VS>
3.4273099899

> <CNNaffinity_variance>
0.2806039155

$$$$



 28 30  0  0  0  0  0  0  0  0999 V2000
   28.9296   65.6634    9.4079 C   0  0  0  0  0  0  0  0  0  0  0  0
   27.6404   66.1516    8.7165 C   0  0  0  0  0  0  0  0  0  0  0  0
   27.7558   66.1344    7.1865 C   0  0  0  0  0  0  0  0  0  0  0  0
   29.2098   66.1998    6.7104 C   0  0  0  0  0  0  0  0  0  0  0  0
   29.2864   66.7217    5.3806 O   0  0  0  0  0  0  0  0  0  0  0  0
   30.0633   67.0499    7.6733 C   0  0  0  0  0  0  0  0  0  0  0  0
   31.5486   67.1816    7.2607 C   0  0  0  0  0  0  0  0  0  0  0  0
   31.9577   66.2129    6.2775 O   0  0  0  0  0  0  0  0  0  0  0  0
   32.3183   66.9132    8.5601 C   0  0  0  0  0  0  0  0  0  0  0  0
   33.5831   66.3132    8.3049 O   0  0  0  0  0  0  0  0  0  0  0  0
   31.3812   65.9711    9.3160 C   0  0  0  0  0  0  0  0  0  0  0  0
   30.0566   66.5522    9.0733 N   0  0  0  0  0  0  0  0  0  0  0  0
   28.9357   67.6260    5.3675 H   0  0  0  0  0  0  0  0  0  0  0  0
   31.8173   65.3189    6.6265 H   0  0  0  0  0  0  0  0  0  0  0  0
   33.4563   65.4914    7.8054 H   0  0  0  0  0  0  0  0  0  0  0  0
   28.7466   65.5092   10.9282 C   0  0  0  0  0  0  0  0  0  0  0  0
   27.9234   64.2947   11.3214 C   0  0  0  0  0  0  0  0  0  0  0  0
   28.2626   63.1446   11.0328 O   0  0  0  0  0  0  0  0  0  0  0  0
   24.2212   64.8112   13.4936 C   0  0  0  0  0  0  0  0  0  0  0  0
   24.2428   64.5605   12.1059 C   0  0  0  0  0  0  0  0  0  0  0  0
   25.4481   64.3991   11.4095 C   0  0  0  0  0  0  0  0  0  0  0  0
   26.6665   64.5003   12.0847 C   0  0  0  0  0  0  0  0  0  0  0  0
   26.6758   64.7463   13.4576 C   0  0  0  0  0  0  0  0  0  0  0  0
   25.4647   64.9038   14.1505 C   0  0  0  0  0  0  0  0  0  0  0  0
   22.3061   63.5436   14.5443 C   0  0  0  0  0  0  0  0  0  0  0  0
   22.8728   64.9483   14.2347 C   0  0  0  0  0  0  0  0  0  0  0  0
   21.8652   65.7192   13.3509 C   0  0  0  0  0  0  0  0  0  0  0  0
   22.9739   65.7008   15.5813 C   0  0  0  0  0  0  0  0  0  0  0  0
 25 26  1  0
 26 27  1  0
 26 28  1  0
 26 19  1  0
 19 20  2  0
 20 21  1  0
 21 22  2  0
 22 17  1  0
 17 18  2  0
 17 16  1  0
  1 16  1  0
  1  2  1  0
  2  3  1  0
  3  4  1  0
  4  5  1  0
  4  6  1  0
  6  7  1  0
  7  8  1  0
  7  9  1  0
  9 10  1  0
  9 11  1  0
 11 12  1  0
 22 23  1  0
 23 24  2  0
 24 19  1  0
 12  1  1  0
  6 12  1  0
  5 13  1  0
  8 14  1  0
 10 15  1  0
M  END
> <minimizedAffinity>
-8.35364

> <CNNscore>
0.5663462281

> <CNNaffinity>
6.1703076363

> <CNN_VS>
3.4945304394

> <CNNaffinity_variance>
0.3875305951

$$$$



 28 30  0  0  0  0  0  0  0  0999 V2000
   27.1677   65.5246   15.6758 C   0  0  0  0  0  0  0  0  0  0  0  0
   28.1509   66.5966   16.1881 C   0  0  0  0  0  0  0  0  0  0  0  0
   28.6102   67.5475   15.0748 C   0  0  0  0  0  0  0  0  0  0  0  0
   28.4766   66.9236   13.6828 C   0  0  0  0  0  0  0  0  0  0  0  0
   29.3718   67.5477   12.7577 O   0  0  0  0  0  0  0  0  0  0  0  0
   28.7313   65.4035   13.7376 C   0  0  0  0  0  0  0  0  0  0  0  0
   28.6299   64.6908   12.3680 C   0  0  0  0  0  0  0  0  0  0  0  0
   27.9698   65.4788   11.3601 O   0  0  0  0  0  0  0  0  0  0  0  0
   27.7726   63.4525   12.6585 C   0  0  0  0  0  0  0  0  0  0  0  0
   27.0042   63.0698   11.5236 O   0  0  0  0  0  0  0  0  0  0  0  0
   26.8892   63.9203   13.8151 C   0  0  0  0  0  0  0  0  0  0  0  0
   27.8183   64.6789   14.6591 N   0  0  0  0  0  0  0  0  0  0  0  0
   30.2864   67.4110   13.0505 H   0  0  0  0  0  0  0  0  0  0  0  0
   27.0724   65.6969   11.6566 H   0  0  0  0  0  0  0  0  0  0  0  0
   26.4483   63.8138   11.2437 H   0  0  0  0  0  0  0  0  0  0  0  0
   26.5714   64.6920   16.8247 C   0  0  0  0  0  0  0  0  0  0  0  0
   25.3936   65.3607   17.5124 C   0  0  0  0  0  0  0  0  0  0  0  0
   25.5204   66.0261   18.5430 O   0  0  0  0  0  0  0  0  0  0  0  0
   21.4983   64.9207   15.6887 C   0  0  0  0  0  0  0  0  0  0  0  0
   22.4706   65.7996   15.1678 C   0  0  0  0  0  0  0  0  0  0  0  0
   23.7289   65.9389   15.7686 C   0  0  0  0  0  0  0  0  0  0  0  0
   24.0407   65.2107   16.9189 C   0  0  0  0  0  0  0  0  0  0  0  0
   23.0992   64.3328   17.4556 C   0  0  0  0  0  0  0  0  0  0  0  0
   21.8412   64.1950   16.8472 C   0  0  0  0  0  0  0  0  0  0  0  0
   19.9960   65.8464   13.8819 C   0  0  0  0  0  0  0  0  0  0  0  0
   20.1348   64.7663   14.9793 C   0  0  0  0  0  0  0  0  0  0  0  0
   18.9892   64.9333   16.0041 C   0  0  0  0  0  0  0  0  0  0  0  0
   19.9407   63.3960   14.2907 C   0  0  0  0  0  0  0  0  0  0  0  0
 25 26  1  0
 26 27  1  0
 26 28  1  0
 26 19  1  0
 19 20  2  0
 20 21  1  0
 21 22  2  0
 22 17  1  0
 17 18  2  0
 17 16  1  0
  1 16  1  0
  1  2  1  0
  2  3  1  0
  3  4  1  0
  4  5  1  0
  4  6  1  0
  6  7  1  0
  7  8  1  0
  7  9  1  0
  9 10  1  0
  9 11  1  0
 11 12  1  0
 22 23  1  0
 23 24  2  0
 24 19  1  0
 12  1  1  0
  6 12  1  0
  5 13  1  0
  8 14  1  0
 10 15  1  0
M  END
> <minimizedAffinity>
-6.23271

> <CNNscore>
0.5406018496

> <CNNaffinity>
5.1104373932

> <CNN_VS>
2.7627120018

> <CNNaffinity_variance>
0.0683499947

$$$$



 28 30  0  0  0  0  0  0  0  0999 V2000
   28.7534   65.5958    9.5544 C   0  0  0  0  0  0  0  0  0  0  0  0
   27.4884   66.1186    8.8439 C   0  0  0  0  0  0  0  0  0  0  0  0
   27.6353   66.1209    7.3165 C   0  0  0  0  0  0  0  0  0  0  0  0
   29.0998   66.1649    6.8714 C   0  0  0  0  0  0  0  0  0  0  0  0
   29.2141   66.7040    5.5512 O   0  0  0  0  0  0  0  0  0  0  0  0
   29.9491   66.9847    7.8640 C   0  0  0  0  0  0  0  0  0  0  0  0
   31.4449   67.0936    7.4839 C   0  0  0  0  0  0  0  0  0  0  0  0
   31.8560   66.1312    6.4954 O   0  0  0  0  0  0  0  0  0  0  0  0
   32.1821   66.7919    8.7948 C   0  0  0  0  0  0  0  0  0  0  0  0
   33.4403   66.1713    8.5570 O   0  0  0  0  0  0  0  0  0  0  0  0
   31.2118   65.8575    9.5175 C   0  0  0  0  0  0  0  0  0  0  0  0
   29.9038   66.4675    9.2561 N   0  0  0  0  0  0  0  0  0  0  0  0
   28.8810   67.6150    5.5440 H   0  0  0  0  0  0  0  0  0  0  0  0
   31.6913   65.2351    6.8284 H   0  0  0  0  0  0  0  0  0  0  0  0
   33.3083   65.3593    8.0431 H   0  0  0  0  0  0  0  0  0  0  0  0
   28.5358   65.4238   11.0683 C   0  0  0  0  0  0  0  0  0  0  0  0
   27.7733   64.1617   11.4333 C   0  0  0  0  0  0  0  0  0  0  0  0
   28.1047   63.0470   11.0227 O   0  0  0  0  0  0  0  0  0  0  0  0
   24.3506   64.5892   14.0399 C   0  0  0  0  0  0  0  0  0  0  0  0
   25.6344   65.0364   14.4154 C   0  0  0  0  0  0  0  0  0  0  0  0
   26.7388   64.8893   13.5655 C   0  0  0  0  0  0  0  0  0  0  0  0
   26.5880   64.2747   12.3204 C   0  0  0  0  0  0  0  0  0  0  0  0
   25.3297   63.8237   11.9219 C   0  0  0  0  0  0  0  0  0  0  0  0
   24.2262   63.9770   12.7766 C   0  0  0  0  0  0  0  0  0  0  0  0
   23.6577   64.9839   16.4362 C   0  0  0  0  0  0  0  0  0  0  0  0
   23.1492   64.8002   14.9878 C   0  0  0  0  0  0  0  0  0  0  0  0
   22.2137   63.5706   14.9298 C   0  0  0  0  0  0  0  0  0  0  0  0
   22.2966   66.0441   14.6478 C   0  0  0  0  0  0  0  0  0  0  0  0
 25 26  1  0
 26 27  1  0
 26 28  1  0
 26 19  1  0
 19 20  2  0
 20 21  1  0
 21 22  2  0
 22 17  1  0
 17 18  2  0
 17 16  1  0
  1 16  1  0
  1  2  1  0
  2  3  1  0
  3  4  1  0
  4  5  1  0
  4  6  1  0
  6  7  1  0
  7  8  1  0
  7  9  1  0
  9 10  1  0
  9 11  1  0
 11 12  1  0
 22 23  1  0
 23 24  2  0
 24 19  1  0
 12  1  1  0
  6 12  1  0
  5 13  1  0
  8 14  1  0
 10 15  1  0
M  END
> <minimizedAffinity>
-8.44691

> <CNNscore>
0.4792455137

> <CNNaffinity>
6.0477442741

> <CNN_VS>
2.8983542919

> <CNNaffinity_variance>
0.2458193749

$$$$



 28 30  0  0  0  0  0  0  0  0999 V2000
   27.6072   66.1414    7.5733 C   0  0  0  0  0  0  0  0  0  0  0  0
   28.1095   66.8347    6.2906 C   0  0  0  0  0  0  0  0  0  0  0  0
   29.5687   66.4841    5.9704 C   0  0  0  0  0  0  0  0  0  0  0  0
   30.3456   66.0323    7.2103 C   0  0  0  0  0  0  0  0  0  0  0  0
   31.7502   66.2375    7.0330 O   0  0  0  0  0  0  0  0  0  0  0  0
   29.8471   66.7723    8.4682 C   0  0  0  0  0  0  0  0  0  0  0  0
   30.5885   66.3861    9.7702 C   0  0  0  0  0  0  0  0  0  0  0  0
   31.3456   65.1669    9.6577 O   0  0  0  0  0  0  0  0  0  0  0  0
   29.4608   66.1683   10.7868 C   0  0  0  0  0  0  0  0  0  0  0  0
   29.8139   65.1911   11.7590 O   0  0  0  0  0  0  0  0  0  0  0  0
   28.3005   65.7046    9.9061 C   0  0  0  0  0  0  0  0  0  0  0  0
   28.3978   66.5834    8.7359 N   0  0  0  0  0  0  0  0  0  0  0  0
   31.9257   67.1835    6.9092 H   0  0  0  0  0  0  0  0  0  0  0  0
   30.7516   64.4383    9.4185 H   0  0  0  0  0  0  0  0  0  0  0  0
   30.0399   64.3593   11.3141 H   0  0  0  0  0  0  0  0  0  0  0  0
   26.0974   66.3490    7.7883 C   0  0  0  0  0  0  0  0  0  0  0  0
   25.3704   65.0959    8.2449 C   0  0  0  0  0  0  0  0  0  0  0  0
   25.1262   64.1582    7.4820 O   0  0  0  0  0  0  0  0  0  0  0  0
   24.0331   64.8507   12.3490 C   0  0  0  0  0  0  0  0  0  0  0  0
   23.8754   66.0238   11.5821 C   0  0  0  0  0  0  0  0  0  0  0  0
   24.3163   66.0953   10.2540 C   0  0  0  0  0  0  0  0  0  0  0  0
   24.9422   64.9953    9.6631 C   0  0  0  0  0  0  0  0  0  0  0  0
   25.1106   63.8213   10.3971 C   0  0  0  0  0  0  0  0  0  0  0  0
   24.6637   63.7547   11.7266 C   0  0  0  0  0  0  0  0  0  0  0  0
   22.4412   65.9013   14.0044 C   0  0  0  0  0  0  0  0  0  0  0  0
   23.5028   64.7963   13.7989 C   0  0  0  0  0  0  0  0  0  0  0  0
   24.6671   65.0195   14.7914 C   0  0  0  0  0  0  0  0  0  0  0  0
   22.8332   63.4530   14.1689 C   0  0  0  0  0  0  0  0  0  0  0  0
 25 26  1  0
 26 27  1  0
 26 28  1  0
 26 19  1  0
 19 20  2  0
 20 21  1  0
 21 22  2  0
 22 17  1  0
 17 18  2  0
 17 16  1  0
  1 16  1  0
  1  2  1  0
  2  3  1  0
  3  4  1  0
  4  5  1  0
  4  6  1  0
  6  7  1  0
  7  8  1  0
  7  9  1  0
  9 10  1  0
  9 11  1  0
 11 12  1  0
 22 23  1  0
 23 24  2  0
 24 19  1  0
 12  1  1  0
  6 12  1  0
  5 13  1  0
  8 14  1  0
 10 15  1  0
M  END
> <minimizedAffinity>
-8.84201

> <CNNscore>
0.4232604802

> <CNNaffinity>
6.0619463921

> <CNN_VS>
2.5657823086

> <CNNaffinity_variance>
0.1742611527

$$$$
