


 36 38  0  0  0  0  0  0  0  0999 V2000
   20.7343  -31.0447    7.7964 C   0  0  0  0  0  0  0  0  0  0  0  0
   22.9562  -31.7223    6.1940 O   0  0  0  0  0  0  0  0  0  0  0  0
   22.8159  -30.5616    6.5714 C   0  0  0  0  0  0  0  0  0  0  0  0
   21.7657  -30.1363    7.3535 N   0  0  0  0  0  0  0  0  0  0  0  0
   21.7167  -29.1891    7.6175 H   0  0  0  0  0  0  0  0  0  0  0  0
   23.8052  -29.5441    6.1210 C   0  0  0  0  0  0  0  0  0  0  0  0
   24.8639  -29.8675    5.2588 C   0  0  0  0  0  0  0  0  0  0  0  0
   25.7821  -28.8717    4.8729 C   0  0  0  0  0  0  0  0  0  0  0  0
   25.6539  -27.5555    5.3253 C   0  0  0  0  0  0  0  0  0  0  0  0
   24.5902  -27.2466    6.1590 C   0  0  0  0  0  0  0  0  0  0  0  0
   24.4503  -25.9604    6.5968 O   0  0  0  0  0  0  0  0  0  0  0  0
   23.6662  -28.2165    6.5519 C   0  0  0  0  0  0  0  0  0  0  0  0
   22.6478  -27.7804    7.3645 O   0  0  0  0  0  0  0  0  0  0  0  0
   25.0684  -25.3066    6.3353 H   0  0  0  0  0  0  0  0  0  0  0  0
   22.6057  -26.8801    7.6208 H   0  0  0  0  0  0  0  0  0  0  0  0
   26.8944  -29.2257    3.9830 N   0  0  0  0  0  0  0  0  0  0  0  0
   27.3522  -30.3739    4.0757 O   0  0  0  0  0  0  0  0  0  0  0  0
   27.3100  -28.3612    3.2012 O   0  0  0  0  0  0  0  0  0  0  0  0
   20.5671  -30.8608    9.2714 C   0  0  0  0  0  0  0  0  0  0  0  0
   20.2400  -29.6989    9.8618 C   0  0  0  0  0  0  0  0  0  0  0  0
   20.1393  -29.5048   11.3476 C   0  0  0  0  0  0  0  0  0  0  0  0
   18.7493  -29.4755   11.6985 O   0  0  0  0  0  0  0  0  0  0  0  0
   18.5809  -30.1754   12.9551 C   0  0  0  0  0  0  0  0  0  0  0  0
   19.9817  -30.5731   13.4381 C   0  0  0  0  0  0  0  0  0  0  0  0
   20.5422  -29.5361   14.2643 O   0  0  0  0  0  0  0  0  0  0  0  0
   20.7600  -30.6567   12.1386 C   0  0  0  0  0  0  0  0  0  0  0  0
   22.1594  -30.5046   12.3751 O   0  0  0  0  0  0  0  0  0  0  0  0
   20.5511  -28.7001   13.7724 H   0  0  0  0  0  0  0  0  0  0  0  0
   22.3190  -29.6718   12.8462 H   0  0  0  0  0  0  0  0  0  0  0  0
   17.4884  -31.6284   12.6869 S   0  0  0  0  0  0  0  0  0  0  0  0
   15.8731  -30.8982   12.8959 C   0  0  0  0  0  0  0  0  0  0  0  0
   14.7782  -31.5243   12.3016 C   0  0  0  0  0  0  0  0  0  0  0  0
   13.5269  -30.9526   12.4575 C   0  0  0  0  0  0  0  0  0  0  0  0
   13.3044  -29.8159   13.1484 N   0  0  0  0  0  0  0  0  0  0  0  0
   14.3821  -29.2166   13.6959 C   0  0  0  0  0  0  0  0  0  0  0  0
   15.6727  -29.7099   13.5948 C   0  0  0  0  0  0  0  0  0  0  0  0
  2  3  2  0
  3  4  1  0
  4  1  1  0
  1 19  1  0
 19 20  2  0
 21 20  1  0
 21 22  1  0
 22 23  1  0
 23 30  1  0
 30 31  1  0
 31 32  2  0
 32 33  1  0
 33 34  2  0
 34 35  1  0
 35 36  2  0
 23 24  1  0
 24 25  1  0
 24 26  1  0
 26 27  1  0
  3  6  1  0
  6  7  2  0
  7  8  1  0
  8 16  1  0
 16 17  2  0
 16 18  1  0
  8  9  2  0
  9 10  1  0
 10 11  1  0
 10 12  2  0
 12 13  1  0
 26 21  1  0
 12  6  1  0
 36 31  1  0
  4  5  1  0
 25 28  1  0
 27 29  1  0
 11 14  1  0
 13 15  1  0
M  CHG 1  16   1
M  CHG 1  18  -1
M  END
> <minimizedAffinity>
-9.99680

> <CNNscore>
0.9541957378

> <CNNaffinity>
6.8252067566

> <CNN_VS>
6.5125832558

> <CNNaffinity_variance>
0.0532520227

$$$$



 36 38  0  0  0  0  0  0  0  0999 V2000
   21.9979  -26.6492   10.7660 C   0  0  0  0  0  0  0  0  0  0  0  0
   21.0180  -28.1090    8.5586 O   0  0  0  0  0  0  0  0  0  0  0  0
   22.2045  -27.7923    8.5939 C   0  0  0  0  0  0  0  0  0  0  0  0
   22.7729  -27.0807    9.6264 N   0  0  0  0  0  0  0  0  0  0  0  0
   23.7316  -26.8605    9.5869 H   0  0  0  0  0  0  0  0  0  0  0  0
   23.0699  -28.1514    7.4367 C   0  0  0  0  0  0  0  0  0  0  0  0
   23.0724  -29.4403    6.8822 C   0  0  0  0  0  0  0  0  0  0  0  0
   23.9201  -29.7341    5.7965 C   0  0  0  0  0  0  0  0  0  0  0  0
   24.7576  -28.7586    5.2485 C   0  0  0  0  0  0  0  0  0  0  0  0
   24.7279  -27.4840    5.7930 C   0  0  0  0  0  0  0  0  0  0  0  0
   25.5345  -26.5212    5.2565 O   0  0  0  0  0  0  0  0  0  0  0  0
   23.8935  -27.1692    6.8670 C   0  0  0  0  0  0  0  0  0  0  0  0
   23.9430  -25.8674    7.3036 O   0  0  0  0  0  0  0  0  0  0  0  0
   26.0959  -26.7286    4.5356 H   0  0  0  0  0  0  0  0  0  0  0  0
   24.5133  -25.2539    6.8838 H   0  0  0  0  0  0  0  0  0  0  0  0
   23.9251  -31.0903    5.2351 N   0  0  0  0  0  0  0  0  0  0  0  0
   22.8856  -31.7558    5.3494 O   0  0  0  0  0  0  0  0  0  0  0  0
   24.9615  -31.4885    4.6887 O   0  0  0  0  0  0  0  0  0  0  0  0
   21.6555  -27.8628   11.5705 C   0  0  0  0  0  0  0  0  0  0  0  0
   20.4675  -28.0742   12.1620 C   0  0  0  0  0  0  0  0  0  0  0  0
   20.1522  -29.2629   13.0239 C   0  0  0  0  0  0  0  0  0  0  0  0
   18.7305  -29.3178   13.2018 O   0  0  0  0  0  0  0  0  0  0  0  0
   18.3192  -30.7059   13.1651 C   0  0  0  0  0  0  0  0  0  0  0  0
   19.5958  -31.5490   13.0490 C   0  0  0  0  0  0  0  0  0  0  0  0
   20.0951  -31.8885   14.3557 O   0  0  0  0  0  0  0  0  0  0  0  0
   20.5578  -30.5876   12.3769 C   0  0  0  0  0  0  0  0  0  0  0  0
   21.9109  -30.9629   12.6329 O   0  0  0  0  0  0  0  0  0  0  0  0
   20.2405  -31.0771   14.8670 H   0  0  0  0  0  0  0  0  0  0  0  0
   22.0555  -31.0182   13.5905 H   0  0  0  0  0  0  0  0  0  0  0  0
   17.1792  -30.9531   11.7453 S   0  0  0  0  0  0  0  0  0  0  0  0
   15.5883  -30.7852   12.5373 C   0  0  0  0  0  0  0  0  0  0  0  0
   14.5525  -31.6268   12.1341 C   0  0  0  0  0  0  0  0  0  0  0  0
   13.3167  -31.4902   12.7433 C   0  0  0  0  0  0  0  0  0  0  0  0
   13.0525  -30.5814   13.7042 N   0  0  0  0  0  0  0  0  0  0  0  0
   14.0643  -29.7638   14.0621 C   0  0  0  0  0  0  0  0  0  0  0  0
   15.3341  -29.8221   13.5112 C   0  0  0  0  0  0  0  0  0  0  0  0
  2  3  2  0
  3  4  1  0
  4  1  1  0
  1 19  1  0
 19 20  2  0
 21 20  1  0
 21 22  1  0
 22 23  1  0
 23 30  1  0
 30 31  1  0
 31 32  2  0
 32 33  1  0
 33 34  2  0
 34 35  1  0
 35 36  2  0
 23 24  1  0
 24 25  1  0
 24 26  1  0
 26 27  1  0
  3  6  1  0
  6  7  2  0
  7  8  1  0
  8 16  1  0
 16 17  2  0
 16 18  1  0
  8  9  2  0
  9 10  1  0
 10 11  1  0
 10 12  2  0
 12 13  1  0
 26 21  1  0
 12  6  1  0
 36 31  1  0
  4  5  1  0
 25 28  1  0
 27 29  1  0
 11 14  1  0
 13 15  1  0
M  CHG 1  16   1
M  CHG 1  18  -1
M  END
> <minimizedAffinity>
-9.85583

> <CNNscore>
0.9400151372

> <CNNaffinity>
6.7586092949

> <CNN_VS>
6.3531951904

> <CNNaffinity_variance>
0.1672164053

$$$$



 36 38  0  0  0  0  0  0  0  0999 V2000
   19.3799  -30.6139   13.0691 C   0  0  0  0  0  0  0  0  0  0  0  0
   17.3834  -30.9761   11.1079 O   0  0  0  0  0  0  0  0  0  0  0  0
   17.0543  -30.7896   12.2768 C   0  0  0  0  0  0  0  0  0  0  0  0
   17.9548  -30.6041   13.3017 N   0  0  0  0  0  0  0  0  0  0  0  0
   17.6186  -30.4612   14.2159 H   0  0  0  0  0  0  0  0  0  0  0  0
   15.6054  -30.8136   12.6190 C   0  0  0  0  0  0  0  0  0  0  0  0
   14.6869  -31.6014   11.9087 C   0  0  0  0  0  0  0  0  0  0  0  0
   13.3238  -31.5785   12.2623 C   0  0  0  0  0  0  0  0  0  0  0  0
   12.8646  -30.7899   13.3210 C   0  0  0  0  0  0  0  0  0  0  0  0
   13.7874  -30.0339   14.0273 C   0  0  0  0  0  0  0  0  0  0  0  0
   13.3496  -29.2691   15.0707 O   0  0  0  0  0  0  0  0  0  0  0  0
   15.1436  -30.0434   13.6966 C   0  0  0  0  0  0  0  0  0  0  0  0
   15.9584  -29.2662   14.4838 O   0  0  0  0  0  0  0  0  0  0  0  0
   12.4400  -29.2601   15.2957 H   0  0  0  0  0  0  0  0  0  0  0  0
   15.5935  -28.7720   15.1913 H   0  0  0  0  0  0  0  0  0  0  0  0
   12.3701  -32.3951   11.5018 N   0  0  0  0  0  0  0  0  0  0  0  0
   11.9189  -31.9118   10.4533 O   0  0  0  0  0  0  0  0  0  0  0  0
   12.0713  -33.5084   11.9516 O   0  0  0  0  0  0  0  0  0  0  0  0
   19.9404  -31.8365   13.7237 C   0  0  0  0  0  0  0  0  0  0  0  0
   21.2498  -32.1303   13.7942 C   0  0  0  0  0  0  0  0  0  0  0  0
   21.8018  -33.3917   14.3935 C   0  0  0  0  0  0  0  0  0  0  0  0
   20.7047  -34.2781   14.6513 O   0  0  0  0  0  0  0  0  0  0  0  0
   21.1254  -35.6282   14.3389 C   0  0  0  0  0  0  0  0  0  0  0  0
   22.6088  -35.5578   13.9539 C   0  0  0  0  0  0  0  0  0  0  0  0
   23.4391  -35.7297   15.1171 O   0  0  0  0  0  0  0  0  0  0  0  0
   22.7436  -34.1349   13.4454 C   0  0  0  0  0  0  0  0  0  0  0  0
   24.0998  -33.6962   13.5201 O   0  0  0  0  0  0  0  0  0  0  0  0
   23.2045  -35.0646   15.7830 H   0  0  0  0  0  0  0  0  0  0  0  0
   24.4214  -33.7933   14.4301 H   0  0  0  0  0  0  0  0  0  0  0  0
   20.0744  -36.2813   12.9803 S   0  0  0  0  0  0  0  0  0  0  0  0
   18.8101  -37.1457   13.8972 C   0  0  0  0  0  0  0  0  0  0  0  0
   18.5855  -38.4921   13.6131 C   0  0  0  0  0  0  0  0  0  0  0  0
   17.5991  -39.1594   14.3191 C   0  0  0  0  0  0  0  0  0  0  0  0
   16.8338  -38.5789   15.2658 N   0  0  0  0  0  0  0  0  0  0  0  0
   17.0547  -37.2701   15.5078 C   0  0  0  0  0  0  0  0  0  0  0  0
   18.0165  -36.5171   14.8542 C   0  0  0  0  0  0  0  0  0  0  0  0
  2  3  2  0
  3  4  1  0
  4  1  1  0
  1 19  1  0
 19 20  2  0
 21 20  1  0
 21 22  1  0
 22 23  1  0
 23 30  1  0
 30 31  1  0
 31 32  2  0
 32 33  1  0
 33 34  2  0
 34 35  1  0
 35 36  2  0
 23 24  1  0
 24 25  1  0
 24 26  1  0
 26 27  1  0
  3  6  1  0
  6  7  2  0
  7  8  1  0
  8 16  1  0
 16 17  2  0
 16 18  1  0
  8  9  2  0
  9 10  1  0
 10 11  1  0
 10 12  2  0
 12 13  1  0
 26 21  1  0
 12  6  1  0
 36 31  1  0
  4  5  1  0
 25 28  1  0
 27 29  1  0
 11 14  1  0
 13 15  1  0
M  CHG 1  16   1
M  CHG 1  18  -1
M  END
> <minimizedAffinity>
-8.57640

> <CNNscore>
0.6543310285

> <CNNaffinity>
6.5596728325

> <CNN_VS>
4.2921977043

> <CNNaffinity_variance>
0.1536359638

$$$$



 36 38  0  0  0  0  0  0  0  0999 V2000
   20.8340  -31.4856    7.5983 C   0  0  0  0  0  0  0  0  0  0  0  0
   22.2688  -32.2890    5.3050 O   0  0  0  0  0  0  0  0  0  0  0  0
   22.7027  -31.3718    5.9976 C   0  0  0  0  0  0  0  0  0  0  0  0
   22.0736  -30.9101    7.1320 N   0  0  0  0  0  0  0  0  0  0  0  0
   22.4790  -30.1692    7.6378 H   0  0  0  0  0  0  0  0  0  0  0  0
   23.9506  -30.6845    5.5651 C   0  0  0  0  0  0  0  0  0  0  0  0
   24.1043  -29.2930    5.6607 C   0  0  0  0  0  0  0  0  0  0  0  0
   25.2993  -28.6887    5.2247 C   0  0  0  0  0  0  0  0  0  0  0  0
   26.3480  -29.4524    4.7048 C   0  0  0  0  0  0  0  0  0  0  0  0
   26.1899  -30.8281    4.6370 C   0  0  0  0  0  0  0  0  0  0  0  0
   27.2139  -31.5837    4.1411 O   0  0  0  0  0  0  0  0  0  0  0  0
   25.0156  -31.4490    5.0662 C   0  0  0  0  0  0  0  0  0  0  0  0
   24.9896  -32.8189    4.9640 O   0  0  0  0  0  0  0  0  0  0  0  0
   28.0037  -31.1705    3.8520 H   0  0  0  0  0  0  0  0  0  0  0  0
   25.7319  -33.2774    4.6224 H   0  0  0  0  0  0  0  0  0  0  0  0
   25.4420  -27.2306    5.3154 N   0  0  0  0  0  0  0  0  0  0  0  0
   24.7934  -26.6506    6.1982 O   0  0  0  0  0  0  0  0  0  0  0  0
   26.1927  -26.6695    4.5074 O   0  0  0  0  0  0  0  0  0  0  0  0
   20.3322  -30.6373    8.7235 C   0  0  0  0  0  0  0  0  0  0  0  0
   20.8436  -30.6400    9.9661 C   0  0  0  0  0  0  0  0  0  0  0  0
   20.2928  -29.8358   11.1085 C   0  0  0  0  0  0  0  0  0  0  0  0
   18.8622  -29.8501   11.0126 O   0  0  0  0  0  0  0  0  0  0  0  0
   18.3161  -29.9504   12.3501 C   0  0  0  0  0  0  0  0  0  0  0  0
   19.5010  -29.9002   13.3233 C   0  0  0  0  0  0  0  0  0  0  0  0
   19.7826  -28.5406   13.7032 O   0  0  0  0  0  0  0  0  0  0  0  0
   20.6399  -30.4312   12.4734 C   0  0  0  0  0  0  0  0  0  0  0  0
   21.8997  -29.9989   12.9867 O   0  0  0  0  0  0  0  0  0  0  0  0
   19.9428  -28.0092   12.9078 H   0  0  0  0  0  0  0  0  0  0  0  0
   21.9083  -29.0310   13.0494 H   0  0  0  0  0  0  0  0  0  0  0  0
   17.3566  -31.5116   12.4872 S   0  0  0  0  0  0  0  0  0  0  0  0
   15.7029  -30.8881   12.7381 C   0  0  0  0  0  0  0  0  0  0  0  0
   14.6354  -31.5914   12.1815 C   0  0  0  0  0  0  0  0  0  0  0  0
   13.3538  -31.1024   12.3698 C   0  0  0  0  0  0  0  0  0  0  0  0
   13.0762  -29.9761   13.0579 N   0  0  0  0  0  0  0  0  0  0  0  0
   14.1271  -29.3012   13.5683 C   0  0  0  0  0  0  0  0  0  0  0  0
   15.4442  -29.7087   13.4329 C   0  0  0  0  0  0  0  0  0  0  0  0
  2  3  2  0
  3  4  1  0
  4  1  1  0
  1 19  1  0
 19 20  2  0
 21 20  1  0
 21 22  1  0
 22 23  1  0
 23 30  1  0
 30 31  1  0
 31 32  2  0
 32 33  1  0
 33 34  2  0
 34 35  1  0
 35 36  2  0
 23 24  1  0
 24 25  1  0
 24 26  1  0
 26 27  1  0
  3  6  1  0
  6  7  2  0
  7  8  1  0
  8 16  1  0
 16 17  2  0
 16 18  1  0
  8  9  2  0
  9 10  1  0
 10 11  1  0
 10 12  2  0
 12 13  1  0
 26 21  1  0
 12  6  1  0
 36 31  1  0
  4  5  1  0
 25 28  1  0
 27 29  1  0
 11 14  1  0
 13 15  1  0
M  CHG 1  16   1
M  CHG 1  18  -1
M  END
> <minimizedAffinity>
-8.95634

> <CNNscore>
0.6299257874

> <CNNaffinity>
6.3305854797

> <CNN_VS>
3.9877989292

> <CNNaffinity_variance>
0.0141016515

$$$$



 36 38  0  0  0  0  0  0  0  0999 V2000
   19.3483  -31.2962   13.1825 C   0  0  0  0  0  0  0  0  0  0  0  0
   17.4073  -30.9635   11.1613 O   0  0  0  0  0  0  0  0  0  0  0  0
   17.0524  -31.0130   12.3364 C   0  0  0  0  0  0  0  0  0  0  0  0
   17.9245  -31.1739   13.3897 N   0  0  0  0  0  0  0  0  0  0  0  0
   17.5684  -31.2064   14.3069 H   0  0  0  0  0  0  0  0  0  0  0  0
   15.5967  -30.9458   12.6419 C   0  0  0  0  0  0  0  0  0  0  0  0
   14.6510  -31.6918   11.9224 C   0  0  0  0  0  0  0  0  0  0  0  0
   13.2834  -31.5825   12.2408 C   0  0  0  0  0  0  0  0  0  0  0  0
   12.8458  -30.7485   13.2734 C   0  0  0  0  0  0  0  0  0  0  0  0
   13.7940  -30.0345   13.9896 C   0  0  0  0  0  0  0  0  0  0  0  0
   13.3767  -29.2258   15.0081 O   0  0  0  0  0  0  0  0  0  0  0  0
   15.1550  -30.1296   13.6939 C   0  0  0  0  0  0  0  0  0  0  0  0
   15.9947  -29.3866   14.4878 O   0  0  0  0  0  0  0  0  0  0  0  0
   12.4640  -29.1594   15.2096 H   0  0  0  0  0  0  0  0  0  0  0  0
   15.6424  -28.8586   15.1771 H   0  0  0  0  0  0  0  0  0  0  0  0
   12.3021  -32.3562   11.4705 N   0  0  0  0  0  0  0  0  0  0  0  0
   12.0103  -33.4842   11.8936 O   0  0  0  0  0  0  0  0  0  0  0  0
   11.8308  -31.8421   10.4484 O   0  0  0  0  0  0  0  0  0  0  0  0
   19.8153  -32.5062   13.9276 C   0  0  0  0  0  0  0  0  0  0  0  0
   19.5663  -33.7731   13.5553 C   0  0  0  0  0  0  0  0  0  0  0  0
   19.9804  -34.9825   14.3434 C   0  0  0  0  0  0  0  0  0  0  0  0
   18.9125  -35.3151   15.2405 O   0  0  0  0  0  0  0  0  0  0  0  0
   18.8015  -36.7577   15.3032 C   0  0  0  0  0  0  0  0  0  0  0  0
   19.9433  -37.3325   14.4548 C   0  0  0  0  0  0  0  0  0  0  0  0
   21.1162  -37.5387   15.2633 O   0  0  0  0  0  0  0  0  0  0  0  0
   20.2052  -36.2134   13.4646 C   0  0  0  0  0  0  0  0  0  0  0  0
   21.5260  -36.3070   12.9316 O   0  0  0  0  0  0  0  0  0  0  0  0
   21.3653  -36.7042   15.6904 H   0  0  0  0  0  0  0  0  0  0  0  0
   22.1683  -36.3124   13.6584 H   0  0  0  0  0  0  0  0  0  0  0  0
   17.1441  -37.2560   14.6857 S   0  0  0  0  0  0  0  0  0  0  0  0
   16.2853  -37.5929   16.2138 C   0  0  0  0  0  0  0  0  0  0  0  0
   14.9662  -38.0400   16.1507 C   0  0  0  0  0  0  0  0  0  0  0  0
   14.2983  -38.2932   17.3368 C   0  0  0  0  0  0  0  0  0  0  0  0
   14.8492  -38.1254   18.5563 N   0  0  0  0  0  0  0  0  0  0  0  0
   16.1192  -37.6713   18.5922 C   0  0  0  0  0  0  0  0  0  0  0  0
   16.8690  -37.3889   17.4621 C   0  0  0  0  0  0  0  0  0  0  0  0
  2  3  2  0
  3  4  1  0
  4  1  1  0
  1 19  1  0
 19 20  2  0
 21 20  1  0
 21 22  1  0
 22 23  1  0
 23 30  1  0
 30 31  1  0
 31 32  2  0
 32 33  1  0
 33 34  2  0
 34 35  1  0
 35 36  2  0
 23 24  1  0
 24 25  1  0
 24 26  1  0
 26 27  1  0
  3  6  1  0
  6  7  2  0
  7  8  1  0
  8 16  1  0
 16 17  2  0
 16 18  1  0
  8  9  2  0
  9 10  1  0
 10 11  1  0
 10 12  2  0
 12 13  1  0
 26 21  1  0
 12  6  1  0
 36 31  1  0
  4  5  1  0
 25 28  1  0
 27 29  1  0
 11 14  1  0
 13 15  1  0
M  CHG 1  16   1
M  CHG 1  18  -1
M  END
> <minimizedAffinity>
-8.69083

> <CNNscore>
0.5868816972

> <CNNaffinity>
5.9842000008

> <CNN_VS>
3.5120174885

> <CNNaffinity_variance>
0.0697288588

$$$$



 36 38  0  0  0  0  0  0  0  0999 V2000
   21.7833  -32.6434    7.5373 C   0  0  0  0  0  0  0  0  0  0  0  0
   21.1675  -29.9251    7.0957 O   0  0  0  0  0  0  0  0  0  0  0  0
   22.3126  -30.3241    6.8988 C   0  0  0  0  0  0  0  0  0  0  0  0
   22.7077  -31.6295    7.0873 N   0  0  0  0  0  0  0  0  0  0  0  0
   23.6439  -31.8778    6.9108 H   0  0  0  0  0  0  0  0  0  0  0  0
   23.3464  -29.3373    6.4810 C   0  0  0  0  0  0  0  0  0  0  0  0
   24.3679  -29.6683    5.5779 C   0  0  0  0  0  0  0  0  0  0  0  0
   25.3308  -28.7030    5.2250 C   0  0  0  0  0  0  0  0  0  0  0  0
   25.2838  -27.4089    5.7510 C   0  0  0  0  0  0  0  0  0  0  0  0
   24.2560  -27.0904    6.6251 C   0  0  0  0  0  0  0  0  0  0  0  0
   24.1954  -25.8249    7.1351 O   0  0  0  0  0  0  0  0  0  0  0  0
   23.2888  -28.0301    6.9865 C   0  0  0  0  0  0  0  0  0  0  0  0
   22.3126  -27.5861    7.8453 O   0  0  0  0  0  0  0  0  0  0  0  0
   24.8427  -25.1915    6.8949 H   0  0  0  0  0  0  0  0  0  0  0  0
   22.3249  -26.7004    8.1509 H   0  0  0  0  0  0  0  0  0  0  0  0
   26.4037  -29.0659    4.2913 N   0  0  0  0  0  0  0  0  0  0  0  0
   26.6657  -30.2712    4.1685 O   0  0  0  0  0  0  0  0  0  0  0  0
   26.9828  -28.1529    3.6893 O   0  0  0  0  0  0  0  0  0  0  0  0
   21.7201  -32.5728    9.0301 C   0  0  0  0  0  0  0  0  0  0  0  0
   22.4284  -33.3569    9.8604 C   0  0  0  0  0  0  0  0  0  0  0  0
   22.3106  -33.3267   11.3572 C   0  0  0  0  0  0  0  0  0  0  0  0
   20.9898  -33.7613   11.7076 O   0  0  0  0  0  0  0  0  0  0  0  0
   21.0796  -34.5796   12.8990 C   0  0  0  0  0  0  0  0  0  0  0  0
   22.5466  -34.5590   13.3477 C   0  0  0  0  0  0  0  0  0  0  0  0
   22.7780  -33.4706   14.2608 O   0  0  0  0  0  0  0  0  0  0  0  0
   23.2786  -34.2886   12.0468 C   0  0  0  0  0  0  0  0  0  0  0  0
   24.5670  -33.7276   12.2973 O   0  0  0  0  0  0  0  0  0  0  0  0
   22.5140  -32.6361   13.8428 H   0  0  0  0  0  0  0  0  0  0  0  0
   24.4719  -32.9283   12.8385 H   0  0  0  0  0  0  0  0  0  0  0  0
   20.4863  -36.2736   12.5053 S   0  0  0  0  0  0  0  0  0  0  0  0
   19.9136  -36.8267   14.1030 C   0  0  0  0  0  0  0  0  0  0  0  0
   20.6494  -37.8044   14.7714 C   0  0  0  0  0  0  0  0  0  0  0  0
   20.1998  -38.2385   16.0068 C   0  0  0  0  0  0  0  0  0  0  0  0
   19.0823  -37.7738   16.6020 N   0  0  0  0  0  0  0  0  0  0  0  0
   18.3754  -36.8442   15.9263 C   0  0  0  0  0  0  0  0  0  0  0  0
   18.7425  -36.3479   14.6861 C   0  0  0  0  0  0  0  0  0  0  0  0
  2  3  2  0
  3  4  1  0
  4  1  1  0
  1 19  1  0
 19 20  2  0
 21 20  1  0
 21 22  1  0
 22 23  1  0
 23 30  1  0
 30 31  1  0
 31 32  2  0
 32 33  1  0
 33 34  2  0
 34 35  1  0
 35 36  2  0
 23 24  1  0
 24 25  1  0
 24 26  1  0
 26 27  1  0
  3  6  1  0
  6  7  2  0
  7  8  1  0
  8 16  1  0
 16 17  2  0
 16 18  1  0
  8  9  2  0
  9 10  1  0
 10 11  1  0
 10 12  2  0
 12 13  1  0
 26 21  1  0
 12  6  1  0
 36 31  1  0
  4  5  1  0
 25 28  1  0
 27 29  1  0
 11 14  1  0
 13 15  1  0
M  CHG 1  16   1
M  CHG 1  18  -1
M  END
> <minimizedAffinity>
-7.06687

> <CNNscore>
0.5204384923

> <CNNaffinity>
5.6572532654

> <CNN_VS>
2.9442522526

> <CNNaffinity_variance>
0.0817209780

$$$$



 36 38  0  0  0  0  0  0  0  0999 V2000
   21.2571  -32.2487    7.4557 C   0  0  0  0  0  0  0  0  0  0  0  0
   21.4122  -29.4543    7.8175 O   0  0  0  0  0  0  0  0  0  0  0  0
   22.2570  -30.0215    7.1291 C   0  0  0  0  0  0  0  0  0  0  0  0
   22.2646  -31.3785    6.8964 N   0  0  0  0  0  0  0  0  0  0  0  0
   22.9746  -31.7651    6.3346 H   0  0  0  0  0  0  0  0  0  0  0  0
   23.3642  -29.2101    6.5524 C   0  0  0  0  0  0  0  0  0  0  0  0
   24.3600  -29.7794    5.7442 C   0  0  0  0  0  0  0  0  0  0  0  0
   25.3948  -28.9716    5.2341 C   0  0  0  0  0  0  0  0  0  0  0  0
   25.4454  -27.6022    5.5090 C   0  0  0  0  0  0  0  0  0  0  0  0
   24.4425  -27.0501    6.2909 C   0  0  0  0  0  0  0  0  0  0  0  0
   24.4774  -25.7106    6.5552 O   0  0  0  0  0  0  0  0  0  0  0  0
   23.4054  -27.8308    6.8045 C   0  0  0  0  0  0  0  0  0  0  0  0
   22.4636  -27.1625    7.5489 O   0  0  0  0  0  0  0  0  0  0  0  0
   25.1719  -25.1833    6.2123 H   0  0  0  0  0  0  0  0  0  0  0  0
   22.5427  -26.2388    7.6844 H   0  0  0  0  0  0  0  0  0  0  0  0
   26.4394  -29.5817    4.4027 N   0  0  0  0  0  0  0  0  0  0  0  0
   27.0135  -28.8490    3.5842 O   0  0  0  0  0  0  0  0  0  0  0  0
   26.6802  -30.7848    4.5634 O   0  0  0  0  0  0  0  0  0  0  0  0
   21.7118  -32.6541    8.8217 C   0  0  0  0  0  0  0  0  0  0  0  0
   22.8179  -33.3744    9.0737 C   0  0  0  0  0  0  0  0  0  0  0  0
   23.2331  -33.8351   10.4414 C   0  0  0  0  0  0  0  0  0  0  0  0
   22.7390  -32.8881   11.3980 O   0  0  0  0  0  0  0  0  0  0  0  0
   22.2897  -33.6134   12.5682 C   0  0  0  0  0  0  0  0  0  0  0  0
   22.6225  -35.0927   12.3341 C   0  0  0  0  0  0  0  0  0  0  0  0
   23.9367  -35.3982   12.8356 O   0  0  0  0  0  0  0  0  0  0  0  0
   22.6274  -35.1871   10.8200 C   0  0  0  0  0  0  0  0  0  0  0  0
   23.3991  -36.3060   10.3844 O   0  0  0  0  0  0  0  0  0  0  0  0
   24.5862  -34.8093   12.4205 H   0  0  0  0  0  0  0  0  0  0  0  0
   24.2948  -36.2437   10.7516 H   0  0  0  0  0  0  0  0  0  0  0  0
   20.4895  -33.3229   12.7954 S   0  0  0  0  0  0  0  0  0  0  0  0
   20.3909  -31.5514   12.5998 C   0  0  0  0  0  0  0  0  0  0  0  0
   19.9209  -31.0409   11.3905 C   0  0  0  0  0  0  0  0  0  0  0  0
   19.8525  -29.6666   11.2369 C   0  0  0  0  0  0  0  0  0  0  0  0
   20.2222  -28.7878   12.1908 N   0  0  0  0  0  0  0  0  0  0  0  0
   20.6942  -29.3053   13.3440 C   0  0  0  0  0  0  0  0  0  0  0  0
   20.8015  -30.6640   13.5921 C   0  0  0  0  0  0  0  0  0  0  0  0
  2  3  2  0
  3  4  1  0
  4  1  1  0
  1 19  1  0
 19 20  2  0
 21 20  1  0
 21 22  1  0
 22 23  1  0
 23 30  1  0
 30 31  1  0
 31 32  2  0
 32 33  1  0
 33 34  2  0
 34 35  1  0
 35 36  2  0
 23 24  1  0
 24 25  1  0
 24 26  1  0
 26 27  1  0
  3  6  1  0
  6  7  2  0
  7  8  1  0
  8 16  1  0
 16 17  2  0
 16 18  1  0
  8  9  2  0
  9 10  1  0
 10 11  1  0
 10 12  2  0
 12 13  1  0
 26 21  1  0
 12  6  1  0
 36 31  1  0
  4  5  1  0
 25 28  1  0
 27 29  1  0
 11 14  1  0
 13 15  1  0
M  CHG 1  16   1
M  CHG 1  18  -1
M  END
> <minimizedAffinity>
-7.63560

> <CNNscore>
0.5184602737

> <CNNaffinity>
5.8294043541

> <CNN_VS>
3.0223145485

> <CNNaffinity_variance>
0.0029247587

$$$$



 36 38  0  0  0  0  0  0  0  0999 V2000
   21.3674  -31.7559    7.8572 C   0  0  0  0  0  0  0  0  0  0  0  0
   22.3592  -31.4169    5.2371 O   0  0  0  0  0  0  0  0  0  0  0  0
   22.8135  -30.7290    6.1480 C   0  0  0  0  0  0  0  0  0  0  0  0
   22.3928  -30.8218    7.4557 N   0  0  0  0  0  0  0  0  0  0  0  0
   22.8013  -30.2368    8.1340 H   0  0  0  0  0  0  0  0  0  0  0  0
   23.8402  -29.7023    5.8183 C   0  0  0  0  0  0  0  0  0  0  0  0
   24.9423  -29.9897    4.9988 C   0  0  0  0  0  0  0  0  0  0  0  0
   25.8940  -28.9874    4.7280 C   0  0  0  0  0  0  0  0  0  0  0  0
   25.7573  -27.6996    5.2535 C   0  0  0  0  0  0  0  0  0  0  0  0
   24.6517  -27.4248    6.0435 C   0  0  0  0  0  0  0  0  0  0  0  0
   24.5038  -26.1658    6.5519 O   0  0  0  0  0  0  0  0  0  0  0  0
   23.6942  -28.4015    6.3226 C   0  0  0  0  0  0  0  0  0  0  0  0
   22.6366  -27.9993    7.1020 O   0  0  0  0  0  0  0  0  0  0  0  0
   25.1444  -25.5076    6.3668 H   0  0  0  0  0  0  0  0  0  0  0  0
   22.5917  -27.1159    7.4110 H   0  0  0  0  0  0  0  0  0  0  0  0
   27.0508  -29.3046    3.8819 N   0  0  0  0  0  0  0  0  0  0  0  0
   27.5391  -30.4388    3.9900 O   0  0  0  0  0  0  0  0  0  0  0  0
   27.4705  -28.4252    3.1192 O   0  0  0  0  0  0  0  0  0  0  0  0
   20.9523  -31.4063    9.2510 C   0  0  0  0  0  0  0  0  0  0  0  0
   20.3893  -30.2395    9.6080 C   0  0  0  0  0  0  0  0  0  0  0  0
   20.0364  -29.8684   11.0197 C   0  0  0  0  0  0  0  0  0  0  0  0
   19.9469  -31.0761   11.7874 O   0  0  0  0  0  0  0  0  0  0  0  0
   20.5061  -30.8254   13.0995 C   0  0  0  0  0  0  0  0  0  0  0  0
   20.8731  -29.3368   13.1537 C   0  0  0  0  0  0  0  0  0  0  0  0
   19.7633  -28.5626   13.6448 O   0  0  0  0  0  0  0  0  0  0  0  0
   21.1075  -29.0083   11.6913 C   0  0  0  0  0  0  0  0  0  0  0  0
   20.9540  -27.6090   11.4551 O   0  0  0  0  0  0  0  0  0  0  0  0
   18.9848  -28.7251   13.0895 H   0  0  0  0  0  0  0  0  0  0  0  0
   20.0785  -27.3238   11.7601 H   0  0  0  0  0  0  0  0  0  0  0  0
   21.9613  -31.9199   13.3470 S   0  0  0  0  0  0  0  0  0  0  0  0
   21.1731  -33.4613   13.7821 C   0  0  0  0  0  0  0  0  0  0  0  0
   21.9311  -34.6308   13.7408 C   0  0  0  0  0  0  0  0  0  0  0  0
   21.3166  -35.8268   14.0706 C   0  0  0  0  0  0  0  0  0  0  0  0
   20.0192  -35.9289   14.4247 N   0  0  0  0  0  0  0  0  0  0  0  0
   19.3007  -34.7869   14.4361 C   0  0  0  0  0  0  0  0  0  0  0  0
   19.8245  -33.5436   14.1217 C   0  0  0  0  0  0  0  0  0  0  0  0
  2  3  2  0
  3  4  1  0
  4  1  1  0
  1 19  1  0
 19 20  2  0
 21 20  1  0
 21 22  1  0
 22 23  1  0
 23 30  1  0
 30 31  1  0
 31 32  2  0
 32 33  1  0
 33 34  2  0
 34 35  1  0
 35 36  2  0
 23 24  1  0
 24 25  1  0
 24 26  1  0
 26 27  1  0
  3  6  1  0
  6  7  2  0
  7  8  1  0
  8 16  1  0
 16 17  2  0
 16 18  1  0
  8  9  2  0
  9 10  1  0
 10 11  1  0
 10 12  2  0
 12 13  1  0
 26 21  1  0
 12  6  1  0
 36 31  1  0
  4  5  1  0
 25 28  1  0
 27 29  1  0
 11 14  1  0
 13 15  1  0
M  CHG 1  16   1
M  CHG 1  18  -1
M  END
> <minimizedAffinity>
-8.47309

> <CNNscore>
0.5015645623

> <CNNaffinity>
5.9095444679

> <CNN_VS>
2.9640181065

> <CNNaffinity_variance>
0.1120892093

$$$$



 36 38  0  0  0  0  0  0  0  0999 V2000
   19.4206  -30.3058   13.0797 C   0  0  0  0  0  0  0  0  0  0  0  0
   17.4572  -30.9202   11.1481 O   0  0  0  0  0  0  0  0  0  0  0  0
   17.1122  -30.6662   12.2995 C   0  0  0  0  0  0  0  0  0  0  0  0
   17.9958  -30.3567   13.3090 N   0  0  0  0  0  0  0  0  0  0  0  0
   17.6475  -30.1653   14.2097 H   0  0  0  0  0  0  0  0  0  0  0  0
   15.6650  -30.7440   12.6406 C   0  0  0  0  0  0  0  0  0  0  0  0
   14.7724  -31.5475   11.9150 C   0  0  0  0  0  0  0  0  0  0  0  0
   13.4094  -31.5759   12.2685 C   0  0  0  0  0  0  0  0  0  0  0  0
   12.9250  -30.8232   13.3420 C   0  0  0  0  0  0  0  0  0  0  0  0
   13.8229  -30.0512   14.0630 C   0  0  0  0  0  0  0  0  0  0  0  0
   13.3606  -29.3214   15.1209 O   0  0  0  0  0  0  0  0  0  0  0  0
   15.1786  -30.0102   13.7327 C   0  0  0  0  0  0  0  0  0  0  0  0
   15.9679  -29.2221   14.5350 O   0  0  0  0  0  0  0  0  0  0  0  0
   12.4513  -29.3463   15.3456 H   0  0  0  0  0  0  0  0  0  0  0  0
   15.5872  -28.7538   15.2518 H   0  0  0  0  0  0  0  0  0  0  0  0
   12.4827  -32.4083   11.4920 N   0  0  0  0  0  0  0  0  0  0  0  0
   12.0744  -31.9501   10.4151 O   0  0  0  0  0  0  0  0  0  0  0  0
   12.1620  -33.5091   11.9576 O   0  0  0  0  0  0  0  0  0  0  0  0
   19.9717  -31.6739   13.3281 C   0  0  0  0  0  0  0  0  0  0  0  0
   20.6437  -32.4009   12.4195 C   0  0  0  0  0  0  0  0  0  0  0  0
   21.1360  -33.8003   12.6533 C   0  0  0  0  0  0  0  0  0  0  0  0
   22.4101  -33.9362   12.0097 O   0  0  0  0  0  0  0  0  0  0  0  0
   23.2648  -34.7434   12.8553 C   0  0  0  0  0  0  0  0  0  0  0  0
   22.4137  -35.2006   14.0472 C   0  0  0  0  0  0  0  0  0  0  0  0
   21.7723  -36.4557   13.7552 O   0  0  0  0  0  0  0  0  0  0  0  0
   21.3650  -34.1078   14.1334 C   0  0  0  0  0  0  0  0  0  0  0  0
   20.1995  -34.5762   14.8113 O   0  0  0  0  0  0  0  0  0  0  0  0
   21.2463  -36.3692   12.9448 H   0  0  0  0  0  0  0  0  0  0  0  0
   19.8656  -35.3718   14.3682 H   0  0  0  0  0  0  0  0  0  0  0  0
   24.7158  -33.7395   13.3688 S   0  0  0  0  0  0  0  0  0  0  0  0
   25.1268  -34.4896   14.9355 C   0  0  0  0  0  0  0  0  0  0  0  0
   24.6709  -33.8811   16.1042 C   0  0  0  0  0  0  0  0  0  0  0  0
   24.9972  -34.4592   17.3192 C   0  0  0  0  0  0  0  0  0  0  0  0
   25.7397  -35.5786   17.4399 N   0  0  0  0  0  0  0  0  0  0  0  0
   26.1877  -36.1369   16.2962 C   0  0  0  0  0  0  0  0  0  0  0  0
   25.9157  -35.6335   15.0346 C   0  0  0  0  0  0  0  0  0  0  0  0
  2  3  2  0
  3  4  1  0
  4  1  1  0
  1 19  1  0
 19 20  2  0
 21 20  1  0
 21 22  1  0
 22 23  1  0
 23 30  1  0
 30 31  1  0
 31 32  2  0
 32 33  1  0
 33 34  2  0
 34 35  1  0
 35 36  2  0
 23 24  1  0
 24 25  1  0
 24 26  1  0
 26 27  1  0
  3  6  1  0
  6  7  2  0
  7  8  1  0
  8 16  1  0
 16 17  2  0
 16 18  1  0
  8  9  2  0
  9 10  1  0
 10 11  1  0
 10 12  2  0
 12 13  1  0
 26 21  1  0
 12  6  1  0
 36 31  1  0
  4  5  1  0
 25 28  1  0
 27 29  1  0
 11 14  1  0
 13 15  1  0
M  CHG 1  16   1
M  CHG 1  18  -1
M  END
> <minimizedAffinity>
-8.91966

> <CNNscore>
0.5015342236

> <CNNaffinity>
6.2220940590

> <CNN_VS>
3.1205930710

> <CNNaffinity_variance>
0.4790808260

$$$$
