


 31 32  0  0  0  0  0  0  0  0999 V2000
   28.3501    1.0422    4.8292 C   0  0  0  0  0  0  0  0  0  0  0  0
   27.3468    0.5224    5.3073 O   0  0  0  0  0  0  0  0  0  0  0  0
   28.4874    2.3691    4.4570 N   0  0  0  0  0  0  0  0  0  0  0  0
   29.3695    2.6251    4.1028 H   0  0  0  0  0  0  0  0  0  0  0  0
   27.5330    3.3968    4.5188 C   0  0  0  0  0  0  0  0  0  0  0  0
   28.0059    4.7105    4.4573 C   0  0  0  0  0  0  0  0  0  0  0  0
   27.1193    5.7892    4.5098 C   0  0  0  0  0  0  0  0  0  0  0  0
   25.7411    5.5696    4.6219 C   0  0  0  0  0  0  0  0  0  0  0  0
   25.2481    4.2549    4.6794 C   0  0  0  0  0  0  0  0  0  0  0  0
   26.1575    3.1775    4.6253 C   0  0  0  0  0  0  0  0  0  0  0  0
   23.7668    3.9891    4.7968 C   0  0  0  0  0  0  0  0  0  0  0  0
   23.3127    4.1433    6.0695 F   0  0  0  0  0  0  0  0  0  0  0  0
   23.0012    4.8139    4.0305 F   0  0  0  0  0  0  0  0  0  0  0  0
   23.4363    2.7246    4.4206 F   0  0  0  0  0  0  0  0  0  0  0  0
   24.8661    6.7082    4.6740 C   0  0  0  0  0  0  0  0  0  0  0  0
   24.1613    7.6274    4.7287 N   0  0  0  0  0  0  0  0  0  0  0  0
   29.2481   -0.8631    3.5081 C   0  0  0  0  0  0  0  0  0  0  0  0
   29.6281    0.2216    4.5171 C   0  0  0  0  0  0  0  0  0  0  0  0
   30.5627    1.1182    3.8843 O   0  0  0  0  0  0  0  0  0  0  0  0
   31.3788    0.6383    3.6731 H   0  0  0  0  0  0  0  0  0  0  0  0
   30.1722   -0.2999    5.8488 C   0  0  0  0  0  0  0  0  0  0  0  0
   31.1404    0.9073    6.7042 S   0  0  0  0  0  0  0  0  0  0  0  0
   32.5226    0.4714    6.7156 O   0  0  0  0  0  0  0  0  0  0  0  0
   30.7793    2.2076    6.1651 O   0  0  0  0  0  0  0  0  0  0  0  0
   30.5434    0.8247    8.3754 C   0  0  0  0  0  0  0  0  0  0  0  0
   29.4155    1.5647    8.7476 C   0  0  0  0  0  0  0  0  0  0  0  0
   28.9627    1.5021   10.0659 C   0  0  0  0  0  0  0  0  0  0  0  0
   29.6427    0.7153   10.9915 C   0  0  0  0  0  0  0  0  0  0  0  0
   29.2044    0.6595   12.2555 F   0  0  0  0  0  0  0  0  0  0  0  0
   30.7736   -0.0100   10.6268 C   0  0  0  0  0  0  0  0  0  0  0  0
   31.2344    0.0458    9.3111 C   0  0  0  0  0  0  0  0  0  0  0  0
 18 17  1  0
 18 19  1  0
 18 21  1  0
 21 22  1  0
 22 23  2  0
 22 24  2  0
 22 25  1  0
 25 26  2  0
 26 27  1  0
 27 28  2  0
 28 29  1  0
 28 30  1  0
 30 31  2  0
 18  1  1  0
  1  2  2  0
  1  3  1  0
  3  5  1  0
  5  6  2  0
  6  7  1  0
  7  8  2  0
  8 15  1  0
 15 16  3  0
  8  9  1  0
  9 11  1  0
 11 12  1  0
 11 13  1  0
 11 14  1  0
  9 10  2  0
 31 25  1  0
 10  5  1  0
 19 20  1  0
  3  4  1  0
M  END
> <minimizedAffinity>
-10.51051

> <CNNscore>
0.9311309457

> <CNNaffinity>
7.7288379669

> <CNN_VS>
7.1965603828

> <CNNaffinity_variance>
0.0329516344

$$$$



 31 32  0  0  0  0  0  0  0  0999 V2000
   28.3354    1.0323    4.8019 C   0  0  0  0  0  0  0  0  0  0  0  0
   27.3025    0.4966    5.1909 O   0  0  0  0  0  0  0  0  0  0  0  0
   28.5001    2.3748    4.5037 N   0  0  0  0  0  0  0  0  0  0  0  0
   29.4035    2.6419    4.2179 H   0  0  0  0  0  0  0  0  0  0  0  0
   27.5472    3.4044    4.5557 C   0  0  0  0  0  0  0  0  0  0  0  0
   28.0234    4.7171    4.5002 C   0  0  0  0  0  0  0  0  0  0  0  0
   27.1384    5.7976    4.5437 C   0  0  0  0  0  0  0  0  0  0  0  0
   25.7586    5.5807    4.6404 C   0  0  0  0  0  0  0  0  0  0  0  0
   25.2624    4.2670    4.6916 C   0  0  0  0  0  0  0  0  0  0  0  0
   26.1702    3.1878    4.6468 C   0  0  0  0  0  0  0  0  0  0  0  0
   23.7793    4.0040    4.7924 C   0  0  0  0  0  0  0  0  0  0  0  0
   23.4467    2.7514    4.3799 F   0  0  0  0  0  0  0  0  0  0  0  0
   23.2890    4.1171    6.0575 F   0  0  0  0  0  0  0  0  0  0  0  0
   23.0481    4.8655    4.0356 F   0  0  0  0  0  0  0  0  0  0  0  0
   24.8854    6.7210    4.6836 C   0  0  0  0  0  0  0  0  0  0  0  0
   24.1812    7.6411    4.7312 N   0  0  0  0  0  0  0  0  0  0  0  0
   29.2879   -0.8633    3.5056 C   0  0  0  0  0  0  0  0  0  0  0  0
   29.6276    0.2196    4.5307 C   0  0  0  0  0  0  0  0  0  0  0  0
   30.5784    1.1234    3.9330 O   0  0  0  0  0  0  0  0  0  0  0  0
   31.4037    0.6486    3.7481 H   0  0  0  0  0  0  0  0  0  0  0  0
   30.1289   -0.3039    5.8783 C   0  0  0  0  0  0  0  0  0  0  0  0
   31.1335    0.8748    6.7314 S   0  0  0  0  0  0  0  0  0  0  0  0
   32.4996    0.3912    6.7543 O   0  0  0  0  0  0  0  0  0  0  0  0
   30.8212    2.1831    6.1814 O   0  0  0  0  0  0  0  0  0  0  0  0
   30.5241    0.8247    8.3995 C   0  0  0  0  0  0  0  0  0  0  0  0
   31.1472   -0.0006    9.3422 C   0  0  0  0  0  0  0  0  0  0  0  0
   30.6526   -0.0416   10.6463 C   0  0  0  0  0  0  0  0  0  0  0  0
   29.5441    0.7286   10.9874 C   0  0  0  0  0  0  0  0  0  0  0  0
   29.0731    0.6849   12.2401 F   0  0  0  0  0  0  0  0  0  0  0  0
   28.9139    1.5391   10.0473 C   0  0  0  0  0  0  0  0  0  0  0  0
   29.4008    1.5872    8.7407 C   0  0  0  0  0  0  0  0  0  0  0  0
 18 17  1  0
 18 19  1  0
 18 21  1  0
 21 22  1  0
 22 23  2  0
 22 24  2  0
 22 25  1  0
 25 26  2  0
 26 27  1  0
 27 28  2  0
 28 29  1  0
 28 30  1  0
 30 31  2  0
 18  1  1  0
  1  2  2  0
  1  3  1  0
  3  5  1  0
  5  6  2  0
  6  7  1  0
  7  8  2  0
  8 15  1  0
 15 16  3  0
  8  9  1  0
  9 11  1  0
 11 12  1  0
 11 13  1  0
 11 14  1  0
  9 10  2  0
 31 25  1  0
 10  5  1  0
 19 20  1  0
  3  4  1  0
M  END
> <minimizedAffinity>
-10.50929

> <CNNscore>
0.9309900999

> <CNNaffinity>
7.7246937752

> <CNN_VS>
7.1916131973

> <CNNaffinity_variance>
0.0348656625

$$$$



 31 32  0  0  0  0  0  0  0  0999 V2000
   27.6928    0.9152    3.6208 C   0  0  0  0  0  0  0  0  0  0  0  0
   26.6251    0.5574    3.1335 O   0  0  0  0  0  0  0  0  0  0  0  0
   27.9880    2.1763    4.1112 N   0  0  0  0  0  0  0  0  0  0  0  0
   28.8923    2.2899    4.4833 H   0  0  0  0  0  0  0  0  0  0  0  0
   27.1662    3.3140    4.1471 C   0  0  0  0  0  0  0  0  0  0  0  0
   27.7369    4.5255    3.7476 C   0  0  0  0  0  0  0  0  0  0  0  0
   26.9841    5.7027    3.7522 C   0  0  0  0  0  0  0  0  0  0  0  0
   25.6433    5.6853    4.1549 C   0  0  0  0  0  0  0  0  0  0  0  0
   25.0520    4.4747    4.5544 C   0  0  0  0  0  0  0  0  0  0  0  0
   25.8270    3.2956    4.5438 C   0  0  0  0  0  0  0  0  0  0  0  0
   23.6075    4.4264    4.9900 C   0  0  0  0  0  0  0  0  0  0  0  0
   22.8422    3.6672    4.1608 F   0  0  0  0  0  0  0  0  0  0  0  0
   23.4293    3.9052    6.2351 F   0  0  0  0  0  0  0  0  0  0  0  0
   23.0347    5.6595    5.0214 F   0  0  0  0  0  0  0  0  0  0  0  0
   24.9072    6.9193    4.1455 C   0  0  0  0  0  0  0  0  0  0  0  0
   24.3075    7.9118    4.1488 N   0  0  0  0  0  0  0  0  0  0  0  0
   28.9189   -0.8911    2.4313 C   0  0  0  0  0  0  0  0  0  0  0  0
   28.9168   -0.0334    3.6974 C   0  0  0  0  0  0  0  0  0  0  0  0
   30.0961    0.7955    3.6822 O   0  0  0  0  0  0  0  0  0  0  0  0
   30.8861    0.2346    3.7290 H   0  0  0  0  0  0  0  0  0  0  0  0
   28.8051   -0.8178    5.0065 C   0  0  0  0  0  0  0  0  0  0  0  0
   28.9993    0.2112    6.4313 S   0  0  0  0  0  0  0  0  0  0  0  0
   28.2368    1.4277    6.2334 O   0  0  0  0  0  0  0  0  0  0  0  0
   28.7700   -0.6238    7.5983 O   0  0  0  0  0  0  0  0  0  0  0  0
   30.7200    0.6525    6.4058 C   0  0  0  0  0  0  0  0  0  0  0  0
   31.0913    1.9924    6.2475 C   0  0  0  0  0  0  0  0  0  0  0  0
   32.4458    2.3262    6.2164 C   0  0  0  0  0  0  0  0  0  0  0  0
   33.4053    1.3241    6.3328 C   0  0  0  0  0  0  0  0  0  0  0  0
   34.7036    1.6499    6.3016 F   0  0  0  0  0  0  0  0  0  0  0  0
   33.0381   -0.0111    6.4756 C   0  0  0  0  0  0  0  0  0  0  0  0
   31.6864   -0.3552    6.5078 C   0  0  0  0  0  0  0  0  0  0  0  0
 18 17  1  0
 18 19  1  0
 18 21  1  0
 21 22  1  0
 22 23  2  0
 22 24  2  0
 22 25  1  0
 25 26  2  0
 26 27  1  0
 27 28  2  0
 28 29  1  0
 28 30  1  0
 30 31  2  0
 18  1  1  0
  1  2  2  0
  1  3  1  0
  3  5  1  0
  5  6  2  0
  6  7  1  0
  7  8  2  0
  8 15  1  0
 15 16  3  0
  8  9  1  0
  9 11  1  0
 11 12  1  0
 11 13  1  0
 11 14  1  0
  9 10  2  0
 31 25  1  0
 10  5  1  0
 19 20  1  0
  3  4  1  0
M  END
> <minimizedAffinity>
-5.37445

> <CNNscore>
0.6098371148

> <CNNaffinity>
7.3755345345

> <CNN_VS>
4.4978747368

> <CNNaffinity_variance>
0.1053776965

$$$$



 31 32  0  0  0  0  0  0  0  0999 V2000
   29.3128    2.6978    6.2831 C   0  0  0  0  0  0  0  0  0  0  0  0
   28.9046    2.8530    7.4297 O   0  0  0  0  0  0  0  0  0  0  0  0
   28.7959    3.2891    5.1423 N   0  0  0  0  0  0  0  0  0  0  0  0
   29.2546    3.0671    4.2999 H   0  0  0  0  0  0  0  0  0  0  0  0
   27.7033    4.1635    5.0300 C   0  0  0  0  0  0  0  0  0  0  0  0
   27.9879    5.5242    4.8869 C   0  0  0  0  0  0  0  0  0  0  0  0
   26.9558    6.4584    4.7664 C   0  0  0  0  0  0  0  0  0  0  0  0
   25.6186    6.0438    4.7840 C   0  0  0  0  0  0  0  0  0  0  0  0
   25.3147    4.6787    4.9215 C   0  0  0  0  0  0  0  0  0  0  0  0
   26.3693    3.7492    5.0423 C   0  0  0  0  0  0  0  0  0  0  0  0
   23.8820    4.2036    4.9401 C   0  0  0  0  0  0  0  0  0  0  0  0
   23.0859    4.9279    4.1087 F   0  0  0  0  0  0  0  0  0  0  0  0
   23.7315    2.9062    4.5558 F   0  0  0  0  0  0  0  0  0  0  0  0
   23.3244    4.2882    6.1777 F   0  0  0  0  0  0  0  0  0  0  0  0
   24.5894    7.0386    4.6584 C   0  0  0  0  0  0  0  0  0  0  0  0
   23.7514    7.8330    4.5508 N   0  0  0  0  0  0  0  0  0  0  0  0
   31.7789    2.4020    6.3923 C   0  0  0  0  0  0  0  0  0  0  0  0
   30.4777    1.7296    5.9524 C   0  0  0  0  0  0  0  0  0  0  0  0
   30.2870    0.5481    6.7559 O   0  0  0  0  0  0  0  0  0  0  0  0
   31.0002   -0.0842    6.5756 H   0  0  0  0  0  0  0  0  0  0  0  0
   30.3927    1.4064    4.4592 C   0  0  0  0  0  0  0  0  0  0  0  0
   28.9585    0.4555    4.0526 S   0  0  0  0  0  0  0  0  0  0  0  0
   28.0030    0.5690    5.1364 O   0  0  0  0  0  0  0  0  0  0  0  0
   28.5812    0.8071    2.6940 O   0  0  0  0  0  0  0  0  0  0  0  0
   29.5492   -1.2200    4.0384 C   0  0  0  0  0  0  0  0  0  0  0  0
   28.7034   -2.2513    3.6149 C   0  0  0  0  0  0  0  0  0  0  0  0
   29.1736   -3.5650    3.6196 C   0  0  0  0  0  0  0  0  0  0  0  0
   30.4694   -3.8315    4.0535 C   0  0  0  0  0  0  0  0  0  0  0  0
   30.9153   -5.0941    4.0567 F   0  0  0  0  0  0  0  0  0  0  0  0
   31.3074   -2.8088    4.4890 C   0  0  0  0  0  0  0  0  0  0  0  0
   30.8467   -1.4919    4.4882 C   0  0  0  0  0  0  0  0  0  0  0  0
 18 17  1  0
 18 19  1  0
 18 21  1  0
 21 22  1  0
 22 23  2  0
 22 24  2  0
 22 25  1  0
 25 26  2  0
 26 27  1  0
 27 28  2  0
 28 29  1  0
 28 30  1  0
 30 31  2  0
 18  1  1  0
  1  2  2  0
  1  3  1  0
  3  5  1  0
  5  6  2  0
  6  7  1  0
  7  8  2  0
  8 15  1  0
 15 16  3  0
  8  9  1  0
  9 11  1  0
 11 12  1  0
 11 13  1  0
 11 14  1  0
  9 10  2  0
 31 25  1  0
 10  5  1  0
 19 20  1  0
  3  4  1  0
M  END
> <minimizedAffinity>
-1.36117

> <CNNscore>
0.4653324187

> <CNNaffinity>
7.4050107002

> <CNN_VS>
3.4457914829

> <CNNaffinity_variance>
0.3981624842

$$$$



 31 32  0  0  0  0  0  0  0  0999 V2000
   29.2086    1.8973    6.1802 C   0  0  0  0  0  0  0  0  0  0  0  0
   28.6432    1.8731    7.2688 O   0  0  0  0  0  0  0  0  0  0  0  0
   28.8939    2.7202    5.1116 N   0  0  0  0  0  0  0  0  0  0  0  0
   29.4613    2.6204    4.3132 H   0  0  0  0  0  0  0  0  0  0  0  0
   27.8718    3.6779    5.0180 C   0  0  0  0  0  0  0  0  0  0  0  0
   28.2458    4.9769    4.6634 C   0  0  0  0  0  0  0  0  0  0  0  0
   27.2872    5.9867    4.5464 C   0  0  0  0  0  0  0  0  0  0  0  0
   25.9346    5.7109    4.7801 C   0  0  0  0  0  0  0  0  0  0  0  0
   25.5403    4.4088    5.1321 C   0  0  0  0  0  0  0  0  0  0  0  0
   26.5216    3.4013    5.2459 C   0  0  0  0  0  0  0  0  0  0  0  0
   24.0885    4.0825    5.3862 C   0  0  0  0  0  0  0  0  0  0  0  0
   23.5062    3.4562    4.3286 F   0  0  0  0  0  0  0  0  0  0  0  0
   23.8918    3.2612    6.4540 F   0  0  0  0  0  0  0  0  0  0  0  0
   23.3439    5.1933    5.6336 F   0  0  0  0  0  0  0  0  0  0  0  0
   24.9831    6.7797    4.6498 C   0  0  0  0  0  0  0  0  0  0  0  0
   24.2174    7.6456    4.5568 N   0  0  0  0  0  0  0  0  0  0  0  0
   31.6381    1.4646    6.4829 C   0  0  0  0  0  0  0  0  0  0  0  0
   30.3634    0.9218    5.8353 C   0  0  0  0  0  0  0  0  0  0  0  0
   30.0478   -0.3424    6.4518 O   0  0  0  0  0  0  0  0  0  0  0  0
   30.7510   -0.9815    6.2571 H   0  0  0  0  0  0  0  0  0  0  0  0
   30.4174    0.7993    4.3110 C   0  0  0  0  0  0  0  0  0  0  0  0
   29.5363   -0.6125    3.7134 S   0  0  0  0  0  0  0  0  0  0  0  0
   29.8590   -0.8034    2.3134 O   0  0  0  0  0  0  0  0  0  0  0  0
   29.7419   -1.6845    4.6727 O   0  0  0  0  0  0  0  0  0  0  0  0
   27.8319   -0.1195    3.8033 C   0  0  0  0  0  0  0  0  0  0  0  0
   27.0287   -0.5838    4.8510 C   0  0  0  0  0  0  0  0  0  0  0  0
   25.6882   -0.2003    4.9049 C   0  0  0  0  0  0  0  0  0  0  0  0
   25.1680    0.6277    3.9139 C   0  0  0  0  0  0  0  0  0  0  0  0
   23.8807    0.9921    3.9700 F   0  0  0  0  0  0  0  0  0  0  0  0
   25.9615    1.0788    2.8628 C   0  0  0  0  0  0  0  0  0  0  0  0
   27.3031    0.7010    2.7998 C   0  0  0  0  0  0  0  0  0  0  0  0
 18 17  1  0
 18 19  1  0
 18 21  1  0
 21 22  1  0
 22 23  2  0
 22 24  2  0
 22 25  1  0
 25 26  2  0
 26 27  1  0
 27 28  2  0
 28 29  1  0
 28 30  1  0
 30 31  2  0
 18  1  1  0
  1  2  2  0
  1  3  1  0
  3  5  1  0
  5  6  2  0
  6  7  1  0
  7  8  2  0
  8 15  1  0
 15 16  3  0
  8  9  1  0
  9 11  1  0
 11 12  1  0
 11 13  1  0
 11 14  1  0
  9 10  2  0
 31 25  1  0
 10  5  1  0
 19 20  1  0
  3  4  1  0
M  END
> <minimizedAffinity>
-8.92927

> <CNNscore>
0.4528319538

> <CNNaffinity>
7.6527152061

> <CNN_VS>
3.4653940201

> <CNNaffinity_variance>
0.0788097829

$$$$



 31 32  0  0  0  0  0  0  0  0999 V2000
   29.4653    1.2103    6.2442 C   0  0  0  0  0  0  0  0  0  0  0  0
   29.6025    0.9275    5.0582 O   0  0  0  0  0  0  0  0  0  0  0  0
   28.6395    2.1944    6.7616 N   0  0  0  0  0  0  0  0  0  0  0  0
   28.6376    2.2792    7.7425 H   0  0  0  0  0  0  0  0  0  0  0  0
   27.8049    3.0868    6.0704 C   0  0  0  0  0  0  0  0  0  0  0  0
   28.4204    4.1531    5.4092 C   0  0  0  0  0  0  0  0  0  0  0  0
   27.6592    5.0833    4.6965 C   0  0  0  0  0  0  0  0  0  0  0  0
   26.2662    4.9588    4.6314 C   0  0  0  0  0  0  0  0  0  0  0  0
   25.6315    3.8893    5.2859 C   0  0  0  0  0  0  0  0  0  0  0  0
   26.4155    2.9595    6.0011 C   0  0  0  0  0  0  0  0  0  0  0  0
   24.1316    3.7288    5.2293 C   0  0  0  0  0  0  0  0  0  0  0  0
   23.4778    4.9061    5.4200 F   0  0  0  0  0  0  0  0  0  0  0  0
   23.6783    3.2445    4.0404 F   0  0  0  0  0  0  0  0  0  0  0  0
   23.6665    2.8720    6.1776 F   0  0  0  0  0  0  0  0  0  0  0  0
   25.5229    5.9387    3.8885 C   0  0  0  0  0  0  0  0  0  0  0  0
   24.9307    6.7387    3.2935 N   0  0  0  0  0  0  0  0  0  0  0  0
   31.1592   -0.5559    6.6828 C   0  0  0  0  0  0  0  0  0  0  0  0
   30.2830    0.5021    7.3549 C   0  0  0  0  0  0  0  0  0  0  0  0
   31.1468    1.4952    7.9429 O   0  0  0  0  0  0  0  0  0  0  0  0
   31.6768    1.0876    8.6456 H   0  0  0  0  0  0  0  0  0  0  0  0
   29.2853   -0.0436    8.3786 C   0  0  0  0  0  0  0  0  0  0  0  0
   30.0698   -0.9838    9.6542 S   0  0  0  0  0  0  0  0  0  0  0  0
   29.2155   -2.1026    9.9994 O   0  0  0  0  0  0  0  0  0  0  0  0
   31.4455   -1.2036    9.2412 O   0  0  0  0  0  0  0  0  0  0  0  0
   30.0878    0.1201   11.0462 C   0  0  0  0  0  0  0  0  0  0  0  0
   31.1366    1.0347   11.1939 C   0  0  0  0  0  0  0  0  0  0  0  0
   31.1472    1.8885   12.2975 C   0  0  0  0  0  0  0  0  0  0  0  0
   30.1234    1.8118   13.2379 C   0  0  0  0  0  0  0  0  0  0  0  0
   30.1389    2.6330   14.2954 F   0  0  0  0  0  0  0  0  0  0  0  0
   29.0870    0.8926   13.1005 C   0  0  0  0  0  0  0  0  0  0  0  0
   29.0672    0.0345   12.0005 C   0  0  0  0  0  0  0  0  0  0  0  0
 18 17  1  0
 18 19  1  0
 18 21  1  0
 21 22  1  0
 22 23  2  0
 22 24  2  0
 22 25  1  0
 25 26  2  0
 26 27  1  0
 27 28  2  0
 28 29  1  0
 28 30  1  0
 30 31  2  0
 18  1  1  0
  1  2  2  0
  1  3  1  0
  3  5  1  0
  5  6  2  0
  6  7  1  0
  7  8  2  0
  8 15  1  0
 15 16  3  0
  8  9  1  0
  9 11  1  0
 11 12  1  0
 11 13  1  0
 11 14  1  0
  9 10  2  0
 31 25  1  0
 10  5  1  0
 19 20  1  0
  3  4  1  0
M  END
> <minimizedAffinity>
-2.34197

> <CNNscore>
0.4117954373

> <CNNaffinity>
7.0192685127

> <CNN_VS>
2.8905026913

> <CNNaffinity_variance>
0.3963865340

$$$$



 31 32  0  0  0  0  0  0  0  0999 V2000
   28.5876    1.4056    4.4913 C   0  0  0  0  0  0  0  0  0  0  0  0
   27.9506    1.0444    3.5070 O   0  0  0  0  0  0  0  0  0  0  0  0
   28.3943    2.5743    5.2088 N   0  0  0  0  0  0  0  0  0  0  0  0
   28.9861    2.7027    5.9851 H   0  0  0  0  0  0  0  0  0  0  0  0
   27.4649    3.5999    4.9740 C   0  0  0  0  0  0  0  0  0  0  0  0
   27.9680    4.8287    4.5382 C   0  0  0  0  0  0  0  0  0  0  0  0
   27.1074    5.8988    4.2798 C   0  0  0  0  0  0  0  0  0  0  0  0
   25.7253    5.7546    4.4509 C   0  0  0  0  0  0  0  0  0  0  0  0
   25.2020    4.5241    4.8831 C   0  0  0  0  0  0  0  0  0  0  0  0
   26.0855    3.4543    5.1396 C   0  0  0  0  0  0  0  0  0  0  0  0
   23.7158    4.3396    5.0726 C   0  0  0  0  0  0  0  0  0  0  0  0
   23.0556    5.5248    5.1699 F   0  0  0  0  0  0  0  0  0  0  0  0
   23.1145    3.6661    4.0535 F   0  0  0  0  0  0  0  0  0  0  0  0
   23.4205    3.6405    6.2011 F   0  0  0  0  0  0  0  0  0  0  0  0
   24.8777    6.8815    4.1749 C   0  0  0  0  0  0  0  0  0  0  0  0
   24.2040    7.7982    3.9499 N   0  0  0  0  0  0  0  0  0  0  0  0
   30.7655    1.5633    5.6801 C   0  0  0  0  0  0  0  0  0  0  0  0
   29.7807    0.5826    5.0420 C   0  0  0  0  0  0  0  0  0  0  0  0
   29.2614   -0.2734    6.0792 O   0  0  0  0  0  0  0  0  0  0  0  0
   29.9823   -0.8065    6.4495 H   0  0  0  0  0  0  0  0  0  0  0  0
   30.3475   -0.2340    3.8787 C   0  0  0  0  0  0  0  0  0  0  0  0
   30.3789   -1.9685    4.2207 S   0  0  0  0  0  0  0  0  0  0  0  0
   31.2592   -2.2042    5.3477 O   0  0  0  0  0  0  0  0  0  0  0  0
   28.9997   -2.4251    4.2513 O   0  0  0  0  0  0  0  0  0  0  0  0
   31.1543   -2.6710    2.7849 C   0  0  0  0  0  0  0  0  0  0  0  0
   32.4054   -2.2004    2.3706 C   0  0  0  0  0  0  0  0  0  0  0  0
   32.9996   -2.7507    1.2343 C   0  0  0  0  0  0  0  0  0  0  0  0
   32.3374   -3.7494    0.5256 C   0  0  0  0  0  0  0  0  0  0  0  0
   32.9118   -4.2735   -0.5645 F   0  0  0  0  0  0  0  0  0  0  0  0
   31.0862   -4.2087    0.9276 C   0  0  0  0  0  0  0  0  0  0  0  0
   30.4836   -3.6650    2.0624 C   0  0  0  0  0  0  0  0  0  0  0  0
 18 17  1  0
 18 19  1  0
 18 21  1  0
 21 22  1  0
 22 23  2  0
 22 24  2  0
 22 25  1  0
 25 26  2  0
 26 27  1  0
 27 28  2  0
 28 29  1  0
 28 30  1  0
 30 31  2  0
 18  1  1  0
  1  2  2  0
  1  3  1  0
  3  5  1  0
  5  6  2  0
  6  7  1  0
  7  8  2  0
  8 15  1  0
 15 16  3  0
  8  9  1  0
  9 11  1  0
 11 12  1  0
 11 13  1  0
 11 14  1  0
  9 10  2  0
 31 25  1  0
 10  5  1  0
 19 20  1  0
  3  4  1  0
M  END
> <minimizedAffinity>
16.35871

> <CNNscore>
0.3801294863

> <CNNaffinity>
7.7158370018

> <CNN_VS>
2.9330172539

> <CNNaffinity_variance>
1.2335339785

$$$$



 31 32  0  0  0  0  0  0  0  0999 V2000
   28.7835    2.5610    6.2288 C   0  0  0  0  0  0  0  0  0  0  0  0
   28.3948    1.7783    5.3676 O   0  0  0  0  0  0  0  0  0  0  0  0
   28.3151    3.8475    6.4383 N   0  0  0  0  0  0  0  0  0  0  0  0
   28.7279    4.3366    7.1863 H   0  0  0  0  0  0  0  0  0  0  0  0
   27.3287    4.5451    5.7235 C   0  0  0  0  0  0  0  0  0  0  0  0
   27.7407    5.6648    4.9958 C   0  0  0  0  0  0  0  0  0  0  0  0
   26.8198    6.4112    4.2559 C   0  0  0  0  0  0  0  0  0  0  0  0
   25.4685    6.0457    4.2300 C   0  0  0  0  0  0  0  0  0  0  0  0
   25.0380    4.9193    4.9516 C   0  0  0  0  0  0  0  0  0  0  0  0
   25.9814    4.1773    5.6934 C   0  0  0  0  0  0  0  0  0  0  0  0
   23.5878    4.5005    4.9385 C   0  0  0  0  0  0  0  0  0  0  0  0
   22.7431    5.5559    5.0883 F   0  0  0  0  0  0  0  0  0  0  0  0
   23.2070    3.8853    3.7852 F   0  0  0  0  0  0  0  0  0  0  0  0
   23.2923    3.6261    5.9374 F   0  0  0  0  0  0  0  0  0  0  0  0
   24.5561    6.8424    3.4571 C   0  0  0  0  0  0  0  0  0  0  0  0
   23.8293    7.4936    2.8305 N   0  0  0  0  0  0  0  0  0  0  0  0
   30.0764    3.3514    8.1998 C   0  0  0  0  0  0  0  0  0  0  0  0
   29.9417    2.2053    7.1963 C   0  0  0  0  0  0  0  0  0  0  0  0
   29.5436    1.0211    7.9155 O   0  0  0  0  0  0  0  0  0  0  0  0
   30.2465    0.7667    8.5336 H   0  0  0  0  0  0  0  0  0  0  0  0
   31.1855    1.9465    6.3436 C   0  0  0  0  0  0  0  0  0  0  0  0
   31.8324    0.3161    6.5668 S   0  0  0  0  0  0  0  0  0  0  0  0
   33.2266    0.3109    6.1708 O   0  0  0  0  0  0  0  0  0  0  0  0
   31.4391   -0.1238    7.8947 O   0  0  0  0  0  0  0  0  0  0  0  0
   30.9400   -0.6614    5.3817 C   0  0  0  0  0  0  0  0  0  0  0  0
   31.4688   -1.8827    4.9493 C   0  0  0  0  0  0  0  0  0  0  0  0
   30.7655   -2.6364    4.0090 C   0  0  0  0  0  0  0  0  0  0  0  0
   29.5568   -2.1598    3.5085 C   0  0  0  0  0  0  0  0  0  0  0  0
   28.8864   -2.8867    2.6058 F   0  0  0  0  0  0  0  0  0  0  0  0
   29.0362   -0.9382    3.9264 C   0  0  0  0  0  0  0  0  0  0  0  0
   29.7318   -0.1771    4.8663 C   0  0  0  0  0  0  0  0  0  0  0  0
 18 17  1  0
 18 19  1  0
 18 21  1  0
 21 22  1  0
 22 23  2  0
 22 24  2  0
 22 25  1  0
 25 26  2  0
 26 27  1  0
 27 28  2  0
 28 29  1  0
 28 30  1  0
 30 31  2  0
 18  1  1  0
  1  2  2  0
  1  3  1  0
  3  5  1  0
  5  6  2  0
  6  7  1  0
  7  8  2  0
  8 15  1  0
 15 16  3  0
  8  9  1  0
  9 11  1  0
 11 12  1  0
 11 13  1  0
 11 14  1  0
  9 10  2  0
 31 25  1  0
 10  5  1  0
 19 20  1  0
  3  4  1  0
M  END
> <minimizedAffinity>
-0.82167

> <CNNscore>
0.3282491863

> <CNNaffinity>
6.9932551384

> <CNN_VS>
2.2955303192

> <CNNaffinity_variance>
0.2268443704

$$$$



 31 32  0  0  0  0  0  0  0  0999 V2000
   23.0310   11.9671   10.8801 C   0  0  0  0  0  0  0  0  0  0  0  0
   22.0138   11.4395   10.4416 O   0  0  0  0  0  0  0  0  0  0  0  0
   23.8995   12.7838   10.1752 N   0  0  0  0  0  0  0  0  0  0  0  0
   24.6632   13.1380   10.6857 H   0  0  0  0  0  0  0  0  0  0  0  0
   23.8333   13.1727    8.8279 C   0  0  0  0  0  0  0  0  0  0  0  0
   22.7332   13.9422    8.4398 C   0  0  0  0  0  0  0  0  0  0  0  0
   22.5958   14.3713    7.1171 C   0  0  0  0  0  0  0  0  0  0  0  0
   23.5618   14.0387    6.1598 C   0  0  0  0  0  0  0  0  0  0  0  0
   24.6772   13.2702    6.5342 C   0  0  0  0  0  0  0  0  0  0  0  0
   24.7999   12.8452    7.8740 C   0  0  0  0  0  0  0  0  0  0  0  0
   25.7356   12.9001    5.5234 C   0  0  0  0  0  0  0  0  0  0  0  0
   26.4055   13.9869    5.0542 F   0  0  0  0  0  0  0  0  0  0  0  0
   26.6906   12.0628    6.0139 F   0  0  0  0  0  0  0  0  0  0  0  0
   25.2156   12.2694    4.4365 F   0  0  0  0  0  0  0  0  0  0  0  0
   23.3797   14.4999    4.8112 C   0  0  0  0  0  0  0  0  0  0  0  0
   23.2211   14.8670    3.7226 N   0  0  0  0  0  0  0  0  0  0  0  0
   23.3860   13.0441   13.0926 C   0  0  0  0  0  0  0  0  0  0  0  0
   23.5192   11.7243   12.3315 C   0  0  0  0  0  0  0  0  0  0  0  0
   22.6191   10.7683   12.9264 O   0  0  0  0  0  0  0  0  0  0  0  0
   22.8938   10.5903   13.8395 H   0  0  0  0  0  0  0  0  0  0  0  0
   24.9430   11.1703   12.2475 C   0  0  0  0  0  0  0  0  0  0  0  0
   24.9774    9.4069   12.1230 S   0  0  0  0  0  0  0  0  0  0  0  0
   23.6308    8.9322   11.8740 O   0  0  0  0  0  0  0  0  0  0  0  0
   26.0622    9.0613   11.2200 O   0  0  0  0  0  0  0  0  0  0  0  0
   25.4352    8.8742   13.7548 C   0  0  0  0  0  0  0  0  0  0  0  0
   25.1304    9.6779   14.8591 C   0  0  0  0  0  0  0  0  0  0  0  0
   25.5057    9.2556   16.1349 C   0  0  0  0  0  0  0  0  0  0  0  0
   26.1846    8.0500   16.2898 C   0  0  0  0  0  0  0  0  0  0  0  0
   26.5431    7.6500   17.5163 F   0  0  0  0  0  0  0  0  0  0  0  0
   26.5018    7.2561   15.1912 C   0  0  0  0  0  0  0  0  0  0  0  0
   26.1309    7.6694   13.9113 C   0  0  0  0  0  0  0  0  0  0  0  0
 18 17  1  0
 18 19  1  0
 18 21  1  0
 21 22  1  0
 22 23  2  0
 22 24  2  0
 22 25  1  0
 25 26  2  0
 26 27  1  0
 27 28  2  0
 28 29  1  0
 28 30  1  0
 30 31  2  0
 18  1  1  0
  1  2  2  0
  1  3  1  0
  3  5  1  0
  5  6  2  0
  6  7  1  0
  7  8  2  0
  8 15  1  0
 15 16  3  0
  8  9  1  0
  9 11  1  0
 11 12  1  0
 11 13  1  0
 11 14  1  0
  9 10  2  0
 31 25  1  0
 10  5  1  0
 19 20  1  0
  3  4  1  0
M  END
> <minimizedAffinity>
21.69693

> <CNNscore>
0.3232662678

> <CNNaffinity>
5.0043072701

> <CNN_VS>
1.6177237034

> <CNNaffinity_variance>
0.1631530672

$$$$
