


 28 31  0  0  0  0  0  0  0  0999 V2000
   26.3388   30.5919   26.7674 C   0  0  0  0  0  0  0  0  0  0  0  0
   26.0550   31.9414   26.6515 C   0  0  0  0  0  0  0  0  0  0  0  0
   25.0716   32.4288   27.4799 C   0  0  0  0  0  0  0  0  0  0  0  0
   24.4051   31.6693   28.3629 N   0  0  0  0  0  0  0  0  0  0  0  0
   24.7501   30.3765   28.3930 C   0  0  0  0  0  0  0  0  0  0  0  0
   25.6905   29.7952   27.6406 N   0  0  0  0  0  0  0  0  0  0  0  0
   26.0115   28.1019   24.8266 C   0  0  0  0  0  0  0  0  0  0  0  0
   27.2604   28.8648   25.1505 C   0  0  0  0  0  0  0  0  0  0  0  0
   27.3732   29.9418   25.9527 C   0  0  0  0  0  0  0  0  0  0  0  0
   29.0132   30.5322   26.0200 S   0  0  0  0  0  0  0  0  0  0  0  0
   29.5667   29.2650   24.9243 C   0  0  0  0  0  0  0  0  0  0  0  0
   30.7256   29.1493   24.5620 O   0  0  0  0  0  0  0  0  0  0  0  0
   28.4736   28.4865   24.5788 N   0  0  0  0  0  0  0  0  0  0  0  0
   28.6220   27.3589   23.6856 C   0  0  0  0  0  0  0  0  0  0  0  0
   24.0589   29.5547   29.2669 N   0  0  0  0  0  0  0  0  0  0  0  0
   23.5170   28.4674   28.8144 C   0  0  0  0  0  0  0  0  0  0  0  0
   23.5372   27.9763   27.4056 C   0  0  0  0  0  0  0  0  0  0  0  0
   22.9843   26.7963   27.0978 C   0  0  0  0  0  0  0  0  0  0  0  0
   22.3462   25.9007   28.0499 C   0  0  0  0  0  0  0  0  0  0  0  0
   22.2449   26.3199   29.3248 C   0  0  0  0  0  0  0  0  0  0  0  0
   22.7640   27.6243   29.8424 C   0  0  0  0  0  0  0  0  0  0  0  0
   21.8530   24.6709   27.6039 N   0  0  0  0  0  0  0  0  0  0  0  0
   22.5364   23.8738   26.5586 C   0  0  0  0  0  0  0  0  0  0  0  0
   22.1962   22.3724   26.6674 C   0  0  0  0  0  0  0  0  0  0  0  0
   20.7635   22.0484   26.5564 N   0  0  0  0  0  0  0  0  0  0  0  0
   19.9316   23.1631   27.0475 C   0  0  0  0  0  0  0  0  0  0  0  0
   20.6012   24.0604   28.1112 C   0  0  0  0  0  0  0  0  0  0  0  0
   20.5659   21.2150   27.1102 H   0  0  0  0  0  0  0  0  0  0  0  0
  7  8  1  0
  8  9  2  0
  9  1  1  0
  1  2  2  0
  2  3  1  0
  3  4  2  0
  4  5  1  0
  5 15  1  0
 15 16  2  0
 16 17  1  0
 17 18  2  0
 18 19  1  0
 19 22  1  0
 22 23  1  0
 23 24  1  0
 24 25  1  0
 25 26  1  0
 26 27  1  0
 19 20  2  0
 20 21  1  0
  5  6  2  0
  9 10  1  0
 10 11  1  0
 11 12  2  0
 11 13  1  0
 13 14  1  0
 13  8  1  0
  6  1  1  0
 21 16  1  0
 27 22  1  0
 25 28  1  0
M  END
> <minimizedAffinity>
-9.69179

> <CNNscore>
0.9742554426

> <CNNaffinity>
8.1175842285

> <CNN_VS>
7.9086008072

> <CNNaffinity_variance>
0.0283350255

$$$$



 28 31  0  0  0  0  0  0  0  0999 V2000
   28.2158   29.9118   25.8436 C   0  0  0  0  0  0  0  0  0  0  0  0
   29.5360   30.2813   26.0322 C   0  0  0  0  0  0  0  0  0  0  0  0
   30.4549   29.7060   25.1864 C   0  0  0  0  0  0  0  0  0  0  0  0
   30.1265   28.8333   24.2214 N   0  0  0  0  0  0  0  0  0  0  0  0
   28.8248   28.5374   24.1251 C   0  0  0  0  0  0  0  0  0  0  0  0
   27.8458   29.0371   24.8868 N   0  0  0  0  0  0  0  0  0  0  0  0
   25.9835   28.3111   27.4338 C   0  0  0  0  0  0  0  0  0  0  0  0
   26.1544   29.7960   27.3214 C   0  0  0  0  0  0  0  0  0  0  0  0
   27.1298   30.4574   26.6678 C   0  0  0  0  0  0  0  0  0  0  0  0
   26.9596   32.1863   26.8251 S   0  0  0  0  0  0  0  0  0  0  0  0
   25.5063   32.0034   27.8085 C   0  0  0  0  0  0  0  0  0  0  0  0
   24.8785   32.9462   28.2610 O   0  0  0  0  0  0  0  0  0  0  0  0
   25.2527   30.6489   27.9547 N   0  0  0  0  0  0  0  0  0  0  0  0
   24.1132   30.1884   28.7167 C   0  0  0  0  0  0  0  0  0  0  0  0
   28.4528   27.6132   23.1638 N   0  0  0  0  0  0  0  0  0  0  0  0
   27.8187   26.5434   23.5300 C   0  0  0  0  0  0  0  0  0  0  0  0
   27.4333   26.1628   24.9202 C   0  0  0  0  0  0  0  0  0  0  0  0
   26.7211   25.0502   25.1390 C   0  0  0  0  0  0  0  0  0  0  0  0
   26.2560   24.1408   24.1034 C   0  0  0  0  0  0  0  0  0  0  0  0
   26.6262   24.4016   22.8361 C   0  0  0  0  0  0  0  0  0  0  0  0
   27.4556   25.5712   22.4084 C   0  0  0  0  0  0  0  0  0  0  0  0
   25.4746   23.0391   24.4645 N   0  0  0  0  0  0  0  0  0  0  0  0
   25.9118   21.6438   24.2260 C   0  0  0  0  0  0  0  0  0  0  0  0
   25.2397   20.6565   25.2035 C   0  0  0  0  0  0  0  0  0  0  0  0
   23.7676   20.6369   25.1554 N   0  0  0  0  0  0  0  0  0  0  0  0
   23.2360   21.9518   24.7500 C   0  0  0  0  0  0  0  0  0  0  0  0
   24.1381   23.1570   25.0945 C   0  0  0  0  0  0  0  0  0  0  0  0
   23.4065   20.4014   26.0798 H   0  0  0  0  0  0  0  0  0  0  0  0
  7  8  1  0
  8  9  2  0
  9  1  1  0
  1  2  2  0
  2  3  1  0
  3  4  2  0
  4  5  1  0
  5 15  1  0
 15 16  2  0
 16 17  1  0
 17 18  2  0
 18 19  1  0
 19 22  1  0
 22 23  1  0
 23 24  1  0
 24 25  1  0
 25 26  1  0
 26 27  1  0
 19 20  2  0
 20 21  1  0
  5  6  2  0
  9 10  1  0
 10 11  1  0
 11 12  2  0
 11 13  1  0
 13 14  1  0
 13  8  1  0
  6  1  1  0
 21 16  1  0
 27 22  1  0
 25 28  1  0
M  END
> <minimizedAffinity>
-9.47526

> <CNNscore>
0.8960554600

> <CNNaffinity>
7.8989067078

> <CNN_VS>
7.0778584480

> <CNNaffinity_variance>
0.0855235457

$$$$



 28 31  0  0  0  0  0  0  0  0999 V2000
   26.4985   30.8496   26.9523 C   0  0  0  0  0  0  0  0  0  0  0  0
   26.1224   32.1126   27.3747 C   0  0  0  0  0  0  0  0  0  0  0  0
   25.0084   32.1781   28.1781 C   0  0  0  0  0  0  0  0  0  0  0  0
   24.3022   31.1001   28.5522 N   0  0  0  0  0  0  0  0  0  0  0  0
   24.7446   29.9263   28.0858 C   0  0  0  0  0  0  0  0  0  0  0  0
   25.8145   29.7426   27.3048 N   0  0  0  0  0  0  0  0  0  0  0  0
   27.7670   28.0835   26.0504 C   0  0  0  0  0  0  0  0  0  0  0  0
   28.2467   29.4681   25.7352 C   0  0  0  0  0  0  0  0  0  0  0  0
   27.6744   30.6323   26.1003 C   0  0  0  0  0  0  0  0  0  0  0  0
   28.5539   32.0083   25.4870 S   0  0  0  0  0  0  0  0  0  0  0  0
   29.7463   30.9635   24.7129 C   0  0  0  0  0  0  0  0  0  0  0  0
   30.6931   31.3860   24.0704 O   0  0  0  0  0  0  0  0  0  0  0  0
   29.3951   29.6472   24.9664 N   0  0  0  0  0  0  0  0  0  0  0  0
   30.1960   28.5570   24.4555 C   0  0  0  0  0  0  0  0  0  0  0  0
   24.0202   28.7953   28.4220 N   0  0  0  0  0  0  0  0  0  0  0  0
   24.0141   27.7859   27.6086 C   0  0  0  0  0  0  0  0  0  0  0  0
   24.7120   27.6919   26.2931 C   0  0  0  0  0  0  0  0  0  0  0  0
   24.6652   26.5547   25.5878 C   0  0  0  0  0  0  0  0  0  0  0  0
   23.9772   25.3428   26.0045 C   0  0  0  0  0  0  0  0  0  0  0  0
   23.2794   25.3891   27.1543 C   0  0  0  0  0  0  0  0  0  0  0  0
   23.1812   26.5834   28.0503 C   0  0  0  0  0  0  0  0  0  0  0  0
   24.0502   24.2050   25.1953 N   0  0  0  0  0  0  0  0  0  0  0  0
   23.4615   22.9062   25.5971 C   0  0  0  0  0  0  0  0  0  0  0  0
   23.1243   22.0260   24.3751 C   0  0  0  0  0  0  0  0  0  0  0  0
   24.2681   21.7039   23.5046 N   0  0  0  0  0  0  0  0  0  0  0  0
   25.2814   22.7750   23.5477 C   0  0  0  0  0  0  0  0  0  0  0  0
   24.7344   24.1804   23.8806 C   0  0  0  0  0  0  0  0  0  0  0  0
   23.9377   21.5953   22.5457 H   0  0  0  0  0  0  0  0  0  0  0  0
  7  8  1  0
  8  9  2  0
  9  1  1  0
  1  2  2  0
  2  3  1  0
  3  4  2  0
  4  5  1  0
  5 15  1  0
 15 16  2  0
 16 17  1  0
 17 18  2  0
 18 19  1  0
 19 22  1  0
 22 23  1  0
 23 24  1  0
 24 25  1  0
 25 26  1  0
 26 27  1  0
 19 20  2  0
 20 21  1  0
  5  6  2  0
  9 10  1  0
 10 11  1  0
 11 12  2  0
 11 13  1  0
 13 14  1  0
 13  8  1  0
  6  1  1  0
 21 16  1  0
 27 22  1  0
 25 28  1  0
M  END
> <minimizedAffinity>
-8.82998

> <CNNscore>
0.8733422756

> <CNNaffinity>
7.8857111931

> <CNN_VS>
6.8869247437

> <CNNaffinity_variance>
0.0211512763

$$$$



 28 31  0  0  0  0  0  0  0  0999 V2000
   26.1431   30.2072   26.8363 C   0  0  0  0  0  0  0  0  0  0  0  0
   26.1129   31.5905   26.8597 C   0  0  0  0  0  0  0  0  0  0  0  0
   25.2454   32.1643   27.7591 C   0  0  0  0  0  0  0  0  0  0  0  0
   24.4588   31.4551   28.5832 N   0  0  0  0  0  0  0  0  0  0  0  0
   24.5587   30.1247   28.4783 C   0  0  0  0  0  0  0  0  0  0  0  0
   25.3674   29.4593   27.6466 N   0  0  0  0  0  0  0  0  0  0  0  0
   29.2720   30.5693   26.4449 C   0  0  0  0  0  0  0  0  0  0  0  0
   28.3529   29.6260   25.7292 C   0  0  0  0  0  0  0  0  0  0  0  0
   27.0308   29.4636   25.9334 C   0  0  0  0  0  0  0  0  0  0  0  0
   26.3608   28.2304   24.8973 S   0  0  0  0  0  0  0  0  0  0  0  0
   27.9329   27.9304   24.1549 C   0  0  0  0  0  0  0  0  0  0  0  0
   28.1153   27.0991   23.2812 O   0  0  0  0  0  0  0  0  0  0  0  0
   28.8566   28.7785   24.7445 N   0  0  0  0  0  0  0  0  0  0  0  0
   30.2431   28.7613   24.3341 C   0  0  0  0  0  0  0  0  0  0  0  0
   23.7362   29.3600   29.2879 N   0  0  0  0  0  0  0  0  0  0  0  0
   23.2291   28.2643   28.8158 C   0  0  0  0  0  0  0  0  0  0  0  0
   23.4211   27.7069   27.4452 C   0  0  0  0  0  0  0  0  0  0  0  0
   22.8814   26.5256   27.1189 C   0  0  0  0  0  0  0  0  0  0  0  0
   22.0992   25.6899   28.0164 C   0  0  0  0  0  0  0  0  0  0  0  0
   21.8424   26.1709   29.2467 C   0  0  0  0  0  0  0  0  0  0  0  0
   22.3244   27.4869   29.7708 C   0  0  0  0  0  0  0  0  0  0  0  0
   21.6356   24.4512   27.5634 N   0  0  0  0  0  0  0  0  0  0  0  0
   20.2944   23.9290   27.9148 C   0  0  0  0  0  0  0  0  0  0  0  0
   19.7803   22.9168   26.8693 C   0  0  0  0  0  0  0  0  0  0  0  0
   20.6386   21.7364   26.6702 N   0  0  0  0  0  0  0  0  0  0  0  0
   22.0521   22.0609   26.9399 C   0  0  0  0  0  0  0  0  0  0  0  0
   22.4387   23.5391   26.7147 C   0  0  0  0  0  0  0  0  0  0  0  0
   20.5477   21.4163   25.7060 H   0  0  0  0  0  0  0  0  0  0  0  0
  7  8  1  0
  8  9  2  0
  9  1  1  0
  1  2  2  0
  2  3  1  0
  3  4  2  0
  4  5  1  0
  5 15  1  0
 15 16  2  0
 16 17  1  0
 17 18  2  0
 18 19  1  0
 19 22  1  0
 22 23  1  0
 23 24  1  0
 24 25  1  0
 25 26  1  0
 26 27  1  0
 19 20  2  0
 20 21  1  0
  5  6  2  0
  9 10  1  0
 10 11  1  0
 11 12  2  0
 11 13  1  0
 13 14  1  0
 13  8  1  0
  6  1  1  0
 21 16  1  0
 27 22  1  0
 25 28  1  0
M  END
> <minimizedAffinity>
-9.85272

> <CNNscore>
0.8525220156

> <CNNaffinity>
7.9035897255

> <CNN_VS>
6.7379841805

> <CNNaffinity_variance>
0.0828773752

$$$$



 28 31  0  0  0  0  0  0  0  0999 V2000
   28.0783   29.2791   25.5704 C   0  0  0  0  0  0  0  0  0  0  0  0
   29.3836   29.7246   25.6842 C   0  0  0  0  0  0  0  0  0  0  0  0
   30.2978   29.1514   24.8319 C   0  0  0  0  0  0  0  0  0  0  0  0
   29.9785   28.2121   23.9283 N   0  0  0  0  0  0  0  0  0  0  0  0
   28.6915   27.8461   23.9019 C   0  0  0  0  0  0  0  0  0  0  0  0
   27.7179   28.3362   24.6768 N   0  0  0  0  0  0  0  0  0  0  0  0
   27.4682   32.3160   26.2627 C   0  0  0  0  0  0  0  0  0  0  0  0
   26.7441   31.0941   26.7418 C   0  0  0  0  0  0  0  0  0  0  0  0
   26.9981   29.8130   26.4096 C   0  0  0  0  0  0  0  0  0  0  0  0
   25.8852   28.7106   27.1771 S   0  0  0  0  0  0  0  0  0  0  0  0
   25.0495   30.0383   27.9843 C   0  0  0  0  0  0  0  0  0  0  0  0
   24.0934   29.8789   28.7245 O   0  0  0  0  0  0  0  0  0  0  0  0
   25.6653   31.2233   27.6142 N   0  0  0  0  0  0  0  0  0  0  0  0
   25.1951   32.4916   28.1257 C   0  0  0  0  0  0  0  0  0  0  0  0
   28.3314   26.8535   23.0065 N   0  0  0  0  0  0  0  0  0  0  0  0
   27.4934   25.9387   23.3829 C   0  0  0  0  0  0  0  0  0  0  0  0
   26.8498   25.8111   24.7228 C   0  0  0  0  0  0  0  0  0  0  0  0
   25.9511   24.8440   24.9468 C   0  0  0  0  0  0  0  0  0  0  0  0
   25.5136   23.8678   23.9612 C   0  0  0  0  0  0  0  0  0  0  0  0
   26.1057   23.8971   22.7531 C   0  0  0  0  0  0  0  0  0  0  0  0
   27.1589   24.8754   22.3377 C   0  0  0  0  0  0  0  0  0  0  0  0
   24.5277   22.9405   24.3115 N   0  0  0  0  0  0  0  0  0  0  0  0
   23.9914   22.8342   25.6885 C   0  0  0  0  0  0  0  0  0  0  0  0
   22.5707   22.2317   25.7065 C   0  0  0  0  0  0  0  0  0  0  0  0
   22.4573   20.8856   25.1193 N   0  0  0  0  0  0  0  0  0  0  0  0
   23.4714   20.6822   24.0676 C   0  0  0  0  0  0  0  0  0  0  0  0
   23.9438   21.9690   23.3563 C   0  0  0  0  0  0  0  0  0  0  0  0
   21.5282   20.7758   24.7129 H   0  0  0  0  0  0  0  0  0  0  0  0
  7  8  1  0
  8  9  2  0
  9  1  1  0
  1  2  2  0
  2  3  1  0
  3  4  2  0
  4  5  1  0
  5 15  1  0
 15 16  2  0
 16 17  1  0
 17 18  2  0
 18 19  1  0
 19 22  1  0
 22 23  1  0
 23 24  1  0
 24 25  1  0
 25 26  1  0
 26 27  1  0
 19 20  2  0
 20 21  1  0
  5  6  2  0
  9 10  1  0
 10 11  1  0
 11 12  2  0
 11 13  1  0
 13 14  1  0
 13  8  1  0
  6  1  1  0
 21 16  1  0
 27 22  1  0
 25 28  1  0
M  END
> <minimizedAffinity>
-8.93153

> <CNNscore>
0.7326306701

> <CNNaffinity>
7.7753109932

> <CNN_VS>
5.6964311600

> <CNNaffinity_variance>
0.1713536978

$$$$



 28 31  0  0  0  0  0  0  0  0999 V2000
   24.1370   28.8236   28.2724 C   0  0  0  0  0  0  0  0  0  0  0  0
   24.0226   30.1057   28.7806 C   0  0  0  0  0  0  0  0  0  0  0  0
   25.0188   30.9879   28.4339 C   0  0  0  0  0  0  0  0  0  0  0  0
   26.0567   30.6598   27.6492 N   0  0  0  0  0  0  0  0  0  0  0  0
   26.0781   29.3943   27.2144 C   0  0  0  0  0  0  0  0  0  0  0  0
   25.1652   28.4545   27.4824 N   0  0  0  0  0  0  0  0  0  0  0  0
   23.1932   26.4648   26.3700 C   0  0  0  0  0  0  0  0  0  0  0  0
   22.7014   26.7965   27.7465 C   0  0  0  0  0  0  0  0  0  0  0  0
   23.1389   27.7837   28.5528 C   0  0  0  0  0  0  0  0  0  0  0  0
   22.3059   27.7870   30.0855 S   0  0  0  0  0  0  0  0  0  0  0  0
   21.3225   26.4015   29.6101 C   0  0  0  0  0  0  0  0  0  0  0  0
   20.4795   25.8967   30.3326 O   0  0  0  0  0  0  0  0  0  0  0  0
   21.6949   26.0284   28.3285 N   0  0  0  0  0  0  0  0  0  0  0  0
   21.0537   24.9133   27.6676 C   0  0  0  0  0  0  0  0  0  0  0  0
   27.1531   29.0097   26.4312 N   0  0  0  0  0  0  0  0  0  0  0  0
   27.0551   27.9375   25.7090 C   0  0  0  0  0  0  0  0  0  0  0  0
   25.8810   27.0210   25.6220 C   0  0  0  0  0  0  0  0  0  0  0  0
   25.9024   25.9803   24.7796 C   0  0  0  0  0  0  0  0  0  0  0  0
   27.0063   25.6481   23.8926 C   0  0  0  0  0  0  0  0  0  0  0  0
   28.1163   26.4048   23.9725 C   0  0  0  0  0  0  0  0  0  0  0  0
   28.2901   27.5788   24.8838 C   0  0  0  0  0  0  0  0  0  0  0  0
   26.8786   24.5606   23.0234 N   0  0  0  0  0  0  0  0  0  0  0  0
   26.6434   23.1805   23.5082 C   0  0  0  0  0  0  0  0  0  0  0  0
   25.9502   22.3073   22.4410 C   0  0  0  0  0  0  0  0  0  0  0  0
   26.6852   22.1742   21.1714 N   0  0  0  0  0  0  0  0  0  0  0  0
   27.5084   23.3702   20.9111 C   0  0  0  0  0  0  0  0  0  0  0  0
   26.9862   24.6759   21.5496 C   0  0  0  0  0  0  0  0  0  0  0  0
   26.0171   22.0565   20.4097 H   0  0  0  0  0  0  0  0  0  0  0  0
  7  8  1  0
  8  9  2  0
  9  1  1  0
  1  2  2  0
  2  3  1  0
  3  4  2  0
  4  5  1  0
  5 15  1  0
 15 16  2  0
 16 17  1  0
 17 18  2  0
 18 19  1  0
 19 22  1  0
 22 23  1  0
 23 24  1  0
 24 25  1  0
 25 26  1  0
 26 27  1  0
 19 20  2  0
 20 21  1  0
  5  6  2  0
  9 10  1  0
 10 11  1  0
 11 12  2  0
 11 13  1  0
 13 14  1  0
 13  8  1  0
  6  1  1  0
 21 16  1  0
 27 22  1  0
 25 28  1  0
M  END
> <minimizedAffinity>
-9.03983

> <CNNscore>
0.5090078712

> <CNNaffinity>
7.1707267761

> <CNN_VS>
3.6499564648

> <CNNaffinity_variance>
0.0273901019

$$$$



 28 31  0  0  0  0  0  0  0  0999 V2000
   26.1363   29.6858   27.1021 C   0  0  0  0  0  0  0  0  0  0  0  0
   25.8047   30.8865   27.7050 C   0  0  0  0  0  0  0  0  0  0  0  0
   24.6657   30.8855   28.4753 C   0  0  0  0  0  0  0  0  0  0  0  0
   23.8959   29.8012   28.6555 N   0  0  0  0  0  0  0  0  0  0  0  0
   24.2996   28.6918   28.0251 C   0  0  0  0  0  0  0  0  0  0  0  0
   25.3882   28.5750   27.2570 N   0  0  0  0  0  0  0  0  0  0  0  0
   28.2656   31.9137   26.3430 C   0  0  0  0  0  0  0  0  0  0  0  0
   28.2271   30.4819   25.9015 C   0  0  0  0  0  0  0  0  0  0  0  0
   27.3318   29.5412   26.2619 C   0  0  0  0  0  0  0  0  0  0  0  0
   27.6851   27.9961   25.5334 S   0  0  0  0  0  0  0  0  0  0  0  0
   29.0959   28.6543   24.7034 C   0  0  0  0  0  0  0  0  0  0  0  0
   29.8180   27.9915   23.9775 O   0  0  0  0  0  0  0  0  0  0  0  0
   29.2061   29.9946   25.0379 N   0  0  0  0  0  0  0  0  0  0  0  0
   30.2769   30.8047   24.5010 C   0  0  0  0  0  0  0  0  0  0  0  0
   23.5106   27.5621   28.1590 N   0  0  0  0  0  0  0  0  0  0  0  0
   23.6203   26.6096   27.2864 C   0  0  0  0  0  0  0  0  0  0  0  0
   24.5223   26.5836   26.0982 C   0  0  0  0  0  0  0  0  0  0  0  0
   24.5720   25.4976   25.3164 C   0  0  0  0  0  0  0  0  0  0  0  0
   23.8043   24.2807   25.5299 C   0  0  0  0  0  0  0  0  0  0  0  0
   22.9286   24.2703   26.5517 C   0  0  0  0  0  0  0  0  0  0  0  0
   22.7057   25.4046   27.5017 C   0  0  0  0  0  0  0  0  0  0  0  0
   23.9891   23.1977   24.6652 N   0  0  0  0  0  0  0  0  0  0  0  0
   23.1653   21.9689   24.7450 C   0  0  0  0  0  0  0  0  0  0  0  0
   23.1145   21.2231   23.3948 C   0  0  0  0  0  0  0  0  0  0  0  0
   24.4233   20.8035   22.8650 N   0  0  0  0  0  0  0  0  0  0  0  0
   25.4900   21.7206   23.3085 C   0  0  0  0  0  0  0  0  0  0  0  0
   25.0292   23.1636   23.6097 C   0  0  0  0  0  0  0  0  0  0  0  0
   24.3861   20.8027   21.8457 H   0  0  0  0  0  0  0  0  0  0  0  0
  7  8  1  0
  8  9  2  0
  9  1  1  0
  1  2  2  0
  2  3  1  0
  3  4  2  0
  4  5  1  0
  5 15  1  0
 15 16  2  0
 16 17  1  0
 17 18  2  0
 18 19  1  0
 19 22  1  0
 22 23  1  0
 23 24  1  0
 24 25  1  0
 25 26  1  0
 26 27  1  0
 19 20  2  0
 20 21  1  0
  5  6  2  0
  9 10  1  0
 10 11  1  0
 11 12  2  0
 11 13  1  0
 13 14  1  0
 13  8  1  0
  6  1  1  0
 21 16  1  0
 27 22  1  0
 25 28  1  0
M  END
> <minimizedAffinity>
-8.73184

> <CNNscore>
0.4385833740

> <CNNaffinity>
7.6068820953

> <CNN_VS>
3.3362519741

> <CNNaffinity_variance>
0.0642524809

$$$$



 28 31  0  0  0  0  0  0  0  0999 V2000
   26.2098   29.2663   26.9651 C   0  0  0  0  0  0  0  0  0  0  0  0
   25.7820   30.3781   27.6694 C   0  0  0  0  0  0  0  0  0  0  0  0
   24.6197   30.2312   28.3893 C   0  0  0  0  0  0  0  0  0  0  0  0
   23.9150   29.0900   28.4308 N   0  0  0  0  0  0  0  0  0  0  0  0
   24.4098   28.0760   27.7110 C   0  0  0  0  0  0  0  0  0  0  0  0
   25.5292   28.1027   26.9797 N   0  0  0  0  0  0  0  0  0  0  0  0
   28.1632   31.7106   26.4327 C   0  0  0  0  0  0  0  0  0  0  0  0
   28.2623   30.3135   25.8988 C   0  0  0  0  0  0  0  0  0  0  0  0
   27.4400   29.2792   26.1635 C   0  0  0  0  0  0  0  0  0  0  0  0
   27.9484   27.8216   25.3512 S   0  0  0  0  0  0  0  0  0  0  0  0
   29.3236   28.6499   24.6197 C   0  0  0  0  0  0  0  0  0  0  0  0
   30.1233   28.1002   23.8808 O   0  0  0  0  0  0  0  0  0  0  0  0
   29.3072   29.9691   25.0437 N   0  0  0  0  0  0  0  0  0  0  0  0
   30.3213   30.9002   24.6013 C   0  0  0  0  0  0  0  0  0  0  0  0
   23.6903   26.8932   27.7012 N   0  0  0  0  0  0  0  0  0  0  0  0
   22.8862   26.6364   28.6852 C   0  0  0  0  0  0  0  0  0  0  0  0
   22.6378   27.4890   29.8841 C   0  0  0  0  0  0  0  0  0  0  0  0
   21.7262   27.1204   30.7931 C   0  0  0  0  0  0  0  0  0  0  0  0
   20.9096   25.9192   30.7154 C   0  0  0  0  0  0  0  0  0  0  0  0
   21.1341   25.0813   29.6865 C   0  0  0  0  0  0  0  0  0  0  0  0
   22.1398   25.3058   28.6015 C   0  0  0  0  0  0  0  0  0  0  0  0
   19.9559   25.6780   31.7088 N   0  0  0  0  0  0  0  0  0  0  0  0
   18.7261   24.8921   31.4541 C   0  0  0  0  0  0  0  0  0  0  0  0
   18.1724   24.2571   32.7472 C   0  0  0  0  0  0  0  0  0  0  0  0
   17.8321   25.2133   33.8148 N   0  0  0  0  0  0  0  0  0  0  0  0
   18.6819   26.4164   33.7354 C   0  0  0  0  0  0  0  0  0  0  0  0
   20.0689   26.1967   33.0927 C   0  0  0  0  0  0  0  0  0  0  0  0
   17.9710   24.7656   34.7207 H   0  0  0  0  0  0  0  0  0  0  0  0
  7  8  1  0
  8  9  2  0
  9  1  1  0
  1  2  2  0
  2  3  1  0
  3  4  2  0
  4  5  1  0
  5 15  1  0
 15 16  2  0
 16 17  1  0
 17 18  2  0
 18 19  1  0
 19 22  1  0
 22 23  1  0
 23 24  1  0
 24 25  1  0
 25 26  1  0
 26 27  1  0
 19 20  2  0
 20 21  1  0
  5  6  2  0
  9 10  1  0
 10 11  1  0
 11 12  2  0
 11 13  1  0
 13 14  1  0
 13  8  1  0
  6  1  1  0
 21 16  1  0
 27 22  1  0
 25 28  1  0
M  END
> <minimizedAffinity>
-9.91687

> <CNNscore>
0.4366948903

> <CNNaffinity>
7.1850132942

> <CNN_VS>
3.1376585960

> <CNNaffinity_variance>
0.0021421516

$$$$



 28 31  0  0  0  0  0  0  0  0999 V2000
   26.1728   28.5762   26.0151 C   0  0  0  0  0  0  0  0  0  0  0  0
   26.7369   29.8202   25.7930 C   0  0  0  0  0  0  0  0  0  0  0  0
   26.3486   30.8249   26.6479 C   0  0  0  0  0  0  0  0  0  0  0  0
   25.4759   30.6456   27.6514 N   0  0  0  0  0  0  0  0  0  0  0  0
   24.9836   29.4076   27.7780 C   0  0  0  0  0  0  0  0  0  0  0  0
   25.2913   28.3561   27.0111 N   0  0  0  0  0  0  0  0  0  0  0  0
   28.1039   28.4650   23.4986 C   0  0  0  0  0  0  0  0  0  0  0  0
   27.2959   27.3522   24.0949 C   0  0  0  0  0  0  0  0  0  0  0  0
   26.5064   27.4114   25.1855 C   0  0  0  0  0  0  0  0  0  0  0  0
   25.7769   25.8678   25.5432 S   0  0  0  0  0  0  0  0  0  0  0  0
   26.5676   25.1170   24.1563 C   0  0  0  0  0  0  0  0  0  0  0  0
   26.4320   23.9414   23.8610 O   0  0  0  0  0  0  0  0  0  0  0  0
   27.3324   26.0827   23.5216 N   0  0  0  0  0  0  0  0  0  0  0  0
   28.1002   25.7584   22.3398 C   0  0  0  0  0  0  0  0  0  0  0  0
   24.0531   29.1933   28.7805 N   0  0  0  0  0  0  0  0  0  0  0  0
   23.2934   28.1445   28.7216 C   0  0  0  0  0  0  0  0  0  0  0  0
   23.2896   27.1006   27.6557 C   0  0  0  0  0  0  0  0  0  0  0  0
   22.4864   26.0345   27.7626 C   0  0  0  0  0  0  0  0  0  0  0  0
   21.5838   25.7787   28.8742 C   0  0  0  0  0  0  0  0  0  0  0  0
   21.5007   26.7172   29.8351 C   0  0  0  0  0  0  0  0  0  0  0  0
   22.2872   27.9899   29.8611 C   0  0  0  0  0  0  0  0  0  0  0  0
   20.8357   24.5977   28.8868 N   0  0  0  0  0  0  0  0  0  0  0  0
   20.7522   23.7239   30.0803 C   0  0  0  0  0  0  0  0  0  0  0  0
   19.4624   22.8764   30.0824 C   0  0  0  0  0  0  0  0  0  0  0  0
   19.2961   21.9918   28.9164 N   0  0  0  0  0  0  0  0  0  0  0  0
   19.9588   22.5581   27.7264 C   0  0  0  0  0  0  0  0  0  0  0  0
   20.0787   24.0978   27.7146 C   0  0  0  0  0  0  0  0  0  0  0  0
   18.3012   21.8787   28.7224 H   0  0  0  0  0  0  0  0  0  0  0  0
  7  8  1  0
  8  9  2  0
  9  1  1  0
  1  2  2  0
  2  3  1  0
  3  4  2  0
  4  5  1  0
  5 15  1  0
 15 16  2  0
 16 17  1  0
 17 18  2  0
 18 19  1  0
 19 22  1  0
 22 23  1  0
 23 24  1  0
 24 25  1  0
 25 26  1  0
 26 27  1  0
 19 20  2  0
 20 21  1  0
  5  6  2  0
  9 10  1  0
 10 11  1  0
 11 12  2  0
 11 13  1  0
 13 14  1  0
 13  8  1  0
  6  1  1  0
 21 16  1  0
 27 22  1  0
 25 28  1  0
M  END
> <minimizedAffinity>
-8.45251

> <CNNscore>
0.2832991183

> <CNNaffinity>
7.2122840881

> <CNN_VS>
2.0432336330

> <CNNaffinity_variance>
0.1094376966

$$$$
