


 35 36  0  0  0  0  0  0  0  0999 V2000
   13.0143    3.3498   39.0071 C   0  0  0  0  0  0  0  0  0  0  0  0
   11.5303    3.4638   39.3393 C   0  0  0  0  0  0  0  0  0  0  0  0
   10.9832    4.5654   39.3553 O   0  0  0  0  0  0  0  0  0  0  0  0
   10.8104    2.1966   39.7857 C   0  0  0  0  0  0  0  0  0  0  0  0
   10.8210    1.1948   38.7888 O   0  0  0  0  0  0  0  0  0  0  0  0
   11.5572    1.6821   41.0246 C   0  0  0  0  0  0  0  0  0  0  0  0
   11.4577    2.6163   42.1097 O   0  0  0  0  0  0  0  0  0  0  0  0
   13.0615    1.4779   40.7494 C   0  0  0  0  0  0  0  0  0  0  0  0
   13.7530    2.7791   40.2648 C   0  0  0  0  0  0  0  0  0  0  0  0
   13.6872    3.7646   41.3154 O   0  0  0  0  0  0  0  0  0  0  0  0
   11.7378    0.9609   38.5752 H   0  0  0  0  0  0  0  0  0  0  0  0
   11.8801    3.4520   41.8567 H   0  0  0  0  0  0  0  0  0  0  0  0
   14.1406    3.4275   42.1038 H   0  0  0  0  0  0  0  0  0  0  0  0
   13.2648    2.5560   37.7049 C   0  0  0  0  0  0  0  0  0  0  0  0
   17.1702    2.8728   35.8587 C   0  0  0  0  0  0  0  0  0  0  0  0
   16.2103    2.0021   35.3505 C   0  0  0  0  0  0  0  0  0  0  0  0
   14.9528    1.9113   35.9583 C   0  0  0  0  0  0  0  0  0  0  0  0
   14.6278    2.6972   37.0756 C   0  0  0  0  0  0  0  0  0  0  0  0
   15.6108    3.5447   37.5991 C   0  0  0  0  0  0  0  0  0  0  0  0
   16.8646    3.6339   36.9888 C   0  0  0  0  0  0  0  0  0  0  0  0
   19.3914    2.0494   35.6082 C   0  0  0  0  0  0  0  0  0  0  0  0
   18.4261    3.0691   35.3625 O   0  0  0  0  0  0  0  0  0  0  0  0
   15.2735    2.5748   39.9174 C   0  0  0  0  0  0  0  0  0  0  0  0
   16.3862    3.0584   41.0107 N   0  0  0  0  0  0  0  0  0  0  0  0
   15.9894    2.2870   42.2648 C   0  0  0  0  0  0  0  0  0  0  0  0
   16.1517    4.5469   41.2631 C   0  0  0  0  0  0  0  0  0  0  0  0
   17.7692    2.7696   40.4238 C   0  0  0  0  0  0  0  0  0  0  0  0
   18.9840    2.2781   41.2812 N   0  0  0  0  0  0  0  0  0  0  0  0
   18.9367    0.7792   41.4936 C   0  0  0  0  0  0  0  0  0  0  0  0
   20.1713    2.5334   40.2894 C   0  0  0  0  0  0  0  0  0  0  0  0
   19.1567    3.1297   42.5173 C   0  0  0  0  0  0  0  0  0  0  0  0
   20.3577    3.0058   43.4428 N   0  0  0  0  0  0  0  0  0  0  0  0
   21.3456    4.1756   43.3733 C   0  0  0  0  0  0  0  0  0  0  0  0
   21.1695    1.7639   42.9256 C   0  0  0  0  0  0  0  0  0  0  0  0
   20.0675    2.6954   44.9078 C   0  0  0  0  0  0  0  0  0  0  0  0
 21 22  1  0
 22 15  1  0
 15 16  2  0
 16 17  1  0
 17 18  2  0
 18 14  1  0
  1 14  1  0
  1  2  1  0
  2  3  2  0
  2  4  1  0
  4  5  1  0
  4  6  1  0
  6  7  1  0
  6  8  1  0
  8  9  1  0
  9 10  1  0
  9 23  1  0
 23 24  1  0
 24 25  1  0
 24 26  1  0
 24 27  1  0
 27 28  1  0
 28 29  1  0
 28 30  1  0
 28 31  1  0
 31 32  1  0
 32 33  1  0
 32 34  1  0
 32 35  1  0
 18 19  1  0
 19 20  2  0
 20 15  1  0
  9  1  1  0
  5 11  1  0
  7 12  1  0
 10 13  1  0
M  CHG 1  24   1
M  CHG 1  28   1
M  CHG 1  32   1
M  END
> <minimizedAffinity>
-7.27161

> <CNNscore>
0.1890438050

> <CNNaffinity>
4.7282814980

> <CNN_VS>
0.8938523531

> <CNNaffinity_variance>
1.0101484060

$$$$



 35 36  0  0  0  0  0  0  0  0999 V2000
   12.9531    3.3940   39.0436 C   0  0  0  0  0  0  0  0  0  0  0  0
   11.4770    3.4802   39.4165 C   0  0  0  0  0  0  0  0  0  0  0  0
   10.9174    4.5739   39.4769 O   0  0  0  0  0  0  0  0  0  0  0  0
   10.7840    2.1923   39.8461 C   0  0  0  0  0  0  0  0  0  0  0  0
   10.7807    1.2183   38.8219 O   0  0  0  0  0  0  0  0  0  0  0  0
   11.5686    1.6537   41.0508 C   0  0  0  0  0  0  0  0  0  0  0  0
   11.4860    2.5566   42.1635 O   0  0  0  0  0  0  0  0  0  0  0  0
   13.0677    1.4760   40.7318 C   0  0  0  0  0  0  0  0  0  0  0  0
   13.7309    2.7986   40.2659 C   0  0  0  0  0  0  0  0  0  0  0  0
   13.6804    3.7542   41.3446 O   0  0  0  0  0  0  0  0  0  0  0  0
   11.6944    1.0018   38.5786 H   0  0  0  0  0  0  0  0  0  0  0  0
   11.8918    3.4041   41.9229 H   0  0  0  0  0  0  0  0  0  0  0  0
   14.1581    3.4014   42.1116 H   0  0  0  0  0  0  0  0  0  0  0  0
   13.1793    2.6392   37.7140 C   0  0  0  0  0  0  0  0  0  0  0  0
   17.1065    2.8664   35.9010 C   0  0  0  0  0  0  0  0  0  0  0  0
   16.1362    2.0064   35.3941 C   0  0  0  0  0  0  0  0  0  0  0  0
   14.8718    1.9447   35.9911 C   0  0  0  0  0  0  0  0  0  0  0  0
   14.5503    2.7493   37.0960 C   0  0  0  0  0  0  0  0  0  0  0  0
   15.5431    3.5859   37.6187 C   0  0  0  0  0  0  0  0  0  0  0  0
   16.8038    3.6461   37.0191 C   0  0  0  0  0  0  0  0  0  0  0  0
   19.2792    1.9479   35.5687 C   0  0  0  0  0  0  0  0  0  0  0  0
   18.3701    3.0350   35.4143 O   0  0  0  0  0  0  0  0  0  0  0  0
   15.2441    2.6231   39.8742 C   0  0  0  0  0  0  0  0  0  0  0  0
   16.3728    2.8653   41.0295 N   0  0  0  0  0  0  0  0  0  0  0  0
   15.7104    2.2937   42.2784 C   0  0  0  0  0  0  0  0  0  0  0  0
   16.5184    4.3759   41.2067 C   0  0  0  0  0  0  0  0  0  0  0  0
   17.6673    2.1982   40.5605 C   0  0  0  0  0  0  0  0  0  0  0  0
   18.8313    1.7989   41.5290 N   0  0  0  0  0  0  0  0  0  0  0  0
   19.4705    3.0215   42.1542 C   0  0  0  0  0  0  0  0  0  0  0  0
   18.0326    1.0963   42.6809 C   0  0  0  0  0  0  0  0  0  0  0  0
   19.7664    0.8082   40.8754 C   0  0  0  0  0  0  0  0  0  0  0  0
   20.7497    1.1996   39.7827 N   0  0  0  0  0  0  0  0  0  0  0  0
   20.9581    0.1389   38.6961 C   0  0  0  0  0  0  0  0  0  0  0  0
   22.1465    1.3285   40.4907 C   0  0  0  0  0  0  0  0  0  0  0  0
   20.5298    2.5520   39.1121 C   0  0  0  0  0  0  0  0  0  0  0  0
 21 22  1  0
 22 15  1  0
 15 16  2  0
 16 17  1  0
 17 18  2  0
 18 14  1  0
  1 14  1  0
  1  2  1  0
  2  3  2  0
  2  4  1  0
  4  5  1  0
  4  6  1  0
  6  7  1  0
  6  8  1  0
  8  9  1  0
  9 10  1  0
  9 23  1  0
 23 24  1  0
 24 25  1  0
 24 26  1  0
 24 27  1  0
 27 28  1  0
 28 29  1  0
 28 30  1  0
 28 31  1  0
 31 32  1  0
 32 33  1  0
 32 34  1  0
 32 35  1  0
 18 19  1  0
 19 20  2  0
 20 15  1  0
  9  1  1  0
  5 11  1  0
  7 12  1  0
 10 13  1  0
M  CHG 1  24   1
M  CHG 1  28   1
M  CHG 1  32   1
M  END
> <minimizedAffinity>
-7.54292

> <CNNscore>
0.1663042307

> <CNNaffinity>
4.6906723976

> <CNN_VS>
0.7800786495

> <CNNaffinity_variance>
1.2650315762

$$$$



 35 36  0  0  0  0  0  0  0  0999 V2000
   13.0147    3.3342   39.0169 C   0  0  0  0  0  0  0  0  0  0  0  0
   11.5285    3.4463   39.3398 C   0  0  0  0  0  0  0  0  0  0  0  0
   10.9804    4.5474   39.3542 O   0  0  0  0  0  0  0  0  0  0  0  0
   10.8070    2.1777   39.7794 C   0  0  0  0  0  0  0  0  0  0  0  0
   10.8248    1.1776   38.7808 O   0  0  0  0  0  0  0  0  0  0  0  0
   11.5462    1.6617   41.0221 C   0  0  0  0  0  0  0  0  0  0  0  0
   11.4389    2.5939   42.1082 O   0  0  0  0  0  0  0  0  0  0  0  0
   13.0525    1.4593   40.7562 C   0  0  0  0  0  0  0  0  0  0  0  0
   13.7459    2.7620   40.2783 C   0  0  0  0  0  0  0  0  0  0  0  0
   13.6725    3.7455   41.3302 O   0  0  0  0  0  0  0  0  0  0  0  0
   11.7431    0.9449   38.5727 H   0  0  0  0  0  0  0  0  0  0  0  0
   11.8623    3.4304   41.8593 H   0  0  0  0  0  0  0  0  0  0  0  0
   14.1212    3.4075   42.1209 H   0  0  0  0  0  0  0  0  0  0  0  0
   13.2742    2.5428   37.7149 C   0  0  0  0  0  0  0  0  0  0  0  0
   17.2242    3.0016   35.9977 C   0  0  0  0  0  0  0  0  0  0  0  0
   16.8156    3.7938   37.0671 C   0  0  0  0  0  0  0  0  0  0  0  0
   15.5360    3.6332   37.6110 C   0  0  0  0  0  0  0  0  0  0  0  0
   14.6474    2.6709   37.1052 C   0  0  0  0  0  0  0  0  0  0  0  0
   15.0552    1.9027   36.0088 C   0  0  0  0  0  0  0  0  0  0  0  0
   16.3340    2.0646   35.4694 C   0  0  0  0  0  0  0  0  0  0  0  0
   19.2889    1.9086   35.5320 C   0  0  0  0  0  0  0  0  0  0  0  0
   18.4400    3.0437   35.3798 O   0  0  0  0  0  0  0  0  0  0  0  0
   15.2687    2.5596   39.9402 C   0  0  0  0  0  0  0  0  0  0  0  0
   16.3758    3.1400   40.9913 N   0  0  0  0  0  0  0  0  0  0  0  0
   16.0068    2.4412   42.2955 C   0  0  0  0  0  0  0  0  0  0  0  0
   16.1053    4.6354   41.1496 C   0  0  0  0  0  0  0  0  0  0  0  0
   17.7620    2.8485   40.4131 C   0  0  0  0  0  0  0  0  0  0  0  0
   18.8452    1.9976   41.1579 N   0  0  0  0  0  0  0  0  0  0  0  0
   20.1012    1.8540   40.3236 C   0  0  0  0  0  0  0  0  0  0  0  0
   19.2214    2.9602   42.3369 C   0  0  0  0  0  0  0  0  0  0  0  0
   18.2508    0.7218   41.7075 C   0  0  0  0  0  0  0  0  0  0  0  0
   19.0920   -0.4971   42.0547 N   0  0  0  0  0  0  0  0  0  0  0  0
   19.3760   -1.4379   40.8785 C   0  0  0  0  0  0  0  0  0  0  0  0
   18.2216   -1.3483   43.0481 C   0  0  0  0  0  0  0  0  0  0  0  0
   20.3958   -0.2419   42.8043 C   0  0  0  0  0  0  0  0  0  0  0  0
 21 22  1  0
 22 15  1  0
 15 16  2  0
 16 17  1  0
 17 18  2  0
 18 14  1  0
  1 14  1  0
  1  2  1  0
  2  3  2  0
  2  4  1  0
  4  5  1  0
  4  6  1  0
  6  7  1  0
  6  8  1  0
  8  9  1  0
  9 10  1  0
  9 23  1  0
 23 24  1  0
 24 25  1  0
 24 26  1  0
 24 27  1  0
 27 28  1  0
 28 29  1  0
 28 30  1  0
 28 31  1  0
 31 32  1  0
 32 33  1  0
 32 34  1  0
 32 35  1  0
 18 19  1  0
 19 20  2  0
 20 15  1  0
  9  1  1  0
  5 11  1  0
  7 12  1  0
 10 13  1  0
M  CHG 1  24   1
M  CHG 1  28   1
M  CHG 1  32   1
M  END
> <minimizedAffinity>
-7.46276

> <CNNscore>
0.1554033905

> <CNNaffinity>
4.6503291130

> <CNN_VS>
0.7226769328

> <CNNaffinity_variance>
1.1303229332

$$$$



 35 36  0  0  0  0  0  0  0  0999 V2000
   13.0140    3.3429   39.0439 C   0  0  0  0  0  0  0  0  0  0  0  0
   11.5316    3.4581   39.3827 C   0  0  0  0  0  0  0  0  0  0  0  0
   10.9845    4.5598   39.3974 O   0  0  0  0  0  0  0  0  0  0  0  0
   10.8139    2.1926   39.8371 C   0  0  0  0  0  0  0  0  0  0  0  0
   10.8197    1.1872   38.8437 O   0  0  0  0  0  0  0  0  0  0  0  0
   11.5665    1.6825   41.0742 C   0  0  0  0  0  0  0  0  0  0  0  0
   11.4720    2.6205   42.1565 O   0  0  0  0  0  0  0  0  0  0  0  0
   13.0695    1.4773   40.7927 C   0  0  0  0  0  0  0  0  0  0  0  0
   13.7587    2.7768   40.3002 C   0  0  0  0  0  0  0  0  0  0  0  0
   13.6977    3.7660   41.3476 O   0  0  0  0  0  0  0  0  0  0  0  0
   11.7355    0.9525   38.6266 H   0  0  0  0  0  0  0  0  0  0  0  0
   11.8933    3.4553   41.8985 H   0  0  0  0  0  0  0  0  0  0  0  0
   14.1549    3.4317   42.1350 H   0  0  0  0  0  0  0  0  0  0  0  0
   13.2583    2.5444   37.7434 C   0  0  0  0  0  0  0  0  0  0  0  0
   17.1877    2.9943   35.9773 C   0  0  0  0  0  0  0  0  0  0  0  0
   16.7905    3.7943   37.0452 C   0  0  0  0  0  0  0  0  0  0  0  0
   15.5175    3.6365   37.6050 C   0  0  0  0  0  0  0  0  0  0  0  0
   14.6242    2.6694   37.1169 C   0  0  0  0  0  0  0  0  0  0  0  0
   15.0203    1.8931   36.0218 C   0  0  0  0  0  0  0  0  0  0  0  0
   16.2926    2.0523   35.4665 C   0  0  0  0  0  0  0  0  0  0  0  0
   19.2712    1.9248   35.5417 C   0  0  0  0  0  0  0  0  0  0  0  0
   18.3963    3.0329   35.3451 O   0  0  0  0  0  0  0  0  0  0  0  0
   15.2775    2.5712   39.9463 C   0  0  0  0  0  0  0  0  0  0  0  0
   16.3965    3.1351   40.9937 N   0  0  0  0  0  0  0  0  0  0  0  0
   16.1461    4.6393   40.9829 C   0  0  0  0  0  0  0  0  0  0  0  0
   17.7674    2.8679   40.3745 C   0  0  0  0  0  0  0  0  0  0  0  0
   16.1967    2.4054   42.3235 C   0  0  0  0  0  0  0  0  0  0  0  0
   16.9350    2.8048   43.6455 N   0  0  0  0  0  0  0  0  0  0  0  0
   17.6719    1.6238   44.2422 C   0  0  0  0  0  0  0  0  0  0  0  0
   18.0428    3.7650   43.0895 C   0  0  0  0  0  0  0  0  0  0  0  0
   16.0159    3.5652   44.5728 C   0  0  0  0  0  0  0  0  0  0  0  0
   16.4444    4.0374   45.9540 N   0  0  0  0  0  0  0  0  0  0  0  0
   15.6198    3.4660   47.1127 C   0  0  0  0  0  0  0  0  0  0  0  0
   16.1619    5.5827   45.9841 C   0  0  0  0  0  0  0  0  0  0  0  0
   17.9255    3.9083   46.2957 C   0  0  0  0  0  0  0  0  0  0  0  0
 21 22  1  0
 22 15  1  0
 15 16  2  0
 16 17  1  0
 17 18  2  0
 18 14  1  0
  1 14  1  0
  1  2  1  0
  2  3  2  0
  2  4  1  0
  4  5  1  0
  4  6  1  0
  6  7  1  0
  6  8  1  0
  8  9  1  0
  9 10  1  0
  9 23  1  0
 23 24  1  0
 24 25  1  0
 24 26  1  0
 24 27  1  0
 27 28  1  0
 28 29  1  0
 28 30  1  0
 28 31  1  0
 31 32  1  0
 32 33  1  0
 32 34  1  0
 32 35  1  0
 18 19  1  0
 19 20  2  0
 20 15  1  0
  9  1  1  0
  5 11  1  0
  7 12  1  0
 10 13  1  0
M  CHG 1  24   1
M  CHG 1  28   1
M  CHG 1  32   1
M  END
> <minimizedAffinity>
-7.38018

> <CNNscore>
0.1406438649

> <CNNaffinity>
4.6086506844

> <CNN_VS>
0.6481784582

> <CNNaffinity_variance>
1.0172412395

$$$$



 35 36  0  0  0  0  0  0  0  0999 V2000
   20.5043    1.7493   39.1368 C   0  0  0  0  0  0  0  0  0  0  0  0
   20.0990    0.2804   39.1980 C   0  0  0  0  0  0  0  0  0  0  0  0
   19.3131   -0.1086   40.0606 O   0  0  0  0  0  0  0  0  0  0  0  0
   20.8113   -0.6852   38.2581 C   0  0  0  0  0  0  0  0  0  0  0  0
   20.5935   -0.3679   36.8982 O   0  0  0  0  0  0  0  0  0  0  0  0
   22.3108   -0.5717   38.5678 C   0  0  0  0  0  0  0  0  0  0  0  0
   22.5947   -1.0128   39.9038 O   0  0  0  0  0  0  0  0  0  0  0  0
   22.8144    0.8828   38.4626 C   0  0  0  0  0  0  0  0  0  0  0  0
   22.0442    1.8419   39.4077 C   0  0  0  0  0  0  0  0  0  0  0  0
   22.2887    1.4508   40.7738 O   0  0  0  0  0  0  0  0  0  0  0  0
   20.9235    0.5262   36.7178 H   0  0  0  0  0  0  0  0  0  0  0  0
   22.1350   -0.4404   40.5378 H   0  0  0  0  0  0  0  0  0  0  0  0
   23.2394    1.5023   40.9597 H   0  0  0  0  0  0  0  0  0  0  0  0
   20.0442    2.4309   37.8282 C   0  0  0  0  0  0  0  0  0  0  0  0
   15.7944    2.5948   37.0074 C   0  0  0  0  0  0  0  0  0  0  0  0
   16.7087    2.3522   35.9860 C   0  0  0  0  0  0  0  0  0  0  0  0
   18.0788    2.3021   36.2674 C   0  0  0  0  0  0  0  0  0  0  0  0
   18.5586    2.4806   37.5749 C   0  0  0  0  0  0  0  0  0  0  0  0
   17.6343    2.7570   38.5888 C   0  0  0  0  0  0  0  0  0  0  0  0
   16.2671    2.8047   38.3044 C   0  0  0  0  0  0  0  0  0  0  0  0
   13.7568    3.6555   37.6377 C   0  0  0  0  0  0  0  0  0  0  0  0
   14.4376    2.6597   36.8782 O   0  0  0  0  0  0  0  0  0  0  0  0
   22.5001    3.3408   39.2673 C   0  0  0  0  0  0  0  0  0  0  0  0
   23.5608    3.9299   40.3605 N   0  0  0  0  0  0  0  0  0  0  0  0
   23.9204    5.2955   39.7849 C   0  0  0  0  0  0  0  0  0  0  0  0
   24.8018    3.0402   40.3081 C   0  0  0  0  0  0  0  0  0  0  0  0
   22.8766    3.9092   41.7287 C   0  0  0  0  0  0  0  0  0  0  0  0
   23.5533    4.4357   43.0391 N   0  0  0  0  0  0  0  0  0  0  0  0
   24.8899    5.0848   42.7454 C   0  0  0  0  0  0  0  0  0  0  0  0
   22.5840    5.6060   43.4255 C   0  0  0  0  0  0  0  0  0  0  0  0
   23.5388    3.3802   44.1202 C   0  0  0  0  0  0  0  0  0  0  0  0
   23.8552    3.6867   45.5762 N   0  0  0  0  0  0  0  0  0  0  0  0
   22.8464    4.6066   46.2729 C   0  0  0  0  0  0  0  0  0  0  0  0
   25.1976    4.5033   45.5592 C   0  0  0  0  0  0  0  0  0  0  0  0
   24.1396    2.4941   46.4838 C   0  0  0  0  0  0  0  0  0  0  0  0
 21 22  1  0
 22 15  1  0
 15 16  2  0
 16 17  1  0
 17 18  2  0
 18 14  1  0
  1 14  1  0
  1  2  1  0
  2  3  2  0
  2  4  1  0
  4  5  1  0
  4  6  1  0
  6  7  1  0
  6  8  1  0
  8  9  1  0
  9 10  1  0
  9 23  1  0
 23 24  1  0
 24 25  1  0
 24 26  1  0
 24 27  1  0
 27 28  1  0
 28 29  1  0
 28 30  1  0
 28 31  1  0
 31 32  1  0
 32 33  1  0
 32 34  1  0
 32 35  1  0
 18 19  1  0
 19 20  2  0
 20 15  1  0
  9  1  1  0
  5 11  1  0
  7 12  1  0
 10 13  1  0
M  CHG 1  24   1
M  CHG 1  28   1
M  CHG 1  32   1
M  END
> <minimizedAffinity>
-6.11519

> <CNNscore>
0.1040561125

> <CNNaffinity>
3.7566616535

> <CNN_VS>
0.3909036219

> <CNNaffinity_variance>
1.2205928564

$$$$



 35 36  0  0  0  0  0  0  0  0999 V2000
   16.9009    4.2102   44.3076 C   0  0  0  0  0  0  0  0  0  0  0  0
   15.5560    4.1346   43.5928 C   0  0  0  0  0  0  0  0  0  0  0  0
   14.5325    3.8815   44.2265 O   0  0  0  0  0  0  0  0  0  0  0  0
   15.5613    4.2365   42.0721 C   0  0  0  0  0  0  0  0  0  0  0  0
   16.0750    5.4731   41.6197 O   0  0  0  0  0  0  0  0  0  0  0  0
   16.4587    3.1009   41.5602 C   0  0  0  0  0  0  0  0  0  0  0  0
   15.9012    1.8188   41.8850 O   0  0  0  0  0  0  0  0  0  0  0  0
   17.8660    3.1472   42.1909 C   0  0  0  0  0  0  0  0  0  0  0  0
   17.8193    3.0755   43.7397 C   0  0  0  0  0  0  0  0  0  0  0  0
   17.2656    1.8039   44.1340 O   0  0  0  0  0  0  0  0  0  0  0  0
   16.9874    5.5777   41.9316 H   0  0  0  0  0  0  0  0  0  0  0  0
   15.8521    1.7224   42.8489 H   0  0  0  0  0  0  0  0  0  0  0  0
   17.8226    1.0881   43.7903 H   0  0  0  0  0  0  0  0  0  0  0  0
   17.5205    5.6246   44.2440 C   0  0  0  0  0  0  0  0  0  0  0  0
   15.3067    8.8940   46.0249 C   0  0  0  0  0  0  0  0  0  0  0  0
   15.9579    9.0552   44.8051 C   0  0  0  0  0  0  0  0  0  0  0  0
   16.6690    7.9890   44.2426 C   0  0  0  0  0  0  0  0  0  0  0  0
   16.7317    6.7403   44.8816 C   0  0  0  0  0  0  0  0  0  0  0  0
   16.1018    6.5982   46.1233 C   0  0  0  0  0  0  0  0  0  0  0  0
   15.3914    7.6644   46.6811 C   0  0  0  0  0  0  0  0  0  0  0  0
   15.1690   10.4553   47.8187 C   0  0  0  0  0  0  0  0  0  0  0  0
   14.5726    9.8396   46.6797 O   0  0  0  0  0  0  0  0  0  0  0  0
   19.2410    3.1864   44.4036 C   0  0  0  0  0  0  0  0  0  0  0  0
   20.5309    2.6491   43.5582 N   0  0  0  0  0  0  0  0  0  0  0  0
   21.4691    2.1469   44.6505 C   0  0  0  0  0  0  0  0  0  0  0  0
   21.1708    3.8660   42.8919 C   0  0  0  0  0  0  0  0  0  0  0  0
   20.0259    1.6189   42.5461 C   0  0  0  0  0  0  0  0  0  0  0  0
   20.8403    1.1810   41.2822 N   0  0  0  0  0  0  0  0  0  0  0  0
   21.1834    2.3706   40.4097 C   0  0  0  0  0  0  0  0  0  0  0  0
   22.1898    0.7281   41.9397 C   0  0  0  0  0  0  0  0  0  0  0  0
   20.1857    0.0059   40.5942 C   0  0  0  0  0  0  0  0  0  0  0  0
   20.8112   -0.7060   39.4042 N   0  0  0  0  0  0  0  0  0  0  0  0
   20.4991   -0.0763   38.0422 C   0  0  0  0  0  0  0  0  0  0  0  0
   20.1388   -2.1253   39.3536 C   0  0  0  0  0  0  0  0  0  0  0  0
   22.3079   -0.9898   39.4819 C   0  0  0  0  0  0  0  0  0  0  0  0
 21 22  1  0
 22 15  1  0
 15 16  2  0
 16 17  1  0
 17 18  2  0
 18 14  1  0
  1 14  1  0
  1  2  1  0
  2  3  2  0
  2  4  1  0
  4  5  1  0
  4  6  1  0
  6  7  1  0
  6  8  1  0
  8  9  1  0
  9 10  1  0
  9 23  1  0
 23 24  1  0
 24 25  1  0
 24 26  1  0
 24 27  1  0
 27 28  1  0
 28 29  1  0
 28 30  1  0
 28 31  1  0
 31 32  1  0
 32 33  1  0
 32 34  1  0
 32 35  1  0
 18 19  1  0
 19 20  2  0
 20 15  1  0
  9  1  1  0
  5 11  1  0
  7 12  1  0
 10 13  1  0
M  CHG 1  24   1
M  CHG 1  28   1
M  CHG 1  32   1
M  END
> <minimizedAffinity>
-5.48961

> <CNNscore>
0.1021935344

> <CNNaffinity>
2.8185338974

> <CNN_VS>
0.2880359292

> <CNNaffinity_variance>
2.4616875648

$$$$



 35 36  0  0  0  0  0  0  0  0999 V2000
   16.4272    5.2510   45.7577 C   0  0  0  0  0  0  0  0  0  0  0  0
   16.6701    6.7299   46.0392 C   0  0  0  0  0  0  0  0  0  0  0  0
   15.8637    7.5737   45.6511 O   0  0  0  0  0  0  0  0  0  0  0  0
   18.0000    7.1150   46.6766 C   0  0  0  0  0  0  0  0  0  0  0  0
   18.1714    6.5322   47.9528 O   0  0  0  0  0  0  0  0  0  0  0  0
   19.1007    6.6024   45.7370 C   0  0  0  0  0  0  0  0  0  0  0  0
   19.0443    7.2690   44.4671 O   0  0  0  0  0  0  0  0  0  0  0  0
   18.9618    5.0921   45.4537 C   0  0  0  0  0  0  0  0  0  0  0  0
   17.5842    4.7333   44.8375 C   0  0  0  0  0  0  0  0  0  0  0  0
   17.4634    5.3758   43.5523 O   0  0  0  0  0  0  0  0  0  0  0  0
   18.1443    5.5659   47.8732 H   0  0  0  0  0  0  0  0  0  0  0  0
   18.1972    7.0738   44.0368 H   0  0  0  0  0  0  0  0  0  0  0  0
   18.1734    5.0665   42.9682 H   0  0  0  0  0  0  0  0  0  0  0  0
   16.2271    4.4322   47.0532 C   0  0  0  0  0  0  0  0  0  0  0  0
   12.3936    4.9398   49.0045 C   0  0  0  0  0  0  0  0  0  0  0  0
   12.5059    5.0298   47.6199 C   0  0  0  0  0  0  0  0  0  0  0  0
   13.7518    4.8631   47.0043 C   0  0  0  0  0  0  0  0  0  0  0  0
   14.9041    4.5914   47.7590 C   0  0  0  0  0  0  0  0  0  0  0  0
   14.7867    4.5360   49.1525 C   0  0  0  0  0  0  0  0  0  0  0  0
   13.5410    4.7012   49.7635 C   0  0  0  0  0  0  0  0  0  0  0  0
   11.3813    5.4357   51.1031 C   0  0  0  0  0  0  0  0  0  0  0  0
   11.2464    5.0699   49.7319 O   0  0  0  0  0  0  0  0  0  0  0  0
   17.3995    3.1892   44.6015 C   0  0  0  0  0  0  0  0  0  0  0  0
   18.6296    2.3611   43.9171 N   0  0  0  0  0  0  0  0  0  0  0  0
   18.1855    0.9095   44.0622 C   0  0  0  0  0  0  0  0  0  0  0  0
   19.8620    2.5804   44.7931 C   0  0  0  0  0  0  0  0  0  0  0  0
   18.8133    2.8942   42.4949 C   0  0  0  0  0  0  0  0  0  0  0  0
   18.4043    2.0918   41.2138 N   0  0  0  0  0  0  0  0  0  0  0  0
   18.2455    0.6162   41.5165 C   0  0  0  0  0  0  0  0  0  0  0  0
   16.9549    2.6379   40.9703 C   0  0  0  0  0  0  0  0  0  0  0  0
   19.2901    2.4490   40.0430 C   0  0  0  0  0  0  0  0  0  0  0  0
   20.5738    1.6988   39.7212 N   0  0  0  0  0  0  0  0  0  0  0  0
   21.5758    1.6146   40.8779 C   0  0  0  0  0  0  0  0  0  0  0  0
   21.3024    2.5512   38.6205 C   0  0  0  0  0  0  0  0  0  0  0  0
   20.4234    0.3134   39.1008 C   0  0  0  0  0  0  0  0  0  0  0  0
 21 22  1  0
 22 15  1  0
 15 16  2  0
 16 17  1  0
 17 18  2  0
 18 14  1  0
  1 14  1  0
  1  2  1  0
  2  3  2  0
  2  4  1  0
  4  5  1  0
  4  6  1  0
  6  7  1  0
  6  8  1  0
  8  9  1  0
  9 10  1  0
  9 23  1  0
 23 24  1  0
 24 25  1  0
 24 26  1  0
 24 27  1  0
 27 28  1  0
 28 29  1  0
 28 30  1  0
 28 31  1  0
 31 32  1  0
 32 33  1  0
 32 34  1  0
 32 35  1  0
 18 19  1  0
 19 20  2  0
 20 15  1  0
  9  1  1  0
  5 11  1  0
  7 12  1  0
 10 13  1  0
M  CHG 1  24   1
M  CHG 1  28   1
M  CHG 1  32   1
M  END
> <minimizedAffinity>
-4.66118

> <CNNscore>
0.1014968455

> <CNNaffinity>
3.2013957500

> <CNN_VS>
0.3249315619

> <CNNaffinity_variance>
1.5942789316

$$$$



 35 36  0  0  0  0  0  0  0  0999 V2000
   18.1170    1.7354   42.9231 C   0  0  0  0  0  0  0  0  0  0  0  0
   17.7826    0.2479   42.9596 C   0  0  0  0  0  0  0  0  0  0  0  0
   16.6614   -0.1418   42.6370 O   0  0  0  0  0  0  0  0  0  0  0  0
   18.8294   -0.6938   43.5431 C   0  0  0  0  0  0  0  0  0  0  0  0
   20.0372   -0.6734   42.8093 O   0  0  0  0  0  0  0  0  0  0  0  0
   19.1021   -0.2122   44.9752 C   0  0  0  0  0  0  0  0  0  0  0  0
   17.9299   -0.3419   45.7932 O   0  0  0  0  0  0  0  0  0  0  0  0
   19.5119    1.2746   45.0168 C   0  0  0  0  0  0  0  0  0  0  0  0
   18.4386    2.1988   44.3843 C   0  0  0  0  0  0  0  0  0  0  0  0
   17.2284    2.1141   45.1637 O   0  0  0  0  0  0  0  0  0  0  0  0
   20.4037    0.2247   42.8148 H   0  0  0  0  0  0  0  0  0  0  0  0
   17.2245    0.2219   45.4391 H   0  0  0  0  0  0  0  0  0  0  0  0
   17.4092    2.3979   46.0735 H   0  0  0  0  0  0  0  0  0  0  0  0
   19.2204    2.0636   41.8920 C   0  0  0  0  0  0  0  0  0  0  0  0
   17.8582    2.6066   37.8163 C   0  0  0  0  0  0  0  0  0  0  0  0
   16.9757    2.7332   38.8855 C   0  0  0  0  0  0  0  0  0  0  0  0
   17.4315    2.5549   40.1968 C   0  0  0  0  0  0  0  0  0  0  0  0
   18.7780    2.2598   40.4639 C   0  0  0  0  0  0  0  0  0  0  0  0
   19.6499    2.1017   39.3806 C   0  0  0  0  0  0  0  0  0  0  0  0
   19.1918    2.2820   38.0729 C   0  0  0  0  0  0  0  0  0  0  0  0
   16.2489    2.3734   36.0755 C   0  0  0  0  0  0  0  0  0  0  0  0
   17.5543    2.7632   36.4953 O   0  0  0  0  0  0  0  0  0  0  0  0
   18.8674    3.7120   44.3595 C   0  0  0  0  0  0  0  0  0  0  0  0
   18.0162    4.7698   45.2671 N   0  0  0  0  0  0  0  0  0  0  0  0
   16.6546    4.7892   44.5807 C   0  0  0  0  0  0  0  0  0  0  0  0
   18.6675    6.1405   45.0901 C   0  0  0  0  0  0  0  0  0  0  0  0
   18.0590    4.2780   46.7152 C   0  0  0  0  0  0  0  0  0  0  0  0
   17.0847    4.7906   47.8289 N   0  0  0  0  0  0  0  0  0  0  0  0
   15.9258    3.8358   48.0278 C   0  0  0  0  0  0  0  0  0  0  0  0
   17.9855    4.6430   49.1037 C   0  0  0  0  0  0  0  0  0  0  0  0
   16.7323    6.2443   47.6158 C   0  0  0  0  0  0  0  0  0  0  0  0
   15.4181    6.8513   48.0832 N   0  0  0  0  0  0  0  0  0  0  0  0
   15.0187    6.4913   49.5186 C   0  0  0  0  0  0  0  0  0  0  0  0
   14.3045    6.2047   47.1828 C   0  0  0  0  0  0  0  0  0  0  0  0
   15.2476    8.3547   47.8892 C   0  0  0  0  0  0  0  0  0  0  0  0
 21 22  1  0
 22 15  1  0
 15 16  2  0
 16 17  1  0
 17 18  2  0
 18 14  1  0
  1 14  1  0
  1  2  1  0
  2  3  2  0
  2  4  1  0
  4  5  1  0
  4  6  1  0
  6  7  1  0
  6  8  1  0
  8  9  1  0
  9 10  1  0
  9 23  1  0
 23 24  1  0
 24 25  1  0
 24 26  1  0
 24 27  1  0
 27 28  1  0
 28 29  1  0
 28 30  1  0
 28 31  1  0
 31 32  1  0
 32 33  1  0
 32 34  1  0
 32 35  1  0
 18 19  1  0
 19 20  2  0
 20 15  1  0
  9  1  1  0
  5 11  1  0
  7 12  1  0
 10 13  1  0
M  CHG 1  24   1
M  CHG 1  28   1
M  CHG 1  32   1
M  END
> <minimizedAffinity>
-5.20344

> <CNNscore>
0.0879073590

> <CNNaffinity>
2.7213985920

> <CNN_VS>
0.2392309606

> <CNNaffinity_variance>
2.6830594540

$$$$



 35 36  0  0  0  0  0  0  0  0999 V2000
   15.8097    3.5538   43.3832 C   0  0  0  0  0  0  0  0  0  0  0  0
   14.9549    3.9540   42.1854 C   0  0  0  0  0  0  0  0  0  0  0  0
   13.7616    3.6576   42.1509 O   0  0  0  0  0  0  0  0  0  0  0  0
   15.6649    4.5907   40.9965 C   0  0  0  0  0  0  0  0  0  0  0  0
   16.2955    5.8085   41.3382 O   0  0  0  0  0  0  0  0  0  0  0  0
   16.7287    3.5858   40.5321 C   0  0  0  0  0  0  0  0  0  0  0  0
   16.1199    2.3786   40.0500 O   0  0  0  0  0  0  0  0  0  0  0  0
   17.6785    3.1787   41.6778 C   0  0  0  0  0  0  0  0  0  0  0  0
   16.9180    2.5664   42.8832 C   0  0  0  0  0  0  0  0  0  0  0  0
   16.2800    1.3435   42.4631 O   0  0  0  0  0  0  0  0  0  0  0  0
   16.9545    5.6480   42.0317 H   0  0  0  0  0  0  0  0  0  0  0  0
   15.6304    1.9531   40.7712 H   0  0  0  0  0  0  0  0  0  0  0  0
   16.9527    0.7189   42.1496 H   0  0  0  0  0  0  0  0  0  0  0  0
   16.3480    4.7794   44.1557 C   0  0  0  0  0  0  0  0  0  0  0  0
   14.9028    5.4413   48.1848 C   0  0  0  0  0  0  0  0  0  0  0  0
   15.3198    6.5078   47.3931 C   0  0  0  0  0  0  0  0  0  0  0  0
   15.7841    6.2774   46.0930 C   0  0  0  0  0  0  0  0  0  0  0  0
   15.8281    4.9805   45.5567 C   0  0  0  0  0  0  0  0  0  0  0  0
   15.4382    3.9119   46.3720 C   0  0  0  0  0  0  0  0  0  0  0  0
   14.9738    4.1458   47.6690 C   0  0  0  0  0  0  0  0  0  0  0  0
   13.0500    5.1849   49.6599 C   0  0  0  0  0  0  0  0  0  0  0  0
   14.4205    5.5215   49.4588 O   0  0  0  0  0  0  0  0  0  0  0  0
   17.8634    2.2047   44.0872 C   0  0  0  0  0  0  0  0  0  0  0  0
   18.9899    1.0439   43.8615 N   0  0  0  0  0  0  0  0  0  0  0  0
   20.0098    1.3416   44.9553 C   0  0  0  0  0  0  0  0  0  0  0  0
   19.6427    1.3080   42.5056 C   0  0  0  0  0  0  0  0  0  0  0  0
   18.2796   -0.3098   43.9215 C   0  0  0  0  0  0  0  0  0  0  0  0
   18.4476   -1.3198   45.1064 N   0  0  0  0  0  0  0  0  0  0  0  0
   17.4826   -2.4805   44.9807 C   0  0  0  0  0  0  0  0  0  0  0  0
   19.8680   -1.9077   44.7976 C   0  0  0  0  0  0  0  0  0  0  0  0
   18.4684   -0.6004   46.4349 C   0  0  0  0  0  0  0  0  0  0  0  0
   18.4150   -1.3301   47.7686 N   0  0  0  0  0  0  0  0  0  0  0  0
   17.0614   -1.2619   48.4845 C   0  0  0  0  0  0  0  0  0  0  0  0
   19.4083   -0.5641   48.7150 C   0  0  0  0  0  0  0  0  0  0  0  0
   18.9045   -2.7748   47.7821 C   0  0  0  0  0  0  0  0  0  0  0  0
 21 22  1  0
 22 15  1  0
 15 16  2  0
 16 17  1  0
 17 18  2  0
 18 14  1  0
  1 14  1  0
  1  2  1  0
  2  3  2  0
  2  4  1  0
  4  5  1  0
  4  6  1  0
  6  7  1  0
  6  8  1  0
  8  9  1  0
  9 10  1  0
  9 23  1  0
 23 24  1  0
 24 25  1  0
 24 26  1  0
 24 27  1  0
 27 28  1  0
 28 29  1  0
 28 30  1  0
 28 31  1  0
 31 32  1  0
 32 33  1  0
 32 34  1  0
 32 35  1  0
 18 19  1  0
 19 20  2  0
 20 15  1  0
  9  1  1  0
  5 11  1  0
  7 12  1  0
 10 13  1  0
M  CHG 1  24   1
M  CHG 1  28   1
M  CHG 1  32   1
M  END
> <minimizedAffinity>
-5.36889

> <CNNscore>
0.0859617740

> <CNNaffinity>
2.9967689514

> <CNN_VS>
0.2576075792

> <CNNaffinity_variance>
1.7142571211

$$$$
