


 30 32  0  0  0  0  0  0  0  0999 V2000
    9.9986   10.0490    4.0785 N   0  0  0  0  0  0  0  0  0  0  0  0
   10.6851   10.7294    4.4045 H   0  0  0  0  0  0  0  0  0  0  0  0
    8.1699    9.4620    5.6803 O   0  0  0  0  0  0  0  0  0  0  0  0
    8.5070   10.4910    4.7241 S   0  0  0  0  0  0  0  0  0  0  0  0
    8.6096   11.8855    5.0914 O   0  0  0  0  0  0  0  0  0  0  0  0
    7.3609   10.3326    3.3715 C   0  0  0  0  0  0  0  0  0  0  0  0
    7.8695   10.3727    2.0641 C   0  0  0  0  0  0  0  0  0  0  0  0
    6.9989   10.2991    0.9855 C   0  0  0  0  0  0  0  0  0  0  0  0
    7.6816   10.3715   -0.7755 Br  0  0  0  0  0  0  0  0  0  0  0  0
    5.6293   10.1772    1.1914 C   0  0  0  0  0  0  0  0  0  0  0  0
    5.1101   10.1151    2.4957 C   0  0  0  0  0  0  0  0  0  0  0  0
    3.7370    9.9772    2.7144 C   0  0  0  0  0  0  0  0  0  0  0  0
    3.1542    9.8985    3.9295 N   0  0  0  0  0  0  0  0  0  0  0  0
    3.9773    9.9524    4.9909 C   0  0  0  0  0  0  0  0  0  0  0  0
    5.3541   10.0887    4.8917 C   0  0  0  0  0  0  0  0  0  0  0  0
    5.9660   10.1858    3.6198 C   0  0  0  0  0  0  0  0  0  0  0  0
   10.5173    8.7109    4.4049 C   0  0  0  0  0  0  0  0  0  0  0  0
   11.5433    8.2829    3.3398 C   0  0  0  0  0  0  0  0  0  0  0  0
   11.0972    7.2183    2.4384 N   0  0  0  0  0  0  0  0  0  0  0  0
   10.5035    6.5755    2.9625 H   0  0  0  0  0  0  0  0  0  0  0  0
   10.3431    7.7216    1.2953 C   0  0  0  0  0  0  0  0  0  0  0  0
   11.0148    8.9466    0.7553 C   0  0  0  0  0  0  0  0  0  0  0  0
   12.3045    9.2509    0.9771 C   0  0  0  0  0  0  0  0  0  0  0  0
   12.9703   10.4498    0.4512 C   0  0  0  0  0  0  0  0  0  0  0  0
   13.0959   11.6256    1.2038 C   0  0  0  0  0  0  0  0  0  0  0  0
   13.7088   12.7579    0.6584 C   0  0  0  0  0  0  0  0  0  0  0  0
   14.1907   12.7212   -0.6478 C   0  0  0  0  0  0  0  0  0  0  0  0
   15.0191   14.2511   -1.3865 Br  0  0  0  0  0  0  0  0  0  0  0  0
   14.0612   11.5659   -1.4146 C   0  0  0  0  0  0  0  0  0  0  0  0
   13.4470   10.4359   -0.8666 C   0  0  0  0  0  0  0  0  0  0  0  0
  3  4  2  0
  4  5  2  0
  4  1  1  0
  1 17  1  0
 17 18  1  0
 18 19  1  0
 19 21  1  0
 21 22  1  0
 22 23  2  0
 23 24  1  0
 24 25  2  0
 25 26  1  0
 26 27  2  0
 27 28  1  0
 27 29  1  0
 29 30  2  0
  4  6  1  0
  6  7  2  0
  7  8  1  0
  8  9  1  0
  8 10  2  0
 10 11  1  0
 11 12  2  0
 12 13  1  0
 13 14  2  0
 14 15  1  0
 15 16  2  0
 30 24  1  0
 16  6  1  0
 16 11  1  0
  1  2  1  0
 19 20  1  0
M  END
> <minimizedAffinity>
-8.98531

> <CNNscore>
0.9843497276

> <CNNaffinity>
7.9121689796

> <CNN_VS>
7.7883415222

> <CNNaffinity_variance>
0.0962647796

$$$$



 30 32  0  0  0  0  0  0  0  0999 V2000
   10.0353    9.6252    3.9305 N   0  0  0  0  0  0  0  0  0  0  0  0
   10.8285   10.0311    4.4269 H   0  0  0  0  0  0  0  0  0  0  0  0
    8.2104    9.3079    5.6109 O   0  0  0  0  0  0  0  0  0  0  0  0
    8.6344   10.2636    4.6140 S   0  0  0  0  0  0  0  0  0  0  0  0
    8.9207   11.6435    4.9367 O   0  0  0  0  0  0  0  0  0  0  0  0
    7.4272   10.2143    3.3070 C   0  0  0  0  0  0  0  0  0  0  0  0
    7.8838   10.2701    1.9810 C   0  0  0  0  0  0  0  0  0  0  0  0
    6.9674   10.2811    0.9385 C   0  0  0  0  0  0  0  0  0  0  0  0
    7.5809   10.3746   -0.8467 Br  0  0  0  0  0  0  0  0  0  0  0  0
    5.6025   10.2284    1.1985 C   0  0  0  0  0  0  0  0  0  0  0  0
    5.1340   10.1514    2.5210 C   0  0  0  0  0  0  0  0  0  0  0  0
    3.7653   10.0824    2.7934 C   0  0  0  0  0  0  0  0  0  0  0  0
    3.2289    9.9954    4.0291 N   0  0  0  0  0  0  0  0  0  0  0  0
    4.0960    9.9680    5.0558 C   0  0  0  0  0  0  0  0  0  0  0  0
    5.4732   10.0311    4.9026 C   0  0  0  0  0  0  0  0  0  0  0  0
    6.0374   10.1368    3.6095 C   0  0  0  0  0  0  0  0  0  0  0  0
   10.2043    8.1634    3.9533 C   0  0  0  0  0  0  0  0  0  0  0  0
   11.6962    7.8204    4.1168 C   0  0  0  0  0  0  0  0  0  0  0  0
   12.3297    7.2216    2.9399 N   0  0  0  0  0  0  0  0  0  0  0  0
   11.5992    6.9202    2.2949 H   0  0  0  0  0  0  0  0  0  0  0  0
   13.2160    8.1457    2.2406 C   0  0  0  0  0  0  0  0  0  0  0  0
   14.1327    8.8004    3.2277 C   0  0  0  0  0  0  0  0  0  0  0  0
   14.6443    8.1751    4.3012 C   0  0  0  0  0  0  0  0  0  0  0  0
   15.5438    8.8099    5.2734 C   0  0  0  0  0  0  0  0  0  0  0  0
   15.0933    9.7641    6.1960 C   0  0  0  0  0  0  0  0  0  0  0  0
   15.9850   10.3702    7.0862 C   0  0  0  0  0  0  0  0  0  0  0  0
   17.3353   10.0306    7.0502 C   0  0  0  0  0  0  0  0  0  0  0  0
   18.5420   10.8495    8.2525 Br  0  0  0  0  0  0  0  0  0  0  0  0
   17.8024    9.0953    6.1302 C   0  0  0  0  0  0  0  0  0  0  0  0
   16.9083    8.4919    5.2410 C   0  0  0  0  0  0  0  0  0  0  0  0
  3  4  2  0
  4  5  2  0
  4  1  1  0
  1 17  1  0
 17 18  1  0
 18 19  1  0
 19 21  1  0
 21 22  1  0
 22 23  2  0
 23 24  1  0
 24 25  2  0
 25 26  1  0
 26 27  2  0
 27 28  1  0
 27 29  1  0
 29 30  2  0
  4  6  1  0
  6  7  2  0
  7  8  1  0
  8  9  1  0
  8 10  2  0
 10 11  1  0
 11 12  2  0
 12 13  1  0
 13 14  2  0
 14 15  1  0
 15 16  2  0
 30 24  1  0
 16  6  1  0
 16 11  1  0
  1  2  1  0
 19 20  1  0
M  END
> <minimizedAffinity>
-8.68313

> <CNNscore>
0.8743432760

> <CNNaffinity>
6.9703717232

> <CNN_VS>
6.0944976807

> <CNNaffinity_variance>
0.5564826131

$$$$



 30 32  0  0  0  0  0  0  0  0999 V2000
    9.6593    8.8169    4.5117 N   0  0  0  0  0  0  0  0  0  0  0  0
    9.2268    8.2898    3.7531 H   0  0  0  0  0  0  0  0  0  0  0  0
    7.9584    9.8377    6.0346 O   0  0  0  0  0  0  0  0  0  0  0  0
    8.6773   10.1500    4.8211 S   0  0  0  0  0  0  0  0  0  0  0  0
    9.5153   11.3216    4.6974 O   0  0  0  0  0  0  0  0  0  0  0  0
    7.4833   10.1516    3.5011 C   0  0  0  0  0  0  0  0  0  0  0  0
    7.9554   10.2135    2.1808 C   0  0  0  0  0  0  0  0  0  0  0  0
    7.0509   10.2638    1.1292 C   0  0  0  0  0  0  0  0  0  0  0  0
    7.6859   10.3655   -0.6481 Br  0  0  0  0  0  0  0  0  0  0  0  0
    5.6823   10.2444    1.3742 C   0  0  0  0  0  0  0  0  0  0  0  0
    5.1978   10.1617    2.6906 C   0  0  0  0  0  0  0  0  0  0  0  0
    3.8248   10.1260    2.9477 C   0  0  0  0  0  0  0  0  0  0  0  0
    3.2730   10.0363    4.1764 N   0  0  0  0  0  0  0  0  0  0  0  0
    4.1281    9.9711    5.2115 C   0  0  0  0  0  0  0  0  0  0  0  0
    5.5081    9.9991    5.0736 C   0  0  0  0  0  0  0  0  0  0  0  0
    6.0888   10.1075    3.7880 C   0  0  0  0  0  0  0  0  0  0  0  0
   11.0577    9.0699    4.1292 C   0  0  0  0  0  0  0  0  0  0  0  0
   11.2486    8.7498    2.6354 C   0  0  0  0  0  0  0  0  0  0  0  0
   11.6773    9.8789    1.8069 N   0  0  0  0  0  0  0  0  0  0  0  0
   11.3409   10.7420    2.2337 H   0  0  0  0  0  0  0  0  0  0  0  0
   13.1273    9.9625    1.6680 C   0  0  0  0  0  0  0  0  0  0  0  0
   13.4852   10.0401    0.2156 C   0  0  0  0  0  0  0  0  0  0  0  0
   14.7400    9.9300   -0.2517 C   0  0  0  0  0  0  0  0  0  0  0  0
   15.0990   10.0048   -1.6739 C   0  0  0  0  0  0  0  0  0  0  0  0
   14.6373   11.0323   -2.5081 C   0  0  0  0  0  0  0  0  0  0  0  0
   14.9747   11.0537   -3.8648 C   0  0  0  0  0  0  0  0  0  0  0  0
   15.7689   10.0400   -4.3954 C   0  0  0  0  0  0  0  0  0  0  0  0
   16.2254   10.0673   -6.2293 Br  0  0  0  0  0  0  0  0  0  0  0  0
   16.2242    9.0037   -3.5841 C   0  0  0  0  0  0  0  0  0  0  0  0
   15.8843    8.9849   -2.2282 C   0  0  0  0  0  0  0  0  0  0  0  0
  3  4  2  0
  4  5  2  0
  4  1  1  0
  1 17  1  0
 17 18  1  0
 18 19  1  0
 19 21  1  0
 21 22  1  0
 22 23  2  0
 23 24  1  0
 24 25  2  0
 25 26  1  0
 26 27  2  0
 27 28  1  0
 27 29  1  0
 29 30  2  0
  4  6  1  0
  6  7  2  0
  7  8  1  0
  8  9  1  0
  8 10  2  0
 10 11  1  0
 11 12  2  0
 12 13  1  0
 13 14  2  0
 14 15  1  0
 15 16  2  0
 30 24  1  0
 16  6  1  0
 16 11  1  0
  1  2  1  0
 19 20  1  0
M  END
> <minimizedAffinity>
-9.46423

> <CNNscore>
0.8270211816

> <CNNaffinity>
7.1187815666

> <CNN_VS>
5.8873829842

> <CNNaffinity_variance>
0.3286355436

$$$$



 30 32  0  0  0  0  0  0  0  0999 V2000
   10.5325   10.5002    0.8529 N   0  0  0  0  0  0  0  0  0  0  0  0
   10.6095   10.2550    1.8400 H   0  0  0  0  0  0  0  0  0  0  0  0
    8.5096   11.1660   -0.4584 O   0  0  0  0  0  0  0  0  0  0  0  0
    8.9863   10.0647    0.3460 S   0  0  0  0  0  0  0  0  0  0  0  0
    9.0810    8.7161   -0.1662 O   0  0  0  0  0  0  0  0  0  0  0  0
    8.0073   10.0509    1.8323 C   0  0  0  0  0  0  0  0  0  0  0  0
    8.6727    9.9393    3.0630 C   0  0  0  0  0  0  0  0  0  0  0  0
    7.9375    9.8783    4.2387 C   0  0  0  0  0  0  0  0  0  0  0  0
    8.8323    9.7096    5.8950 Br  0  0  0  0  0  0  0  0  0  0  0  0
    6.5487    9.9358    4.2062 C   0  0  0  0  0  0  0  0  0  0  0  0
    5.8721   10.0684    2.9818 C   0  0  0  0  0  0  0  0  0  0  0  0
    4.4774   10.1427    2.9383 C   0  0  0  0  0  0  0  0  0  0  0  0
    3.7479   10.2812    1.8110 N   0  0  0  0  0  0  0  0  0  0  0  0
    4.4371   10.3577    0.6595 C   0  0  0  0  0  0  0  0  0  0  0  0
    5.8208   10.2945    0.5844 C   0  0  0  0  0  0  0  0  0  0  0  0
    6.5870   10.1350    1.7629 C   0  0  0  0  0  0  0  0  0  0  0  0
   11.6783    9.8914    0.1584 C   0  0  0  0  0  0  0  0  0  0  0  0
   12.6348    9.2689    1.1918 C   0  0  0  0  0  0  0  0  0  0  0  0
   13.7620    8.5238    0.6267 N   0  0  0  0  0  0  0  0  0  0  0  0
   13.4587    8.0843   -0.2424 H   0  0  0  0  0  0  0  0  0  0  0  0
   14.9161    9.3700    0.3425 C   0  0  0  0  0  0  0  0  0  0  0  0
   14.8334    9.8686   -1.0675 C   0  0  0  0  0  0  0  0  0  0  0  0
   15.5295    9.3413   -2.0886 C   0  0  0  0  0  0  0  0  0  0  0  0
   15.4538    9.8244   -3.4736 C   0  0  0  0  0  0  0  0  0  0  0  0
   16.3081    9.3497   -4.4783 C   0  0  0  0  0  0  0  0  0  0  0  0
   16.2274    9.8557   -5.7793 C   0  0  0  0  0  0  0  0  0  0  0  0
   15.2964   10.8475   -6.0784 C   0  0  0  0  0  0  0  0  0  0  0  0
   15.1865   11.5328   -7.8364 Br  0  0  0  0  0  0  0  0  0  0  0  0
   14.4497   11.3408   -5.0889 C   0  0  0  0  0  0  0  0  0  0  0  0
   14.5337   10.8333   -3.7890 C   0  0  0  0  0  0  0  0  0  0  0  0
  3  4  2  0
  4  5  2  0
  4  1  1  0
  1 17  1  0
 17 18  1  0
 18 19  1  0
 19 21  1  0
 21 22  1  0
 22 23  2  0
 23 24  1  0
 24 25  2  0
 25 26  1  0
 26 27  2  0
 27 28  1  0
 27 29  1  0
 29 30  2  0
  4  6  1  0
  6  7  2  0
  7  8  1  0
  8  9  1  0
  8 10  2  0
 10 11  1  0
 11 12  2  0
 12 13  1  0
 13 14  2  0
 14 15  1  0
 15 16  2  0
 30 24  1  0
 16  6  1  0
 16 11  1  0
  1  2  1  0
 19 20  1  0
M  END
> <minimizedAffinity>
-8.70914

> <CNNscore>
0.7827706933

> <CNNaffinity>
6.8527660370

> <CNN_VS>
5.3641443253

> <CNNaffinity_variance>
0.6724637151

$$$$



 30 32  0  0  0  0  0  0  0  0999 V2000
   10.0731    9.8462    3.9754 N   0  0  0  0  0  0  0  0  0  0  0  0
   10.8115   10.3504    4.4662 H   0  0  0  0  0  0  0  0  0  0  0  0
    8.2451    9.2832    5.5866 O   0  0  0  0  0  0  0  0  0  0  0  0
    8.6051   10.3226    4.6501 S   0  0  0  0  0  0  0  0  0  0  0  0
    8.7591   11.7039    5.0481 O   0  0  0  0  0  0  0  0  0  0  0  0
    7.4381   10.2344    3.3091 C   0  0  0  0  0  0  0  0  0  0  0  0
    7.9336   10.2684    1.9964 C   0  0  0  0  0  0  0  0  0  0  0  0
    7.0487   10.2489    0.9271 C   0  0  0  0  0  0  0  0  0  0  0  0
    7.7144   10.3132   -0.8406 Br  0  0  0  0  0  0  0  0  0  0  0  0
    5.6772   10.1869    1.1474 C   0  0  0  0  0  0  0  0  0  0  0  0
    5.1702   10.1314    2.4567 C   0  0  0  0  0  0  0  0  0  0  0  0
    3.7947   10.0534    2.6897 C   0  0  0  0  0  0  0  0  0  0  0  0
    3.2224    9.9854    3.9104 N   0  0  0  0  0  0  0  0  0  0  0  0
    4.0587    9.9877    4.9627 C   0  0  0  0  0  0  0  0  0  0  0  0
    5.4392   10.0624    4.8493 C   0  0  0  0  0  0  0  0  0  0  0  0
    6.0408   10.1482    3.5716 C   0  0  0  0  0  0  0  0  0  0  0  0
   10.4149    8.4154    4.0183 C   0  0  0  0  0  0  0  0  0  0  0  0
   11.7754    8.1906    3.3337 C   0  0  0  0  0  0  0  0  0  0  0  0
   11.7058    7.8051    1.9224 N   0  0  0  0  0  0  0  0  0  0  0  0
   10.8049    7.3585    1.7511 H   0  0  0  0  0  0  0  0  0  0  0  0
   11.8423    8.9407    1.0166 C   0  0  0  0  0  0  0  0  0  0  0  0
   13.2949    9.2409    0.8090 C   0  0  0  0  0  0  0  0  0  0  0  0
   14.2826    8.3668    1.0649 C   0  0  0  0  0  0  0  0  0  0  0  0
   15.7091    8.6535    0.8639 C   0  0  0  0  0  0  0  0  0  0  0  0
   16.6347    8.6138    1.9157 C   0  0  0  0  0  0  0  0  0  0  0  0
   17.9799    8.9231    1.6923 C   0  0  0  0  0  0  0  0  0  0  0  0
   18.4032    9.2835    0.4152 C   0  0  0  0  0  0  0  0  0  0  0  0
   20.2211    9.7024    0.1119 Br  0  0  0  0  0  0  0  0  0  0  0  0
   17.4942    9.3422   -0.6381 C   0  0  0  0  0  0  0  0  0  0  0  0
   16.1498    9.0332   -0.4111 C   0  0  0  0  0  0  0  0  0  0  0  0
  3  4  2  0
  4  5  2  0
  4  1  1  0
  1 17  1  0
 17 18  1  0
 18 19  1  0
 19 21  1  0
 21 22  1  0
 22 23  2  0
 23 24  1  0
 24 25  2  0
 25 26  1  0
 26 27  2  0
 27 28  1  0
 27 29  1  0
 29 30  2  0
  4  6  1  0
  6  7  2  0
  7  8  1  0
  8  9  1  0
  8 10  2  0
 10 11  1  0
 11 12  2  0
 12 13  1  0
 13 14  2  0
 14 15  1  0
 15 16  2  0
 30 24  1  0
 16  6  1  0
 16 11  1  0
  1  2  1  0
 19 20  1  0
M  END
> <minimizedAffinity>
-8.17130

> <CNNscore>
0.7044222951

> <CNNaffinity>
7.0773048401

> <CNN_VS>
4.9854111671

> <CNNaffinity_variance>
0.2403430194

$$$$



 30 32  0  0  0  0  0  0  0  0999 V2000
   15.1276    9.1750   -0.9432 N   0  0  0  0  0  0  0  0  0  0  0  0
   15.9748    8.6758   -1.2140 H   0  0  0  0  0  0  0  0  0  0  0  0
   13.8242   10.9338   -2.1526 O   0  0  0  0  0  0  0  0  0  0  0  0
   15.1708   10.6824   -1.6937 S   0  0  0  0  0  0  0  0  0  0  0  0
   15.8608   11.5766   -0.7913 O   0  0  0  0  0  0  0  0  0  0  0  0
   16.1724   10.4396   -3.1448 C   0  0  0  0  0  0  0  0  0  0  0  0
   17.4792    9.9566   -2.9745 C   0  0  0  0  0  0  0  0  0  0  0  0
   18.3035    9.8001   -4.0803 C   0  0  0  0  0  0  0  0  0  0  0  0
   20.0694    9.1671   -3.8497 Br  0  0  0  0  0  0  0  0  0  0  0  0
   17.8411   10.1096   -5.3545 C   0  0  0  0  0  0  0  0  0  0  0  0
   16.5279   10.5742   -5.5398 C   0  0  0  0  0  0  0  0  0  0  0  0
   16.0475   10.8737   -6.8172 C   0  0  0  0  0  0  0  0  0  0  0  0
   14.8003   11.3135   -7.0880 N   0  0  0  0  0  0  0  0  0  0  0  0
   13.9771   11.4594   -6.0355 C   0  0  0  0  0  0  0  0  0  0  0  0
   14.3472   11.1928   -4.7255 C   0  0  0  0  0  0  0  0  0  0  0  0
   15.6581   10.7455   -4.4374 C   0  0  0  0  0  0  0  0  0  0  0  0
   15.0496    9.1429    0.5260 C   0  0  0  0  0  0  0  0  0  0  0  0
   13.5950    8.8834    0.9586 C   0  0  0  0  0  0  0  0  0  0  0  0
   12.7330   10.0671    0.9849 N   0  0  0  0  0  0  0  0  0  0  0  0
   13.2750   10.8716    0.6696 H   0  0  0  0  0  0  0  0  0  0  0  0
   11.5585    9.9330    0.1297 C   0  0  0  0  0  0  0  0  0  0  0  0
   10.3251   10.2274    0.9269 C   0  0  0  0  0  0  0  0  0  0  0  0
    9.6108    9.2899    1.5719 C   0  0  0  0  0  0  0  0  0  0  0  0
    8.4008    9.5705    2.3556 C   0  0  0  0  0  0  0  0  0  0  0  0
    8.3566    9.4055    3.7468 C   0  0  0  0  0  0  0  0  0  0  0  0
    7.1771    9.6527    4.4560 C   0  0  0  0  0  0  0  0  0  0  0  0
    6.0324   10.0575    3.7735 C   0  0  0  0  0  0  0  0  0  0  0  0
    4.4373   10.3916    4.7307 Br  0  0  0  0  0  0  0  0  0  0  0  0
    6.0547   10.2123    2.3898 C   0  0  0  0  0  0  0  0  0  0  0  0
    7.2354    9.9634    1.6837 C   0  0  0  0  0  0  0  0  0  0  0  0
  3  4  2  0
  4  5  2  0
  4  1  1  0
  1 17  1  0
 17 18  1  0
 18 19  1  0
 19 21  1  0
 21 22  1  0
 22 23  2  0
 23 24  1  0
 24 25  2  0
 25 26  1  0
 26 27  2  0
 27 28  1  0
 27 29  1  0
 29 30  2  0
  4  6  1  0
  6  7  2  0
  7  8  1  0
  8  9  1  0
  8 10  2  0
 10 11  1  0
 11 12  2  0
 12 13  1  0
 13 14  2  0
 14 15  1  0
 15 16  2  0
 30 24  1  0
 16  6  1  0
 16 11  1  0
  1  2  1  0
 19 20  1  0
M  END
> <minimizedAffinity>
-8.58896

> <CNNscore>
0.5059235692

> <CNNaffinity>
6.5244126320

> <CNN_VS>
3.3008542061

> <CNNaffinity_variance>
0.4143658578

$$$$



 30 32  0  0  0  0  0  0  0  0999 V2000
   13.8751   11.9343   -0.5099 N   0  0  0  0  0  0  0  0  0  0  0  0
   14.2855   11.0402   -0.2406 H   0  0  0  0  0  0  0  0  0  0  0  0
   14.1931   13.7723   -2.1758 O   0  0  0  0  0  0  0  0  0  0  0  0
   14.9164   12.6502   -1.6236 S   0  0  0  0  0  0  0  0  0  0  0  0
   16.1927   12.8018   -0.9619 O   0  0  0  0  0  0  0  0  0  0  0  0
   15.0809   11.4510   -2.9286 C   0  0  0  0  0  0  0  0  0  0  0  0
   14.8462   11.8704   -4.2472 C   0  0  0  0  0  0  0  0  0  0  0  0
   14.9198   10.9508   -5.2843 C   0  0  0  0  0  0  0  0  0  0  0  0
   14.5859   11.5112   -7.0582 Br  0  0  0  0  0  0  0  0  0  0  0  0
   15.2329    9.6208   -5.0269 C   0  0  0  0  0  0  0  0  0  0  0  0
   15.4903    9.1933   -3.7133 C   0  0  0  0  0  0  0  0  0  0  0  0
   15.8210    7.8626   -3.4448 C   0  0  0  0  0  0  0  0  0  0  0  0
   16.0938    7.3687   -2.2185 N   0  0  0  0  0  0  0  0  0  0  0  0
   16.0438    8.2425   -1.1983 C   0  0  0  0  0  0  0  0  0  0  0  0
   15.7263    9.5844   -1.3484 C   0  0  0  0  0  0  0  0  0  0  0  0
   15.4259   10.1015   -2.6306 C   0  0  0  0  0  0  0  0  0  0  0  0
   13.5823   12.6739    0.7283 C   0  0  0  0  0  0  0  0  0  0  0  0
   12.4369   11.9772    1.4853 C   0  0  0  0  0  0  0  0  0  0  0  0
   12.5115   10.5149    1.5179 N   0  0  0  0  0  0  0  0  0  0  0  0
   13.4713   10.2334    1.3177 H   0  0  0  0  0  0  0  0  0  0  0  0
   12.1217    9.9555    2.8078 C   0  0  0  0  0  0  0  0  0  0  0  0
   10.6274    9.9177    2.9035 C   0  0  0  0  0  0  0  0  0  0  0  0
    9.9393   10.2836    3.9980 C   0  0  0  0  0  0  0  0  0  0  0  0
    8.4744   10.2495    4.0996 C   0  0  0  0  0  0  0  0  0  0  0  0
    7.6469   10.2424    2.9684 C   0  0  0  0  0  0  0  0  0  0  0  0
    6.2552   10.2411    3.1043 C   0  0  0  0  0  0  0  0  0  0  0  0
    5.6851   10.2569    4.3750 C   0  0  0  0  0  0  0  0  0  0  0  0
    3.8041   10.2558    4.5603 Br  0  0  0  0  0  0  0  0  0  0  0  0
    6.4924   10.2788    5.5095 C   0  0  0  0  0  0  0  0  0  0  0  0
    7.8834   10.2809    5.3699 C   0  0  0  0  0  0  0  0  0  0  0  0
  3  4  2  0
  4  5  2  0
  4  1  1  0
  1 17  1  0
 17 18  1  0
 18 19  1  0
 19 21  1  0
 21 22  1  0
 22 23  2  0
 23 24  1  0
 24 25  2  0
 25 26  1  0
 26 27  2  0
 27 28  1  0
 27 29  1  0
 29 30  2  0
  4  6  1  0
  6  7  2  0
  7  8  1  0
  8  9  1  0
  8 10  2  0
 10 11  1  0
 11 12  2  0
 12 13  1  0
 13 14  2  0
 14 15  1  0
 15 16  2  0
 30 24  1  0
 16  6  1  0
 16 11  1  0
  1  2  1  0
 19 20  1  0
M  END
> <minimizedAffinity>
-8.27107

> <CNNscore>
0.4647832215

> <CNNaffinity>
6.1934123039

> <CNN_VS>
2.8785941601

> <CNNaffinity_variance>
0.6888957024

$$$$



 30 32  0  0  0  0  0  0  0  0999 V2000
   15.3627    9.5531   -0.8498 N   0  0  0  0  0  0  0  0  0  0  0  0
   16.1506    9.0155   -1.2113 H   0  0  0  0  0  0  0  0  0  0  0  0
   13.8224   10.9111   -2.2773 O   0  0  0  0  0  0  0  0  0  0  0  0
   15.1945   10.9160   -1.8251 S   0  0  0  0  0  0  0  0  0  0  0  0
   15.7642   12.0246   -1.0926 O   0  0  0  0  0  0  0  0  0  0  0  0
   16.2075   10.5835   -3.2503 C   0  0  0  0  0  0  0  0  0  0  0  0
   17.5010   10.0806   -3.0409 C   0  0  0  0  0  0  0  0  0  0  0  0
   18.3346    9.8543   -4.1274 C   0  0  0  0  0  0  0  0  0  0  0  0
   20.0829    9.1943   -3.8448 Br  0  0  0  0  0  0  0  0  0  0  0  0
   17.8943   10.1137   -5.4205 C   0  0  0  0  0  0  0  0  0  0  0  0
   16.5942   10.5976   -5.6442 C   0  0  0  0  0  0  0  0  0  0  0  0
   16.1358   10.8473   -6.9403 C   0  0  0  0  0  0  0  0  0  0  0  0
   14.9021   11.3010   -7.2474 N   0  0  0  0  0  0  0  0  0  0  0  0
   14.0700   11.5142   -6.2135 C   0  0  0  0  0  0  0  0  0  0  0  0
   14.4184   11.3014   -4.8878 C   0  0  0  0  0  0  0  0  0  0  0  0
   15.7155   10.8395   -4.5623 C   0  0  0  0  0  0  0  0  0  0  0  0
   15.5975    9.7638    0.5877 C   0  0  0  0  0  0  0  0  0  0  0  0
   14.2484    9.8088    1.3282 C   0  0  0  0  0  0  0  0  0  0  0  0
   13.2285    8.8888    0.8199 N   0  0  0  0  0  0  0  0  0  0  0  0
   13.6875    8.1732    0.2563 H   0  0  0  0  0  0  0  0  0  0  0  0
   12.4760    8.2320    1.8835 C   0  0  0  0  0  0  0  0  0  0  0  0
   11.0094    8.4252    1.6488 C   0  0  0  0  0  0  0  0  0  0  0  0
   10.3724    9.5953    1.8231 C   0  0  0  0  0  0  0  0  0  0  0  0
    8.9350    9.7927    1.5950 C   0  0  0  0  0  0  0  0  0  0  0  0
    8.4245   10.2033    0.3559 C   0  0  0  0  0  0  0  0  0  0  0  0
    7.0524   10.4110    0.1846 C   0  0  0  0  0  0  0  0  0  0  0  0
    6.1852   10.2179    1.2572 C   0  0  0  0  0  0  0  0  0  0  0  0
    4.3303   10.4989    1.0273 Br  0  0  0  0  0  0  0  0  0  0  0  0
    6.6770    9.8242    2.4991 C   0  0  0  0  0  0  0  0  0  0  0  0
    8.0495    9.6183    2.6671 C   0  0  0  0  0  0  0  0  0  0  0  0
  3  4  2  0
  4  5  2  0
  4  1  1  0
  1 17  1  0
 17 18  1  0
 18 19  1  0
 19 21  1  0
 21 22  1  0
 22 23  2  0
 23 24  1  0
 24 25  2  0
 25 26  1  0
 26 27  2  0
 27 28  1  0
 27 29  1  0
 29 30  2  0
  4  6  1  0
  6  7  2  0
  7  8  1  0
  8  9  1  0
  8 10  2  0
 10 11  1  0
 11 12  2  0
 12 13  1  0
 13 14  2  0
 14 15  1  0
 15 16  2  0
 30 24  1  0
 16  6  1  0
 16 11  1  0
  1  2  1  0
 19 20  1  0
M  END
> <minimizedAffinity>
-8.22258

> <CNNscore>
0.4508552253

> <CNNaffinity>
6.5263266563

> <CNN_VS>
2.9424285889

> <CNNaffinity_variance>
0.3808570802

$$$$



 30 32  0  0  0  0  0  0  0  0999 V2000
   10.5387   10.2882    1.3275 N   0  0  0  0  0  0  0  0  0  0  0  0
   10.1723   10.7965    2.1323 H   0  0  0  0  0  0  0  0  0  0  0  0
    9.0718    9.4793   -0.5295 O   0  0  0  0  0  0  0  0  0  0  0  0
    9.3613    9.1807    0.8540 S   0  0  0  0  0  0  0  0  0  0  0  0
    9.8174    7.8785    1.2860 O   0  0  0  0  0  0  0  0  0  0  0  0
    7.9148    9.6262    1.7906 C   0  0  0  0  0  0  0  0  0  0  0  0
    6.7179    9.8526    1.0934 C   0  0  0  0  0  0  0  0  0  0  0  0
    5.5824   10.2473    1.7873 C   0  0  0  0  0  0  0  0  0  0  0  0
    3.9752   10.5701    0.8468 Br  0  0  0  0  0  0  0  0  0  0  0  0
    5.6204   10.4109    3.1676 C   0  0  0  0  0  0  0  0  0  0  0  0
    6.8074   10.1671    3.8791 C   0  0  0  0  0  0  0  0  0  0  0  0
    6.8531   10.3134    5.2679 C   0  0  0  0  0  0  0  0  0  0  0  0
    7.9442   10.0903    6.0308 N   0  0  0  0  0  0  0  0  0  0  0  0
    9.0535    9.6925    5.3843 C   0  0  0  0  0  0  0  0  0  0  0  0
    9.1225    9.5155    4.0102 C   0  0  0  0  0  0  0  0  0  0  0  0
    7.9845    9.7625    3.2068 C   0  0  0  0  0  0  0  0  0  0  0  0
   11.8611    9.7635    1.7043 C   0  0  0  0  0  0  0  0  0  0  0  0
   12.7662    9.7077    0.4601 C   0  0  0  0  0  0  0  0  0  0  0  0
   13.8474    8.7217    0.5208 N   0  0  0  0  0  0  0  0  0  0  0  0
   13.6213    7.9515   -0.1085 H   0  0  0  0  0  0  0  0  0  0  0  0
   15.1414    9.2740    0.1347 C   0  0  0  0  0  0  0  0  0  0  0  0
   15.0751    9.7555   -1.2820 C   0  0  0  0  0  0  0  0  0  0  0  0
   15.9140    9.3490   -2.2496 C   0  0  0  0  0  0  0  0  0  0  0  0
   15.8554    9.8163   -3.6408 C   0  0  0  0  0  0  0  0  0  0  0  0
   16.8830    9.5603   -4.5589 C   0  0  0  0  0  0  0  0  0  0  0  0
   16.8067   10.0479   -5.8672 C   0  0  0  0  0  0  0  0  0  0  0  0
   15.7043   10.8032   -6.2598 C   0  0  0  0  0  0  0  0  0  0  0  0
   15.5999   11.4634   -8.0277 Br  0  0  0  0  0  0  0  0  0  0  0  0
   14.6812   11.0793   -5.3563 C   0  0  0  0  0  0  0  0  0  0  0  0
   14.7611   10.5910   -4.0488 C   0  0  0  0  0  0  0  0  0  0  0  0
  3  4  2  0
  4  5  2  0
  4  1  1  0
  1 17  1  0
 17 18  1  0
 18 19  1  0
 19 21  1  0
 21 22  1  0
 22 23  2  0
 23 24  1  0
 24 25  2  0
 25 26  1  0
 26 27  2  0
 27 28  1  0
 27 29  1  0
 29 30  2  0
  4  6  1  0
  6  7  2  0
  7  8  1  0
  8  9  1  0
  8 10  2  0
 10 11  1  0
 11 12  2  0
 12 13  1  0
 13 14  2  0
 14 15  1  0
 15 16  2  0
 30 24  1  0
 16  6  1  0
 16 11  1  0
  1  2  1  0
 19 20  1  0
M  END
> <minimizedAffinity>
-8.89267

> <CNNscore>
0.3676410019

> <CNNaffinity>
6.6863594055

> <CNN_VS>
2.4581799507

> <CNNaffinity_variance>
0.5411673188

$$$$
