


 16 15  0  0  0  0  0  0  0  0999 V2000
   -4.4163   -6.6433  -16.5690 C   0  0  0  0  0  0  0  0  0  0  0  0
   -5.6617   -6.4074  -17.4792 C   0  0  0  0  0  0  0  0  0  0  0  0
   -6.1195   -4.9438  -17.3955 C   0  0  0  0  0  0  0  0  0  0  0  0
   -5.2950   -6.6919  -18.9570 C   0  0  0  0  0  0  0  0  0  0  0  0
   -6.8112   -7.4147  -17.1176 C   0  0  0  0  0  0  0  0  0  0  0  0
   -8.0754   -7.6543  -18.0041 C   0  0  0  0  0  0  0  0  0  0  0  0
   -8.1034   -9.0205  -18.6970 C   0  0  0  0  0  0  0  0  0  0  0  0
   -9.3824   -7.4601  -17.2129 C   0  0  0  0  0  0  0  0  0  0  0  0
   -8.0570   -6.5706  -19.1121 C   0  0  0  0  0  0  0  0  0  0  0  0
   -3.2260   -7.4036  -17.1833 C   0  0  0  0  0  0  0  0  0  0  0  0
   -3.3936   -8.9263  -17.1214 C   0  0  0  0  0  0  0  0  0  0  0  0
   -2.3415   -9.6850  -17.9372 C   0  0  0  0  0  0  0  0  0  0  0  0
   -1.1303  -10.1202  -17.1073 C   0  0  0  0  0  0  0  0  0  0  0  0
   -1.0945  -11.6417  -16.9393 C   0  0  0  0  0  0  0  0  0  0  0  0
   -0.3607  -12.6867  -14.7290 C   0  0  0  0  0  0  0  0  0  0  0  0
    0.0715  -12.1290  -16.0763 C   0  0  0  0  0  0  0  0  0  0  0  0
 15 16  1  0
 16 14  1  0
 14 13  1  0
 13 12  1  0
 12 11  1  0
 11 10  1  0
 10  1  1  0
  1  2  1  0
  2  3  1  0
  2  4  1  0
  2  5  1  0
  5  6  1  0
  6  7  1  0
  6  8  1  0
  6  9  1  0
M  END
> <minimizedAffinity>
-5.85901

> <CNNscore>
0.8381389380

> <CNNaffinity>
6.2114348412

> <CNN_VS>
5.2060456276

> <CNNaffinity_variance>
0.1210669503

$$$$



 16 15  0  0  0  0  0  0  0  0999 V2000
   -5.0293   -7.0105  -18.6730 C   0  0  0  0  0  0  0  0  0  0  0  0
   -5.6639   -6.4534  -17.3606 C   0  0  0  0  0  0  0  0  0  0  0  0
   -4.6222   -6.4175  -16.2327 C   0  0  0  0  0  0  0  0  0  0  0  0
   -6.1492   -4.9999  -17.5865 C   0  0  0  0  0  0  0  0  0  0  0  0
   -6.9410   -7.2793  -16.9685 C   0  0  0  0  0  0  0  0  0  0  0  0
   -8.2171   -7.3942  -17.8628 C   0  0  0  0  0  0  0  0  0  0  0  0
   -8.5379   -8.8227  -18.3142 C   0  0  0  0  0  0  0  0  0  0  0  0
   -9.4578   -6.7868  -17.1817 C   0  0  0  0  0  0  0  0  0  0  0  0
   -7.9482   -6.5528  -19.1365 C   0  0  0  0  0  0  0  0  0  0  0  0
   -3.5870   -6.5793  -18.9988 C   0  0  0  0  0  0  0  0  0  0  0  0
   -2.6291   -7.7663  -19.1533 C   0  0  0  0  0  0  0  0  0  0  0  0
   -2.8327   -8.8511  -18.0904 C   0  0  0  0  0  0  0  0  0  0  0  0
   -1.5919   -9.7204  -17.8672 C   0  0  0  0  0  0  0  0  0  0  0  0
   -1.8099  -10.7085  -16.7180 C   0  0  0  0  0  0  0  0  0  0  0  0
   -0.5676  -12.4738  -15.3557 C   0  0  0  0  0  0  0  0  0  0  0  0
   -0.8267  -11.8810  -16.7321 C   0  0  0  0  0  0  0  0  0  0  0  0
 15 16  1  0
 16 14  1  0
 14 13  1  0
 13 12  1  0
 12 11  1  0
 11 10  1  0
 10  1  1  0
  1  2  1  0
  2  3  1  0
  2  4  1  0
  2  5  1  0
  5  6  1  0
  6  7  1  0
  6  8  1  0
  6  9  1  0
M  END
> <minimizedAffinity>
-5.84085

> <CNNscore>
0.7801603675

> <CNNaffinity>
6.3417763710

> <CNN_VS>
4.9476027489

> <CNNaffinity_variance>
0.0512886010

$$$$



 16 15  0  0  0  0  0  0  0  0999 V2000
   -2.9054   -7.6395  -17.3448 C   0  0  0  0  0  0  0  0  0  0  0  0
   -3.9282   -6.4665  -17.2294 C   0  0  0  0  0  0  0  0  0  0  0  0
   -4.5022   -6.1157  -18.6101 C   0  0  0  0  0  0  0  0  0  0  0  0
   -5.1162   -6.8907  -16.3305 C   0  0  0  0  0  0  0  0  0  0  0  0
   -3.2724   -5.2268  -16.5224 C   0  0  0  0  0  0  0  0  0  0  0  0
   -3.4753   -3.7479  -16.9839 C   0  0  0  0  0  0  0  0  0  0  0  0
   -2.6821   -3.3701  -18.2390 C   0  0  0  0  0  0  0  0  0  0  0  0
   -4.9617   -3.4083  -17.2019 C   0  0  0  0  0  0  0  0  0  0  0  0
   -2.9745   -2.8455  -15.8274 C   0  0  0  0  0  0  0  0  0  0  0  0
   -3.4392   -8.9961  -17.8416 C   0  0  0  0  0  0  0  0  0  0  0  0
   -2.3280  -10.0264  -18.0743 C   0  0  0  0  0  0  0  0  0  0  0  0
   -1.5657  -10.3939  -16.7969 C   0  0  0  0  0  0  0  0  0  0  0  0
   -1.0125  -11.8218  -16.8117 C   0  0  0  0  0  0  0  0  0  0  0  0
   -0.7958  -12.3443  -15.3889 C   0  0  0  0  0  0  0  0  0  0  0  0
    1.0318  -11.3192  -13.9312 C   0  0  0  0  0  0  0  0  0  0  0  0
    0.6759  -12.3710  -14.9705 C   0  0  0  0  0  0  0  0  0  0  0  0
 15 16  1  0
 16 14  1  0
 14 13  1  0
 13 12  1  0
 12 11  1  0
 11 10  1  0
 10  1  1  0
  1  2  1  0
  2  3  1  0
  2  4  1  0
  2  5  1  0
  5  6  1  0
  6  7  1  0
  6  8  1  0
  6  9  1  0
M  END
> <minimizedAffinity>
-5.10184

> <CNNscore>
0.7296755910

> <CNNaffinity>
5.6880416870

> <CNN_VS>
4.1504249573

> <CNNaffinity_variance>
0.7103137374

$$$$



 16 15  0  0  0  0  0  0  0  0999 V2000
   -7.3572   -6.7317  -18.6274 C   0  0  0  0  0  0  0  0  0  0  0  0
   -5.9932   -6.2658  -18.0291 C   0  0  0  0  0  0  0  0  0  0  0  0
   -6.0773   -4.8011  -17.5750 C   0  0  0  0  0  0  0  0  0  0  0  0
   -5.6482   -7.1163  -16.7813 C   0  0  0  0  0  0  0  0  0  0  0  0
   -4.8273   -6.5081  -19.0530 C   0  0  0  0  0  0  0  0  0  0  0  0
   -3.3105   -6.4005  -18.6932 C   0  0  0  0  0  0  0  0  0  0  0  0
   -2.4297   -5.8971  -19.8412 C   0  0  0  0  0  0  0  0  0  0  0  0
   -3.0715   -5.5246  -17.4490 C   0  0  0  0  0  0  0  0  0  0  0  0
   -2.8336   -7.8305  -18.3329 C   0  0  0  0  0  0  0  0  0  0  0  0
   -7.7621   -8.2008  -18.4037 C   0  0  0  0  0  0  0  0  0  0  0  0
   -9.2761   -8.3864  -18.2493 C   0  0  0  0  0  0  0  0  0  0  0  0
   -9.8326   -9.5439  -19.0849 C   0  0  0  0  0  0  0  0  0  0  0  0
  -11.3545   -9.6836  -18.9878 C   0  0  0  0  0  0  0  0  0  0  0  0
  -11.8827  -10.6904  -20.0134 C   0  0  0  0  0  0  0  0  0  0  0  0
  -13.3176  -12.7862  -20.2676 C   0  0  0  0  0  0  0  0  0  0  0  0
  -13.0941  -11.4827  -19.5167 C   0  0  0  0  0  0  0  0  0  0  0  0
 15 16  1  0
 16 14  1  0
 14 13  1  0
 13 12  1  0
 12 11  1  0
 11 10  1  0
 10  1  1  0
  1  2  1  0
  2  3  1  0
  2  4  1  0
  2  5  1  0
  5  6  1  0
  6  7  1  0
  6  8  1  0
  6  9  1  0
M  END
> <minimizedAffinity>
-6.28787

> <CNNscore>
0.7188288569

> <CNNaffinity>
5.5829510689

> <CNN_VS>
4.0131864548

> <CNNaffinity_variance>
0.5501975417

$$$$



 16 15  0  0  0  0  0  0  0  0999 V2000
   -1.4925  -10.1920  -17.3692 C   0  0  0  0  0  0  0  0  0  0  0  0
   -2.4919   -9.6597  -18.4430 C   0  0  0  0  0  0  0  0  0  0  0  0
   -1.7488   -8.8460  -19.5127 C   0  0  0  0  0  0  0  0  0  0  0  0
   -3.1756  -10.8496  -19.1612 C   0  0  0  0  0  0  0  0  0  0  0  0
   -3.6487   -8.8411  -17.7659 C   0  0  0  0  0  0  0  0  0  0  0  0
   -3.6139   -7.2944  -17.5471 C   0  0  0  0  0  0  0  0  0  0  0  0
   -2.2496   -6.7561  -17.1040 C   0  0  0  0  0  0  0  0  0  0  0  0
   -4.0826   -6.5226  -18.7948 C   0  0  0  0  0  0  0  0  0  0  0  0
   -4.6279   -6.9793  -16.4180 C   0  0  0  0  0  0  0  0  0  0  0  0
   -1.4260  -11.7165  -17.1598 C   0  0  0  0  0  0  0  0  0  0  0  0
   -0.9702  -12.1066  -15.7490 C   0  0  0  0  0  0  0  0  0  0  0  0
    0.5391  -11.9502  -15.5354 C   0  0  0  0  0  0  0  0  0  0  0  0
    0.9160  -11.6393  -14.0840 C   0  0  0  0  0  0  0  0  0  0  0  0
    2.0272  -10.5880  -14.0158 C   0  0  0  0  0  0  0  0  0  0  0  0
    2.4876   -8.1891  -13.2747 C   0  0  0  0  0  0  0  0  0  0  0  0
    1.5004   -9.1551  -13.9114 C   0  0  0  0  0  0  0  0  0  0  0  0
 15 16  1  0
 16 14  1  0
 14 13  1  0
 13 12  1  0
 12 11  1  0
 11 10  1  0
 10  1  1  0
  1  2  1  0
  2  3  1  0
  2  4  1  0
  2  5  1  0
  5  6  1  0
  6  7  1  0
  6  8  1  0
  6  9  1  0
M  END
> <minimizedAffinity>
-5.09381

> <CNNscore>
0.6356807351

> <CNNaffinity>
5.5413680077

> <CNN_VS>
3.5225408077

> <CNNaffinity_variance>
0.1931865066

$$$$



 16 15  0  0  0  0  0  0  0  0999 V2000
   -7.3995   -7.8883  -17.9527 C   0  0  0  0  0  0  0  0  0  0  0  0
   -5.9769   -7.2657  -18.1070 C   0  0  0  0  0  0  0  0  0  0  0  0
   -4.9006   -8.2665  -17.6618 C   0  0  0  0  0  0  0  0  0  0  0  0
   -5.7077   -6.9309  -19.5952 C   0  0  0  0  0  0  0  0  0  0  0  0
   -5.8818   -5.9022  -17.3333 C   0  0  0  0  0  0  0  0  0  0  0  0
   -4.5818   -5.0410  -17.2350 C   0  0  0  0  0  0  0  0  0  0  0  0
   -3.5708   -5.3046  -18.3557 C   0  0  0  0  0  0  0  0  0  0  0  0
   -4.8896   -3.5331  -17.1741 C   0  0  0  0  0  0  0  0  0  0  0  0
   -3.8986   -5.4134  -15.8945 C   0  0  0  0  0  0  0  0  0  0  0  0
   -8.4915   -7.0069  -17.3179 C   0  0  0  0  0  0  0  0  0  0  0  0
   -9.8736   -7.6706  -17.3241 C   0  0  0  0  0  0  0  0  0  0  0  0
  -10.0116   -8.7720  -18.3803 C   0  0  0  0  0  0  0  0  0  0  0  0
  -11.4658   -9.1584  -18.6654 C   0  0  0  0  0  0  0  0  0  0  0  0
  -11.5420  -10.4146  -19.5376 C   0  0  0  0  0  0  0  0  0  0  0  0
  -12.8821  -12.5061  -20.1256 C   0  0  0  0  0  0  0  0  0  0  0  0
  -12.8637  -11.1725  -19.3946 C   0  0  0  0  0  0  0  0  0  0  0  0
 15 16  1  0
 16 14  1  0
 14 13  1  0
 13 12  1  0
 12 11  1  0
 11 10  1  0
 10  1  1  0
  1  2  1  0
  2  3  1  0
  2  4  1  0
  2  5  1  0
  5  6  1  0
  6  7  1  0
  6  8  1  0
  6  9  1  0
M  END
> <minimizedAffinity>
-5.58849

> <CNNscore>
0.6344847679

> <CNNaffinity>
5.7240700722

> <CNN_VS>
3.6318352222

> <CNNaffinity_variance>
0.3170598447

$$$$



 16 15  0  0  0  0  0  0  0  0999 V2000
   -2.7184   -8.2914  -18.9129 C   0  0  0  0  0  0  0  0  0  0  0  0
   -3.0537   -6.7699  -18.8224 C   0  0  0  0  0  0  0  0  0  0  0  0
   -2.3912   -6.1459  -17.5854 C   0  0  0  0  0  0  0  0  0  0  0  0
   -2.4954   -6.0333  -20.0654 C   0  0  0  0  0  0  0  0  0  0  0  0
   -4.6075   -6.5424  -18.8469 C   0  0  0  0  0  0  0  0  0  0  0  0
   -5.4357   -6.0282  -17.6258 C   0  0  0  0  0  0  0  0  0  0  0  0
   -6.9527   -6.1470  -17.8046 C   0  0  0  0  0  0  0  0  0  0  0  0
   -5.0238   -6.7216  -16.3138 C   0  0  0  0  0  0  0  0  0  0  0  0
   -5.1027   -4.5234  -17.4611 C   0  0  0  0  0  0  0  0  0  0  0  0
   -3.4214   -9.2304  -17.9147 C   0  0  0  0  0  0  0  0  0  0  0  0
   -2.4379  -10.0474  -17.0687 C   0  0  0  0  0  0  0  0  0  0  0  0
   -0.9845   -9.5844  -17.2138 C   0  0  0  0  0  0  0  0  0  0  0  0
    0.0280  -10.5786  -16.6379 C   0  0  0  0  0  0  0  0  0  0  0  0
   -0.6615  -11.8692  -16.1869 C   0  0  0  0  0  0  0  0  0  0  0  0
    0.8821  -11.5699  -14.1760 C   0  0  0  0  0  0  0  0  0  0  0  0
    0.0086  -12.5234  -14.9766 C   0  0  0  0  0  0  0  0  0  0  0  0
 15 16  1  0
 16 14  1  0
 14 13  1  0
 13 12  1  0
 12 11  1  0
 11 10  1  0
 10  1  1  0
  1  2  1  0
  2  3  1  0
  2  4  1  0
  2  5  1  0
  5  6  1  0
  6  7  1  0
  6  8  1  0
  6  9  1  0
M  END
> <minimizedAffinity>
-5.43077

> <CNNscore>
0.5904774666

> <CNNaffinity>
5.7512283325

> <CNN_VS>
3.3959708214

> <CNNaffinity_variance>
0.0338131785

$$$$



 16 15  0  0  0  0  0  0  0  0999 V2000
   -2.1374   -8.3762  -17.1758 C   0  0  0  0  0  0  0  0  0  0  0  0
   -0.8002   -7.5893  -17.3435 C   0  0  0  0  0  0  0  0  0  0  0  0
   -0.2192   -7.8094  -18.7480 C   0  0  0  0  0  0  0  0  0  0  0  0
   -1.0598   -6.0705  -17.1848 C   0  0  0  0  0  0  0  0  0  0  0  0
    0.2157   -7.9748  -16.2095 C   0  0  0  0  0  0  0  0  0  0  0  0
    0.7952   -9.4115  -16.0054 C   0  0  0  0  0  0  0  0  0  0  0  0
    1.0412   -9.7842  -14.5398 C   0  0  0  0  0  0  0  0  0  0  0  0
   -0.0869  -10.4900  -16.6618 C   0  0  0  0  0  0  0  0  0  0  0  0
    2.1640   -9.4493  -16.7315 C   0  0  0  0  0  0  0  0  0  0  0  0
   -3.4467   -7.5685  -17.2513 C   0  0  0  0  0  0  0  0  0  0  0  0
   -4.2247   -7.8119  -18.5497 C   0  0  0  0  0  0  0  0  0  0  0  0
   -5.4126   -6.8611  -18.7312 C   0  0  0  0  0  0  0  0  0  0  0  0
   -6.7304   -7.5867  -19.0173 C   0  0  0  0  0  0  0  0  0  0  0  0
   -7.9213   -6.6301  -18.9111 C   0  0  0  0  0  0  0  0  0  0  0  0
   -9.4837   -7.7919  -17.2603 C   0  0  0  0  0  0  0  0  0  0  0  0
   -8.5614   -6.6111  -17.5212 C   0  0  0  0  0  0  0  0  0  0  0  0
 15 16  1  0
 16 14  1  0
 14 13  1  0
 13 12  1  0
 12 11  1  0
 11 10  1  0
 10  1  1  0
  1  2  1  0
  2  3  1  0
  2  4  1  0
  2  5  1  0
  5  6  1  0
  6  7  1  0
  6  8  1  0
  6  9  1  0
M  END
> <minimizedAffinity>
-4.57900

> <CNNscore>
0.5677410364

> <CNNaffinity>
5.6569676399

> <CNN_VS>
3.2116925716

> <CNNaffinity_variance>
0.0122857764

$$$$



 16 15  0  0  0  0  0  0  0  0999 V2000
   -8.4309   -8.9422  -18.1256 C   0  0  0  0  0  0  0  0  0  0  0  0
   -8.0544   -7.4387  -17.9439 C   0  0  0  0  0  0  0  0  0  0  0  0
   -7.9614   -6.7390  -19.3078 C   0  0  0  0  0  0  0  0  0  0  0  0
   -9.1550   -6.7154  -17.1287 C   0  0  0  0  0  0  0  0  0  0  0  0
   -6.7327   -7.2956  -17.1076 C   0  0  0  0  0  0  0  0  0  0  0  0
   -5.5940   -6.2781  -17.4383 C   0  0  0  0  0  0  0  0  0  0  0  0
   -4.8569   -6.5690  -18.7496 C   0  0  0  0  0  0  0  0  0  0  0  0
   -6.1032   -4.8246  -17.4545 C   0  0  0  0  0  0  0  0  0  0  0  0
   -4.5578   -6.3772  -16.2898 C   0  0  0  0  0  0  0  0  0  0  0  0
   -9.0422   -9.3593  -19.4764 C   0  0  0  0  0  0  0  0  0  0  0  0
  -10.1698  -10.3877  -19.3298 C   0  0  0  0  0  0  0  0  0  0  0  0
  -11.5607   -9.8036  -19.5985 C   0  0  0  0  0  0  0  0  0  0  0  0
  -12.6331  -10.3281  -18.6392 C   0  0  0  0  0  0  0  0  0  0  0  0
  -13.6320  -11.2307  -19.3686 C   0  0  0  0  0  0  0  0  0  0  0  0
  -13.9062  -13.1623  -21.0147 C   0  0  0  0  0  0  0  0  0  0  0  0
  -12.9739  -12.4219  -20.0683 C   0  0  0  0  0  0  0  0  0  0  0  0
 15 16  1  0
 16 14  1  0
 14 13  1  0
 13 12  1  0
 12 11  1  0
 11 10  1  0
 10  1  1  0
  1  2  1  0
  2  3  1  0
  2  4  1  0
  2  5  1  0
  5  6  1  0
  6  7  1  0
  6  8  1  0
  6  9  1  0
M  END
> <minimizedAffinity>
-5.14672

> <CNNscore>
0.4857701361

> <CNNaffinity>
5.6470694542

> <CNN_VS>
2.7431776524

> <CNNaffinity_variance>
0.5599778295

$$$$
