


 31 32  0  0  0  0  0  0  0  0999 V2000
   28.1310    1.1792    3.7237 C   0  0  0  0  0  0  0  0  0  0  0  0
   27.1172    0.6018    4.1004 O   0  0  0  0  0  0  0  0  0  0  0  0
   28.2192    2.5267    3.4050 N   0  0  0  0  0  0  0  0  0  0  0  0
   29.0891    2.8263    3.0548 H   0  0  0  0  0  0  0  0  0  0  0  0
   27.2281    3.5246    3.5159 C   0  0  0  0  0  0  0  0  0  0  0  0
   25.9419    3.2749    4.0072 C   0  0  0  0  0  0  0  0  0  0  0  0
   24.9827    4.3055    4.1102 C   0  0  0  0  0  0  0  0  0  0  0  0
   25.3336    5.6098    3.7190 C   0  0  0  0  0  0  0  0  0  0  0  0
   26.6203    5.8699    3.2309 C   0  0  0  0  0  0  0  0  0  0  0  0
   27.5557    4.8371    3.1327 C   0  0  0  0  0  0  0  0  0  0  0  0
   29.1324    5.2235    2.5287 Cl  0  0  0  0  0  0  0  0  0  0  0  0
   23.6011    4.0035    4.6470 C   0  0  0  0  0  0  0  0  0  0  0  0
   23.5352    3.9762    6.0054 F   0  0  0  0  0  0  0  0  0  0  0  0
   23.1385    2.7941    4.2306 F   0  0  0  0  0  0  0  0  0  0  0  0
   22.6847    4.9262    4.2476 F   0  0  0  0  0  0  0  0  0  0  0  0
   24.4016    6.6984    3.8054 C   0  0  0  0  0  0  0  0  0  0  0  0
   23.6568    7.5858    3.8596 N   0  0  0  0  0  0  0  0  0  0  0  0
   29.3367   -0.7853    2.6557 C   0  0  0  0  0  0  0  0  0  0  0  0
   29.4883    0.4537    3.5376 C   0  0  0  0  0  0  0  0  0  0  0  0
   30.4009    1.3676    2.8988 O   0  0  0  0  0  0  0  0  0  0  0  0
   31.2587    0.9326    2.7726 H   0  0  0  0  0  0  0  0  0  0  0  0
   30.0731    0.0994    4.9194 C   0  0  0  0  0  0  0  0  0  0  0  0
   30.1079    1.2517    5.7607 O   0  0  0  0  0  0  0  0  0  0  0  0
   29.8478    1.0673    7.0894 C   0  0  0  0  0  0  0  0  0  0  0  0
   29.3590    2.0353    7.9714 C   0  0  0  0  0  0  0  0  0  0  0  0
   29.1314    1.7134    9.3152 C   0  0  0  0  0  0  0  0  0  0  0  0
   29.3908    0.4235    9.7771 C   0  0  0  0  0  0  0  0  0  0  0  0
   29.1211    0.0453   11.4340 Cl  0  0  0  0  0  0  0  0  0  0  0  0
   29.8687   -0.5404    8.8950 C   0  0  0  0  0  0  0  0  0  0  0  0
   30.1224   -1.7896    9.3145 F   0  0  0  0  0  0  0  0  0  0  0  0
   30.0945   -0.2249    7.5569 C   0  0  0  0  0  0  0  0  0  0  0  0
 19 18  1  0
 19 20  1  0
 19 22  1  0
 22 23  1  0
 23 24  1  0
 24 25  2  0
 25 26  1  0
 26 27  2  0
 27 28  1  0
 27 29  1  0
 29 30  1  0
 29 31  2  0
 19  1  1  0
  1  2  2  0
  1  3  1  0
  3  5  1  0
  5  6  2  0
  6  7  1  0
  7 12  1  0
 12 13  1  0
 12 14  1  0
 12 15  1  0
  7  8  2  0
  8 16  1  0
 16 17  3  0
  8  9  1  0
  9 10  2  0
 10 11  1  0
 31 24  1  0
 10  5  1  0
 20 21  1  0
  3  4  1  0
M  END
> <minimizedAffinity>
-9.03116

> <CNNscore>
0.7942768335

> <CNNaffinity>
8.8436689377

> <CNN_VS>
7.0243215561

> <CNNaffinity_variance>
0.6995878220

$$$$



 31 32  0  0  0  0  0  0  0  0999 V2000
   28.5747    0.5650    3.9108 C   0  0  0  0  0  0  0  0  0  0  0  0
   27.6492   -0.2315    4.0213 O   0  0  0  0  0  0  0  0  0  0  0  0
   28.4417    1.9363    3.7460 N   0  0  0  0  0  0  0  0  0  0  0  0
   29.2804    2.4325    3.6064 H   0  0  0  0  0  0  0  0  0  0  0  0
   27.2647    2.7140    3.7520 C   0  0  0  0  0  0  0  0  0  0  0  0
   27.2697    4.1109    3.6701 C   0  0  0  0  0  0  0  0  0  0  0  0
   26.0672    4.8505    3.6699 C   0  0  0  0  0  0  0  0  0  0  0  0
   24.8415    4.1654    3.7441 C   0  0  0  0  0  0  0  0  0  0  0  0
   24.8268    2.7670    3.8212 C   0  0  0  0  0  0  0  0  0  0  0  0
   26.0266    2.0517    3.8235 C   0  0  0  0  0  0  0  0  0  0  0  0
   25.9422    0.3240    3.9130 Cl  0  0  0  0  0  0  0  0  0  0  0  0
   26.1064    6.3598    3.5786 C   0  0  0  0  0  0  0  0  0  0  0  0
   25.7159    6.8458    2.3697 F   0  0  0  0  0  0  0  0  0  0  0  0
   27.3542    6.8577    3.7911 F   0  0  0  0  0  0  0  0  0  0  0  0
   25.2939    6.9486    4.4973 F   0  0  0  0  0  0  0  0  0  0  0  0
   23.5872    4.8639    3.7433 C   0  0  0  0  0  0  0  0  0  0  0  0
   22.5664    5.4143    3.7540 N   0  0  0  0  0  0  0  0  0  0  0  0
   30.2541   -1.2145    3.2280 C   0  0  0  0  0  0  0  0  0  0  0  0
   30.0622    0.1292    3.9306 C   0  0  0  0  0  0  0  0  0  0  0  0
   30.8314    1.1294    3.2347 O   0  0  0  0  0  0  0  0  0  0  0  0
   31.7676    0.8756    3.2353 H   0  0  0  0  0  0  0  0  0  0  0  0
   30.5635    0.0850    5.3878 C   0  0  0  0  0  0  0  0  0  0  0  0
   30.1023    1.2247    6.1126 O   0  0  0  0  0  0  0  0  0  0  0  0
   29.8125    1.0518    7.4367 C   0  0  0  0  0  0  0  0  0  0  0  0
   29.2377    2.0055    8.2817 C   0  0  0  0  0  0  0  0  0  0  0  0
   28.9883    1.6978    9.6249 C   0  0  0  0  0  0  0  0  0  0  0  0
   29.3119    0.4362   10.1233 C   0  0  0  0  0  0  0  0  0  0  0  0
   29.0141    0.0762   11.7794 Cl  0  0  0  0  0  0  0  0  0  0  0  0
   29.8754   -0.5141    9.2778 C   0  0  0  0  0  0  0  0  0  0  0  0
   30.1922   -1.7362    9.7326 F   0  0  0  0  0  0  0  0  0  0  0  0
   30.1233   -0.2127    7.9403 C   0  0  0  0  0  0  0  0  0  0  0  0
 19 18  1  0
 19 20  1  0
 19 22  1  0
 22 23  1  0
 23 24  1  0
 24 25  2  0
 25 26  1  0
 26 27  2  0
 27 28  1  0
 27 29  1  0
 29 30  1  0
 29 31  2  0
 19  1  1  0
  1  2  2  0
  1  3  1  0
  3  5  1  0
  5  6  2  0
  6  7  1  0
  7 12  1  0
 12 13  1  0
 12 14  1  0
 12 15  1  0
  7  8  2  0
  8 16  1  0
 16 17  3  0
  8  9  1  0
  9 10  2  0
 10 11  1  0
 31 24  1  0
 10  5  1  0
 20 21  1  0
  3  4  1  0
M  END
> <minimizedAffinity>
-10.15116

> <CNNscore>
0.6446036100

> <CNNaffinity>
8.2709312439

> <CNN_VS>
5.3314719200

> <CNNaffinity_variance>
0.0231428817

$$$$



 31 32  0  0  0  0  0  0  0  0999 V2000
   25.5750    6.2978    3.9336 C   0  0  0  0  0  0  0  0  0  0  0  0
   26.7536    6.6345    3.9577 O   0  0  0  0  0  0  0  0  0  0  0  0
   25.1117    4.9913    3.8747 N   0  0  0  0  0  0  0  0  0  0  0  0
   24.1358    4.8878    3.7956 H   0  0  0  0  0  0  0  0  0  0  0  0
   25.8528    3.7914    3.9131 C   0  0  0  0  0  0  0  0  0  0  0  0
   27.1942    3.7324    4.3069 C   0  0  0  0  0  0  0  0  0  0  0  0
   27.8963    2.5081    4.3397 C   0  0  0  0  0  0  0  0  0  0  0  0
   27.2280    1.3251    3.9777 C   0  0  0  0  0  0  0  0  0  0  0  0
   25.8839    1.3740    3.5871 C   0  0  0  0  0  0  0  0  0  0  0  0
   25.2058    2.5949    3.5573 C   0  0  0  0  0  0  0  0  0  0  0  0
   23.5429    2.5891    3.0729 Cl  0  0  0  0  0  0  0  0  0  0  0  0
   29.3456    2.4776    4.7717 C   0  0  0  0  0  0  0  0  0  0  0  0
   29.8526    3.7027    5.0753 F   0  0  0  0  0  0  0  0  0  0  0  0
   30.1608    1.9690    3.8090 F   0  0  0  0  0  0  0  0  0  0  0  0
   29.5323    1.7116    5.8804 F   0  0  0  0  0  0  0  0  0  0  0  0
   27.8892    0.0509    3.9961 C   0  0  0  0  0  0  0  0  0  0  0  0
   28.4240   -0.9782    3.9917 N   0  0  0  0  0  0  0  0  0  0  0  0
   24.4084    8.1834    2.6938 C   0  0  0  0  0  0  0  0  0  0  0  0
   24.4107    7.3210    3.9557 C   0  0  0  0  0  0  0  0  0  0  0  0
   23.1715    6.5883    4.0177 O   0  0  0  0  0  0  0  0  0  0  0  0
   22.4280    7.2112    4.0325 H   0  0  0  0  0  0  0  0  0  0  0  0
   24.5089    8.1811    5.2314 C   0  0  0  0  0  0  0  0  0  0  0  0
   23.5947    9.2754    5.1712 O   0  0  0  0  0  0  0  0  0  0  0  0
   23.7067   10.2409    6.1316 C   0  0  0  0  0  0  0  0  0  0  0  0
   23.8967   11.6067    5.9032 C   0  0  0  0  0  0  0  0  0  0  0  0
   23.9923   12.4949    6.9817 C   0  0  0  0  0  0  0  0  0  0  0  0
   23.8961   12.0182    8.2886 C   0  0  0  0  0  0  0  0  0  0  0  0
   24.0302   13.1182    9.6051 Cl  0  0  0  0  0  0  0  0  0  0  0  0
   23.6978   10.6595    8.5128 C   0  0  0  0  0  0  0  0  0  0  0  0
   23.5983   10.1769    9.7610 F   0  0  0  0  0  0  0  0  0  0  0  0
   23.6001    9.7728    7.4427 C   0  0  0  0  0  0  0  0  0  0  0  0
 19 18  1  0
 19 20  1  0
 19 22  1  0
 22 23  1  0
 23 24  1  0
 24 25  2  0
 25 26  1  0
 26 27  2  0
 27 28  1  0
 27 29  1  0
 29 30  1  0
 29 31  2  0
 19  1  1  0
  1  2  2  0
  1  3  1  0
  3  5  1  0
  5  6  2  0
  6  7  1  0
  7 12  1  0
 12 13  1  0
 12 14  1  0
 12 15  1  0
  7  8  2  0
  8 16  1  0
 16 17  3  0
  8  9  1  0
  9 10  2  0
 10 11  1  0
 31 24  1  0
 10  5  1  0
 20 21  1  0
  3  4  1  0
M  END
> <minimizedAffinity>
-1.78419

> <CNNscore>
0.4565785825

> <CNNaffinity>
7.4549522400

> <CNN_VS>
3.4037716389

> <CNNaffinity_variance>
0.1214351580

$$$$



 31 32  0  0  0  0  0  0  0  0999 V2000
   29.7419    0.0765    3.3175 C   0  0  0  0  0  0  0  0  0  0  0  0
   28.5774    0.4342    3.1794 O   0  0  0  0  0  0  0  0  0  0  0  0
   30.4700    0.1415    4.4967 N   0  0  0  0  0  0  0  0  0  0  0  0
   31.4157   -0.1240    4.4295 H   0  0  0  0  0  0  0  0  0  0  0  0
   30.0356    0.5372    5.7793 C   0  0  0  0  0  0  0  0  0  0  0  0
   30.1498   -0.2772    6.9114 C   0  0  0  0  0  0  0  0  0  0  0  0
   29.7103    0.1621    8.1790 C   0  0  0  0  0  0  0  0  0  0  0  0
   29.1559    1.4482    8.3042 C   0  0  0  0  0  0  0  0  0  0  0  0
   29.0424    2.2722    7.1773 C   0  0  0  0  0  0  0  0  0  0  0  0
   29.4795    1.8197    5.9301 C   0  0  0  0  0  0  0  0  0  0  0  0
   29.3193    2.8882    4.5763 Cl  0  0  0  0  0  0  0  0  0  0  0  0
   29.8492   -0.7418    9.3839 C   0  0  0  0  0  0  0  0  0  0  0  0
   30.1401   -2.0329    9.0695 F   0  0  0  0  0  0  0  0  0  0  0  0
   28.7110   -0.7903   10.1269 F   0  0  0  0  0  0  0  0  0  0  0  0
   30.8396   -0.3296   10.2205 F   0  0  0  0  0  0  0  0  0  0  0  0
   28.6961    1.9504    9.5681 C   0  0  0  0  0  0  0  0  0  0  0  0
   28.3222    2.3379   10.5953 N   0  0  0  0  0  0  0  0  0  0  0  0
   30.1275    0.0588    0.8066 C   0  0  0  0  0  0  0  0  0  0  0  0
   30.5839   -0.5038    2.1524 C   0  0  0  0  0  0  0  0  0  0  0  0
   31.9599   -0.1334    2.3662 O   0  0  0  0  0  0  0  0  0  0  0  0
   32.5056   -0.4873    1.6465 H   0  0  0  0  0  0  0  0  0  0  0  0
   30.5050   -2.0432    2.1808 C   0  0  0  0  0  0  0  0  0  0  0  0
   29.8948   -2.5371    0.9889 O   0  0  0  0  0  0  0  0  0  0  0  0
   30.1873   -3.8195    0.6185 C   0  0  0  0  0  0  0  0  0  0  0  0
   30.4856   -4.2510   -0.6771 C   0  0  0  0  0  0  0  0  0  0  0  0
   30.7722   -5.5997   -0.9221 C   0  0  0  0  0  0  0  0  0  0  0  0
   30.7624   -6.5169    0.1283 C   0  0  0  0  0  0  0  0  0  0  0  0
   31.1015   -8.1738   -0.1889 Cl  0  0  0  0  0  0  0  0  0  0  0  0
   30.4741   -6.0829    1.4183 C   0  0  0  0  0  0  0  0  0  0  0  0
   30.4620   -6.9455    2.4463 F   0  0  0  0  0  0  0  0  0  0  0  0
   30.1905   -4.7417    1.6667 C   0  0  0  0  0  0  0  0  0  0  0  0
 19 18  1  0
 19 20  1  0
 19 22  1  0
 22 23  1  0
 23 24  1  0
 24 25  2  0
 25 26  1  0
 26 27  2  0
 27 28  1  0
 27 29  1  0
 29 30  1  0
 29 31  2  0
 19  1  1  0
  1  2  2  0
  1  3  1  0
  3  5  1  0
  5  6  2  0
  6  7  1  0
  7 12  1  0
 12 13  1  0
 12 14  1  0
 12 15  1  0
  7  8  2  0
  8 16  1  0
 16 17  3  0
  8  9  1  0
  9 10  2  0
 10 11  1  0
 31 24  1  0
 10  5  1  0
 20 21  1  0
  3  4  1  0
M  END
> <minimizedAffinity>
35.91345

> <CNNscore>
0.4527041018

> <CNNaffinity>
7.1460075378

> <CNN_VS>
3.2350268364

> <CNNaffinity_variance>
0.6392564178

$$$$



 31 32  0  0  0  0  0  0  0  0999 V2000
   34.3208    5.6388   13.0299 C   0  0  0  0  0  0  0  0  0  0  0  0
   33.3701    5.6193   13.8038 O   0  0  0  0  0  0  0  0  0  0  0  0
   35.2471    6.6657   12.9178 N   0  0  0  0  0  0  0  0  0  0  0  0
   35.9154    6.5613   12.2025 H   0  0  0  0  0  0  0  0  0  0  0  0
   35.3589    7.8395   13.6925 C   0  0  0  0  0  0  0  0  0  0  0  0
   35.9154    9.0277   13.2061 C   0  0  0  0  0  0  0  0  0  0  0  0
   35.9994   10.1830   14.0129 C   0  0  0  0  0  0  0  0  0  0  0  0
   35.5042   10.1377   15.3282 C   0  0  0  0  0  0  0  0  0  0  0  0
   34.9409    8.9542   15.8217 C   0  0  0  0  0  0  0  0  0  0  0  0
   34.8691    7.8195   15.0102 C   0  0  0  0  0  0  0  0  0  0  0  0
   34.1545    6.3888   15.6754 Cl  0  0  0  0  0  0  0  0  0  0  0  0
   36.6052   11.4526   13.4569 C   0  0  0  0  0  0  0  0  0  0  0  0
   37.6341   11.9403   14.2011 F   0  0  0  0  0  0  0  0  0  0  0  0
   35.6989   12.4634   13.3729 F   0  0  0  0  0  0  0  0  0  0  0  0
   37.1031   11.2749   12.2034 F   0  0  0  0  0  0  0  0  0  0  0  0
   35.5586   11.2822   16.1932 C   0  0  0  0  0  0  0  0  0  0  0  0
   35.5914   12.2166   16.8795 N   0  0  0  0  0  0  0  0  0  0  0  0
   34.9341    5.0266   10.6419 C   0  0  0  0  0  0  0  0  0  0  0  0
   34.6157    4.4866   12.0358 C   0  0  0  0  0  0  0  0  0  0  0  0
   35.7594    3.7571   12.5218 O   0  0  0  0  0  0  0  0  0  0  0  0
   35.9616    3.0297   11.9129 H   0  0  0  0  0  0  0  0  0  0  0  0
   33.4192    3.5147   12.0088 C   0  0  0  0  0  0  0  0  0  0  0  0
   33.7555    2.3232   11.2989 O   0  0  0  0  0  0  0  0  0  0  0  0
   32.7432    1.4459   11.0292 C   0  0  0  0  0  0  0  0  0  0  0  0
   32.1558    0.5657   11.9424 C   0  0  0  0  0  0  0  0  0  0  0  0
   31.1187   -0.2830   11.5358 C   0  0  0  0  0  0  0  0  0  0  0  0
   30.6674   -0.2507   10.2168 C   0  0  0  0  0  0  0  0  0  0  0  0
   29.4025   -1.3094    9.7266 Cl  0  0  0  0  0  0  0  0  0  0  0  0
   31.2477    0.6329    9.3123 C   0  0  0  0  0  0  0  0  0  0  0  0
   30.8285    0.6855    8.0385 F   0  0  0  0  0  0  0  0  0  0  0  0
   32.2783    1.4803    9.7131 C   0  0  0  0  0  0  0  0  0  0  0  0
 19 18  1  0
 19 20  1  0
 19 22  1  0
 22 23  1  0
 23 24  1  0
 24 25  2  0
 25 26  1  0
 26 27  2  0
 27 28  1  0
 27 29  1  0
 29 30  1  0
 29 31  2  0
 19  1  1  0
  1  2  2  0
  1  3  1  0
  3  5  1  0
  5  6  2  0
  6  7  1  0
  7 12  1  0
 12 13  1  0
 12 14  1  0
 12 15  1  0
  7  8  2  0
  8 16  1  0
 16 17  3  0
  8  9  1  0
  9 10  2  0
 10 11  1  0
 31 24  1  0
 10  5  1  0
 20 21  1  0
  3  4  1  0
M  END
> <minimizedAffinity>
28.94486

> <CNNscore>
0.4166009724

> <CNNaffinity>
6.0373673439

> <CNN_VS>
2.5151731968

> <CNNaffinity_variance>
0.0883963928

$$$$



 31 32  0  0  0  0  0  0  0  0999 V2000
   33.5301    3.4737    9.5685 C   0  0  0  0  0  0  0  0  0  0  0  0
   33.8667    2.8455   10.5661 O   0  0  0  0  0  0  0  0  0  0  0  0
   32.5144    3.1138    8.6946 N   0  0  0  0  0  0  0  0  0  0  0  0
   32.4091    3.6890    7.9026 H   0  0  0  0  0  0  0  0  0  0  0  0
   31.6122    2.0333    8.7899 C   0  0  0  0  0  0  0  0  0  0  0  0
   31.5842    1.1530    9.8773 C   0  0  0  0  0  0  0  0  0  0  0  0
   30.6580    0.0894    9.9369 C   0  0  0  0  0  0  0  0  0  0  0  0
   29.7404   -0.0800    8.8849 C   0  0  0  0  0  0  0  0  0  0  0  0
   29.7578    0.7994    7.7950 C   0  0  0  0  0  0  0  0  0  0  0  0
   30.6837    1.8445    7.7512 C   0  0  0  0  0  0  0  0  0  0  0  0
   30.6502    2.9028    6.3805 Cl  0  0  0  0  0  0  0  0  0  0  0  0
   30.6522   -0.8441   11.1272 C   0  0  0  0  0  0  0  0  0  0  0  0
   31.7018   -0.6603   11.9726 F   0  0  0  0  0  0  0  0  0  0  0  0
   30.7005   -2.1522   10.7577 F   0  0  0  0  0  0  0  0  0  0  0  0
   29.5324   -0.6979   11.8858 F   0  0  0  0  0  0  0  0  0  0  0  0
   28.7728   -1.1405    8.8930 C   0  0  0  0  0  0  0  0  0  0  0  0
   28.0033   -2.0081    8.9100 N   0  0  0  0  0  0  0  0  0  0  0  0
   35.2694    4.5297    8.0475 C   0  0  0  0  0  0  0  0  0  0  0  0
   34.2250    4.7892    9.1328 C   0  0  0  0  0  0  0  0  0  0  0  0
   33.2181    5.6739    8.6040 O   0  0  0  0  0  0  0  0  0  0  0  0
   33.6326    6.5053    8.3247 H   0  0  0  0  0  0  0  0  0  0  0  0
   34.8461    5.4733   10.3669 C   0  0  0  0  0  0  0  0  0  0  0  0
   34.8747    6.8898   10.1950 O   0  0  0  0  0  0  0  0  0  0  0  0
   35.5541    7.6220   11.1275 C   0  0  0  0  0  0  0  0  0  0  0  0
   35.4610    7.4728   12.5141 C   0  0  0  0  0  0  0  0  0  0  0  0
   36.2181    8.2898   13.3631 C   0  0  0  0  0  0  0  0  0  0  0  0
   37.0696    9.2546   12.8260 C   0  0  0  0  0  0  0  0  0  0  0  0
   37.9830   10.2619   13.8806 Cl  0  0  0  0  0  0  0  0  0  0  0  0
   37.1671    9.3947   11.4453 C   0  0  0  0  0  0  0  0  0  0  0  0
   37.9822   10.3133   10.9041 F   0  0  0  0  0  0  0  0  0  0  0  0
   36.4173    8.5827   10.5971 C   0  0  0  0  0  0  0  0  0  0  0  0
 19 18  1  0
 19 20  1  0
 19 22  1  0
 22 23  1  0
 23 24  1  0
 24 25  2  0
 25 26  1  0
 26 27  2  0
 27 28  1  0
 27 29  1  0
 29 30  1  0
 29 31  2  0
 19  1  1  0
  1  2  2  0
  1  3  1  0
  3  5  1  0
  5  6  2  0
  6  7  1  0
  7 12  1  0
 12 13  1  0
 12 14  1  0
 12 15  1  0
  7  8  2  0
  8 16  1  0
 16 17  3  0
  8  9  1  0
  9 10  2  0
 10 11  1  0
 31 24  1  0
 10  5  1  0
 20 21  1  0
  3  4  1  0
M  END
> <minimizedAffinity>
31.15483

> <CNNscore>
0.3658754230

> <CNNaffinity>
6.0401616096

> <CNN_VS>
2.2099466324

> <CNNaffinity_variance>
0.0893002078

$$$$



 31 32  0  0  0  0  0  0  0  0999 V2000
   28.2723    1.8950    5.8357 C   0  0  0  0  0  0  0  0  0  0  0  0
   28.3148    2.6472    6.8030 O   0  0  0  0  0  0  0  0  0  0  0  0
   27.5683    2.1296    4.6634 N   0  0  0  0  0  0  0  0  0  0  0  0
   27.5810    1.3982    4.0045 H   0  0  0  0  0  0  0  0  0  0  0  0
   26.8368    3.2766    4.2898 C   0  0  0  0  0  0  0  0  0  0  0  0
   25.4383    3.3210    4.2736 C   0  0  0  0  0  0  0  0  0  0  0  0
   24.7454    4.4934    3.9018 C   0  0  0  0  0  0  0  0  0  0  0  0
   25.4789    5.6405    3.5503 C   0  0  0  0  0  0  0  0  0  0  0  0
   26.8790    5.6066    3.5686 C   0  0  0  0  0  0  0  0  0  0  0  0
   27.5479    4.4367    3.9360 C   0  0  0  0  0  0  0  0  0  0  0  0
   29.2798    4.4602    3.9464 Cl  0  0  0  0  0  0  0  0  0  0  0  0
   23.2329    4.5097    3.8961 C   0  0  0  0  0  0  0  0  0  0  0  0
   22.6885    4.3971    2.6546 F   0  0  0  0  0  0  0  0  0  0  0  0
   22.7269    5.6593    4.4180 F   0  0  0  0  0  0  0  0  0  0  0  0
   22.7081    3.4895    4.6273 F   0  0  0  0  0  0  0  0  0  0  0  0
   24.8290    6.8621    3.1680 C   0  0  0  0  0  0  0  0  0  0  0  0
   24.2868    7.8411    2.8634 N   0  0  0  0  0  0  0  0  0  0  0  0
   30.3849    0.6702    5.1356 C   0  0  0  0  0  0  0  0  0  0  0  0
   29.0147    0.5347    5.7990 C   0  0  0  0  0  0  0  0  0  0  0  0
   29.1999    0.0885    7.1566 O   0  0  0  0  0  0  0  0  0  0  0  0
   29.6638   -0.7633    7.1565 H   0  0  0  0  0  0  0  0  0  0  0  0
   28.1363   -0.5088    5.0804 C   0  0  0  0  0  0  0  0  0  0  0  0
   28.2398   -0.3632    3.6645 O   0  0  0  0  0  0  0  0  0  0  0  0
   29.4250   -0.7141    3.0820 C   0  0  0  0  0  0  0  0  0  0  0  0
   30.1395    0.0477    2.1530 C   0  0  0  0  0  0  0  0  0  0  0  0
   31.3495   -0.4285    1.6330 C   0  0  0  0  0  0  0  0  0  0  0  0
   31.8463   -1.6653    2.0428 C   0  0  0  0  0  0  0  0  0  0  0  0
   33.3267   -2.2453    1.3848 Cl  0  0  0  0  0  0  0  0  0  0  0  0
   31.1377   -2.4172    2.9745 C   0  0  0  0  0  0  0  0  0  0  0  0
   31.5968   -3.6087    3.3874 F   0  0  0  0  0  0  0  0  0  0  0  0
   29.9346   -1.9463    3.4958 C   0  0  0  0  0  0  0  0  0  0  0  0
 19 18  1  0
 19 20  1  0
 19 22  1  0
 22 23  1  0
 23 24  1  0
 24 25  2  0
 25 26  1  0
 26 27  2  0
 27 28  1  0
 27 29  1  0
 29 30  1  0
 29 31  2  0
 19  1  1  0
  1  2  2  0
  1  3  1  0
  3  5  1  0
  5  6  2  0
  6  7  1  0
  7 12  1  0
 12 13  1  0
 12 14  1  0
 12 15  1  0
  7  8  2  0
  8 16  1  0
 16 17  3  0
  8  9  1  0
  9 10  2  0
 10 11  1  0
 31 24  1  0
 10  5  1  0
 20 21  1  0
  3  4  1  0
M  END
> <minimizedAffinity>
-0.38071

> <CNNscore>
0.3585691154

> <CNNaffinity>
7.7728614807

> <CNN_VS>
2.7871081829

> <CNNaffinity_variance>
0.8012304306

$$$$



 31 32  0  0  0  0  0  0  0  0999 V2000
   24.2218    8.2596    4.3604 C   0  0  0  0  0  0  0  0  0  0  0  0
   24.6136    8.6166    3.2549 O   0  0  0  0  0  0  0  0  0  0  0  0
   24.2328    6.9565    4.8366 N   0  0  0  0  0  0  0  0  0  0  0  0
   23.8229    6.8221    5.7216 H   0  0  0  0  0  0  0  0  0  0  0  0
   24.7531    5.7983    4.2215 C   0  0  0  0  0  0  0  0  0  0  0  0
   26.1233    5.5728    4.0492 C   0  0  0  0  0  0  0  0  0  0  0  0
   26.6019    4.3947    3.4361 C   0  0  0  0  0  0  0  0  0  0  0  0
   25.6804    3.4264    2.9997 C   0  0  0  0  0  0  0  0  0  0  0  0
   24.3072    3.6414    3.1728 C   0  0  0  0  0  0  0  0  0  0  0  0
   23.8515    4.8147    3.7785 C   0  0  0  0  0  0  0  0  0  0  0  0
   22.1422    5.0187    3.9709 Cl  0  0  0  0  0  0  0  0  0  0  0  0
   28.0895    4.1800    3.2660 C   0  0  0  0  0  0  0  0  0  0  0  0
   28.4029    3.1212    2.4717 F   0  0  0  0  0  0  0  0  0  0  0  0
   28.7170    3.9510    4.4509 F   0  0  0  0  0  0  0  0  0  0  0  0
   28.7009    5.2592    2.7073 F   0  0  0  0  0  0  0  0  0  0  0  0
   26.1086    2.2074    2.3738 C   0  0  0  0  0  0  0  0  0  0  0  0
   26.4728    1.2285    1.8696 N   0  0  0  0  0  0  0  0  0  0  0  0
   22.1390    9.4679    5.1701 C   0  0  0  0  0  0  0  0  0  0  0  0
   23.6338    9.2475    5.4002 C   0  0  0  0  0  0  0  0  0  0  0  0
   23.8216    8.6816    6.7120 O   0  0  0  0  0  0  0  0  0  0  0  0
   23.4597    9.2853    7.3794 H   0  0  0  0  0  0  0  0  0  0  0  0
   24.4183   10.5736    5.3473 C   0  0  0  0  0  0  0  0  0  0  0  0
   23.6653   11.6272    5.9472 O   0  0  0  0  0  0  0  0  0  0  0  0
   23.9691   11.9606    7.2371 C   0  0  0  0  0  0  0  0  0  0  0  0
   25.1205   12.6297    7.6616 C   0  0  0  0  0  0  0  0  0  0  0  0
   25.3093   12.9151    9.0196 C   0  0  0  0  0  0  0  0  0  0  0  0
   24.3464   12.5332    9.9531 C   0  0  0  0  0  0  0  0  0  0  0  0
   24.5977   12.8767   11.6204 Cl  0  0  0  0  0  0  0  0  0  0  0  0
   23.1970   11.8755    9.5266 C   0  0  0  0  0  0  0  0  0  0  0  0
   22.2541   11.5011   10.4050 F   0  0  0  0  0  0  0  0  0  0  0  0
   23.0043   11.5915    8.1763 C   0  0  0  0  0  0  0  0  0  0  0  0
 19 18  1  0
 19 20  1  0
 19 22  1  0
 22 23  1  0
 23 24  1  0
 24 25  2  0
 25 26  1  0
 26 27  2  0
 27 28  1  0
 27 29  1  0
 29 30  1  0
 29 31  2  0
 19  1  1  0
  1  2  2  0
  1  3  1  0
  3  5  1  0
  5  6  2  0
  6  7  1  0
  7 12  1  0
 12 13  1  0
 12 14  1  0
 12 15  1  0
  7  8  2  0
  8 16  1  0
 16 17  3  0
  8  9  1  0
  9 10  2  0
 10 11  1  0
 31 24  1  0
 10  5  1  0
 20 21  1  0
  3  4  1  0
M  END
> <minimizedAffinity>
6.81894

> <CNNscore>
0.3372352719

> <CNNaffinity>
6.7422604561

> <CNN_VS>
2.2737281322

> <CNNaffinity_variance>
0.0046374095

$$$$



 31 32  0  0  0  0  0  0  0  0999 V2000
   28.7363    0.2436    4.4987 C   0  0  0  0  0  0  0  0  0  0  0  0
   27.8314   -0.5514    4.7274 O   0  0  0  0  0  0  0  0  0  0  0  0
   29.5250    0.8637    5.4570 N   0  0  0  0  0  0  0  0  0  0  0  0
   30.1676    1.5273    5.1166 H   0  0  0  0  0  0  0  0  0  0  0  0
   29.5287    0.6699    6.8545 C   0  0  0  0  0  0  0  0  0  0  0  0
   29.4652   -0.5937    7.4523 C   0  0  0  0  0  0  0  0  0  0  0  0
   29.4808   -0.7432    8.8560 C   0  0  0  0  0  0  0  0  0  0  0  0
   29.5716    0.4025    9.6661 C   0  0  0  0  0  0  0  0  0  0  0  0
   29.6408    1.6710    9.0762 C   0  0  0  0  0  0  0  0  0  0  0  0
   29.6207    1.8002    7.6855 C   0  0  0  0  0  0  0  0  0  0  0  0
   29.7170    3.3949    7.0163 Cl  0  0  0  0  0  0  0  0  0  0  0  0
   29.4124   -2.1233    9.4714 C   0  0  0  0  0  0  0  0  0  0  0  0
   30.5989   -2.7884    9.4582 F   0  0  0  0  0  0  0  0  0  0  0  0
   28.5285   -2.9324    8.8279 F   0  0  0  0  0  0  0  0  0  0  0  0
   29.0219   -2.0831   10.7740 F   0  0  0  0  0  0  0  0  0  0  0  0
   29.5961    0.3119   11.0987 C   0  0  0  0  0  0  0  0  0  0  0  0
   29.6025    0.2246   12.2551 N   0  0  0  0  0  0  0  0  0  0  0  0
   30.6264    0.9331    2.9476 C   0  0  0  0  0  0  0  0  0  0  0  0
   29.1232    0.6824    3.0631 C   0  0  0  0  0  0  0  0  0  0  0  0
   28.7599   -0.3778    2.1573 O   0  0  0  0  0  0  0  0  0  0  0  0
   28.9939   -0.1232    1.2511 H   0  0  0  0  0  0  0  0  0  0  0  0
   28.3073    1.9306    2.6719 C   0  0  0  0  0  0  0  0  0  0  0  0
   28.5276    2.9877    3.6052 O   0  0  0  0  0  0  0  0  0  0  0  0
   27.6200    4.0090    3.6230 C   0  0  0  0  0  0  0  0  0  0  0  0
   27.8170    5.2903    3.1002 C   0  0  0  0  0  0  0  0  0  0  0  0
   26.7988    6.2485    3.1810 C   0  0  0  0  0  0  0  0  0  0  0  0
   25.5831    5.9255    3.7829 C   0  0  0  0  0  0  0  0  0  0  0  0
   24.3459    7.1167    3.8890 Cl  0  0  0  0  0  0  0  0  0  0  0  0
   25.3866    4.6466    4.2942 C   0  0  0  0  0  0  0  0  0  0  0  0
   24.2243    4.3103    4.8748 F   0  0  0  0  0  0  0  0  0  0  0  0
   26.3961    3.6898    4.2141 C   0  0  0  0  0  0  0  0  0  0  0  0
 19 18  1  0
 19 20  1  0
 19 22  1  0
 22 23  1  0
 23 24  1  0
 24 25  2  0
 25 26  1  0
 26 27  2  0
 27 28  1  0
 27 29  1  0
 29 30  1  0
 29 31  2  0
 19  1  1  0
  1  2  2  0
  1  3  1  0
  3  5  1  0
  5  6  2  0
  6  7  1  0
  7 12  1  0
 12 13  1  0
 12 14  1  0
 12 15  1  0
  7  8  2  0
  8 16  1  0
 16 17  3  0
  8  9  1  0
  9 10  2  0
 10 11  1  0
 31 24  1  0
 10  5  1  0
 20 21  1  0
  3  4  1  0
M  END
> <minimizedAffinity>
-7.87110

> <CNNscore>
0.3179769516

> <CNNaffinity>
7.5634350777

> <CNN_VS>
2.4049980640

> <CNNaffinity_variance>
0.0442709439

$$$$
