


 32 35  0  0  0  0  0  0  0  0999 V2000
   -0.5359   33.3608   -4.6287 C   0  0  0  0  0  0  0  0  0  0  0  0
   -1.0899   32.7188   -5.6761 N   0  0  0  0  0  0  0  0  0  0  0  0
   -0.7505   33.4632   -6.7394 N   0  0  0  0  0  0  0  0  0  0  0  0
    0.0776   34.5111   -6.4590 C   0  0  0  0  0  0  0  0  0  0  0  0
    0.2278   34.4863   -5.0815 C   0  0  0  0  0  0  0  0  0  0  0  0
   -1.0729   33.2690   -7.6490 H   0  0  0  0  0  0  0  0  0  0  0  0
    0.1985   31.8326   -1.2278 C   0  0  0  0  0  0  0  0  0  0  0  0
    0.3702   32.3846   -2.5109 C   0  0  0  0  0  0  0  0  0  0  0  0
   -0.7225   32.8380   -3.2664 C   0  0  0  0  0  0  0  0  0  0  0  0
   -1.9984   32.7700   -2.6807 C   0  0  0  0  0  0  0  0  0  0  0  0
   -3.1227   33.2396   -3.3128 O   0  0  0  0  0  0  0  0  0  0  0  0
   -2.1909   32.2192   -1.4153 C   0  0  0  0  0  0  0  0  0  0  0  0
   -1.0938   31.7453   -0.7019 C   0  0  0  0  0  0  0  0  0  0  0  0
   -1.2685   31.1890    0.5338 O   0  0  0  0  0  0  0  0  0  0  0  0
   -3.0557   33.6211   -4.1660 H   0  0  0  0  0  0  0  0  0  0  0  0
   -2.1283   31.1230    0.9006 H   0  0  0  0  0  0  0  0  0  0  0  0
    2.0176   30.1071   -1.1534 C   0  0  0  0  0  0  0  0  0  0  0  0
    1.4007   31.3202   -0.4727 C   0  0  0  0  0  0  0  0  0  0  0  0
    1.0697   35.4115   -4.3466 C   0  0  0  0  0  0  0  0  0  0  0  0
    2.4273   35.1157   -4.1587 C   0  0  0  0  0  0  0  0  0  0  0  0
    3.1819   36.0104   -3.4282 C   0  0  0  0  0  0  0  0  0  0  0  0
    2.6398   37.1579   -2.8944 C   0  0  0  0  0  0  0  0  0  0  0  0
    1.3113   37.4795   -3.0588 C   0  0  0  0  0  0  0  0  0  0  0  0
    0.5272   36.5908   -3.7918 C   0  0  0  0  0  0  0  0  0  0  0  0
   -0.7777   36.8662   -3.9445 F   0  0  0  0  0  0  0  0  0  0  0  0
    3.5555   37.8917   -2.2074 O   0  0  0  0  0  0  0  0  0  0  0  0
    4.7375   37.0800   -2.3728 C   0  0  0  0  0  0  0  0  0  0  0  0
    4.5053   35.8823   -3.1431 O   0  0  0  0  0  0  0  0  0  0  0  0
    0.6204   35.3712   -7.4635 C   0  0  0  0  0  0  0  0  0  0  0  0
    0.9849   36.5310   -7.3655 O   0  0  0  0  0  0  0  0  0  0  0  0
    0.7201   34.7229   -8.6451 O   0  0  0  0  0  0  0  0  0  0  0  0
    0.4389   33.8319   -8.7159 H   0  0  0  0  0  0  0  0  0  0  0  0
 17 18  1  0
 18  7  1  0
  7  8  2  0
  8  9  1  0
  9  1  1  0
  1  2  2  0
  2  3  1  0
  3  4  1  0
  4 29  1  0
 29 30  2  0
 29 31  1  0
  4  5  2  0
  5 19  1  0
 19 20  2  0
 20 21  1  0
 21 22  2  0
 22 23  1  0
 23 24  2  0
 24 25  1  0
 22 26  1  0
 26 27  1  0
 27 28  1  0
  9 10  2  0
 10 11  1  0
 10 12  1  0
 12 13  2  0
 13 14  1  0
 13  7  1  0
  5  1  1  0
 24 19  1  0
 28 21  1  0
  3  6  1  0
 31 32  1  0
 11 15  1  0
 14 16  1  0
M  END
> <minimizedAffinity>
-10.57009

> <CNNscore>
0.9816904664

> <CNNaffinity>
6.7723884583

> <CNN_VS>
6.6483893394

> <CNNaffinity_variance>
0.0873738229

$$$$



 32 35  0  0  0  0  0  0  0  0999 V2000
    0.4661   33.7803   -4.3205 C   0  0  0  0  0  0  0  0  0  0  0  0
   -0.1536   33.3525   -5.4382 N   0  0  0  0  0  0  0  0  0  0  0  0
    0.0554   34.3329   -6.3299 N   0  0  0  0  0  0  0  0  0  0  0  0
    0.8603   35.3421   -5.8873 C   0  0  0  0  0  0  0  0  0  0  0  0
    1.1367   35.0229   -4.5673 C   0  0  0  0  0  0  0  0  0  0  0  0
   -0.3404   34.3249   -7.2313 H   0  0  0  0  0  0  0  0  0  0  0  0
   -0.8465   31.8278   -1.3363 C   0  0  0  0  0  0  0  0  0  0  0  0
   -0.7952   32.5678   -2.5322 C   0  0  0  0  0  0  0  0  0  0  0  0
    0.4271   32.9589   -3.1008 C   0  0  0  0  0  0  0  0  0  0  0  0
    1.6095   32.5451   -2.4632 C   0  0  0  0  0  0  0  0  0  0  0  0
    2.8540   32.8261   -2.9695 O   0  0  0  0  0  0  0  0  0  0  0  0
    1.5805   31.8195   -1.2740 C   0  0  0  0  0  0  0  0  0  0  0  0
    0.3542   31.4745   -0.7133 C   0  0  0  0  0  0  0  0  0  0  0  0
    0.3096   30.7761    0.4602 O   0  0  0  0  0  0  0  0  0  0  0  0
    2.9368   33.3112   -3.7669 H   0  0  0  0  0  0  0  0  0  0  0  0
    1.1053   30.5317    0.8904 H   0  0  0  0  0  0  0  0  0  0  0  0
   -2.2134   31.6917    0.7624 C   0  0  0  0  0  0  0  0  0  0  0  0
   -2.1865   31.4679   -0.7424 C   0  0  0  0  0  0  0  0  0  0  0  0
    2.0023   35.8132   -3.7121 C   0  0  0  0  0  0  0  0  0  0  0  0
    3.3924   35.7516   -3.8842 C   0  0  0  0  0  0  0  0  0  0  0  0
    4.1767   36.4975   -3.0285 C   0  0  0  0  0  0  0  0  0  0  0  0
    3.6329   37.2802   -2.0349 C   0  0  0  0  0  0  0  0  0  0  0  0
    2.2731   37.3640   -1.8372 C   0  0  0  0  0  0  0  0  0  0  0  0
    1.4590   36.6185   -2.6879 C   0  0  0  0  0  0  0  0  0  0  0  0
    0.1305   36.6605   -2.4999 F   0  0  0  0  0  0  0  0  0  0  0  0
    4.5828   37.9233   -1.3048 O   0  0  0  0  0  0  0  0  0  0  0  0
    5.7867   37.4621   -1.9537 C   0  0  0  0  0  0  0  0  0  0  0  0
    5.5352   36.5532   -3.0458 O   0  0  0  0  0  0  0  0  0  0  0  0
    1.2721   36.4347   -6.7120 C   0  0  0  0  0  0  0  0  0  0  0  0
    1.5714   37.5714   -6.3867 O   0  0  0  0  0  0  0  0  0  0  0  0
    1.3217   36.0619   -8.0101 O   0  0  0  0  0  0  0  0  0  0  0  0
    1.0909   35.1875   -8.2555 H   0  0  0  0  0  0  0  0  0  0  0  0
 17 18  1  0
 18  7  1  0
  7  8  2  0
  8  9  1  0
  9  1  1  0
  1  2  2  0
  2  3  1  0
  3  4  1  0
  4 29  1  0
 29 30  2  0
 29 31  1  0
  4  5  2  0
  5 19  1  0
 19 20  2  0
 20 21  1  0
 21 22  2  0
 22 23  1  0
 23 24  2  0
 24 25  1  0
 22 26  1  0
 26 27  1  0
 27 28  1  0
  9 10  2  0
 10 11  1  0
 10 12  1  0
 12 13  2  0
 13 14  1  0
 13  7  1  0
  5  1  1  0
 24 19  1  0
 28 21  1  0
  3  6  1  0
 31 32  1  0
 11 15  1  0
 14 16  1  0
M  END
> <minimizedAffinity>
-9.05000

> <CNNscore>
0.7942100763

> <CNNaffinity>
6.4209380150

> <CNN_VS>
5.0995736122

> <CNNaffinity_variance>
0.1281373650

$$$$



 32 35  0  0  0  0  0  0  0  0999 V2000
    1.2093   34.8946   -4.4044 C   0  0  0  0  0  0  0  0  0  0  0  0
    1.1843   34.5765   -5.7139 N   0  0  0  0  0  0  0  0  0  0  0  0
    1.7773   35.6163   -6.3197 N   0  0  0  0  0  0  0  0  0  0  0  0
    2.2766   36.5604   -5.4701 C   0  0  0  0  0  0  0  0  0  0  0  0
    1.9090   36.1297   -4.2051 C   0  0  0  0  0  0  0  0  0  0  0  0
    1.8467   35.6922   -7.2988 H   0  0  0  0  0  0  0  0  0  0  0  0
    0.8634   32.3028   -1.6470 C   0  0  0  0  0  0  0  0  0  0  0  0
    1.4201   33.2189   -2.5587 C   0  0  0  0  0  0  0  0  0  0  0  0
    0.6129   33.9819   -3.4169 C   0  0  0  0  0  0  0  0  0  0  0  0
   -0.7810   33.8400   -3.3049 C   0  0  0  0  0  0  0  0  0  0  0  0
   -1.6576   34.5815   -4.0572 O   0  0  0  0  0  0  0  0  0  0  0  0
   -1.3519   32.9323   -2.4151 C   0  0  0  0  0  0  0  0  0  0  0  0
   -0.5268   32.1631   -1.5998 C   0  0  0  0  0  0  0  0  0  0  0  0
   -1.0713   31.2583   -0.7328 O   0  0  0  0  0  0  0  0  0  0  0  0
   -1.3324   35.2084   -4.6731 H   0  0  0  0  0  0  0  0  0  0  0  0
   -2.0013   31.1525   -0.6890 H   0  0  0  0  0  0  0  0  0  0  0  0
    2.0478   30.1073   -1.3845 C   0  0  0  0  0  0  0  0  0  0  0  0
    1.7759   31.4748   -0.7753 C   0  0  0  0  0  0  0  0  0  0  0  0
    2.2713   36.8213   -2.9822 C   0  0  0  0  0  0  0  0  0  0  0  0
    1.5157   37.9234   -2.5578 C   0  0  0  0  0  0  0  0  0  0  0  0
    1.9156   38.5676   -1.4051 C   0  0  0  0  0  0  0  0  0  0  0  0
    3.0144   38.1583   -0.6835 C   0  0  0  0  0  0  0  0  0  0  0  0
    3.7790   37.0810   -1.0709 C   0  0  0  0  0  0  0  0  0  0  0  0
    3.3966   36.4141   -2.2333 C   0  0  0  0  0  0  0  0  0  0  0  0
    4.1405   35.3769   -2.6489 F   0  0  0  0  0  0  0  0  0  0  0  0
    3.2335   38.9353    0.4107 O   0  0  0  0  0  0  0  0  0  0  0  0
    2.1456   39.8774    0.3006 C   0  0  0  0  0  0  0  0  0  0  0  0
    1.3084   39.6516   -0.8526 O   0  0  0  0  0  0  0  0  0  0  0  0
    3.0172   37.7000   -5.9132 C   0  0  0  0  0  0  0  0  0  0  0  0
    2.6385   38.8493   -6.0657 O   0  0  0  0  0  0  0  0  0  0  0  0
    4.3039   37.3680   -6.1591 O   0  0  0  0  0  0  0  0  0  0  0  0
    4.5904   36.4838   -6.0406 H   0  0  0  0  0  0  0  0  0  0  0  0
 17 18  1  0
 18  7  1  0
  7  8  2  0
  8  9  1  0
  9  1  1  0
  1  2  2  0
  2  3  1  0
  3  4  1  0
  4 29  1  0
 29 30  2  0
 29 31  1  0
  4  5  2  0
  5 19  1  0
 19 20  2  0
 20 21  1  0
 21 22  2  0
 22 23  1  0
 23 24  2  0
 24 25  1  0
 22 26  1  0
 26 27  1  0
 27 28  1  0
  9 10  2  0
 10 11  1  0
 10 12  1  0
 12 13  2  0
 13 14  1  0
 13  7  1  0
  5  1  1  0
 24 19  1  0
 28 21  1  0
  3  6  1  0
 31 32  1  0
 11 15  1  0
 14 16  1  0
M  END
> <minimizedAffinity>
-8.73201

> <CNNscore>
0.5280774236

> <CNNaffinity>
5.9263367653

> <CNN_VS>
3.1295647621

> <CNNaffinity_variance>
0.1435748190

$$$$



 32 35  0  0  0  0  0  0  0  0999 V2000
    1.4338   35.6354   -4.4110 C   0  0  0  0  0  0  0  0  0  0  0  0
    1.4602   36.2130   -5.6284 N   0  0  0  0  0  0  0  0  0  0  0  0
    0.7533   35.3799   -6.4068 N   0  0  0  0  0  0  0  0  0  0  0  0
    0.1824   34.3310   -5.7461 C   0  0  0  0  0  0  0  0  0  0  0  0
    0.6199   34.4557   -4.4370 C   0  0  0  0  0  0  0  0  0  0  0  0
    0.6542   35.5144   -7.3770 H   0  0  0  0  0  0  0  0  0  0  0  0
    4.0708   36.3739   -1.7765 C   0  0  0  0  0  0  0  0  0  0  0  0
    3.4082   35.8152   -2.8851 C   0  0  0  0  0  0  0  0  0  0  0  0
    2.1403   36.2656   -3.2852 C   0  0  0  0  0  0  0  0  0  0  0  0
    1.5679   37.3326   -2.5714 C   0  0  0  0  0  0  0  0  0  0  0  0
    0.3593   37.8835   -2.9180 O   0  0  0  0  0  0  0  0  0  0  0  0
    2.2034   37.8938   -1.4657 C   0  0  0  0  0  0  0  0  0  0  0  0
    3.4448   37.4048   -1.0695 C   0  0  0  0  0  0  0  0  0  0  0  0
    4.0735   37.9349    0.0216 O   0  0  0  0  0  0  0  0  0  0  0  0
   -0.1151   37.5478   -3.6530 H   0  0  0  0  0  0  0  0  0  0  0  0
    3.6674   38.6264    0.5063 H   0  0  0  0  0  0  0  0  0  0  0  0
    5.2708   34.6012   -0.4690 C   0  0  0  0  0  0  0  0  0  0  0  0
    5.4142   35.8260   -1.3604 C   0  0  0  0  0  0  0  0  0  0  0  0
    0.2189   33.5632   -3.3657 C   0  0  0  0  0  0  0  0  0  0  0  0
   -1.1267   33.5073   -2.9754 C   0  0  0  0  0  0  0  0  0  0  0  0
   -1.4560   32.6662   -1.9326 C   0  0  0  0  0  0  0  0  0  0  0  0
   -0.5118   31.9012   -1.2854 C   0  0  0  0  0  0  0  0  0  0  0  0
    0.8176   31.9313   -1.6417 C   0  0  0  0  0  0  0  0  0  0  0  0
    1.1762   32.7745   -2.6917 C   0  0  0  0  0  0  0  0  0  0  0  0
    2.4702   32.8438   -3.0420 F   0  0  0  0  0  0  0  0  0  0  0  0
   -1.0495   31.1520   -0.2861 O   0  0  0  0  0  0  0  0  0  0  0  0
   -2.4402   31.5268   -0.3798 C   0  0  0  0  0  0  0  0  0  0  0  0
   -2.7033   32.4912   -1.4203 O   0  0  0  0  0  0  0  0  0  0  0  0
   -0.6775   33.3808   -6.3794 C   0  0  0  0  0  0  0  0  0  0  0  0
   -0.8905   32.2183   -6.0779 O   0  0  0  0  0  0  0  0  0  0  0  0
   -1.3095   33.9376   -7.4362 O   0  0  0  0  0  0  0  0  0  0  0  0
   -1.1429   34.8311   -7.6642 H   0  0  0  0  0  0  0  0  0  0  0  0
 17 18  1  0
 18  7  1  0
  7  8  2  0
  8  9  1  0
  9  1  1  0
  1  2  2  0
  2  3  1  0
  3  4  1  0
  4 29  1  0
 29 30  2  0
 29 31  1  0
  4  5  2  0
  5 19  1  0
 19 20  2  0
 20 21  1  0
 21 22  2  0
 22 23  1  0
 23 24  2  0
 24 25  1  0
 22 26  1  0
 26 27  1  0
 27 28  1  0
  9 10  2  0
 10 11  1  0
 10 12  1  0
 12 13  2  0
 13 14  1  0
 13  7  1  0
  5  1  1  0
 24 19  1  0
 28 21  1  0
  3  6  1  0
 31 32  1  0
 11 15  1  0
 14 16  1  0
M  END
> <minimizedAffinity>
-9.50577

> <CNNscore>
0.4697384238

> <CNNaffinity>
5.9543032646

> <CNN_VS>
2.7969651222

> <CNNaffinity_variance>
0.0787600353

$$$$



 32 35  0  0  0  0  0  0  0  0999 V2000
    0.2042   34.1995   -5.9922 C   0  0  0  0  0  0  0  0  0  0  0  0
   -0.5445   33.1436   -6.3675 N   0  0  0  0  0  0  0  0  0  0  0  0
   -1.0843   32.6959   -5.2239 N   0  0  0  0  0  0  0  0  0  0  0  0
   -0.8059   33.4583   -4.1268 C   0  0  0  0  0  0  0  0  0  0  0  0
    0.0505   34.4453   -4.5884 C   0  0  0  0  0  0  0  0  0  0  0  0
   -1.6371   31.8825   -5.1796 H   0  0  0  0  0  0  0  0  0  0  0  0
    1.2770   35.7288   -9.3014 C   0  0  0  0  0  0  0  0  0  0  0  0
    0.5191   35.0669   -8.3176 C   0  0  0  0  0  0  0  0  0  0  0  0
    0.9797   34.9425   -6.9975 C   0  0  0  0  0  0  0  0  0  0  0  0
    2.2067   35.5455   -6.6712 C   0  0  0  0  0  0  0  0  0  0  0  0
    2.7166   35.5304   -5.3969 O   0  0  0  0  0  0  0  0  0  0  0  0
    2.9764   36.1978   -7.6323 C   0  0  0  0  0  0  0  0  0  0  0  0
    2.5120   36.2765   -8.9420 C   0  0  0  0  0  0  0  0  0  0  0  0
    3.2624   36.9000   -9.8986 O   0  0  0  0  0  0  0  0  0  0  0  0
    2.2436   35.1066   -4.7080 H   0  0  0  0  0  0  0  0  0  0  0  0
    4.0924   37.2723   -9.6741 H   0  0  0  0  0  0  0  0  0  0  0  0
    1.3559   34.7062  -11.5905 C   0  0  0  0  0  0  0  0  0  0  0  0
    0.7576   35.7990  -10.7168 C   0  0  0  0  0  0  0  0  0  0  0  0
    0.5733   35.5119   -3.7552 C   0  0  0  0  0  0  0  0  0  0  0  0
    1.6406   35.2525   -2.8837 C   0  0  0  0  0  0  0  0  0  0  0  0
    2.0847   36.2897   -2.0896 C   0  0  0  0  0  0  0  0  0  0  0  0
    1.5134   37.5415   -2.1364 C   0  0  0  0  0  0  0  0  0  0  0  0
    0.4643   37.8313   -2.9794 C   0  0  0  0  0  0  0  0  0  0  0  0
   -0.0038   36.7997   -3.7910 C   0  0  0  0  0  0  0  0  0  0  0  0
   -1.0437   37.0473   -4.6029 F   0  0  0  0  0  0  0  0  0  0  0  0
    2.0980   38.4097   -1.2683 O   0  0  0  0  0  0  0  0  0  0  0  0
    3.1059   37.5655   -0.6728 C   0  0  0  0  0  0  0  0  0  0  0  0
    3.0992   36.2174   -1.1871 O   0  0  0  0  0  0  0  0  0  0  0  0
   -1.3550   33.1990   -2.8327 C   0  0  0  0  0  0  0  0  0  0  0  0
   -0.7756   32.9408   -1.7910 O   0  0  0  0  0  0  0  0  0  0  0  0
   -2.7033   33.2875   -2.8588 O   0  0  0  0  0  0  0  0  0  0  0  0
   -3.1443   33.4861   -3.6613 H   0  0  0  0  0  0  0  0  0  0  0  0
 17 18  1  0
 18  7  1  0
  7  8  2  0
  8  9  1  0
  9  1  1  0
  1  2  2  0
  2  3  1  0
  3  4  1  0
  4 29  1  0
 29 30  2  0
 29 31  1  0
  4  5  2  0
  5 19  1  0
 19 20  2  0
 20 21  1  0
 21 22  2  0
 22 23  1  0
 23 24  2  0
 24 25  1  0
 22 26  1  0
 26 27  1  0
 27 28  1  0
  9 10  2  0
 10 11  1  0
 10 12  1  0
 12 13  2  0
 13 14  1  0
 13  7  1  0
  5  1  1  0
 24 19  1  0
 28 21  1  0
  3  6  1  0
 31 32  1  0
 11 15  1  0
 14 16  1  0
M  END
> <minimizedAffinity>
-7.27143

> <CNNscore>
0.4692921042

> <CNNaffinity>
5.6771121025

> <CNN_VS>
2.6642239094

> <CNNaffinity_variance>
0.4550631940

$$$$



 32 35  0  0  0  0  0  0  0  0999 V2000
    0.1329   33.2670   -4.1497 C   0  0  0  0  0  0  0  0  0  0  0  0
   -0.8274   32.3245   -4.0730 N   0  0  0  0  0  0  0  0  0  0  0  0
   -0.7262   31.8481   -2.8229 N   0  0  0  0  0  0  0  0  0  0  0  0
    0.1883   32.4923   -2.0410 C   0  0  0  0  0  0  0  0  0  0  0  0
    0.7839   33.4193   -2.8817 C   0  0  0  0  0  0  0  0  0  0  0  0
   -1.2682   31.0942   -2.4958 H   0  0  0  0  0  0  0  0  0  0  0  0
    1.5208   35.7201   -6.6985 C   0  0  0  0  0  0  0  0  0  0  0  0
    1.3474   34.9728   -5.5187 C   0  0  0  0  0  0  0  0  0  0  0  0
    0.3399   34.0017   -5.4072 C   0  0  0  0  0  0  0  0  0  0  0  0
   -0.4660   33.7602   -6.5331 C   0  0  0  0  0  0  0  0  0  0  0  0
   -1.4399   32.7929   -6.5455 O   0  0  0  0  0  0  0  0  0  0  0  0
   -0.3164   34.4951   -7.7075 C   0  0  0  0  0  0  0  0  0  0  0  0
    0.6682   35.4762   -7.7793 C   0  0  0  0  0  0  0  0  0  0  0  0
    0.8173   36.2151   -8.9188 O   0  0  0  0  0  0  0  0  0  0  0  0
   -1.5870   32.2665   -5.7844 H   0  0  0  0  0  0  0  0  0  0  0  0
    0.2540   36.0640   -9.6522 H   0  0  0  0  0  0  0  0  0  0  0  0
    3.2001   37.0403   -5.3836 C   0  0  0  0  0  0  0  0  0  0  0  0
    2.5913   36.7827   -6.7541 C   0  0  0  0  0  0  0  0  0  0  0  0
    1.8006   34.3603   -2.4509 C   0  0  0  0  0  0  0  0  0  0  0  0
    3.0781   33.8943   -2.1094 C   0  0  0  0  0  0  0  0  0  0  0  0
    4.0032   34.8221   -1.6771 C   0  0  0  0  0  0  0  0  0  0  0  0
    3.7020   36.1619   -1.5775 C   0  0  0  0  0  0  0  0  0  0  0  0
    2.4585   36.6541   -1.9039 C   0  0  0  0  0  0  0  0  0  0  0  0
    1.5056   35.7365   -2.3420 C   0  0  0  0  0  0  0  0  0  0  0  0
    0.2764   36.1856   -2.6410 F   0  0  0  0  0  0  0  0  0  0  0  0
    4.7534   36.8962   -1.1253 O   0  0  0  0  0  0  0  0  0  0  0  0
    5.7531   35.8690   -0.9563 C   0  0  0  0  0  0  0  0  0  0  0  0
    5.2811   34.5498   -1.3007 O   0  0  0  0  0  0  0  0  0  0  0  0
    0.3859   32.1922   -0.6575 C   0  0  0  0  0  0  0  0  0  0  0  0
    1.4257   32.1557   -0.0211 O   0  0  0  0  0  0  0  0  0  0  0  0
   -0.7947   31.9421   -0.0491 O   0  0  0  0  0  0  0  0  0  0  0  0
   -1.5911   31.9712   -0.5418 H   0  0  0  0  0  0  0  0  0  0  0  0
 17 18  1  0
 18  7  1  0
  7  8  2  0
  8  9  1  0
  9  1  1  0
  1  2  2  0
  2  3  1  0
  3  4  1  0
  4 29  1  0
 29 30  2  0
 29 31  1  0
  4  5  2  0
  5 19  1  0
 19 20  2  0
 20 21  1  0
 21 22  2  0
 22 23  1  0
 23 24  2  0
 24 25  1  0
 22 26  1  0
 26 27  1  0
 27 28  1  0
  9 10  2  0
 10 11  1  0
 10 12  1  0
 12 13  2  0
 13 14  1  0
 13  7  1  0
  5  1  1  0
 24 19  1  0
 28 21  1  0
  3  6  1  0
 31 32  1  0
 11 15  1  0
 14 16  1  0
M  END
> <minimizedAffinity>
-7.92152

> <CNNscore>
0.3240793049

> <CNNaffinity>
5.7115898132

> <CNN_VS>
1.8510080576

> <CNNaffinity_variance>
0.2689104974

$$$$



 32 35  0  0  0  0  0  0  0  0999 V2000
    1.9823   35.0029   -4.0379 C   0  0  0  0  0  0  0  0  0  0  0  0
    2.1437   35.6340   -5.2178 N   0  0  0  0  0  0  0  0  0  0  0  0
    1.2874   35.0157   -6.0451 N   0  0  0  0  0  0  0  0  0  0  0  0
    0.5018   34.0722   -5.4492 C   0  0  0  0  0  0  0  0  0  0  0  0
    0.9399   34.0238   -4.1352 C   0  0  0  0  0  0  0  0  0  0  0  0
    1.2303   35.2259   -7.0052 H   0  0  0  0  0  0  0  0  0  0  0  0
    3.2679   36.9717   -1.0527 C   0  0  0  0  0  0  0  0  0  0  0  0
    2.4708   36.5491   -2.1328 C   0  0  0  0  0  0  0  0  0  0  0  0
    2.7915   35.4025   -2.8763 C   0  0  0  0  0  0  0  0  0  0  0  0
    3.9128   34.6545   -2.4777 C   0  0  0  0  0  0  0  0  0  0  0  0
    4.2772   33.4877   -3.1022 O   0  0  0  0  0  0  0  0  0  0  0  0
    4.7199   35.0605   -1.4169 C   0  0  0  0  0  0  0  0  0  0  0  0
    4.3986   36.2206   -0.7183 C   0  0  0  0  0  0  0  0  0  0  0  0
    5.1887   36.6394    0.3147 O   0  0  0  0  0  0  0  0  0  0  0  0
    3.7724   33.1644   -3.8224 H   0  0  0  0  0  0  0  0  0  0  0  0
    5.9501   36.1473    0.5515 H   0  0  0  0  0  0  0  0  0  0  0  0
    1.9028   39.0758   -1.0890 C   0  0  0  0  0  0  0  0  0  0  0  0
    2.9047   38.2352   -0.3113 C   0  0  0  0  0  0  0  0  0  0  0  0
    0.3482   33.1727   -3.1201 C   0  0  0  0  0  0  0  0  0  0  0  0
   -0.9927   33.3574   -2.7544 C   0  0  0  0  0  0  0  0  0  0  0  0
   -1.5036   32.5442   -1.7638 C   0  0  0  0  0  0  0  0  0  0  0  0
   -0.7401   31.5804   -1.1442 C   0  0  0  0  0  0  0  0  0  0  0  0
    0.5791   31.3719   -1.4777 C   0  0  0  0  0  0  0  0  0  0  0  0
    1.1193   32.1818   -2.4748 C   0  0  0  0  0  0  0  0  0  0  0  0
    2.4112   32.0182   -2.8006 F   0  0  0  0  0  0  0  0  0  0  0  0
   -1.4368   30.8997   -0.1954 O   0  0  0  0  0  0  0  0  0  0  0  0
   -2.7271   31.5393   -0.2904 C   0  0  0  0  0  0  0  0  0  0  0  0
   -2.7741   32.5871   -1.2813 O   0  0  0  0  0  0  0  0  0  0  0  0
   -0.5303   33.3630   -6.1385 C   0  0  0  0  0  0  0  0  0  0  0  0
   -1.0897   32.3256   -5.8249 O   0  0  0  0  0  0  0  0  0  0  0  0
   -0.8800   34.0101   -7.2722 O   0  0  0  0  0  0  0  0  0  0  0  0
   -0.4476   34.8068   -7.5093 H   0  0  0  0  0  0  0  0  0  0  0  0
 17 18  1  0
 18  7  1  0
  7  8  2  0
  8  9  1  0
  9  1  1  0
  1  2  2  0
  2  3  1  0
  3  4  1  0
  4 29  1  0
 29 30  2  0
 29 31  1  0
  4  5  2  0
  5 19  1  0
 19 20  2  0
 20 21  1  0
 21 22  2  0
 22 23  1  0
 23 24  2  0
 24 25  1  0
 22 26  1  0
 26 27  1  0
 27 28  1  0
  9 10  2  0
 10 11  1  0
 10 12  1  0
 12 13  2  0
 13 14  1  0
 13  7  1  0
  5  1  1  0
 24 19  1  0
 28 21  1  0
  3  6  1  0
 31 32  1  0
 11 15  1  0
 14 16  1  0
M  END
> <minimizedAffinity>
-9.01066

> <CNNscore>
0.2985900342

> <CNNaffinity>
5.7250103951

> <CNN_VS>
1.7094310522

> <CNNaffinity_variance>
0.1025745645

$$$$



 32 35  0  0  0  0  0  0  0  0999 V2000
    2.9236   36.3289   -4.9937 C   0  0  0  0  0  0  0  0  0  0  0  0
    3.2930   36.7157   -6.2307 N   0  0  0  0  0  0  0  0  0  0  0  0
    4.2808   37.5990   -6.0215 N   0  0  0  0  0  0  0  0  0  0  0  0
    4.6462   37.7447   -4.7147 C   0  0  0  0  0  0  0  0  0  0  0  0
    3.7670   36.9392   -4.0083 C   0  0  0  0  0  0  0  0  0  0  0  0
    4.7080   38.1019   -6.7521 H   0  0  0  0  0  0  0  0  0  0  0  0
    0.6885   33.6464   -3.4942 C   0  0  0  0  0  0  0  0  0  0  0  0
    1.7020   34.6107   -3.6467 C   0  0  0  0  0  0  0  0  0  0  0  0
    1.8262   35.3641   -4.8246 C   0  0  0  0  0  0  0  0  0  0  0  0
    0.8721   35.1613   -5.8366 C   0  0  0  0  0  0  0  0  0  0  0  0
    0.8715   35.8873   -7.0016 O   0  0  0  0  0  0  0  0  0  0  0  0
   -0.1337   34.2055   -5.7090 C   0  0  0  0  0  0  0  0  0  0  0  0
   -0.2130   33.4478   -4.5441 C   0  0  0  0  0  0  0  0  0  0  0  0
   -1.1846   32.4966   -4.4104 O   0  0  0  0  0  0  0  0  0  0  0  0
    1.5238   36.5447   -7.1443 H   0  0  0  0  0  0  0  0  0  0  0  0
   -1.7966   32.3511   -5.1048 H   0  0  0  0  0  0  0  0  0  0  0  0
    1.9682   32.2063   -1.8879 C   0  0  0  0  0  0  0  0  0  0  0  0
    0.6229   32.8321   -2.2250 C   0  0  0  0  0  0  0  0  0  0  0  0
    3.8188   36.7591   -2.5696 C   0  0  0  0  0  0  0  0  0  0  0  0
    3.3196   37.7615   -1.7259 C   0  0  0  0  0  0  0  0  0  0  0  0
    3.4171   37.5592   -0.3646 C   0  0  0  0  0  0  0  0  0  0  0  0
    3.9813   36.4208    0.1659 C   0  0  0  0  0  0  0  0  0  0  0  0
    4.4815   35.4170   -0.6323 C   0  0  0  0  0  0  0  0  0  0  0  0
    4.3962   35.5981   -2.0114 C   0  0  0  0  0  0  0  0  0  0  0  0
    4.9009   34.6471   -2.8131 F   0  0  0  0  0  0  0  0  0  0  0  0
    3.9822   36.4294    1.5257 O   0  0  0  0  0  0  0  0  0  0  0  0
    3.3501   37.6992    1.7927 C   0  0  0  0  0  0  0  0  0  0  0  0
    2.9933   38.4228    0.5964 O   0  0  0  0  0  0  0  0  0  0  0  0
    5.7329   38.5720   -4.2925 C   0  0  0  0  0  0  0  0  0  0  0  0
    5.7055   39.5958   -3.6301 O   0  0  0  0  0  0  0  0  0  0  0  0
    6.9118   38.0669   -4.7182 O   0  0  0  0  0  0  0  0  0  0  0  0
    6.9282   37.2802   -5.2268 H   0  0  0  0  0  0  0  0  0  0  0  0
 17 18  1  0
 18  7  1  0
  7  8  2  0
  8  9  1  0
  9  1  1  0
  1  2  2  0
  2  3  1  0
  3  4  1  0
  4 29  1  0
 29 30  2  0
 29 31  1  0
  4  5  2  0
  5 19  1  0
 19 20  2  0
 20 21  1  0
 21 22  2  0
 22 23  1  0
 23 24  2  0
 24 25  1  0
 22 26  1  0
 26 27  1  0
 27 28  1  0
  9 10  2  0
 10 11  1  0
 10 12  1  0
 12 13  2  0
 13 14  1  0
 13  7  1  0
  5  1  1  0
 24 19  1  0
 28 21  1  0
  3  6  1  0
 31 32  1  0
 11 15  1  0
 14 16  1  0
M  END
> <minimizedAffinity>
-8.88086

> <CNNscore>
0.2904860675

> <CNNaffinity>
5.6412596703

> <CNN_VS>
1.6387072802

> <CNNaffinity_variance>
0.1831731796

$$$$



 32 35  0  0  0  0  0  0  0  0999 V2000
    1.3296   35.8418   -4.5098 C   0  0  0  0  0  0  0  0  0  0  0  0
    1.2195   36.4481   -5.7084 N   0  0  0  0  0  0  0  0  0  0  0  0
    0.5221   35.5802   -6.4568 N   0  0  0  0  0  0  0  0  0  0  0  0
    0.0853   34.4744   -5.7870 C   0  0  0  0  0  0  0  0  0  0  0  0
    0.6094   34.6024   -4.5104 C   0  0  0  0  0  0  0  0  0  0  0  0
    0.3400   35.7292   -7.4128 H   0  0  0  0  0  0  0  0  0  0  0  0
    2.2221   38.2423   -1.7024 C   0  0  0  0  0  0  0  0  0  0  0  0
    1.5050   37.5704   -2.7097 C   0  0  0  0  0  0  0  0  0  0  0  0
    2.0685   36.4994   -3.4209 C   0  0  0  0  0  0  0  0  0  0  0  0
    3.3617   36.0816   -3.0621 C   0  0  0  0  0  0  0  0  0  0  0  0
    3.9784   35.0090   -3.6565 O   0  0  0  0  0  0  0  0  0  0  0  0
    4.0918   36.7388   -2.0738 C   0  0  0  0  0  0  0  0  0  0  0  0
    3.5220   37.8201   -1.4080 C   0  0  0  0  0  0  0  0  0  0  0  0
    4.2310   38.4838   -0.4470 O   0  0  0  0  0  0  0  0  0  0  0  0
    3.5366   34.5276   -4.3280 H   0  0  0  0  0  0  0  0  0  0  0  0
    5.1034   38.2134   -0.2378 H   0  0  0  0  0  0  0  0  0  0  0  0
    1.8581   40.7240   -1.7236 C   0  0  0  0  0  0  0  0  0  0  0  0
    1.5878   39.4154   -0.9956 C   0  0  0  0  0  0  0  0  0  0  0  0
    0.3604   33.6562   -3.4392 C   0  0  0  0  0  0  0  0  0  0  0  0
    1.4257   32.9208   -2.9007 C   0  0  0  0  0  0  0  0  0  0  0  0
    1.1364   32.0115   -1.9042 C   0  0  0  0  0  0  0  0  0  0  0  0
   -0.1460   31.8184   -1.4417 C   0  0  0  0  0  0  0  0  0  0  0  0
   -1.2154   32.5224   -1.9474 C   0  0  0  0  0  0  0  0  0  0  0  0
   -0.9495   33.4463   -2.9564 C   0  0  0  0  0  0  0  0  0  0  0  0
   -1.9778   34.1270   -3.4865 F   0  0  0  0  0  0  0  0  0  0  0  0
   -0.2071   30.8734   -0.4658 O   0  0  0  0  0  0  0  0  0  0  0  0
    1.1822   30.4963   -0.3614 C   0  0  0  0  0  0  0  0  0  0  0  0
    2.0390   31.2123   -1.2753 O   0  0  0  0  0  0  0  0  0  0  0  0
   -0.7443   33.4742   -6.3829 C   0  0  0  0  0  0  0  0  0  0  0  0
   -0.8692   32.2998   -6.0786 O   0  0  0  0  0  0  0  0  0  0  0  0
   -1.4614   33.9938   -7.4037 O   0  0  0  0  0  0  0  0  0  0  0  0
   -1.3622   34.8967   -7.6341 H   0  0  0  0  0  0  0  0  0  0  0  0
 17 18  1  0
 18  7  1  0
  7  8  2  0
  8  9  1  0
  9  1  1  0
  1  2  2  0
  2  3  1  0
  3  4  1  0
  4 29  1  0
 29 30  2  0
 29 31  1  0
  4  5  2  0
  5 19  1  0
 19 20  2  0
 20 21  1  0
 21 22  2  0
 22 23  1  0
 23 24  2  0
 24 25  1  0
 22 26  1  0
 26 27  1  0
 27 28  1  0
  9 10  2  0
 10 11  1  0
 10 12  1  0
 12 13  2  0
 13 14  1  0
 13  7  1  0
  5  1  1  0
 24 19  1  0
 28 21  1  0
  3  6  1  0
 31 32  1  0
 11 15  1  0
 14 16  1  0
M  END
> <minimizedAffinity>
-7.58447

> <CNNscore>
0.2239861786

> <CNNaffinity>
5.5079083443

> <CNN_VS>
1.2336953878

> <CNNaffinity_variance>
0.2388789505

$$$$
