


 37 40  0  0  0  0  0  0  0  0999 V2000
   23.2841    4.9743   57.6948 C   0  0  0  0  0  0  0  0  0  0  0  0
   22.9157    5.8162   56.2706 S   0  0  0  0  0  0  0  0  0  0  0  0
   23.9559    7.0963   56.6744 C   0  0  0  0  0  0  0  0  0  0  0  0
   24.5924    6.8937   57.8826 C   0  0  0  0  0  0  0  0  0  0  0  0
   24.2122    5.6357   58.5014 C   0  0  0  0  0  0  0  0  0  0  0  0
   25.5063    7.9189   58.3567 C   0  0  0  0  0  0  0  0  0  0  0  0
   25.1143    9.2622   58.3534 C   0  0  0  0  0  0  0  0  0  0  0  0
   25.9778   10.2398   58.8480 C   0  0  0  0  0  0  0  0  0  0  0  0
   27.2303    9.8789   59.3452 C   0  0  0  0  0  0  0  0  0  0  0  0
   27.6247    8.5413   59.3464 C   0  0  0  0  0  0  0  0  0  0  0  0
   26.7656    7.5601   58.8510 C   0  0  0  0  0  0  0  0  0  0  0  0
   23.0294    2.5127   56.0154 O   0  0  0  0  0  0  0  0  0  0  0  0
   22.5932    2.6392   57.1536 C   0  0  0  0  0  0  0  0  0  0  0  0
   22.6926    3.7489   57.9759 N   0  0  0  0  0  0  0  0  0  0  0  0
   22.2945    3.6583   58.8717 H   0  0  0  0  0  0  0  0  0  0  0  0
   21.8512    1.5150   57.8509 C   0  0  0  0  0  0  0  0  0  0  0  0
   22.5764    0.1868   57.6802 C   0  0  0  0  0  0  0  0  0  0  0  0
   21.9807   -0.5736   56.5806 N   0  0  0  0  0  0  0  0  0  0  0  0
   22.4724   -0.6581   55.7319 H   0  0  0  0  0  0  0  0  0  0  0  0
   20.7298   -1.1823   56.7089 C   0  0  0  0  0  0  0  0  0  0  0  0
   20.6039   -2.2527   57.6083 C   0  0  0  0  0  0  0  0  0  0  0  0
   19.3980   -2.9472   57.7554 C   0  0  0  0  0  0  0  0  0  0  0  0
   18.2966   -2.6003   56.9782 C   0  0  0  0  0  0  0  0  0  0  0  0
   18.4113   -1.5709   56.0495 C   0  0  0  0  0  0  0  0  0  0  0  0
   19.6226   -0.8804   55.9074 C   0  0  0  0  0  0  0  0  0  0  0  0
   24.6539    5.0360   59.7767 C   0  0  0  0  0  0  0  0  0  0  0  0
   24.4141    5.5845   60.8538 O   0  0  0  0  0  0  0  0  0  0  0  0
   25.3297    3.8424   59.7170 N   0  0  0  0  0  0  0  0  0  0  0  0
   25.5813    3.4834   58.8355 H   0  0  0  0  0  0  0  0  0  0  0  0
   25.6848    3.0947   60.8995 C   0  0  0  0  0  0  0  0  0  0  0  0
   24.7669    1.9096   61.0587 C   0  0  0  0  0  0  0  0  0  0  0  0
   25.2540    0.6032   60.8999 C   0  0  0  0  0  0  0  0  0  0  0  0
   24.3930   -0.4905   61.0133 C   0  0  0  0  0  0  0  0  0  0  0  0
   23.0412   -0.2828   61.2802 C   0  0  0  0  0  0  0  0  0  0  0  0
   21.9827   -1.6312   61.4191 Cl  0  0  0  0  0  0  0  0  0  0  0  0
   22.5403    1.0086   61.4280 C   0  0  0  0  0  0  0  0  0  0  0  0
   23.4004    2.1026   61.3126 C   0  0  0  0  0  0  0  0  0  0  0  0
 12 13  2  0
 13 16  1  0
 16 17  1  0
 17 18  1  0
 18 20  1  0
 20 21  2  0
 21 22  1  0
 22 23  2  0
 23 24  1  0
 24 25  2  0
 13 14  1  0
 14  1  1  0
  1  2  1  0
  2  3  1  0
  3  4  2  0
  4  6  1  0
  6  7  2  0
  7  8  1  0
  8  9  2  0
  9 10  1  0
 10 11  2  0
  4  5  1  0
  5 26  1  0
 26 27  2  0
 26 28  1  0
 28 30  1  0
 30 31  1  0
 31 32  2  0
 32 33  1  0
 33 34  2  0
 34 35  1  0
 34 36  1  0
 36 37  2  0
 25 20  1  0
  5  1  2  0
 37 31  1  0
 11  6  1  0
 18 19  1  0
 14 15  1  0
 28 29  1  0
M  END
> <minimizedAffinity>
-9.62807

> <CNNscore>
0.9510377049

> <CNNaffinity>
7.7086844444

> <CNN_VS>
7.3312497139

> <CNNaffinity_variance>
0.1073828936

$$$$



 37 40  0  0  0  0  0  0  0  0999 V2000
   23.2186    4.8462   57.7056 C   0  0  0  0  0  0  0  0  0  0  0  0
   22.8614    5.6719   56.2690 S   0  0  0  0  0  0  0  0  0  0  0  0
   23.8843    6.9652   56.6749 C   0  0  0  0  0  0  0  0  0  0  0  0
   24.5066    6.7794   57.8931 C   0  0  0  0  0  0  0  0  0  0  0  0
   24.1298    5.5234   58.5182 C   0  0  0  0  0  0  0  0  0  0  0  0
   25.4047    7.8172   58.3699 C   0  0  0  0  0  0  0  0  0  0  0  0
   26.6462    7.4724   58.9155 C   0  0  0  0  0  0  0  0  0  0  0  0
   27.5238    8.4727   59.3340 C   0  0  0  0  0  0  0  0  0  0  0  0
   27.1644    9.8148   59.2088 C   0  0  0  0  0  0  0  0  0  0  0  0
   25.9262   10.1610   58.6685 C   0  0  0  0  0  0  0  0  0  0  0  0
   25.0441    9.1643   58.2504 C   0  0  0  0  0  0  0  0  0  0  0  0
   22.9016    2.4084   56.0022 O   0  0  0  0  0  0  0  0  0  0  0  0
   22.5050    2.5198   57.1564 C   0  0  0  0  0  0  0  0  0  0  0  0
   22.6348    3.6179   57.9900 N   0  0  0  0  0  0  0  0  0  0  0  0
   22.2675    3.5155   58.8976 H   0  0  0  0  0  0  0  0  0  0  0  0
   21.7853    1.3872   57.8632 C   0  0  0  0  0  0  0  0  0  0  0  0
   20.3725    1.2097   57.3231 C   0  0  0  0  0  0  0  0  0  0  0  0
   20.4131    0.5562   56.0141 N   0  0  0  0  0  0  0  0  0  0  0  0
   21.2728    0.2231   55.6687 H   0  0  0  0  0  0  0  0  0  0  0  0
   19.2588    0.3946   55.2438 C   0  0  0  0  0  0  0  0  0  0  0  0
   19.0196    1.3132   54.2097 C   0  0  0  0  0  0  0  0  0  0  0  0
   17.8609    1.2496   53.4277 C   0  0  0  0  0  0  0  0  0  0  0  0
   16.8993    0.2773   53.6875 C   0  0  0  0  0  0  0  0  0  0  0  0
   17.0953   -0.6164   54.7354 C   0  0  0  0  0  0  0  0  0  0  0  0
   18.2581   -0.5460   55.5146 C   0  0  0  0  0  0  0  0  0  0  0  0
   24.5601    4.9393   59.8046 C   0  0  0  0  0  0  0  0  0  0  0  0
   24.3479    5.5214   60.8697 O   0  0  0  0  0  0  0  0  0  0  0  0
   25.1934    3.7217   59.7692 N   0  0  0  0  0  0  0  0  0  0  0  0
   25.4256    3.3331   58.8949 H   0  0  0  0  0  0  0  0  0  0  0  0
   25.5313    2.9904   60.9670 C   0  0  0  0  0  0  0  0  0  0  0  0
   24.6293    1.7917   61.1144 C   0  0  0  0  0  0  0  0  0  0  0  0
   25.1314    0.4941   60.9321 C   0  0  0  0  0  0  0  0  0  0  0  0
   24.2847   -0.6119   61.0349 C   0  0  0  0  0  0  0  0  0  0  0  0
   22.9325   -0.4251   61.3146 C   0  0  0  0  0  0  0  0  0  0  0  0
   21.8917   -1.7886   61.4403 Cl  0  0  0  0  0  0  0  0  0  0  0  0
   22.4168    0.8575   61.4857 C   0  0  0  0  0  0  0  0  0  0  0  0
   23.2624    1.9638   61.3810 C   0  0  0  0  0  0  0  0  0  0  0  0
 12 13  2  0
 13 16  1  0
 16 17  1  0
 17 18  1  0
 18 20  1  0
 20 21  2  0
 21 22  1  0
 22 23  2  0
 23 24  1  0
 24 25  2  0
 13 14  1  0
 14  1  1  0
  1  2  1  0
  2  3  1  0
  3  4  2  0
  4  6  1  0
  6  7  2  0
  7  8  1  0
  8  9  2  0
  9 10  1  0
 10 11  2  0
  4  5  1  0
  5 26  1  0
 26 27  2  0
 26 28  1  0
 28 30  1  0
 30 31  1  0
 31 32  2  0
 32 33  1  0
 33 34  2  0
 34 35  1  0
 34 36  1  0
 36 37  2  0
 25 20  1  0
  5  1  2  0
 37 31  1  0
 11  6  1  0
 18 19  1  0
 14 15  1  0
 28 29  1  0
M  END
> <minimizedAffinity>
-9.03399

> <CNNscore>
0.7953699231

> <CNNaffinity>
7.0272870064

> <CNN_VS>
5.5892925262

> <CNNaffinity_variance>
0.1891863942

$$$$



 37 40  0  0  0  0  0  0  0  0999 V2000
   25.3874    6.8906   58.8121 C   0  0  0  0  0  0  0  0  0  0  0  0
   24.5028    8.0364   57.9304 S   0  0  0  0  0  0  0  0  0  0  0  0
   25.5900    9.2809   58.3215 C   0  0  0  0  0  0  0  0  0  0  0  0
   26.6303    8.8387   59.1139 C   0  0  0  0  0  0  0  0  0  0  0  0
   26.5321    7.4201   59.4109 C   0  0  0  0  0  0  0  0  0  0  0  0
   27.6315    9.8045   59.5332 C   0  0  0  0  0  0  0  0  0  0  0  0
   28.9652    9.6459   59.1401 C   0  0  0  0  0  0  0  0  0  0  0  0
   29.9166   10.5970   59.5090 C   0  0  0  0  0  0  0  0  0  0  0  0
   29.5393   11.7045   60.2687 C   0  0  0  0  0  0  0  0  0  0  0  0
   28.2115   11.8630   60.6647 C   0  0  0  0  0  0  0  0  0  0  0  0
   27.2566   10.9136   60.3000 C   0  0  0  0  0  0  0  0  0  0  0  0
   24.1157    5.3912   61.0660 O   0  0  0  0  0  0  0  0  0  0  0  0
   24.3908    4.9181   59.9695 C   0  0  0  0  0  0  0  0  0  0  0  0
   24.9680    5.5684   58.8917 N   0  0  0  0  0  0  0  0  0  0  0  0
   25.0973    5.0260   58.0803 H   0  0  0  0  0  0  0  0  0  0  0  0
   24.1024    3.4675   59.6337 C   0  0  0  0  0  0  0  0  0  0  0  0
   24.2788    2.5736   60.8541 C   0  0  0  0  0  0  0  0  0  0  0  0
   22.9913    2.3729   61.5206 N   0  0  0  0  0  0  0  0  0  0  0  0
   22.5594    3.1335   61.9724 H   0  0  0  0  0  0  0  0  0  0  0  0
   22.3619    1.1257   61.5299 C   0  0  0  0  0  0  0  0  0  0  0  0
   23.1035    0.0072   61.1180 C   0  0  0  0  0  0  0  0  0  0  0  0
   22.5294   -1.2671   61.0501 C   0  0  0  0  0  0  0  0  0  0  0  0
   21.1852   -1.4418   61.3664 C   0  0  0  0  0  0  0  0  0  0  0  0
   20.4201   -0.3401   61.7354 C   0  0  0  0  0  0  0  0  0  0  0  0
   21.0020    0.9332   61.8004 C   0  0  0  0  0  0  0  0  0  0  0  0
   27.4248    6.5557   60.2089 C   0  0  0  0  0  0  0  0  0  0  0  0
   27.9778    5.5761   59.7057 O   0  0  0  0  0  0  0  0  0  0  0  0
   27.6233    6.8907   61.5255 N   0  0  0  0  0  0  0  0  0  0  0  0
   27.0937    7.6245   61.9132 H   0  0  0  0  0  0  0  0  0  0  0  0
   28.5801    6.2065   62.3620 C   0  0  0  0  0  0  0  0  0  0  0  0
   29.1612    7.1615   63.3732 C   0  0  0  0  0  0  0  0  0  0  0  0
   29.3387    6.7665   64.7080 C   0  0  0  0  0  0  0  0  0  0  0  0
   29.8444    7.6655   65.6495 C   0  0  0  0  0  0  0  0  0  0  0  0
   30.1693    8.9640   65.2622 C   0  0  0  0  0  0  0  0  0  0  0  0
   30.7916   10.0695   66.4234 Cl  0  0  0  0  0  0  0  0  0  0  0  0
   29.9869    9.3747   63.9436 C   0  0  0  0  0  0  0  0  0  0  0  0
   29.4794    8.4768   63.0023 C   0  0  0  0  0  0  0  0  0  0  0  0
 12 13  2  0
 13 16  1  0
 16 17  1  0
 17 18  1  0
 18 20  1  0
 20 21  2  0
 21 22  1  0
 22 23  2  0
 23 24  1  0
 24 25  2  0
 13 14  1  0
 14  1  1  0
  1  2  1  0
  2  3  1  0
  3  4  2  0
  4  6  1  0
  6  7  2  0
  7  8  1  0
  8  9  2  0
  9 10  1  0
 10 11  2  0
  4  5  1  0
  5 26  1  0
 26 27  2  0
 26 28  1  0
 28 30  1  0
 30 31  1  0
 31 32  2  0
 32 33  1  0
 33 34  2  0
 34 35  1  0
 34 36  1  0
 36 37  2  0
 25 20  1  0
  5  1  2  0
 37 31  1  0
 11  6  1  0
 18 19  1  0
 14 15  1  0
 28 29  1  0
M  END
> <minimizedAffinity>
-9.16206

> <CNNscore>
0.7743378878

> <CNNaffinity>
7.2860341072

> <CNN_VS>
5.6418523788

> <CNNaffinity_variance>
0.0275204089

$$$$



 37 40  0  0  0  0  0  0  0  0999 V2000
   19.9510    4.5193   55.7860 C   0  0  0  0  0  0  0  0  0  0  0  0
   19.0326    5.9323   55.6045 S   0  0  0  0  0  0  0  0  0  0  0  0
   20.2955    6.9115   56.1789 C   0  0  0  0  0  0  0  0  0  0  0  0
   21.4198    6.1797   56.5050 C   0  0  0  0  0  0  0  0  0  0  0  0
   21.2380    4.7574   56.2722 C   0  0  0  0  0  0  0  0  0  0  0  0
   22.5761    6.8922   57.0210 C   0  0  0  0  0  0  0  0  0  0  0  0
   22.5663    8.2901   57.0842 C   0  0  0  0  0  0  0  0  0  0  0  0
   23.6609    8.9697   57.6188 C   0  0  0  0  0  0  0  0  0  0  0  0
   24.7638    8.2569   58.0896 C   0  0  0  0  0  0  0  0  0  0  0  0
   24.7776    6.8639   58.0245 C   0  0  0  0  0  0  0  0  0  0  0  0
   23.6862    6.1797   57.4889 C   0  0  0  0  0  0  0  0  0  0  0  0
   20.0032    3.0007   53.2099 O   0  0  0  0  0  0  0  0  0  0  0  0
   19.4674    2.6190   54.2439 C   0  0  0  0  0  0  0  0  0  0  0  0
   19.4233    3.2755   55.4624 N   0  0  0  0  0  0  0  0  0  0  0  0
   18.9600    2.8015   56.1904 H   0  0  0  0  0  0  0  0  0  0  0  0
   18.7489    1.2856   54.3224 C   0  0  0  0  0  0  0  0  0  0  0  0
   17.2484    1.4555   54.1256 C   0  0  0  0  0  0  0  0  0  0  0  0
   16.9877    2.3720   53.0146 N   0  0  0  0  0  0  0  0  0  0  0  0
   17.3479    3.2875   53.0510 H   0  0  0  0  0  0  0  0  0  0  0  0
   16.2388    1.9763   51.9035 C   0  0  0  0  0  0  0  0  0  0  0  0
   16.7988    1.0297   51.0313 C   0  0  0  0  0  0  0  0  0  0  0  0
   16.1339    0.6211   49.8698 C   0  0  0  0  0  0  0  0  0  0  0  0
   14.9012    1.1783   49.5418 C   0  0  0  0  0  0  0  0  0  0  0  0
   14.3475    2.1500   50.3693 C   0  0  0  0  0  0  0  0  0  0  0  0
   15.0198    2.5545   51.5305 C   0  0  0  0  0  0  0  0  0  0  0  0
   22.1765    3.6362   56.4799 C   0  0  0  0  0  0  0  0  0  0  0  0
   22.8690    3.2073   55.5553 O   0  0  0  0  0  0  0  0  0  0  0  0
   22.2559    3.0995   57.7411 N   0  0  0  0  0  0  0  0  0  0  0  0
   21.6220    3.4077   58.4284 H   0  0  0  0  0  0  0  0  0  0  0  0
   23.2346    2.0998   58.0961 C   0  0  0  0  0  0  0  0  0  0  0  0
   22.5805    0.9873   58.8751 C   0  0  0  0  0  0  0  0  0  0  0  0
   23.3340   -0.1076   59.3251 C   0  0  0  0  0  0  0  0  0  0  0  0
   22.7176   -1.1533   60.0159 C   0  0  0  0  0  0  0  0  0  0  0  0
   21.3454   -1.1115   60.2547 C   0  0  0  0  0  0  0  0  0  0  0  0
   20.5885   -2.4005   61.1053 Cl  0  0  0  0  0  0  0  0  0  0  0  0
   20.5819   -0.0373   59.8033 C   0  0  0  0  0  0  0  0  0  0  0  0
   21.1974    1.0074   59.1107 C   0  0  0  0  0  0  0  0  0  0  0  0
 12 13  2  0
 13 16  1  0
 16 17  1  0
 17 18  1  0
 18 20  1  0
 20 21  2  0
 21 22  1  0
 22 23  2  0
 23 24  1  0
 24 25  2  0
 13 14  1  0
 14  1  1  0
  1  2  1  0
  2  3  1  0
  3  4  2  0
  4  6  1  0
  6  7  2  0
  7  8  1  0
  8  9  2  0
  9 10  1  0
 10 11  2  0
  4  5  1  0
  5 26  1  0
 26 27  2  0
 26 28  1  0
 28 30  1  0
 30 31  1  0
 31 32  2  0
 32 33  1  0
 33 34  2  0
 34 35  1  0
 34 36  1  0
 36 37  2  0
 25 20  1  0
  5  1  2  0
 37 31  1  0
 11  6  1  0
 18 19  1  0
 14 15  1  0
 28 29  1  0
M  END
> <minimizedAffinity>
-7.75215

> <CNNscore>
0.6458616257

> <CNNaffinity>
6.3321976662

> <CNN_VS>
4.0897235870

> <CNNaffinity_variance>
0.4333615005

$$$$



 37 40  0  0  0  0  0  0  0  0999 V2000
   23.3059    4.5703   58.1176 C   0  0  0  0  0  0  0  0  0  0  0  0
   23.3813    5.8025   56.9563 S   0  0  0  0  0  0  0  0  0  0  0  0
   24.6663    6.5736   57.7551 C   0  0  0  0  0  0  0  0  0  0  0  0
   25.0507    5.9031   58.8989 C   0  0  0  0  0  0  0  0  0  0  0  0
   24.2595    4.7066   59.1283 C   0  0  0  0  0  0  0  0  0  0  0  0
   26.1360    6.4598   59.6883 C   0  0  0  0  0  0  0  0  0  0  0  0
   26.6386    7.7311   59.3893 C   0  0  0  0  0  0  0  0  0  0  0  0
   27.6521    8.2806   60.1747 C   0  0  0  0  0  0  0  0  0  0  0  0
   28.1639    7.5638   61.2565 C   0  0  0  0  0  0  0  0  0  0  0  0
   27.6672    6.2952   61.5545 C   0  0  0  0  0  0  0  0  0  0  0  0
   26.6551    5.7405   60.7708 C   0  0  0  0  0  0  0  0  0  0  0  0
   22.9653    2.4447   56.0413 O   0  0  0  0  0  0  0  0  0  0  0  0
   22.2495    2.5921   57.0250 C   0  0  0  0  0  0  0  0  0  0  0  0
   22.3690    3.5491   58.0187 N   0  0  0  0  0  0  0  0  0  0  0  0
   21.7073    3.4997   58.7461 H   0  0  0  0  0  0  0  0  0  0  0  0
   21.0728    1.6747   57.2974 C   0  0  0  0  0  0  0  0  0  0  0  0
   20.0422    1.7530   56.1789 C   0  0  0  0  0  0  0  0  0  0  0  0
   20.0450    0.5108   55.4048 N   0  0  0  0  0  0  0  0  0  0  0  0
   20.6845    0.4069   54.6635 H   0  0  0  0  0  0  0  0  0  0  0  0
   19.1601   -0.5307   55.6946 C   0  0  0  0  0  0  0  0  0  0  0  0
   19.6324   -1.6051   56.4648 C   0  0  0  0  0  0  0  0  0  0  0  0
   18.8235   -2.7097   56.7540 C   0  0  0  0  0  0  0  0  0  0  0  0
   17.5279   -2.7739   56.2492 C   0  0  0  0  0  0  0  0  0  0  0  0
   17.0538   -1.7405   55.4475 C   0  0  0  0  0  0  0  0  0  0  0  0
   17.8702   -0.6378   55.1617 C   0  0  0  0  0  0  0  0  0  0  0  0
   24.3407    3.7119   60.2169 C   0  0  0  0  0  0  0  0  0  0  0  0
   23.8625    3.9454   61.3283 O   0  0  0  0  0  0  0  0  0  0  0  0
   24.9572    2.5167   59.9406 N   0  0  0  0  0  0  0  0  0  0  0  0
   25.4059    2.4042   59.0716 H   0  0  0  0  0  0  0  0  0  0  0  0
   24.9714    1.4189   60.8777 C   0  0  0  0  0  0  0  0  0  0  0  0
   23.7517    0.5547   60.6825 C   0  0  0  0  0  0  0  0  0  0  0  0
   23.6593   -0.3111   59.5821 C   0  0  0  0  0  0  0  0  0  0  0  0
   22.5127   -1.0840   59.3857 C   0  0  0  0  0  0  0  0  0  0  0  0
   21.4522   -0.9904   60.2848 C   0  0  0  0  0  0  0  0  0  0  0  0
   20.0411   -1.9429   60.0407 Cl  0  0  0  0  0  0  0  0  0  0  0  0
   21.5241   -0.1262   61.3750 C   0  0  0  0  0  0  0  0  0  0  0  0
   22.6694    0.6483   61.5706 C   0  0  0  0  0  0  0  0  0  0  0  0
 12 13  2  0
 13 16  1  0
 16 17  1  0
 17 18  1  0
 18 20  1  0
 20 21  2  0
 21 22  1  0
 22 23  2  0
 23 24  1  0
 24 25  2  0
 13 14  1  0
 14  1  1  0
  1  2  1  0
  2  3  1  0
  3  4  2  0
  4  6  1  0
  6  7  2  0
  7  8  1  0
  8  9  2  0
  9 10  1  0
 10 11  2  0
  4  5  1  0
  5 26  1  0
 26 27  2  0
 26 28  1  0
 28 30  1  0
 30 31  1  0
 31 32  2  0
 32 33  1  0
 33 34  2  0
 34 35  1  0
 34 36  1  0
 36 37  2  0
 25 20  1  0
  5  1  2  0
 37 31  1  0
 11  6  1  0
 18 19  1  0
 14 15  1  0
 28 29  1  0
M  END
> <minimizedAffinity>
-7.99926

> <CNNscore>
0.3356727660

> <CNNaffinity>
6.6130967140

> <CNN_VS>
2.2198364735

> <CNNaffinity_variance>
0.1499616355

$$$$



 37 40  0  0  0  0  0  0  0  0999 V2000
   23.1907    3.0546   57.2609 C   0  0  0  0  0  0  0  0  0  0  0  0
   22.2969    3.3866   55.8596 S   0  0  0  0  0  0  0  0  0  0  0  0
   22.4942    5.0630   56.0456 C   0  0  0  0  0  0  0  0  0  0  0  0
   23.2410    5.3825   57.1619 C   0  0  0  0  0  0  0  0  0  0  0  0
   23.6701    4.2032   57.8936 C   0  0  0  0  0  0  0  0  0  0  0  0
   23.4795    6.7867   57.4486 C   0  0  0  0  0  0  0  0  0  0  0  0
   24.7397    7.2074   57.8880 C   0  0  0  0  0  0  0  0  0  0  0  0
   24.9780    8.5618   58.1223 C   0  0  0  0  0  0  0  0  0  0  0  0
   23.9616    9.4954   57.9190 C   0  0  0  0  0  0  0  0  0  0  0  0
   22.7038    9.0783   57.4845 C   0  0  0  0  0  0  0  0  0  0  0  0
   22.4598    7.7248   57.2507 C   0  0  0  0  0  0  0  0  0  0  0  0
   21.6072    0.5719   56.7383 O   0  0  0  0  0  0  0  0  0  0  0  0
   22.6224    0.6310   57.4222 C   0  0  0  0  0  0  0  0  0  0  0  0
   23.3967    1.7482   57.6865 N   0  0  0  0  0  0  0  0  0  0  0  0
   24.1928    1.5979   58.2459 H   0  0  0  0  0  0  0  0  0  0  0  0
   23.1990   -0.5981   58.0984 C   0  0  0  0  0  0  0  0  0  0  0  0
   24.0542   -0.2164   59.2993 C   0  0  0  0  0  0  0  0  0  0  0  0
   23.6896   -1.0349   60.4566 N   0  0  0  0  0  0  0  0  0  0  0  0
   24.3631   -1.6322   60.8552 H   0  0  0  0  0  0  0  0  0  0  0  0
   22.4069   -0.9872   61.0081 C   0  0  0  0  0  0  0  0  0  0  0  0
   21.6846   -2.1868   61.1080 C   0  0  0  0  0  0  0  0  0  0  0  0
   20.3753   -2.2139   61.6008 C   0  0  0  0  0  0  0  0  0  0  0  0
   19.7494   -1.0290   61.9773 C   0  0  0  0  0  0  0  0  0  0  0  0
   20.4310    0.1767   61.8462 C   0  0  0  0  0  0  0  0  0  0  0  0
   21.7420    0.1958   61.3511 C   0  0  0  0  0  0  0  0  0  0  0  0
   24.4789    4.0948   59.1245 C   0  0  0  0  0  0  0  0  0  0  0  0
   23.9541    3.8376   60.2094 O   0  0  0  0  0  0  0  0  0  0  0  0
   25.8347    4.2798   59.0122 N   0  0  0  0  0  0  0  0  0  0  0  0
   26.2033    4.5733   58.1478 H   0  0  0  0  0  0  0  0  0  0  0  0
   26.7394    4.0597   60.1152 C   0  0  0  0  0  0  0  0  0  0  0  0
   27.3562    5.3652   60.5483 C   0  0  0  0  0  0  0  0  0  0  0  0
   27.6997    5.5812   61.8916 C   0  0  0  0  0  0  0  0  0  0  0  0
   28.2383    6.8050   62.2951 C   0  0  0  0  0  0  0  0  0  0  0  0
   28.4306    7.8192   61.3590 C   0  0  0  0  0  0  0  0  0  0  0  0
   29.0937    9.3255   61.8583 Cl  0  0  0  0  0  0  0  0  0  0  0  0
   28.0828    7.6242   60.0243 C   0  0  0  0  0  0  0  0  0  0  0  0
   27.5423    6.4015   59.6208 C   0  0  0  0  0  0  0  0  0  0  0  0
 12 13  2  0
 13 16  1  0
 16 17  1  0
 17 18  1  0
 18 20  1  0
 20 21  2  0
 21 22  1  0
 22 23  2  0
 23 24  1  0
 24 25  2  0
 13 14  1  0
 14  1  1  0
  1  2  1  0
  2  3  1  0
  3  4  2  0
  4  6  1  0
  6  7  2  0
  7  8  1  0
  8  9  2  0
  9 10  1  0
 10 11  2  0
  4  5  1  0
  5 26  1  0
 26 27  2  0
 26 28  1  0
 28 30  1  0
 30 31  1  0
 31 32  2  0
 32 33  1  0
 33 34  2  0
 34 35  1  0
 34 36  1  0
 36 37  2  0
 25 20  1  0
  5  1  2  0
 37 31  1  0
 11  6  1  0
 18 19  1  0
 14 15  1  0
 28 29  1  0
M  END
> <minimizedAffinity>
-9.38169

> <CNNscore>
0.3189954460

> <CNNaffinity>
6.1570391655

> <CNN_VS>
1.9640674591

> <CNNaffinity_variance>
1.1329264641

$$$$



 37 40  0  0  0  0  0  0  0  0999 V2000
   23.6545    1.1845   60.0043 C   0  0  0  0  0  0  0  0  0  0  0  0
   23.5413    0.0058   61.2170 S   0  0  0  0  0  0  0  0  0  0  0  0
   22.4762   -0.9422   60.2947 C   0  0  0  0  0  0  0  0  0  0  0  0
   22.2046   -0.3790   59.0639 C   0  0  0  0  0  0  0  0  0  0  0  0
   22.9003    0.8813   58.8691 C   0  0  0  0  0  0  0  0  0  0  0  0
   21.2965   -1.0816   58.1736 C   0  0  0  0  0  0  0  0  0  0  0  0
   20.8489   -2.3663   58.5013 C   0  0  0  0  0  0  0  0  0  0  0  0
   19.9445   -3.0218   57.6657 C   0  0  0  0  0  0  0  0  0  0  0  0
   19.4869   -2.3976   56.5050 C   0  0  0  0  0  0  0  0  0  0  0  0
   19.9340   -1.1187   56.1744 C   0  0  0  0  0  0  0  0  0  0  0  0
   20.8401   -0.4598   57.0057 C   0  0  0  0  0  0  0  0  0  0  0  0
   26.4704    1.4636   60.9728 O   0  0  0  0  0  0  0  0  0  0  0  0
   25.7423    2.3920   60.6416 C   0  0  0  0  0  0  0  0  0  0  0  0
   24.4396    2.3176   60.1777 N   0  0  0  0  0  0  0  0  0  0  0  0
   24.0170    3.1747   59.9412 H   0  0  0  0  0  0  0  0  0  0  0  0
   26.2160    3.8320   60.6925 C   0  0  0  0  0  0  0  0  0  0  0  0
   27.5597    3.9952   59.9945 C   0  0  0  0  0  0  0  0  0  0  0  0
   27.7086    5.3664   59.5047 N   0  0  0  0  0  0  0  0  0  0  0  0
   27.4006    5.5893   58.5966 H   0  0  0  0  0  0  0  0  0  0  0  0
   28.2781    6.3658   60.2975 C   0  0  0  0  0  0  0  0  0  0  0  0
   28.2038    6.2266   61.6924 C   0  0  0  0  0  0  0  0  0  0  0  0
   28.7043    7.2092   62.5538 C   0  0  0  0  0  0  0  0  0  0  0  0
   29.2653    8.3712   62.0317 C   0  0  0  0  0  0  0  0  0  0  0  0
   29.3102    8.5498   60.6528 C   0  0  0  0  0  0  0  0  0  0  0  0
   28.8062    7.5614   59.7965 C   0  0  0  0  0  0  0  0  0  0  0  0
   22.8939    1.7973   57.7108 C   0  0  0  0  0  0  0  0  0  0  0  0
   23.3164    1.4349   56.6114 O   0  0  0  0  0  0  0  0  0  0  0  0
   22.3903    3.0601   57.9023 N   0  0  0  0  0  0  0  0  0  0  0  0
   22.1482    3.3409   58.8143 H   0  0  0  0  0  0  0  0  0  0  0  0
   22.2030    3.9912   56.8153 C   0  0  0  0  0  0  0  0  0  0  0  0
   22.9145    5.2863   57.1135 C   0  0  0  0  0  0  0  0  0  0  0  0
   23.8145    5.3754   58.1864 C   0  0  0  0  0  0  0  0  0  0  0  0
   24.4449    6.5864   58.4810 C   0  0  0  0  0  0  0  0  0  0  0  0
   24.1741    7.7139   57.7082 C   0  0  0  0  0  0  0  0  0  0  0  0
   24.9513    9.2041   58.0730 Cl  0  0  0  0  0  0  0  0  0  0  0  0
   23.2736    7.6442   56.6477 C   0  0  0  0  0  0  0  0  0  0  0  0
   22.6415    6.4341   56.3540 C   0  0  0  0  0  0  0  0  0  0  0  0
 12 13  2  0
 13 16  1  0
 16 17  1  0
 17 18  1  0
 18 20  1  0
 20 21  2  0
 21 22  1  0
 22 23  2  0
 23 24  1  0
 24 25  2  0
 13 14  1  0
 14  1  1  0
  1  2  1  0
  2  3  1  0
  3  4  2  0
  4  6  1  0
  6  7  2  0
  7  8  1  0
  8  9  2  0
  9 10  1  0
 10 11  2  0
  4  5  1  0
  5 26  1  0
 26 27  2  0
 26 28  1  0
 28 30  1  0
 30 31  1  0
 31 32  2  0
 32 33  1  0
 33 34  2  0
 34 35  1  0
 34 36  1  0
 36 37  2  0
 25 20  1  0
  5  1  2  0
 37 31  1  0
 11  6  1  0
 18 19  1  0
 14 15  1  0
 28 29  1  0
M  END
> <minimizedAffinity>
-9.58556

> <CNNscore>
0.3102172017

> <CNNaffinity>
6.4640846252

> <CNN_VS>
2.0052702427

> <CNNaffinity_variance>
0.7667670250

$$$$



 37 40  0  0  0  0  0  0  0  0999 V2000
   30.4976    7.8040   64.9409 C   0  0  0  0  0  0  0  0  0  0  0  0
   31.4676    6.5219   65.4775 S   0  0  0  0  0  0  0  0  0  0  0  0
   31.2438    6.9416   67.1077 C   0  0  0  0  0  0  0  0  0  0  0  0
   30.4308    8.0473   67.2577 C   0  0  0  0  0  0  0  0  0  0  0  0
   29.9715    8.5704   65.9826 C   0  0  0  0  0  0  0  0  0  0  0  0
   30.1626    8.5239   68.6038 C   0  0  0  0  0  0  0  0  0  0  0  0
   31.1665    9.1757   69.3287 C   0  0  0  0  0  0  0  0  0  0  0  0
   30.8939    9.6692   70.6047 C   0  0  0  0  0  0  0  0  0  0  0  0
   29.6225    9.5132   71.1572 C   0  0  0  0  0  0  0  0  0  0  0  0
   28.6213    8.8609   70.4381 C   0  0  0  0  0  0  0  0  0  0  0  0
   28.8895    8.3638   69.1626 C   0  0  0  0  0  0  0  0  0  0  0  0
   28.2004    7.0148   63.1959 O   0  0  0  0  0  0  0  0  0  0  0  0
   29.1968    7.6212   62.8201 C   0  0  0  0  0  0  0  0  0  0  0  0
   30.2800    8.0191   63.5856 N   0  0  0  0  0  0  0  0  0  0  0  0
   30.9840    8.5166   63.1100 H   0  0  0  0  0  0  0  0  0  0  0  0
   29.3706    8.0481   61.3752 C   0  0  0  0  0  0  0  0  0  0  0  0
   29.0385    6.9093   60.4201 C   0  0  0  0  0  0  0  0  0  0  0  0
   27.5995    6.8791   60.1547 N   0  0  0  0  0  0  0  0  0  0  0  0
   27.1413    7.7092   59.8895 H   0  0  0  0  0  0  0  0  0  0  0  0
   26.8617    5.6983   60.2695 C   0  0  0  0  0  0  0  0  0  0  0  0
   25.4635    5.7801   60.1760 C   0  0  0  0  0  0  0  0  0  0  0  0
   24.6521    4.6507   60.3321 C   0  0  0  0  0  0  0  0  0  0  0  0
   25.2272    3.4154   60.6164 C   0  0  0  0  0  0  0  0  0  0  0  0
   26.6080    3.3193   60.7563 C   0  0  0  0  0  0  0  0  0  0  0  0
   27.4139    4.4551   60.5993 C   0  0  0  0  0  0  0  0  0  0  0  0
   29.0942    9.7223   65.6924 C   0  0  0  0  0  0  0  0  0  0  0  0
   29.0952   10.7202   66.4153 O   0  0  0  0  0  0  0  0  0  0  0  0
   28.2883    9.6437   64.5836 N   0  0  0  0  0  0  0  0  0  0  0  0
   28.2490    8.7956   64.0851 H   0  0  0  0  0  0  0  0  0  0  0  0
   27.4967   10.7589   64.1220 C   0  0  0  0  0  0  0  0  0  0  0  0
   28.2674   11.5534   63.0987 C   0  0  0  0  0  0  0  0  0  0  0  0
   27.8188   11.6330   61.7714 C   0  0  0  0  0  0  0  0  0  0  0  0
   28.5543   12.3409   60.8183 C   0  0  0  0  0  0  0  0  0  0  0  0
   29.7434   12.9671   61.1865 C   0  0  0  0  0  0  0  0  0  0  0  0
   30.6477   13.8379   60.0110 Cl  0  0  0  0  0  0  0  0  0  0  0  0
   30.2082   12.8866   62.4972 C   0  0  0  0  0  0  0  0  0  0  0  0
   29.4741   12.1771   63.4501 C   0  0  0  0  0  0  0  0  0  0  0  0
 12 13  2  0
 13 16  1  0
 16 17  1  0
 17 18  1  0
 18 20  1  0
 20 21  2  0
 21 22  1  0
 22 23  2  0
 23 24  1  0
 24 25  2  0
 13 14  1  0
 14  1  1  0
  1  2  1  0
  2  3  1  0
  3  4  2  0
  4  6  1  0
  6  7  2  0
  7  8  1  0
  8  9  2  0
  9 10  1  0
 10 11  2  0
  4  5  1  0
  5 26  1  0
 26 27  2  0
 26 28  1  0
 28 30  1  0
 30 31  1  0
 31 32  2  0
 32 33  1  0
 33 34  2  0
 34 35  1  0
 34 36  1  0
 36 37  2  0
 25 20  1  0
  5  1  2  0
 37 31  1  0
 11  6  1  0
 18 19  1  0
 14 15  1  0
 28 29  1  0
M  END
> <minimizedAffinity>
-7.96031

> <CNNscore>
0.2428285629

> <CNNaffinity>
5.6702008247

> <CNN_VS>
1.3768867254

> <CNNaffinity_variance>
1.1141878366

$$$$



 37 40  0  0  0  0  0  0  0  0999 V2000
   22.2594    4.1574   56.5329 C   0  0  0  0  0  0  0  0  0  0  0  0
   22.8445    5.7329   56.7528 S   0  0  0  0  0  0  0  0  0  0  0  0
   23.7719    5.2762   58.1001 C   0  0  0  0  0  0  0  0  0  0  0  0
   23.6511    3.9315   58.3885 C   0  0  0  0  0  0  0  0  0  0  0  0
   22.7625    3.2477   57.4649 C   0  0  0  0  0  0  0  0  0  0  0  0
   24.3851    3.4056   59.5267 C   0  0  0  0  0  0  0  0  0  0  0  0
   23.7565    2.5342   60.4232 C   0  0  0  0  0  0  0  0  0  0  0  0
   24.4755    1.9978   61.4915 C   0  0  0  0  0  0  0  0  0  0  0  0
   25.8192    2.3297   61.6660 C   0  0  0  0  0  0  0  0  0  0  0  0
   26.4471    3.2007   60.7760 C   0  0  0  0  0  0  0  0  0  0  0  0
   25.7318    3.7413   59.7073 C   0  0  0  0  0  0  0  0  0  0  0  0
   22.6251    4.2464   53.5658 O   0  0  0  0  0  0  0  0  0  0  0  0
   21.5907    3.9278   54.1405 C   0  0  0  0  0  0  0  0  0  0  0  0
   21.3718    3.8597   55.5062 N   0  0  0  0  0  0  0  0  0  0  0  0
   20.4751    3.5634   55.7845 H   0  0  0  0  0  0  0  0  0  0  0  0
   20.3438    3.5315   53.3733 C   0  0  0  0  0  0  0  0  0  0  0  0
   19.0973    4.1549   53.9874 C   0  0  0  0  0  0  0  0  0  0  0  0
   18.1742    4.5762   52.9326 N   0  0  0  0  0  0  0  0  0  0  0  0
   17.9945    5.5358   52.8051 H   0  0  0  0  0  0  0  0  0  0  0  0
   17.5423    3.6467   52.1028 C   0  0  0  0  0  0  0  0  0  0  0  0
   16.1400    3.5881   52.1224 C   0  0  0  0  0  0  0  0  0  0  0  0
   15.4358    2.6500   51.3593 C   0  0  0  0  0  0  0  0  0  0  0  0
   16.1279    1.7271   50.5803 C   0  0  0  0  0  0  0  0  0  0  0  0
   17.5190    1.7388   50.5794 C   0  0  0  0  0  0  0  0  0  0  0  0
   18.2172    2.6811   51.3468 C   0  0  0  0  0  0  0  0  0  0  0  0
   22.3637    1.8268   57.4112 C   0  0  0  0  0  0  0  0  0  0  0  0
   21.1783    1.5021   57.3228 O   0  0  0  0  0  0  0  0  0  0  0  0
   23.3618    0.8849   57.4521 N   0  0  0  0  0  0  0  0  0  0  0  0
   24.2866    1.1806   57.6149 H   0  0  0  0  0  0  0  0  0  0  0  0
   23.1047   -0.5231   57.2650 C   0  0  0  0  0  0  0  0  0  0  0  0
   22.4032   -1.0873   58.4741 C   0  0  0  0  0  0  0  0  0  0  0  0
   22.9772   -0.9742   59.7496 C   0  0  0  0  0  0  0  0  0  0  0  0
   22.3411   -1.5291   60.8622 C   0  0  0  0  0  0  0  0  0  0  0  0
   21.1321   -2.2037   60.7038 C   0  0  0  0  0  0  0  0  0  0  0  0
   20.3509   -2.8865   62.0754 Cl  0  0  0  0  0  0  0  0  0  0  0  0
   20.5562   -2.3351   59.4423 C   0  0  0  0  0  0  0  0  0  0  0  0
   21.1929   -1.7823   58.3291 C   0  0  0  0  0  0  0  0  0  0  0  0
 12 13  2  0
 13 16  1  0
 16 17  1  0
 17 18  1  0
 18 20  1  0
 20 21  2  0
 21 22  1  0
 22 23  2  0
 23 24  1  0
 24 25  2  0
 13 14  1  0
 14  1  1  0
  1  2  1  0
  2  3  1  0
  3  4  2  0
  4  6  1  0
  6  7  2  0
  7  8  1  0
  8  9  2  0
  9 10  1  0
 10 11  2  0
  4  5  1  0
  5 26  1  0
 26 27  2  0
 26 28  1  0
 28 30  1  0
 30 31  1  0
 31 32  2  0
 32 33  1  0
 33 34  2  0
 34 35  1  0
 34 36  1  0
 36 37  2  0
 25 20  1  0
  5  1  2  0
 37 31  1  0
 11  6  1  0
 18 19  1  0
 14 15  1  0
 28 29  1  0
M  END
> <minimizedAffinity>
-9.75924

> <CNNscore>
0.2305880636

> <CNNaffinity>
5.3465633392

> <CNN_VS>
1.2328536510

> <CNNaffinity_variance>
2.4630744457

$$$$
