


 26 27  0  0  0  0  0  0  0  0999 V2000
   80.8621    6.1861   32.7888 N   0  0  0  0  0  0  0  0  0  0  0  0
   81.2443    6.9668   33.3226 H   0  0  0  0  0  0  0  0  0  0  0  0
   81.7868    6.0203   31.4097 S   0  0  0  0  0  0  0  0  0  0  0  0
   82.8045    7.0471   31.4264 O   0  0  0  0  0  0  0  0  0  0  0  0
   82.1129    4.6254   31.2353 O   0  0  0  0  0  0  0  0  0  0  0  0
   80.8008    6.3988   30.0356 C   0  0  0  0  0  0  0  0  0  0  0  0
   81.2440    7.2467   28.9705 C   0  0  0  0  0  0  0  0  0  0  0  0
   80.2864    7.3537   28.0003 C   0  0  0  0  0  0  0  0  0  0  0  0
   80.3958    8.2682   26.5520 Cl  0  0  0  0  0  0  0  0  0  0  0  0
   78.8881    6.4692   28.3312 S   0  0  0  0  0  0  0  0  0  0  0  0
   79.5249    5.8952   29.8273 C   0  0  0  0  0  0  0  0  0  0  0  0
   78.7410    5.0321   30.6833 C   0  0  0  0  0  0  0  0  0  0  0  0
   78.0526    5.3476   31.6415 O   0  0  0  0  0  0  0  0  0  0  0  0
   78.8120    3.7315   30.3224 O   0  0  0  0  0  0  0  0  0  0  0  0
   79.3367    3.4769   29.5890 H   0  0  0  0  0  0  0  0  0  0  0  0
   80.7887    5.0329   33.6862 C   0  0  0  0  0  0  0  0  0  0  0  0
   84.3585    4.7222   36.1150 C   0  0  0  0  0  0  0  0  0  0  0  0
   83.4379    5.7491   36.3487 C   0  0  0  0  0  0  0  0  0  0  0  0
   82.2813    5.8467   35.5705 C   0  0  0  0  0  0  0  0  0  0  0  0
   82.0219    4.9142   34.5539 C   0  0  0  0  0  0  0  0  0  0  0  0
   82.9560    3.8944   34.3183 C   0  0  0  0  0  0  0  0  0  0  0  0
   84.1144    3.7953   35.0956 C   0  0  0  0  0  0  0  0  0  0  0  0
   86.1632    5.6118   37.4371 O   0  0  0  0  0  0  0  0  0  0  0  0
   85.5721    4.6587   36.9647 C   0  0  0  0  0  0  0  0  0  0  0  0
   85.9911    3.3995   37.1837 O   0  0  0  0  0  0  0  0  0  0  0  0
   85.5227    2.6785   36.8114 H   0  0  0  0  0  0  0  0  0  0  0  0
 23 24  2  0
 24 25  1  0
 24 17  1  0
 17 18  2  0
 18 19  1  0
 19 20  2  0
 20 16  1  0
 16  1  1  0
  1  3  1  0
  3  4  2  0
  3  5  2  0
  3  6  1  0
  6  7  1  0
  7  8  2  0
  8  9  1  0
  8 10  1  0
 10 11  1  0
 11 12  1  0
 12 13  2  0
 12 14  1  0
 20 21  1  0
 21 22  2  0
 22 17  1  0
 11  6  2  0
 25 26  1  0
  1  2  1  0
 14 15  1  0
M  END
> <minimizedAffinity>
-6.69533

> <CNNscore>
0.7446237206

> <CNNaffinity>
4.1453299522

> <CNN_VS>
3.0867109299

> <CNNaffinity_variance>
0.2889247835

$$$$



 26 27  0  0  0  0  0  0  0  0999 V2000
   80.6267    6.4891   32.4542 N   0  0  0  0  0  0  0  0  0  0  0  0
   81.6293    6.4053   32.2868 H   0  0  0  0  0  0  0  0  0  0  0  0
   79.8413    5.9086   31.1012 S   0  0  0  0  0  0  0  0  0  0  0  0
   79.5651    4.5051   31.3111 O   0  0  0  0  0  0  0  0  0  0  0  0
   78.8062    6.8429   30.7296 O   0  0  0  0  0  0  0  0  0  0  0  0
   80.9441    5.9460   29.7647 C   0  0  0  0  0  0  0  0  0  0  0  0
   82.2667    6.4851   29.8629 C   0  0  0  0  0  0  0  0  0  0  0  0
   82.9339    6.3623   28.6756 C   0  0  0  0  0  0  0  0  0  0  0  0
   84.5383    6.8754   28.3463 Cl  0  0  0  0  0  0  0  0  0  0  0  0
   82.0239    5.6213   27.4631 S   0  0  0  0  0  0  0  0  0  0  0  0
   80.6637    5.4335   28.5063 C   0  0  0  0  0  0  0  0  0  0  0  0
   79.4386    4.8337   28.0249 C   0  0  0  0  0  0  0  0  0  0  0  0
   78.5861    5.3362   27.3092 O   0  0  0  0  0  0  0  0  0  0  0  0
   79.2794    3.5588   28.4443 O   0  0  0  0  0  0  0  0  0  0  0  0
   79.9264    3.1621   28.9937 H   0  0  0  0  0  0  0  0  0  0  0  0
   80.3364    5.8313   33.7285 C   0  0  0  0  0  0  0  0  0  0  0  0
   83.9236    4.1196   35.4435 C   0  0  0  0  0  0  0  0  0  0  0  0
   83.1234    4.9791   36.2035 C   0  0  0  0  0  0  0  0  0  0  0  0
   81.9612    5.5268   35.6541 C   0  0  0  0  0  0  0  0  0  0  0  0
   81.5752    5.2164   34.3407 C   0  0  0  0  0  0  0  0  0  0  0  0
   82.3894    4.3630   33.5813 C   0  0  0  0  0  0  0  0  0  0  0  0
   83.5533    3.8142   34.1291 C   0  0  0  0  0  0  0  0  0  0  0  0
   85.6259    3.9070   37.1326 O   0  0  0  0  0  0  0  0  0  0  0  0
   85.1482    3.5630   36.0674 C   0  0  0  0  0  0  0  0  0  0  0  0
   85.7202    2.5981   35.3254 O   0  0  0  0  0  0  0  0  0  0  0  0
   85.3375    2.3469   34.5078 H   0  0  0  0  0  0  0  0  0  0  0  0
 23 24  2  0
 24 25  1  0
 24 17  1  0
 17 18  2  0
 18 19  1  0
 19 20  2  0
 20 16  1  0
 16  1  1  0
  1  3  1  0
  3  4  2  0
  3  5  2  0
  3  6  1  0
  6  7  1  0
  7  8  2  0
  8  9  1  0
  8 10  1  0
 10 11  1  0
 11 12  1  0
 12 13  2  0
 12 14  1  0
 20 21  1  0
 21 22  2  0
 22 17  1  0
 11  6  2  0
 25 26  1  0
  1  2  1  0
 14 15  1  0
M  END
> <minimizedAffinity>
-7.50546

> <CNNscore>
0.6175749302

> <CNNaffinity>
4.3455219269

> <CNN_VS>
2.6836853027

> <CNNaffinity_variance>
0.2066868693

$$$$



 26 27  0  0  0  0  0  0  0  0999 V2000
   79.1551    6.4224   31.5258 N   0  0  0  0  0  0  0  0  0  0  0  0
   79.7524    7.1575   31.9042 H   0  0  0  0  0  0  0  0  0  0  0  0
   78.7705    6.8451   29.9581 S   0  0  0  0  0  0  0  0  0  0  0  0
   77.8265    5.8745   29.4511 O   0  0  0  0  0  0  0  0  0  0  0  0
   78.5064    8.2630   29.9119 O   0  0  0  0  0  0  0  0  0  0  0  0
   80.1811    6.6456   28.9711 C   0  0  0  0  0  0  0  0  0  0  0  0
   81.3161    7.5145   29.0524 C   0  0  0  0  0  0  0  0  0  0  0  0
   82.2993    7.1160   28.1896 C   0  0  0  0  0  0  0  0  0  0  0  0
   83.8246    7.8687   27.9595 Cl  0  0  0  0  0  0  0  0  0  0  0  0
   81.8995    5.7397   27.2992 S   0  0  0  0  0  0  0  0  0  0  0  0
   80.3521    5.6213   28.0511 C   0  0  0  0  0  0  0  0  0  0  0  0
   79.4266    4.5736   27.6796 C   0  0  0  0  0  0  0  0  0  0  0  0
   78.7602    4.4858   26.6599 O   0  0  0  0  0  0  0  0  0  0  0  0
   79.3393    3.5974   28.6102 O   0  0  0  0  0  0  0  0  0  0  0  0
   79.8455    3.6533   29.3967 H   0  0  0  0  0  0  0  0  0  0  0  0
   79.8461    5.1479   31.7234 C   0  0  0  0  0  0  0  0  0  0  0  0
   81.9518    5.0051   35.5029 C   0  0  0  0  0  0  0  0  0  0  0  0
   81.2346    6.1505   35.1420 C   0  0  0  0  0  0  0  0  0  0  0  0
   80.5482    6.1957   33.9257 C   0  0  0  0  0  0  0  0  0  0  0  0
   80.5594    5.0939   33.0561 C   0  0  0  0  0  0  0  0  0  0  0  0
   81.2908    3.9535   33.4201 C   0  0  0  0  0  0  0  0  0  0  0  0
   81.9790    3.9064   34.6368 C   0  0  0  0  0  0  0  0  0  0  0  0
   83.8175    4.6529   36.9833 O   0  0  0  0  0  0  0  0  0  0  0  0
   82.6659    5.0026   36.8025 C   0  0  0  0  0  0  0  0  0  0  0  0
   81.9016    5.4395   37.8193 O   0  0  0  0  0  0  0  0  0  0  0  0
   81.0171    5.7045   37.6603 H   0  0  0  0  0  0  0  0  0  0  0  0
 23 24  2  0
 24 25  1  0
 24 17  1  0
 17 18  2  0
 18 19  1  0
 19 20  2  0
 20 16  1  0
 16  1  1  0
  1  3  1  0
  3  4  2  0
  3  5  2  0
  3  6  1  0
  6  7  1  0
  7  8  2  0
  8  9  1  0
  8 10  1  0
 10 11  1  0
 11 12  1  0
 12 13  2  0
 12 14  1  0
 20 21  1  0
 21 22  2  0
 22 17  1  0
 11  6  2  0
 25 26  1  0
  1  2  1  0
 14 15  1  0
M  END
> <minimizedAffinity>
-8.33119

> <CNNscore>
0.5648739338

> <CNNaffinity>
4.3332676888

> <CNN_VS>
2.4477498531

> <CNNaffinity_variance>
0.4106892049

$$$$



 26 27  0  0  0  0  0  0  0  0999 V2000
   80.1792    5.9754   30.7008 N   0  0  0  0  0  0  0  0  0  0  0  0
   79.7585    6.3901   31.5324 H   0  0  0  0  0  0  0  0  0  0  0  0
   80.7815    7.2212   29.7683 S   0  0  0  0  0  0  0  0  0  0  0  0
   79.6644    8.0095   29.2982 O   0  0  0  0  0  0  0  0  0  0  0  0
   81.8998    7.8176   30.4581 O   0  0  0  0  0  0  0  0  0  0  0  0
   81.4810    6.5474   28.3329 C   0  0  0  0  0  0  0  0  0  0  0  0
   82.7771    6.9189   27.8513 C   0  0  0  0  0  0  0  0  0  0  0  0
   83.0987    6.2170   26.7228 C   0  0  0  0  0  0  0  0  0  0  0  0
   84.5505    6.3474   25.8166 Cl  0  0  0  0  0  0  0  0  0  0  0  0
   81.8997    5.1341   26.2362 S   0  0  0  0  0  0  0  0  0  0  0  0
   80.8740    5.5759   27.5501 C   0  0  0  0  0  0  0  0  0  0  0  0
   79.5685    4.9727   27.7056 C   0  0  0  0  0  0  0  0  0  0  0  0
   79.2988    3.7900   27.8466 O   0  0  0  0  0  0  0  0  0  0  0  0
   78.5673    5.8805   27.6948 O   0  0  0  0  0  0  0  0  0  0  0  0
   78.7615    6.7908   27.5874 H   0  0  0  0  0  0  0  0  0  0  0  0
   81.1294    4.9571   31.1491 C   0  0  0  0  0  0  0  0  0  0  0  0
   81.9444    5.2856   35.3878 C   0  0  0  0  0  0  0  0  0  0  0  0
   82.5690    4.2910   34.6281 C   0  0  0  0  0  0  0  0  0  0  0  0
   82.3129    4.1880   33.2583 C   0  0  0  0  0  0  0  0  0  0  0  0
   81.4368    5.0832   32.6246 C   0  0  0  0  0  0  0  0  0  0  0  0
   80.8054    6.0703   33.3959 C   0  0  0  0  0  0  0  0  0  0  0  0
   81.0600    6.1748   34.7672 C   0  0  0  0  0  0  0  0  0  0  0  0
   81.6490    6.0286   37.6587 O   0  0  0  0  0  0  0  0  0  0  0  0
   82.2455    5.3563   36.8380 C   0  0  0  0  0  0  0  0  0  0  0  0
   83.2837    4.5792   37.1945 O   0  0  0  0  0  0  0  0  0  0  0  0
   83.7304    4.0687   36.5482 H   0  0  0  0  0  0  0  0  0  0  0  0
 23 24  2  0
 24 25  1  0
 24 17  1  0
 17 18  2  0
 18 19  1  0
 19 20  2  0
 20 16  1  0
 16  1  1  0
  1  3  1  0
  3  4  2  0
  3  5  2  0
  3  6  1  0
  6  7  1  0
  7  8  2  0
  8  9  1  0
  8 10  1  0
 10 11  1  0
 11 12  1  0
 12 13  2  0
 12 14  1  0
 20 21  1  0
 21 22  2  0
 22 17  1  0
 11  6  2  0
 25 26  1  0
  1  2  1  0
 14 15  1  0
M  END
> <minimizedAffinity>
-6.72582

> <CNNscore>
0.5449821353

> <CNNaffinity>
4.1335959435

> <CNN_VS>
2.2527358532

> <CNNaffinity_variance>
0.3726757765

$$$$



 26 27  0  0  0  0  0  0  0  0999 V2000
   79.3617    4.1740   30.0977 N   0  0  0  0  0  0  0  0  0  0  0  0
   78.6459    3.4477   30.0754 H   0  0  0  0  0  0  0  0  0  0  0  0
   79.5558    4.7359   28.5386 S   0  0  0  0  0  0  0  0  0  0  0  0
   79.3213    3.6338   27.6327 O   0  0  0  0  0  0  0  0  0  0  0  0
   78.8582    5.9924   28.4086 O   0  0  0  0  0  0  0  0  0  0  0  0
   81.2221    5.1516   28.3055 C   0  0  0  0  0  0  0  0  0  0  0  0
   82.2072    5.0227   29.3364 C   0  0  0  0  0  0  0  0  0  0  0  0
   83.4432    5.3879   28.8796 C   0  0  0  0  0  0  0  0  0  0  0  0
   84.9059    5.3893   29.7775 Cl  0  0  0  0  0  0  0  0  0  0  0  0
   83.4500    5.8715   27.2631 S   0  0  0  0  0  0  0  0  0  0  0  0
   81.7531    5.6070   27.1073 C   0  0  0  0  0  0  0  0  0  0  0  0
   81.0725    5.8800   25.8605 C   0  0  0  0  0  0  0  0  0  0  0  0
   81.0376    5.1869   24.8556 O   0  0  0  0  0  0  0  0  0  0  0  0
   80.4044    7.0548   25.8747 O   0  0  0  0  0  0  0  0  0  0  0  0
   80.4235    7.5955   26.6397 H   0  0  0  0  0  0  0  0  0  0  0  0
   78.9679    5.1493   31.1148 C   0  0  0  0  0  0  0  0  0  0  0  0
   81.5248    5.0235   34.6056 C   0  0  0  0  0  0  0  0  0  0  0  0
   81.4143    3.9029   33.7758 C   0  0  0  0  0  0  0  0  0  0  0  0
   80.5952    3.9440   32.6444 C   0  0  0  0  0  0  0  0  0  0  0  0
   79.8819    5.1084   32.3192 C   0  0  0  0  0  0  0  0  0  0  0  0
   79.9889    6.2239   33.1631 C   0  0  0  0  0  0  0  0  0  0  0  0
   80.8077    6.1846   34.2962 C   0  0  0  0  0  0  0  0  0  0  0  0
   83.4918    4.3881   35.8399 O   0  0  0  0  0  0  0  0  0  0  0  0
   82.4048    4.9337   35.7957 C   0  0  0  0  0  0  0  0  0  0  0  0
   81.8805    5.5332   36.8794 O   0  0  0  0  0  0  0  0  0  0  0  0
   81.0421    5.9481   36.8258 H   0  0  0  0  0  0  0  0  0  0  0  0
 23 24  2  0
 24 25  1  0
 24 17  1  0
 17 18  2  0
 18 19  1  0
 19 20  2  0
 20 16  1  0
 16  1  1  0
  1  3  1  0
  3  4  2  0
  3  5  2  0
  3  6  1  0
  6  7  1  0
  7  8  2  0
  8  9  1  0
  8 10  1  0
 10 11  1  0
 11 12  1  0
 12 13  2  0
 12 14  1  0
 20 21  1  0
 21 22  2  0
 22 17  1  0
 11  6  2  0
 25 26  1  0
  1  2  1  0
 14 15  1  0
M  END
> <minimizedAffinity>
-7.99004

> <CNNscore>
0.5274988413

> <CNNaffinity>
4.9234218597

> <CNN_VS>
2.5970993042

> <CNNaffinity_variance>
0.0781729147

$$$$



 26 27  0  0  0  0  0  0  0  0999 V2000
   83.9904    3.9657   34.7145 N   0  0  0  0  0  0  0  0  0  0  0  0
   84.0753    4.4299   33.8102 H   0  0  0  0  0  0  0  0  0  0  0  0
   85.4013    4.2494   35.5591 S   0  0  0  0  0  0  0  0  0  0  0  0
   85.0723    4.3374   36.9642 O   0  0  0  0  0  0  0  0  0  0  0  0
   86.4226    3.3555   35.0689 O   0  0  0  0  0  0  0  0  0  0  0  0
   85.9855    5.8272   35.1432 C   0  0  0  0  0  0  0  0  0  0  0  0
   85.1180    6.9064   34.7790 C   0  0  0  0  0  0  0  0  0  0  0  0
   85.8329    8.0453   34.5304 C   0  0  0  0  0  0  0  0  0  0  0  0
   85.1976    9.5697   34.0631 Cl  0  0  0  0  0  0  0  0  0  0  0  0
   87.4979    7.8536   34.7251 S   0  0  0  0  0  0  0  0  0  0  0  0
   87.3235    6.1936   35.1584 C   0  0  0  0  0  0  0  0  0  0  0  0
   88.4823    5.3794   35.4525 C   0  0  0  0  0  0  0  0  0  0  0  0
   89.3660    5.0250   34.6876 O   0  0  0  0  0  0  0  0  0  0  0  0
   88.5435    5.0044   36.7496 O   0  0  0  0  0  0  0  0  0  0  0  0
   87.8717    5.2700   37.3463 H   0  0  0  0  0  0  0  0  0  0  0  0
   82.7422    4.4205   35.3276 C   0  0  0  0  0  0  0  0  0  0  0  0
   79.7360    5.2600   32.3281 C   0  0  0  0  0  0  0  0  0  0  0  0
   80.3716    4.0143   32.3552 C   0  0  0  0  0  0  0  0  0  0  0  0
   81.3370    3.7388   33.3272 C   0  0  0  0  0  0  0  0  0  0  0  0
   81.6748    4.6998   34.2930 C   0  0  0  0  0  0  0  0  0  0  0  0
   81.0412    5.9507   34.2516 C   0  0  0  0  0  0  0  0  0  0  0  0
   80.0751    6.2286   33.2793 C   0  0  0  0  0  0  0  0  0  0  0  0
   77.9230    4.6936   30.8487 O   0  0  0  0  0  0  0  0  0  0  0  0
   78.7189    5.5081   31.2779 C   0  0  0  0  0  0  0  0  0  0  0  0
   78.7462    6.7695   30.8120 O   0  0  0  0  0  0  0  0  0  0  0  0
   79.3664    7.3824   31.1550 H   0  0  0  0  0  0  0  0  0  0  0  0
 23 24  2  0
 24 25  1  0
 24 17  1  0
 17 18  2  0
 18 19  1  0
 19 20  2  0
 20 16  1  0
 16  1  1  0
  1  3  1  0
  3  4  2  0
  3  5  2  0
  3  6  1  0
  6  7  1  0
  7  8  2  0
  8  9  1  0
  8 10  1  0
 10 11  1  0
 11 12  1  0
 12 13  2  0
 12 14  1  0
 20 21  1  0
 21 22  2  0
 22 17  1  0
 11  6  2  0
 25 26  1  0
  1  2  1  0
 14 15  1  0
M  END
> <minimizedAffinity>
-6.23121

> <CNNscore>
0.5074104071

> <CNNaffinity>
4.6419796944

> <CNN_VS>
2.3553888798

> <CNNaffinity_variance>
0.2575841248

$$$$



 26 27  0  0  0  0  0  0  0  0999 V2000
   79.9675    4.6329   30.3546 N   0  0  0  0  0  0  0  0  0  0  0  0
   79.6432    3.6944   30.5880 H   0  0  0  0  0  0  0  0  0  0  0  0
   79.4686    4.9639   28.7972 S   0  0  0  0  0  0  0  0  0  0  0  0
   79.3706    3.7111   28.0823 O   0  0  0  0  0  0  0  0  0  0  0  0
   78.3714    5.8997   28.8510 O   0  0  0  0  0  0  0  0  0  0  0  0
   80.7287    5.8362   27.9878 C   0  0  0  0  0  0  0  0  0  0  0  0
   81.8541    5.1921   27.3808 C   0  0  0  0  0  0  0  0  0  0  0  0
   82.6785    6.1068   26.7863 C   0  0  0  0  0  0  0  0  0  0  0  0
   84.1382    5.7742   25.9470 Cl  0  0  0  0  0  0  0  0  0  0  0  0
   82.1389    7.6987   26.9338 S   0  0  0  0  0  0  0  0  0  0  0  0
   80.7450    7.2140   27.8258 C   0  0  0  0  0  0  0  0  0  0  0  0
   79.8000    8.1946   28.3134 C   0  0  0  0  0  0  0  0  0  0  0  0
   79.8737    8.8702   29.3281 O   0  0  0  0  0  0  0  0  0  0  0  0
   78.7316    8.3428   27.4989 O   0  0  0  0  0  0  0  0  0  0  0  0
   78.6636    7.8303   26.7175 H   0  0  0  0  0  0  0  0  0  0  0  0
   79.5042    5.5341   31.4100 C   0  0  0  0  0  0  0  0  0  0  0  0
   81.7772    4.9905   35.0538 C   0  0  0  0  0  0  0  0  0  0  0  0
   81.1215    6.2017   34.8098 C   0  0  0  0  0  0  0  0  0  0  0  0
   80.3812    6.3765   33.6376 C   0  0  0  0  0  0  0  0  0  0  0  0
   80.2763    5.3407   32.6961 C   0  0  0  0  0  0  0  0  0  0  0  0
   80.9467    4.1333   32.9428 C   0  0  0  0  0  0  0  0  0  0  0  0
   81.6886    3.9565   34.1151 C   0  0  0  0  0  0  0  0  0  0  0  0
   83.7130    4.4960   36.3971 O   0  0  0  0  0  0  0  0  0  0  0  0
   82.5520    4.8506   36.3103 C   0  0  0  0  0  0  0  0  0  0  0  0
   81.8340    5.1620   37.4041 O   0  0  0  0  0  0  0  0  0  0  0  0
   80.9413    5.4330   37.3171 H   0  0  0  0  0  0  0  0  0  0  0  0
 23 24  2  0
 24 25  1  0
 24 17  1  0
 17 18  2  0
 18 19  1  0
 19 20  2  0
 20 16  1  0
 16  1  1  0
  1  3  1  0
  3  4  2  0
  3  5  2  0
  3  6  1  0
  6  7  1  0
  7  8  2  0
  8  9  1  0
  8 10  1  0
 10 11  1  0
 11 12  1  0
 12 13  2  0
 12 14  1  0
 20 21  1  0
 21 22  2  0
 22 17  1  0
 11  6  2  0
 25 26  1  0
  1  2  1  0
 14 15  1  0
M  END
> <minimizedAffinity>
-7.45732

> <CNNscore>
0.5010442734

> <CNNaffinity>
4.6827831268

> <CNN_VS>
2.3462817669

> <CNNaffinity_variance>
0.0267333109

$$$$



 26 27  0  0  0  0  0  0  0  0999 V2000
   80.2682    4.8504   31.0913 N   0  0  0  0  0  0  0  0  0  0  0  0
   79.4836    4.4581   30.5707 H   0  0  0  0  0  0  0  0  0  0  0  0
   81.1952    5.7281   30.0168 S   0  0  0  0  0  0  0  0  0  0  0  0
   81.2650    7.0909   30.4944 O   0  0  0  0  0  0  0  0  0  0  0  0
   82.3806    4.9688   29.6995 O   0  0  0  0  0  0  0  0  0  0  0  0
   80.3441    5.8318   28.5106 C   0  0  0  0  0  0  0  0  0  0  0  0
   80.8716    5.3186   27.2825 C   0  0  0  0  0  0  0  0  0  0  0  0
   79.9870    5.5022   26.2561 C   0  0  0  0  0  0  0  0  0  0  0  0
   80.2114    5.0415   24.6180 Cl  0  0  0  0  0  0  0  0  0  0  0  0
   78.5556    6.2621   26.7259 S   0  0  0  0  0  0  0  0  0  0  0  0
   79.0785    6.3814   28.3648 C   0  0  0  0  0  0  0  0  0  0  0  0
   78.2438    7.0108   29.3645 C   0  0  0  0  0  0  0  0  0  0  0  0
   78.4579    8.0427   29.9815 O   0  0  0  0  0  0  0  0  0  0  0  0
   77.0975    6.3320   29.5927 O   0  0  0  0  0  0  0  0  0  0  0  0
   76.9217    5.5389   29.1257 H   0  0  0  0  0  0  0  0  0  0  0  0
   79.7186    5.5690   32.2412 C   0  0  0  0  0  0  0  0  0  0  0  0
   82.2283    5.0835   35.7347 C   0  0  0  0  0  0  0  0  0  0  0  0
   81.5383    6.2825   35.5274 C   0  0  0  0  0  0  0  0  0  0  0  0
   80.7219    6.4384   34.4041 C   0  0  0  0  0  0  0  0  0  0  0  0
   80.5744    5.3956   33.4762 C   0  0  0  0  0  0  0  0  0  0  0  0
   81.2790    4.2007   33.6852 C   0  0  0  0  0  0  0  0  0  0  0  0
   82.0971    4.0428   34.8085 C   0  0  0  0  0  0  0  0  0  0  0  0
   84.1822    4.4413   36.9861 O   0  0  0  0  0  0  0  0  0  0  0  0
   83.0839    4.9636   36.9398 C   0  0  0  0  0  0  0  0  0  0  0  0
   82.5221    5.5049   38.0353 O   0  0  0  0  0  0  0  0  0  0  0  0
   81.6756    5.9027   37.9798 H   0  0  0  0  0  0  0  0  0  0  0  0
 23 24  2  0
 24 25  1  0
 24 17  1  0
 17 18  2  0
 18 19  1  0
 19 20  2  0
 20 16  1  0
 16  1  1  0
  1  3  1  0
  3  4  2  0
  3  5  2  0
  3  6  1  0
  6  7  1  0
  7  8  2  0
  8  9  1  0
  8 10  1  0
 10 11  1  0
 11 12  1  0
 12 13  2  0
 12 14  1  0
 20 21  1  0
 21 22  2  0
 22 17  1  0
 11  6  2  0
 25 26  1  0
  1  2  1  0
 14 15  1  0
M  END
> <minimizedAffinity>
-8.32293

> <CNNscore>
0.4736483693

> <CNNaffinity>
4.5515804291

> <CNN_VS>
2.1558487415

> <CNNaffinity_variance>
0.2501901686

$$$$



 26 27  0  0  0  0  0  0  0  0999 V2000
   80.9310    5.1662   30.6675 N   0  0  0  0  0  0  0  0  0  0  0  0
   81.9360    5.2894   30.7908 H   0  0  0  0  0  0  0  0  0  0  0  0
   80.2658    4.9224   32.1783 S   0  0  0  0  0  0  0  0  0  0  0  0
   78.9090    5.4212   32.1562 O   0  0  0  0  0  0  0  0  0  0  0  0
   80.5793    3.5822   32.6119 O   0  0  0  0  0  0  0  0  0  0  0  0
   81.0908    5.9381   33.3147 C   0  0  0  0  0  0  0  0  0  0  0  0
   80.4137    6.6479   34.3575 C   0  0  0  0  0  0  0  0  0  0  0  0
   81.3007    7.3469   35.1285 C   0  0  0  0  0  0  0  0  0  0  0  0
   80.9237    8.3334   36.4815 Cl  0  0  0  0  0  0  0  0  0  0  0  0
   82.9059    7.1705   34.6395 S   0  0  0  0  0  0  0  0  0  0  0  0
   82.4651    6.1262   33.3399 C   0  0  0  0  0  0  0  0  0  0  0  0
   83.4686    5.5961   32.4431 C   0  0  0  0  0  0  0  0  0  0  0  0
   83.8251    6.0442   31.3644 O   0  0  0  0  0  0  0  0  0  0  0  0
   84.0532    4.4730   32.9161 O   0  0  0  0  0  0  0  0  0  0  0  0
   83.7883    4.1193   33.7423 H   0  0  0  0  0  0  0  0  0  0  0  0
   80.4384    6.3086   29.8974 C   0  0  0  0  0  0  0  0  0  0  0  0
   78.8068    5.1261   26.0661 C   0  0  0  0  0  0  0  0  0  0  0  0
   79.5438    4.2127   26.8271 C   0  0  0  0  0  0  0  0  0  0  0  0
   80.0650    4.5903   28.0674 C   0  0  0  0  0  0  0  0  0  0  0  0
   79.8495    5.8827   28.5710 C   0  0  0  0  0  0  0  0  0  0  0  0
   79.1194    6.7964   27.7963 C   0  0  0  0  0  0  0  0  0  0  0  0
   78.5974    6.4207   26.5543 C   0  0  0  0  0  0  0  0  0  0  0  0
   78.8492    4.7645   23.6862 O   0  0  0  0  0  0  0  0  0  0  0  0
   78.2741    4.6818   24.7556 C   0  0  0  0  0  0  0  0  0  0  0  0
   77.0408    4.1527   24.8453 O   0  0  0  0  0  0  0  0  0  0  0  0
   76.6141    4.0976   25.6776 H   0  0  0  0  0  0  0  0  0  0  0  0
 23 24  2  0
 24 25  1  0
 24 17  1  0
 17 18  2  0
 18 19  1  0
 19 20  2  0
 20 16  1  0
 16  1  1  0
  1  3  1  0
  3  4  2  0
  3  5  2  0
  3  6  1  0
  6  7  1  0
  7  8  2  0
  8  9  1  0
  8 10  1  0
 10 11  1  0
 11 12  1  0
 12 13  2  0
 12 14  1  0
 20 21  1  0
 21 22  2  0
 22 17  1  0
 11  6  2  0
 25 26  1  0
  1  2  1  0
 14 15  1  0
M  END
> <minimizedAffinity>
-7.48307

> <CNNscore>
0.4637873173

> <CNNaffinity>
4.7676143646

> <CNN_VS>
2.2111589909

> <CNNaffinity_variance>
0.0511040129

$$$$
