


 24 23  0  0  0  0  0  0  0  0999 V2000
   -3.1638    7.0402   18.2461 C   0  0  0  0  0  0  0  0  0  0  0  0
   -2.6931    5.8593   19.2340 N   0  0  0  0  0  0  0  0  0  0  0  0
   -3.8863    4.8643   19.1536 C   0  0  0  0  0  0  0  0  0  0  0  0
   -2.6496    6.4173   20.6455 C   0  0  0  0  0  0  0  0  0  0  0  0
   -1.4320    5.2434   18.6451 C   0  0  0  0  0  0  0  0  0  0  0  0
   -1.3024    3.7377   18.2558 N   0  0  0  0  0  0  0  0  0  0  0  0
   -2.2488    2.8782   19.0727 C   0  0  0  0  0  0  0  0  0  0  0  0
    0.1358    3.3980   18.7674 C   0  0  0  0  0  0  0  0  0  0  0  0
   -1.3812    3.5331   16.7569 C   0  0  0  0  0  0  0  0  0  0  0  0
   -2.3825    2.5980   16.0966 N   0  0  0  0  0  0  0  0  0  0  0  0
   -3.8611    2.8305   16.3981 C   0  0  0  0  0  0  0  0  0  0  0  0
   -2.0757    1.1673   16.6753 C   0  0  0  0  0  0  0  0  0  0  0  0
   -2.2096    2.4457   14.5769 C   0  0  0  0  0  0  0  0  0  0  0  0
   -2.1292    8.1264   17.9138 C   0  0  0  0  0  0  0  0  0  0  0  0
   -2.1594    9.3898   18.7681 C   0  0  0  0  0  0  0  0  0  0  0  0
   -2.1553   10.6942   17.9577 C   0  0  0  0  0  0  0  0  0  0  0  0
   -3.4328   11.5321   18.0906 C   0  0  0  0  0  0  0  0  0  0  0  0
   -3.1838   13.0295   17.8856 C   0  0  0  0  0  0  0  0  0  0  0  0
   -1.8439   13.5077   18.4564 C   0  0  0  0  0  0  0  0  0  0  0  0
   -1.5874   15.0013   18.2297 C   0  0  0  0  0  0  0  0  0  0  0  0
   -2.4299   15.5782   17.0887 C   0  0  0  0  0  0  0  0  0  0  0  0
   -3.4421   16.6545   17.5005 C   0  0  0  0  0  0  0  0  0  0  0  0
   -4.7035   17.2300   15.3567 C   0  0  0  0  0  0  0  0  0  0  0  0
   -3.7510   17.7138   16.4406 C   0  0  0  0  0  0  0  0  0  0  0  0
 23 24  1  0
 24 22  1  0
 22 21  1  0
 21 20  1  0
 20 19  1  0
 19 18  1  0
 18 17  1  0
 17 16  1  0
 16 15  1  0
 15 14  1  0
 14  1  1  0
  1  2  1  0
  2  3  1  0
  2  4  1  0
  2  5  1  0
  5  6  1  0
  6  7  1  0
  6  8  1  0
  6  9  1  0
  9 10  1  0
 10 11  1  0
 10 12  1  0
 10 13  1  0
M  CHG 1   2   1
M  CHG 1   6   1
M  CHG 1  10   1
M  END
> <minimizedAffinity>
-5.87789

> <CNNscore>
0.7738003731

> <CNNaffinity>
5.9585189819

> <CNN_VS>
4.6107044220

> <CNNaffinity_variance>
1.2031506300

$$$$



 24 23  0  0  0  0  0  0  0  0999 V2000
   -1.5276    5.4509   19.8346 C   0  0  0  0  0  0  0  0  0  0  0  0
   -2.2817    4.2287   19.1069 N   0  0  0  0  0  0  0  0  0  0  0  0
   -1.5315    2.9902   19.6758 C   0  0  0  0  0  0  0  0  0  0  0  0
   -1.9814    4.3098   17.6207 C   0  0  0  0  0  0  0  0  0  0  0  0
   -3.7320    4.2440   19.5683 C   0  0  0  0  0  0  0  0  0  0  0  0
   -4.8933    3.5364   18.8027 N   0  0  0  0  0  0  0  0  0  0  0  0
   -4.4390    2.2089   18.2256 C   0  0  0  0  0  0  0  0  0  0  0  0
   -5.0968    4.4891   17.5794 C   0  0  0  0  0  0  0  0  0  0  0  0
   -6.1611    3.4767   19.6297 C   0  0  0  0  0  0  0  0  0  0  0  0
   -6.3108    2.5954   20.8601 N   0  0  0  0  0  0  0  0  0  0  0  0
   -7.3490    3.0140   21.8984 C   0  0  0  0  0  0  0  0  0  0  0  0
   -4.9328    2.6794   21.6150 C   0  0  0  0  0  0  0  0  0  0  0  0
   -6.4951    1.0998   20.5571 C   0  0  0  0  0  0  0  0  0  0  0  0
   -1.4092    6.7655   19.0483 C   0  0  0  0  0  0  0  0  0  0  0  0
   -1.8991    8.0308   19.7455 C   0  0  0  0  0  0  0  0  0  0  0  0
   -2.2859    9.1652   18.7855 C   0  0  0  0  0  0  0  0  0  0  0  0
   -3.3450   10.1304   19.3320 C   0  0  0  0  0  0  0  0  0  0  0  0
   -3.5669   11.3435   18.4234 C   0  0  0  0  0  0  0  0  0  0  0  0
   -2.4835   12.4184   18.5673 C   0  0  0  0  0  0  0  0  0  0  0  0
   -2.8237   13.7227   17.8387 C   0  0  0  0  0  0  0  0  0  0  0  0
   -1.9292   14.8890   18.2678 C   0  0  0  0  0  0  0  0  0  0  0  0
   -2.4109   16.2788   17.8332 C   0  0  0  0  0  0  0  0  0  0  0  0
   -4.1935   17.7169   16.7051 C   0  0  0  0  0  0  0  0  0  0  0  0
   -3.7859   16.3242   17.1635 C   0  0  0  0  0  0  0  0  0  0  0  0
 23 24  1  0
 24 22  1  0
 22 21  1  0
 21 20  1  0
 20 19  1  0
 19 18  1  0
 18 17  1  0
 17 16  1  0
 16 15  1  0
 15 14  1  0
 14  1  1  0
  1  2  1  0
  2  3  1  0
  2  4  1  0
  2  5  1  0
  5  6  1  0
  6  7  1  0
  6  8  1  0
  6  9  1  0
  9 10  1  0
 10 11  1  0
 10 12  1  0
 10 13  1  0
M  CHG 1   2   1
M  CHG 1   6   1
M  CHG 1  10   1
M  END
> <minimizedAffinity>
-6.11604

> <CNNscore>
0.7130066156

> <CNNaffinity>
5.9797644615

> <CNN_VS>
4.2636117935

> <CNNaffinity_variance>
1.1422212124

$$$$



 24 23  0  0  0  0  0  0  0  0999 V2000
   -3.7715    4.4592   20.3322 C   0  0  0  0  0  0  0  0  0  0  0  0
   -2.9792    3.1592   19.8088 N   0  0  0  0  0  0  0  0  0  0  0  0
   -3.8673    1.9953   20.3353 C   0  0  0  0  0  0  0  0  0  0  0  0
   -1.6495    3.0941   20.5391 C   0  0  0  0  0  0  0  0  0  0  0  0
   -2.9839    3.2002   18.2874 C   0  0  0  0  0  0  0  0  0  0  0  0
   -1.7358    2.8794   17.4072 N   0  0  0  0  0  0  0  0  0  0  0  0
   -0.6419    3.9103   17.6129 C   0  0  0  0  0  0  0  0  0  0  0  0
   -2.2901    3.1237   15.9655 C   0  0  0  0  0  0  0  0  0  0  0  0
   -1.2954    1.4376   17.5558 C   0  0  0  0  0  0  0  0  0  0  0  0
   -0.1012    0.8524   16.8179 N   0  0  0  0  0  0  0  0  0  0  0  0
    0.5210    1.6999   15.7107 C   0  0  0  0  0  0  0  0  0  0  0  0
   -0.6403   -0.4313   16.0848 C   0  0  0  0  0  0  0  0  0  0  0  0
    1.0226    0.3339   17.7293 C   0  0  0  0  0  0  0  0  0  0  0  0
   -3.5700    5.7633   19.5451 C   0  0  0  0  0  0  0  0  0  0  0  0
   -2.3640    6.6168   19.9247 C   0  0  0  0  0  0  0  0  0  0  0  0
   -1.9050    7.5793   18.8197 C   0  0  0  0  0  0  0  0  0  0  0  0
   -2.8383    8.7734   18.5853 C   0  0  0  0  0  0  0  0  0  0  0  0
   -2.0785   10.0763   18.3178 C   0  0  0  0  0  0  0  0  0  0  0  0
   -2.5994   11.2638   19.1353 C   0  0  0  0  0  0  0  0  0  0  0  0
   -1.8418   12.5670   18.8608 C   0  0  0  0  0  0  0  0  0  0  0  0
   -2.6718   13.5750   18.0610 C   0  0  0  0  0  0  0  0  0  0  0  0
   -1.9187   14.8324   17.6092 C   0  0  0  0  0  0  0  0  0  0  0  0
   -3.1654   16.9004   16.7799 C   0  0  0  0  0  0  0  0  0  0  0  0
   -2.5754   16.1652   17.9747 C   0  0  0  0  0  0  0  0  0  0  0  0
 23 24  1  0
 24 22  1  0
 22 21  1  0
 21 20  1  0
 20 19  1  0
 19 18  1  0
 18 17  1  0
 17 16  1  0
 16 15  1  0
 15 14  1  0
 14  1  1  0
  1  2  1  0
  2  3  1  0
  2  4  1  0
  2  5  1  0
  5  6  1  0
  6  7  1  0
  6  8  1  0
  6  9  1  0
  9 10  1  0
 10 11  1  0
 10 12  1  0
 10 13  1  0
M  CHG 1   2   1
M  CHG 1   6   1
M  CHG 1  10   1
M  END
> <minimizedAffinity>
-5.00465

> <CNNscore>
0.6927057505

> <CNNaffinity>
5.6496043205

> <CNN_VS>
3.9135134220

> <CNNaffinity_variance>
0.6432188153

$$$$



 24 23  0  0  0  0  0  0  0  0999 V2000
   -2.6073    7.1901   18.8886 C   0  0  0  0  0  0  0  0  0  0  0  0
   -2.7848    5.6564   18.4326 N   0  0  0  0  0  0  0  0  0  0  0  0
   -2.1972    5.6686   16.9921 C   0  0  0  0  0  0  0  0  0  0  0  0
   -4.2716    5.3679   18.3239 C   0  0  0  0  0  0  0  0  0  0  0  0
   -1.9331    4.8004   19.3590 C   0  0  0  0  0  0  0  0  0  0  0  0
   -2.2938    3.3368   19.7632 N   0  0  0  0  0  0  0  0  0  0  0  0
   -3.4482    3.3099   20.7473 C   0  0  0  0  0  0  0  0  0  0  0  0
   -1.0278    2.9082   20.5750 C   0  0  0  0  0  0  0  0  0  0  0  0
   -2.4611    2.4415   18.5528 C   0  0  0  0  0  0  0  0  0  0  0  0
   -2.7068    0.9440   18.6534 N   0  0  0  0  0  0  0  0  0  0  0  0
   -1.5805    0.0872   19.2264 C   0  0  0  0  0  0  0  0  0  0  0  0
   -2.8803    0.4400   17.1730 C   0  0  0  0  0  0  0  0  0  0  0  0
   -4.0210    0.5569   19.3502 C   0  0  0  0  0  0  0  0  0  0  0  0
   -1.7310    8.0858   17.9994 C   0  0  0  0  0  0  0  0  0  0  0  0
   -2.0425    9.5791   18.0076 C   0  0  0  0  0  0  0  0  0  0  0  0
   -2.4707   10.1222   19.3786 C   0  0  0  0  0  0  0  0  0  0  0  0
   -2.1333   11.5996   19.6135 C   0  0  0  0  0  0  0  0  0  0  0  0
   -2.0824   12.4101   18.3146 C   0  0  0  0  0  0  0  0  0  0  0  0
   -3.4369   13.0073   17.9162 C   0  0  0  0  0  0  0  0  0  0  0  0
   -3.3130   14.2924   17.0911 C   0  0  0  0  0  0  0  0  0  0  0  0
   -2.2096   15.2206   17.6064 C   0  0  0  0  0  0  0  0  0  0  0  0
   -2.6430   16.6667   17.8774 C   0  0  0  0  0  0  0  0  0  0  0  0
   -3.7290   18.1755   16.1274 C   0  0  0  0  0  0  0  0  0  0  0  0
   -3.9380   17.1096   17.1933 C   0  0  0  0  0  0  0  0  0  0  0  0
 23 24  1  0
 24 22  1  0
 22 21  1  0
 21 20  1  0
 20 19  1  0
 19 18  1  0
 18 17  1  0
 17 16  1  0
 16 15  1  0
 15 14  1  0
 14  1  1  0
  1  2  1  0
  2  3  1  0
  2  4  1  0
  2  5  1  0
  5  6  1  0
  6  7  1  0
  6  8  1  0
  6  9  1  0
  9 10  1  0
 10 11  1  0
 10 12  1  0
 10 13  1  0
M  CHG 1   2   1
M  CHG 1   6   1
M  CHG 1  10   1
M  END
> <minimizedAffinity>
-5.88357

> <CNNscore>
0.6860692501

> <CNNaffinity>
5.8237357140

> <CNN_VS>
3.9954860210

> <CNNaffinity_variance>
0.9282361865

$$$$



 24 23  0  0  0  0  0  0  0  0999 V2000
   -1.6959    5.7620   17.8918 C   0  0  0  0  0  0  0  0  0  0  0  0
   -2.2330    4.2471   17.9833 N   0  0  0  0  0  0  0  0  0  0  0  0
   -3.3507    4.2256   16.9014 C   0  0  0  0  0  0  0  0  0  0  0  0
   -2.8954    4.0647   19.3374 C   0  0  0  0  0  0  0  0  0  0  0  0
   -1.0836    3.3283   17.5946 C   0  0  0  0  0  0  0  0  0  0  0  0
   -1.1896    2.2227   16.4982 N   0  0  0  0  0  0  0  0  0  0  0  0
   -2.2604    1.2065   16.8479 C   0  0  0  0  0  0  0  0  0  0  0  0
    0.1767    1.4796   16.6605 C   0  0  0  0  0  0  0  0  0  0  0  0
   -1.2958    2.8146   15.1078 C   0  0  0  0  0  0  0  0  0  0  0  0
   -0.8375    2.0836   13.8554 N   0  0  0  0  0  0  0  0  0  0  0  0
    0.6645    1.8761   13.6766 C   0  0  0  0  0  0  0  0  0  0  0  0
   -1.2620    2.9990   12.6480 C   0  0  0  0  0  0  0  0  0  0  0  0
   -1.5518    0.7473   13.5973 C   0  0  0  0  0  0  0  0  0  0  0  0
   -1.7164    6.5893   19.1864 C   0  0  0  0  0  0  0  0  0  0  0  0
   -1.8224    8.1034   19.0339 C   0  0  0  0  0  0  0  0  0  0  0  0
   -1.8442    8.5861   17.5764 C   0  0  0  0  0  0  0  0  0  0  0  0
   -1.8355   10.1105   17.4088 C   0  0  0  0  0  0  0  0  0  0  0  0
   -1.5870   10.8506   18.7267 C   0  0  0  0  0  0  0  0  0  0  0  0
   -2.6847   11.8632   19.0727 C   0  0  0  0  0  0  0  0  0  0  0  0
   -2.7496   13.0430   18.0972 C   0  0  0  0  0  0  0  0  0  0  0  0
   -1.6945   14.1124   18.3932 C   0  0  0  0  0  0  0  0  0  0  0  0
   -2.0673   15.5372   17.9650 C   0  0  0  0  0  0  0  0  0  0  0  0
   -3.9215   17.0983   17.1630 C   0  0  0  0  0  0  0  0  0  0  0  0
   -3.3830   15.6753   17.1963 C   0  0  0  0  0  0  0  0  0  0  0  0
 23 24  1  0
 24 22  1  0
 22 21  1  0
 21 20  1  0
 20 19  1  0
 19 18  1  0
 18 17  1  0
 17 16  1  0
 16 15  1  0
 15 14  1  0
 14  1  1  0
  1  2  1  0
  2  3  1  0
  2  4  1  0
  2  5  1  0
  5  6  1  0
  6  7  1  0
  6  8  1  0
  6  9  1  0
  9 10  1  0
 10 11  1  0
 10 12  1  0
 10 13  1  0
M  CHG 1   2   1
M  CHG 1   6   1
M  CHG 1  10   1
M  END
> <minimizedAffinity>
-5.50638

> <CNNscore>
0.6841837764

> <CNNaffinity>
5.5634689331

> <CNN_VS>
3.8064351082

> <CNNaffinity_variance>
0.8273978233

$$$$



 24 23  0  0  0  0  0  0  0  0999 V2000
   -2.8527    7.8682   18.8505 C   0  0  0  0  0  0  0  0  0  0  0  0
   -2.5857    6.3128   19.1686 N   0  0  0  0  0  0  0  0  0  0  0  0
   -2.7064    6.2659   20.7190 C   0  0  0  0  0  0  0  0  0  0  0  0
   -1.1446    6.0001   18.8066 C   0  0  0  0  0  0  0  0  0  0  0  0
   -3.7015    5.5119   18.5129 C   0  0  0  0  0  0  0  0  0  0  0  0
   -3.5819    4.0007   18.1419 N   0  0  0  0  0  0  0  0  0  0  0  0
   -4.8952    3.4638   17.6047 C   0  0  0  0  0  0  0  0  0  0  0  0
   -3.3909    3.3409   19.5467 C   0  0  0  0  0  0  0  0  0  0  0  0
   -2.3724    3.7268   17.2719 C   0  0  0  0  0  0  0  0  0  0  0  0
   -1.6774    2.3753   17.2154 N   0  0  0  0  0  0  0  0  0  0  0  0
   -0.6159    2.0897   18.2751 C   0  0  0  0  0  0  0  0  0  0  0  0
   -0.8960    2.3544   15.8498 C   0  0  0  0  0  0  0  0  0  0  0  0
   -2.6278    1.1700   17.1355 C   0  0  0  0  0  0  0  0  0  0  0  0
   -3.1348    8.7874   20.0490 C   0  0  0  0  0  0  0  0  0  0  0  0
   -3.3865   10.2603   19.7422 C   0  0  0  0  0  0  0  0  0  0  0  0
   -2.1107   11.1115   19.6672 C   0  0  0  0  0  0  0  0  0  0  0  0
   -2.0700   12.0986   18.4943 C   0  0  0  0  0  0  0  0  0  0  0  0
   -3.4505   12.6645   18.1473 C   0  0  0  0  0  0  0  0  0  0  0  0
   -3.3895   13.9653   17.3385 C   0  0  0  0  0  0  0  0  0  0  0  0
   -2.1576   14.8191   17.6567 C   0  0  0  0  0  0  0  0  0  0  0  0
   -2.4911   16.3068   17.7983 C   0  0  0  0  0  0  0  0  0  0  0  0
   -3.9046   16.7066   17.3570 C   0  0  0  0  0  0  0  0  0  0  0  0
   -3.6260   18.6817   15.7634 C   0  0  0  0  0  0  0  0  0  0  0  0
   -4.0295   17.2230   15.9221 C   0  0  0  0  0  0  0  0  0  0  0  0
 23 24  1  0
 24 22  1  0
 22 21  1  0
 21 20  1  0
 20 19  1  0
 19 18  1  0
 18 17  1  0
 17 16  1  0
 16 15  1  0
 15 14  1  0
 14  1  1  0
  1  2  1  0
  2  3  1  0
  2  4  1  0
  2  5  1  0
  5  6  1  0
  6  7  1  0
  6  8  1  0
  6  9  1  0
  9 10  1  0
 10 11  1  0
 10 12  1  0
 10 13  1  0
M  CHG 1   2   1
M  CHG 1   6   1
M  CHG 1  10   1
M  END
> <minimizedAffinity>
-5.88591

> <CNNscore>
0.6776015162

> <CNNaffinity>
5.9271945953

> <CNN_VS>
4.0162758827

> <CNNaffinity_variance>
1.0736545324

$$$$



 24 23  0  0  0  0  0  0  0  0999 V2000
   -1.6448    5.8151   17.8720 C   0  0  0  0  0  0  0  0  0  0  0  0
   -1.9845    4.2434   17.9499 N   0  0  0  0  0  0  0  0  0  0  0  0
   -3.0904    4.0890   16.8666 C   0  0  0  0  0  0  0  0  0  0  0  0
   -2.6183    3.9663   19.3016 C   0  0  0  0  0  0  0  0  0  0  0  0
   -0.7275    3.4818   17.5546 C   0  0  0  0  0  0  0  0  0  0  0  0
   -0.3342    2.0914   18.1441 N   0  0  0  0  0  0  0  0  0  0  0  0
    0.2089    2.2289   19.5540 C   0  0  0  0  0  0  0  0  0  0  0  0
    0.8872    1.6989   17.2499 C   0  0  0  0  0  0  0  0  0  0  0  0
   -1.4446    1.0741   17.9804 C   0  0  0  0  0  0  0  0  0  0  0  0
   -1.1896   -0.3932   17.6717 N   0  0  0  0  0  0  0  0  0  0  0  0
   -0.7665   -0.7452   16.2476 C   0  0  0  0  0  0  0  0  0  0  0  0
   -2.5727   -1.1171   17.8693 C   0  0  0  0  0  0  0  0  0  0  0  0
   -0.2405   -1.0979   18.6541 C   0  0  0  0  0  0  0  0  0  0  0  0
   -1.8332    6.6345   19.1580 C   0  0  0  0  0  0  0  0  0  0  0  0
   -1.9660    8.1457   18.9978 C   0  0  0  0  0  0  0  0  0  0  0  0
   -1.8268    8.6367   17.5495 C   0  0  0  0  0  0  0  0  0  0  0  0
   -1.7679   10.1614   17.3954 C   0  0  0  0  0  0  0  0  0  0  0  0
   -1.5995   10.8867   18.7341 C   0  0  0  0  0  0  0  0  0  0  0  0
   -2.7162   11.8959   19.0245 C   0  0  0  0  0  0  0  0  0  0  0  0
   -2.7419   13.0704   18.0407 C   0  0  0  0  0  0  0  0  0  0  0  0
   -1.7280   14.1611   18.3970 C   0  0  0  0  0  0  0  0  0  0  0  0
   -2.1189   15.5827   17.9745 C   0  0  0  0  0  0  0  0  0  0  0  0
   -3.9791   17.1151   17.1320 C   0  0  0  0  0  0  0  0  0  0  0  0
   -3.4152   15.7022   17.1703 C   0  0  0  0  0  0  0  0  0  0  0  0
 23 24  1  0
 24 22  1  0
 22 21  1  0
 21 20  1  0
 20 19  1  0
 19 18  1  0
 18 17  1  0
 17 16  1  0
 16 15  1  0
 15 14  1  0
 14  1  1  0
  1  2  1  0
  2  3  1  0
  2  4  1  0
  2  5  1  0
  5  6  1  0
  6  7  1  0
  6  8  1  0
  6  9  1  0
  9 10  1  0
 10 11  1  0
 10 12  1  0
 10 13  1  0
M  CHG 1   2   1
M  CHG 1   6   1
M  CHG 1  10   1
M  END
> <minimizedAffinity>
-5.41069

> <CNNscore>
0.6756302118

> <CNNaffinity>
5.5296311378

> <CNN_VS>
3.7359857559

> <CNNaffinity_variance>
0.7117760181

$$$$



 24 23  0  0  0  0  0  0  0  0999 V2000
   -3.1605    3.6450   19.9538 C   0  0  0  0  0  0  0  0  0  0  0  0
   -2.9298    2.0931   19.5931 N   0  0  0  0  0  0  0  0  0  0  0  0
   -1.3864    2.0208   19.4112 C   0  0  0  0  0  0  0  0  0  0  0  0
   -3.5684    1.8251   18.2418 C   0  0  0  0  0  0  0  0  0  0  0  0
   -3.3738    1.2715   20.7948 C   0  0  0  0  0  0  0  0  0  0  0  0
   -4.8678    1.0221   21.1708 N   0  0  0  0  0  0  0  0  0  0  0  0
   -5.7421    0.9697   19.9321 C   0  0  0  0  0  0  0  0  0  0  0  0
   -5.2396    2.3532   21.9025 C   0  0  0  0  0  0  0  0  0  0  0  0
   -5.0239   -0.1505   22.1169 C   0  0  0  0  0  0  0  0  0  0  0  0
   -6.3704   -0.6167   22.6486 N   0  0  0  0  0  0  0  0  0  0  0  0
   -7.3745    0.4606   23.0515 C   0  0  0  0  0  0  0  0  0  0  0  0
   -6.0572   -1.3913   23.9820 C   0  0  0  0  0  0  0  0  0  0  0  0
   -7.0863   -1.6477   21.7615 C   0  0  0  0  0  0  0  0  0  0  0  0
   -3.1491    4.6424   18.7852 C   0  0  0  0  0  0  0  0  0  0  0  0
   -2.0109    5.6577   18.7581 C   0  0  0  0  0  0  0  0  0  0  0  0
   -2.0637    6.6263   17.5677 C   0  0  0  0  0  0  0  0  0  0  0  0
   -2.8635    7.9094   17.8240 C   0  0  0  0  0  0  0  0  0  0  0  0
   -1.9718    9.1030   18.1798 C   0  0  0  0  0  0  0  0  0  0  0  0
   -2.5920   10.0358   19.2264 C   0  0  0  0  0  0  0  0  0  0  0  0
   -1.8766   11.3866   19.3335 C   0  0  0  0  0  0  0  0  0  0  0  0
   -2.5517   12.4797   18.5005 C   0  0  0  0  0  0  0  0  0  0  0  0
   -1.7108   13.7415   18.2699 C   0  0  0  0  0  0  0  0  0  0  0  0
   -2.5546   15.4620   16.5828 C   0  0  0  0  0  0  0  0  0  0  0  0
   -2.5010   15.0317   18.0416 C   0  0  0  0  0  0  0  0  0  0  0  0
 23 24  1  0
 24 22  1  0
 22 21  1  0
 21 20  1  0
 20 19  1  0
 19 18  1  0
 18 17  1  0
 17 16  1  0
 16 15  1  0
 15 14  1  0
 14  1  1  0
  1  2  1  0
  2  3  1  0
  2  4  1  0
  2  5  1  0
  5  6  1  0
  6  7  1  0
  6  8  1  0
  6  9  1  0
  9 10  1  0
 10 11  1  0
 10 12  1  0
 10 13  1  0
M  CHG 1   2   1
M  CHG 1   6   1
M  CHG 1  10   1
M  END
> <minimizedAffinity>
-4.69289

> <CNNscore>
0.6655306220

> <CNNaffinity>
5.9442849159

> <CNN_VS>
3.9561035633

> <CNNaffinity_variance>
0.4837831557

$$$$



 24 23  0  0  0  0  0  0  0  0999 V2000
   -1.3504    2.8078   16.9247 C   0  0  0  0  0  0  0  0  0  0  0  0
   -0.8451    1.6178   15.9654 N   0  0  0  0  0  0  0  0  0  0  0  0
   -0.8449    0.3944   16.9264 C   0  0  0  0  0  0  0  0  0  0  0  0
    0.5955    1.9046   15.5804 C   0  0  0  0  0  0  0  0  0  0  0  0
   -1.8819    1.4435   14.8650 C   0  0  0  0  0  0  0  0  0  0  0  0
   -1.6104    0.6819   13.5301 N   0  0  0  0  0  0  0  0  0  0  0  0
   -0.3695   -0.1843   13.6372 C   0  0  0  0  0  0  0  0  0  0  0  0
   -1.2341    1.8533   12.5648 C   0  0  0  0  0  0  0  0  0  0  0  0
   -2.8483   -0.0295   13.0239 C   0  0  0  0  0  0  0  0  0  0  0  0
   -2.9322   -0.6774   11.6505 N   0  0  0  0  0  0  0  0  0  0  0  0
   -2.7276    0.2263   10.4370 C   0  0  0  0  0  0  0  0  0  0  0  0
   -4.4099   -1.2009   11.5156 C   0  0  0  0  0  0  0  0  0  0  0  0
   -2.0605   -1.9319   11.4807 C   0  0  0  0  0  0  0  0  0  0  0  0
   -2.3049    3.8427   16.3096 C   0  0  0  0  0  0  0  0  0  0  0  0
   -2.0610    5.3044   16.6716 C   0  0  0  0  0  0  0  0  0  0  0  0
   -1.5986    5.5224   18.1196 C   0  0  0  0  0  0  0  0  0  0  0  0
   -1.2903    6.9812   18.4783 C   0  0  0  0  0  0  0  0  0  0  0  0
   -2.5080    7.8985   18.3298 C   0  0  0  0  0  0  0  0  0  0  0  0
   -2.1395    9.3560   18.0302 C   0  0  0  0  0  0  0  0  0  0  0  0
   -3.0982   10.3666   18.6683 C   0  0  0  0  0  0  0  0  0  0  0  0
   -3.8617    9.7841   19.8609 C   0  0  0  0  0  0  0  0  0  0  0  0
   -3.8521   10.6459   21.1296 C   0  0  0  0  0  0  0  0  0  0  0  0
   -4.9180   11.2255   23.3760 C   0  0  0  0  0  0  0  0  0  0  0  0
   -5.0427   10.4526   22.0710 C   0  0  0  0  0  0  0  0  0  0  0  0
 23 24  1  0
 24 22  1  0
 22 21  1  0
 21 20  1  0
 20 19  1  0
 19 18  1  0
 18 17  1  0
 17 16  1  0
 16 15  1  0
 15 14  1  0
 14  1  1  0
  1  2  1  0
  2  3  1  0
  2  4  1  0
  2  5  1  0
  5  6  1  0
  6  7  1  0
  6  8  1  0
  6  9  1  0
  9 10  1  0
 10 11  1  0
 10 12  1  0
 10 13  1  0
M  CHG 1   2   1
M  CHG 1   6   1
M  CHG 1  10   1
M  END
> <minimizedAffinity>
-3.98863

> <CNNscore>
0.6624733210

> <CNNaffinity>
5.6743245125

> <CNN_VS>
3.7590885162

> <CNNaffinity_variance>
0.2202445716

$$$$
