


 33 34  0  0  0  0  0  0  0  0999 V2000
  -23.4319  -33.5835   15.5797 C   0  0  0  0  0  0  0  0  0  0  0  0
  -24.5535  -34.6044   15.4782 C   0  0  0  0  0  0  0  0  0  0  0  0
  -25.7623  -33.7002   15.3825 C   0  0  0  0  0  0  0  0  0  0  0  0
  -25.3765  -32.5192   16.2866 C   0  0  0  0  0  0  0  0  0  0  0  0
  -23.9292  -32.5046   16.3776 O   0  0  0  0  0  0  0  0  0  0  0  0
  -18.7446  -35.0278   14.8835 C   0  0  0  0  0  0  0  0  0  0  0  0
  -19.9450  -34.8094   15.7458 C   0  0  0  0  0  0  0  0  0  0  0  0
  -21.1080  -34.3061   15.3151 C   0  0  0  0  0  0  0  0  0  0  0  0
  -22.1929  -34.1060   16.1495 N   0  0  0  0  0  0  0  0  0  0  0  0
  -22.1303  -34.4144   17.5010 C   0  0  0  0  0  0  0  0  0  0  0  0
  -23.0496  -34.2428   18.3038 O   0  0  0  0  0  0  0  0  0  0  0  0
  -20.9452  -34.9442   17.9351 N   0  0  0  0  0  0  0  0  0  0  0  0
  -19.8315  -35.1622   17.1787 C   0  0  0  0  0  0  0  0  0  0  0  0
  -18.8009  -35.6271   17.6531 O   0  0  0  0  0  0  0  0  0  0  0  0
  -20.8916  -35.1922   18.8864 H   0  0  0  0  0  0  0  0  0  0  0  0
  -25.9215  -33.2213   14.0407 O   0  0  0  0  0  0  0  0  0  0  0  0
  -26.1776  -31.8148   13.9525 C   0  0  0  0  0  0  0  0  0  0  0  0
  -26.2202  -31.3600   12.4796 C   0  0  0  0  0  0  0  0  0  0  0  0
  -24.7680  -31.0704   12.0086 C   0  0  0  0  0  0  0  0  0  0  0  0
  -26.7463  -32.4998   11.5831 C   0  0  0  0  0  0  0  0  0  0  0  0
  -27.0266  -30.0366   12.2744 C   0  0  0  0  0  0  0  0  0  0  0  0
  -28.5645  -29.9129   12.5164 C   0  0  0  0  0  0  0  0  0  0  0  0
  -29.3987  -29.9527   11.2313 C   0  0  0  0  0  0  0  0  0  0  0  0
  -28.8046  -28.5368   13.1875 C   0  0  0  0  0  0  0  0  0  0  0  0
  -29.0885  -30.9816   13.4956 C   0  0  0  0  0  0  0  0  0  0  0  0
  -25.9573  -32.6689   17.6940 C   0  0  0  0  0  0  0  0  0  0  0  0
  -26.1097  -31.3906   18.2894 O   0  0  0  0  0  0  0  0  0  0  0  0
  -27.5591  -30.8820   18.7261 P   0  0  0  0  0  0  0  0  0  0  0  0
  -28.3449  -31.8265   19.5724 O   0  0  0  0  0  0  0  0  0  0  0  0
  -27.3110  -29.5097   19.5095 O   0  0  0  0  0  0  0  0  0  0  0  0
  -28.3103  -30.3850   17.4145 O   0  0  0  0  0  0  0  0  0  0  0  0
  -26.8497  -29.6920   20.3430 H   0  0  0  0  0  0  0  0  0  0  0  0
  -28.5157  -31.1474   16.8510 H   0  0  0  0  0  0  0  0  0  0  0  0
  6  7  1  0
  7  8  2  0
  8  9  1  0
  1  9  1  0
  1  2  1  0
  2  3  1  0
  3 16  1  0
 16 17  1  0
 17 18  1  0
 18 19  1  0
 18 20  1  0
 18 21  1  0
 21 22  1  0
 22 23  1  0
 22 24  1  0
 22 25  1  0
  3  4  1  0
  4 26  1  0
 26 27  1  0
 27 28  1  0
 28 29  2  0
 28 30  1  0
 28 31  1  0
  4  5  1  0
  9 10  1  0
 10 11  2  0
 10 12  1  0
 12 13  1  0
 13 14  2  0
 13  7  1  0
  5  1  1  0
 30 32  1  0
 31 33  1  0
 12 15  1  0
M  END
> <minimizedAffinity>
-5.95822

> <CNNscore>
0.7330907583

> <CNNaffinity>
5.9973959923

> <CNN_VS>
4.3966355324

> <CNNaffinity_variance>
0.2104939967

$$$$



 33 34  0  0  0  0  0  0  0  0999 V2000
  -23.8847  -33.6160   15.7840 C   0  0  0  0  0  0  0  0  0  0  0  0
  -25.0030  -34.6455   15.7880 C   0  0  0  0  0  0  0  0  0  0  0  0
  -26.2193  -33.7545   15.6657 C   0  0  0  0  0  0  0  0  0  0  0  0
  -25.8134  -32.5116   16.4727 C   0  0  0  0  0  0  0  0  0  0  0  0
  -24.3642  -32.4855   16.5189 O   0  0  0  0  0  0  0  0  0  0  0  0
  -19.1743  -34.9709   15.0650 C   0  0  0  0  0  0  0  0  0  0  0  0
  -20.3681  -34.7554   15.9372 C   0  0  0  0  0  0  0  0  0  0  0  0
  -21.5481  -34.2919   15.5083 C   0  0  0  0  0  0  0  0  0  0  0  0
  -22.6264  -34.0928   16.3515 N   0  0  0  0  0  0  0  0  0  0  0  0
  -22.5388  -34.3601   17.7103 C   0  0  0  0  0  0  0  0  0  0  0  0
  -23.4512  -34.1865   18.5205 O   0  0  0  0  0  0  0  0  0  0  0  0
  -21.3360  -34.8494   18.1431 N   0  0  0  0  0  0  0  0  0  0  0  0
  -20.2275  -35.0634   17.3780 C   0  0  0  0  0  0  0  0  0  0  0  0
  -19.1800  -35.4903   17.8513 O   0  0  0  0  0  0  0  0  0  0  0  0
  -21.2640  -35.0683   19.1003 H   0  0  0  0  0  0  0  0  0  0  0  0
  -26.4211  -33.3716   14.2990 O   0  0  0  0  0  0  0  0  0  0  0  0
  -26.4407  -31.9547   14.0896 C   0  0  0  0  0  0  0  0  0  0  0  0
  -26.9599  -31.6199   12.6767 C   0  0  0  0  0  0  0  0  0  0  0  0
  -28.0492  -32.6584   12.2904 C   0  0  0  0  0  0  0  0  0  0  0  0
  -27.6554  -30.2429   12.6750 C   0  0  0  0  0  0  0  0  0  0  0  0
  -25.8480  -31.7133   11.5818 C   0  0  0  0  0  0  0  0  0  0  0  0
  -24.5712  -30.8141   11.5647 C   0  0  0  0  0  0  0  0  0  0  0  0
  -24.2027  -30.2358   12.9354 C   0  0  0  0  0  0  0  0  0  0  0  0
  -24.8730  -29.6231   10.6202 C   0  0  0  0  0  0  0  0  0  0  0  0
  -23.3494  -31.5475   10.9775 C   0  0  0  0  0  0  0  0  0  0  0  0
  -26.3512  -32.5642   17.9040 C   0  0  0  0  0  0  0  0  0  0  0  0
  -26.3005  -31.2709   18.4843 O   0  0  0  0  0  0  0  0  0  0  0  0
  -27.6446  -30.5666   18.9813 P   0  0  0  0  0  0  0  0  0  0  0  0
  -28.6047  -30.1807   17.9065 O   0  0  0  0  0  0  0  0  0  0  0  0
  -28.3256  -31.6087   19.9857 O   0  0  0  0  0  0  0  0  0  0  0  0
  -27.2337  -29.3814   19.9601 O   0  0  0  0  0  0  0  0  0  0  0  0
  -28.6216  -32.3887   19.4908 H   0  0  0  0  0  0  0  0  0  0  0  0
  -26.8026  -28.6768   19.4515 H   0  0  0  0  0  0  0  0  0  0  0  0
  6  7  1  0
  7  8  2  0
  8  9  1  0
  1  9  1  0
  1  2  1  0
  2  3  1  0
  3 16  1  0
 16 17  1  0
 17 18  1  0
 18 19  1  0
 18 20  1  0
 18 21  1  0
 21 22  1  0
 22 23  1  0
 22 24  1  0
 22 25  1  0
  3  4  1  0
  4 26  1  0
 26 27  1  0
 27 28  1  0
 28 29  2  0
 28 30  1  0
 28 31  1  0
  4  5  1  0
  9 10  1  0
 10 11  2  0
 10 12  1  0
 12 13  1  0
 13 14  2  0
 13  7  1  0
  5  1  1  0
 30 32  1  0
 31 33  1  0
 12 15  1  0
M  END
> <minimizedAffinity>
-6.73722

> <CNNscore>
0.7025204897

> <CNNaffinity>
6.1106400490

> <CNN_VS>
4.2928500175

> <CNNaffinity_variance>
0.2575037777

$$$$



 33 34  0  0  0  0  0  0  0  0999 V2000
  -22.8482  -32.9230   15.4101 C   0  0  0  0  0  0  0  0  0  0  0  0
  -23.6664  -33.8823   14.5612 C   0  0  0  0  0  0  0  0  0  0  0  0
  -24.9883  -33.1510   14.4876 C   0  0  0  0  0  0  0  0  0  0  0  0
  -25.0869  -32.4860   15.8693 C   0  0  0  0  0  0  0  0  0  0  0  0
  -23.7381  -32.3811   16.3912 O   0  0  0  0  0  0  0  0  0  0  0  0
  -17.9417  -33.5982   15.5168 C   0  0  0  0  0  0  0  0  0  0  0  0
  -19.3194  -33.8374   16.0430 C   0  0  0  0  0  0  0  0  0  0  0  0
  -20.4319  -33.2960   15.5324 C   0  0  0  0  0  0  0  0  0  0  0  0
  -21.6895  -33.5317   16.0579 N   0  0  0  0  0  0  0  0  0  0  0  0
  -21.8673  -34.3493   17.1649 C   0  0  0  0  0  0  0  0  0  0  0  0
  -22.9540  -34.5854   17.6963 O   0  0  0  0  0  0  0  0  0  0  0  0
  -20.7297  -34.9145   17.6748 N   0  0  0  0  0  0  0  0  0  0  0  0
  -19.4581  -34.7240   17.2198 C   0  0  0  0  0  0  0  0  0  0  0  0
  -18.4890  -35.2582   17.7479 O   0  0  0  0  0  0  0  0  0  0  0  0
  -20.8401  -35.5175   18.4452 H   0  0  0  0  0  0  0  0  0  0  0  0
  -24.9363  -32.1271   13.4855 O   0  0  0  0  0  0  0  0  0  0  0  0
  -24.4612  -32.5829   12.2134 C   0  0  0  0  0  0  0  0  0  0  0  0
  -23.5066  -31.5474   11.5854 C   0  0  0  0  0  0  0  0  0  0  0  0
  -23.3661  -30.3471   12.5621 C   0  0  0  0  0  0  0  0  0  0  0  0
  -22.0936  -32.1471   11.4314 C   0  0  0  0  0  0  0  0  0  0  0  0
  -24.0429  -30.9640   10.2379 C   0  0  0  0  0  0  0  0  0  0  0  0
  -25.3190  -30.0703   10.1276 C   0  0  0  0  0  0  0  0  0  0  0  0
  -25.6435  -29.6282    8.6965 C   0  0  0  0  0  0  0  0  0  0  0  0
  -25.0465  -28.7929   10.9615 C   0  0  0  0  0  0  0  0  0  0  0  0
  -26.5592  -30.7465   10.7440 C   0  0  0  0  0  0  0  0  0  0  0  0
  -25.9278  -33.3173   16.8401 C   0  0  0  0  0  0  0  0  0  0  0  0
  -25.9836  -32.6718   18.1018 O   0  0  0  0  0  0  0  0  0  0  0  0
  -26.9533  -31.4212   18.3155 P   0  0  0  0  0  0  0  0  0  0  0  0
  -27.8440  -31.0930   17.1646 O   0  0  0  0  0  0  0  0  0  0  0  0
  -27.8253  -31.7742   19.6092 O   0  0  0  0  0  0  0  0  0  0  0  0
  -26.0656  -30.2068   18.8343 O   0  0  0  0  0  0  0  0  0  0  0  0
  -28.4168  -32.5162   19.4078 H   0  0  0  0  0  0  0  0  0  0  0  0
  -25.4844  -29.9028   18.1197 H   0  0  0  0  0  0  0  0  0  0  0  0
  6  7  1  0
  7  8  2  0
  8  9  1  0
  1  9  1  0
  1  2  1  0
  2  3  1  0
  3 16  1  0
 16 17  1  0
 17 18  1  0
 18 19  1  0
 18 20  1  0
 18 21  1  0
 21 22  1  0
 22 23  1  0
 22 24  1  0
 22 25  1  0
  3  4  1  0
  4 26  1  0
 26 27  1  0
 27 28  1  0
 28 29  2  0
 28 30  1  0
 28 31  1  0
  4  5  1  0
  9 10  1  0
 10 11  2  0
 10 12  1  0
 12 13  1  0
 13 14  2  0
 13  7  1  0
  5  1  1  0
 30 32  1  0
 31 33  1  0
 12 15  1  0
M  END
> <minimizedAffinity>
-7.43178

> <CNNscore>
0.5135633349

> <CNNaffinity>
6.0549659729

> <CNN_VS>
3.1096084118

> <CNNaffinity_variance>
0.3994745016

$$$$



 33 34  0  0  0  0  0  0  0  0999 V2000
  -21.7997  -34.1542   15.2619 C   0  0  0  0  0  0  0  0  0  0  0  0
  -22.3083  -32.7260   15.1518 C   0  0  0  0  0  0  0  0  0  0  0  0
  -23.3141  -32.8609   14.0302 C   0  0  0  0  0  0  0  0  0  0  0  0
  -22.6658  -33.9121   13.1160 C   0  0  0  0  0  0  0  0  0  0  0  0
  -21.7359  -34.6717   13.9292 O   0  0  0  0  0  0  0  0  0  0  0  0
  -16.8782  -33.6440   15.0159 C   0  0  0  0  0  0  0  0  0  0  0  0
  -18.1315  -34.0340   15.7297 C   0  0  0  0  0  0  0  0  0  0  0  0
  -19.3631  -33.9214   15.2181 C   0  0  0  0  0  0  0  0  0  0  0  0
  -20.5009  -34.2811   15.9177 N   0  0  0  0  0  0  0  0  0  0  0  0
  -20.4258  -34.7790   17.2107 C   0  0  0  0  0  0  0  0  0  0  0  0
  -21.3977  -35.0988   17.8978 O   0  0  0  0  0  0  0  0  0  0  0  0
  -19.1638  -34.9083   17.7250 N   0  0  0  0  0  0  0  0  0  0  0  0
  -17.9985  -34.5682   17.1035 C   0  0  0  0  0  0  0  0  0  0  0  0
  -16.9066  -34.7016   17.6452 O   0  0  0  0  0  0  0  0  0  0  0  0
  -19.0903  -35.2835   18.6323 H   0  0  0  0  0  0  0  0  0  0  0  0
  -24.5512  -33.3848   14.5306 O   0  0  0  0  0  0  0  0  0  0  0  0
  -25.2075  -32.5265   15.4710 C   0  0  0  0  0  0  0  0  0  0  0  0
  -25.6754  -33.3258   16.7039 C   0  0  0  0  0  0  0  0  0  0  0  0
  -25.1580  -34.7851   16.5735 C   0  0  0  0  0  0  0  0  0  0  0  0
  -25.0366  -32.7535   17.9861 C   0  0  0  0  0  0  0  0  0  0  0  0
  -27.2321  -33.4142   16.8169 C   0  0  0  0  0  0  0  0  0  0  0  0
  -28.1718  -32.1668   16.8333 C   0  0  0  0  0  0  0  0  0  0  0  0
  -28.1831  -31.3828   15.5165 C   0  0  0  0  0  0  0  0  0  0  0  0
  -27.6405  -31.2185   17.9379 C   0  0  0  0  0  0  0  0  0  0  0  0
  -29.6184  -32.5318   17.2198 C   0  0  0  0  0  0  0  0  0  0  0  0
  -21.8967  -33.2641   11.9631 C   0  0  0  0  0  0  0  0  0  0  0  0
  -21.5710  -34.2448   10.9915 O   0  0  0  0  0  0  0  0  0  0  0  0
  -20.2425  -34.0922   10.1187 P   0  0  0  0  0  0  0  0  0  0  0  0
  -19.4762  -32.8293   10.3279 O   0  0  0  0  0  0  0  0  0  0  0  0
  -19.3391  -35.3580   10.4928 O   0  0  0  0  0  0  0  0  0  0  0  0
  -20.6246  -34.3926    8.6036 O   0  0  0  0  0  0  0  0  0  0  0  0
  -19.0422  -35.2827   11.4132 H   0  0  0  0  0  0  0  0  0  0  0  0
  -21.1835  -33.6766    8.2631 H   0  0  0  0  0  0  0  0  0  0  0  0
  6  7  1  0
  7  8  2  0
  8  9  1  0
  1  9  1  0
  1  2  1  0
  2  3  1  0
  3 16  1  0
 16 17  1  0
 17 18  1  0
 18 19  1  0
 18 20  1  0
 18 21  1  0
 21 22  1  0
 22 23  1  0
 22 24  1  0
 22 25  1  0
  3  4  1  0
  4 26  1  0
 26 27  1  0
 27 28  1  0
 28 29  2  0
 28 30  1  0
 28 31  1  0
  4  5  1  0
  9 10  1  0
 10 11  2  0
 10 12  1  0
 12 13  1  0
 13 14  2  0
 13  7  1  0
  5  1  1  0
 30 32  1  0
 31 33  1  0
 12 15  1  0
M  END
> <minimizedAffinity>
-5.82978

> <CNNscore>
0.5090692043

> <CNNaffinity>
5.7522149086

> <CNN_VS>
2.9282755852

> <CNNaffinity_variance>
0.3515782654

$$$$



 33 34  0  0  0  0  0  0  0  0999 V2000
  -22.6446  -33.6263   13.8798 C   0  0  0  0  0  0  0  0  0  0  0  0
  -22.7509  -32.1927   13.3861 C   0  0  0  0  0  0  0  0  0  0  0  0
  -22.3054  -32.3460   11.9488 C   0  0  0  0  0  0  0  0  0  0  0  0
  -21.2321  -33.4418   12.0401 C   0  0  0  0  0  0  0  0  0  0  0  0
  -21.4879  -34.1915   13.2548 O   0  0  0  0  0  0  0  0  0  0  0  0
  -24.9569  -33.8715   18.2541 C   0  0  0  0  0  0  0  0  0  0  0  0
  -23.7229  -33.8472   17.4121 C   0  0  0  0  0  0  0  0  0  0  0  0
  -23.7166  -33.7626   16.0764 C   0  0  0  0  0  0  0  0  0  0  0  0
  -22.5511  -33.7571   15.3314 N   0  0  0  0  0  0  0  0  0  0  0  0
  -21.3065  -33.8480   15.9380 C   0  0  0  0  0  0  0  0  0  0  0  0
  -20.2314  -33.8696   15.3356 O   0  0  0  0  0  0  0  0  0  0  0  0
  -21.3156  -33.9179   17.3050 N   0  0  0  0  0  0  0  0  0  0  0  0
  -22.4190  -33.9378   18.1064 C   0  0  0  0  0  0  0  0  0  0  0  0
  -22.3378  -34.0196   19.3271 O   0  0  0  0  0  0  0  0  0  0  0  0
  -20.4401  -33.9578   17.7536 H   0  0  0  0  0  0  0  0  0  0  0  0
  -23.3873  -32.8262   11.1401 O   0  0  0  0  0  0  0  0  0  0  0  0
  -24.1285  -31.7894   10.4863 C   0  0  0  0  0  0  0  0  0  0  0  0
  -25.6102  -31.8274   10.9119 C   0  0  0  0  0  0  0  0  0  0  0  0
  -25.9207  -33.2319   11.4996 C   0  0  0  0  0  0  0  0  0  0  0  0
  -25.8660  -30.8167   12.0489 C   0  0  0  0  0  0  0  0  0  0  0  0
  -26.5929  -31.6192    9.7141 C   0  0  0  0  0  0  0  0  0  0  0  0
  -26.7787  -30.2574    8.9725 C   0  0  0  0  0  0  0  0  0  0  0  0
  -27.2590  -30.4015    7.5242 C   0  0  0  0  0  0  0  0  0  0  0  0
  -25.3896  -29.5711    8.9386 C   0  0  0  0  0  0  0  0  0  0  0  0
  -27.7255  -29.3057    9.7296 C   0  0  0  0  0  0  0  0  0  0  0  0
  -19.8229  -32.8508   12.1132 C   0  0  0  0  0  0  0  0  0  0  0  0
  -18.8665  -33.8471   11.7898 O   0  0  0  0  0  0  0  0  0  0  0  0
  -18.3441  -33.9934   10.2880 P   0  0  0  0  0  0  0  0  0  0  0  0
  -19.4044  -34.1422    9.2491 O   0  0  0  0  0  0  0  0  0  0  0  0
  -17.4745  -32.6801   10.0095 O   0  0  0  0  0  0  0  0  0  0  0  0
  -17.2361  -35.1352   10.2728 O   0  0  0  0  0  0  0  0  0  0  0  0
  -18.0562  -31.9040    9.9961 H   0  0  0  0  0  0  0  0  0  0  0  0
  -17.6554  -35.9949   10.4344 H   0  0  0  0  0  0  0  0  0  0  0  0
  6  7  1  0
  7  8  2  0
  8  9  1  0
  1  9  1  0
  1  2  1  0
  2  3  1  0
  3 16  1  0
 16 17  1  0
 17 18  1  0
 18 19  1  0
 18 20  1  0
 18 21  1  0
 21 22  1  0
 22 23  1  0
 22 24  1  0
 22 25  1  0
  3  4  1  0
  4 26  1  0
 26 27  1  0
 27 28  1  0
 28 29  2  0
 28 30  1  0
 28 31  1  0
  4  5  1  0
  9 10  1  0
 10 11  2  0
 10 12  1  0
 12 13  1  0
 13 14  2  0
 13  7  1  0
  5  1  1  0
 30 32  1  0
 31 33  1  0
 12 15  1  0
M  END
> <minimizedAffinity>
-5.39652

> <CNNscore>
0.4883145392

> <CNNaffinity>
5.3850083351

> <CNN_VS>
2.6295778751

> <CNNaffinity_variance>
0.3187667131

$$$$



 33 34  0  0  0  0  0  0  0  0999 V2000
  -25.4684  -32.6462   15.2653 C   0  0  0  0  0  0  0  0  0  0  0  0
  -26.3535  -33.6962   14.6136 C   0  0  0  0  0  0  0  0  0  0  0  0
  -27.5052  -32.8448   14.1270 C   0  0  0  0  0  0  0  0  0  0  0  0
  -27.6260  -31.7761   15.2245 C   0  0  0  0  0  0  0  0  0  0  0  0
  -26.3431  -31.7060   15.8969 O   0  0  0  0  0  0  0  0  0  0  0  0
  -20.7526  -33.2229   16.6686 C   0  0  0  0  0  0  0  0  0  0  0  0
  -22.2196  -33.4441   16.8454 C   0  0  0  0  0  0  0  0  0  0  0  0
  -23.1639  -32.9650   16.0269 C   0  0  0  0  0  0  0  0  0  0  0  0
  -24.5145  -33.1806   16.2333 N   0  0  0  0  0  0  0  0  0  0  0  0
  -24.9705  -33.9107   17.3217 C   0  0  0  0  0  0  0  0  0  0  0  0
  -26.1573  -34.1232   17.5773 O   0  0  0  0  0  0  0  0  0  0  0  0
  -24.0017  -34.4132   18.1479 N   0  0  0  0  0  0  0  0  0  0  0  0
  -22.6558  -34.2368   18.0167 C   0  0  0  0  0  0  0  0  0  0  0  0
  -21.8544  -34.7098   18.8152 O   0  0  0  0  0  0  0  0  0  0  0  0
  -24.3064  -34.9549   18.9115 H   0  0  0  0  0  0  0  0  0  0  0  0
  -27.1626  -32.2015   12.8925 O   0  0  0  0  0  0  0  0  0  0  0  0
  -28.2852  -31.9426   12.0413 C   0  0  0  0  0  0  0  0  0  0  0  0
  -28.1863  -30.5336   11.4226 C   0  0  0  0  0  0  0  0  0  0  0  0
  -26.9839  -29.7919   12.0695 C   0  0  0  0  0  0  0  0  0  0  0  0
  -27.8732  -30.6323    9.9153 C   0  0  0  0  0  0  0  0  0  0  0  0
  -29.4508  -29.6572   11.6997 C   0  0  0  0  0  0  0  0  0  0  0  0
  -30.1859  -28.8250   10.6014 C   0  0  0  0  0  0  0  0  0  0  0  0
  -30.5815  -29.6422    9.3666 C   0  0  0  0  0  0  0  0  0  0  0  0
  -29.1998  -27.7234   10.1371 C   0  0  0  0  0  0  0  0  0  0  0  0
  -31.4307  -28.1027   11.1528 C   0  0  0  0  0  0  0  0  0  0  0  0
  -28.7015  -32.1366   16.2511 C   0  0  0  0  0  0  0  0  0  0  0  0
  -28.6625  -31.2176   17.3308 O   0  0  0  0  0  0  0  0  0  0  0  0
  -29.0263  -31.7057   18.8070 P   0  0  0  0  0  0  0  0  0  0  0  0
  -30.4515  -31.5288   19.2108 O   0  0  0  0  0  0  0  0  0  0  0  0
  -28.6236  -33.2530   18.8556 O   0  0  0  0  0  0  0  0  0  0  0  0
  -27.9694  -31.0558   19.8032 O   0  0  0  0  0  0  0  0  0  0  0  0
  -29.2126  -33.7588   18.2740 H   0  0  0  0  0  0  0  0  0  0  0  0
  -28.1198  -30.0989   19.8549 H   0  0  0  0  0  0  0  0  0  0  0  0
  6  7  1  0
  7  8  2  0
  8  9  1  0
  1  9  1  0
  1  2  1  0
  2  3  1  0
  3 16  1  0
 16 17  1  0
 17 18  1  0
 18 19  1  0
 18 20  1  0
 18 21  1  0
 21 22  1  0
 22 23  1  0
 22 24  1  0
 22 25  1  0
  3  4  1  0
  4 26  1  0
 26 27  1  0
 27 28  1  0
 28 29  2  0
 28 30  1  0
 28 31  1  0
  4  5  1  0
  9 10  1  0
 10 11  2  0
 10 12  1  0
 12 13  1  0
 13 14  2  0
 13  7  1  0
  5  1  1  0
 30 32  1  0
 31 33  1  0
 12 15  1  0
M  END
> <minimizedAffinity>
-5.64242

> <CNNscore>
0.4757853150

> <CNNaffinity>
5.3891367912

> <CNN_VS>
2.5640721321

> <CNNaffinity_variance>
0.0563240051

$$$$



 33 34  0  0  0  0  0  0  0  0999 V2000
  -25.2907  -32.6264   15.1720 C   0  0  0  0  0  0  0  0  0  0  0  0
  -26.1280  -33.6413   14.4109 C   0  0  0  0  0  0  0  0  0  0  0  0
  -27.2971  -32.7860   13.9752 C   0  0  0  0  0  0  0  0  0  0  0  0
  -27.4743  -31.8230   15.1593 C   0  0  0  0  0  0  0  0  0  0  0  0
  -26.2078  -31.7731   15.8640 O   0  0  0  0  0  0  0  0  0  0  0  0
  -20.5925  -33.1343   16.6588 C   0  0  0  0  0  0  0  0  0  0  0  0
  -22.0516  -33.4376   16.7654 C   0  0  0  0  0  0  0  0  0  0  0  0
  -22.9951  -32.9192   15.9702 C   0  0  0  0  0  0  0  0  0  0  0  0
  -24.3390  -33.2148   16.1106 N   0  0  0  0  0  0  0  0  0  0  0  0
  -24.7892  -34.0727   17.1040 C   0  0  0  0  0  0  0  0  0  0  0  0
  -25.9711  -34.3630   17.2987 O   0  0  0  0  0  0  0  0  0  0  0  0
  -23.8204  -34.6141   17.9052 N   0  0  0  0  0  0  0  0  0  0  0  0
  -22.4812  -34.3654   17.8355 C   0  0  0  0  0  0  0  0  0  0  0  0
  -21.6803  -34.8820   18.6069 O   0  0  0  0  0  0  0  0  0  0  0  0
  -24.1195  -35.2446   18.5997 H   0  0  0  0  0  0  0  0  0  0  0  0
  -26.9515  -32.0258   12.8100 O   0  0  0  0  0  0  0  0  0  0  0  0
  -26.6571  -32.8272   11.6598 C   0  0  0  0  0  0  0  0  0  0  0  0
  -26.6732  -31.9686   10.3789 C   0  0  0  0  0  0  0  0  0  0  0  0
  -27.3903  -30.6261   10.6916 C   0  0  0  0  0  0  0  0  0  0  0  0
  -25.2336  -31.6030    9.9623 C   0  0  0  0  0  0  0  0  0  0  0  0
  -27.4677  -32.6354    9.2093 C   0  0  0  0  0  0  0  0  0  0  0  0
  -27.0006  -32.6093    7.7192 C   0  0  0  0  0  0  0  0  0  0  0  0
  -25.5584  -33.0854    7.5140 C   0  0  0  0  0  0  0  0  0  0  0  0
  -27.0777  -31.1344    7.2500 C   0  0  0  0  0  0  0  0  0  0  0  0
  -27.9380  -33.4169    6.8003 C   0  0  0  0  0  0  0  0  0  0  0  0
  -28.5574  -32.3058   16.1259 C   0  0  0  0  0  0  0  0  0  0  0  0
  -28.6524  -31.4146   17.2253 O   0  0  0  0  0  0  0  0  0  0  0  0
  -28.7908  -31.9900   18.7085 P   0  0  0  0  0  0  0  0  0  0  0  0
  -28.5250  -33.4501   18.8602 O   0  0  0  0  0  0  0  0  0  0  0  0
  -27.7605  -31.1435   19.5919 O   0  0  0  0  0  0  0  0  0  0  0  0
  -30.1946  -31.5085   19.2825 O   0  0  0  0  0  0  0  0  0  0  0  0
  -26.8530  -31.3587   19.3252 H   0  0  0  0  0  0  0  0  0  0  0  0
  -30.9098  -31.9647   18.8122 H   0  0  0  0  0  0  0  0  0  0  0  0
  6  7  1  0
  7  8  2  0
  8  9  1  0
  1  9  1  0
  1  2  1  0
  2  3  1  0
  3 16  1  0
 16 17  1  0
 17 18  1  0
 18 19  1  0
 18 20  1  0
 18 21  1  0
 21 22  1  0
 22 23  1  0
 22 24  1  0
 22 25  1  0
  3  4  1  0
  4 26  1  0
 26 27  1  0
 27 28  1  0
 28 29  2  0
 28 30  1  0
 28 31  1  0
  4  5  1  0
  9 10  1  0
 10 11  2  0
 10 12  1  0
 12 13  1  0
 13 14  2  0
 13  7  1  0
  5  1  1  0
 30 32  1  0
 31 33  1  0
 12 15  1  0
M  END
> <minimizedAffinity>
-5.99671

> <CNNscore>
0.4724746346

> <CNNaffinity>
5.3054671288

> <CNN_VS>
2.5066986084

> <CNNaffinity_variance>
0.1090776920

$$$$



 33 34  0  0  0  0  0  0  0  0999 V2000
  -25.3935  -32.4433   15.8576 C   0  0  0  0  0  0  0  0  0  0  0  0
  -26.3932  -33.3522   15.1612 C   0  0  0  0  0  0  0  0  0  0  0  0
  -27.5479  -32.4003   14.9409 C   0  0  0  0  0  0  0  0  0  0  0  0
  -27.4983  -31.5097   16.1921 C   0  0  0  0  0  0  0  0  0  0  0  0
  -26.1488  -31.5842   16.7175 O   0  0  0  0  0  0  0  0  0  0  0  0
  -20.6129  -33.6052   16.4376 C   0  0  0  0  0  0  0  0  0  0  0  0
  -22.0507  -33.6924   16.8342 C   0  0  0  0  0  0  0  0  0  0  0  0
  -23.0498  -33.0541   16.2132 C   0  0  0  0  0  0  0  0  0  0  0  0
  -24.3682  -33.1499   16.6206 N   0  0  0  0  0  0  0  0  0  0  0  0
  -24.7305  -33.9193   17.7171 C   0  0  0  0  0  0  0  0  0  0  0  0
  -25.8802  -34.0326   18.1465 O   0  0  0  0  0  0  0  0  0  0  0  0
  -23.7088  -34.5839   18.3401 N   0  0  0  0  0  0  0  0  0  0  0  0
  -22.3878  -34.5328   18.0049 C   0  0  0  0  0  0  0  0  0  0  0  0
  -21.5315  -35.1490   18.6298 O   0  0  0  0  0  0  0  0  0  0  0  0
  -23.9513  -35.1544   19.1049 H   0  0  0  0  0  0  0  0  0  0  0  0
  -27.3091  -31.5862   13.7854 O   0  0  0  0  0  0  0  0  0  0  0  0
  -26.5935  -32.2559   12.7408 C   0  0  0  0  0  0  0  0  0  0  0  0
  -26.2551  -31.2773   11.5980 C   0  0  0  0  0  0  0  0  0  0  0  0
  -27.5100  -31.1164   10.6960 C   0  0  0  0  0  0  0  0  0  0  0  0
  -25.9491  -29.8763   12.1669 C   0  0  0  0  0  0  0  0  0  0  0  0
  -25.1060  -31.7954   10.6734 C   0  0  0  0  0  0  0  0  0  0  0  0
  -23.7039  -32.2386   11.1994 C   0  0  0  0  0  0  0  0  0  0  0  0
  -22.5564  -31.9443   10.2270 C   0  0  0  0  0  0  0  0  0  0  0  0
  -23.7643  -33.7740   11.4010 C   0  0  0  0  0  0  0  0  0  0  0  0
  -23.3757  -31.6232   12.5738 C   0  0  0  0  0  0  0  0  0  0  0  0
  -28.4736  -31.9895   17.2688 C   0  0  0  0  0  0  0  0  0  0  0  0
  -29.0826  -30.8733   17.8974 O   0  0  0  0  0  0  0  0  0  0  0  0
  -28.5636  -30.3808   19.3249 P   0  0  0  0  0  0  0  0  0  0  0  0
  -29.4876  -29.4763   20.0691 O   0  0  0  0  0  0  0  0  0  0  0  0
  -28.2971  -31.7155   20.1653 O   0  0  0  0  0  0  0  0  0  0  0  0
  -27.0909  -29.8104   19.1312 O   0  0  0  0  0  0  0  0  0  0  0  0
  -29.1414  -32.1575   20.3463 H   0  0  0  0  0  0  0  0  0  0  0  0
  -27.1282  -28.9842   18.6243 H   0  0  0  0  0  0  0  0  0  0  0  0
  6  7  1  0
  7  8  2  0
  8  9  1  0
  1  9  1  0
  1  2  1  0
  2  3  1  0
  3 16  1  0
 16 17  1  0
 17 18  1  0
 18 19  1  0
 18 20  1  0
 18 21  1  0
 21 22  1  0
 22 23  1  0
 22 24  1  0
 22 25  1  0
  3  4  1  0
  4 26  1  0
 26 27  1  0
 27 28  1  0
 28 29  2  0
 28 30  1  0
 28 31  1  0
  4  5  1  0
  9 10  1  0
 10 11  2  0
 10 12  1  0
 12 13  1  0
 13 14  2  0
 13  7  1  0
  5  1  1  0
 30 32  1  0
 31 33  1  0
 12 15  1  0
M  END
> <minimizedAffinity>
-6.85110

> <CNNscore>
0.4627164602

> <CNNaffinity>
5.6657257080

> <CNN_VS>
2.6216244698

> <CNNaffinity_variance>
0.2126665860

$$$$



 33 34  0  0  0  0  0  0  0  0999 V2000
  -23.8492  -33.6147   15.6790 C   0  0  0  0  0  0  0  0  0  0  0  0
  -24.9276  -34.6792   15.5599 C   0  0  0  0  0  0  0  0  0  0  0  0
  -26.1698  -33.8237   15.4461 C   0  0  0  0  0  0  0  0  0  0  0  0
  -25.8451  -32.6292   16.3564 C   0  0  0  0  0  0  0  0  0  0  0  0
  -24.4012  -32.5571   16.4695 O   0  0  0  0  0  0  0  0  0  0  0  0
  -19.1246  -34.9596   15.0386 C   0  0  0  0  0  0  0  0  0  0  0  0
  -20.3330  -34.7459   15.8909 C   0  0  0  0  0  0  0  0  0  0  0  0
  -21.5069  -34.2856   15.4422 C   0  0  0  0  0  0  0  0  0  0  0  0
  -22.5992  -34.0881   16.2674 N   0  0  0  0  0  0  0  0  0  0  0  0
  -22.5333  -34.3538   17.6278 C   0  0  0  0  0  0  0  0  0  0  0  0
  -23.4593  -34.1815   18.4227 O   0  0  0  0  0  0  0  0  0  0  0  0
  -21.3366  -34.8400   18.0808 N   0  0  0  0  0  0  0  0  0  0  0  0
  -20.2153  -35.0522   17.3340 C   0  0  0  0  0  0  0  0  0  0  0  0
  -19.1747  -35.4763   17.8249 O   0  0  0  0  0  0  0  0  0  0  0  0
  -21.2798  -35.0577   19.0392 H   0  0  0  0  0  0  0  0  0  0  0  0
  -26.3275  -33.3502   14.1022 O   0  0  0  0  0  0  0  0  0  0  0  0
  -26.2187  -34.3759   13.1084 C   0  0  0  0  0  0  0  0  0  0  0  0
  -25.3766  -33.8884   11.9120 C   0  0  0  0  0  0  0  0  0  0  0  0
  -25.3199  -32.3359   11.9463 C   0  0  0  0  0  0  0  0  0  0  0  0
  -23.9200  -34.3774   12.0488 C   0  0  0  0  0  0  0  0  0  0  0  0
  -25.9966  -34.2804   10.5315 C   0  0  0  0  0  0  0  0  0  0  0  0
  -26.1199  -35.7522   10.0238 C   0  0  0  0  0  0  0  0  0  0  0  0
  -26.1119  -36.7968   11.1453 C   0  0  0  0  0  0  0  0  0  0  0  0
  -24.8872  -36.0221    9.1242 C   0  0  0  0  0  0  0  0  0  0  0  0
  -27.3668  -35.9624    9.1427 C   0  0  0  0  0  0  0  0  0  0  0  0
  -26.4409  -32.8032   17.7547 C   0  0  0  0  0  0  0  0  0  0  0  0
  -26.2899  -31.6023   18.4943 O   0  0  0  0  0  0  0  0  0  0  0  0
  -27.5777  -30.7548   18.9103 P   0  0  0  0  0  0  0  0  0  0  0  0
  -28.4989  -30.3933   17.7939 O   0  0  0  0  0  0  0  0  0  0  0  0
  -28.3434  -31.6474   19.9946 O   0  0  0  0  0  0  0  0  0  0  0  0
  -27.0809  -29.5223   19.7854 O   0  0  0  0  0  0  0  0  0  0  0  0
  -28.6966  -32.4432   19.5671 H   0  0  0  0  0  0  0  0  0  0  0  0
  -26.5933  -28.9013   19.2219 H   0  0  0  0  0  0  0  0  0  0  0  0
  6  7  1  0
  7  8  2  0
  8  9  1  0
  1  9  1  0
  1  2  1  0
  2  3  1  0
  3 16  1  0
 16 17  1  0
 17 18  1  0
 18 19  1  0
 18 20  1  0
 18 21  1  0
 21 22  1  0
 22 23  1  0
 22 24  1  0
 22 25  1  0
  3  4  1  0
  4 26  1  0
 26 27  1  0
 27 28  1  0
 28 29  2  0
 28 30  1  0
 28 31  1  0
  4  5  1  0
  9 10  1  0
 10 11  2  0
 10 12  1  0
 12 13  1  0
 13 14  2  0
 13  7  1  0
  5  1  1  0
 30 32  1  0
 31 33  1  0
 12 15  1  0
M  END
> <minimizedAffinity>
-5.98944

> <CNNscore>
0.4472829401

> <CNNaffinity>
5.8134636879

> <CNN_VS>
2.6002631187

> <CNNaffinity_variance>
0.5347351432

$$$$
