


 44 47  0  0  0  0  0  0  0  0999 V2000
   -2.3805   19.4229   18.0656 C   0  0  0  0  0  0  0  0  0  0  0  0
    1.4646   19.8223   18.6811 C   0  0  0  0  0  0  0  0  0  0  0  0
    1.8509   18.6495   19.5957 C   0  0  0  0  0  0  0  0  0  0  0  0
    0.9445   18.5534   20.8368 C   0  0  0  0  0  0  0  0  0  0  0  0
    0.3410   19.9090   21.2087 C   0  0  0  0  0  0  0  0  0  0  0  0
   -0.4536   20.5213   20.0433 C   0  0  0  0  0  0  0  0  0  0  0  0
   -0.0083   19.9848   18.7493 N   0  0  0  0  0  0  0  0  0  0  0  0
   -0.8548   19.2677   17.9018 C   0  0  0  0  0  0  0  0  0  0  0  0
   -0.4411   18.5205   17.0081 O   0  0  0  0  0  0  0  0  0  0  0  0
    2.0757   19.7883   17.2583 C   0  0  0  0  0  0  0  0  0  0  0  0
    2.7214   21.0911   16.6546 C   0  0  0  0  0  0  0  0  0  0  0  0
    1.6294   22.0310   16.1160 C   0  0  0  0  0  0  0  0  0  0  0  0
    3.5581   21.8235   17.7183 C   0  0  0  0  0  0  0  0  0  0  0  0
    3.6465   20.6099   15.4849 C   0  0  0  0  0  0  0  0  0  0  0  0
    5.8826   20.6343   14.1841 C   0  0  0  0  0  0  0  0  0  0  0  0
    5.0289   21.2483   15.2786 C   0  0  0  0  0  0  0  0  0  0  0  0
   -2.9493   19.5324   16.6930 N   0  0  0  0  0  0  0  0  0  0  0  0
   -3.4094   18.6458   16.4868 H   0  0  0  0  0  0  0  0  0  0  0  0
   -4.0560   20.7471   16.3783 S   0  0  0  0  0  0  0  0  0  0  0  0
   -4.5722   20.5490   15.0413 O   0  0  0  0  0  0  0  0  0  0  0  0
   -3.4370   21.9927   16.7728 O   0  0  0  0  0  0  0  0  0  0  0  0
   -5.3717   20.4122   17.5238 C   0  0  0  0  0  0  0  0  0  0  0  0
   -6.2893   19.3962   17.2525 C   0  0  0  0  0  0  0  0  0  0  0  0
   -7.3429   19.1698   18.1386 C   0  0  0  0  0  0  0  0  0  0  0  0
   -7.5019   19.9672   19.2843 C   0  0  0  0  0  0  0  0  0  0  0  0
   -8.5692   19.7631   20.1723 C   0  0  0  0  0  0  0  0  0  0  0  0
   -8.7268   20.5760   21.2960 C   0  0  0  0  0  0  0  0  0  0  0  0
   -7.8183   21.5997   21.5496 C   0  0  0  0  0  0  0  0  0  0  0  0
   -6.7467   21.8111   20.6812 C   0  0  0  0  0  0  0  0  0  0  0  0
   -6.5758   21.0063   19.5442 C   0  0  0  0  0  0  0  0  0  0  0  0
   -5.5114   21.2192   18.6564 C   0  0  0  0  0  0  0  0  0  0  0  0
   -2.9411   18.1595   18.7401 C   0  0  0  0  0  0  0  0  0  0  0  0
   -2.1222   16.9239   18.4466 C   0  0  0  0  0  0  0  0  0  0  0  0
   -1.0429   16.5692   19.2647 C   0  0  0  0  0  0  0  0  0  0  0  0
   -0.2853   15.4307   18.9833 C   0  0  0  0  0  0  0  0  0  0  0  0
   -0.5870   14.6428   17.8715 C   0  0  0  0  0  0  0  0  0  0  0  0
   -1.6502   14.9953   17.0351 C   0  0  0  0  0  0  0  0  0  0  0  0
   -2.4239   16.1227   17.3360 C   0  0  0  0  0  0  0  0  0  0  0  0
   -1.9718   14.1976   15.8140 C   0  0  0  0  0  0  0  0  0  0  0  0
   -3.0043   14.5134   15.0974 N   0  0  0  0  0  0  0  0  0  0  0  0
   -1.1753   13.1540   15.4325 N   0  0  0  0  0  0  0  0  0  0  0  0
   -3.5805   15.2642   15.3684 H   0  0  0  0  0  0  0  0  0  0  0  0
   -0.3899   12.9107   15.9740 H   0  0  0  0  0  0  0  0  0  0  0  0
   -1.3870   12.6459   14.6163 H   0  0  0  0  0  0  0  0  0  0  0  0
 15 16  1  0
 16 14  1  0
 14 11  1  0
 11 12  1  0
 11 13  1  0
 11 10  1  0
  2 10  1  0
  2  3  1  0
  3  4  1  0
  4  5  1  0
  5  6  1  0
  6  7  1  0
  7  8  1  0
  8  9  2  0
  8  1  1  0
  1 32  1  0
 32 33  1  0
 33 34  2  0
 34 35  1  0
 35 36  2  0
 36 37  1  0
 37 39  1  0
 39 40  2  0
 39 41  1  0
 37 38  2  0
  1 17  1  0
 17 19  1  0
 19 20  2  0
 19 21  2  0
 19 22  1  0
 22 23  2  0
 23 24  1  0
 24 25  2  0
 25 26  1  0
 26 27  2  0
 27 28  1  0
 28 29  2  0
 29 30  1  0
 30 31  2  0
  7  2  1  0
 38 33  1  0
 31 22  1  0
 30 25  1  0
 40 42  1  0
 41 43  1  0
 41 44  1  0
 17 18  1  0
M  END
> <minimizedAffinity>
-8.35830

> <CNNscore>
0.9132552743

> <CNNaffinity>
7.9520988464

> <CNN_VS>
7.2622961998

> <CNNaffinity_variance>
0.0118093668

$$$$



 44 47  0  0  0  0  0  0  0  0999 V2000
   -2.3481   19.3885   17.8291 C   0  0  0  0  0  0  0  0  0  0  0  0
    1.3464   19.8369   19.0429 C   0  0  0  0  0  0  0  0  0  0  0  0
    1.5728   18.7160   20.0693 C   0  0  0  0  0  0  0  0  0  0  0  0
    0.4752   18.6819   21.1488 C   0  0  0  0  0  0  0  0  0  0  0  0
   -0.1750   20.0526   21.3446 C   0  0  0  0  0  0  0  0  0  0  0  0
   -0.7658   20.5987   20.0341 C   0  0  0  0  0  0  0  0  0  0  0  0
   -0.1172   19.9963   18.8606 N   0  0  0  0  0  0  0  0  0  0  0  0
   -0.8168   19.2315   17.9254 C   0  0  0  0  0  0  0  0  0  0  0  0
   -0.2658   18.4397   17.1523 O   0  0  0  0  0  0  0  0  0  0  0  0
    2.1817   19.7301   17.7430 C   0  0  0  0  0  0  0  0  0  0  0  0
    2.6988   21.0391   17.0376 C   0  0  0  0  0  0  0  0  0  0  0  0
    1.5431   22.0349   16.8409 C   0  0  0  0  0  0  0  0  0  0  0  0
    3.8149   21.6968   17.8682 C   0  0  0  0  0  0  0  0  0  0  0  0
    3.2636   20.5842   15.6485 C   0  0  0  0  0  0  0  0  0  0  0  0
    5.6562   20.6486   14.6663 C   0  0  0  0  0  0  0  0  0  0  0  0
    4.3691   21.3982   14.9582 C   0  0  0  0  0  0  0  0  0  0  0  0
   -2.6826   19.4398   16.3782 N   0  0  0  0  0  0  0  0  0  0  0  0
   -3.4930   18.8372   16.2352 H   0  0  0  0  0  0  0  0  0  0  0  0
   -3.0427   20.9218   15.6903 S   0  0  0  0  0  0  0  0  0  0  0  0
   -2.4882   20.9434   14.3542 O   0  0  0  0  0  0  0  0  0  0  0  0
   -2.7023   21.9325   16.6664 O   0  0  0  0  0  0  0  0  0  0  0  0
   -4.8126   20.8883   15.5435 C   0  0  0  0  0  0  0  0  0  0  0  0
   -5.4597   21.8026   14.7108 C   0  0  0  0  0  0  0  0  0  0  0  0
   -6.8528   21.7943   14.6356 C   0  0  0  0  0  0  0  0  0  0  0  0
   -7.6084   20.8939   15.4051 C   0  0  0  0  0  0  0  0  0  0  0  0
   -9.0108   20.8895   15.3541 C   0  0  0  0  0  0  0  0  0  0  0  0
   -9.7497   20.0032   16.1394 C   0  0  0  0  0  0  0  0  0  0  0  0
   -9.0977   19.1073   16.9819 C   0  0  0  0  0  0  0  0  0  0  0  0
   -7.7036   19.0927   17.0387 C   0  0  0  0  0  0  0  0  0  0  0  0
   -6.9452   19.9801   16.2595 C   0  0  0  0  0  0  0  0  0  0  0  0
   -5.5441   19.9849   16.3197 C   0  0  0  0  0  0  0  0  0  0  0  0
   -3.0168   18.1521   18.4532 C   0  0  0  0  0  0  0  0  0  0  0  0
   -2.2184   16.8857   18.2481 C   0  0  0  0  0  0  0  0  0  0  0  0
   -1.2261   16.5090   19.1610 C   0  0  0  0  0  0  0  0  0  0  0  0
   -0.4864   15.3417   18.9613 C   0  0  0  0  0  0  0  0  0  0  0  0
   -0.7184   14.5462   17.8383 C   0  0  0  0  0  0  0  0  0  0  0  0
   -1.6933   14.9198   16.9086 C   0  0  0  0  0  0  0  0  0  0  0  0
   -2.4509   16.0767   17.1264 C   0  0  0  0  0  0  0  0  0  0  0  0
   -1.9360   14.1133   15.6751 C   0  0  0  0  0  0  0  0  0  0  0  0
   -1.1423   13.1303   15.3873 N   0  0  0  0  0  0  0  0  0  0  0  0
   -2.9995   14.3868   14.8607 N   0  0  0  0  0  0  0  0  0  0  0  0
   -0.3752   12.9298   15.9711 H   0  0  0  0  0  0  0  0  0  0  0  0
   -3.6050   15.1327   15.0756 H   0  0  0  0  0  0  0  0  0  0  0  0
   -3.1598   13.8379   14.0593 H   0  0  0  0  0  0  0  0  0  0  0  0
 15 16  1  0
 16 14  1  0
 14 11  1  0
 11 12  1  0
 11 13  1  0
 11 10  1  0
  2 10  1  0
  2  3  1  0
  3  4  1  0
  4  5  1  0
  5  6  1  0
  6  7  1  0
  7  8  1  0
  8  9  2  0
  8  1  1  0
  1 32  1  0
 32 33  1  0
 33 34  2  0
 34 35  1  0
 35 36  2  0
 36 37  1  0
 37 39  1  0
 39 40  2  0
 39 41  1  0
 37 38  2  0
  1 17  1  0
 17 19  1  0
 19 20  2  0
 19 21  2  0
 19 22  1  0
 22 23  2  0
 23 24  1  0
 24 25  2  0
 25 26  1  0
 26 27  2  0
 27 28  1  0
 28 29  2  0
 29 30  1  0
 30 31  2  0
  7  2  1  0
 38 33  1  0
 31 22  1  0
 30 25  1  0
 40 42  1  0
 41 43  1  0
 41 44  1  0
 17 18  1  0
M  END
> <minimizedAffinity>
-8.74605

> <CNNscore>
0.9065377712

> <CNNaffinity>
7.8277320862

> <CNN_VS>
7.0961346626

> <CNNaffinity_variance>
0.0523022898

$$$$



 44 47  0  0  0  0  0  0  0  0999 V2000
   -2.0036   18.7346   16.7981 C   0  0  0  0  0  0  0  0  0  0  0  0
   -5.0624   20.3477   18.6326 C   0  0  0  0  0  0  0  0  0  0  0  0
   -4.8807   21.8641   18.4633 C   0  0  0  0  0  0  0  0  0  0  0  0
   -3.4768   22.3350   18.8857 C   0  0  0  0  0  0  0  0  0  0  0  0
   -2.8466   21.3968   19.9165 C   0  0  0  0  0  0  0  0  0  0  0  0
   -2.7653   19.9506   19.4004 C   0  0  0  0  0  0  0  0  0  0  0  0
   -3.7588   19.6998   18.3466 N   0  0  0  0  0  0  0  0  0  0  0  0
   -3.4004   19.3396   17.0463 C   0  0  0  0  0  0  0  0  0  0  0  0
   -4.1574   19.4664   16.0773 O   0  0  0  0  0  0  0  0  0  0  0  0
   -6.2919   19.7386   17.9141 C   0  0  0  0  0  0  0  0  0  0  0  0
   -7.7411   20.0610   18.4379 C   0  0  0  0  0  0  0  0  0  0  0  0
   -7.8755   19.6696   19.9194 C   0  0  0  0  0  0  0  0  0  0  0  0
   -8.0588   21.5568   18.2655 C   0  0  0  0  0  0  0  0  0  0  0  0
   -8.7159   19.2030   17.5609 C   0  0  0  0  0  0  0  0  0  0  0  0
   -9.2613   20.3149   15.2895 C   0  0  0  0  0  0  0  0  0  0  0  0
   -8.5692   19.1860   16.0314 C   0  0  0  0  0  0  0  0  0  0  0  0
   -1.0990   19.8699   16.4629 N   0  0  0  0  0  0  0  0  0  0  0  0
   -1.6081   20.7300   16.6666 H   0  0  0  0  0  0  0  0  0  0  0  0
    0.3780   19.9751   17.2417 S   0  0  0  0  0  0  0  0  0  0  0  0
    0.8112   18.6335   17.5665 O   0  0  0  0  0  0  0  0  0  0  0  0
    0.2454   20.9937   18.2592 O   0  0  0  0  0  0  0  0  0  0  0  0
    1.4623   20.6068   15.9845 C   0  0  0  0  0  0  0  0  0  0  0  0
    0.9297   21.2182   14.8486 C   0  0  0  0  0  0  0  0  0  0  0  0
    1.7894   21.6730   13.8483 C   0  0  0  0  0  0  0  0  0  0  0  0
    3.1790   21.5007   13.9623 C   0  0  0  0  0  0  0  0  0  0  0  0
    4.0527   21.9350   12.9537 C   0  0  0  0  0  0  0  0  0  0  0  0
    5.4297   21.7388   13.0706 C   0  0  0  0  0  0  0  0  0  0  0  0
    5.9519   21.1109   14.1978 C   0  0  0  0  0  0  0  0  0  0  0  0
    5.0979   20.6803   15.2139 C   0  0  0  0  0  0  0  0  0  0  0  0
    3.7106   20.8651   15.1105 C   0  0  0  0  0  0  0  0  0  0  0  0
    2.8414   20.4228   16.1183 C   0  0  0  0  0  0  0  0  0  0  0  0
   -1.5110   18.0682   18.0938 C   0  0  0  0  0  0  0  0  0  0  0  0
   -1.3235   16.5755   17.9524 C   0  0  0  0  0  0  0  0  0  0  0  0
   -0.6770   15.8373   18.9511 C   0  0  0  0  0  0  0  0  0  0  0  0
   -0.4998   14.4595   18.8107 C   0  0  0  0  0  0  0  0  0  0  0  0
   -0.9516   13.8062   17.6630 C   0  0  0  0  0  0  0  0  0  0  0  0
   -1.5821   14.5336   16.6493 C   0  0  0  0  0  0  0  0  0  0  0  0
   -1.7816   15.9104   16.8061 C   0  0  0  0  0  0  0  0  0  0  0  0
   -2.0385   13.8714   15.3906 C   0  0  0  0  0  0  0  0  0  0  0  0
   -1.3553   12.8839   14.9036 N   0  0  0  0  0  0  0  0  0  0  0  0
   -3.1809   14.2812   14.7614 N   0  0  0  0  0  0  0  0  0  0  0  0
   -0.5320   12.5856   15.3536 H   0  0  0  0  0  0  0  0  0  0  0  0
   -3.7029   15.0310   15.1280 H   0  0  0  0  0  0  0  0  0  0  0  0
   -3.4816   13.8263   13.9417 H   0  0  0  0  0  0  0  0  0  0  0  0
 15 16  1  0
 16 14  1  0
 14 11  1  0
 11 12  1  0
 11 13  1  0
 11 10  1  0
  2 10  1  0
  2  3  1  0
  3  4  1  0
  4  5  1  0
  5  6  1  0
  6  7  1  0
  7  8  1  0
  8  9  2  0
  8  1  1  0
  1 32  1  0
 32 33  1  0
 33 34  2  0
 34 35  1  0
 35 36  2  0
 36 37  1  0
 37 39  1  0
 39 40  2  0
 39 41  1  0
 37 38  2  0
  1 17  1  0
 17 19  1  0
 19 20  2  0
 19 21  2  0
 19 22  1  0
 22 23  2  0
 23 24  1  0
 24 25  2  0
 25 26  1  0
 26 27  2  0
 27 28  1  0
 28 29  2  0
 29 30  1  0
 30 31  2  0
  7  2  1  0
 38 33  1  0
 31 22  1  0
 30 25  1  0
 40 42  1  0
 41 43  1  0
 41 44  1  0
 17 18  1  0
M  END
> <minimizedAffinity>
-8.85289

> <CNNscore>
0.8846123219

> <CNNaffinity>
7.8039188385

> <CNN_VS>
6.9034428596

> <CNNaffinity_variance>
0.0587182008

$$$$



 44 47  0  0  0  0  0  0  0  0999 V2000
   -1.9261   19.6898   17.9646 C   0  0  0  0  0  0  0  0  0  0  0  0
    0.6934   20.1000   20.8443 C   0  0  0  0  0  0  0  0  0  0  0  0
    0.3833   18.9682   21.8363 C   0  0  0  0  0  0  0  0  0  0  0  0
   -1.1035   18.9323   22.2355 C   0  0  0  0  0  0  0  0  0  0  0  0
   -1.7633   20.3060   22.1017 C   0  0  0  0  0  0  0  0  0  0  0  0
   -1.6316   20.8682   20.6766 C   0  0  0  0  0  0  0  0  0  0  0  0
   -0.4906   20.2718   19.9673 N   0  0  0  0  0  0  0  0  0  0  0  0
   -0.6408   19.5207   18.8001 C   0  0  0  0  0  0  0  0  0  0  0  0
    0.2178   18.7320   18.3892 O   0  0  0  0  0  0  0  0  0  0  0  0
    2.0601   19.9989   20.1227 C   0  0  0  0  0  0  0  0  0  0  0  0
    3.0839   21.1910   20.2191 C   0  0  0  0  0  0  0  0  0  0  0  0
    2.3497   22.5041   20.5397 C   0  0  0  0  0  0  0  0  0  0  0  0
    4.1415   20.9102   21.3010 C   0  0  0  0  0  0  0  0  0  0  0  0
    3.7693   21.2837   18.8129 C   0  0  0  0  0  0  0  0  0  0  0  0
    5.6255   22.6981   17.6962 C   0  0  0  0  0  0  0  0  0  0  0  0
    4.2164   22.6449   18.2578 C   0  0  0  0  0  0  0  0  0  0  0  0
   -1.5223   19.5920   16.5339 N   0  0  0  0  0  0  0  0  0  0  0  0
   -2.2307   19.0321   16.0593 H   0  0  0  0  0  0  0  0  0  0  0  0
   -1.3389   21.0034   15.6542 S   0  0  0  0  0  0  0  0  0  0  0  0
   -1.5951   22.1199   16.5379 O   0  0  0  0  0  0  0  0  0  0  0  0
   -2.0755   20.8299   14.4223 O   0  0  0  0  0  0  0  0  0  0  0  0
    0.3910   21.0154   15.2510 C   0  0  0  0  0  0  0  0  0  0  0  0
    1.2968   20.3148   16.0489 C   0  0  0  0  0  0  0  0  0  0  0  0
    2.6579   20.3656   15.7470 C   0  0  0  0  0  0  0  0  0  0  0  0
    3.1259   21.1313   14.6662 C   0  0  0  0  0  0  0  0  0  0  0  0
    4.4944   21.2073   14.3648 C   0  0  0  0  0  0  0  0  0  0  0  0
    4.9474   21.9884   13.3004 C   0  0  0  0  0  0  0  0  0  0  0  0
    4.0396   22.6997   12.5209 C   0  0  0  0  0  0  0  0  0  0  0  0
    2.6746   22.6287   12.8018 C   0  0  0  0  0  0  0  0  0  0  0  0
    2.2022   21.8521   13.8710 C   0  0  0  0  0  0  0  0  0  0  0  0
    0.8341   21.7854   14.1720 C   0  0  0  0  0  0  0  0  0  0  0  0
   -2.8897   18.5368   18.2923 C   0  0  0  0  0  0  0  0  0  0  0  0
   -2.2209   17.1825   18.2525 C   0  0  0  0  0  0  0  0  0  0  0  0
   -1.4057   16.7551   19.3074 C   0  0  0  0  0  0  0  0  0  0  0  0
   -0.7840   15.5058   19.2607 C   0  0  0  0  0  0  0  0  0  0  0  0
   -0.9564   14.6761   18.1517 C   0  0  0  0  0  0  0  0  0  0  0  0
   -1.7525   15.0975   17.0827 C   0  0  0  0  0  0  0  0  0  0  0  0
   -2.3954   16.3396   17.1454 C   0  0  0  0  0  0  0  0  0  0  0  0
   -1.9222   14.2517   15.8634 C   0  0  0  0  0  0  0  0  0  0  0  0
   -1.0942   13.2807   15.6384 N   0  0  0  0  0  0  0  0  0  0  0  0
   -2.9551   14.4767   14.9965 N   0  0  0  0  0  0  0  0  0  0  0  0
   -0.3490   13.1151   16.2601 H   0  0  0  0  0  0  0  0  0  0  0  0
   -3.5865   15.2133   15.1636 H   0  0  0  0  0  0  0  0  0  0  0  0
   -3.0674   13.9021   14.2049 H   0  0  0  0  0  0  0  0  0  0  0  0
 15 16  1  0
 16 14  1  0
 14 11  1  0
 11 12  1  0
 11 13  1  0
 11 10  1  0
  2 10  1  0
  2  3  1  0
  3  4  1  0
  4  5  1  0
  5  6  1  0
  6  7  1  0
  7  8  1  0
  8  9  2  0
  8  1  1  0
  1 32  1  0
 32 33  1  0
 33 34  2  0
 34 35  1  0
 35 36  2  0
 36 37  1  0
 37 39  1  0
 39 40  2  0
 39 41  1  0
 37 38  2  0
  1 17  1  0
 17 19  1  0
 19 20  2  0
 19 21  2  0
 19 22  1  0
 22 23  2  0
 23 24  1  0
 24 25  2  0
 25 26  1  0
 26 27  2  0
 27 28  1  0
 28 29  2  0
 29 30  1  0
 30 31  2  0
  7  2  1  0
 38 33  1  0
 31 22  1  0
 30 25  1  0
 40 42  1  0
 41 43  1  0
 41 44  1  0
 17 18  1  0
M  END
> <minimizedAffinity>
-8.29902

> <CNNscore>
0.8571635485

> <CNNaffinity>
7.7095541954

> <CNN_VS>
6.6083488464

> <CNNaffinity_variance>
0.0543745272

$$$$



 44 47  0  0  0  0  0  0  0  0999 V2000
   -1.4674   18.8108   18.2959 C   0  0  0  0  0  0  0  0  0  0  0  0
    0.7815   19.7471   21.3600 C   0  0  0  0  0  0  0  0  0  0  0  0
    1.0324   21.2575   21.2300 C   0  0  0  0  0  0  0  0  0  0  0  0
    1.5482   21.6458   19.8320 C   0  0  0  0  0  0  0  0  0  0  0  0
    2.2732   20.4849   19.1488 C   0  0  0  0  0  0  0  0  0  0  0  0
    1.3789   19.2392   19.0343 C   0  0  0  0  0  0  0  0  0  0  0  0
    0.3107   19.2503   20.0438 N   0  0  0  0  0  0  0  0  0  0  0  0
   -1.0434   19.2732   19.7048 C   0  0  0  0  0  0  0  0  0  0  0  0
   -1.9299   19.6326   20.4879 O   0  0  0  0  0  0  0  0  0  0  0  0
   -0.0593   19.3134   22.5863 C   0  0  0  0  0  0  0  0  0  0  0  0
    0.1233   20.0586   23.9611 C   0  0  0  0  0  0  0  0  0  0  0  0
    1.5659   20.5725   24.1052 C   0  0  0  0  0  0  0  0  0  0  0  0
   -0.8609   21.2362   24.0734 C   0  0  0  0  0  0  0  0  0  0  0  0
   -0.1860   18.9958   25.0703 C   0  0  0  0  0  0  0  0  0  0  0  0
    0.7105   18.8675   27.4937 C   0  0  0  0  0  0  0  0  0  0  0  0
    0.9221   18.5322   26.0286 C   0  0  0  0  0  0  0  0  0  0  0  0
   -1.5555   20.0353   17.4521 N   0  0  0  0  0  0  0  0  0  0  0  0
   -0.7493   20.0283   16.8272 H   0  0  0  0  0  0  0  0  0  0  0  0
   -2.9141   20.2580   16.5014 S   0  0  0  0  0  0  0  0  0  0  0  0
   -3.2323   18.9958   15.8700 O   0  0  0  0  0  0  0  0  0  0  0  0
   -2.6920   21.4570   15.7246 O   0  0  0  0  0  0  0  0  0  0  0  0
   -4.1912   20.6108   17.6845 C   0  0  0  0  0  0  0  0  0  0  0  0
   -4.0037   21.6186   18.6317 C   0  0  0  0  0  0  0  0  0  0  0  0
   -4.9962   21.8588   19.5823 C   0  0  0  0  0  0  0  0  0  0  0  0
   -6.1673   21.0832   19.6099 C   0  0  0  0  0  0  0  0  0  0  0  0
   -7.1636   21.3011   20.5739 C   0  0  0  0  0  0  0  0  0  0  0  0
   -8.3129   20.5094   20.6025 C   0  0  0  0  0  0  0  0  0  0  0  0
   -8.4839   19.4936   19.6663 C   0  0  0  0  0  0  0  0  0  0  0  0
   -7.5068   19.2688   18.6958 C   0  0  0  0  0  0  0  0  0  0  0  0
   -6.3430   20.0521   18.6555 C   0  0  0  0  0  0  0  0  0  0  0  0
   -5.3473   19.8254   17.6943 C   0  0  0  0  0  0  0  0  0  0  0  0
   -0.3783   17.8871   17.7249 C   0  0  0  0  0  0  0  0  0  0  0  0
   -0.7509   16.4245   17.7969 C   0  0  0  0  0  0  0  0  0  0  0  0
   -0.5261   15.6849   18.9642 C   0  0  0  0  0  0  0  0  0  0  0  0
   -0.8653   14.3317   19.0215 C   0  0  0  0  0  0  0  0  0  0  0  0
   -1.4174   13.6978   17.9073 C   0  0  0  0  0  0  0  0  0  0  0  0
   -1.6301   14.4192   16.7290 C   0  0  0  0  0  0  0  0  0  0  0  0
   -1.3134   15.7822   16.6845 C   0  0  0  0  0  0  0  0  0  0  0  0
   -2.1792   13.7601   15.5062 C   0  0  0  0  0  0  0  0  0  0  0  0
   -3.1136   14.3480   14.8278 N   0  0  0  0  0  0  0  0  0  0  0  0
   -1.6896   12.5557   15.0834 N   0  0  0  0  0  0  0  0  0  0  0  0
   -3.4690   15.2154   15.1287 H   0  0  0  0  0  0  0  0  0  0  0  0
   -0.9797   12.1056   15.5959 H   0  0  0  0  0  0  0  0  0  0  0  0
   -2.0470   12.1384   14.2665 H   0  0  0  0  0  0  0  0  0  0  0  0
 15 16  1  0
 16 14  1  0
 14 11  1  0
 11 12  1  0
 11 13  1  0
 11 10  1  0
  2 10  1  0
  2  3  1  0
  3  4  1  0
  4  5  1  0
  5  6  1  0
  6  7  1  0
  7  8  1  0
  8  9  2  0
  8  1  1  0
  1 32  1  0
 32 33  1  0
 33 34  2  0
 34 35  1  0
 35 36  2  0
 36 37  1  0
 37 39  1  0
 39 40  2  0
 39 41  1  0
 37 38  2  0
  1 17  1  0
 17 19  1  0
 19 20  2  0
 19 21  2  0
 19 22  1  0
 22 23  2  0
 23 24  1  0
 24 25  2  0
 25 26  1  0
 26 27  2  0
 27 28  1  0
 28 29  2  0
 29 30  1  0
 30 31  2  0
  7  2  1  0
 38 33  1  0
 31 22  1  0
 30 25  1  0
 40 42  1  0
 41 43  1  0
 41 44  1  0
 17 18  1  0
M  END
> <minimizedAffinity>
-8.02829

> <CNNscore>
0.8421624899

> <CNNaffinity>
7.7554588318

> <CNN_VS>
6.5313563347

> <CNNaffinity_variance>
0.0520083643

$$$$



 44 47  0  0  0  0  0  0  0  0999 V2000
   -1.7793   18.8160   17.5867 C   0  0  0  0  0  0  0  0  0  0  0  0
   -5.0346   20.9545   17.1949 C   0  0  0  0  0  0  0  0  0  0  0  0
   -4.5492   22.3633   16.8195 C   0  0  0  0  0  0  0  0  0  0  0  0
   -3.4733   22.8879   17.7882 C   0  0  0  0  0  0  0  0  0  0  0  0
   -3.5872   22.2430   19.1707 C   0  0  0  0  0  0  0  0  0  0  0  0
   -3.5018   20.7095   19.0960 C   0  0  0  0  0  0  0  0  0  0  0  0
   -3.8822   20.2146   17.7653 N   0  0  0  0  0  0  0  0  0  0  0  0
   -3.0003   19.5072   16.9463 C   0  0  0  0  0  0  0  0  0  0  0  0
   -3.1575   19.3914   15.7256 O   0  0  0  0  0  0  0  0  0  0  0  0
   -5.8391   20.2119   16.0993 C   0  0  0  0  0  0  0  0  0  0  0  0
   -7.3834   19.9732   16.2916 C   0  0  0  0  0  0  0  0  0  0  0  0
   -8.1485   21.3038   16.1914 C   0  0  0  0  0  0  0  0  0  0  0  0
   -7.9145   18.9883   15.2352 C   0  0  0  0  0  0  0  0  0  0  0  0
   -7.5484   19.3606   17.7244 C   0  0  0  0  0  0  0  0  0  0  0  0
   -8.3931   19.4531   20.1680 C   0  0  0  0  0  0  0  0  0  0  0  0
   -8.2691   20.1524   18.8265 C   0  0  0  0  0  0  0  0  0  0  0  0
   -1.0276   19.8708   18.3226 N   0  0  0  0  0  0  0  0  0  0  0  0
   -1.4038   19.9023   19.2702 H   0  0  0  0  0  0  0  0  0  0  0  0
    0.6338   19.7258   18.4565 S   0  0  0  0  0  0  0  0  0  0  0  0
    0.9633   18.3170   18.4554 O   0  0  0  0  0  0  0  0  0  0  0  0
    1.0467   20.5978   19.5332 O   0  0  0  0  0  0  0  0  0  0  0  0
    1.2319   20.4248   16.9370 C   0  0  0  0  0  0  0  0  0  0  0  0
    0.3313   20.9587   16.0141 C   0  0  0  0  0  0  0  0  0  0  0  0
    0.8087   21.4670   14.8058 C   0  0  0  0  0  0  0  0  0  0  0  0
    2.1794   21.4251   14.5004 C   0  0  0  0  0  0  0  0  0  0  0  0
    2.6697   21.9142   13.2798 C   0  0  0  0  0  0  0  0  0  0  0  0
    4.0315   21.8476   12.9808 C   0  0  0  0  0  0  0  0  0  0  0  0
    4.9212   21.2962   13.8984 C   0  0  0  0  0  0  0  0  0  0  0  0
    4.4515   20.8128   15.1202 C   0  0  0  0  0  0  0  0  0  0  0  0
    3.0850   20.8675   15.4352 C   0  0  0  0  0  0  0  0  0  0  0  0
    2.5995   20.3709   16.6535 C   0  0  0  0  0  0  0  0  0  0  0  0
   -2.2730   17.7608   18.5909 C   0  0  0  0  0  0  0  0  0  0  0  0
   -1.7739   16.3700   18.2750 C   0  0  0  0  0  0  0  0  0  0  0  0
   -0.8744   15.7208   19.1292 C   0  0  0  0  0  0  0  0  0  0  0  0
   -0.4108   14.4388   18.8274 C   0  0  0  0  0  0  0  0  0  0  0  0
   -0.8278   13.7975   17.6600 C   0  0  0  0  0  0  0  0  0  0  0  0
   -1.7111   14.4411   16.7884 C   0  0  0  0  0  0  0  0  0  0  0  0
   -2.1942   15.7156   17.1081 C   0  0  0  0  0  0  0  0  0  0  0  0
   -2.1425   13.7995   15.5104 C   0  0  0  0  0  0  0  0  0  0  0  0
   -2.9861   14.4116   14.7405 N   0  0  0  0  0  0  0  0  0  0  0  0
   -1.6387   12.5856   15.1343 N   0  0  0  0  0  0  0  0  0  0  0  0
   -3.3514   15.2860   15.0075 H   0  0  0  0  0  0  0  0  0  0  0  0
   -0.9975   12.1171   15.7162 H   0  0  0  0  0  0  0  0  0  0  0  0
   -1.9170   12.1798   14.2816 H   0  0  0  0  0  0  0  0  0  0  0  0
 15 16  1  0
 16 14  1  0
 14 11  1  0
 11 12  1  0
 11 13  1  0
 11 10  1  0
  2 10  1  0
  2  3  1  0
  3  4  1  0
  4  5  1  0
  5  6  1  0
  6  7  1  0
  7  8  1  0
  8  9  2  0
  8  1  1  0
  1 32  1  0
 32 33  1  0
 33 34  2  0
 34 35  1  0
 35 36  2  0
 36 37  1  0
 37 39  1  0
 39 40  2  0
 39 41  1  0
 37 38  2  0
  1 17  1  0
 17 19  1  0
 19 20  2  0
 19 21  2  0
 19 22  1  0
 22 23  2  0
 23 24  1  0
 24 25  2  0
 25 26  1  0
 26 27  2  0
 27 28  1  0
 28 29  2  0
 29 30  1  0
 30 31  2  0
  7  2  1  0
 38 33  1  0
 31 22  1  0
 30 25  1  0
 40 42  1  0
 41 43  1  0
 41 44  1  0
 17 18  1  0
M  END
> <minimizedAffinity>
-8.94357

> <CNNscore>
0.8379248977

> <CNNaffinity>
7.6374115944

> <CNN_VS>
6.3995771408

> <CNNaffinity_variance>
0.1863455027

$$$$



 44 47  0  0  0  0  0  0  0  0999 V2000
   -2.7386   19.0536   17.0664 C   0  0  0  0  0  0  0  0  0  0  0  0
   -6.0465   21.0107   17.8086 C   0  0  0  0  0  0  0  0  0  0  0  0
   -5.7516   22.4662   17.4138 C   0  0  0  0  0  0  0  0  0  0  0  0
   -4.4585   22.9963   18.0605 C   0  0  0  0  0  0  0  0  0  0  0  0
   -4.1307   22.2644   19.3632 C   0  0  0  0  0  0  0  0  0  0  0  0
   -4.0097   20.7460   19.1522 C   0  0  0  0  0  0  0  0  0  0  0  0
   -4.7480   20.3092   17.9586 N   0  0  0  0  0  0  0  0  0  0  0  0
   -4.1215   19.7066   16.8662 C   0  0  0  0  0  0  0  0  0  0  0  0
   -4.6293   19.6545   15.7403 O   0  0  0  0  0  0  0  0  0  0  0  0
   -7.1096   20.2875   16.9451 C   0  0  0  0  0  0  0  0  0  0  0  0
   -8.3502   19.6106   17.6390 C   0  0  0  0  0  0  0  0  0  0  0  0
   -8.9035   18.4760   16.7602 C   0  0  0  0  0  0  0  0  0  0  0  0
   -7.9612   19.0546   19.0202 C   0  0  0  0  0  0  0  0  0  0  0  0
   -9.4224   20.7419   17.8008 C   0  0  0  0  0  0  0  0  0  0  0  0
  -11.0505   22.0321   16.2589 C   0  0  0  0  0  0  0  0  0  0  0  0
   -9.6165   21.7885   16.6927 C   0  0  0  0  0  0  0  0  0  0  0  0
   -1.7653   20.1642   17.2625 N   0  0  0  0  0  0  0  0  0  0  0  0
   -0.8883   19.7443   17.5707 H   0  0  0  0  0  0  0  0  0  0  0  0
   -1.4072   21.1555   15.9631 S   0  0  0  0  0  0  0  0  0  0  0  0
   -1.6778   22.5222   16.3528 O   0  0  0  0  0  0  0  0  0  0  0  0
   -2.0287   20.5641   14.7993 O   0  0  0  0  0  0  0  0  0  0  0  0
    0.3512   20.9797   15.7834 C   0  0  0  0  0  0  0  0  0  0  0  0
    1.1209   20.5406   16.8617 C   0  0  0  0  0  0  0  0  0  0  0  0
    2.5058   20.4463   16.7217 C   0  0  0  0  0  0  0  0  0  0  0  0
    3.1326   20.8105   15.5183 C   0  0  0  0  0  0  0  0  0  0  0  0
    4.5265   20.7400   15.3719 C   0  0  0  0  0  0  0  0  0  0  0  0
    5.1380   21.1245   14.1775 C   0  0  0  0  0  0  0  0  0  0  0  0
    4.3651   21.5796   13.1129 C   0  0  0  0  0  0  0  0  0  0  0  0
    2.9772   21.6481   13.2389 C   0  0  0  0  0  0  0  0  0  0  0  0
    2.3463   21.2702   14.4342 C   0  0  0  0  0  0  0  0  0  0  0  0
    0.9535   21.3493   14.5775 C   0  0  0  0  0  0  0  0  0  0  0  0
   -2.7743   18.1893   18.3380 C   0  0  0  0  0  0  0  0  0  0  0  0
   -2.0886   16.8545   18.1609 C   0  0  0  0  0  0  0  0  0  0  0  0
   -1.1651   16.3928   19.1065 C   0  0  0  0  0  0  0  0  0  0  0  0
   -0.5289   15.1621   18.9328 C   0  0  0  0  0  0  0  0  0  0  0  0
   -0.7956   14.3863   17.8036 C   0  0  0  0  0  0  0  0  0  0  0  0
   -1.7014   14.8433   16.8419 C   0  0  0  0  0  0  0  0  0  0  0  0
   -2.3570   16.0654   17.0332 C   0  0  0  0  0  0  0  0  0  0  0  0
   -1.9762   14.0570   15.6020 C   0  0  0  0  0  0  0  0  0  0  0  0
   -1.1865   13.0834   15.2741 N   0  0  0  0  0  0  0  0  0  0  0  0
   -3.0644   14.3389   14.8240 N   0  0  0  0  0  0  0  0  0  0  0  0
   -0.4017   12.8770   15.8316 H   0  0  0  0  0  0  0  0  0  0  0  0
   -3.6669   15.0778   15.0695 H   0  0  0  0  0  0  0  0  0  0  0  0
   -3.2454   13.8031   14.0181 H   0  0  0  0  0  0  0  0  0  0  0  0
 15 16  1  0
 16 14  1  0
 14 11  1  0
 11 12  1  0
 11 13  1  0
 11 10  1  0
  2 10  1  0
  2  3  1  0
  3  4  1  0
  4  5  1  0
  5  6  1  0
  6  7  1  0
  7  8  1  0
  8  9  2  0
  8  1  1  0
  1 32  1  0
 32 33  1  0
 33 34  2  0
 34 35  1  0
 35 36  2  0
 36 37  1  0
 37 39  1  0
 39 40  2  0
 39 41  1  0
 37 38  2  0
  1 17  1  0
 17 19  1  0
 19 20  2  0
 19 21  2  0
 19 22  1  0
 22 23  2  0
 23 24  1  0
 24 25  2  0
 25 26  1  0
 26 27  2  0
 27 28  1  0
 28 29  2  0
 29 30  1  0
 30 31  2  0
  7  2  1  0
 38 33  1  0
 31 22  1  0
 30 25  1  0
 40 42  1  0
 41 43  1  0
 41 44  1  0
 17 18  1  0
M  END
> <minimizedAffinity>
-8.40709

> <CNNscore>
0.8365731239

> <CNNaffinity>
7.4184117317

> <CNN_VS>
6.2060437202

> <CNNaffinity_variance>
0.1180062965

$$$$



 44 47  0  0  0  0  0  0  0  0999 V2000
   -2.1581   18.7792   17.5473 C   0  0  0  0  0  0  0  0  0  0  0  0
   -5.1449   21.1777   18.3531 C   0  0  0  0  0  0  0  0  0  0  0  0
   -4.6990   22.5601   17.8519 C   0  0  0  0  0  0  0  0  0  0  0  0
   -3.3115   22.9568   18.3892 C   0  0  0  0  0  0  0  0  0  0  0  0
   -2.9930   22.2619   19.7143 C   0  0  0  0  0  0  0  0  0  0  0  0
   -3.0739   20.7312   19.5922 C   0  0  0  0  0  0  0  0  0  0  0  0
   -3.9358   20.3266   18.4724 N   0  0  0  0  0  0  0  0  0  0  0  0
   -3.4600   19.5903   17.3860 C   0  0  0  0  0  0  0  0  0  0  0  0
   -4.0419   19.5411   16.2964 O   0  0  0  0  0  0  0  0  0  0  0  0
   -6.3425   20.5488   17.5987 C   0  0  0  0  0  0  0  0  0  0  0  0
   -7.7050   20.3166   18.3525 C   0  0  0  0  0  0  0  0  0  0  0  0
   -7.4794   20.2934   19.8738 C   0  0  0  0  0  0  0  0  0  0  0  0
   -8.7165   21.4198   17.9946 C   0  0  0  0  0  0  0  0  0  0  0  0
   -8.2355   18.9258   17.8628 C   0  0  0  0  0  0  0  0  0  0  0  0
   -8.1841   18.8184   15.2784 C   0  0  0  0  0  0  0  0  0  0  0  0
   -9.0194   18.8163   16.5457 C   0  0  0  0  0  0  0  0  0  0  0  0
   -1.1020   19.7436   17.9644 N   0  0  0  0  0  0  0  0  0  0  0  0
   -0.8762   19.5395   18.9379 H   0  0  0  0  0  0  0  0  0  0  0  0
    0.3411   19.7677   17.1182 S   0  0  0  0  0  0  0  0  0  0  0  0
    0.3211   20.9082   16.2283 O   0  0  0  0  0  0  0  0  0  0  0  0
    0.5613   18.4270   16.6238 O   0  0  0  0  0  0  0  0  0  0  0  0
    1.5523   20.0833   18.3787 C   0  0  0  0  0  0  0  0  0  0  0  0
    1.5087   19.3734   19.5795 C   0  0  0  0  0  0  0  0  0  0  0  0
    2.4395   19.6592   20.5787 C   0  0  0  0  0  0  0  0  0  0  0  0
    3.4013   20.6670   20.3974 C   0  0  0  0  0  0  0  0  0  0  0  0
    4.3297   20.9782   21.4027 C   0  0  0  0  0  0  0  0  0  0  0  0
    5.2668   21.9959   21.2172 C   0  0  0  0  0  0  0  0  0  0  0  0
    5.2917   22.7124   20.0240 C   0  0  0  0  0  0  0  0  0  0  0  0
    4.3810   22.4104   19.0109 C   0  0  0  0  0  0  0  0  0  0  0  0
    3.4290   21.3936   19.1825 C   0  0  0  0  0  0  0  0  0  0  0  0
    2.4990   21.0916   18.1772 C   0  0  0  0  0  0  0  0  0  0  0  0
   -2.3537   17.7383   18.6626 C   0  0  0  0  0  0  0  0  0  0  0  0
   -1.7849   16.3838   18.3088 C   0  0  0  0  0  0  0  0  0  0  0  0
   -0.7962   15.7924   19.1042 C   0  0  0  0  0  0  0  0  0  0  0  0
   -0.2690   14.5442   18.7673 C   0  0  0  0  0  0  0  0  0  0  0  0
   -0.7118   13.8802   17.6222 C   0  0  0  0  0  0  0  0  0  0  0  0
   -1.6851   14.4672   16.8084 C   0  0  0  0  0  0  0  0  0  0  0  0
   -2.2302   15.7066   17.1644 C   0  0  0  0  0  0  0  0  0  0  0  0
   -2.1488   13.8023   15.5538 C   0  0  0  0  0  0  0  0  0  0  0  0
   -1.6366   12.6639   15.2065 N   0  0  0  0  0  0  0  0  0  0  0  0
   -3.1237   14.3709   14.7822 N   0  0  0  0  0  0  0  0  0  0  0  0
   -0.9343   12.2509   15.7593 H   0  0  0  0  0  0  0  0  0  0  0  0
   -3.5155   15.2358   15.0425 H   0  0  0  0  0  0  0  0  0  0  0  0
   -3.4338   13.9155   13.9664 H   0  0  0  0  0  0  0  0  0  0  0  0
 15 16  1  0
 16 14  1  0
 14 11  1  0
 11 12  1  0
 11 13  1  0
 11 10  1  0
  2 10  1  0
  2  3  1  0
  3  4  1  0
  4  5  1  0
  5  6  1  0
  6  7  1  0
  7  8  1  0
  8  9  2  0
  8  1  1  0
  1 32  1  0
 32 33  1  0
 33 34  2  0
 34 35  1  0
 35 36  2  0
 36 37  1  0
 37 39  1  0
 39 40  2  0
 39 41  1  0
 37 38  2  0
  1 17  1  0
 17 19  1  0
 19 20  2  0
 19 21  2  0
 19 22  1  0
 22 23  2  0
 23 24  1  0
 24 25  2  0
 25 26  1  0
 26 27  2  0
 27 28  1  0
 28 29  2  0
 29 30  1  0
 30 31  2  0
  7  2  1  0
 38 33  1  0
 31 22  1  0
 30 25  1  0
 40 42  1  0
 41 43  1  0
 41 44  1  0
 17 18  1  0
M  END
> <minimizedAffinity>
-8.53797

> <CNNscore>
0.8290686607

> <CNNaffinity>
7.6610665321

> <CNN_VS>
6.3515501022

> <CNNaffinity_variance>
0.0747600347

$$$$



 44 47  0  0  0  0  0  0  0  0999 V2000
   -1.5308   18.8766   18.7809 C   0  0  0  0  0  0  0  0  0  0  0  0
    1.9730   20.5063   18.1553 C   0  0  0  0  0  0  0  0  0  0  0  0
    2.9789   19.5845   18.8622 C   0  0  0  0  0  0  0  0  0  0  0  0
    2.5842   19.3004   20.3233 C   0  0  0  0  0  0  0  0  0  0  0  0
    1.7250   20.4217   20.9104 C   0  0  0  0  0  0  0  0  0  0  0  0
    0.4556   20.6663   20.0778 C   0  0  0  0  0  0  0  0  0  0  0  0
    0.6241   20.2030   18.6930 N   0  0  0  0  0  0  0  0  0  0  0  0
   -0.1667   19.1963   18.1361 C   0  0  0  0  0  0  0  0  0  0  0  0
    0.1655   18.5530   17.1340 O   0  0  0  0  0  0  0  0  0  0  0  0
    2.0887   20.5612   16.6118 C   0  0  0  0  0  0  0  0  0  0  0  0
    3.0627   21.5987   15.9384 C   0  0  0  0  0  0  0  0  0  0  0  0
    2.2891   22.5120   14.9722 C   0  0  0  0  0  0  0  0  0  0  0  0
    3.7674   22.4524   17.0073 C   0  0  0  0  0  0  0  0  0  0  0  0
    4.1184   20.7489   15.1515 C   0  0  0  0  0  0  0  0  0  0  0  0
    6.5275   20.3019   14.3214 C   0  0  0  0  0  0  0  0  0  0  0  0
    5.5589   21.2592   14.9914 C   0  0  0  0  0  0  0  0  0  0  0  0
   -2.1909   20.1836   19.0558 N   0  0  0  0  0  0  0  0  0  0  0  0
   -1.4941   20.7859   19.4940 H   0  0  0  0  0  0  0  0  0  0  0  0
   -2.8442   21.0373   17.7737 S   0  0  0  0  0  0  0  0  0  0  0  0
   -2.3113   20.4842   16.5477 O   0  0  0  0  0  0  0  0  0  0  0  0
   -2.7090   22.4414   18.0910 O   0  0  0  0  0  0  0  0  0  0  0  0
   -4.5720   20.6318   17.8468 C   0  0  0  0  0  0  0  0  0  0  0  0
   -5.2620   20.7395   19.0552 C   0  0  0  0  0  0  0  0  0  0  0  0
   -6.6085   20.3783   19.1100 C   0  0  0  0  0  0  0  0  0  0  0  0
   -7.2674   19.8868   17.9707 C   0  0  0  0  0  0  0  0  0  0  0  0
   -8.6157   19.5007   18.0180 C   0  0  0  0  0  0  0  0  0  0  0  0
   -9.2523   18.9947   16.8835 C   0  0  0  0  0  0  0  0  0  0  0  0
   -8.5521   18.8722   15.6867 C   0  0  0  0  0  0  0  0  0  0  0  0
   -7.2131   19.2593   15.6202 C   0  0  0  0  0  0  0  0  0  0  0  0
   -6.5562   19.7655   16.7523 C   0  0  0  0  0  0  0  0  0  0  0  0
   -5.2066   20.1434   16.7012 C   0  0  0  0  0  0  0  0  0  0  0  0
   -2.3851   18.0864   17.7754 C   0  0  0  0  0  0  0  0  0  0  0  0
   -2.0254   16.6197   17.7234 C   0  0  0  0  0  0  0  0  0  0  0  0
   -1.4937   15.9726   18.8453 C   0  0  0  0  0  0  0  0  0  0  0  0
   -1.1558   14.6191   18.7882 C   0  0  0  0  0  0  0  0  0  0  0  0
   -1.3298   13.9007   17.6043 C   0  0  0  0  0  0  0  0  0  0  0  0
   -1.8423   14.5384   16.4707 C   0  0  0  0  0  0  0  0  0  0  0  0
   -2.2046   15.8889   16.5401 C   0  0  0  0  0  0  0  0  0  0  0  0
   -2.0002   13.8087   15.1770 C   0  0  0  0  0  0  0  0  0  0  0  0
   -2.4610   14.4361   14.1411 N   0  0  0  0  0  0  0  0  0  0  0  0
   -1.6417   12.4938   15.0694 N   0  0  0  0  0  0  0  0  0  0  0  0
   -2.7203   15.3830   14.2142 H   0  0  0  0  0  0  0  0  0  0  0  0
   -1.2912   12.0134   15.8539 H   0  0  0  0  0  0  0  0  0  0  0  0
   -1.7341   12.0274   14.2073 H   0  0  0  0  0  0  0  0  0  0  0  0
 15 16  1  0
 16 14  1  0
 14 11  1  0
 11 12  1  0
 11 13  1  0
 11 10  1  0
  2 10  1  0
  2  3  1  0
  3  4  1  0
  4  5  1  0
  5  6  1  0
  6  7  1  0
  7  8  1  0
  8  9  2  0
  8  1  1  0
  1 32  1  0
 32 33  1  0
 33 34  2  0
 34 35  1  0
 35 36  2  0
 36 37  1  0
 37 39  1  0
 39 40  2  0
 39 41  1  0
 37 38  2  0
  1 17  1  0
 17 19  1  0
 19 20  2  0
 19 21  2  0
 19 22  1  0
 22 23  2  0
 23 24  1  0
 24 25  2  0
 25 26  1  0
 26 27  2  0
 27 28  1  0
 28 29  2  0
 29 30  1  0
 30 31  2  0
  7  2  1  0
 38 33  1  0
 31 22  1  0
 30 25  1  0
 40 42  1  0
 41 43  1  0
 41 44  1  0
 17 18  1  0
M  END
> <minimizedAffinity>
-8.85000

> <CNNscore>
0.8267512918

> <CNNaffinity>
7.6986527443

> <CNN_VS>
6.3648710251

> <CNNaffinity_variance>
0.1251732260

$$$$
