


 29 31  0  0  0  0  0  0  0  0999 V2000
    9.7399    9.1010    3.4649 N   0  0  0  0  0  0  0  0  0  0  0  0
    9.2971    8.9694    2.5555 H   0  0  0  0  0  0  0  0  0  0  0  0
    9.2496   11.2494    4.7154 O   0  0  0  0  0  0  0  0  0  0  0  0
    8.6607    9.9644    4.4210 S   0  0  0  0  0  0  0  0  0  0  0  0
    8.2900    9.0606    5.4894 O   0  0  0  0  0  0  0  0  0  0  0  0
    7.2525   10.1242    3.3339 C   0  0  0  0  0  0  0  0  0  0  0  0
    7.5649   10.2492    1.9659 C   0  0  0  0  0  0  0  0  0  0  0  0
    6.5572   10.3691    1.0187 C   0  0  0  0  0  0  0  0  0  0  0  0
    5.2297   10.3621    1.4285 C   0  0  0  0  0  0  0  0  0  0  0  0
    4.8943   10.2331    2.7871 C   0  0  0  0  0  0  0  0  0  0  0  0
    3.5530   10.2293    3.1802 C   0  0  0  0  0  0  0  0  0  0  0  0
    3.1202   10.1135    4.4529 N   0  0  0  0  0  0  0  0  0  0  0  0
    4.0716    9.9883    5.3911 C   0  0  0  0  0  0  0  0  0  0  0  0
    5.4324    9.9833    5.1148 C   0  0  0  0  0  0  0  0  0  0  0  0
    5.8964   10.1061    3.7812 C   0  0  0  0  0  0  0  0  0  0  0  0
   11.0707    9.6679    3.2197 C   0  0  0  0  0  0  0  0  0  0  0  0
   12.1489    8.6988    3.7392 C   0  0  0  0  0  0  0  0  0  0  0  0
   13.0762    8.1932    2.7241 N   0  0  0  0  0  0  0  0  0  0  0  0
   12.5552    8.0249    1.8635 H   0  0  0  0  0  0  0  0  0  0  0  0
   14.1658    9.1178    2.4337 C   0  0  0  0  0  0  0  0  0  0  0  0
   14.5101    9.0179    0.9801 C   0  0  0  0  0  0  0  0  0  0  0  0
   14.6957   10.0785    0.1768 C   0  0  0  0  0  0  0  0  0  0  0  0
   15.0305    9.9875   -1.2513 C   0  0  0  0  0  0  0  0  0  0  0  0
   14.4934   10.9355   -2.1333 C   0  0  0  0  0  0  0  0  0  0  0  0
   14.8081   10.9029   -3.4952 C   0  0  0  0  0  0  0  0  0  0  0  0
   15.6734    9.9258   -3.9804 C   0  0  0  0  0  0  0  0  0  0  0  0
   16.1020    9.8803   -5.8206 Br  0  0  0  0  0  0  0  0  0  0  0  0
   16.2291    8.9854   -3.1167 C   0  0  0  0  0  0  0  0  0  0  0  0
   15.9116    9.0206   -1.7552 C   0  0  0  0  0  0  0  0  0  0  0  0
  3  4  2  0
  4  5  2  0
  4  1  1  0
  1 16  1  0
 16 17  1  0
 17 18  1  0
 18 20  1  0
 20 21  1  0
 21 22  2  0
 22 23  1  0
 23 24  2  0
 24 25  1  0
 25 26  2  0
 26 27  1  0
 26 28  1  0
 28 29  2  0
  4  6  1  0
  6  7  2  0
  7  8  1  0
  8  9  2  0
  9 10  1  0
 10 11  2  0
 11 12  1  0
 12 13  2  0
 13 14  1  0
 14 15  2  0
 29 23  1  0
 15  6  1  0
 15 10  1  0
  1  2  1  0
 18 19  1  0
M  END
> <minimizedAffinity>
-8.89077

> <CNNscore>
0.7019419670

> <CNNaffinity>
6.4764637947

> <CNN_VS>
4.5461015701

> <CNNaffinity_variance>
0.3497027457

$$$$



 29 31  0  0  0  0  0  0  0  0999 V2000
    9.7323    9.0416    3.7397 N   0  0  0  0  0  0  0  0  0  0  0  0
    9.2444    8.6941    2.9142 H   0  0  0  0  0  0  0  0  0  0  0  0
    9.2980   11.3225    4.7539 O   0  0  0  0  0  0  0  0  0  0  0  0
    8.6614   10.0406    4.5641 S   0  0  0  0  0  0  0  0  0  0  0  0
    8.2131    9.2640    5.7006 O   0  0  0  0  0  0  0  0  0  0  0  0
    7.3003   10.1505    3.4127 C   0  0  0  0  0  0  0  0  0  0  0  0
    7.6709   10.2527    2.0574 C   0  0  0  0  0  0  0  0  0  0  0  0
    6.7043   10.3334    1.0643 C   0  0  0  0  0  0  0  0  0  0  0  0
    5.3603   10.3097    1.4152 C   0  0  0  0  0  0  0  0  0  0  0  0
    4.9672   10.2029    2.7603 C   0  0  0  0  0  0  0  0  0  0  0  0
    3.6100   10.1817    3.0938 C   0  0  0  0  0  0  0  0  0  0  0  0
    3.1232   10.0845    4.3484 N   0  0  0  0  0  0  0  0  0  0  0  0
    4.0341    9.9973    5.3302 C   0  0  0  0  0  0  0  0  0  0  0  0
    5.4056   10.0124    5.1143 C   0  0  0  0  0  0  0  0  0  0  0  0
    5.9262   10.1160    3.8001 C   0  0  0  0  0  0  0  0  0  0  0  0
   11.0082    9.6037    3.2832 C   0  0  0  0  0  0  0  0  0  0  0  0
   12.1372    8.5840    3.5225 C   0  0  0  0  0  0  0  0  0  0  0  0
   12.5571    7.8276    2.3404 N   0  0  0  0  0  0  0  0  0  0  0  0
   11.8526    7.9457    1.6123 H   0  0  0  0  0  0  0  0  0  0  0  0
   13.8463    8.2597    1.8132 C   0  0  0  0  0  0  0  0  0  0  0  0
   14.6358    8.8861    2.9204 C   0  0  0  0  0  0  0  0  0  0  0  0
   15.0247    8.2340    4.0287 C   0  0  0  0  0  0  0  0  0  0  0  0
   15.7969    8.8436    5.1205 C   0  0  0  0  0  0  0  0  0  0  0  0
   15.1415    9.7017    6.0147 C   0  0  0  0  0  0  0  0  0  0  0  0
   15.8313   10.2809    7.0841 C   0  0  0  0  0  0  0  0  0  0  0  0
   17.1811    9.9943    7.2710 C   0  0  0  0  0  0  0  0  0  0  0  0
   18.1157   10.7745    8.7167 Br  0  0  0  0  0  0  0  0  0  0  0  0
   17.8448    9.1318    6.4023 C   0  0  0  0  0  0  0  0  0  0  0  0
   17.1520    8.5548    5.3334 C   0  0  0  0  0  0  0  0  0  0  0  0
  3  4  2  0
  4  5  2  0
  4  1  1  0
  1 16  1  0
 16 17  1  0
 17 18  1  0
 18 20  1  0
 20 21  1  0
 21 22  2  0
 22 23  1  0
 23 24  2  0
 24 25  1  0
 25 26  2  0
 26 27  1  0
 26 28  1  0
 28 29  2  0
  4  6  1  0
  6  7  2  0
  7  8  1  0
  8  9  2  0
  9 10  1  0
 10 11  2  0
 11 12  1  0
 12 13  2  0
 13 14  1  0
 14 15  2  0
 29 23  1  0
 15  6  1  0
 15 10  1  0
  1  2  1  0
 18 19  1  0
M  END
> <minimizedAffinity>
-8.40793

> <CNNscore>
0.6964641213

> <CNNaffinity>
6.4034328461

> <CNN_VS>
4.4597611427

> <CNNaffinity_variance>
0.6141788363

$$$$



 29 31  0  0  0  0  0  0  0  0999 V2000
   10.0806    9.9647    2.8573 N   0  0  0  0  0  0  0  0  0  0  0  0
    9.7080   10.3972    2.0120 H   0  0  0  0  0  0  0  0  0  0  0  0
    9.0751   11.2182    4.8163 O   0  0  0  0  0  0  0  0  0  0  0  0
    8.8705   10.0301    4.0217 S   0  0  0  0  0  0  0  0  0  0  0  0
    8.8647    8.7210    4.6398 O   0  0  0  0  0  0  0  0  0  0  0  0
    7.3996   10.1609    3.0167 C   0  0  0  0  0  0  0  0  0  0  0  0
    7.6311   10.3016    1.6343 C   0  0  0  0  0  0  0  0  0  0  0  0
    6.5688   10.4018    0.7462 C   0  0  0  0  0  0  0  0  0  0  0  0
    5.2672   10.3592    1.2301 C   0  0  0  0  0  0  0  0  0  0  0  0
    5.0124   10.2140    2.6045 C   0  0  0  0  0  0  0  0  0  0  0  0
    3.6959   10.1744    3.0725 C   0  0  0  0  0  0  0  0  0  0  0  0
    3.3387   10.0405    4.3666 N   0  0  0  0  0  0  0  0  0  0  0  0
    4.3444    9.9337    5.2489 C   0  0  0  0  0  0  0  0  0  0  0  0
    5.6870    9.9643    4.8963 C   0  0  0  0  0  0  0  0  0  0  0  0
    6.0719   10.1064    3.5396 C   0  0  0  0  0  0  0  0  0  0  0  0
   11.3663   10.6110    3.1428 C   0  0  0  0  0  0  0  0  0  0  0  0
   12.0735   10.9612    1.8204 C   0  0  0  0  0  0  0  0  0  0  0  0
   13.5334   10.8417    1.8416 N   0  0  0  0  0  0  0  0  0  0  0  0
   13.8445   10.8349    2.8130 H   0  0  0  0  0  0  0  0  0  0  0  0
   14.0175    9.6299    1.1908 C   0  0  0  0  0  0  0  0  0  0  0  0
   14.2770    9.9276   -0.2533 C   0  0  0  0  0  0  0  0  0  0  0  0
   15.3111    9.4276   -0.9501 C   0  0  0  0  0  0  0  0  0  0  0  0
   15.5734    9.7184   -2.3666 C   0  0  0  0  0  0  0  0  0  0  0  0
   16.6701    9.1072   -2.9902 C   0  0  0  0  0  0  0  0  0  0  0  0
   16.9398    9.3337   -4.3433 C   0  0  0  0  0  0  0  0  0  0  0  0
   16.1044   10.1661   -5.0837 C   0  0  0  0  0  0  0  0  0  0  0  0
   16.4655   10.4728   -6.9133 Br  0  0  0  0  0  0  0  0  0  0  0  0
   15.0012   10.7693   -4.4852 C   0  0  0  0  0  0  0  0  0  0  0  0
   14.7348   10.5410   -3.1315 C   0  0  0  0  0  0  0  0  0  0  0  0
  3  4  2  0
  4  5  2  0
  4  1  1  0
  1 16  1  0
 16 17  1  0
 17 18  1  0
 18 20  1  0
 20 21  1  0
 21 22  2  0
 22 23  1  0
 23 24  2  0
 24 25  1  0
 25 26  2  0
 26 27  1  0
 26 28  1  0
 28 29  2  0
  4  6  1  0
  6  7  2  0
  7  8  1  0
  8  9  2  0
  9 10  1  0
 10 11  2  0
 11 12  1  0
 12 13  2  0
 13 14  1  0
 14 15  2  0
 29 23  1  0
 15  6  1  0
 15 10  1  0
  1  2  1  0
 18 19  1  0
M  END
> <minimizedAffinity>
-9.28033

> <CNNscore>
0.5068972111

> <CNNaffinity>
6.3113284111

> <CNN_VS>
3.1991946697

> <CNNaffinity_variance>
0.8360769153

$$$$



 29 31  0  0  0  0  0  0  0  0999 V2000
   13.9471   11.3497    1.2314 N   0  0  0  0  0  0  0  0  0  0  0  0
   13.8642   12.2636    1.6765 H   0  0  0  0  0  0  0  0  0  0  0  0
   13.7470   13.0076   -0.6742 O   0  0  0  0  0  0  0  0  0  0  0  0
   13.7645   11.5859   -0.4225 S   0  0  0  0  0  0  0  0  0  0  0  0
   12.6423   10.7551   -0.8049 O   0  0  0  0  0  0  0  0  0  0  0  0
   15.2461   10.8256   -1.0685 C   0  0  0  0  0  0  0  0  0  0  0  0
   16.1763   10.4084   -0.0963 C   0  0  0  0  0  0  0  0  0  0  0  0
   17.3629    9.7931   -0.4712 C   0  0  0  0  0  0  0  0  0  0  0  0
   17.6293    9.5865   -1.8190 C   0  0  0  0  0  0  0  0  0  0  0  0
   16.7137    9.9896   -2.8060 C   0  0  0  0  0  0  0  0  0  0  0  0
   17.0001    9.7741   -4.1570 C   0  0  0  0  0  0  0  0  0  0  0  0
   16.1959   10.1216   -5.1831 N   0  0  0  0  0  0  0  0  0  0  0  0
   15.0372   10.7121   -4.8516 C   0  0  0  0  0  0  0  0  0  0  0  0
   14.6526   10.9780   -3.5442 C   0  0  0  0  0  0  0  0  0  0  0  0
   15.4916   10.6182   -2.4599 C   0  0  0  0  0  0  0  0  0  0  0  0
   13.0169   10.4477    1.9195 C   0  0  0  0  0  0  0  0  0  0  0  0
   13.5737    9.0121    1.8921 C   0  0  0  0  0  0  0  0  0  0  0  0
   12.5948    7.9569    2.1648 N   0  0  0  0  0  0  0  0  0  0  0  0
   12.9914    7.0633    1.8740 H   0  0  0  0  0  0  0  0  0  0  0  0
   12.2294    7.8661    3.5736 C   0  0  0  0  0  0  0  0  0  0  0  0
   10.7653    8.1466    3.7121 C   0  0  0  0  0  0  0  0  0  0  0  0
   10.2579    9.3424    4.0547 C   0  0  0  0  0  0  0  0  0  0  0  0
    8.8223    9.6236    4.1956 C   0  0  0  0  0  0  0  0  0  0  0  0
    8.0057    9.5573    3.0581 C   0  0  0  0  0  0  0  0  0  0  0  0
    6.6302    9.7898    3.1518 C   0  0  0  0  0  0  0  0  0  0  0  0
    6.0619   10.0791    4.3897 C   0  0  0  0  0  0  0  0  0  0  0  0
    4.2026   10.3921    4.5198 Br  0  0  0  0  0  0  0  0  0  0  0  0
    6.8548   10.1336    5.5332 C   0  0  0  0  0  0  0  0  0  0  0  0
    8.2303    9.9012    5.4356 C   0  0  0  0  0  0  0  0  0  0  0  0
  3  4  2  0
  4  5  2  0
  4  1  1  0
  1 16  1  0
 16 17  1  0
 17 18  1  0
 18 20  1  0
 20 21  1  0
 21 22  2  0
 22 23  1  0
 23 24  2  0
 24 25  1  0
 25 26  2  0
 26 27  1  0
 26 28  1  0
 28 29  2  0
  4  6  1  0
  6  7  2  0
  7  8  1  0
  8  9  2  0
  9 10  1  0
 10 11  2  0
 11 12  1  0
 12 13  2  0
 13 14  1  0
 14 15  2  0
 29 23  1  0
 15  6  1  0
 15 10  1  0
  1  2  1  0
 18 19  1  0
M  END
> <minimizedAffinity>
-8.43709

> <CNNscore>
0.2750563622

> <CNNaffinity>
6.1219043732

> <CNN_VS>
1.6838687658

> <CNNaffinity_variance>
0.3020080626

$$$$



 29 31  0  0  0  0  0  0  0  0999 V2000
   14.2653    9.2318    0.0118 N   0  0  0  0  0  0  0  0  0  0  0  0
   15.0563    8.6400   -0.2422 H   0  0  0  0  0  0  0  0  0  0  0  0
   14.9242   11.6778    0.0660 O   0  0  0  0  0  0  0  0  0  0  0  0
   14.4288   10.6702   -0.8418 S   0  0  0  0  0  0  0  0  0  0  0  0
   13.1673   10.8519   -1.5284 O   0  0  0  0  0  0  0  0  0  0  0  0
   15.6538   10.2341   -2.0663 C   0  0  0  0  0  0  0  0  0  0  0  0
   16.8146    9.6190   -1.5576 C   0  0  0  0  0  0  0  0  0  0  0  0
   17.8361    9.2224   -2.4099 C   0  0  0  0  0  0  0  0  0  0  0  0
   17.7061    9.4336   -3.7770 C   0  0  0  0  0  0  0  0  0  0  0  0
   16.5549   10.0405   -4.3074 C   0  0  0  0  0  0  0  0  0  0  0  0
   16.4429   10.2457   -5.6855 C   0  0  0  0  0  0  0  0  0  0  0  0
   15.3866   10.8186   -6.2990 N   0  0  0  0  0  0  0  0  0  0  0  0
   14.3792   11.2060   -5.5014 C   0  0  0  0  0  0  0  0  0  0  0  0
   14.3854   11.0548   -4.1211 C   0  0  0  0  0  0  0  0  0  0  0  0
   15.4914   10.4558   -3.4677 C   0  0  0  0  0  0  0  0  0  0  0  0
   14.2187    9.2855    1.4772 C   0  0  0  0  0  0  0  0  0  0  0  0
   13.1704    8.2847    1.9978 C   0  0  0  0  0  0  0  0  0  0  0  0
   12.0035    8.0954    1.1327 N   0  0  0  0  0  0  0  0  0  0  0  0
   11.3797    7.4186    1.5725 H   0  0  0  0  0  0  0  0  0  0  0  0
   11.2599    9.3276    0.8977 C   0  0  0  0  0  0  0  0  0  0  0  0
   10.0880    9.3699    1.8285 C   0  0  0  0  0  0  0  0  0  0  0  0
    8.9314    9.9953    1.5532 C   0  0  0  0  0  0  0  0  0  0  0  0
    7.7786   10.0434    2.4636 C   0  0  0  0  0  0  0  0  0  0  0  0
    6.4973   10.2201    1.9229 C   0  0  0  0  0  0  0  0  0  0  0  0
    5.3702   10.2436    2.7500 C   0  0  0  0  0  0  0  0  0  0  0  0
    5.5192   10.0784    4.1246 C   0  0  0  0  0  0  0  0  0  0  0  0
    3.9973   10.1080    5.2448 Br  0  0  0  0  0  0  0  0  0  0  0  0
    6.7825    9.8858    4.6779 C   0  0  0  0  0  0  0  0  0  0  0  0
    7.9077    9.8635    3.8478 C   0  0  0  0  0  0  0  0  0  0  0  0
  3  4  2  0
  4  5  2  0
  4  1  1  0
  1 16  1  0
 16 17  1  0
 17 18  1  0
 18 20  1  0
 20 21  1  0
 21 22  2  0
 22 23  1  0
 23 24  2  0
 24 25  1  0
 25 26  2  0
 26 27  1  0
 26 28  1  0
 28 29  2  0
  4  6  1  0
  6  7  2  0
  7  8  1  0
  8  9  2  0
  9 10  1  0
 10 11  2  0
 11 12  1  0
 12 13  2  0
 13 14  1  0
 14 15  2  0
 29 23  1  0
 15  6  1  0
 15 10  1  0
  1  2  1  0
 18 19  1  0
M  END
> <minimizedAffinity>
-9.10105

> <CNNscore>
0.2737286389

> <CNNaffinity>
5.9536108971

> <CNN_VS>
1.6296738386

> <CNNaffinity_variance>
0.5616058707

$$$$



 29 31  0  0  0  0  0  0  0  0999 V2000
   14.4996    8.5159    1.3149 N   0  0  0  0  0  0  0  0  0  0  0  0
   13.6761    7.9991    1.0063 H   0  0  0  0  0  0  0  0  0  0  0  0
   15.4234    6.7887   -0.2923 O   0  0  0  0  0  0  0  0  0  0  0  0
   15.7791    8.0396    0.3349 S   0  0  0  0  0  0  0  0  0  0  0  0
   16.9569    8.1370    1.1711 O   0  0  0  0  0  0  0  0  0  0  0  0
   15.8476    9.3710   -0.8539 C   0  0  0  0  0  0  0  0  0  0  0  0
   15.9589   10.6615   -0.2999 C   0  0  0  0  0  0  0  0  0  0  0  0
   16.0323   11.7790   -1.1202 C   0  0  0  0  0  0  0  0  0  0  0  0
   15.9984   11.6175   -2.4997 C   0  0  0  0  0  0  0  0  0  0  0  0
   15.8931   10.3395   -3.0746 C   0  0  0  0  0  0  0  0  0  0  0  0
   15.8591   10.1973   -4.4647 C   0  0  0  0  0  0  0  0  0  0  0  0
   15.7583    9.0221   -5.1198 N   0  0  0  0  0  0  0  0  0  0  0  0
   15.6931    7.9224   -4.3533 C   0  0  0  0  0  0  0  0  0  0  0  0
   15.7146    7.9466   -2.9652 C   0  0  0  0  0  0  0  0  0  0  0  0
   15.8184    9.1764   -2.2683 C   0  0  0  0  0  0  0  0  0  0  0  0
   14.6141    8.3213    2.7645 C   0  0  0  0  0  0  0  0  0  0  0  0
   13.7389    7.1301    3.1965 C   0  0  0  0  0  0  0  0  0  0  0  0
   12.4768    7.4863    3.8494 N   0  0  0  0  0  0  0  0  0  0  0  0
   12.6100    7.4418    4.8597 H   0  0  0  0  0  0  0  0  0  0  0  0
   12.0103    8.8234    3.5012 C   0  0  0  0  0  0  0  0  0  0  0  0
   10.5530    8.9271    3.8278 C   0  0  0  0  0  0  0  0  0  0  0  0
    9.7342    9.8651    3.3233 C   0  0  0  0  0  0  0  0  0  0  0  0
    8.3037    9.9745    3.6423 C   0  0  0  0  0  0  0  0  0  0  0  0
    7.9060    9.9351    4.9859 C   0  0  0  0  0  0  0  0  0  0  0  0
    6.5584   10.0639    5.3359 C   0  0  0  0  0  0  0  0  0  0  0  0
    5.6012   10.2448    4.3409 C   0  0  0  0  0  0  0  0  0  0  0  0
    3.7791   10.4209    4.8110 Br  0  0  0  0  0  0  0  0  0  0  0  0
    5.9794   10.3023    3.0019 C   0  0  0  0  0  0  0  0  0  0  0  0
    7.3280   10.1724    2.6555 C   0  0  0  0  0  0  0  0  0  0  0  0
  3  4  2  0
  4  5  2  0
  4  1  1  0
  1 16  1  0
 16 17  1  0
 17 18  1  0
 18 20  1  0
 20 21  1  0
 21 22  2  0
 22 23  1  0
 23 24  2  0
 24 25  1  0
 25 26  2  0
 26 27  1  0
 26 28  1  0
 28 29  2  0
  4  6  1  0
  6  7  2  0
  7  8  1  0
  8  9  2  0
  9 10  1  0
 10 11  2  0
 11 12  1  0
 12 13  2  0
 13 14  1  0
 14 15  2  0
 29 23  1  0
 15  6  1  0
 15 10  1  0
  1  2  1  0
 18 19  1  0
M  END
> <minimizedAffinity>
-8.96995

> <CNNscore>
0.1843659133

> <CNNaffinity>
5.6881012917

> <CNN_VS>
1.0486919880

> <CNNaffinity_variance>
0.8626198173

$$$$



 29 31  0  0  0  0  0  0  0  0999 V2000
   15.3747    8.5074    1.4129 N   0  0  0  0  0  0  0  0  0  0  0  0
   14.9668    9.3766    1.0686 H   0  0  0  0  0  0  0  0  0  0  0  0
   15.3347    6.7416   -0.4037 O   0  0  0  0  0  0  0  0  0  0  0  0
   16.1762    7.7909    0.1211 S   0  0  0  0  0  0  0  0  0  0  0  0
   17.5048    7.4942    0.6137 O   0  0  0  0  0  0  0  0  0  0  0  0
   16.3158    9.1527   -1.0263 C   0  0  0  0  0  0  0  0  0  0  0  0
   16.6522   10.3913   -0.4455 C   0  0  0  0  0  0  0  0  0  0  0  0
   16.8014   11.5243   -1.2336 C   0  0  0  0  0  0  0  0  0  0  0  0
   16.6192   11.4299   -2.6077 C   0  0  0  0  0  0  0  0  0  0  0  0
   16.2885   10.2038   -3.2094 C   0  0  0  0  0  0  0  0  0  0  0  0
   16.1079   10.1289   -4.5935 C   0  0  0  0  0  0  0  0  0  0  0  0
   15.7883    9.0075   -5.2723 N   0  0  0  0  0  0  0  0  0  0  0  0
   15.6446    7.8934   -4.5380 C   0  0  0  0  0  0  0  0  0  0  0  0
   15.7967    7.8531   -3.1585 C   0  0  0  0  0  0  0  0  0  0  0  0
   16.1306    9.0263   -2.4366 C   0  0  0  0  0  0  0  0  0  0  0  0
   14.3013    7.7591    2.0764 C   0  0  0  0  0  0  0  0  0  0  0  0
   13.0069    8.5932    2.0653 C   0  0  0  0  0  0  0  0  0  0  0  0
   11.8251    7.9061    1.5386 N   0  0  0  0  0  0  0  0  0  0  0  0
   11.3234    7.4797    2.3176 H   0  0  0  0  0  0  0  0  0  0  0  0
   10.9131    8.7975    0.8315 C   0  0  0  0  0  0  0  0  0  0  0  0
    9.6102    8.8391    1.5677 C   0  0  0  0  0  0  0  0  0  0  0  0
    9.0317    9.9684    2.0091 C   0  0  0  0  0  0  0  0  0  0  0  0
    7.7547   10.0159    2.7351 C   0  0  0  0  0  0  0  0  0  0  0  0
    7.7715    9.9668    4.1360 C   0  0  0  0  0  0  0  0  0  0  0  0
    6.5820   10.0376    4.8674 C   0  0  0  0  0  0  0  0  0  0  0  0
    5.3676   10.1698    4.1989 C   0  0  0  0  0  0  0  0  0  0  0  0
    3.7582   10.2674    5.1850 Br  0  0  0  0  0  0  0  0  0  0  0  0
    5.3327   10.2362    2.8084 C   0  0  0  0  0  0  0  0  0  0  0  0
    6.5243   10.1645    2.0801 C   0  0  0  0  0  0  0  0  0  0  0  0
  3  4  2  0
  4  5  2  0
  4  1  1  0
  1 16  1  0
 16 17  1  0
 17 18  1  0
 18 20  1  0
 20 21  1  0
 21 22  2  0
 22 23  1  0
 23 24  2  0
 24 25  1  0
 25 26  2  0
 26 27  1  0
 26 28  1  0
 28 29  2  0
  4  6  1  0
  6  7  2  0
  7  8  1  0
  8  9  2  0
  9 10  1  0
 10 11  2  0
 11 12  1  0
 12 13  2  0
 13 14  1  0
 14 15  2  0
 29 23  1  0
 15  6  1  0
 15 10  1  0
  1  2  1  0
 18 19  1  0
M  END
> <minimizedAffinity>
-9.46243

> <CNNscore>
0.1819569170

> <CNNaffinity>
5.3853898048

> <CNN_VS>
0.9799089432

> <CNNaffinity_variance>
1.4005779028

$$$$



 29 31  0  0  0  0  0  0  0  0999 V2000
   16.2620   10.3636    5.9245 N   0  0  0  0  0  0  0  0  0  0  0  0
   16.1958   11.0415    5.1653 H   0  0  0  0  0  0  0  0  0  0  0  0
   18.6479   11.0585    5.4298 O   0  0  0  0  0  0  0  0  0  0  0  0
   17.8966   10.1210    6.2308 S   0  0  0  0  0  0  0  0  0  0  0  0
   18.1042    8.6955    6.0871 O   0  0  0  0  0  0  0  0  0  0  0  0
   18.0070   10.5117    7.9702 C   0  0  0  0  0  0  0  0  0  0  0  0
   17.1909    9.7298    8.8111 C   0  0  0  0  0  0  0  0  0  0  0  0
   17.1953    9.9290   10.1850 C   0  0  0  0  0  0  0  0  0  0  0  0
   18.0163   10.9079   10.7309 C   0  0  0  0  0  0  0  0  0  0  0  0
   18.8427   11.6961    9.9119 C   0  0  0  0  0  0  0  0  0  0  0  0
   19.6609   12.6770   10.4796 C   0  0  0  0  0  0  0  0  0  0  0  0
   20.4888   13.4883    9.7891 N   0  0  0  0  0  0  0  0  0  0  0  0
   20.5120   13.3143    8.4586 C   0  0  0  0  0  0  0  0  0  0  0  0
   19.7396   12.3744    7.7893 C   0  0  0  0  0  0  0  0  0  0  0  0
   18.8658   11.5189    8.5060 C   0  0  0  0  0  0  0  0  0  0  0  0
   15.4389    9.2094    5.5466 C   0  0  0  0  0  0  0  0  0  0  0  0
   13.9483    9.5832    5.6459 C   0  0  0  0  0  0  0  0  0  0  0  0
   13.4163   10.3387    4.5092 N   0  0  0  0  0  0  0  0  0  0  0  0
   14.1985   10.7360    3.9888 H   0  0  0  0  0  0  0  0  0  0  0  0
   12.6219    9.5206    3.6002 C   0  0  0  0  0  0  0  0  0  0  0  0
   11.1928    9.5527    4.0450 C   0  0  0  0  0  0  0  0  0  0  0  0
   10.1932   10.0888    3.3252 C   0  0  0  0  0  0  0  0  0  0  0  0
    8.7890   10.1266    3.7572 C   0  0  0  0  0  0  0  0  0  0  0  0
    7.7833   10.1888    2.7826 C   0  0  0  0  0  0  0  0  0  0  0  0
    6.4338   10.1981    3.1483 C   0  0  0  0  0  0  0  0  0  0  0  0
    6.0832   10.1334    4.4944 C   0  0  0  0  0  0  0  0  0  0  0  0
    4.2598   10.1440    4.9917 Br  0  0  0  0  0  0  0  0  0  0  0  0
    7.0680   10.0552    5.4757 C   0  0  0  0  0  0  0  0  0  0  0  0
    8.4167   10.0468    5.1063 C   0  0  0  0  0  0  0  0  0  0  0  0
  3  4  2  0
  4  5  2  0
  4  1  1  0
  1 16  1  0
 16 17  1  0
 17 18  1  0
 18 20  1  0
 20 21  1  0
 21 22  2  0
 22 23  1  0
 23 24  2  0
 24 25  1  0
 25 26  2  0
 26 27  1  0
 26 28  1  0
 28 29  2  0
  4  6  1  0
  6  7  2  0
  7  8  1  0
  8  9  2  0
  9 10  1  0
 10 11  2  0
 11 12  1  0
 12 13  2  0
 13 14  1  0
 14 15  2  0
 29 23  1  0
 15  6  1  0
 15 10  1  0
  1  2  1  0
 18 19  1  0
M  END
> <minimizedAffinity>
-7.60423

> <CNNscore>
0.1816918254

> <CNNaffinity>
4.8308296204

> <CNN_VS>
0.8777222633

> <CNNaffinity_variance>
0.8324889541

$$$$



 29 31  0  0  0  0  0  0  0  0999 V2000
   13.7725   10.2041   -1.4617 N   0  0  0  0  0  0  0  0  0  0  0  0
   13.2267    9.3478   -1.3655 H   0  0  0  0  0  0  0  0  0  0  0  0
   15.4727    8.3780   -1.0205 O   0  0  0  0  0  0  0  0  0  0  0  0
   15.3942    9.7661   -1.4102 S   0  0  0  0  0  0  0  0  0  0  0  0
   16.0416   10.7920   -0.6201 O   0  0  0  0  0  0  0  0  0  0  0  0
   15.8918    9.9972   -3.1100 C   0  0  0  0  0  0  0  0  0  0  0  0
   14.8414   10.2700   -4.0083 C   0  0  0  0  0  0  0  0  0  0  0  0
   15.1002   10.4802   -5.3559 C   0  0  0  0  0  0  0  0  0  0  0  0
   16.4094   10.4230   -5.8174 C   0  0  0  0  0  0  0  0  0  0  0  0
   17.4736   10.1578   -4.9387 C   0  0  0  0  0  0  0  0  0  0  0  0
   18.7840   10.1031   -5.4220 C   0  0  0  0  0  0  0  0  0  0  0  0
   19.8762    9.8549   -4.6696 N   0  0  0  0  0  0  0  0  0  0  0  0
   19.6586    9.6549   -3.3605 C   0  0  0  0  0  0  0  0  0  0  0  0
   18.4003    9.6825   -2.7741 C   0  0  0  0  0  0  0  0  0  0  0  0
   17.2470    9.9406   -3.5566 C   0  0  0  0  0  0  0  0  0  0  0  0
   13.2685   11.1524   -0.4621 C   0  0  0  0  0  0  0  0  0  0  0  0
   11.8891   10.6882    0.0411 C   0  0  0  0  0  0  0  0  0  0  0  0
   11.9119    9.8470    1.2402 N   0  0  0  0  0  0  0  0  0  0  0  0
   11.4987   10.3705    2.0120 H   0  0  0  0  0  0  0  0  0  0  0  0
   11.1741    8.5997    1.0777 C   0  0  0  0  0  0  0  0  0  0  0  0
    9.8300    8.7460    1.7207 C   0  0  0  0  0  0  0  0  0  0  0  0
    9.4657    9.7996    2.4704 C   0  0  0  0  0  0  0  0  0  0  0  0
    8.1494    9.9479    3.1069 C   0  0  0  0  0  0  0  0  0  0  0  0
    7.0368   10.2277    2.3014 C   0  0  0  0  0  0  0  0  0  0  0  0
    5.7616   10.3489    2.8620 C   0  0  0  0  0  0  0  0  0  0  0  0
    5.5916   10.1787    4.2336 C   0  0  0  0  0  0  0  0  0  0  0  0
    3.8689   10.3402    4.9939 Br  0  0  0  0  0  0  0  0  0  0  0  0
    6.6827    9.8845    5.0472 C   0  0  0  0  0  0  0  0  0  0  0  0
    7.9567    9.7647    4.4833 C   0  0  0  0  0  0  0  0  0  0  0  0
  3  4  2  0
  4  5  2  0
  4  1  1  0
  1 16  1  0
 16 17  1  0
 17 18  1  0
 18 20  1  0
 20 21  1  0
 21 22  2  0
 22 23  1  0
 23 24  2  0
 24 25  1  0
 25 26  2  0
 26 27  1  0
 26 28  1  0
 28 29  2  0
  4  6  1  0
  6  7  2  0
  7  8  1  0
  8  9  2  0
  9 10  1  0
 10 11  2  0
 11 12  1  0
 12 13  2  0
 13 14  1  0
 14 15  2  0
 29 23  1  0
 15  6  1  0
 15 10  1  0
  1  2  1  0
 18 19  1  0
M  END
> <minimizedAffinity>
-9.12860

> <CNNscore>
0.1791861951

> <CNNaffinity>
5.4510684013

> <CNN_VS>
0.9767562151

> <CNNaffinity_variance>
1.2597843409

$$$$
