


 28 30  0  0  0  0  0  0  0  0999 V2000
   -0.0468   10.5150   10.5483 C   0  0  0  0  0  0  0  0  0  0  0  0
   -0.0902   11.6209    9.4561 C   0  0  0  0  0  0  0  0  0  0  0  0
    1.1662   11.6804    8.7689 O   0  0  0  0  0  0  0  0  0  0  0  0
   -1.1838   11.3757    8.3947 C   0  0  0  0  0  0  0  0  0  0  0  0
   -2.4687   11.5689    8.9963 O   0  0  0  0  0  0  0  0  0  0  0  0
   -1.1138    9.9628    7.7687 C   0  0  0  0  0  0  0  0  0  0  0  0
   -0.4792    9.9531    6.4868 O   0  0  0  0  0  0  0  0  0  0  0  0
   -0.4273    8.9573    8.6642 C   0  0  0  0  0  0  0  0  0  0  0  0
   -0.1235    7.6823    8.3826 N   0  0  0  0  0  0  0  0  0  0  0  0
    0.4872    7.0573    9.4575 C   0  0  0  0  0  0  0  0  0  0  0  0
    0.5661    8.0243   10.4326 C   0  0  0  0  0  0  0  0  0  0  0  0
    0.0288    9.1841    9.9050 N   0  0  0  0  0  0  0  0  0  0  0  0
    1.3280   10.8372    8.3174 H   0  0  0  0  0  0  0  0  0  0  0  0
   -2.5913   10.9246    9.7109 H   0  0  0  0  0  0  0  0  0  0  0  0
    0.4499   10.2143    6.5840 H   0  0  0  0  0  0  0  0  0  0  0  0
   -0.3109    7.2452    7.5205 H   0  0  0  0  0  0  0  0  0  0  0  0
   -1.0083    9.6467   12.5984 O   0  0  0  0  0  0  0  0  0  0  0  0
   -1.2304   10.5751   11.5327 C   0  0  0  0  0  0  0  0  0  0  0  0
   -1.7526    9.6831   13.2193 H   0  0  0  0  0  0  0  0  0  0  0  0
    0.9221    5.6434    9.4349 C   0  0  0  0  0  0  0  0  0  0  0  0
    1.2556    5.1376   10.8379 C   0  0  0  0  0  0  0  0  0  0  0  0
    1.7719    3.7215   10.8030 C   0  0  0  0  0  0  0  0  0  0  0  0
    2.1627    3.0790   11.9884 C   0  0  0  0  0  0  0  0  0  0  0  0
    2.6195    1.7607   11.9571 C   0  0  0  0  0  0  0  0  0  0  0  0
    2.6830    1.0847   10.7451 C   0  0  0  0  0  0  0  0  0  0  0  0
    3.1196   -0.1806   10.7174 F   0  0  0  0  0  0  0  0  0  0  0  0
    2.2987    1.7025    9.5617 C   0  0  0  0  0  0  0  0  0  0  0  0
    1.8413    3.0208    9.5889 C   0  0  0  0  0  0  0  0  0  0  0  0
 17 18  1  0
  1 18  1  0
  1  2  1  0
  2  3  1  0
  2  4  1  0
  4  5  1  0
  4  6  1  0
  6  7  1  0
  6  8  1  0
  8  9  1  0
  9 10  1  0
 10 20  1  0
 20 21  1  0
 21 22  1  0
 22 23  2  0
 23 24  1  0
 24 25  2  0
 25 26  1  0
 25 27  1  0
 27 28  2  0
 10 11  2  0
 11 12  1  0
 12  1  1  0
 12  8  2  0
 28 22  1  0
 17 19  1  0
  3 13  1  0
  5 14  1  0
  7 15  1  0
  9 16  1  0
M  CHG 1  12   1
M  END
> <minimizedAffinity>
-7.75993

> <CNNscore>
0.9369167089

> <CNNaffinity>
7.3517665863

> <CNN_VS>
6.8879928589

> <CNNaffinity_variance>
1.2296420336

$$$$



 28 30  0  0  0  0  0  0  0  0999 V2000
   -0.0448   10.4875   10.5305 C   0  0  0  0  0  0  0  0  0  0  0  0
   -0.0847   11.6147    9.4603 C   0  0  0  0  0  0  0  0  0  0  0  0
    1.1705   11.6809    8.7714 O   0  0  0  0  0  0  0  0  0  0  0  0
   -1.1820   11.3959    8.3967 C   0  0  0  0  0  0  0  0  0  0  0  0
   -2.4645   11.5841    9.0049 O   0  0  0  0  0  0  0  0  0  0  0  0
   -1.1208    9.9950    7.7432 C   0  0  0  0  0  0  0  0  0  0  0  0
   -0.4890   10.0071    6.4599 O   0  0  0  0  0  0  0  0  0  0  0  0
   -0.4376    8.9688    8.6173 C   0  0  0  0  0  0  0  0  0  0  0  0
   -0.1412    7.6979    8.3103 N   0  0  0  0  0  0  0  0  0  0  0  0
    0.4686    7.0489    9.3714 C   0  0  0  0  0  0  0  0  0  0  0  0
    0.5548    7.9963   10.3650 C   0  0  0  0  0  0  0  0  0  0  0  0
    0.0225    9.1690    9.8613 N   0  0  0  0  0  0  0  0  0  0  0  0
    1.3268   10.8459    8.3032 H   0  0  0  0  0  0  0  0  0  0  0  0
   -2.5889   10.9266    9.7072 H   0  0  0  0  0  0  0  0  0  0  0  0
    0.4417   10.2614    6.5600 H   0  0  0  0  0  0  0  0  0  0  0  0
   -0.3327    7.2787    7.4403 H   0  0  0  0  0  0  0  0  0  0  0  0
   -0.9719    9.6376   12.6041 O   0  0  0  0  0  0  0  0  0  0  0  0
   -1.2258   10.5346   11.5187 C   0  0  0  0  0  0  0  0  0  0  0  0
   -1.7146    9.6659   13.2274 H   0  0  0  0  0  0  0  0  0  0  0  0
    0.8960    5.6334    9.3203 C   0  0  0  0  0  0  0  0  0  0  0  0
   -0.0007    4.7463   10.1831 C   0  0  0  0  0  0  0  0  0  0  0  0
    0.2958    4.9274   11.6503 C   0  0  0  0  0  0  0  0  0  0  0  0
    1.6069    4.7877   12.1320 C   0  0  0  0  0  0  0  0  0  0  0  0
    1.8832    4.9775   13.4868 C   0  0  0  0  0  0  0  0  0  0  0  0
    0.8529    5.3090   14.3577 C   0  0  0  0  0  0  0  0  0  0  0  0
    1.1202    5.4926   15.6566 F   0  0  0  0  0  0  0  0  0  0  0  0
   -0.4506    5.4539   13.8998 C   0  0  0  0  0  0  0  0  0  0  0  0
   -0.7310    5.2650   12.5457 C   0  0  0  0  0  0  0  0  0  0  0  0
 17 18  1  0
  1 18  1  0
  1  2  1  0
  2  3  1  0
  2  4  1  0
  4  5  1  0
  4  6  1  0
  6  7  1  0
  6  8  1  0
  8  9  1  0
  9 10  1  0
 10 20  1  0
 20 21  1  0
 21 22  1  0
 22 23  2  0
 23 24  1  0
 24 25  2  0
 25 26  1  0
 25 27  1  0
 27 28  2  0
 10 11  2  0
 11 12  1  0
 12  1  1  0
 12  8  2  0
 28 22  1  0
 17 19  1  0
  3 13  1  0
  5 14  1  0
  7 15  1  0
  9 16  1  0
M  CHG 1  12   1
M  END
> <minimizedAffinity>
-7.94150

> <CNNscore>
0.9144788980

> <CNNaffinity>
7.3290557861

> <CNN_VS>
6.7022666931

> <CNNaffinity_variance>
1.0478703976

$$$$



 28 30  0  0  0  0  0  0  0  0999 V2000
    0.3527   10.3854    8.7535 C   0  0  0  0  0  0  0  0  0  0  0  0
   -0.7382   10.9188    7.7823 C   0  0  0  0  0  0  0  0  0  0  0  0
   -0.6943   10.1904    6.5486 O   0  0  0  0  0  0  0  0  0  0  0  0
   -2.1676   10.7792    8.3481 C   0  0  0  0  0  0  0  0  0  0  0  0
   -2.3304   11.6976    9.4345 O   0  0  0  0  0  0  0  0  0  0  0  0
   -2.4901    9.3454    8.8312 C   0  0  0  0  0  0  0  0  0  0  0  0
   -3.2602    8.5994    7.8842 O   0  0  0  0  0  0  0  0  0  0  0  0
   -1.2531    8.5546    9.1900 C   0  0  0  0  0  0  0  0  0  0  0  0
   -1.1805    7.2651    9.5491 N   0  0  0  0  0  0  0  0  0  0  0  0
    0.1237    6.8882    9.8249 C   0  0  0  0  0  0  0  0  0  0  0  0
    0.8750    8.0185    9.6006 C   0  0  0  0  0  0  0  0  0  0  0  0
    0.0082    9.0110    9.1813 N   0  0  0  0  0  0  0  0  0  0  0  0
   -0.8923    9.2560    6.7176 H   0  0  0  0  0  0  0  0  0  0  0  0
   -1.7030   11.4775   10.1408 H   0  0  0  0  0  0  0  0  0  0  0  0
   -2.7385    8.4648    7.0776 H   0  0  0  0  0  0  0  0  0  0  0  0
   -1.9563    6.6619    9.6092 H   0  0  0  0  0  0  0  0  0  0  0  0
    0.5949   12.6603    9.5582 O   0  0  0  0  0  0  0  0  0  0  0  0
    0.5844   11.2923    9.9771 C   0  0  0  0  0  0  0  0  0  0  0  0
    0.7407   13.2329   10.3274 H   0  0  0  0  0  0  0  0  0  0  0  0
    0.5009    5.5242   10.2562 C   0  0  0  0  0  0  0  0  0  0  0  0
    1.5739    5.5575   11.3439 C   0  0  0  0  0  0  0  0  0  0  0  0
    1.8405    4.1796   11.8948 C   0  0  0  0  0  0  0  0  0  0  0  0
    2.2058    3.1305   11.0365 C   0  0  0  0  0  0  0  0  0  0  0  0
    2.4737    1.8610   11.5506 C   0  0  0  0  0  0  0  0  0  0  0  0
    2.3800    1.6407   12.9190 C   0  0  0  0  0  0  0  0  0  0  0  0
    2.6394    0.4227   13.4106 F   0  0  0  0  0  0  0  0  0  0  0  0
    2.0223    2.6665   13.7848 C   0  0  0  0  0  0  0  0  0  0  0  0
    1.7536    3.9375   13.2745 C   0  0  0  0  0  0  0  0  0  0  0  0
 17 18  1  0
  1 18  1  0
  1  2  1  0
  2  3  1  0
  2  4  1  0
  4  5  1  0
  4  6  1  0
  6  7  1  0
  6  8  1  0
  8  9  1  0
  9 10  1  0
 10 20  1  0
 20 21  1  0
 21 22  1  0
 22 23  2  0
 23 24  1  0
 24 25  2  0
 25 26  1  0
 25 27  1  0
 27 28  2  0
 10 11  2  0
 11 12  1  0
 12  1  1  0
 12  8  2  0
 28 22  1  0
 17 19  1  0
  3 13  1  0
  5 14  1  0
  7 15  1  0
  9 16  1  0
M  CHG 1  12   1
M  END
> <minimizedAffinity>
-8.11964

> <CNNscore>
0.8892477751

> <CNNaffinity>
7.1566600800

> <CNN_VS>
6.3640441895

> <CNNaffinity_variance>
0.4164125025

$$$$



 28 30  0  0  0  0  0  0  0  0999 V2000
    0.3398   10.3763    8.8383 C   0  0  0  0  0  0  0  0  0  0  0  0
   -0.7286   10.8344    7.8056 C   0  0  0  0  0  0  0  0  0  0  0  0
   -0.6408   10.0320    6.6212 O   0  0  0  0  0  0  0  0  0  0  0  0
   -2.1721   10.7114    8.3385 C   0  0  0  0  0  0  0  0  0  0  0  0
   -2.3766   11.6928    9.3609 O   0  0  0  0  0  0  0  0  0  0  0  0
   -2.4922    9.3059    8.9003 C   0  0  0  0  0  0  0  0  0  0  0  0
   -3.2261    8.4929    7.9802 O   0  0  0  0  0  0  0  0  0  0  0  0
   -1.2572    8.5551    9.3422 C   0  0  0  0  0  0  0  0  0  0  0  0
   -1.1804    7.2912    9.7825 N   0  0  0  0  0  0  0  0  0  0  0  0
    0.1194    6.9491   10.1178 C   0  0  0  0  0  0  0  0  0  0  0  0
    0.8641    8.0732    9.8450 C   0  0  0  0  0  0  0  0  0  0  0  0
   -0.0014    9.0265    9.3407 N   0  0  0  0  0  0  0  0  0  0  0  0
   -0.8331    9.1073    6.8421 H   0  0  0  0  0  0  0  0  0  0  0  0
   -1.7674   11.5249   10.0968 H   0  0  0  0  0  0  0  0  0  0  0  0
   -2.6798    8.3156    7.1985 H   0  0  0  0  0  0  0  0  0  0  0  0
   -1.9508    6.6828    9.8581 H   0  0  0  0  0  0  0  0  0  0  0  0
    0.6003   12.6949    9.5000 O   0  0  0  0  0  0  0  0  0  0  0  0
    0.5257   11.3599   10.0093 C   0  0  0  0  0  0  0  0  0  0  0  0
    0.7174   13.3157   10.2360 H   0  0  0  0  0  0  0  0  0  0  0  0
    0.4995    5.6194   10.6433 C   0  0  0  0  0  0  0  0  0  0  0  0
    1.6797    5.7156   11.6094 C   0  0  0  0  0  0  0  0  0  0  0  0
    1.2592    5.4022   13.0231 C   0  0  0  0  0  0  0  0  0  0  0  0
    1.4697    4.1219   13.5589 C   0  0  0  0  0  0  0  0  0  0  0  0
    1.1000    3.8398   14.8748 C   0  0  0  0  0  0  0  0  0  0  0  0
    0.5243    4.8351   15.6545 C   0  0  0  0  0  0  0  0  0  0  0  0
    0.1722    4.5632   16.9172 F   0  0  0  0  0  0  0  0  0  0  0  0
    0.3099    6.1088   15.1431 C   0  0  0  0  0  0  0  0  0  0  0  0
    0.6782    6.3947   13.8276 C   0  0  0  0  0  0  0  0  0  0  0  0
 17 18  1  0
  1 18  1  0
  1  2  1  0
  2  3  1  0
  2  4  1  0
  4  5  1  0
  4  6  1  0
  6  7  1  0
  6  8  1  0
  8  9  1  0
  9 10  1  0
 10 20  1  0
 20 21  1  0
 21 22  1  0
 22 23  2  0
 23 24  1  0
 24 25  2  0
 25 26  1  0
 25 27  1  0
 27 28  2  0
 10 11  2  0
 11 12  1  0
 12  1  1  0
 12  8  2  0
 28 22  1  0
 17 19  1  0
  3 13  1  0
  5 14  1  0
  7 15  1  0
  9 16  1  0
M  CHG 1  12   1
M  END
> <minimizedAffinity>
-8.24260

> <CNNscore>
0.8162264824

> <CNNaffinity>
6.9730696678

> <CNN_VS>
5.6916041374

> <CNNaffinity_variance>
0.2880899906

$$$$



 28 30  0  0  0  0  0  0  0  0999 V2000
    0.3124   10.3021    9.3120 C   0  0  0  0  0  0  0  0  0  0  0  0
   -0.5316   10.4148    8.0110 C   0  0  0  0  0  0  0  0  0  0  0  0
   -0.3285    9.2552    7.1934 O   0  0  0  0  0  0  0  0  0  0  0  0
   -2.0468   10.5251    8.2845 C   0  0  0  0  0  0  0  0  0  0  0  0
   -2.3226   11.8015    8.8718 O   0  0  0  0  0  0  0  0  0  0  0  0
   -2.5780    9.4051    9.2100 C   0  0  0  0  0  0  0  0  0  0  0  0
   -3.2258    8.3509    8.4923 O   0  0  0  0  0  0  0  0  0  0  0  0
   -1.5023    8.8113   10.0900 C   0  0  0  0  0  0  0  0  0  0  0  0
   -1.6112    7.7706   10.9281 N   0  0  0  0  0  0  0  0  0  0  0  0
   -0.4178    7.5227   11.5864 C   0  0  0  0  0  0  0  0  0  0  0  0
    0.4592    8.4634   11.0982 C   0  0  0  0  0  0  0  0  0  0  0  0
   -0.2250    9.2148   10.1604 N   0  0  0  0  0  0  0  0  0  0  0  0
   -0.6363    8.4671    7.6679 H   0  0  0  0  0  0  0  0  0  0  0  0
   -1.8564   11.8750    9.7193 H   0  0  0  0  0  0  0  0  0  0  0  0
   -2.5800    7.9015    7.9250 H   0  0  0  0  0  0  0  0  0  0  0  0
   -2.4354    7.2484   11.0592 H   0  0  0  0  0  0  0  0  0  0  0  0
    0.4118   12.7225    9.1965 O   0  0  0  0  0  0  0  0  0  0  0  0
    0.3969   11.6190   10.1071 C   0  0  0  0  0  0  0  0  0  0  0  0
    0.4650   13.5527    9.6954 H   0  0  0  0  0  0  0  0  0  0  0  0
   -0.2480    6.4398   12.5800 C   0  0  0  0  0  0  0  0  0  0  0  0
    0.0014    6.9986   13.9803 C   0  0  0  0  0  0  0  0  0  0  0  0
   -1.2017    6.8101   14.8694 C   0  0  0  0  0  0  0  0  0  0  0  0
   -2.4958    6.8298   14.3259 C   0  0  0  0  0  0  0  0  0  0  0  0
   -3.6073    6.6332   15.1467 C   0  0  0  0  0  0  0  0  0  0  0  0
   -3.4263    6.4142   16.5066 C   0  0  0  0  0  0  0  0  0  0  0  0
   -4.4936    6.2236   17.2920 F   0  0  0  0  0  0  0  0  0  0  0  0
   -2.1536    6.3888   17.0628 C   0  0  0  0  0  0  0  0  0  0  0  0
   -1.0396    6.5851   16.2452 C   0  0  0  0  0  0  0  0  0  0  0  0
 17 18  1  0
  1 18  1  0
  1  2  1  0
  2  3  1  0
  2  4  1  0
  4  5  1  0
  4  6  1  0
  6  7  1  0
  6  8  1  0
  8  9  1  0
  9 10  1  0
 10 20  1  0
 20 21  1  0
 21 22  1  0
 22 23  2  0
 23 24  1  0
 24 25  2  0
 25 26  1  0
 25 27  1  0
 27 28  2  0
 10 11  2  0
 11 12  1  0
 12  1  1  0
 12  8  2  0
 28 22  1  0
 17 19  1  0
  3 13  1  0
  5 14  1  0
  7 15  1  0
  9 16  1  0
M  CHG 1  12   1
M  END
> <minimizedAffinity>
-8.90919

> <CNNscore>
0.4866901934

> <CNNaffinity>
6.7300248146

> <CNN_VS>
3.2754371166

> <CNNaffinity_variance>
0.1785753965

$$$$



 28 30  0  0  0  0  0  0  0  0999 V2000
    0.1848   10.0280   10.0169 C   0  0  0  0  0  0  0  0  0  0  0  0
   -0.1961    9.7858    8.5290 C   0  0  0  0  0  0  0  0  0  0  0  0
   -0.0419    8.3985    8.2034 O   0  0  0  0  0  0  0  0  0  0  0  0
   -1.6560   10.1733    8.2108 C   0  0  0  0  0  0  0  0  0  0  0  0
   -1.7838   11.5982    8.2721 O   0  0  0  0  0  0  0  0  0  0  0  0
   -2.6784    9.5213    9.1714 C   0  0  0  0  0  0  0  0  0  0  0  0
   -3.3184    8.3733    8.6069 O   0  0  0  0  0  0  0  0  0  0  0  0
   -2.0731    9.1410   10.5030 C   0  0  0  0  0  0  0  0  0  0  0  0
   -2.6597    8.4794   11.5107 N   0  0  0  0  0  0  0  0  0  0  0  0
   -1.8001    8.3286   12.5866 C   0  0  0  0  0  0  0  0  0  0  0  0
   -0.6251    8.9228   12.1883 C   0  0  0  0  0  0  0  0  0  0  0  0
   -0.8135    9.3804   10.8971 N   0  0  0  0  0  0  0  0  0  0  0  0
   -0.6489    7.8699    8.7448 H   0  0  0  0  0  0  0  0  0  0  0  0
   -1.5790   11.9029    9.1699 H   0  0  0  0  0  0  0  0  0  0  0  0
   -2.6597    7.6775    8.4559 H   0  0  0  0  0  0  0  0  0  0  0  0
   -3.5847    8.1431   11.4889 H   0  0  0  0  0  0  0  0  0  0  0  0
    1.0783   12.1807    9.3466 O   0  0  0  0  0  0  0  0  0  0  0  0
    0.3408   11.5176   10.3778 C   0  0  0  0  0  0  0  0  0  0  0  0
    1.1775   13.1188    9.5722 H   0  0  0  0  0  0  0  0  0  0  0  0
   -2.1829    7.6468   13.8425 C   0  0  0  0  0  0  0  0  0  0  0  0
   -2.4111    6.1520   13.6212 C   0  0  0  0  0  0  0  0  0  0  0  0
   -1.4880    5.3227   14.4777 C   0  0  0  0  0  0  0  0  0  0  0  0
   -0.2019    5.7889   14.7923 C   0  0  0  0  0  0  0  0  0  0  0  0
    0.6432    5.0301   15.6034 C   0  0  0  0  0  0  0  0  0  0  0  0
    0.2035    3.8101   16.1016 C   0  0  0  0  0  0  0  0  0  0  0  0
    1.0148    3.0846   16.8812 F   0  0  0  0  0  0  0  0  0  0  0  0
   -1.0666    3.3328   15.8034 C   0  0  0  0  0  0  0  0  0  0  0  0
   -1.9147    4.0887   14.9926 C   0  0  0  0  0  0  0  0  0  0  0  0
 17 18  1  0
  1 18  1  0
  1  2  1  0
  2  3  1  0
  2  4  1  0
  4  5  1  0
  4  6  1  0
  6  7  1  0
  6  8  1  0
  8  9  1  0
  9 10  1  0
 10 20  1  0
 20 21  1  0
 21 22  1  0
 22 23  2  0
 23 24  1  0
 24 25  2  0
 25 26  1  0
 25 27  1  0
 27 28  2  0
 10 11  2  0
 11 12  1  0
 12  1  1  0
 12  8  2  0
 28 22  1  0
 17 19  1  0
  3 13  1  0
  5 14  1  0
  7 15  1  0
  9 16  1  0
M  CHG 1  12   1
M  END
> <minimizedAffinity>
-7.97961

> <CNNscore>
0.4650968015

> <CNNaffinity>
6.7748742104

> <CNN_VS>
3.1509723663

> <CNNaffinity_variance>
0.5855481029

$$$$



 28 30  0  0  0  0  0  0  0  0999 V2000
    0.1562   10.2335   10.0023 C   0  0  0  0  0  0  0  0  0  0  0  0
   -0.2805   10.0874    8.5172 C   0  0  0  0  0  0  0  0  0  0  0  0
   -0.0316    8.7511    8.0625 O   0  0  0  0  0  0  0  0  0  0  0  0
   -1.7816   10.3748    8.3004 C   0  0  0  0  0  0  0  0  0  0  0  0
   -2.0210   11.7731    8.4942 O   0  0  0  0  0  0  0  0  0  0  0  0
   -2.6966    9.5585    9.2436 C   0  0  0  0  0  0  0  0  0  0  0  0
   -3.2699    8.4124    8.6079 O   0  0  0  0  0  0  0  0  0  0  0  0
   -1.9941    9.1190   10.5075 C   0  0  0  0  0  0  0  0  0  0  0  0
   -2.4721    8.3263   11.4773 N   0  0  0  0  0  0  0  0  0  0  0  0
   -1.5485    8.1581   12.4960 C   0  0  0  0  0  0  0  0  0  0  0  0
   -0.4477    8.8821   12.1004 C   0  0  0  0  0  0  0  0  0  0  0  0
   -0.7393    9.4304   10.8648 N   0  0  0  0  0  0  0  0  0  0  0  0
   -0.5648    8.1285    8.5811 H   0  0  0  0  0  0  0  0  0  0  0  0
   -1.7952   12.0165    9.4056 H   0  0  0  0  0  0  0  0  0  0  0  0
   -2.5657    7.7907    8.3662 H   0  0  0  0  0  0  0  0  0  0  0  0
   -3.3667    7.9155   11.4668 H   0  0  0  0  0  0  0  0  0  0  0  0
    0.7201   12.5240    9.4393 O   0  0  0  0  0  0  0  0  0  0  0  0
    0.2096   11.6947   10.4875 C   0  0  0  0  0  0  0  0  0  0  0  0
    0.7544   13.4446    9.7430 H   0  0  0  0  0  0  0  0  0  0  0  0
   -1.8091    7.3416   13.7019 C   0  0  0  0  0  0  0  0  0  0  0  0
   -1.7500    5.8468   13.3895 C   0  0  0  0  0  0  0  0  0  0  0  0
   -0.4500    5.4763   12.7216 C   0  0  0  0  0  0  0  0  0  0  0  0
    0.7485    5.4759   13.4523 C   0  0  0  0  0  0  0  0  0  0  0  0
    1.9475    5.1114   12.8381 C   0  0  0  0  0  0  0  0  0  0  0  0
    1.9488    4.7451   11.4980 C   0  0  0  0  0  0  0  0  0  0  0  0
    3.0996    4.3937   10.9110 F   0  0  0  0  0  0  0  0  0  0  0  0
    0.7727    4.7370   10.7586 C   0  0  0  0  0  0  0  0  0  0  0  0
   -0.4284    5.1010   11.3693 C   0  0  0  0  0  0  0  0  0  0  0  0
 17 18  1  0
  1 18  1  0
  1  2  1  0
  2  3  1  0
  2  4  1  0
  4  5  1  0
  4  6  1  0
  6  7  1  0
  6  8  1  0
  8  9  1  0
  9 10  1  0
 10 20  1  0
 20 21  1  0
 21 22  1  0
 22 23  2  0
 23 24  1  0
 24 25  2  0
 25 26  1  0
 25 27  1  0
 27 28  2  0
 10 11  2  0
 11 12  1  0
 12  1  1  0
 12  8  2  0
 28 22  1  0
 17 19  1  0
  3 13  1  0
  5 14  1  0
  7 15  1  0
  9 16  1  0
M  CHG 1  12   1
M  END
> <minimizedAffinity>
-8.19955

> <CNNscore>
0.4553079903

> <CNNaffinity>
6.6698698997

> <CNN_VS>
3.0368449688

> <CNNaffinity_variance>
0.2329148501

$$$$



 28 30  0  0  0  0  0  0  0  0999 V2000
   -0.8285    9.2855    8.7845 C   0  0  0  0  0  0  0  0  0  0  0  0
   -1.9670    9.9696    9.5929 C   0  0  0  0  0  0  0  0  0  0  0  0
   -3.1567    9.1723    9.5344 O   0  0  0  0  0  0  0  0  0  0  0  0
   -1.6148   10.1615   11.0835 C   0  0  0  0  0  0  0  0  0  0  0  0
   -0.5945   11.1596   11.1965 O   0  0  0  0  0  0  0  0  0  0  0  0
   -1.1393    8.8572   11.7660 C   0  0  0  0  0  0  0  0  0  0  0  0
   -2.1654    8.2274   12.5383 O   0  0  0  0  0  0  0  0  0  0  0  0
   -0.5761    7.8536   10.7862 C   0  0  0  0  0  0  0  0  0  0  0  0
   -0.1692    6.6015   11.0388 N   0  0  0  0  0  0  0  0  0  0  0  0
    0.3085    5.9832    9.8948 C   0  0  0  0  0  0  0  0  0  0  0  0
    0.1619    6.9193    8.8976 C   0  0  0  0  0  0  0  0  0  0  0  0
   -0.4126    8.0403    9.4681 N   0  0  0  0  0  0  0  0  0  0  0  0
   -2.9891    8.3107    9.9473 H   0  0  0  0  0  0  0  0  0  0  0  0
    0.2036   10.8600   10.7336 H   0  0  0  0  0  0  0  0  0  0  0  0
   -2.8812    7.9387   11.9507 H   0  0  0  0  0  0  0  0  0  0  0  0
   -0.2053    6.1751   11.9254 H   0  0  0  0  0  0  0  0  0  0  0  0
   -0.0564   11.4289    7.9532 O   0  0  0  0  0  0  0  0  0  0  0  0
    0.3863   10.2001    8.5371 C   0  0  0  0  0  0  0  0  0  0  0  0
    0.7073   12.0062    7.7967 H   0  0  0  0  0  0  0  0  0  0  0  0
    0.8343    4.6004    9.8783 C   0  0  0  0  0  0  0  0  0  0  0  0
    0.7970    3.9704   11.2702 C   0  0  0  0  0  0  0  0  0  0  0  0
    1.6704    2.7435   11.3413 C   0  0  0  0  0  0  0  0  0  0  0  0
    2.0630    2.2229   12.5845 C   0  0  0  0  0  0  0  0  0  0  0  0
    2.8532    1.0743   12.6490 C   0  0  0  0  0  0  0  0  0  0  0  0
    3.2477    0.4455   11.4748 C   0  0  0  0  0  0  0  0  0  0  0  0
    4.0040   -0.6573   11.5387 F   0  0  0  0  0  0  0  0  0  0  0  0
    2.8675    0.9441   10.2351 C   0  0  0  0  0  0  0  0  0  0  0  0
    2.0773    2.0925   10.1664 C   0  0  0  0  0  0  0  0  0  0  0  0
 17 18  1  0
  1 18  1  0
  1  2  1  0
  2  3  1  0
  2  4  1  0
  4  5  1  0
  4  6  1  0
  6  7  1  0
  6  8  1  0
  8  9  1  0
  9 10  1  0
 10 20  1  0
 20 21  1  0
 21 22  1  0
 22 23  2  0
 23 24  1  0
 24 25  2  0
 25 26  1  0
 25 27  1  0
 27 28  2  0
 10 11  2  0
 11 12  1  0
 12  1  1  0
 12  8  2  0
 28 22  1  0
 17 19  1  0
  3 13  1  0
  5 14  1  0
  7 15  1  0
  9 16  1  0
M  CHG 1  12   1
M  END
> <minimizedAffinity>
-7.52422

> <CNNscore>
0.2835921943

> <CNNaffinity>
5.9854054451

> <CNN_VS>
1.6974142790

> <CNNaffinity_variance>
0.1821650714

$$$$



 28 30  0  0  0  0  0  0  0  0999 V2000
   -0.6486    7.4346    9.4451 C   0  0  0  0  0  0  0  0  0  0  0  0
   -1.4556    8.6835    8.9904 C   0  0  0  0  0  0  0  0  0  0  0  0
   -2.7205    8.7212    9.6635 O   0  0  0  0  0  0  0  0  0  0  0  0
   -0.7317   10.0119    9.2971 C   0  0  0  0  0  0  0  0  0  0  0  0
    0.4107   10.1283    8.4417 O   0  0  0  0  0  0  0  0  0  0  0  0
   -0.2857   10.1314   10.7736 C   0  0  0  0  0  0  0  0  0  0  0  0
   -1.1704   10.9359   11.5585 O   0  0  0  0  0  0  0  0  0  0  0  0
   -0.1160    8.7886   11.4461 C   0  0  0  0  0  0  0  0  0  0  0  0
    0.1673    8.5472   12.7340 N   0  0  0  0  0  0  0  0  0  0  0  0
    0.2672    7.1885   12.9851 C   0  0  0  0  0  0  0  0  0  0  0  0
    0.0117    6.5842   11.7760 C   0  0  0  0  0  0  0  0  0  0  0  0
   -0.2518    7.5884   10.8627 N   0  0  0  0  0  0  0  0  0  0  0  0
   -2.5759    8.8050   10.6190 H   0  0  0  0  0  0  0  0  0  0  0  0
    1.0256    9.4003    8.6227 H   0  0  0  0  0  0  0  0  0  0  0  0
   -2.0390   10.5069   11.6085 H   0  0  0  0  0  0  0  0  0  0  0  0
    0.2890    9.2473   13.4154 H   0  0  0  0  0  0  0  0  0  0  0  0
    0.4169    5.8759    7.9230 O   0  0  0  0  0  0  0  0  0  0  0  0
    0.5824    7.1434    8.5658 C   0  0  0  0  0  0  0  0  0  0  0  0
    1.1912    5.6908    7.3688 H   0  0  0  0  0  0  0  0  0  0  0  0
    0.5822    6.6301   14.3184 C   0  0  0  0  0  0  0  0  0  0  0  0
   -0.5670    6.8470   15.3022 C   0  0  0  0  0  0  0  0  0  0  0  0
   -1.6553    5.8213   15.1102 C   0  0  0  0  0  0  0  0  0  0  0  0
   -2.9072    6.2015   14.6016 C   0  0  0  0  0  0  0  0  0  0  0  0
   -3.9062    5.2472   14.4038 C   0  0  0  0  0  0  0  0  0  0  0  0
   -3.6542    3.9159   14.7105 C   0  0  0  0  0  0  0  0  0  0  0  0
   -4.6131    3.0015   14.5181 F   0  0  0  0  0  0  0  0  0  0  0  0
   -2.4211    3.5196   15.2126 C   0  0  0  0  0  0  0  0  0  0  0  0
   -1.4195    4.4710   15.4118 C   0  0  0  0  0  0  0  0  0  0  0  0
 17 18  1  0
  1 18  1  0
  1  2  1  0
  2  3  1  0
  2  4  1  0
  4  5  1  0
  4  6  1  0
  6  7  1  0
  6  8  1  0
  8  9  1  0
  9 10  1  0
 10 20  1  0
 20 21  1  0
 21 22  1  0
 22 23  2  0
 23 24  1  0
 24 25  2  0
 25 26  1  0
 25 27  1  0
 27 28  2  0
 10 11  2  0
 11 12  1  0
 12  1  1  0
 12  8  2  0
 28 22  1  0
 17 19  1  0
  3 13  1  0
  5 14  1  0
  7 15  1  0
  9 16  1  0
M  CHG 1  12   1
M  END
> <minimizedAffinity>
-8.04379

> <CNNscore>
0.2597873509

> <CNNaffinity>
6.1055083275

> <CNN_VS>
1.5861338377

> <CNNaffinity_variance>
0.0712206736

$$$$
