


 28 27  0  0  0  0  0  0  0  0999 V2000
   -5.8615    5.0582   18.1105 C   0  0  0  0  0  0  0  0  0  0  0  0
   -4.8798    4.1716   18.8760 C   0  0  0  0  0  0  0  0  0  0  0  0
   -5.4828    3.1786   19.8794 C   0  0  0  0  0  0  0  0  0  0  0  0
   -5.2793    1.6138   19.6220 N   0  0  0  0  0  0  0  0  0  0  0  0
   -6.6208    0.9376   19.8808 C   0  0  0  0  0  0  0  0  0  0  0  0
   -4.8931    1.4135   18.1504 C   0  0  0  0  0  0  0  0  0  0  0  0
   -4.1521    1.2114   20.5864 C   0  0  0  0  0  0  0  0  0  0  0  0
   -4.3271    0.2586   21.7525 N   0  0  0  0  0  0  0  0  0  0  0  0
   -4.5974   -1.1883   21.3807 C   0  0  0  0  0  0  0  0  0  0  0  0
   -5.5246    0.7066   22.6521 C   0  0  0  0  0  0  0  0  0  0  0  0
   -3.1313    0.3512   22.7510 C   0  0  0  0  0  0  0  0  0  0  0  0
   -1.8842   -0.5057   22.6412 N   0  0  0  0  0  0  0  0  0  0  0  0
   -0.8512    0.1312   23.6592 C   0  0  0  0  0  0  0  0  0  0  0  0
   -1.9888   -1.9632   23.0627 C   0  0  0  0  0  0  0  0  0  0  0  0
   -1.1627   -0.4071   21.2860 C   0  0  0  0  0  0  0  0  0  0  0  0
   -5.8259    6.5028   18.6206 C   0  0  0  0  0  0  0  0  0  0  0  0
   -4.6558    6.7750   19.5705 C   0  0  0  0  0  0  0  0  0  0  0  0
   -3.6135    7.7785   19.0666 C   0  0  0  0  0  0  0  0  0  0  0  0
   -2.8688    8.5675   20.1492 C   0  0  0  0  0  0  0  0  0  0  0  0
   -2.9799   10.0842   19.9721 C   0  0  0  0  0  0  0  0  0  0  0  0
   -1.6226   10.7931   19.8941 C   0  0  0  0  0  0  0  0  0  0  0  0
   -1.7410   12.3192   19.8751 C   0  0  0  0  0  0  0  0  0  0  0  0
   -2.8503   12.8348   18.9512 C   0  0  0  0  0  0  0  0  0  0  0  0
   -2.7349   14.2998   18.5187 C   0  0  0  0  0  0  0  0  0  0  0  0
   -4.0462   14.9759   18.1037 C   0  0  0  0  0  0  0  0  0  0  0  0
   -3.8481   16.1341   17.1218 C   0  0  0  0  0  0  0  0  0  0  0  0
   -4.2581   18.6373   16.8452 C   0  0  0  0  0  0  0  0  0  0  0  0
   -3.8919   17.5080   17.7963 C   0  0  0  0  0  0  0  0  0  0  0  0
 27 28  1  0
 28 26  1  0
 26 25  1  0
 25 24  1  0
 24 23  1  0
 23 22  1  0
 22 21  1  0
 21 20  1  0
 20 19  1  0
 19 18  1  0
 18 17  1  0
 17 16  1  0
 16  1  1  0
  1  2  1  0
  2  3  1  0
  3  4  1  0
  4  5  1  0
  4  6  1  0
  4  7  1  0
  7  8  1  0
  8  9  1  0
  8 10  1  0
  8 11  1  0
 11 12  1  0
 12 13  1  0
 12 14  1  0
 12 15  1  0
M  CHG 1   4   1
M  CHG 1   8   1
M  CHG 1  12   1
M  END
> <minimizedAffinity>
-5.39938

> <CNNscore>
0.7221826315

> <CNNaffinity>
6.1507363319

> <CNN_VS>
4.4419550896

> <CNNaffinity_variance>
0.4852148592

$$$$



 28 27  0  0  0  0  0  0  0  0999 V2000
   -2.9123    8.9068   19.8959 C   0  0  0  0  0  0  0  0  0  0  0  0
   -2.6683    7.5867   20.6262 C   0  0  0  0  0  0  0  0  0  0  0  0
   -2.0363    6.4512   19.8092 C   0  0  0  0  0  0  0  0  0  0  0  0
   -2.6372    4.9770   19.9577 N   0  0  0  0  0  0  0  0  0  0  0  0
   -1.4566    4.0217   20.0891 C   0  0  0  0  0  0  0  0  0  0  0  0
   -3.4704    4.9235   21.2452 C   0  0  0  0  0  0  0  0  0  0  0  0
   -3.4919    4.7839   18.6949 C   0  0  0  0  0  0  0  0  0  0  0  0
   -4.7009    3.8728   18.6145 N   0  0  0  0  0  0  0  0  0  0  0  0
   -4.7956    3.0199   17.3622 C   0  0  0  0  0  0  0  0  0  0  0  0
   -6.0215    4.7075   18.6722 C   0  0  0  0  0  0  0  0  0  0  0  0
   -4.8337    2.9848   19.8910 C   0  0  0  0  0  0  0  0  0  0  0  0
   -6.1672    2.5730   20.4859 N   0  0  0  0  0  0  0  0  0  0  0  0
   -5.8144    1.9227   21.8865 C   0  0  0  0  0  0  0  0  0  0  0  0
   -7.1644    3.6733   20.8143 C   0  0  0  0  0  0  0  0  0  0  0  0
   -6.8770    1.4370   19.7292 C   0  0  0  0  0  0  0  0  0  0  0  0
   -1.7193    9.8572   20.0438 C   0  0  0  0  0  0  0  0  0  0  0  0
   -2.0801   11.3201   19.7697 C   0  0  0  0  0  0  0  0  0  0  0  0
   -3.3829   11.5472   18.9961 C   0  0  0  0  0  0  0  0  0  0  0  0
   -3.7948   13.0100   18.7973 C   0  0  0  0  0  0  0  0  0  0  0  0
   -2.6012   13.9650   18.7116 C   0  0  0  0  0  0  0  0  0  0  0  0
   -2.8490   15.1757   17.8041 C   0  0  0  0  0  0  0  0  0  0  0  0
   -2.7854   16.5105   18.5509 C   0  0  0  0  0  0  0  0  0  0  0  0
   -3.7571   17.5631   18.0051 C   0  0  0  0  0  0  0  0  0  0  0  0
   -4.7134   17.0866   16.9073 C   0  0  0  0  0  0  0  0  0  0  0  0
   -5.3013   18.1851   16.0149 C   0  0  0  0  0  0  0  0  0  0  0  0
   -4.3283   19.3372   15.7491 C   0  0  0  0  0  0  0  0  0  0  0  0
   -5.1965   19.5102   13.3559 C   0  0  0  0  0  0  0  0  0  0  0  0
   -4.7836   20.2588   14.6142 C   0  0  0  0  0  0  0  0  0  0  0  0
 27 28  1  0
 28 26  1  0
 26 25  1  0
 25 24  1  0
 24 23  1  0
 23 22  1  0
 22 21  1  0
 21 20  1  0
 20 19  1  0
 19 18  1  0
 18 17  1  0
 17 16  1  0
 16  1  1  0
  1  2  1  0
  2  3  1  0
  3  4  1  0
  4  5  1  0
  4  6  1  0
  4  7  1  0
  7  8  1  0
  8  9  1  0
  8 10  1  0
  8 11  1  0
 11 12  1  0
 12 13  1  0
 12 14  1  0
 12 15  1  0
M  CHG 1   4   1
M  CHG 1   8   1
M  CHG 1  12   1
M  END
> <minimizedAffinity>
-6.25546

> <CNNscore>
0.6588908434

> <CNNaffinity>
6.4136719704

> <CNN_VS>
4.2259097099

> <CNNaffinity_variance>
1.3293061256

$$$$



 28 27  0  0  0  0  0  0  0  0999 V2000
   -3.2669    8.6276   19.9979 C   0  0  0  0  0  0  0  0  0  0  0  0
   -2.1990    7.5683   20.2680 C   0  0  0  0  0  0  0  0  0  0  0  0
   -2.3455    6.2335   19.5242 C   0  0  0  0  0  0  0  0  0  0  0  0
   -1.1814    5.1470   19.6679 N   0  0  0  0  0  0  0  0  0  0  0  0
   -1.1160    4.3816   18.3513 C   0  0  0  0  0  0  0  0  0  0  0  0
    0.1453    5.8875   19.8832 C   0  0  0  0  0  0  0  0  0  0  0  0
   -1.5914    4.3070   20.8881 C   0  0  0  0  0  0  0  0  0  0  0  0
   -2.8551    3.4729   20.9636 N   0  0  0  0  0  0  0  0  0  0  0  0
   -4.1480    4.2551   21.1087 C   0  0  0  0  0  0  0  0  0  0  0  0
   -2.7974    2.4991   22.1853 C   0  0  0  0  0  0  0  0  0  0  0  0
   -2.9529    2.4737   19.7688 C   0  0  0  0  0  0  0  0  0  0  0  0
   -4.1327    2.4250   18.8162 N   0  0  0  0  0  0  0  0  0  0  0  0
   -5.2405    1.5795   19.5693 C   0  0  0  0  0  0  0  0  0  0  0  0
   -4.8194    3.7382   18.4741 C   0  0  0  0  0  0  0  0  0  0  0  0
   -3.8779    1.6211   17.5295 C   0  0  0  0  0  0  0  0  0  0  0  0
   -2.6638   10.0361   19.9705 C   0  0  0  0  0  0  0  0  0  0  0  0
   -3.1925   10.8928   18.8162 C   0  0  0  0  0  0  0  0  0  0  0  0
   -4.0385   12.1034   19.2235 C   0  0  0  0  0  0  0  0  0  0  0  0
   -3.7061   13.4196   18.5121 C   0  0  0  0  0  0  0  0  0  0  0  0
   -2.3674   14.0194   18.9507 C   0  0  0  0  0  0  0  0  0  0  0  0
   -2.2618   15.5288   18.7034 C   0  0  0  0  0  0  0  0  0  0  0  0
   -3.5283   16.1275   18.0861 C   0  0  0  0  0  0  0  0  0  0  0  0
   -3.5973   17.6552   18.1933 C   0  0  0  0  0  0  0  0  0  0  0  0
   -4.8157   18.3180   17.5431 C   0  0  0  0  0  0  0  0  0  0  0  0
   -4.8217   18.3403   16.0107 C   0  0  0  0  0  0  0  0  0  0  0  0
   -4.1801   19.5987   15.4192 C   0  0  0  0  0  0  0  0  0  0  0  0
   -5.3079   19.9791   13.1621 C   0  0  0  0  0  0  0  0  0  0  0  0
   -5.1599   20.4456   14.6024 C   0  0  0  0  0  0  0  0  0  0  0  0
 27 28  1  0
 28 26  1  0
 26 25  1  0
 25 24  1  0
 24 23  1  0
 23 22  1  0
 22 21  1  0
 21 20  1  0
 20 19  1  0
 19 18  1  0
 18 17  1  0
 17 16  1  0
 16  1  1  0
  1  2  1  0
  2  3  1  0
  3  4  1  0
  4  5  1  0
  4  6  1  0
  4  7  1  0
  7  8  1  0
  8  9  1  0
  8 10  1  0
  8 11  1  0
 11 12  1  0
 12 13  1  0
 12 14  1  0
 12 15  1  0
M  CHG 1   4   1
M  CHG 1   8   1
M  CHG 1  12   1
M  END
> <minimizedAffinity>
-6.49657

> <CNNscore>
0.6580604315

> <CNNaffinity>
6.2308897972

> <CNN_VS>
4.1003022194

> <CNNaffinity_variance>
1.6480607986

$$$$



 28 27  0  0  0  0  0  0  0  0999 V2000
   -5.9976    5.1445   18.1236 C   0  0  0  0  0  0  0  0  0  0  0  0
   -5.5599    4.2761   19.3025 C   0  0  0  0  0  0  0  0  0  0  0  0
   -6.6714    3.7314   20.2103 C   0  0  0  0  0  0  0  0  0  0  0  0
   -6.9251    2.1532   20.2447 N   0  0  0  0  0  0  0  0  0  0  0  0
   -7.2895    1.7256   18.8275 C   0  0  0  0  0  0  0  0  0  0  0  0
   -5.6172    1.4634   20.6551 C   0  0  0  0  0  0  0  0  0  0  0  0
   -8.0402    1.9681   21.2862 C   0  0  0  0  0  0  0  0  0  0  0  0
   -9.4242    1.4370   20.9686 N   0  0  0  0  0  0  0  0  0  0  0  0
   -9.4746    0.0129   20.4449 C   0  0  0  0  0  0  0  0  0  0  0  0
  -10.1161    2.3236   19.8826 C   0  0  0  0  0  0  0  0  0  0  0  0
  -10.3940    1.6079   22.1793 C   0  0  0  0  0  0  0  0  0  0  0  0
  -10.3550    0.7229   23.4110 N   0  0  0  0  0  0  0  0  0  0  0  0
  -11.6962   -0.1183   23.3611 C   0  0  0  0  0  0  0  0  0  0  0  0
   -9.2513   -0.3199   23.4974 C   0  0  0  0  0  0  0  0  0  0  0  0
  -10.4560    1.4843   24.7440 C   0  0  0  0  0  0  0  0  0  0  0  0
   -5.7459    6.6308   18.3995 C   0  0  0  0  0  0  0  0  0  0  0  0
   -4.7839    6.8697   19.5670 C   0  0  0  0  0  0  0  0  0  0  0  0
   -3.4819    7.5960   19.2143 C   0  0  0  0  0  0  0  0  0  0  0  0
   -2.9032    8.4984   20.3096 C   0  0  0  0  0  0  0  0  0  0  0  0
   -2.9293    9.9843   19.9414 C   0  0  0  0  0  0  0  0  0  0  0  0
   -1.5480   10.6488   19.9773 C   0  0  0  0  0  0  0  0  0  0  0  0
   -1.6137   12.1771   19.9168 C   0  0  0  0  0  0  0  0  0  0  0  0
   -2.7085   12.7053   18.9828 C   0  0  0  0  0  0  0  0  0  0  0  0
   -2.6230   14.1923   18.6243 C   0  0  0  0  0  0  0  0  0  0  0  0
   -3.9281   14.8364   18.1440 C   0  0  0  0  0  0  0  0  0  0  0  0
   -3.7103   15.9855   17.1556 C   0  0  0  0  0  0  0  0  0  0  0  0
   -4.9518   18.2141   17.1005 C   0  0  0  0  0  0  0  0  0  0  0  0
   -3.8931   17.3670   17.7901 C   0  0  0  0  0  0  0  0  0  0  0  0
 27 28  1  0
 28 26  1  0
 26 25  1  0
 25 24  1  0
 24 23  1  0
 23 22  1  0
 22 21  1  0
 21 20  1  0
 20 19  1  0
 19 18  1  0
 18 17  1  0
 17 16  1  0
 16  1  1  0
  1  2  1  0
  2  3  1  0
  3  4  1  0
  4  5  1  0
  4  6  1  0
  4  7  1  0
  7  8  1  0
  8  9  1  0
  8 10  1  0
  8 11  1  0
 11 12  1  0
 12 13  1  0
 12 14  1  0
 12 15  1  0
M  CHG 1   4   1
M  CHG 1   8   1
M  CHG 1  12   1
M  END
> <minimizedAffinity>
-5.84147

> <CNNscore>
0.6270334125

> <CNNaffinity>
6.3391766548

> <CNN_VS>
3.9748756886

> <CNNaffinity_variance>
0.3206568658

$$$$



 28 27  0  0  0  0  0  0  0  0999 V2000
   -5.2528    7.4245   19.8853 C   0  0  0  0  0  0  0  0  0  0  0  0
   -6.1068    6.2147   19.5078 C   0  0  0  0  0  0  0  0  0  0  0  0
   -5.5786    4.8366   19.9301 C   0  0  0  0  0  0  0  0  0  0  0  0
   -5.5898    3.6521   18.8563 N   0  0  0  0  0  0  0  0  0  0  0  0
   -7.0410    3.2203   18.6788 C   0  0  0  0  0  0  0  0  0  0  0  0
   -5.0651    4.2040   17.5241 C   0  0  0  0  0  0  0  0  0  0  0  0
   -4.6627    2.5833   19.4567 C   0  0  0  0  0  0  0  0  0  0  0  0
   -3.2457    2.3215   18.9859 N   0  0  0  0  0  0  0  0  0  0  0  0
   -2.4273    3.5565   18.6547 C   0  0  0  0  0  0  0  0  0  0  0  0
   -3.2509    1.4442   17.6919 C   0  0  0  0  0  0  0  0  0  0  0  0
   -2.4714    1.4054   19.9843 C   0  0  0  0  0  0  0  0  0  0  0  0
   -2.1353    1.8168   21.4054 N   0  0  0  0  0  0  0  0  0  0  0  0
   -2.0522    3.3982   21.3718 C   0  0  0  0  0  0  0  0  0  0  0  0
   -3.1560    1.5095   22.4902 C   0  0  0  0  0  0  0  0  0  0  0  0
   -0.7334    1.3917   21.8754 C   0  0  0  0  0  0  0  0  0  0  0  0
   -3.7581    7.0887   19.8462 C   0  0  0  0  0  0  0  0  0  0  0  0
   -2.8864    8.1531   20.5191 C   0  0  0  0  0  0  0  0  0  0  0  0
   -2.9942    9.5646   19.9332 C   0  0  0  0  0  0  0  0  0  0  0  0
   -1.7115   10.4026   19.9708 C   0  0  0  0  0  0  0  0  0  0  0  0
   -1.9381   11.8674   19.5872 C   0  0  0  0  0  0  0  0  0  0  0  0
   -3.2134   12.0958   18.7673 C   0  0  0  0  0  0  0  0  0  0  0  0
   -3.5266   13.5773   18.5420 C   0  0  0  0  0  0  0  0  0  0  0  0
   -2.3151   14.4953   18.7409 C   0  0  0  0  0  0  0  0  0  0  0  0
   -2.5977   15.9997   18.6808 C   0  0  0  0  0  0  0  0  0  0  0  0
   -3.3997   16.4775   17.4653 C   0  0  0  0  0  0  0  0  0  0  0  0
   -4.3028   17.6768   17.7669 C   0  0  0  0  0  0  0  0  0  0  0  0
   -4.2660   19.3289   15.8226 C   0  0  0  0  0  0  0  0  0  0  0  0
   -5.0233   18.2134   16.5269 C   0  0  0  0  0  0  0  0  0  0  0  0
 27 28  1  0
 28 26  1  0
 26 25  1  0
 25 24  1  0
 24 23  1  0
 23 22  1  0
 22 21  1  0
 21 20  1  0
 20 19  1  0
 19 18  1  0
 18 17  1  0
 17 16  1  0
 16  1  1  0
  1  2  1  0
  2  3  1  0
  3  4  1  0
  4  5  1  0
  4  6  1  0
  4  7  1  0
  7  8  1  0
  8  9  1  0
  8 10  1  0
  8 11  1  0
 11 12  1  0
 12 13  1  0
 12 14  1  0
 12 15  1  0
M  CHG 1   4   1
M  CHG 1   8   1
M  CHG 1  12   1
M  END
> <minimizedAffinity>
-6.10659

> <CNNscore>
0.5921144485

> <CNNaffinity>
6.2700257301

> <CNN_VS>
3.7125728130

> <CNNaffinity_variance>
0.8976450562

$$$$



 28 27  0  0  0  0  0  0  0  0999 V2000
   -0.5173    3.6388   17.9437 C   0  0  0  0  0  0  0  0  0  0  0  0
   -1.4592    3.0037   16.9215 C   0  0  0  0  0  0  0  0  0  0  0  0
   -1.8415    1.5351   17.1525 C   0  0  0  0  0  0  0  0  0  0  0  0
   -1.1986    0.4200   16.2040 N   0  0  0  0  0  0  0  0  0  0  0  0
    0.2341    0.2002   16.6760 C   0  0  0  0  0  0  0  0  0  0  0  0
   -1.9908   -0.8817   16.3846 C   0  0  0  0  0  0  0  0  0  0  0  0
   -1.3340    0.9997   14.7869 C   0  0  0  0  0  0  0  0  0  0  0  0
   -0.6160    0.4519   13.5692 N   0  0  0  0  0  0  0  0  0  0  0  0
   -1.2845    0.7301   12.2349 C   0  0  0  0  0  0  0  0  0  0  0  0
   -0.4749   -1.1019   13.6684 C   0  0  0  0  0  0  0  0  0  0  0  0
    0.8779    0.9022   13.5355 C   0  0  0  0  0  0  0  0  0  0  0  0
    1.3101    2.3505   13.4036 N   0  0  0  0  0  0  0  0  0  0  0  0
    2.7880    2.2932   12.8366 C   0  0  0  0  0  0  0  0  0  0  0  0
    0.5543    3.2264   12.4164 C   0  0  0  0  0  0  0  0  0  0  0  0
    1.4659    3.0916   14.7428 C   0  0  0  0  0  0  0  0  0  0  0  0
   -1.2496    3.9731   19.2476 C   0  0  0  0  0  0  0  0  0  0  0  0
   -2.5724    4.7109   19.0206 C   0  0  0  0  0  0  0  0  0  0  0  0
   -2.4985    6.2396   19.0907 C   0  0  0  0  0  0  0  0  0  0  0  0
   -3.8011    6.9856   18.7813 C   0  0  0  0  0  0  0  0  0  0  0  0
   -3.8757    8.3653   19.4409 C   0  0  0  0  0  0  0  0  0  0  0  0
   -2.6611    8.6917   20.3178 C   0  0  0  0  0  0  0  0  0  0  0  0
   -1.9263    9.9612   19.8797 C   0  0  0  0  0  0  0  0  0  0  0  0
   -2.8288   11.1988   19.8163 C   0  0  0  0  0  0  0  0  0  0  0  0
   -3.1002   11.7588   18.4165 C   0  0  0  0  0  0  0  0  0  0  0  0
   -4.0349   12.9717   18.3554 C   0  0  0  0  0  0  0  0  0  0  0  0
   -3.2973   14.3114   18.4335 C   0  0  0  0  0  0  0  0  0  0  0  0
   -3.5345   16.4576   17.0738 C   0  0  0  0  0  0  0  0  0  0  0  0
   -4.1821   15.5068   18.0691 C   0  0  0  0  0  0  0  0  0  0  0  0
 27 28  1  0
 28 26  1  0
 26 25  1  0
 25 24  1  0
 24 23  1  0
 23 22  1  0
 22 21  1  0
 21 20  1  0
 20 19  1  0
 19 18  1  0
 18 17  1  0
 17 16  1  0
 16  1  1  0
  1  2  1  0
  2  3  1  0
  3  4  1  0
  4  5  1  0
  4  6  1  0
  4  7  1  0
  7  8  1  0
  8  9  1  0
  8 10  1  0
  8 11  1  0
 11 12  1  0
 12 13  1  0
 12 14  1  0
 12 15  1  0
M  CHG 1   4   1
M  CHG 1   8   1
M  CHG 1  12   1
M  END
> <minimizedAffinity>
-4.64062

> <CNNscore>
0.5907559991

> <CNNaffinity>
6.1743569374

> <CNN_VS>
3.6475384235

> <CNNaffinity_variance>
0.4782465398

$$$$



 28 27  0  0  0  0  0  0  0  0999 V2000
   -5.7924    5.2521   18.1676 C   0  0  0  0  0  0  0  0  0  0  0  0
   -4.8463    4.2916   18.8872 C   0  0  0  0  0  0  0  0  0  0  0  0
   -5.4914    3.2423   19.8032 C   0  0  0  0  0  0  0  0  0  0  0  0
   -5.3151    1.6961   19.4365 N   0  0  0  0  0  0  0  0  0  0  0  0
   -6.2904    1.3883   18.3061 C   0  0  0  0  0  0  0  0  0  0  0  0
   -3.8814    1.4802   18.9337 C   0  0  0  0  0  0  0  0  0  0  0  0
   -5.5942    0.9566   20.7547 C   0  0  0  0  0  0  0  0  0  0  0  0
   -6.9415    0.9304   21.4493 N   0  0  0  0  0  0  0  0  0  0  0  0
   -6.8955    0.8322   22.9635 C   0  0  0  0  0  0  0  0  0  0  0  0
   -7.7869   -0.2904   20.9606 C   0  0  0  0  0  0  0  0  0  0  0  0
   -7.8362    2.1302   21.0071 C   0  0  0  0  0  0  0  0  0  0  0  0
   -9.0126    2.6377   21.8196 N   0  0  0  0  0  0  0  0  0  0  0  0
   -8.9165    4.2172   21.7484 C   0  0  0  0  0  0  0  0  0  0  0  0
  -10.4110    2.3156   21.3158 C   0  0  0  0  0  0  0  0  0  0  0  0
   -8.9210    2.3382   23.3259 C   0  0  0  0  0  0  0  0  0  0  0  0
   -5.7592    6.6482   18.7987 C   0  0  0  0  0  0  0  0  0  0  0  0
   -4.5197    6.8849   19.6666 C   0  0  0  0  0  0  0  0  0  0  0  0
   -3.6097    8.0345   19.2221 C   0  0  0  0  0  0  0  0  0  0  0  0
   -2.8601    8.7638   20.3425 C   0  0  0  0  0  0  0  0  0  0  0  0
   -2.9400   10.2884   20.2268 C   0  0  0  0  0  0  0  0  0  0  0  0
   -1.9700   10.8763   19.1951 C   0  0  0  0  0  0  0  0  0  0  0  0
   -1.4900   12.2847   19.5548 C   0  0  0  0  0  0  0  0  0  0  0  0
   -2.6204   13.3182   19.6180 C   0  0  0  0  0  0  0  0  0  0  0  0
   -3.5455   13.3746   18.3983 C   0  0  0  0  0  0  0  0  0  0  0  0
   -4.1286   14.7531   18.0692 C   0  0  0  0  0  0  0  0  0  0  0  0
   -3.0633   15.7939   17.7130 C   0  0  0  0  0  0  0  0  0  0  0  0
   -4.2536   17.9852   17.1723 C   0  0  0  0  0  0  0  0  0  0  0  0
   -3.4230   17.2066   18.1812 C   0  0  0  0  0  0  0  0  0  0  0  0
 27 28  1  0
 28 26  1  0
 26 25  1  0
 25 24  1  0
 24 23  1  0
 23 22  1  0
 22 21  1  0
 21 20  1  0
 20 19  1  0
 19 18  1  0
 18 17  1  0
 17 16  1  0
 16  1  1  0
  1  2  1  0
  2  3  1  0
  3  4  1  0
  4  5  1  0
  4  6  1  0
  4  7  1  0
  7  8  1  0
  8  9  1  0
  8 10  1  0
  8 11  1  0
 11 12  1  0
 12 13  1  0
 12 14  1  0
 12 15  1  0
M  CHG 1   4   1
M  CHG 1   8   1
M  CHG 1  12   1
M  END
> <minimizedAffinity>
-5.37654

> <CNNscore>
0.5860504508

> <CNNaffinity>
6.2211537361

> <CNN_VS>
3.6459100246

> <CNNaffinity_variance>
0.6844289303

$$$$



 28 27  0  0  0  0  0  0  0  0999 V2000
   -0.1069    5.1626   18.8972 C   0  0  0  0  0  0  0  0  0  0  0  0
   -0.8291    3.8278   18.7172 C   0  0  0  0  0  0  0  0  0  0  0  0
   -1.9539    3.5107   19.7125 C   0  0  0  0  0  0  0  0  0  0  0  0
   -3.3689    3.0350   19.1400 N   0  0  0  0  0  0  0  0  0  0  0  0
   -4.3695    4.1469   19.4339 C   0  0  0  0  0  0  0  0  0  0  0  0
   -3.2416    2.8646   17.6202 C   0  0  0  0  0  0  0  0  0  0  0  0
   -3.6450    1.7055   19.8602 C   0  0  0  0  0  0  0  0  0  0  0  0
   -5.0250    1.2248   20.2640 N   0  0  0  0  0  0  0  0  0  0  0  0
   -5.0551    0.1305   21.3157 C   0  0  0  0  0  0  0  0  0  0  0  0
   -5.7925    0.6579   19.0255 C   0  0  0  0  0  0  0  0  0  0  0  0
   -5.9436    2.4135   20.6867 C   0  0  0  0  0  0  0  0  0  0  0  0
   -7.4565    2.3782   20.5784 N   0  0  0  0  0  0  0  0  0  0  0  0
   -7.9564    3.6897   21.3128 C   0  0  0  0  0  0  0  0  0  0  0  0
   -8.0677    2.4606   19.1882 C   0  0  0  0  0  0  0  0  0  0  0  0
   -8.1242    1.2428   21.3733 C   0  0  0  0  0  0  0  0  0  0  0  0
   -0.3780    5.7637   20.2804 C   0  0  0  0  0  0  0  0  0  0  0  0
   -1.6161    6.6647   20.3108 C   0  0  0  0  0  0  0  0  0  0  0  0
   -1.3664    8.1440   19.9997 C   0  0  0  0  0  0  0  0  0  0  0  0
   -2.5911    9.0610   20.0903 C   0  0  0  0  0  0  0  0  0  0  0  0
   -2.2439   10.5449   19.9437 C   0  0  0  0  0  0  0  0  0  0  0  0
   -3.3973   11.3927   19.3943 C   0  0  0  0  0  0  0  0  0  0  0  0
   -2.9225   12.6051   18.5892 C   0  0  0  0  0  0  0  0  0  0  0  0
   -4.0352   13.6182   18.2966 C   0  0  0  0  0  0  0  0  0  0  0  0
   -3.5967   14.9143   17.6075 C   0  0  0  0  0  0  0  0  0  0  0  0
   -2.9501   15.9648   18.5170 C   0  0  0  0  0  0  0  0  0  0  0  0
   -3.2955   17.4039   18.1235 C   0  0  0  0  0  0  0  0  0  0  0  0
   -4.4493   18.8916   16.4012 C   0  0  0  0  0  0  0  0  0  0  0  0
   -4.2925   17.4872   16.9644 C   0  0  0  0  0  0  0  0  0  0  0  0
 27 28  1  0
 28 26  1  0
 26 25  1  0
 25 24  1  0
 24 23  1  0
 23 22  1  0
 22 21  1  0
 21 20  1  0
 20 19  1  0
 19 18  1  0
 18 17  1  0
 17 16  1  0
 16  1  1  0
  1  2  1  0
  2  3  1  0
  3  4  1  0
  4  5  1  0
  4  6  1  0
  4  7  1  0
  7  8  1  0
  8  9  1  0
  8 10  1  0
  8 11  1  0
 11 12  1  0
 12 13  1  0
 12 14  1  0
 12 15  1  0
M  CHG 1   4   1
M  CHG 1   8   1
M  CHG 1  12   1
M  END
> <minimizedAffinity>
-5.95968

> <CNNscore>
0.5835747123

> <CNNaffinity>
5.9200930595

> <CNN_VS>
3.4548165798

> <CNNaffinity_variance>
0.8287846446

$$$$



 28 27  0  0  0  0  0  0  0  0999 V2000
   -0.5231    3.7095   18.0214 C   0  0  0  0  0  0  0  0  0  0  0  0
   -1.2857    3.2396   16.7832 C   0  0  0  0  0  0  0  0  0  0  0  0
   -1.6364    1.7468   16.7125 C   0  0  0  0  0  0  0  0  0  0  0  0
   -0.7713    0.8034   15.7544 N   0  0  0  0  0  0  0  0  0  0  0  0
   -0.6748   -0.5585   16.4326 C   0  0  0  0  0  0  0  0  0  0  0  0
   -1.5216    0.6486   14.4247 C   0  0  0  0  0  0  0  0  0  0  0  0
    0.5652    1.5451   15.5933 C   0  0  0  0  0  0  0  0  0  0  0  0
    1.7727    0.9799   14.8716 N   0  0  0  0  0  0  0  0  0  0  0  0
    2.9820    1.8951   14.8030 C   0  0  0  0  0  0  0  0  0  0  0  0
    1.4116    0.6261   13.3922 C   0  0  0  0  0  0  0  0  0  0  0  0
    2.1766   -0.4165   15.4396 C   0  0  0  0  0  0  0  0  0  0  0  0
    3.2139   -0.6052   16.5305 N   0  0  0  0  0  0  0  0  0  0  0  0
    3.6609   -2.1209   16.4213 C   0  0  0  0  0  0  0  0  0  0  0  0
    4.5084    0.1853   16.4193 C   0  0  0  0  0  0  0  0  0  0  0  0
    2.6588   -0.4949   17.9612 C   0  0  0  0  0  0  0  0  0  0  0  0
   -1.4484    3.8281   19.2372 C   0  0  0  0  0  0  0  0  0  0  0  0
   -2.7108    4.6472   18.9526 C   0  0  0  0  0  0  0  0  0  0  0  0
   -2.5954    6.1530   19.2108 C   0  0  0  0  0  0  0  0  0  0  0  0
   -3.8400    6.9841   18.8802 C   0  0  0  0  0  0  0  0  0  0  0  0
   -3.7429    8.4326   19.3665 C   0  0  0  0  0  0  0  0  0  0  0  0
   -2.4752    8.7227   20.1786 C   0  0  0  0  0  0  0  0  0  0  0  0
   -1.8971   10.1155   19.9149 C   0  0  0  0  0  0  0  0  0  0  0  0
   -2.9662   11.2065   19.7853 C   0  0  0  0  0  0  0  0  0  0  0  0
   -3.0624   11.8909   18.4181 C   0  0  0  0  0  0  0  0  0  0  0  0
   -4.0214   13.0836   18.3377 C   0  0  0  0  0  0  0  0  0  0  0  0
   -3.3208   14.4372   18.4844 C   0  0  0  0  0  0  0  0  0  0  0  0
   -3.5110   16.6111   17.1619 C   0  0  0  0  0  0  0  0  0  0  0  0
   -4.2068   15.6194   18.0819 C   0  0  0  0  0  0  0  0  0  0  0  0
 27 28  1  0
 28 26  1  0
 26 25  1  0
 25 24  1  0
 24 23  1  0
 23 22  1  0
 22 21  1  0
 21 20  1  0
 20 19  1  0
 19 18  1  0
 18 17  1  0
 17 16  1  0
 16  1  1  0
  1  2  1  0
  2  3  1  0
  3  4  1  0
  4  5  1  0
  4  6  1  0
  4  7  1  0
  7  8  1  0
  8  9  1  0
  8 10  1  0
  8 11  1  0
 11 12  1  0
 12 13  1  0
 12 14  1  0
 12 15  1  0
M  CHG 1   4   1
M  CHG 1   8   1
M  CHG 1  12   1
M  END
> <minimizedAffinity>
-4.40286

> <CNNscore>
0.5738172531

> <CNNaffinity>
6.0434913635

> <CNN_VS>
3.4678595066

> <CNNaffinity_variance>
0.2912545502

$$$$
