


 31 33  0  0  0  0  0  0  0  0999 V2000
   12.3185   52.5153   90.1522 C   0  0  0  0  0  0  0  0  0  0  0  0
   12.7933   51.5397   90.7322 O   0  0  0  0  0  0  0  0  0  0  0  0
   11.4432   52.3903   89.0984 N   0  0  0  0  0  0  0  0  0  0  0  0
   11.0482   53.2052   88.7122 H   0  0  0  0  0  0  0  0  0  0  0  0
   12.3874   54.2599   92.9093 C   0  0  0  0  0  0  0  0  0  0  0  0
   11.1814   54.0724   92.7536 O   0  0  0  0  0  0  0  0  0  0  0  0
   13.2502   54.1986   91.8328 N   0  0  0  0  0  0  0  0  0  0  0  0
   14.6410   54.6429   91.8261 C   0  0  0  0  0  0  0  0  0  0  0  0
   14.8111   55.2581   90.4404 C   0  0  0  0  0  0  0  0  0  0  0  0
   14.3139   56.5963   90.4207 O   0  0  0  0  0  0  0  0  0  0  0  0
   13.9525   54.3666   89.5563 C   0  0  0  0  0  0  0  0  0  0  0  0
   12.7685   53.9677   90.4555 C   0  0  0  0  0  0  0  0  0  0  0  0
   13.3846   56.6001   90.6986 H   0  0  0  0  0  0  0  0  0  0  0  0
   13.0144   54.5511   94.2699 C   0  0  0  0  0  0  0  0  0  0  0  0
   12.4957   54.6113   96.7123 C   0  0  0  0  0  0  0  0  0  0  0  0
   12.1086   55.2090   95.3420 C   0  0  0  0  0  0  0  0  0  0  0  0
   12.3232   56.7303   95.4141 C   0  0  0  0  0  0  0  0  0  0  0  0
   10.6238   54.8976   95.0891 C   0  0  0  0  0  0  0  0  0  0  0  0
   11.0820   51.1123   88.5375 C   0  0  0  0  0  0  0  0  0  0  0  0
   11.6368   50.9599   87.1447 C   0  0  0  0  0  0  0  0  0  0  0  0
   11.7378   52.0637   86.2905 C   0  0  0  0  0  0  0  0  0  0  0  0
   12.2773   51.9212   85.0074 C   0  0  0  0  0  0  0  0  0  0  0  0
   12.7367   50.6774   84.5502 C   0  0  0  0  0  0  0  0  0  0  0  0
   12.6455   49.5787   85.4165 C   0  0  0  0  0  0  0  0  0  0  0  0
   12.1060   49.7186   86.6997 C   0  0  0  0  0  0  0  0  0  0  0  0
   13.3007   50.5225   83.2161 C   0  0  0  0  0  0  0  0  0  0  0  0
   13.0983   49.6726   82.1504 C   0  0  0  0  0  0  0  0  0  0  0  0
   13.9355   49.9960   81.1125 N   0  0  0  0  0  0  0  0  0  0  0  0
   14.6187   51.0249   81.5710 C   0  0  0  0  0  0  0  0  0  0  0  0
   15.9621   51.9187   80.5455 Br  0  0  0  0  0  0  0  0  0  0  0  0
   14.2855   51.4003   82.8432 O   0  0  0  0  0  0  0  0  0  0  0  0
 15 16  1  0
 16 17  1  0
 16 18  1  0
 16 14  1  0
 14  5  1  0
  5  6  2  0
  5  7  1  0
  7  8  1  0
  8  9  1  0
  9 10  1  0
  9 11  1  0
 11 12  1  0
 12  1  1  0
  1  2  2  0
  1  3  1  0
  3 19  1  0
 19 20  1  0
 20 21  2  0
 21 22  1  0
 22 23  2  0
 23 26  1  0
 26 27  2  0
 27 28  1  0
 28 29  2  0
 29 30  1  0
 29 31  1  0
 23 24  1  0
 24 25  2  0
 12  7  1  0
 25 20  1  0
 31 26  1  0
 10 13  1  0
  3  4  1  0
M  END
> <minimizedAffinity>
-8.14088

> <CNNscore>
0.9595589042

> <CNNaffinity>
6.5842418671

> <CNN_VS>
6.3179678917

> <CNNaffinity_variance>
0.0049059568

$$$$



 31 33  0  0  0  0  0  0  0  0999 V2000
   12.5238   52.7519   89.6132 C   0  0  0  0  0  0  0  0  0  0  0  0
   12.5623   51.7481   90.3234 O   0  0  0  0  0  0  0  0  0  0  0  0
   12.2176   52.6937   88.2734 N   0  0  0  0  0  0  0  0  0  0  0  0
   12.1420   53.5353   87.7683 H   0  0  0  0  0  0  0  0  0  0  0  0
   12.5730   54.0841   92.5919 C   0  0  0  0  0  0  0  0  0  0  0  0
   11.3693   53.9047   92.4101 O   0  0  0  0  0  0  0  0  0  0  0  0
   13.4351   54.1893   91.5183 N   0  0  0  0  0  0  0  0  0  0  0  0
   14.8199   54.6485   91.5763 C   0  0  0  0  0  0  0  0  0  0  0  0
   14.9800   55.4581   90.2932 C   0  0  0  0  0  0  0  0  0  0  0  0
   14.4650   56.7786   90.4653 O   0  0  0  0  0  0  0  0  0  0  0  0
   14.1322   54.6912   89.2898 C   0  0  0  0  0  0  0  0  0  0  0  0
   12.9548   54.1517   90.1218 C   0  0  0  0  0  0  0  0  0  0  0  0
   13.5360   56.7301   90.7402 H   0  0  0  0  0  0  0  0  0  0  0  0
   13.1977   54.1855   93.9806 C   0  0  0  0  0  0  0  0  0  0  0  0
   12.5683   56.3216   95.1115 C   0  0  0  0  0  0  0  0  0  0  0  0
   12.3262   54.7964   95.1075 C   0  0  0  0  0  0  0  0  0  0  0  0
   10.8268   54.5581   94.8615 C   0  0  0  0  0  0  0  0  0  0  0  0
   12.7278   54.2471   96.4869 C   0  0  0  0  0  0  0  0  0  0  0  0
   12.0031   51.4480   87.5801 C   0  0  0  0  0  0  0  0  0  0  0  0
   11.1190   51.6475   86.3763 C   0  0  0  0  0  0  0  0  0  0  0  0
   11.5581   51.2836   85.0984 C   0  0  0  0  0  0  0  0  0  0  0  0
   10.7233   51.4475   83.9876 C   0  0  0  0  0  0  0  0  0  0  0  0
    9.4287   51.9690   84.1266 C   0  0  0  0  0  0  0  0  0  0  0  0
    8.9902   52.3183   85.4117 C   0  0  0  0  0  0  0  0  0  0  0  0
    9.8233   52.1558   86.5239 C   0  0  0  0  0  0  0  0  0  0  0  0
    8.5541   52.1409   82.9746 C   0  0  0  0  0  0  0  0  0  0  0  0
    7.9183   51.3040   82.0832 C   0  0  0  0  0  0  0  0  0  0  0  0
    7.1992   52.0326   81.1696 N   0  0  0  0  0  0  0  0  0  0  0  0
    7.4151   53.2822   81.5268 C   0  0  0  0  0  0  0  0  0  0  0  0
    6.6547   54.7723   80.6013 Br  0  0  0  0  0  0  0  0  0  0  0  0
    8.2293   53.4237   82.6165 O   0  0  0  0  0  0  0  0  0  0  0  0
 15 16  1  0
 16 17  1  0
 16 18  1  0
 16 14  1  0
 14  5  1  0
  5  6  2  0
  5  7  1  0
  7  8  1  0
  8  9  1  0
  9 10  1  0
  9 11  1  0
 11 12  1  0
 12  1  1  0
  1  2  2  0
  1  3  1  0
  3 19  1  0
 19 20  1  0
 20 21  2  0
 21 22  1  0
 22 23  2  0
 23 26  1  0
 26 27  2  0
 27 28  1  0
 28 29  2  0
 29 30  1  0
 29 31  1  0
 23 24  1  0
 24 25  2  0
 12  7  1  0
 25 20  1  0
 31 26  1  0
 10 13  1  0
  3  4  1  0
M  END
> <minimizedAffinity>
-7.49067

> <CNNscore>
0.8452932835

> <CNNaffinity>
6.0387425423

> <CNN_VS>
5.1045084000

> <CNNaffinity_variance>
0.0907594040

$$$$



 31 33  0  0  0  0  0  0  0  0999 V2000
   12.0950   52.5821   88.7012 C   0  0  0  0  0  0  0  0  0  0  0  0
   12.6752   51.6026   89.1678 O   0  0  0  0  0  0  0  0  0  0  0  0
   12.4906   53.8707   88.9751 N   0  0  0  0  0  0  0  0  0  0  0  0
   12.0268   54.6137   88.5255 H   0  0  0  0  0  0  0  0  0  0  0  0
   11.5051   52.5827   85.4916 C   0  0  0  0  0  0  0  0  0  0  0  0
   11.9481   53.7163   85.6720 O   0  0  0  0  0  0  0  0  0  0  0  0
   10.9378   51.8785   86.5352 N   0  0  0  0  0  0  0  0  0  0  0  0
   10.1567   50.6509   86.4129 C   0  0  0  0  0  0  0  0  0  0  0  0
    9.0654   50.8175   87.4658 C   0  0  0  0  0  0  0  0  0  0  0  0
    8.0005   51.6240   86.9618 O   0  0  0  0  0  0  0  0  0  0  0  0
    9.7806   51.5403   88.5969 C   0  0  0  0  0  0  0  0  0  0  0  0
   10.7835   52.4641   87.8826 C   0  0  0  0  0  0  0  0  0  0  0  0
    8.3518   52.4820   86.6767 H   0  0  0  0  0  0  0  0  0  0  0  0
   11.5597   51.8742   84.1409 C   0  0  0  0  0  0  0  0  0  0  0  0
   14.0442   52.1289   84.1257 C   0  0  0  0  0  0  0  0  0  0  0  0
   12.8883   51.1718   83.7617 C   0  0  0  0  0  0  0  0  0  0  0  0
   13.0898   49.8679   84.5521 C   0  0  0  0  0  0  0  0  0  0  0  0
   12.9618   50.8892   82.2515 C   0  0  0  0  0  0  0  0  0  0  0  0
   13.5581   54.1756   89.8948 C   0  0  0  0  0  0  0  0  0  0  0  0
   13.0483   54.2294   91.3119 C   0  0  0  0  0  0  0  0  0  0  0  0
   13.8694   54.6825   92.3505 C   0  0  0  0  0  0  0  0  0  0  0  0
   13.3827   54.7545   93.6603 C   0  0  0  0  0  0  0  0  0  0  0  0
   12.0639   54.3852   93.9629 C   0  0  0  0  0  0  0  0  0  0  0  0
   11.2425   53.9455   92.9152 C   0  0  0  0  0  0  0  0  0  0  0  0
   11.7271   53.8723   91.6047 C   0  0  0  0  0  0  0  0  0  0  0  0
   11.5505   54.4591   95.3241 C   0  0  0  0  0  0  0  0  0  0  0  0
   11.3748   53.5713   96.3633 C   0  0  0  0  0  0  0  0  0  0  0  0
   10.8328   54.2072   97.4517 N   0  0  0  0  0  0  0  0  0  0  0  0
   10.6947   55.4538   97.0487 C   0  0  0  0  0  0  0  0  0  0  0  0
    9.9741   56.8307   98.1622 Br  0  0  0  0  0  0  0  0  0  0  0  0
   11.1109   55.6802   95.7657 O   0  0  0  0  0  0  0  0  0  0  0  0
 15 16  1  0
 16 17  1  0
 16 18  1  0
 16 14  1  0
 14  5  1  0
  5  6  2  0
  5  7  1  0
  7  8  1  0
  8  9  1  0
  9 10  1  0
  9 11  1  0
 11 12  1  0
 12  1  1  0
  1  2  2  0
  1  3  1  0
  3 19  1  0
 19 20  1  0
 20 21  2  0
 21 22  1  0
 22 23  2  0
 23 26  1  0
 26 27  2  0
 27 28  1  0
 28 29  2  0
 29 30  1  0
 29 31  1  0
 23 24  1  0
 24 25  2  0
 12  7  1  0
 25 20  1  0
 31 26  1  0
 10 13  1  0
  3  4  1  0
M  END
> <minimizedAffinity>
-6.35265

> <CNNscore>
0.5973471403

> <CNNaffinity>
6.0061321259

> <CNN_VS>
3.5877459049

> <CNNaffinity_variance>
0.0754864514

$$$$



 31 33  0  0  0  0  0  0  0  0999 V2000
   13.9014   54.1578   91.8987 C   0  0  0  0  0  0  0  0  0  0  0  0
   14.6483   55.1077   92.1296 O   0  0  0  0  0  0  0  0  0  0  0  0
   13.5045   53.8273   90.6237 N   0  0  0  0  0  0  0  0  0  0  0  0
   12.9554   53.0206   90.4933 H   0  0  0  0  0  0  0  0  0  0  0  0
   12.2591   55.0423   94.5764 C   0  0  0  0  0  0  0  0  0  0  0  0
   13.3851   55.4809   94.8085 O   0  0  0  0  0  0  0  0  0  0  0  0
   12.0831   54.0014   93.6862 N   0  0  0  0  0  0  0  0  0  0  0  0
   10.8587   53.2257   93.5099 C   0  0  0  0  0  0  0  0  0  0  0  0
   11.3678   51.8078   93.2689 C   0  0  0  0  0  0  0  0  0  0  0  0
   11.6745   51.1672   94.5074 O   0  0  0  0  0  0  0  0  0  0  0  0
   12.6390   52.0269   92.4630 C   0  0  0  0  0  0  0  0  0  0  0  0
   13.2238   53.3353   93.0249 C   0  0  0  0  0  0  0  0  0  0  0  0
   12.3234   51.6988   94.9944 H   0  0  0  0  0  0  0  0  0  0  0  0
   10.9974   55.6077   95.2226 C   0  0  0  0  0  0  0  0  0  0  0  0
   12.0470   57.7989   95.8015 C   0  0  0  0  0  0  0  0  0  0  0  0
   11.1863   56.6445   96.3593 C   0  0  0  0  0  0  0  0  0  0  0  0
    9.8437   57.2375   96.8190 C   0  0  0  0  0  0  0  0  0  0  0  0
   11.9302   56.0323   97.5583 C   0  0  0  0  0  0  0  0  0  0  0  0
   13.8613   54.6163   89.4712 C   0  0  0  0  0  0  0  0  0  0  0  0
   13.4377   53.9308   88.1978 C   0  0  0  0  0  0  0  0  0  0  0  0
   14.0597   54.2340   86.9815 C   0  0  0  0  0  0  0  0  0  0  0  0
   13.6799   53.5759   85.8066 C   0  0  0  0  0  0  0  0  0  0  0  0
   12.6780   52.5944   85.8191 C   0  0  0  0  0  0  0  0  0  0  0  0
   12.0689   52.2857   87.0436 C   0  0  0  0  0  0  0  0  0  0  0  0
   12.4467   52.9427   88.2197 C   0  0  0  0  0  0  0  0  0  0  0  0
   12.2788   51.9047   84.5998 C   0  0  0  0  0  0  0  0  0  0  0  0
   11.0851   51.5298   84.0223 C   0  0  0  0  0  0  0  0  0  0  0  0
   11.3089   50.8861   82.8314 N   0  0  0  0  0  0  0  0  0  0  0  0
   12.6214   50.8867   82.7177 C   0  0  0  0  0  0  0  0  0  0  0  0
   13.5343   50.1116   81.2274 Br  0  0  0  0  0  0  0  0  0  0  0  0
   13.2764   51.4894   83.7560 O   0  0  0  0  0  0  0  0  0  0  0  0
 15 16  1  0
 16 17  1  0
 16 18  1  0
 16 14  1  0
 14  5  1  0
  5  6  2  0
  5  7  1  0
  7  8  1  0
  8  9  1  0
  9 10  1  0
  9 11  1  0
 11 12  1  0
 12  1  1  0
  1  2  2  0
  1  3  1  0
  3 19  1  0
 19 20  1  0
 20 21  2  0
 21 22  1  0
 22 23  2  0
 23 26  1  0
 26 27  2  0
 27 28  1  0
 28 29  2  0
 29 30  1  0
 29 31  1  0
 23 24  1  0
 24 25  2  0
 12  7  1  0
 25 20  1  0
 31 26  1  0
 10 13  1  0
  3  4  1  0
M  END
> <minimizedAffinity>
-7.46493

> <CNNscore>
0.4244051278

> <CNNaffinity>
5.4314742088

> <CNN_VS>
2.3051455021

> <CNNaffinity_variance>
0.7200577259

$$$$



 31 33  0  0  0  0  0  0  0  0999 V2000
   13.2975   53.0596   85.7244 C   0  0  0  0  0  0  0  0  0  0  0  0
   14.2384   53.4336   85.0255 O   0  0  0  0  0  0  0  0  0  0  0  0
   13.0610   53.5762   86.9771 N   0  0  0  0  0  0  0  0  0  0  0  0
   12.2582   53.2832   87.4659 H   0  0  0  0  0  0  0  0  0  0  0  0
   10.2699   52.9450   84.5118 C   0  0  0  0  0  0  0  0  0  0  0  0
   10.0840   53.4431   85.6215 O   0  0  0  0  0  0  0  0  0  0  0  0
   11.3927   52.1792   84.2674 N   0  0  0  0  0  0  0  0  0  0  0  0
   11.6113   51.3320   83.0985 C   0  0  0  0  0  0  0  0  0  0  0  0
   12.3316   50.1151   83.6711 C   0  0  0  0  0  0  0  0  0  0  0  0
   11.3957   49.2004   84.2418 O   0  0  0  0  0  0  0  0  0  0  0  0
   13.2118   50.7117   84.7587 C   0  0  0  0  0  0  0  0  0  0  0  0
   12.3791   51.8761   85.3246 C   0  0  0  0  0  0  0  0  0  0  0  0
   10.8726   49.6545   84.9208 H   0  0  0  0  0  0  0  0  0  0  0  0
    9.3101   53.1409   83.3415 C   0  0  0  0  0  0  0  0  0  0  0  0
    8.1372   51.2502   84.4763 C   0  0  0  0  0  0  0  0  0  0  0  0
    8.1332   52.1403   83.2143 C   0  0  0  0  0  0  0  0  0  0  0  0
    6.7761   52.8612   83.1507 C   0  0  0  0  0  0  0  0  0  0  0  0
    8.3032   51.2280   81.9877 C   0  0  0  0  0  0  0  0  0  0  0  0
   13.9430   54.5301   87.6020 C   0  0  0  0  0  0  0  0  0  0  0  0
   13.8500   54.4455   89.1037 C   0  0  0  0  0  0  0  0  0  0  0  0
   14.8315   55.0260   89.9148 C   0  0  0  0  0  0  0  0  0  0  0  0
   14.7267   54.9664   91.3087 C   0  0  0  0  0  0  0  0  0  0  0  0
   13.6368   54.3350   91.9257 C   0  0  0  0  0  0  0  0  0  0  0  0
   12.6500   53.7679   91.1069 C   0  0  0  0  0  0  0  0  0  0  0  0
   12.7527   53.8258   89.7128 C   0  0  0  0  0  0  0  0  0  0  0  0
   13.5210   54.2707   93.3763 C   0  0  0  0  0  0  0  0  0  0  0  0
   13.1038   55.1260   94.3730 C   0  0  0  0  0  0  0  0  0  0  0  0
   13.2117   54.5221   95.6003 N   0  0  0  0  0  0  0  0  0  0  0  0
   13.6875   53.3261   95.3195 C   0  0  0  0  0  0  0  0  0  0  0  0
   14.0507   52.0125   96.6602 Br  0  0  0  0  0  0  0  0  0  0  0  0
   13.8996   53.1031   93.9869 O   0  0  0  0  0  0  0  0  0  0  0  0
 15 16  1  0
 16 17  1  0
 16 18  1  0
 16 14  1  0
 14  5  1  0
  5  6  2  0
  5  7  1  0
  7  8  1  0
  8  9  1  0
  9 10  1  0
  9 11  1  0
 11 12  1  0
 12  1  1  0
  1  2  2  0
  1  3  1  0
  3 19  1  0
 19 20  1  0
 20 21  2  0
 21 22  1  0
 22 23  2  0
 23 26  1  0
 26 27  2  0
 27 28  1  0
 28 29  2  0
 29 30  1  0
 29 31  1  0
 23 24  1  0
 24 25  2  0
 12  7  1  0
 25 20  1  0
 31 26  1  0
 10 13  1  0
  3  4  1  0
M  END
> <minimizedAffinity>
-7.48772

> <CNNscore>
0.3250405192

> <CNNaffinity>
5.7448287010

> <CNN_VS>
1.8673020601

> <CNNaffinity_variance>
0.0818646774

$$$$



 31 33  0  0  0  0  0  0  0  0999 V2000
   12.2116   52.7211   87.4230 C   0  0  0  0  0  0  0  0  0  0  0  0
   12.9380   53.2460   86.5802 O   0  0  0  0  0  0  0  0  0  0  0  0
   12.3140   53.0092   88.7642 N   0  0  0  0  0  0  0  0  0  0  0  0
   11.6662   52.6050   89.3857 H   0  0  0  0  0  0  0  0  0  0  0  0
    9.1075   52.7570   86.4166 C   0  0  0  0  0  0  0  0  0  0  0  0
    9.0192   53.2498   87.5406 O   0  0  0  0  0  0  0  0  0  0  0  0
   10.1753   51.9445   86.0903 N   0  0  0  0  0  0  0  0  0  0  0  0
   10.2762   51.1022   84.9019 C   0  0  0  0  0  0  0  0  0  0  0  0
   10.9769   49.8475   85.4139 C   0  0  0  0  0  0  0  0  0  0  0  0
   10.0407   48.9690   86.0384 O   0  0  0  0  0  0  0  0  0  0  0  0
   11.9544   50.3910   86.4448 C   0  0  0  0  0  0  0  0  0  0  0  0
   11.2154   51.5849   87.0757 C   0  0  0  0  0  0  0  0  0  0  0  0
    9.5855   49.4382   86.7551 H   0  0  0  0  0  0  0  0  0  0  0  0
    8.0813   53.0096   85.3155 C   0  0  0  0  0  0  0  0  0  0  0  0
    6.6726   51.1246   86.1523 C   0  0  0  0  0  0  0  0  0  0  0  0
    6.6229   52.5616   85.5888 C   0  0  0  0  0  0  0  0  0  0  0  0
    5.9388   53.4552   86.6371 C   0  0  0  0  0  0  0  0  0  0  0  0
    5.7922   52.5370   84.2946 C   0  0  0  0  0  0  0  0  0  0  0  0
   13.3330   53.8799   89.2950 C   0  0  0  0  0  0  0  0  0  0  0  0
   13.1417   54.0926   90.7745 C   0  0  0  0  0  0  0  0  0  0  0  0
   14.1362   54.7081   91.5429 C   0  0  0  0  0  0  0  0  0  0  0  0
   13.9427   54.9262   92.9113 C   0  0  0  0  0  0  0  0  0  0  0  0
   12.7501   54.5440   93.5429 C   0  0  0  0  0  0  0  0  0  0  0  0
   11.7525   53.9406   92.7642 C   0  0  0  0  0  0  0  0  0  0  0  0
   11.9438   53.7211   91.3957 C   0  0  0  0  0  0  0  0  0  0  0  0
   12.5417   54.7693   94.9668 C   0  0  0  0  0  0  0  0  0  0  0  0
   12.1845   55.8413   95.7556 C   0  0  0  0  0  0  0  0  0  0  0  0
   12.1385   55.4717   97.0762 N   0  0  0  0  0  0  0  0  0  0  0  0
   12.4662   54.1959   97.0553 C   0  0  0  0  0  0  0  0  0  0  0  0
   12.5715   53.1253   98.6357 Br  0  0  0  0  0  0  0  0  0  0  0  0
   12.7246   53.7012   95.8066 O   0  0  0  0  0  0  0  0  0  0  0  0
 15 16  1  0
 16 17  1  0
 16 18  1  0
 16 14  1  0
 14  5  1  0
  5  6  2  0
  5  7  1  0
  7  8  1  0
  8  9  1  0
  9 10  1  0
  9 11  1  0
 11 12  1  0
 12  1  1  0
  1  2  2  0
  1  3  1  0
  3 19  1  0
 19 20  1  0
 20 21  2  0
 21 22  1  0
 22 23  2  0
 23 26  1  0
 26 27  2  0
 27 28  1  0
 28 29  2  0
 29 30  1  0
 29 31  1  0
 23 24  1  0
 24 25  2  0
 12  7  1  0
 25 20  1  0
 31 26  1  0
 10 13  1  0
  3  4  1  0
M  END
> <minimizedAffinity>
-5.72923

> <CNNscore>
0.2915253937

> <CNNaffinity>
5.4328632355

> <CNN_VS>
1.5838176012

> <CNNaffinity_variance>
0.0120118754

$$$$



 31 33  0  0  0  0  0  0  0  0999 V2000
   10.2770   50.7120   82.7689 C   0  0  0  0  0  0  0  0  0  0  0  0
   11.1480   51.5021   82.4073 O   0  0  0  0  0  0  0  0  0  0  0  0
   10.5770   49.4799   83.3020 N   0  0  0  0  0  0  0  0  0  0  0  0
    9.8409   48.9144   83.6301 H   0  0  0  0  0  0  0  0  0  0  0  0
    7.8709   51.6802   84.7496 C   0  0  0  0  0  0  0  0  0  0  0  0
    8.1813   50.5927   85.2344 O   0  0  0  0  0  0  0  0  0  0  0  0
    8.1481   51.9616   83.4264 N   0  0  0  0  0  0  0  0  0  0  0  0
    7.6194   53.0889   82.6637 C   0  0  0  0  0  0  0  0  0  0  0  0
    7.3779   52.4984   81.2779 C   0  0  0  0  0  0  0  0  0  0  0  0
    6.1321   51.8021   81.2390 O   0  0  0  0  0  0  0  0  0  0  0  0
    8.5308   51.5204   81.1106 C   0  0  0  0  0  0  0  0  0  0  0  0
    8.7667   50.9661   82.5271 C   0  0  0  0  0  0  0  0  0  0  0  0
    6.1244   51.1147   81.9234 H   0  0  0  0  0  0  0  0  0  0  0  0
    7.1880   52.7836   85.5529 C   0  0  0  0  0  0  0  0  0  0  0  0
    5.2656   53.7456   86.8244 C   0  0  0  0  0  0  0  0  0  0  0  0
    5.6880   52.5896   85.8918 C   0  0  0  0  0  0  0  0  0  0  0  0
    4.8062   52.6534   84.6333 C   0  0  0  0  0  0  0  0  0  0  0  0
    5.4484   51.2653   86.6365 C   0  0  0  0  0  0  0  0  0  0  0  0
   11.9274   48.9846   83.3989 C   0  0  0  0  0  0  0  0  0  0  0  0
   11.9921   47.7688   84.2868 C   0  0  0  0  0  0  0  0  0  0  0  0
   11.2686   46.6133   83.9709 C   0  0  0  0  0  0  0  0  0  0  0  0
   11.3524   45.4786   84.7852 C   0  0  0  0  0  0  0  0  0  0  0  0
   12.1662   45.4668   85.9275 C   0  0  0  0  0  0  0  0  0  0  0  0
   12.8992   46.6231   86.2301 C   0  0  0  0  0  0  0  0  0  0  0  0
   12.8167   47.7591   85.4177 C   0  0  0  0  0  0  0  0  0  0  0  0
   12.2590   44.2884   86.7786 C   0  0  0  0  0  0  0  0  0  0  0  0
   13.0143   43.1358   86.7914 C   0  0  0  0  0  0  0  0  0  0  0  0
   12.6708   42.3483   87.8612 N   0  0  0  0  0  0  0  0  0  0  0  0
   11.7239   43.0371   88.4650 C   0  0  0  0  0  0  0  0  0  0  0  0
   10.8459   42.4261   90.0497 Br  0  0  0  0  0  0  0  0  0  0  0  0
   11.4219   44.2272   87.8626 O   0  0  0  0  0  0  0  0  0  0  0  0
 15 16  1  0
 16 17  1  0
 16 18  1  0
 16 14  1  0
 14  5  1  0
  5  6  2  0
  5  7  1  0
  7  8  1  0
  8  9  1  0
  9 10  1  0
  9 11  1  0
 11 12  1  0
 12  1  1  0
  1  2  2  0
  1  3  1  0
  3 19  1  0
 19 20  1  0
 20 21  2  0
 21 22  1  0
 22 23  2  0
 23 26  1  0
 26 27  2  0
 27 28  1  0
 28 29  2  0
 29 30  1  0
 29 31  1  0
 23 24  1  0
 24 25  2  0
 12  7  1  0
 25 20  1  0
 31 26  1  0
 10 13  1  0
  3  4  1  0
M  END
> <minimizedAffinity>
-5.29876

> <CNNscore>
0.2843457460

> <CNNaffinity>
4.1850776672

> <CNN_VS>
1.1900089979

> <CNNaffinity_variance>
0.4670434296

$$$$



 31 33  0  0  0  0  0  0  0  0999 V2000
   13.1034   53.4145   85.8984 C   0  0  0  0  0  0  0  0  0  0  0  0
   14.1340   53.4423   85.2270 O   0  0  0  0  0  0  0  0  0  0  0  0
   13.0525   53.8909   87.1878 N   0  0  0  0  0  0  0  0  0  0  0  0
   12.1862   53.8987   87.6554 H   0  0  0  0  0  0  0  0  0  0  0  0
   12.6003   50.7051   84.1501 C   0  0  0  0  0  0  0  0  0  0  0  0
   13.1777   51.4300   83.3408 O   0  0  0  0  0  0  0  0  0  0  0  0
   11.9224   51.2528   85.2213 N   0  0  0  0  0  0  0  0  0  0  0  0
   10.9965   50.5433   86.0996 C   0  0  0  0  0  0  0  0  0  0  0  0
    9.9083   51.5758   86.3773 C   0  0  0  0  0  0  0  0  0  0  0  0
    8.9666   51.6137   85.3049 O   0  0  0  0  0  0  0  0  0  0  0  0
   10.6797   52.8850   86.4443 C   0  0  0  0  0  0  0  0  0  0  0  0
   11.8088   52.7132   85.4122 C   0  0  0  0  0  0  0  0  0  0  0  0
    9.4302   51.8022   84.4740 H   0  0  0  0  0  0  0  0  0  0  0  0
   12.5997   49.1823   84.0492 C   0  0  0  0  0  0  0  0  0  0  0  0
   10.4609   49.2643   82.7621 C   0  0  0  0  0  0  0  0  0  0  0  0
   11.8264   48.5503   82.8638 C   0  0  0  0  0  0  0  0  0  0  0  0
   12.5640   48.7521   81.5294 C   0  0  0  0  0  0  0  0  0  0  0  0
   11.5644   47.0532   83.1000 C   0  0  0  0  0  0  0  0  0  0  0  0
   14.2184   54.3792   87.8809 C   0  0  0  0  0  0  0  0  0  0  0  0
   13.9837   54.4157   89.3690 C   0  0  0  0  0  0  0  0  0  0  0  0
   12.8278   53.8559   89.9246 C   0  0  0  0  0  0  0  0  0  0  0  0
   12.6272   53.8700   91.3092 C   0  0  0  0  0  0  0  0  0  0  0  0
   13.5783   54.4341   92.1720 C   0  0  0  0  0  0  0  0  0  0  0  0
   14.7405   54.9806   91.6096 C   0  0  0  0  0  0  0  0  0  0  0  0
   14.9432   54.9681   90.2253 C   0  0  0  0  0  0  0  0  0  0  0  0
   13.3762   54.4508   93.6144 C   0  0  0  0  0  0  0  0  0  0  0  0
   12.8308   55.3290   94.5256 C   0  0  0  0  0  0  0  0  0  0  0  0
   12.9076   54.8135   95.7948 N   0  0  0  0  0  0  0  0  0  0  0  0
   13.4927   53.6457   95.6230 C   0  0  0  0  0  0  0  0  0  0  0  0
   13.8721   52.4524   97.0676 Br  0  0  0  0  0  0  0  0  0  0  0  0
   13.8057   53.3585   94.3229 O   0  0  0  0  0  0  0  0  0  0  0  0
 15 16  1  0
 16 17  1  0
 16 18  1  0
 16 14  1  0
 14  5  1  0
  5  6  2  0
  5  7  1  0
  7  8  1  0
  8  9  1  0
  9 10  1  0
  9 11  1  0
 11 12  1  0
 12  1  1  0
  1  2  2  0
  1  3  1  0
  3 19  1  0
 19 20  1  0
 20 21  2  0
 21 22  1  0
 22 23  2  0
 23 26  1  0
 26 27  2  0
 27 28  1  0
 28 29  2  0
 29 30  1  0
 29 31  1  0
 23 24  1  0
 24 25  2  0
 12  7  1  0
 25 20  1  0
 31 26  1  0
 10 13  1  0
  3  4  1  0
M  END
> <minimizedAffinity>
-7.28438

> <CNNscore>
0.2831443548

> <CNNaffinity>
5.3504428864

> <CNN_VS>
1.5149476528

> <CNNaffinity_variance>
0.2762354910

$$$$



 31 33  0  0  0  0  0  0  0  0999 V2000
   12.8607   52.6444   86.0177 C   0  0  0  0  0  0  0  0  0  0  0  0
   13.6877   53.0805   85.2181 O   0  0  0  0  0  0  0  0  0  0  0  0
   12.7241   53.1564   87.2871 N   0  0  0  0  0  0  0  0  0  0  0  0
   12.0047   52.8090   87.8625 H   0  0  0  0  0  0  0  0  0  0  0  0
   12.5051   50.7990   83.3498 C   0  0  0  0  0  0  0  0  0  0  0  0
   12.0569   51.8819   82.9752 O   0  0  0  0  0  0  0  0  0  0  0  0
   12.5410   50.4833   84.6936 N   0  0  0  0  0  0  0  0  0  0  0  0
   12.8034   49.1607   85.2539 C   0  0  0  0  0  0  0  0  0  0  0  0
   11.8635   49.0899   86.4535 C   0  0  0  0  0  0  0  0  0  0  0  0
   10.5467   48.7261   86.0387 O   0  0  0  0  0  0  0  0  0  0  0  0
   11.8708   50.5147   86.9857 C   0  0  0  0  0  0  0  0  0  0  0  0
   11.9977   51.3898   85.7258 C   0  0  0  0  0  0  0  0  0  0  0  0
   10.2294   49.3602   85.3768 H   0  0  0  0  0  0  0  0  0  0  0  0
   13.0587   49.7512   82.3881 C   0  0  0  0  0  0  0  0  0  0  0  0
   11.5916   47.7347   82.5275 C   0  0  0  0  0  0  0  0  0  0  0  0
   12.0316   48.8932   81.6061 C   0  0  0  0  0  0  0  0  0  0  0  0
   10.7774   49.7025   81.2352 C   0  0  0  0  0  0  0  0  0  0  0  0
   12.6584   48.2834   80.3408 C   0  0  0  0  0  0  0  0  0  0  0  0
   13.5933   54.1819   87.8077 C   0  0  0  0  0  0  0  0  0  0  0  0
   13.5278   54.2301   89.3123 C   0  0  0  0  0  0  0  0  0  0  0  0
   14.4480   54.9888   90.0443 C   0  0  0  0  0  0  0  0  0  0  0  0
   14.3668   55.0503   91.4397 C   0  0  0  0  0  0  0  0  0  0  0  0
   13.3611   54.3645   92.1364 C   0  0  0  0  0  0  0  0  0  0  0  0
   12.4340   53.6177   91.3958 C   0  0  0  0  0  0  0  0  0  0  0  0
   12.5134   53.5543   90.0004 C   0  0  0  0  0  0  0  0  0  0  0  0
   13.2701   54.4255   93.5890 C   0  0  0  0  0  0  0  0  0  0  0  0
   13.7017   53.6451   94.6396 C   0  0  0  0  0  0  0  0  0  0  0  0
   13.3233   54.1992   95.8365 N   0  0  0  0  0  0  0  0  0  0  0  0
   12.6772   55.2920   95.4846 C   0  0  0  0  0  0  0  0  0  0  0  0
   11.9047   56.4950   96.7539 Br  0  0  0  0  0  0  0  0  0  0  0  0
   12.6060   55.4939   94.1339 O   0  0  0  0  0  0  0  0  0  0  0  0
 15 16  1  0
 16 17  1  0
 16 18  1  0
 16 14  1  0
 14  5  1  0
  5  6  2  0
  5  7  1  0
  7  8  1  0
  8  9  1  0
  9 10  1  0
  9 11  1  0
 11 12  1  0
 12  1  1  0
  1  2  2  0
  1  3  1  0
  3 19  1  0
 19 20  1  0
 20 21  2  0
 21 22  1  0
 22 23  2  0
 23 26  1  0
 26 27  2  0
 27 28  1  0
 28 29  2  0
 29 30  1  0
 29 31  1  0
 23 24  1  0
 24 25  2  0
 12  7  1  0
 25 20  1  0
 31 26  1  0
 10 13  1  0
  3  4  1  0
M  END
> <minimizedAffinity>
-6.75417

> <CNNscore>
0.2776302695

> <CNNaffinity>
5.4727540016

> <CNN_VS>
1.5194021463

> <CNNaffinity_variance>
0.1199679151

$$$$
