


 14 15  0  0  0  0  0  0  0  0999 V2000
  -14.3198   -1.1944    1.1660 C   0  0  0  0  0  0  0  0  0  0  0  0
  -12.9881   -1.3922    1.5635 C   0  0  0  0  0  0  0  0  0  0  0  0
  -12.7030   -1.3041    2.9079 C   0  0  0  0  0  0  0  0  0  0  0  0
  -13.6795   -1.0434    3.8400 C   0  0  0  0  0  0  0  0  0  0  0  0
  -14.9994   -0.8632    3.4835 C   0  0  0  0  0  0  0  0  0  0  0  0
  -15.3269   -0.9458    2.1235 C   0  0  0  0  0  0  0  0  0  0  0  0
  -17.1643   -0.7799    1.6685 Br  0  0  0  0  0  0  0  0  0  0  0  0
  -13.1875   -1.0011    5.1068 O   0  0  0  0  0  0  0  0  0  0  0  0
  -11.7887   -1.2644    4.8674 C   0  0  0  0  0  0  0  0  0  0  0  0
  -11.4758   -1.4566    3.4715 O   0  0  0  0  0  0  0  0  0  0  0  0
  -14.5412   -2.3016   -0.9445 O   0  0  0  0  0  0  0  0  0  0  0  0
  -14.5889   -1.2869   -0.2770 C   0  0  0  0  0  0  0  0  0  0  0  0
  -14.7872   -0.0748   -0.8188 O   0  0  0  0  0  0  0  0  0  0  0  0
  -14.8177    0.6842   -0.2703 H   0  0  0  0  0  0  0  0  0  0  0  0
 11 12  2  0
 12 13  1  0
 12  1  1  0
  1  2  2  0
  2  3  1  0
  3  4  2  0
  4  5  1  0
  5  6  2  0
  6  7  1  0
  4  8  1  0
  8  9  1  0
  9 10  1  0
  6  1  1  0
 10  3  1  0
 13 14  1  0
M  END
> <minimizedAffinity>
-6.59208

> <CNNscore>
0.7924297452

> <CNNaffinity>
3.8659970760

> <CNN_VS>
3.0635311604

> <CNNaffinity_variance>
0.1086095870

$$$$



 14 15  0  0  0  0  0  0  0  0999 V2000
  -15.1876   -1.0214    2.1818 C   0  0  0  0  0  0  0  0  0  0  0  0
  -14.8859   -1.0509    3.5525 C   0  0  0  0  0  0  0  0  0  0  0  0
  -13.5598   -1.1404    3.9128 C   0  0  0  0  0  0  0  0  0  0  0  0
  -12.5558   -1.1887    2.9748 C   0  0  0  0  0  0  0  0  0  0  0  0
  -12.8182   -1.1425    1.6218 C   0  0  0  0  0  0  0  0  0  0  0  0
  -14.1568   -1.0514    1.2176 C   0  0  0  0  0  0  0  0  0  0  0  0
  -14.4851   -0.9021   -0.6480 Br  0  0  0  0  0  0  0  0  0  0  0  0
  -11.3224   -1.2730    3.5408 O   0  0  0  0  0  0  0  0  0  0  0  0
  -11.6631   -1.2729    4.9435 C   0  0  0  0  0  0  0  0  0  0  0  0
  -13.0837   -1.1898    5.1848 O   0  0  0  0  0  0  0  0  0  0  0  0
  -17.1998   -1.6641    1.0562 O   0  0  0  0  0  0  0  0  0  0  0  0
  -16.6131   -0.9339    1.8309 C   0  0  0  0  0  0  0  0  0  0  0  0
  -17.1910    0.1429    2.3865 O   0  0  0  0  0  0  0  0  0  0  0  0
  -16.7052    0.6816    2.9796 H   0  0  0  0  0  0  0  0  0  0  0  0
 11 12  2  0
 12 13  1  0
 12  1  1  0
  1  2  2  0
  2  3  1  0
  3  4  2  0
  4  5  1  0
  5  6  2  0
  6  7  1  0
  4  8  1  0
  8  9  1  0
  9 10  1  0
  6  1  1  0
 10  3  1  0
 13 14  1  0
M  END
> <minimizedAffinity>
-6.73962

> <CNNscore>
0.7443436384

> <CNNaffinity>
3.5346100330

> <CNN_VS>
2.6309645176

> <CNNaffinity_variance>
0.4403665066

$$$$



 14 15  0  0  0  0  0  0  0  0999 V2000
  -15.3946   -0.2159   -4.1409 C   0  0  0  0  0  0  0  0  0  0  0  0
  -16.1287   -0.5405   -5.2926 C   0  0  0  0  0  0  0  0  0  0  0  0
  -15.6155   -1.5102   -6.1250 C   0  0  0  0  0  0  0  0  0  0  0  0
  -14.4332   -2.1537   -5.8450 C   0  0  0  0  0  0  0  0  0  0  0  0
  -13.6987   -1.8711   -4.7127 C   0  0  0  0  0  0  0  0  0  0  0  0
  -14.1903   -0.8893   -3.8420 C   0  0  0  0  0  0  0  0  0  0  0  0
  -13.2046   -0.5807   -2.2471 Br  0  0  0  0  0  0  0  0  0  0  0  0
  -14.1087   -3.0746   -6.7913 O   0  0  0  0  0  0  0  0  0  0  0  0
  -15.2213   -2.9381   -7.7006 C   0  0  0  0  0  0  0  0  0  0  0  0
  -16.1808   -1.9445   -7.2820 O   0  0  0  0  0  0  0  0  0  0  0  0
  -16.8240    0.6618   -2.4335 O   0  0  0  0  0  0  0  0  0  0  0  0
  -15.9659    0.8290   -3.2780 C   0  0  0  0  0  0  0  0  0  0  0  0
  -15.5074    2.0461   -3.6104 O   0  0  0  0  0  0  0  0  0  0  0  0
  -14.8446    2.1339   -4.2669 H   0  0  0  0  0  0  0  0  0  0  0  0
 11 12  2  0
 12 13  1  0
 12  1  1  0
  1  2  2  0
  2  3  1  0
  3  4  2  0
  4  5  1  0
  5  6  2  0
  6  7  1  0
  4  8  1  0
  8  9  1  0
  9 10  1  0
  6  1  1  0
 10  3  1  0
 13 14  1  0
M  END
> <minimizedAffinity>
-5.59889

> <CNNscore>
0.5425927639

> <CNNaffinity>
3.5040569305

> <CNN_VS>
1.9012759924

> <CNNaffinity_variance>
0.5135273933

$$$$



 14 15  0  0  0  0  0  0  0  0999 V2000
  -13.0315   -1.1601    3.0925 C   0  0  0  0  0  0  0  0  0  0  0  0
  -12.6625   -1.1731    1.7382 C   0  0  0  0  0  0  0  0  0  0  0  0
  -13.6567   -0.9881    0.8034 C   0  0  0  0  0  0  0  0  0  0  0  0
  -14.9665   -0.7856    1.1693 C   0  0  0  0  0  0  0  0  0  0  0  0
  -15.3578   -0.7485    2.4911 C   0  0  0  0  0  0  0  0  0  0  0  0
  -14.3727   -0.9331    3.4704 C   0  0  0  0  0  0  0  0  0  0  0  0
  -14.9234   -0.7913    5.2835 Br  0  0  0  0  0  0  0  0  0  0  0  0
  -15.7844   -0.6227    0.0954 O   0  0  0  0  0  0  0  0  0  0  0  0
  -14.8409   -0.7461   -0.9900 C   0  0  0  0  0  0  0  0  0  0  0  0
  -13.4878   -0.9794   -0.5451 O   0  0  0  0  0  0  0  0  0  0  0  0
  -10.8307   -1.7730    3.8064 O   0  0  0  0  0  0  0  0  0  0  0  0
  -11.9477   -1.3689    4.0645 C   0  0  0  0  0  0  0  0  0  0  0  0
  -12.3704   -1.1688    5.3228 O   0  0  0  0  0  0  0  0  0  0  0  0
  -13.2394   -0.8561    5.4809 H   0  0  0  0  0  0  0  0  0  0  0  0
 11 12  2  0
 12 13  1  0
 12  1  1  0
  1  2  2  0
  2  3  1  0
  3  4  2  0
  4  5  1  0
  5  6  2  0
  6  7  1  0
  4  8  1  0
  8  9  1  0
  9 10  1  0
  6  1  1  0
 10  3  1  0
 13 14  1  0
M  END
> <minimizedAffinity>
-6.72762

> <CNNscore>
0.4359631836

> <CNNaffinity>
3.3729102612

> <CNN_VS>
1.4704647064

> <CNNaffinity_variance>
0.4176539481

$$$$



 14 15  0  0  0  0  0  0  0  0999 V2000
  -21.5637    7.1353    5.6811 C   0  0  0  0  0  0  0  0  0  0  0  0
  -22.7133    7.8523    6.0487 C   0  0  0  0  0  0  0  0  0  0  0  0
  -23.1698    7.7090    7.3400 C   0  0  0  0  0  0  0  0  0  0  0  0
  -22.5264    6.9047    8.2508 C   0  0  0  0  0  0  0  0  0  0  0  0
  -21.3848    6.2026    7.9263 C   0  0  0  0  0  0  0  0  0  0  0  0
  -20.8909    6.3242    6.6206 C   0  0  0  0  0  0  0  0  0  0  0  0
  -19.2696    5.4158    6.2248 Br  0  0  0  0  0  0  0  0  0  0  0  0
  -23.1380    6.9062    9.4652 O   0  0  0  0  0  0  0  0  0  0  0  0
  -24.2412    7.8032    9.2163 C   0  0  0  0  0  0  0  0  0  0  0  0
  -24.2661    8.3150    7.8670 O   0  0  0  0  0  0  0  0  0  0  0  0
  -20.2268    8.0548    3.9216 O   0  0  0  0  0  0  0  0  0  0  0  0
  -21.1075    7.3040    4.2932 C   0  0  0  0  0  0  0  0  0  0  0  0
  -21.8681    6.6034    3.4372 O   0  0  0  0  0  0  0  0  0  0  0  0
  -22.5376    6.0346    3.7629 H   0  0  0  0  0  0  0  0  0  0  0  0
 11 12  2  0
 12 13  1  0
 12  1  1  0
  1  2  2  0
  2  3  1  0
  3  4  2  0
  4  5  1  0
  5  6  2  0
  6  7  1  0
  4  8  1  0
  8  9  1  0
  9 10  1  0
  6  1  1  0
 10  3  1  0
 13 14  1  0
M  END
> <minimizedAffinity>
-5.27798

> <CNNscore>
0.4245593846

> <CNNaffinity>
2.8293654919

> <CNN_VS>
1.2012336254

> <CNNaffinity_variance>
0.7985695004

$$$$



 14 15  0  0  0  0  0  0  0  0999 V2000
  -24.2659   -3.4154   -5.6639 C   0  0  0  0  0  0  0  0  0  0  0  0
  -24.3322   -4.5414   -6.4996 C   0  0  0  0  0  0  0  0  0  0  0  0
  -24.9956   -4.4085   -7.6991 C   0  0  0  0  0  0  0  0  0  0  0  0
  -25.5677   -3.2186   -8.0826 C   0  0  0  0  0  0  0  0  0  0  0  0
  -25.5035   -2.0899   -7.2930 C   0  0  0  0  0  0  0  0  0  0  0  0
  -24.8361   -2.1877   -6.0648 C   0  0  0  0  0  0  0  0  0  0  0  0
  -24.6873   -0.5969   -5.0362 Br  0  0  0  0  0  0  0  0  0  0  0  0
  -26.1690   -3.3020   -9.2993 O   0  0  0  0  0  0  0  0  0  0  0  0
  -25.9112   -4.6809   -9.6393 C   0  0  0  0  0  0  0  0  0  0  0  0
  -25.1668   -5.3884   -8.6251 O   0  0  0  0  0  0  0  0  0  0  0  0
  -22.3686   -3.4209   -4.2048 O   0  0  0  0  0  0  0  0  0  0  0  0
  -23.5579   -3.5932   -4.3872 C   0  0  0  0  0  0  0  0  0  0  0  0
  -24.3687   -4.0924   -3.4408 O   0  0  0  0  0  0  0  0  0  0  0  0
  -25.2808   -4.2106   -3.6199 H   0  0  0  0  0  0  0  0  0  0  0  0
 11 12  2  0
 12 13  1  0
 12  1  1  0
  1  2  2  0
  2  3  1  0
  3  4  2  0
  4  5  1  0
  5  6  2  0
  6  7  1  0
  4  8  1  0
  8  9  1  0
  9 10  1  0
  6  1  1  0
 10  3  1  0
 13 14  1  0
M  END
> <minimizedAffinity>
-5.24998

> <CNNscore>
0.3733534813

> <CNNaffinity>
3.0623970032

> <CNN_VS>
1.1433565617

> <CNNaffinity_variance>
0.6150551438

$$$$



 14 15  0  0  0  0  0  0  0  0999 V2000
  -12.3559   -8.1384   11.0410 C   0  0  0  0  0  0  0  0  0  0  0  0
  -12.4724   -9.3100   10.2766 C   0  0  0  0  0  0  0  0  0  0  0  0
  -11.3219  -10.0214   10.0186 C   0  0  0  0  0  0  0  0  0  0  0  0
  -10.0975   -9.6167   10.4955 C   0  0  0  0  0  0  0  0  0  0  0  0
   -9.9528   -8.4814   11.2647 C   0  0  0  0  0  0  0  0  0  0  0  0
  -11.1024   -7.7319   11.5477 C   0  0  0  0  0  0  0  0  0  0  0  0
  -10.8887   -6.2214   12.6806 Br  0  0  0  0  0  0  0  0  0  0  0  0
   -9.0953  -10.4596   10.1296 O   0  0  0  0  0  0  0  0  0  0  0  0
   -9.8274  -11.4422    9.3667 C   0  0  0  0  0  0  0  0  0  0  0  0
  -11.2424  -11.1675    9.2925 O   0  0  0  0  0  0  0  0  0  0  0  0
  -14.4764   -7.7227   12.0704 O   0  0  0  0  0  0  0  0  0  0  0  0
  -13.6017   -7.3979   11.2913 C   0  0  0  0  0  0  0  0  0  0  0  0
  -13.7279   -6.3524   10.4588 O   0  0  0  0  0  0  0  0  0  0  0  0
  -13.0306   -6.1336    9.8725 H   0  0  0  0  0  0  0  0  0  0  0  0
 11 12  2  0
 12 13  1  0
 12  1  1  0
  1  2  2  0
  2  3  1  0
  3  4  2  0
  4  5  1  0
  5  6  2  0
  6  7  1  0
  4  8  1  0
  8  9  1  0
  9 10  1  0
  6  1  1  0
 10  3  1  0
 13 14  1  0
M  END
> <minimizedAffinity>
-4.63535

> <CNNscore>
0.3565313816

> <CNNaffinity>
2.7762985229

> <CNN_VS>
0.9898375273

> <CNNaffinity_variance>
0.5811067820

$$$$



 14 15  0  0  0  0  0  0  0  0999 V2000
  -23.0010   -4.5247   -4.4643 C   0  0  0  0  0  0  0  0  0  0  0  0
  -22.7079   -5.8353   -4.0555 C   0  0  0  0  0  0  0  0  0  0  0  0
  -21.3819   -6.1996   -3.9810 C   0  0  0  0  0  0  0  0  0  0  0  0
  -20.3704   -5.3185   -4.2823 C   0  0  0  0  0  0  0  0  0  0  0  0
  -20.6250   -4.0193   -4.6684 C   0  0  0  0  0  0  0  0  0  0  0  0
  -21.9632   -3.6130   -4.7554 C   0  0  0  0  0  0  0  0  0  0  0  0
  -22.2838   -1.7948   -5.2052 Br  0  0  0  0  0  0  0  0  0  0  0  0
  -19.1387   -5.8771   -4.1422 O   0  0  0  0  0  0  0  0  0  0  0  0
  -19.4889   -7.2118   -3.7184 C   0  0  0  0  0  0  0  0  0  0  0  0
  -20.9131   -7.4218   -3.6155 O   0  0  0  0  0  0  0  0  0  0  0  0
  -25.0846   -4.0930   -5.5603 O   0  0  0  0  0  0  0  0  0  0  0  0
  -24.4263   -4.1704   -4.5414 C   0  0  0  0  0  0  0  0  0  0  0  0
  -24.9111   -3.8185   -3.3400 O   0  0  0  0  0  0  0  0  0  0  0  0
  -24.3720   -3.8927   -2.5772 H   0  0  0  0  0  0  0  0  0  0  0  0
 11 12  2  0
 12 13  1  0
 12  1  1  0
  1  2  2  0
  2  3  1  0
  3  4  2  0
  4  5  1  0
  5  6  2  0
  6  7  1  0
  4  8  1  0
  8  9  1  0
  9 10  1  0
  6  1  1  0
 10  3  1  0
 13 14  1  0
M  END
> <minimizedAffinity>
-4.97415

> <CNNscore>
0.3548594117

> <CNNaffinity>
3.1413829327

> <CNN_VS>
1.1147493124

> <CNNaffinity_variance>
0.5180462599

$$$$



 14 15  0  0  0  0  0  0  0  0999 V2000
  -13.0190   -8.7615   10.3707 C   0  0  0  0  0  0  0  0  0  0  0  0
  -13.0806  -10.1586   10.4925 C   0  0  0  0  0  0  0  0  0  0  0  0
  -12.6930  -10.7130   11.6921 C   0  0  0  0  0  0  0  0  0  0  0  0
  -12.2692   -9.9374   12.7452 C   0  0  0  0  0  0  0  0  0  0  0  0
  -12.2153   -8.5619   12.6635 C   0  0  0  0  0  0  0  0  0  0  0  0
  -12.6024   -7.9625   11.4575 C   0  0  0  0  0  0  0  0  0  0  0  0
  -12.6013   -6.0632   11.4003 Br  0  0  0  0  0  0  0  0  0  0  0  0
  -11.9361  -10.6806   13.8340 O   0  0  0  0  0  0  0  0  0  0  0  0
  -12.1979  -12.0140   13.3471 C   0  0  0  0  0  0  0  0  0  0  0  0
  -12.6780  -12.0397   11.9863 O   0  0  0  0  0  0  0  0  0  0  0  0
  -12.6869   -7.7531    8.2256 O   0  0  0  0  0  0  0  0  0  0  0  0
  -13.4318   -8.2023    9.0746 C   0  0  0  0  0  0  0  0  0  0  0  0
  -14.7685   -8.1330    8.9724 O   0  0  0  0  0  0  0  0  0  0  0  0
  -15.3093   -8.4914    9.6485 H   0  0  0  0  0  0  0  0  0  0  0  0
 11 12  2  0
 12 13  1  0
 12  1  1  0
  1  2  2  0
  2  3  1  0
  3  4  2  0
  4  5  1  0
  5  6  2  0
  6  7  1  0
  4  8  1  0
  8  9  1  0
  9 10  1  0
  6  1  1  0
 10  3  1  0
 13 14  1  0
M  END
> <minimizedAffinity>
-4.64110

> <CNNscore>
0.3383123875

> <CNNaffinity>
2.4959208965

> <CNN_VS>
0.8444009423

> <CNNaffinity_variance>
1.1428780556

$$$$
