


 55 60  0  0  0  0  0  0  0  0999 V2000
   13.4522   23.3664    5.7313 C   0  0  0  0  0  0  0  0  0  0  0  0
   12.6222   22.4215    5.0215 O   0  0  0  0  0  0  0  0  0  0  0  0
   12.8227   22.4635    4.0733 H   0  0  0  0  0  0  0  0  0  0  0  0
   13.1366   24.8395    5.3188 C   0  0  0  0  0  0  0  0  0  0  0  0
   14.2027   25.3636    4.5267 O   0  0  0  0  0  0  0  0  0  0  0  0
   14.2900   24.8400    3.7148 H   0  0  0  0  0  0  0  0  0  0  0  0
   11.7637   24.9575    4.6254 C   0  0  0  0  0  0  0  0  0  0  0  0
   10.4867   23.8093    6.3289 O   0  0  0  0  0  0  0  0  0  0  0  0
   10.6099   24.8194    5.6319 C   0  0  0  0  0  0  0  0  0  0  0  0
    9.7849   25.9165    5.7250 N   0  0  0  0  0  0  0  0  0  0  0  0
    9.9543   26.6857    5.1343 H   0  0  0  0  0  0  0  0  0  0  0  0
    8.6765   25.9871    6.6567 C   0  0  0  0  0  0  0  0  0  0  0  0
    9.1005   26.5698    7.9793 C   0  0  0  0  0  0  0  0  0  0  0  0
    9.8567   25.9626    8.9747 C   0  0  0  0  0  0  0  0  0  0  0  0
   10.1689   26.6961   10.1219 C   0  0  0  0  0  0  0  0  0  0  0  0
    9.7240   28.0209   10.2636 C   0  0  0  0  0  0  0  0  0  0  0  0
    8.9635   28.6280    9.2602 C   0  0  0  0  0  0  0  0  0  0  0  0
    8.6566   27.8895    8.1274 C   0  0  0  0  0  0  0  0  0  0  0  0
    7.8870   28.3422    6.9296 C   0  0  0  0  0  0  0  0  0  0  0  0
    7.5946   27.0164    6.1977 C   0  0  0  0  0  0  0  0  0  0  0  0
    7.6174   27.2147    4.7775 O   0  0  0  0  0  0  0  0  0  0  0  0
    8.4880   27.5502    4.5119 H   0  0  0  0  0  0  0  0  0  0  0  0
   11.7005   23.9331    3.6226 O   0  0  0  0  0  0  0  0  0  0  0  0
   11.3921   24.4552    2.3262 C   0  0  0  0  0  0  0  0  0  0  0  0
    9.8969   24.4991    2.1883 C   0  0  0  0  0  0  0  0  0  0  0  0
    9.1172   23.3760    2.4983 C   0  0  0  0  0  0  0  0  0  0  0  0
    7.7270   23.4225    2.3780 C   0  0  0  0  0  0  0  0  0  0  0  0
    7.1011   24.5920    1.9497 C   0  0  0  0  0  0  0  0  0  0  0  0
    7.8645   25.7173    1.6456 C   0  0  0  0  0  0  0  0  0  0  0  0
    9.2555   25.6740    1.7687 C   0  0  0  0  0  0  0  0  0  0  0  0
   14.9434   22.9721    5.5373 C   0  0  0  0  0  0  0  0  0  0  0  0
   15.0675   21.4495    5.2760 C   0  0  0  0  0  0  0  0  0  0  0  0
   14.1120   20.6797    5.3132 O   0  0  0  0  0  0  0  0  0  0  0  0
   16.3561   21.0052    5.0757 N   0  0  0  0  0  0  0  0  0  0  0  0
   17.0740   21.6486    4.8758 H   0  0  0  0  0  0  0  0  0  0  0  0
   16.6521   19.5943    5.1597 C   0  0  0  0  0  0  0  0  0  0  0  0
   16.7926   18.9192    3.8213 C   0  0  0  0  0  0  0  0  0  0  0  0
   16.0241   19.0850    2.6774 C   0  0  0  0  0  0  0  0  0  0  0  0
   16.3065   18.2884    1.5645 C   0  0  0  0  0  0  0  0  0  0  0  0
   17.3405   17.3387    1.6064 C   0  0  0  0  0  0  0  0  0  0  0  0
   18.1063   17.1690    2.7646 C   0  0  0  0  0  0  0  0  0  0  0  0
   17.8254   17.9686    3.8607 C   0  0  0  0  0  0  0  0  0  0  0  0
   18.4920   17.9475    5.2101 C   0  0  0  0  0  0  0  0  0  0  0  0
   18.0564   19.3126    5.7733 C   0  0  0  0  0  0  0  0  0  0  0  0
   19.0181   20.3203    5.3804 O   0  0  0  0  0  0  0  0  0  0  0  0
   19.0885   20.3403    4.4131 H   0  0  0  0  0  0  0  0  0  0  0  0
   15.6925   23.4198    6.6731 O   0  0  0  0  0  0  0  0  0  0  0  0
   15.0533   23.1606    7.9202 C   0  0  0  0  0  0  0  0  0  0  0  0
   15.9029   22.1454    8.6420 C   0  0  0  0  0  0  0  0  0  0  0  0
   17.2819   22.0658    8.3841 C   0  0  0  0  0  0  0  0  0  0  0  0
   18.0692   21.1056    9.0252 C   0  0  0  0  0  0  0  0  0  0  0  0
   17.4833   20.2188    9.9270 C   0  0  0  0  0  0  0  0  0  0  0  0
   18.4579   19.0453   10.7240 Cl  0  0  0  0  0  0  0  0  0  0  0  0
   16.1109   20.2720   10.1798 C   0  0  0  0  0  0  0  0  0  0  0  0
   15.3211   21.2287    9.5339 C   0  0  0  0  0  0  0  0  0  0  0  0
  8  9  2  0
  9 10  1  0
 12 10  1  0
 12 13  1  0
 13 14  2  0
 14 15  1  0
 15 16  2  0
 16 17  1  0
 17 18  2  0
 18 19  1  0
 19 20  1  0
 20 21  1  0
  9  7  1  0
  7 23  1  0
 23 24  1  0
 24 25  1  0
 25 26  2  0
 26 27  1  0
 27 28  2  0
 28 29  1  0
 29 30  2  0
  7  4  1  0
  4  5  1  0
  4  1  1  0
  1  2  1  0
  1 31  1  0
 31 47  1  0
 47 48  1  0
 48 49  1  0
 49 50  2  0
 50 51  1  0
 51 52  2  0
 52 53  1  0
 52 54  1  0
 54 55  2  0
 31 32  1  0
 32 33  2  0
 32 34  1  0
 36 34  1  0
 36 37  1  0
 37 38  2  0
 38 39  1  0
 39 40  2  0
 40 41  1  0
 41 42  2  0
 42 43  1  0
 43 44  1  0
 44 45  1  0
 20 12  1  0
 30 25  1  0
 55 49  1  0
 44 36  1  0
 18 13  1  0
 42 37  1  0
 10 11  1  0
 21 22  1  0
  5  6  1  0
  2  3  1  0
 34 35  1  0
 45 46  1  0
M  END
> <minimizedAffinity>
-13.13111

> <CNNscore>
0.9839245081

> <CNNaffinity>
9.7766456604

> <CNN_VS>
9.6194810867

> <CNNaffinity_variance>
0.4693317413

$$$$



 55 60  0  0  0  0  0  0  0  0999 V2000
   13.0743   24.0285    6.0734 C   0  0  0  0  0  0  0  0  0  0  0  0
   13.3968   24.9712    7.1189 O   0  0  0  0  0  0  0  0  0  0  0  0
   13.6728   25.8122    6.7220 H   0  0  0  0  0  0  0  0  0  0  0  0
   14.3246   23.6729    5.2076 C   0  0  0  0  0  0  0  0  0  0  0  0
   14.8219   24.8461    4.5632 O   0  0  0  0  0  0  0  0  0  0  0  0
   15.0982   25.4906    5.2334 H   0  0  0  0  0  0  0  0  0  0  0  0
   15.4035   22.9428    6.0339 C   0  0  0  0  0  0  0  0  0  0  0  0
   14.2158   20.8368    6.1044 O   0  0  0  0  0  0  0  0  0  0  0  0
   15.2839   21.4165    5.8941 C   0  0  0  0  0  0  0  0  0  0  0  0
   16.4272   20.7801    5.4686 N   0  0  0  0  0  0  0  0  0  0  0  0
   17.2384   21.3175    5.3192 H   0  0  0  0  0  0  0  0  0  0  0  0
   16.4868   19.3513    5.2310 C   0  0  0  0  0  0  0  0  0  0  0  0
   16.1897   19.0158    3.7930 C   0  0  0  0  0  0  0  0  0  0  0  0
   14.9580   19.0389    3.1496 C   0  0  0  0  0  0  0  0  0  0  0  0
   14.9048   18.7207    1.7905 C   0  0  0  0  0  0  0  0  0  0  0  0
   16.0754   18.3828    1.0914 C   0  0  0  0  0  0  0  0  0  0  0  0
   17.3122   18.3605    1.7421 C   0  0  0  0  0  0  0  0  0  0  0  0
   17.3528   18.6748    3.0921 C   0  0  0  0  0  0  0  0  0  0  0  0
   18.5577   18.7403    3.9730 C   0  0  0  0  0  0  0  0  0  0  0  0
   17.9387   18.7955    5.3847 C   0  0  0  0  0  0  0  0  0  0  0  0
   18.7353   19.6193    6.2470 O   0  0  0  0  0  0  0  0  0  0  0  0
   18.7902   20.5149    5.8784 H   0  0  0  0  0  0  0  0  0  0  0  0
   15.2458   23.3508    7.4005 O   0  0  0  0  0  0  0  0  0  0  0  0
   16.4957   23.4414    8.0918 C   0  0  0  0  0  0  0  0  0  0  0  0
   16.6868   22.1716    8.8715 C   0  0  0  0  0  0  0  0  0  0  0  0
   17.9522   21.5761    8.9689 C   0  0  0  0  0  0  0  0  0  0  0  0
   18.1286   20.4010    9.7017 C   0  0  0  0  0  0  0  0  0  0  0  0
   17.0437   19.8101   10.3473 C   0  0  0  0  0  0  0  0  0  0  0  0
   15.7823   20.3963   10.2642 C   0  0  0  0  0  0  0  0  0  0  0  0
   15.6043   21.5742    9.5343 C   0  0  0  0  0  0  0  0  0  0  0  0
   11.8816   24.5837    5.2450 C   0  0  0  0  0  0  0  0  0  0  0  0
   10.6736   24.8762    6.1709 C   0  0  0  0  0  0  0  0  0  0  0  0
   10.2967   24.1063    7.0497 O   0  0  0  0  0  0  0  0  0  0  0  0
    9.9962   26.0398    5.8793 N   0  0  0  0  0  0  0  0  0  0  0  0
   10.4102   26.7193    5.2995 H   0  0  0  0  0  0  0  0  0  0  0  0
    8.6779   26.2613    6.4256 C   0  0  0  0  0  0  0  0  0  0  0  0
    8.6679   27.1017    7.6748 C   0  0  0  0  0  0  0  0  0  0  0  0
    9.5332   27.0600    8.7593 C   0  0  0  0  0  0  0  0  0  0  0  0
    9.2797   27.9014    9.8459 C   0  0  0  0  0  0  0  0  0  0  0  0
    8.1715   28.7643    9.8412 C   0  0  0  0  0  0  0  0  0  0  0  0
    7.2972   28.7962    8.7497 C   0  0  0  0  0  0  0  0  0  0  0  0
    7.5604   27.9649    7.6729 C   0  0  0  0  0  0  0  0  0  0  0  0
    6.7534   27.8091    6.4118 C   0  0  0  0  0  0  0  0  0  0  0  0
    7.7796   27.1250    5.4902 C   0  0  0  0  0  0  0  0  0  0  0  0
    8.5513   28.1365    4.8005 O   0  0  0  0  0  0  0  0  0  0  0  0
    8.9845   28.7118    5.4504 H   0  0  0  0  0  0  0  0  0  0  0  0
   11.5826   23.6631    4.1893 O   0  0  0  0  0  0  0  0  0  0  0  0
   11.5503   24.2631    2.8970 C   0  0  0  0  0  0  0  0  0  0  0  0
   10.0972   24.4293    2.5305 C   0  0  0  0  0  0  0  0  0  0  0  0
    9.6151   25.6763    2.0982 C   0  0  0  0  0  0  0  0  0  0  0  0
    8.2629   25.8455    1.7884 C   0  0  0  0  0  0  0  0  0  0  0  0
    7.3845   24.7701    1.9093 C   0  0  0  0  0  0  0  0  0  0  0  0
    5.7221   24.9785    1.5153 Cl  0  0  0  0  0  0  0  0  0  0  0  0
    7.8440   23.5292    2.3561 C   0  0  0  0  0  0  0  0  0  0  0  0
    9.1960   23.3608    2.6724 C   0  0  0  0  0  0  0  0  0  0  0  0
  8  9  2  0
  9 10  1  0
 12 10  1  0
 12 13  1  0
 13 14  2  0
 14 15  1  0
 15 16  2  0
 16 17  1  0
 17 18  2  0
 18 19  1  0
 19 20  1  0
 20 21  1  0
  9  7  1  0
  7 23  1  0
 23 24  1  0
 24 25  1  0
 25 26  2  0
 26 27  1  0
 27 28  2  0
 28 29  1  0
 29 30  2  0
  7  4  1  0
  4  5  1  0
  4  1  1  0
  1  2  1  0
  1 31  1  0
 31 47  1  0
 47 48  1  0
 48 49  1  0
 49 50  2  0
 50 51  1  0
 51 52  2  0
 52 53  1  0
 52 54  1  0
 54 55  2  0
 31 32  1  0
 32 33  2  0
 32 34  1  0
 36 34  1  0
 36 37  1  0
 37 38  2  0
 38 39  1  0
 39 40  2  0
 40 41  1  0
 41 42  2  0
 42 43  1  0
 43 44  1  0
 44 45  1  0
 20 12  1  0
 30 25  1  0
 55 49  1  0
 44 36  1  0
 18 13  1  0
 42 37  1  0
 10 11  1  0
 21 22  1  0
  5  6  1  0
  2  3  1  0
 34 35  1  0
 45 46  1  0
M  END
> <minimizedAffinity>
-12.48227

> <CNNscore>
0.9780374169

> <CNNaffinity>
9.4022092819

> <CNN_VS>
9.1957120895

> <CNNaffinity_variance>
0.0197592396

$$$$



 55 60  0  0  0  0  0  0  0  0999 V2000
   13.6806   23.8800    5.0268 C   0  0  0  0  0  0  0  0  0  0  0  0
   14.7562   24.8250    4.8376 O   0  0  0  0  0  0  0  0  0  0  0  0
   14.9019   24.9634    3.8886 H   0  0  0  0  0  0  0  0  0  0  0  0
   14.0441   22.4682    4.4662 C   0  0  0  0  0  0  0  0  0  0  0  0
   15.3256   22.5076    3.8379 O   0  0  0  0  0  0  0  0  0  0  0  0
   15.9993   22.7499    4.4924 H   0  0  0  0  0  0  0  0  0  0  0  0
   13.9456   21.3784    5.5537 C   0  0  0  0  0  0  0  0  0  0  0  0
   16.2316   21.2773    6.3379 O   0  0  0  0  0  0  0  0  0  0  0  0
   15.0550   21.5310    6.6069 C   0  0  0  0  0  0  0  0  0  0  0  0
   14.6381   22.0183    7.8243 N   0  0  0  0  0  0  0  0  0  0  0  0
   13.6796   22.1995    7.9567 H   0  0  0  0  0  0  0  0  0  0  0  0
   15.5517   22.2760    8.9200 C   0  0  0  0  0  0  0  0  0  0  0  0
   16.2368   21.0154    9.3784 C   0  0  0  0  0  0  0  0  0  0  0  0
   15.6944   19.9716   10.1186 C   0  0  0  0  0  0  0  0  0  0  0  0
   16.4993   18.8688   10.4135 C   0  0  0  0  0  0  0  0  0  0  0  0
   17.8314   18.8200    9.9702 C   0  0  0  0  0  0  0  0  0  0  0  0
   18.3734   19.8718    9.2261 C   0  0  0  0  0  0  0  0  0  0  0  0
   17.5663   20.9631    8.9421 C   0  0  0  0  0  0  0  0  0  0  0  0
   17.9258   22.1753    8.1465 C   0  0  0  0  0  0  0  0  0  0  0  0
   16.7701   23.1442    8.4703 C   0  0  0  0  0  0  0  0  0  0  0  0
   16.4568   23.9479    7.3246 O   0  0  0  0  0  0  0  0  0  0  0  0
   16.2044   23.3728    6.5854 H   0  0  0  0  0  0  0  0  0  0  0  0
   14.0296   20.1065    4.8948 O   0  0  0  0  0  0  0  0  0  0  0  0
   15.2124   19.3835    5.2506 C   0  0  0  0  0  0  0  0  0  0  0  0
   15.8255   18.8482    3.9880 C   0  0  0  0  0  0  0  0  0  0  0  0
   16.8437   17.8860    4.0399 C   0  0  0  0  0  0  0  0  0  0  0  0
   17.4054   17.3835    2.8646 C   0  0  0  0  0  0  0  0  0  0  0  0
   16.9537   17.8346    1.6254 C   0  0  0  0  0  0  0  0  0  0  0  0
   15.9371   18.7853    1.5605 C   0  0  0  0  0  0  0  0  0  0  0  0
   15.3713   19.2868    2.7353 C   0  0  0  0  0  0  0  0  0  0  0  0
   12.3771   24.4728    4.4216 C   0  0  0  0  0  0  0  0  0  0  0  0
   11.2945   24.6245    5.5203 C   0  0  0  0  0  0  0  0  0  0  0  0
   10.9753   23.7157    6.2813 O   0  0  0  0  0  0  0  0  0  0  0  0
   10.6523   25.8433    5.5280 N   0  0  0  0  0  0  0  0  0  0  0  0
   11.0362   26.6061    5.0379 H   0  0  0  0  0  0  0  0  0  0  0  0
    9.4151   26.0003    6.2560 C   0  0  0  0  0  0  0  0  0  0  0  0
    9.5546   26.7812    7.5358 C   0  0  0  0  0  0  0  0  0  0  0  0
   10.5591   26.7149    8.4913 C   0  0  0  0  0  0  0  0  0  0  0  0
   10.4354   27.4972    9.6426 C   0  0  0  0  0  0  0  0  0  0  0  0
    9.3171   28.3263    9.8292 C   0  0  0  0  0  0  0  0  0  0  0  0
    8.3029   28.3829    8.8675 C   0  0  0  0  0  0  0  0  0  0  0  0
    8.4374   27.6105    7.7251 C   0  0  0  0  0  0  0  0  0  0  0  0
    7.4713   27.4896    6.5771 C   0  0  0  0  0  0  0  0  0  0  0  0
    8.3790   26.8794    5.4935 C   0  0  0  0  0  0  0  0  0  0  0  0
    9.0270   27.9442    4.7581 O   0  0  0  0  0  0  0  0  0  0  0  0
    9.5307   28.5012    5.3720 H   0  0  0  0  0  0  0  0  0  0  0  0
   11.9635   23.6546    3.3211 O   0  0  0  0  0  0  0  0  0  0  0  0
   11.5069   24.3974    2.1938 C   0  0  0  0  0  0  0  0  0  0  0  0
   10.0014   24.4260    2.2723 C   0  0  0  0  0  0  0  0  0  0  0  0
    9.2906   23.2722    2.6438 C   0  0  0  0  0  0  0  0  0  0  0  0
    7.8938   23.2826    2.6868 C   0  0  0  0  0  0  0  0  0  0  0  0
    7.1990   24.4454    2.3583 C   0  0  0  0  0  0  0  0  0  0  0  0
    5.4792   24.4584    2.4241 Cl  0  0  0  0  0  0  0  0  0  0  0  0
    7.8897   25.5949    1.9684 C   0  0  0  0  0  0  0  0  0  0  0  0
    9.2875   25.5835    1.9191 C   0  0  0  0  0  0  0  0  0  0  0  0
  8  9  2  0
  9 10  1  0
 12 10  1  0
 12 13  1  0
 13 14  2  0
 14 15  1  0
 15 16  2  0
 16 17  1  0
 17 18  2  0
 18 19  1  0
 19 20  1  0
 20 21  1  0
  9  7  1  0
  7 23  1  0
 23 24  1  0
 24 25  1  0
 25 26  2  0
 26 27  1  0
 27 28  2  0
 28 29  1  0
 29 30  2  0
  7  4  1  0
  4  5  1  0
  4  1  1  0
  1  2  1  0
  1 31  1  0
 31 47  1  0
 47 48  1  0
 48 49  1  0
 49 50  2  0
 50 51  1  0
 51 52  2  0
 52 53  1  0
 52 54  1  0
 54 55  2  0
 31 32  1  0
 32 33  2  0
 32 34  1  0
 36 34  1  0
 36 37  1  0
 37 38  2  0
 38 39  1  0
 39 40  2  0
 40 41  1  0
 41 42  2  0
 42 43  1  0
 43 44  1  0
 44 45  1  0
 20 12  1  0
 30 25  1  0
 55 49  1  0
 44 36  1  0
 18 13  1  0
 42 37  1  0
 10 11  1  0
 21 22  1  0
  5  6  1  0
  2  3  1  0
 34 35  1  0
 45 46  1  0
M  END
> <minimizedAffinity>
-13.32200

> <CNNscore>
0.9358441234

> <CNNaffinity>
9.3722944260

> <CNN_VS>
8.7710065842

> <CNNaffinity_variance>
0.1503155380

$$$$



 55 60  0  0  0  0  0  0  0  0999 V2000
   13.7924   23.9190    5.5274 C   0  0  0  0  0  0  0  0  0  0  0  0
   13.9925   25.0662    4.6732 O   0  0  0  0  0  0  0  0  0  0  0  0
   14.5303   25.7259    5.1385 H   0  0  0  0  0  0  0  0  0  0  0  0
   12.9672   24.2827    6.8027 C   0  0  0  0  0  0  0  0  0  0  0  0
   13.2025   25.6437    7.1646 O   0  0  0  0  0  0  0  0  0  0  0  0
   12.9094   26.2249    6.4453 H   0  0  0  0  0  0  0  0  0  0  0  0
   11.4686   23.9628    6.6246 C   0  0  0  0  0  0  0  0  0  0  0  0
   11.4138   22.1147    5.0649 O   0  0  0  0  0  0  0  0  0  0  0  0
   11.1894   23.3116    5.2603 C   0  0  0  0  0  0  0  0  0  0  0  0
   10.6276   24.1462    4.3217 N   0  0  0  0  0  0  0  0  0  0  0  0
   10.4768   25.0896    4.5592 H   0  0  0  0  0  0  0  0  0  0  0  0
   10.2485   23.6941    2.9975 C   0  0  0  0  0  0  0  0  0  0  0  0
    8.7904   23.9506    2.7206 C   0  0  0  0  0  0  0  0  0  0  0  0
    7.6930   23.2685    3.2325 C   0  0  0  0  0  0  0  0  0  0  0  0
    6.4117   23.6907    2.8704 C   0  0  0  0  0  0  0  0  0  0  0  0
    6.2397   24.7830    2.0040 C   0  0  0  0  0  0  0  0  0  0  0  0
    7.3459   25.4663    1.4911 C   0  0  0  0  0  0  0  0  0  0  0  0
    8.6131   25.0365    1.8546 C   0  0  0  0  0  0  0  0  0  0  0  0
    9.9234   25.6301    1.4512 C   0  0  0  0  0  0  0  0  0  0  0  0
   10.9301   24.5412    1.8757 C   0  0  0  0  0  0  0  0  0  0  0  0
   12.1516   25.1403    2.3292 O   0  0  0  0  0  0  0  0  0  0  0  0
   11.9655   25.7249    3.0806 H   0  0  0  0  0  0  0  0  0  0  0  0
   10.7474   25.1951    6.7666 O   0  0  0  0  0  0  0  0  0  0  0  0
    9.5411   25.0389    7.5208 C   0  0  0  0  0  0  0  0  0  0  0  0
    9.3835   26.2480    8.3981 C   0  0  0  0  0  0  0  0  0  0  0  0
    8.1699   26.9486    8.4385 C   0  0  0  0  0  0  0  0  0  0  0  0
    8.0233   28.0667    9.2617 C   0  0  0  0  0  0  0  0  0  0  0  0
    9.0863   28.4947   10.0553 C   0  0  0  0  0  0  0  0  0  0  0  0
   10.2953   27.8024   10.0296 C   0  0  0  0  0  0  0  0  0  0  0  0
   10.4430   26.6813    9.2092 C   0  0  0  0  0  0  0  0  0  0  0  0
   15.1735   23.2783    5.8420 C   0  0  0  0  0  0  0  0  0  0  0  0
   15.1528   21.7648    5.5088 C   0  0  0  0  0  0  0  0  0  0  0  0
   14.1389   21.0754    5.5706 O   0  0  0  0  0  0  0  0  0  0  0  0
   16.3856   21.2260    5.2124 N   0  0  0  0  0  0  0  0  0  0  0  0
   17.1431   21.8168    4.9972 H   0  0  0  0  0  0  0  0  0  0  0  0
   16.5648   19.7931    5.2180 C   0  0  0  0  0  0  0  0  0  0  0  0
   16.6363   19.1813    3.8441 C   0  0  0  0  0  0  0  0  0  0  0  0
   15.8734   19.4706    2.7212 C   0  0  0  0  0  0  0  0  0  0  0  0
   16.0784   18.7143    1.5642 C   0  0  0  0  0  0  0  0  0  0  0  0
   17.0307   17.6822    1.5418 C   0  0  0  0  0  0  0  0  0  0  0  0
   17.7909   17.3885    2.6787 C   0  0  0  0  0  0  0  0  0  0  0  0
   17.5875   18.1486    3.8191 C   0  0  0  0  0  0  0  0  0  0  0  0
   18.2628   18.0007    5.1562 C   0  0  0  0  0  0  0  0  0  0  0  0
   17.9468   19.3648    5.7963 C   0  0  0  0  0  0  0  0  0  0  0  0
   18.9846   20.3099    5.4436 O   0  0  0  0  0  0  0  0  0  0  0  0
   19.0472   20.3758    4.4779 H   0  0  0  0  0  0  0  0  0  0  0  0
   15.5146   23.5587    7.2046 O   0  0  0  0  0  0  0  0  0  0  0  0
   14.8241   22.7438    8.1481 C   0  0  0  0  0  0  0  0  0  0  0  0
   15.8573   21.8562    8.7949 C   0  0  0  0  0  0  0  0  0  0  0  0
   17.2233   22.0512    8.5290 C   0  0  0  0  0  0  0  0  0  0  0  0
   18.1839   21.2116    9.0993 C   0  0  0  0  0  0  0  0  0  0  0  0
   17.7855   20.1720    9.9379 C   0  0  0  0  0  0  0  0  0  0  0  0
   18.9719   19.1474   10.6484 Cl  0  0  0  0  0  0  0  0  0  0  0  0
   16.4308   19.9528   10.1969 C   0  0  0  0  0  0  0  0  0  0  0  0
   15.4683   20.7888    9.6216 C   0  0  0  0  0  0  0  0  0  0  0  0
  8  9  2  0
  9 10  1  0
 12 10  1  0
 12 13  1  0
 13 14  2  0
 14 15  1  0
 15 16  2  0
 16 17  1  0
 17 18  2  0
 18 19  1  0
 19 20  1  0
 20 21  1  0
  9  7  1  0
  7 23  1  0
 23 24  1  0
 24 25  1  0
 25 26  2  0
 26 27  1  0
 27 28  2  0
 28 29  1  0
 29 30  2  0
  7  4  1  0
  4  5  1  0
  4  1  1  0
  1  2  1  0
  1 31  1  0
 31 47  1  0
 47 48  1  0
 48 49  1  0
 49 50  2  0
 50 51  1  0
 51 52  2  0
 52 53  1  0
 52 54  1  0
 54 55  2  0
 31 32  1  0
 32 33  2  0
 32 34  1  0
 36 34  1  0
 36 37  1  0
 37 38  2  0
 38 39  1  0
 39 40  2  0
 40 41  1  0
 41 42  2  0
 42 43  1  0
 43 44  1  0
 44 45  1  0
 20 12  1  0
 30 25  1  0
 55 49  1  0
 44 36  1  0
 18 13  1  0
 42 37  1  0
 10 11  1  0
 21 22  1  0
  5  6  1  0
  2  3  1  0
 34 35  1  0
 45 46  1  0
M  END
> <minimizedAffinity>
-13.16325

> <CNNscore>
0.8912593126

> <CNNaffinity>
9.0129480362

> <CNN_VS>
8.0328741074

> <CNNaffinity_variance>
0.0262018871

$$$$



 55 60  0  0  0  0  0  0  0  0999 V2000
   13.5217   24.0802    5.1835 C   0  0  0  0  0  0  0  0  0  0  0  0
   14.6356   24.8557    4.6899 O   0  0  0  0  0  0  0  0  0  0  0  0
   14.7062   24.7447    3.7289 H   0  0  0  0  0  0  0  0  0  0  0  0
   13.7424   22.5486    4.9712 C   0  0  0  0  0  0  0  0  0  0  0  0
   14.0164   22.2809    3.5957 O   0  0  0  0  0  0  0  0  0  0  0  0
   14.8311   22.7376    3.3335 H   0  0  0  0  0  0  0  0  0  0  0  0
   14.8271   21.9908    5.9157 C   0  0  0  0  0  0  0  0  0  0  0  0
   15.4872   19.6657    5.8183 O   0  0  0  0  0  0  0  0  0  0  0  0
   15.5464   20.7816    5.2962 C   0  0  0  0  0  0  0  0  0  0  0  0
   16.1949   21.0358    4.1096 N   0  0  0  0  0  0  0  0  0  0  0  0
   16.1914   21.9552    3.7577 H   0  0  0  0  0  0  0  0  0  0  0  0
   16.8830   20.0061    3.3561 C   0  0  0  0  0  0  0  0  0  0  0  0
   17.4641   18.9518    4.2613 C   0  0  0  0  0  0  0  0  0  0  0  0
   18.5821   19.0542    5.0805 C   0  0  0  0  0  0  0  0  0  0  0  0
   18.9364   17.9594    5.8724 C   0  0  0  0  0  0  0  0  0  0  0  0
   18.1758   16.7789    5.8374 C   0  0  0  0  0  0  0  0  0  0  0  0
   17.0522   16.6797    5.0120 C   0  0  0  0  0  0  0  0  0  0  0  0
   16.7118   17.7714    4.2277 C   0  0  0  0  0  0  0  0  0  0  0  0
   15.5465   17.8953    3.3010 C   0  0  0  0  0  0  0  0  0  0  0  0
   15.8955   19.1602    2.4901 C   0  0  0  0  0  0  0  0  0  0  0  0
   14.7047   19.8933    2.1719 O   0  0  0  0  0  0  0  0  0  0  0  0
   14.2510   20.1447    2.9916 H   0  0  0  0  0  0  0  0  0  0  0  0
   14.1815   21.6337    7.1464 O   0  0  0  0  0  0  0  0  0  0  0  0
   14.7151   22.3424    8.2695 C   0  0  0  0  0  0  0  0  0  0  0  0
   15.9385   21.6093    8.7411 C   0  0  0  0  0  0  0  0  0  0  0  0
   17.2190   22.0423    8.3694 C   0  0  0  0  0  0  0  0  0  0  0  0
   18.3547   21.3645    8.8166 C   0  0  0  0  0  0  0  0  0  0  0  0
   18.2233   20.2491    9.6421 C   0  0  0  0  0  0  0  0  0  0  0  0
   16.9563   19.8132   10.0246 C   0  0  0  0  0  0  0  0  0  0  0  0
   15.8186   20.4922    9.5811 C   0  0  0  0  0  0  0  0  0  0  0  0
   12.2114   24.6149    4.5401 C   0  0  0  0  0  0  0  0  0  0  0  0
   11.1133   24.7874    5.6202 C   0  0  0  0  0  0  0  0  0  0  0  0
   10.7842   23.8937    6.3948 O   0  0  0  0  0  0  0  0  0  0  0  0
   10.4700   26.0054    5.5944 N   0  0  0  0  0  0  0  0  0  0  0  0
   10.8600   26.7585    5.0946 H   0  0  0  0  0  0  0  0  0  0  0  0
    9.2225   26.1754    6.3017 C   0  0  0  0  0  0  0  0  0  0  0  0
    9.3529   26.9335    7.5961 C   0  0  0  0  0  0  0  0  0  0  0  0
   10.3377   26.8325    8.5690 C   0  0  0  0  0  0  0  0  0  0  0  0
   10.2075   27.5991    9.7301 C   0  0  0  0  0  0  0  0  0  0  0  0
    9.1022   28.4472    9.9090 C   0  0  0  0  0  0  0  0  0  0  0  0
    8.1077   28.5388    8.9296 C   0  0  0  0  0  0  0  0  0  0  0  0
    8.2487   27.7817    7.7777 C   0  0  0  0  0  0  0  0  0  0  0  0
    7.3024   27.6978    6.6102 C   0  0  0  0  0  0  0  0  0  0  0  0
    8.2184   27.0866    5.5341 C   0  0  0  0  0  0  0  0  0  0  0  0
    8.9008   28.1497    4.8279 O   0  0  0  0  0  0  0  0  0  0  0  0
    9.4035   28.6870    5.4599 H   0  0  0  0  0  0  0  0  0  0  0  0
   11.8296   23.7406    3.4718 O   0  0  0  0  0  0  0  0  0  0  0  0
   11.4261   24.4236    2.2879 C   0  0  0  0  0  0  0  0  0  0  0  0
    9.9183   24.4311    2.2821 C   0  0  0  0  0  0  0  0  0  0  0  0
    9.2182   25.6008    1.9416 C   0  0  0  0  0  0  0  0  0  0  0  0
    7.8212   25.6239    1.9660 C   0  0  0  0  0  0  0  0  0  0  0  0
    7.1155   24.4789    2.3314 C   0  0  0  0  0  0  0  0  0  0  0  0
    5.3947   24.5070    2.3487 Cl  0  0  0  0  0  0  0  0  0  0  0  0
    7.7965   23.3139    2.6914 C   0  0  0  0  0  0  0  0  0  0  0  0
    9.1949   23.2919    2.6732 C   0  0  0  0  0  0  0  0  0  0  0  0
  8  9  2  0
  9 10  1  0
 12 10  1  0
 12 13  1  0
 13 14  2  0
 14 15  1  0
 15 16  2  0
 16 17  1  0
 17 18  2  0
 18 19  1  0
 19 20  1  0
 20 21  1  0
  9  7  1  0
  7 23  1  0
 23 24  1  0
 24 25  1  0
 25 26  2  0
 26 27  1  0
 27 28  2  0
 28 29  1  0
 29 30  2  0
  7  4  1  0
  4  5  1  0
  4  1  1  0
  1  2  1  0
  1 31  1  0
 31 47  1  0
 47 48  1  0
 48 49  1  0
 49 50  2  0
 50 51  1  0
 51 52  2  0
 52 53  1  0
 52 54  1  0
 54 55  2  0
 31 32  1  0
 32 33  2  0
 32 34  1  0
 36 34  1  0
 36 37  1  0
 37 38  2  0
 38 39  1  0
 39 40  2  0
 40 41  1  0
 41 42  2  0
 42 43  1  0
 43 44  1  0
 44 45  1  0
 20 12  1  0
 30 25  1  0
 55 49  1  0
 44 36  1  0
 18 13  1  0
 42 37  1  0
 10 11  1  0
 21 22  1  0
  5  6  1  0
  2  3  1  0
 34 35  1  0
 45 46  1  0
M  END
> <minimizedAffinity>
-11.53250

> <CNNscore>
0.8284792304

> <CNNaffinity>
8.9132051468

> <CNN_VS>
7.3844051361

> <CNNaffinity_variance>
0.0817264393

$$$$



 55 60  0  0  0  0  0  0  0  0999 V2000
   12.8002   24.1629    6.0736 C   0  0  0  0  0  0  0  0  0  0  0  0
   13.0977   25.1000    7.1314 O   0  0  0  0  0  0  0  0  0  0  0  0
   13.3391   25.9568    6.7460 H   0  0  0  0  0  0  0  0  0  0  0  0
   14.0546   23.8673    5.1912 C   0  0  0  0  0  0  0  0  0  0  0  0
   14.5409   25.0788    4.6127 O   0  0  0  0  0  0  0  0  0  0  0  0
   14.8104   25.6883    5.3175 H   0  0  0  0  0  0  0  0  0  0  0  0
   15.1399   23.1036    5.9778 C   0  0  0  0  0  0  0  0  0  0  0  0
   13.9003   21.0265    5.9810 O   0  0  0  0  0  0  0  0  0  0  0  0
   14.9887   21.5824    5.8151 C   0  0  0  0  0  0  0  0  0  0  0  0
   16.1306   20.9233    5.4217 N   0  0  0  0  0  0  0  0  0  0  0  0
   16.9593   21.4424    5.3073 H   0  0  0  0  0  0  0  0  0  0  0  0
   16.1643   19.4962    5.1687 C   0  0  0  0  0  0  0  0  0  0  0  0
   15.9594   19.1873    3.7089 C   0  0  0  0  0  0  0  0  0  0  0  0
   14.7773   19.2558    2.9811 C   0  0  0  0  0  0  0  0  0  0  0  0
   14.8105   18.9558    1.6173 C   0  0  0  0  0  0  0  0  0  0  0  0
   16.0170   18.5905    0.9972 C   0  0  0  0  0  0  0  0  0  0  0  0
   17.2036   18.5225    1.7326 C   0  0  0  0  0  0  0  0  0  0  0  0
   17.1584   18.8192    3.0864 C   0  0  0  0  0  0  0  0  0  0  0  0
   18.2996   18.8371    4.0504 C   0  0  0  0  0  0  0  0  0  0  0  0
   17.5846   18.8944    5.4159 C   0  0  0  0  0  0  0  0  0  0  0  0
   18.3426   19.6830    6.3434 O   0  0  0  0  0  0  0  0  0  0  0  0
   18.4500   20.5808    5.9923 H   0  0  0  0  0  0  0  0  0  0  0  0
   15.0236   23.4905    7.3546 O   0  0  0  0  0  0  0  0  0  0  0  0
   16.2914   23.5438    8.0166 C   0  0  0  0  0  0  0  0  0  0  0  0
   16.4440   22.2879    8.8266 C   0  0  0  0  0  0  0  0  0  0  0  0
   17.6717   21.6128    8.8742 C   0  0  0  0  0  0  0  0  0  0  0  0
   17.8133   20.4508    9.6351 C   0  0  0  0  0  0  0  0  0  0  0  0
   16.7310   19.9529   10.3588 C   0  0  0  0  0  0  0  0  0  0  0  0
   15.5076   20.6190   10.3256 C   0  0  0  0  0  0  0  0  0  0  0  0
   15.3647   21.7838    9.5676 C   0  0  0  0  0  0  0  0  0  0  0  0
   11.5803   24.6870    5.2648 C   0  0  0  0  0  0  0  0  0  0  0  0
   10.5094   25.2681    6.2227 C   0  0  0  0  0  0  0  0  0  0  0  0
    9.4741   24.6761    6.5138 O   0  0  0  0  0  0  0  0  0  0  0  0
   10.7692   26.5465    6.6654 N   0  0  0  0  0  0  0  0  0  0  0  0
   11.6711   26.9287    6.5670 H   0  0  0  0  0  0  0  0  0  0  0  0
    9.7163   27.3251    7.2742 C   0  0  0  0  0  0  0  0  0  0  0  0
    8.3649   27.1251    6.6412 C   0  0  0  0  0  0  0  0  0  0  0  0
    8.0402   27.0220    5.2956 C   0  0  0  0  0  0  0  0  0  0  0  0
    6.6929   26.9068    4.9429 C   0  0  0  0  0  0  0  0  0  0  0  0
    5.6919   26.9014    5.9281 C   0  0  0  0  0  0  0  0  0  0  0  0
    6.0234   27.0146    7.2823 C   0  0  0  0  0  0  0  0  0  0  0  0
    7.3621   27.1199    7.6241 C   0  0  0  0  0  0  0  0  0  0  0  0
    7.9507   27.2771    9.0005 C   0  0  0  0  0  0  0  0  0  0  0  0
    9.4165   26.8853    8.7386 C   0  0  0  0  0  0  0  0  0  0  0  0
    9.5654   25.4552    8.9032 O   0  0  0  0  0  0  0  0  0  0  0  0
    8.9608   24.9955    8.2998 H   0  0  0  0  0  0  0  0  0  0  0  0
   11.0888   23.6310    4.4314 O   0  0  0  0  0  0  0  0  0  0  0  0
   11.1168   23.9380    3.0399 C   0  0  0  0  0  0  0  0  0  0  0  0
    9.6995   24.2568    2.6361 C   0  0  0  0  0  0  0  0  0  0  0  0
    9.4114   25.4466    1.9463 C   0  0  0  0  0  0  0  0  0  0  0  0
    8.0957   25.7638    1.5979 C   0  0  0  0  0  0  0  0  0  0  0  0
    7.0603   24.8947    1.9372 C   0  0  0  0  0  0  0  0  0  0  0  0
    5.4425   25.2824    1.4960 Cl  0  0  0  0  0  0  0  0  0  0  0  0
    7.3274   23.7176    2.6397 C   0  0  0  0  0  0  0  0  0  0  0  0
    8.6432   23.4024    2.9943 C   0  0  0  0  0  0  0  0  0  0  0  0
  8  9  2  0
  9 10  1  0
 12 10  1  0
 12 13  1  0
 13 14  2  0
 14 15  1  0
 15 16  2  0
 16 17  1  0
 17 18  2  0
 18 19  1  0
 19 20  1  0
 20 21  1  0
  9  7  1  0
  7 23  1  0
 23 24  1  0
 24 25  1  0
 25 26  2  0
 26 27  1  0
 27 28  2  0
 28 29  1  0
 29 30  2  0
  7  4  1  0
  4  5  1  0
  4  1  1  0
  1  2  1  0
  1 31  1  0
 31 47  1  0
 47 48  1  0
 48 49  1  0
 49 50  2  0
 50 51  1  0
 51 52  2  0
 52 53  1  0
 52 54  1  0
 54 55  2  0
 31 32  1  0
 32 33  2  0
 32 34  1  0
 36 34  1  0
 36 37  1  0
 37 38  2  0
 38 39  1  0
 39 40  2  0
 40 41  1  0
 41 42  2  0
 42 43  1  0
 43 44  1  0
 44 45  1  0
 20 12  1  0
 30 25  1  0
 55 49  1  0
 44 36  1  0
 18 13  1  0
 42 37  1  0
 10 11  1  0
 21 22  1  0
  5  6  1  0
  2  3  1  0
 34 35  1  0
 45 46  1  0
M  END
> <minimizedAffinity>
-11.68790

> <CNNscore>
0.7978717685

> <CNNaffinity>
8.9485836029

> <CNN_VS>
7.1398220062

> <CNNaffinity_variance>
0.0371646062

$$$$



 55 60  0  0  0  0  0  0  0  0999 V2000
   12.4993   22.6032    5.8601 C   0  0  0  0  0  0  0  0  0  0  0  0
   11.5286   21.9895    4.9844 O   0  0  0  0  0  0  0  0  0  0  0  0
   11.9545   21.7513    4.1461 H   0  0  0  0  0  0  0  0  0  0  0  0
   13.0302   23.9534    5.2813 C   0  0  0  0  0  0  0  0  0  0  0  0
   13.8744   23.7042    4.1570 O   0  0  0  0  0  0  0  0  0  0  0  0
   13.3634   23.2629    3.4606 H   0  0  0  0  0  0  0  0  0  0  0  0
   11.8796   24.9293    4.9594 C   0  0  0  0  0  0  0  0  0  0  0  0
   10.6678   23.8357    6.7445 O   0  0  0  0  0  0  0  0  0  0  0  0
   10.7227   24.7873    5.9618 C   0  0  0  0  0  0  0  0  0  0  0  0
    9.8115   25.8181    5.9480 N   0  0  0  0  0  0  0  0  0  0  0  0
    9.9297   26.5436    5.2931 H   0  0  0  0  0  0  0  0  0  0  0  0
    8.6845   25.8804    6.8578 C   0  0  0  0  0  0  0  0  0  0  0  0
    9.0390   26.6037    8.1304 C   0  0  0  0  0  0  0  0  0  0  0  0
    9.8217   26.1433    9.1826 C   0  0  0  0  0  0  0  0  0  0  0  0
   10.0563   26.9929   10.2663 C   0  0  0  0  0  0  0  0  0  0  0  0
    9.5087   28.2863   10.2894 C   0  0  0  0  0  0  0  0  0  0  0  0
    8.7219   28.7456    9.2294 C   0  0  0  0  0  0  0  0  0  0  0  0
    8.4927   27.8926    8.1604 C   0  0  0  0  0  0  0  0  0  0  0  0
    7.7122   28.1815    6.9197 C   0  0  0  0  0  0  0  0  0  0  0  0
    7.5353   26.7800    6.3004 C   0  0  0  0  0  0  0  0  0  0  0  0
    7.5681   26.8591    4.8689 O   0  0  0  0  0  0  0  0  0  0  0  0
    8.4150   27.2377    4.5854 H   0  0  0  0  0  0  0  0  0  0  0  0
   11.4420   24.6497    3.6218 O   0  0  0  0  0  0  0  0  0  0  0  0
   10.3931   23.6767    3.5817 C   0  0  0  0  0  0  0  0  0  0  0  0
    9.2370   24.2728    2.8304 C   0  0  0  0  0  0  0  0  0  0  0  0
    7.9742   23.6648    2.8621 C   0  0  0  0  0  0  0  0  0  0  0  0
    6.8991   24.2260    2.1703 C   0  0  0  0  0  0  0  0  0  0  0  0
    7.0735   25.4018    1.4423 C   0  0  0  0  0  0  0  0  0  0  0  0
    8.3219   26.0197    1.4090 C   0  0  0  0  0  0  0  0  0  0  0  0
    9.3982   25.4617    2.1034 C   0  0  0  0  0  0  0  0  0  0  0  0
   13.6228   21.5735    6.1670 C   0  0  0  0  0  0  0  0  0  0  0  0
   14.5978   22.1419    7.2293 C   0  0  0  0  0  0  0  0  0  0  0  0
   15.0595   23.2784    7.1801 O   0  0  0  0  0  0  0  0  0  0  0  0
   14.9762   21.2412    8.2006 N   0  0  0  0  0  0  0  0  0  0  0  0
   14.4683   20.4069    8.3241 H   0  0  0  0  0  0  0  0  0  0  0  0
   16.1189   21.5228    9.0374 C   0  0  0  0  0  0  0  0  0  0  0  0
   16.7081   20.3041    9.6966 C   0  0  0  0  0  0  0  0  0  0  0  0
   16.0542   19.2303   10.2848 C   0  0  0  0  0  0  0  0  0  0  0  0
   16.8231   18.2387   10.9000 C   0  0  0  0  0  0  0  0  0  0  0  0
   18.2243   18.3312   10.9264 C   0  0  0  0  0  0  0  0  0  0  0  0
   18.8783   19.4199   10.3402 C   0  0  0  0  0  0  0  0  0  0  0  0
   18.1091   20.3944    9.7249 C   0  0  0  0  0  0  0  0  0  0  0  0
   18.5849   21.6567    9.0571 C   0  0  0  0  0  0  0  0  0  0  0  0
   17.3462   22.0317    8.2233 C   0  0  0  0  0  0  0  0  0  0  0  0
   17.4280   21.3875    6.9299 O   0  0  0  0  0  0  0  0  0  0  0  0
   17.4986   20.4276    7.0507 H   0  0  0  0  0  0  0  0  0  0  0  0
   14.2646   21.2086    4.9397 O   0  0  0  0  0  0  0  0  0  0  0  0
   15.6817   21.0984    5.0440 C   0  0  0  0  0  0  0  0  0  0  0  0
   16.1099   20.0423    4.0566 C   0  0  0  0  0  0  0  0  0  0  0  0
   15.2927   19.7291    2.9573 C   0  0  0  0  0  0  0  0  0  0  0  0
   15.6679   18.7286    2.0567 C   0  0  0  0  0  0  0  0  0  0  0  0
   16.8613   18.0347    2.2495 C   0  0  0  0  0  0  0  0  0  0  0  0
   17.3265   16.8115    1.1317 Cl  0  0  0  0  0  0  0  0  0  0  0  0
   17.6754   18.3206    3.3477 C   0  0  0  0  0  0  0  0  0  0  0  0
   17.2974   19.3175    4.2530 C   0  0  0  0  0  0  0  0  0  0  0  0
  8  9  2  0
  9 10  1  0
 12 10  1  0
 12 13  1  0
 13 14  2  0
 14 15  1  0
 15 16  2  0
 16 17  1  0
 17 18  2  0
 18 19  1  0
 19 20  1  0
 20 21  1  0
  9  7  1  0
  7 23  1  0
 23 24  1  0
 24 25  1  0
 25 26  2  0
 26 27  1  0
 27 28  2  0
 28 29  1  0
 29 30  2  0
  7  4  1  0
  4  5  1  0
  4  1  1  0
  1  2  1  0
  1 31  1  0
 31 47  1  0
 47 48  1  0
 48 49  1  0
 49 50  2  0
 50 51  1  0
 51 52  2  0
 52 53  1  0
 52 54  1  0
 54 55  2  0
 31 32  1  0
 32 33  2  0
 32 34  1  0
 36 34  1  0
 36 37  1  0
 37 38  2  0
 38 39  1  0
 39 40  2  0
 40 41  1  0
 41 42  2  0
 42 43  1  0
 43 44  1  0
 44 45  1  0
 20 12  1  0
 30 25  1  0
 55 49  1  0
 44 36  1  0
 18 13  1  0
 42 37  1  0
 10 11  1  0
 21 22  1  0
  5  6  1  0
  2  3  1  0
 34 35  1  0
 45 46  1  0
M  END
> <minimizedAffinity>
-11.29773

> <CNNscore>
0.7194154859

> <CNNaffinity>
8.9094533920

> <CNN_VS>
6.4095988274

> <CNNaffinity_variance>
0.1826966405

$$$$



 55 60  0  0  0  0  0  0  0  0999 V2000
   12.6656   23.1538    5.7011 C   0  0  0  0  0  0  0  0  0  0  0  0
   12.8351   22.9340    7.1183 O   0  0  0  0  0  0  0  0  0  0  0  0
   13.0733   23.7699    7.5489 H   0  0  0  0  0  0  0  0  0  0  0  0
   14.0006   23.5910    5.0185 C   0  0  0  0  0  0  0  0  0  0  0  0
   14.0389   25.0123    4.8868 O   0  0  0  0  0  0  0  0  0  0  0  0
   14.0078   25.4195    5.7667 H   0  0  0  0  0  0  0  0  0  0  0  0
   15.2320   23.0265    5.7567 C   0  0  0  0  0  0  0  0  0  0  0  0
   14.2235   20.8542    6.0962 O   0  0  0  0  0  0  0  0  0  0  0  0
   15.2280   21.4892    5.7659 C   0  0  0  0  0  0  0  0  0  0  0  0
   16.3930   20.9020    5.3289 N   0  0  0  0  0  0  0  0  0  0  0  0
   17.1488   21.4815    5.0795 H   0  0  0  0  0  0  0  0  0  0  0  0
   16.5541   19.4653    5.2206 C   0  0  0  0  0  0  0  0  0  0  0  0
   16.2373   18.9754    3.8320 C   0  0  0  0  0  0  0  0  0  0  0  0
   14.9873   18.8477    3.2379 C   0  0  0  0  0  0  0  0  0  0  0  0
   14.9148   18.4003    1.9167 C   0  0  0  0  0  0  0  0  0  0  0  0
   16.0847   18.0848    1.2060 C   0  0  0  0  0  0  0  0  0  0  0  0
   17.3399   18.2143    1.8070 C   0  0  0  0  0  0  0  0  0  0  0  0
   17.3999   18.6561    3.1200 C   0  0  0  0  0  0  0  0  0  0  0  0
   18.6240   18.8920    3.9433 C   0  0  0  0  0  0  0  0  0  0  0  0
   18.0484   19.0342    5.3673 C   0  0  0  0  0  0  0  0  0  0  0  0
   18.8071   19.9914    6.1189 O   0  0  0  0  0  0  0  0  0  0  0  0
   18.7815   20.8500    5.6682 H   0  0  0  0  0  0  0  0  0  0  0  0
   15.2093   23.5516    7.0919 O   0  0  0  0  0  0  0  0  0  0  0  0
   16.4843   23.4630    7.7361 C   0  0  0  0  0  0  0  0  0  0  0  0
   16.4468   22.2936    8.6783 C   0  0  0  0  0  0  0  0  0  0  0  0
   15.3073   22.0364    9.4533 C   0  0  0  0  0  0  0  0  0  0  0  0
   15.2718   20.9435   10.3214 C   0  0  0  0  0  0  0  0  0  0  0  0
   16.3728   20.0947   10.4222 C   0  0  0  0  0  0  0  0  0  0  0  0
   17.5085   20.3355    9.6518 C   0  0  0  0  0  0  0  0  0  0  0  0
   17.5448   21.4264    8.7798 C   0  0  0  0  0  0  0  0  0  0  0  0
   11.4980   24.1567    5.4830 C   0  0  0  0  0  0  0  0  0  0  0  0
   11.0352   24.1302    4.0041 C   0  0  0  0  0  0  0  0  0  0  0  0
   11.7796   24.3814    3.0609 O   0  0  0  0  0  0  0  0  0  0  0  0
    9.6919   23.8798    3.8280 N   0  0  0  0  0  0  0  0  0  0  0  0
    9.1577   23.5118    4.5685 H   0  0  0  0  0  0  0  0  0  0  0  0
    9.0688   24.1582    2.5554 C   0  0  0  0  0  0  0  0  0  0  0  0
    7.5644   24.1083    2.5882 C   0  0  0  0  0  0  0  0  0  0  0  0
    6.7371   23.1988    3.2324 C   0  0  0  0  0  0  0  0  0  0  0  0
    5.3554   23.3170    3.0593 C   0  0  0  0  0  0  0  0  0  0  0  0
    4.8187   24.3298    2.2475 C   0  0  0  0  0  0  0  0  0  0  0  0
    5.6570   25.2385    1.5932 C   0  0  0  0  0  0  0  0  0  0  0  0
    7.0251   25.1196    1.7768 C   0  0  0  0  0  0  0  0  0  0  0  0
    8.1127   25.9579    1.1602 C   0  0  0  0  0  0  0  0  0  0  0  0
    9.2982   25.6258    2.0847 C   0  0  0  0  0  0  0  0  0  0  0  0
    9.3049   26.5456    3.2021 O   0  0  0  0  0  0  0  0  0  0  0  0
    8.4590   26.4880    3.6733 H   0  0  0  0  0  0  0  0  0  0  0  0
   11.9117   25.4534    5.9290 O   0  0  0  0  0  0  0  0  0  0  0  0
   12.1455   25.5296    7.3328 C   0  0  0  0  0  0  0  0  0  0  0  0
   10.9945   26.3037    7.9242 C   0  0  0  0  0  0  0  0  0  0  0  0
    9.9547   26.7652    7.0994 C   0  0  0  0  0  0  0  0  0  0  0  0
    8.9018   27.5112    7.6357 C   0  0  0  0  0  0  0  0  0  0  0  0
    8.8819   27.8011    8.9989 C   0  0  0  0  0  0  0  0  0  0  0  0
    7.5774   28.7098    9.6585 Cl  0  0  0  0  0  0  0  0  0  0  0  0
    9.9175   27.3664    9.8290 C   0  0  0  0  0  0  0  0  0  0  0  0
   10.9749   26.6250    9.2918 C   0  0  0  0  0  0  0  0  0  0  0  0
  8  9  2  0
  9 10  1  0
 12 10  1  0
 12 13  1  0
 13 14  2  0
 14 15  1  0
 15 16  2  0
 16 17  1  0
 17 18  2  0
 18 19  1  0
 19 20  1  0
 20 21  1  0
  9  7  1  0
  7 23  1  0
 23 24  1  0
 24 25  1  0
 25 26  2  0
 26 27  1  0
 27 28  2  0
 28 29  1  0
 29 30  2  0
  7  4  1  0
  4  5  1  0
  4  1  1  0
  1  2  1  0
  1 31  1  0
 31 47  1  0
 47 48  1  0
 48 49  1  0
 49 50  2  0
 50 51  1  0
 51 52  2  0
 52 53  1  0
 52 54  1  0
 54 55  2  0
 31 32  1  0
 32 33  2  0
 32 34  1  0
 36 34  1  0
 36 37  1  0
 37 38  2  0
 38 39  1  0
 39 40  2  0
 40 41  1  0
 41 42  2  0
 42 43  1  0
 43 44  1  0
 44 45  1  0
 20 12  1  0
 30 25  1  0
 55 49  1  0
 44 36  1  0
 18 13  1  0
 42 37  1  0
 10 11  1  0
 21 22  1  0
  5  6  1  0
  2  3  1  0
 34 35  1  0
 45 46  1  0
M  END
> <minimizedAffinity>
-11.77855

> <CNNscore>
0.6809399724

> <CNNaffinity>
8.7479619980

> <CNN_VS>
5.9568371773

> <CNNaffinity_variance>
0.0037293695

$$$$



 55 60  0  0  0  0  0  0  0  0999 V2000
   14.0128   23.8507    5.2318 C   0  0  0  0  0  0  0  0  0  0  0  0
   14.5077   25.0443    4.5868 O   0  0  0  0  0  0  0  0  0  0  0  0
   14.8685   25.6472    5.2555 H   0  0  0  0  0  0  0  0  0  0  0  0
   12.8128   24.1605    6.1824 C   0  0  0  0  0  0  0  0  0  0  0  0
   13.2817   24.3330    7.5200 O   0  0  0  0  0  0  0  0  0  0  0  0
   13.8905   25.0874    7.5545 H   0  0  0  0  0  0  0  0  0  0  0  0
   11.9816   25.3598    5.6818 C   0  0  0  0  0  0  0  0  0  0  0  0
   10.0791   24.9387    7.1151 O   0  0  0  0  0  0  0  0  0  0  0  0
   10.8998   25.7596    6.6984 C   0  0  0  0  0  0  0  0  0  0  0  0
   10.9642   27.0633    7.1336 N   0  0  0  0  0  0  0  0  0  0  0  0
   11.6535   27.6542    6.7531 H   0  0  0  0  0  0  0  0  0  0  0  0
   10.0591   27.6029    8.1292 C   0  0  0  0  0  0  0  0  0  0  0  0
    8.6223   27.4894    7.6915 C   0  0  0  0  0  0  0  0  0  0  0  0
    7.9626   28.2445    6.7291 C   0  0  0  0  0  0  0  0  0  0  0  0
    6.6254   27.9540    6.4487 C   0  0  0  0  0  0  0  0  0  0  0  0
    5.9632   26.9190    7.1295 C   0  0  0  0  0  0  0  0  0  0  0  0
    6.6301   26.1620    8.0969 C   0  0  0  0  0  0  0  0  0  0  0  0
    7.9563   26.4613    8.3696 C   0  0  0  0  0  0  0  0  0  0  0  0
    8.8626   25.7706    9.3358 C   0  0  0  0  0  0  0  0  0  0  0  0
   10.0530   26.7464    9.4357 C   0  0  0  0  0  0  0  0  0  0  0  0
   11.2794   26.0221    9.6029 O   0  0  0  0  0  0  0  0  0  0  0  0
   11.4077   25.4253    8.8490 H   0  0  0  0  0  0  0  0  0  0  0  0
   11.3974   24.9823    4.4268 O   0  0  0  0  0  0  0  0  0  0  0  0
   10.3351   24.0356    4.5808 C   0  0  0  0  0  0  0  0  0  0  0  0
    9.2790   24.3547    3.5613 C   0  0  0  0  0  0  0  0  0  0  0  0
    8.1526   23.5326    3.4177 C   0  0  0  0  0  0  0  0  0  0  0  0
    7.1680   23.8366    2.4756 C   0  0  0  0  0  0  0  0  0  0  0  0
    7.2968   24.9665    1.6695 C   0  0  0  0  0  0  0  0  0  0  0  0
    8.4081   25.7956    1.8078 C   0  0  0  0  0  0  0  0  0  0  0  0
    9.3927   25.4951    2.7523 C   0  0  0  0  0  0  0  0  0  0  0  0
   15.1966   23.1322    5.9384 C   0  0  0  0  0  0  0  0  0  0  0  0
   15.2034   21.6249    5.5778 C   0  0  0  0  0  0  0  0  0  0  0  0
   14.2062   20.9120    5.6442 O   0  0  0  0  0  0  0  0  0  0  0  0
   16.4424   21.1192    5.2506 N   0  0  0  0  0  0  0  0  0  0  0  0
   17.1828   21.7306    5.0334 H   0  0  0  0  0  0  0  0  0  0  0  0
   16.6533   19.6908    5.2267 C   0  0  0  0  0  0  0  0  0  0  0  0
   16.7062   19.1044    3.8410 C   0  0  0  0  0  0  0  0  0  0  0  0
   15.9111   19.3958    2.7412 C   0  0  0  0  0  0  0  0  0  0  0  0
   16.1058   18.6641    1.5666 C   0  0  0  0  0  0  0  0  0  0  0  0
   17.0799   17.6541    1.5042 C   0  0  0  0  0  0  0  0  0  0  0  0
   17.8726   17.3581    2.6180 C   0  0  0  0  0  0  0  0  0  0  0  0
   17.6790   18.0939    3.7760 C   0  0  0  0  0  0  0  0  0  0  0  0
   18.3884   17.9383    5.0945 C   0  0  0  0  0  0  0  0  0  0  0  0
   18.0574   19.2838    5.7657 C   0  0  0  0  0  0  0  0  0  0  0  0
   19.0657   20.2578    5.4060 O   0  0  0  0  0  0  0  0  0  0  0  0
   19.1043   20.3417    4.4404 H   0  0  0  0  0  0  0  0  0  0  0  0
   15.1164   23.3825    7.3464 O   0  0  0  0  0  0  0  0  0  0  0  0
   16.3868   23.4868    7.9837 C   0  0  0  0  0  0  0  0  0  0  0  0
   16.6316   22.1739    8.6838 C   0  0  0  0  0  0  0  0  0  0  0  0
   15.6037   21.5644    9.4230 C   0  0  0  0  0  0  0  0  0  0  0  0
   15.8334   20.3643   10.1011 C   0  0  0  0  0  0  0  0  0  0  0  0
   17.0914   19.7666   10.0454 C   0  0  0  0  0  0  0  0  0  0  0  0
   17.3675   18.2823   10.8718 Cl  0  0  0  0  0  0  0  0  0  0  0  0
   18.1291   20.3695    9.3312 C   0  0  0  0  0  0  0  0  0  0  0  0
   17.9017   21.5738    8.6572 C   0  0  0  0  0  0  0  0  0  0  0  0
  8  9  2  0
  9 10  1  0
 12 10  1  0
 12 13  1  0
 13 14  2  0
 14 15  1  0
 15 16  2  0
 16 17  1  0
 17 18  2  0
 18 19  1  0
 19 20  1  0
 20 21  1  0
  9  7  1  0
  7 23  1  0
 23 24  1  0
 24 25  1  0
 25 26  2  0
 26 27  1  0
 27 28  2  0
 28 29  1  0
 29 30  2  0
  7  4  1  0
  4  5  1  0
  4  1  1  0
  1  2  1  0
  1 31  1  0
 31 47  1  0
 47 48  1  0
 48 49  1  0
 49 50  2  0
 50 51  1  0
 51 52  2  0
 52 53  1  0
 52 54  1  0
 54 55  2  0
 31 32  1  0
 32 33  2  0
 32 34  1  0
 36 34  1  0
 36 37  1  0
 37 38  2  0
 38 39  1  0
 39 40  2  0
 40 41  1  0
 41 42  2  0
 42 43  1  0
 43 44  1  0
 44 45  1  0
 20 12  1  0
 30 25  1  0
 55 49  1  0
 44 36  1  0
 18 13  1  0
 42 37  1  0
 10 11  1  0
 21 22  1  0
  5  6  1  0
  2  3  1  0
 34 35  1  0
 45 46  1  0
M  END
> <minimizedAffinity>
-11.12356

> <CNNscore>
0.6735438108

> <CNNaffinity>
9.1183423996

> <CNN_VS>
6.1416029930

> <CNNaffinity_variance>
0.3630643189

$$$$
