


 50 53  0  0  0  0  0  0  0  0999 V2000
   -1.7302   19.4329   17.5447 C   0  0  0  0  0  0  0  0  0  0  0  0
    0.0873   20.8794   19.5060 C   0  0  0  0  0  0  0  0  0  0  0  0
    1.0501   20.9380   20.7099 C   0  0  0  0  0  0  0  0  0  0  0  0
    1.6150   19.5561   21.0491 C   0  0  0  0  0  0  0  0  0  0  0  0
    2.3368   18.9082   19.8643 C   0  0  0  0  0  0  0  0  0  0  0  0
    1.9985   19.5814   18.5394 C   0  0  0  0  0  0  0  0  0  0  0  0
    0.5660   19.9077   18.4928 N   0  0  0  0  0  0  0  0  0  0  0  0
   -0.2112   19.2276   17.5533 C   0  0  0  0  0  0  0  0  0  0  0  0
    0.3011   18.5000   16.7040 O   0  0  0  0  0  0  0  0  0  0  0  0
   -0.1103   22.2775   18.8204 C   0  0  0  0  0  0  0  0  0  0  0  0
    1.1794   23.0717   18.2421 N   0  0  0  0  0  0  0  0  0  0  0  0
    0.8689   24.5711   18.2908 C   0  0  0  0  0  0  0  0  0  0  0  0
    2.3451   22.7479   19.1518 C   0  0  0  0  0  0  0  0  0  0  0  0
    1.3031   22.5748   16.7922 C   0  0  0  0  0  0  0  0  0  0  0  0
    2.4414   22.9765   15.8030 N   0  0  0  0  0  0  0  0  0  0  0  0
    1.8994   23.7576   14.6213 C   0  0  0  0  0  0  0  0  0  0  0  0
    3.2387   24.0100   16.6697 C   0  0  0  0  0  0  0  0  0  0  0  0
    3.3290   21.7974   15.4608 C   0  0  0  0  0  0  0  0  0  0  0  0
    5.0503   23.1141   14.2847 C   0  0  0  0  0  0  0  0  0  0  0  0
    4.8334   21.9198   15.2844 N   0  0  0  0  0  0  0  0  0  0  0  0
    5.5627   20.7390   14.6444 C   0  0  0  0  0  0  0  0  0  0  0  0
    5.5898   22.3434   16.5578 C   0  0  0  0  0  0  0  0  0  0  0  0
   -2.2324   19.6264   16.1697 N   0  0  0  0  0  0  0  0  0  0  0  0
   -2.9793   18.9435   16.0428 H   0  0  0  0  0  0  0  0  0  0  0  0
   -2.8397   21.0790   15.6334 S   0  0  0  0  0  0  0  0  0  0  0  0
   -2.4299   22.1180   16.5389 O   0  0  0  0  0  0  0  0  0  0  0  0
   -2.5295   21.1495   14.2058 O   0  0  0  0  0  0  0  0  0  0  0  0
   -4.6086   21.0009   15.6918 C   0  0  0  0  0  0  0  0  0  0  0  0
   -5.3248   21.7922   14.7848 C   0  0  0  0  0  0  0  0  0  0  0  0
   -6.7119   21.6797   14.7047 C   0  0  0  0  0  0  0  0  0  0  0  0
   -7.3970   20.7669   15.5187 C   0  0  0  0  0  0  0  0  0  0  0  0
   -8.7902   20.6234   15.4354 C   0  0  0  0  0  0  0  0  0  0  0  0
   -9.4589   19.7194   16.2619 C   0  0  0  0  0  0  0  0  0  0  0  0
   -8.7459   18.9549   17.1843 C   0  0  0  0  0  0  0  0  0  0  0  0
   -7.3611   19.0963   17.2881 C   0  0  0  0  0  0  0  0  0  0  0  0
   -6.6726   19.9982   16.4632 C   0  0  0  0  0  0  0  0  0  0  0  0
   -5.2810   20.1513   16.5638 C   0  0  0  0  0  0  0  0  0  0  0  0
   -2.5093   18.3141   18.2648 C   0  0  0  0  0  0  0  0  0  0  0  0
   -1.9678   16.9149   18.1422 C   0  0  0  0  0  0  0  0  0  0  0  0
   -1.2294   16.3262   19.1776 C   0  0  0  0  0  0  0  0  0  0  0  0
   -0.7798   15.0072   19.0683 C   0  0  0  0  0  0  0  0  0  0  0  0
   -1.0519   14.2646   17.9204 C   0  0  0  0  0  0  0  0  0  0  0  0
   -1.7483   14.8509   16.8669 C   0  0  0  0  0  0  0  0  0  0  0  0
   -2.2104   16.1696   16.9756 C   0  0  0  0  0  0  0  0  0  0  0  0
   -2.0037   14.0725   15.6260 C   0  0  0  0  0  0  0  0  0  0  0  0
   -3.0271   14.3681   14.8976 N   0  0  0  0  0  0  0  0  0  0  0  0
   -1.1638   13.0491   15.2824 N   0  0  0  0  0  0  0  0  0  0  0  0
   -3.6211   15.1081   15.1601 H   0  0  0  0  0  0  0  0  0  0  0  0
   -0.3877   12.8375   15.8500 H   0  0  0  0  0  0  0  0  0  0  0  0
   -1.3353   12.5241   14.4674 H   0  0  0  0  0  0  0  0  0  0  0  0
 19 20  1  0
 20 21  1  0
 20 22  1  0
 20 18  1  0
 18 15  1  0
 15 16  1  0
 15 17  1  0
 15 14  1  0
 14 11  1  0
 11 12  1  0
 11 13  1  0
 11 10  1  0
  2 10  1  0
  2  3  1  0
  3  4  1  0
  4  5  1  0
  5  6  1  0
  6  7  1  0
  7  8  1  0
  8  9  2  0
  8  1  1  0
  1 38  1  0
 38 39  1  0
 39 40  2  0
 40 41  1  0
 41 42  2  0
 42 43  1  0
 43 45  1  0
 45 46  2  0
 45 47  1  0
 43 44  2  0
  1 23  1  0
 23 25  1  0
 25 26  2  0
 25 27  2  0
 25 28  1  0
 28 29  2  0
 29 30  1  0
 30 31  2  0
 31 32  1  0
 32 33  2  0
 33 34  1  0
 34 35  2  0
 35 36  1  0
 36 37  2  0
  7  2  1  0
 44 39  1  0
 37 28  1  0
 36 31  1  0
 46 48  1  0
 47 49  1  0
 47 50  1  0
 23 24  1  0
M  CHG 1  11   1
M  CHG 1  15   1
M  CHG 1  20   1
M  END
> <minimizedAffinity>
-7.88626

> <CNNscore>
0.9318069220

> <CNNaffinity>
8.0664901733

> <CNN_VS>
7.5164113045

> <CNNaffinity_variance>
0.4118384421

$$$$



 50 53  0  0  0  0  0  0  0  0999 V2000
   -1.9670   19.6537   17.4304 C   0  0  0  0  0  0  0  0  0  0  0  0
   -1.6957   20.5586   20.3200 C   0  0  0  0  0  0  0  0  0  0  0  0
   -1.4928   20.3141   21.8296 C   0  0  0  0  0  0  0  0  0  0  0  0
   -0.9089   18.9257   22.1033 C   0  0  0  0  0  0  0  0  0  0  0  0
    0.4189   18.6919   21.3773 C   0  0  0  0  0  0  0  0  0  0  0  0
    0.6576   19.7039   20.2630 C   0  0  0  0  0  0  0  0  0  0  0  0
   -0.5940   19.9526   19.5333 N   0  0  0  0  0  0  0  0  0  0  0  0
   -0.6477   19.5363   18.2017 C   0  0  0  0  0  0  0  0  0  0  0  0
    0.3522   19.1172   17.6206 O   0  0  0  0  0  0  0  0  0  0  0  0
   -1.8005   22.0834   19.9626 C   0  0  0  0  0  0  0  0  0  0  0  0
   -3.2523   22.8053   19.9650 N   0  0  0  0  0  0  0  0  0  0  0  0
   -3.4833   23.3922   21.3611 C   0  0  0  0  0  0  0  0  0  0  0  0
   -3.1999   23.9116   18.9332 C   0  0  0  0  0  0  0  0  0  0  0  0
   -4.2371   21.6614   19.6712 C   0  0  0  0  0  0  0  0  0  0  0  0
   -5.6806   21.8465   19.1075 N   0  0  0  0  0  0  0  0  0  0  0  0
   -6.5277   22.7085   20.0238 C   0  0  0  0  0  0  0  0  0  0  0  0
   -5.3955   22.7217   17.8395 C   0  0  0  0  0  0  0  0  0  0  0  0
   -6.2950   20.5248   18.6940 C   0  0  0  0  0  0  0  0  0  0  0  0
   -8.0048   18.8759   18.0327 C   0  0  0  0  0  0  0  0  0  0  0  0
   -7.7874   20.2483   18.7689 N   0  0  0  0  0  0  0  0  0  0  0  0
   -8.7184   21.2261   18.0527 C   0  0  0  0  0  0  0  0  0  0  0  0
   -8.3178   20.0069   20.1948 C   0  0  0  0  0  0  0  0  0  0  0  0
   -1.7236   19.8198   15.9836 N   0  0  0  0  0  0  0  0  0  0  0  0
   -2.5360   19.4215   15.5126 H   0  0  0  0  0  0  0  0  0  0  0  0
   -1.4671   21.3062   15.2826 S   0  0  0  0  0  0  0  0  0  0  0  0
   -2.4254   21.4953   14.2275 O   0  0  0  0  0  0  0  0  0  0  0  0
   -1.3504   22.2623   16.3832 O   0  0  0  0  0  0  0  0  0  0  0  0
    0.1396   21.3023   14.5363 C   0  0  0  0  0  0  0  0  0  0  0  0
    0.2372   21.7116   13.2004 C   0  0  0  0  0  0  0  0  0  0  0  0
    1.4887   21.8434   12.6008 C   0  0  0  0  0  0  0  0  0  0  0  0
    2.6559   21.5816   13.3320 C   0  0  0  0  0  0  0  0  0  0  0  0
    3.9246   21.7314   12.7520 C   0  0  0  0  0  0  0  0  0  0  0  0
    5.0766   21.4543   13.4894 C   0  0  0  0  0  0  0  0  0  0  0  0
    4.9745   21.0184   14.8097 C   0  0  0  0  0  0  0  0  0  0  0  0
    3.7187   20.8519   15.3960 C   0  0  0  0  0  0  0  0  0  0  0  0
    2.5505   21.1285   14.6704 C   0  0  0  0  0  0  0  0  0  0  0  0
    1.2832   20.9590   15.2494 C   0  0  0  0  0  0  0  0  0  0  0  0
   -2.9440   18.4910   17.6961 C   0  0  0  0  0  0  0  0  0  0  0  0
   -2.3512   17.1123   17.8144 C   0  0  0  0  0  0  0  0  0  0  0  0
   -1.7812   16.6650   19.0140 C   0  0  0  0  0  0  0  0  0  0  0  0
   -1.2833   15.3633   19.1217 C   0  0  0  0  0  0  0  0  0  0  0  0
   -1.3381   14.4972   18.0308 C   0  0  0  0  0  0  0  0  0  0  0  0
   -1.8636   14.9422   16.8207 C   0  0  0  0  0  0  0  0  0  0  0  0
   -2.3737   16.2430   16.7104 C   0  0  0  0  0  0  0  0  0  0  0  0
   -1.8854   14.0320   15.6452 C   0  0  0  0  0  0  0  0  0  0  0  0
   -1.0503   13.0493   15.5951 N   0  0  0  0  0  0  0  0  0  0  0  0
   -2.7752   14.2554   14.6307 N   0  0  0  0  0  0  0  0  0  0  0  0
   -0.4168   12.9035   16.3345 H   0  0  0  0  0  0  0  0  0  0  0  0
   -3.4051   15.0099   14.6856 H   0  0  0  0  0  0  0  0  0  0  0  0
   -2.7856   13.6616   13.8454 H   0  0  0  0  0  0  0  0  0  0  0  0
 19 20  1  0
 20 21  1  0
 20 22  1  0
 20 18  1  0
 18 15  1  0
 15 16  1  0
 15 17  1  0
 15 14  1  0
 14 11  1  0
 11 12  1  0
 11 13  1  0
 11 10  1  0
  2 10  1  0
  2  3  1  0
  3  4  1  0
  4  5  1  0
  5  6  1  0
  6  7  1  0
  7  8  1  0
  8  9  2  0
  8  1  1  0
  1 38  1  0
 38 39  1  0
 39 40  2  0
 40 41  1  0
 41 42  2  0
 42 43  1  0
 43 45  1  0
 45 46  2  0
 45 47  1  0
 43 44  2  0
  1 23  1  0
 23 25  1  0
 25 26  2  0
 25 27  2  0
 25 28  1  0
 28 29  2  0
 29 30  1  0
 30 31  2  0
 31 32  1  0
 32 33  2  0
 33 34  1  0
 34 35  2  0
 35 36  1  0
 36 37  2  0
  7  2  1  0
 44 39  1  0
 37 28  1  0
 36 31  1  0
 46 48  1  0
 47 49  1  0
 47 50  1  0
 23 24  1  0
M  CHG 1  11   1
M  CHG 1  15   1
M  CHG 1  20   1
M  END
> <minimizedAffinity>
-8.21757

> <CNNscore>
0.7849559188

> <CNNaffinity>
7.6590981483

> <CNN_VS>
6.0120544434

> <CNNaffinity_variance>
0.4150561392

$$$$



 50 53  0  0  0  0  0  0  0  0999 V2000
   -2.1722   19.8434   17.3748 C   0  0  0  0  0  0  0  0  0  0  0  0
    0.7202   20.7793   17.3903 C   0  0  0  0  0  0  0  0  0  0  0  0
    2.1664   20.8017   16.8540 C   0  0  0  0  0  0  0  0  0  0  0  0
    2.2511   20.2356   15.4341 C   0  0  0  0  0  0  0  0  0  0  0  0
    1.3426   20.9771   14.4496 C   0  0  0  0  0  0  0  0  0  0  0  0
    0.2904   21.8243   15.1553 C   0  0  0  0  0  0  0  0  0  0  0  0
   -0.2485   21.0953   16.3125 N   0  0  0  0  0  0  0  0  0  0  0  0
   -1.5906   20.7147   16.2559 C   0  0  0  0  0  0  0  0  0  0  0  0
   -2.3281   21.0993   15.3496 O   0  0  0  0  0  0  0  0  0  0  0  0
    0.5014   21.7761   18.5829 C   0  0  0  0  0  0  0  0  0  0  0  0
    1.3569   21.5878   19.9471 N   0  0  0  0  0  0  0  0  0  0  0  0
    0.5999   22.2916   21.0778 C   0  0  0  0  0  0  0  0  0  0  0  0
    1.4397   20.1008   20.2177 C   0  0  0  0  0  0  0  0  0  0  0  0
    2.6922   22.2898   19.6489 C   0  0  0  0  0  0  0  0  0  0  0  0
    3.9454   22.2602   20.5785 N   0  0  0  0  0  0  0  0  0  0  0  0
    4.1106   20.9075   21.2441 C   0  0  0  0  0  0  0  0  0  0  0  0
    5.1006   22.3626   19.5249 C   0  0  0  0  0  0  0  0  0  0  0  0
    3.9851   23.4585   21.5047 C   0  0  0  0  0  0  0  0  0  0  0  0
    5.9148   24.9926   21.5501 C   0  0  0  0  0  0  0  0  0  0  0  0
    5.2075   23.8245   22.3299 N   0  0  0  0  0  0  0  0  0  0  0  0
    6.2879   22.7560   22.4944 C   0  0  0  0  0  0  0  0  0  0  0  0
    4.8849   24.4255   23.7111 C   0  0  0  0  0  0  0  0  0  0  0  0
   -3.1093   20.6144   18.2160 N   0  0  0  0  0  0  0  0  0  0  0  0
   -3.0406   21.5823   17.9016 H   0  0  0  0  0  0  0  0  0  0  0  0
   -4.7345   20.2696   18.2950 S   0  0  0  0  0  0  0  0  0  0  0  0
   -4.9167   18.8500   18.1576 O   0  0  0  0  0  0  0  0  0  0  0  0
   -5.2496   20.9927   19.4573 O   0  0  0  0  0  0  0  0  0  0  0  0
   -5.5364   21.0367   16.9140 C   0  0  0  0  0  0  0  0  0  0  0  0
   -5.1235   22.3264   16.5564 C   0  0  0  0  0  0  0  0  0  0  0  0
   -5.6335   22.9286   15.4073 C   0  0  0  0  0  0  0  0  0  0  0  0
   -6.5501   22.2450   14.5962 C   0  0  0  0  0  0  0  0  0  0  0  0
   -7.0563   22.8262   13.4238 C   0  0  0  0  0  0  0  0  0  0  0  0
   -7.9780   22.1377   12.6340 C   0  0  0  0  0  0  0  0  0  0  0  0
   -8.4093   20.8661   13.0091 C   0  0  0  0  0  0  0  0  0  0  0  0
   -7.9248   20.2805   14.1798 C   0  0  0  0  0  0  0  0  0  0  0  0
   -6.9957   20.9571   14.9841 C   0  0  0  0  0  0  0  0  0  0  0  0
   -6.5068   20.3788   16.1659 C   0  0  0  0  0  0  0  0  0  0  0  0
   -2.8271   18.5427   16.8683 C   0  0  0  0  0  0  0  0  0  0  0  0
   -2.2505   17.2458   17.3699 C   0  0  0  0  0  0  0  0  0  0  0  0
   -1.8331   17.1002   18.6998 C   0  0  0  0  0  0  0  0  0  0  0  0
   -1.3496   15.8728   19.1621 C   0  0  0  0  0  0  0  0  0  0  0  0
   -1.2662   14.7804   18.3003 C   0  0  0  0  0  0  0  0  0  0  0  0
   -1.6381   14.9227   16.9660 C   0  0  0  0  0  0  0  0  0  0  0  0
   -2.1334   16.1482   16.5000 C   0  0  0  0  0  0  0  0  0  0  0  0
   -1.5113   13.7691   16.0366 C   0  0  0  0  0  0  0  0  0  0  0  0
   -2.2884   13.7013   15.0086 N   0  0  0  0  0  0  0  0  0  0  0  0
   -0.5879   12.7923   16.2899 N   0  0  0  0  0  0  0  0  0  0  0  0
   -2.9474   14.4135   14.8417 H   0  0  0  0  0  0  0  0  0  0  0  0
   -0.0031   12.8604   17.0790 H   0  0  0  0  0  0  0  0  0  0  0  0
   -0.5080   12.0212   15.6831 H   0  0  0  0  0  0  0  0  0  0  0  0
 19 20  1  0
 20 21  1  0
 20 22  1  0
 20 18  1  0
 18 15  1  0
 15 16  1  0
 15 17  1  0
 15 14  1  0
 14 11  1  0
 11 12  1  0
 11 13  1  0
 11 10  1  0
  2 10  1  0
  2  3  1  0
  3  4  1  0
  4  5  1  0
  5  6  1  0
  6  7  1  0
  7  8  1  0
  8  9  2  0
  8  1  1  0
  1 38  1  0
 38 39  1  0
 39 40  2  0
 40 41  1  0
 41 42  2  0
 42 43  1  0
 43 45  1  0
 45 46  2  0
 45 47  1  0
 43 44  2  0
  1 23  1  0
 23 25  1  0
 25 26  2  0
 25 27  2  0
 25 28  1  0
 28 29  2  0
 29 30  1  0
 30 31  2  0
 31 32  1  0
 32 33  2  0
 33 34  1  0
 34 35  2  0
 35 36  1  0
 36 37  2  0
  7  2  1  0
 44 39  1  0
 37 28  1  0
 36 31  1  0
 46 48  1  0
 47 49  1  0
 47 50  1  0
 23 24  1  0
M  CHG 1  11   1
M  CHG 1  15   1
M  CHG 1  20   1
M  END
> <minimizedAffinity>
-7.05246

> <CNNscore>
0.7251992822

> <CNNaffinity>
7.6960587502

> <CNN_VS>
5.5811762810

> <CNNaffinity_variance>
0.0118750930

$$$$



 50 53  0  0  0  0  0  0  0  0999 V2000
   -1.9452   18.4109   19.2942 C   0  0  0  0  0  0  0  0  0  0  0  0
    0.0939   20.5237   20.0819 C   0  0  0  0  0  0  0  0  0  0  0  0
    0.5844   21.7254   20.9156 C   0  0  0  0  0  0  0  0  0  0  0  0
   -0.2429   21.9028   22.1915 C   0  0  0  0  0  0  0  0  0  0  0  0
   -0.2417   20.6506   23.0728 C   0  0  0  0  0  0  0  0  0  0  0  0
    0.2332   19.4123   22.3218 C   0  0  0  0  0  0  0  0  0  0  0  0
   -0.3239   19.4050   20.9615 N   0  0  0  0  0  0  0  0  0  0  0  0
   -1.2365   18.3942   20.6532 C   0  0  0  0  0  0  0  0  0  0  0  0
   -1.4521   17.4664   21.4314 O   0  0  0  0  0  0  0  0  0  0  0  0
    1.1785   20.0037   19.0735 C   0  0  0  0  0  0  0  0  0  0  0  0
    1.4915   20.8549   17.7296 N   0  0  0  0  0  0  0  0  0  0  0  0
    1.4211   19.8948   16.5378 C   0  0  0  0  0  0  0  0  0  0  0  0
    0.4161   21.9138   17.6140 C   0  0  0  0  0  0  0  0  0  0  0  0
    2.9230   21.3745   17.9431 C   0  0  0  0  0  0  0  0  0  0  0  0
    3.7756   22.1152   16.8661 N   0  0  0  0  0  0  0  0  0  0  0  0
    3.1721   23.4601   16.5094 C   0  0  0  0  0  0  0  0  0  0  0  0
    5.0755   22.4323   17.6814 C   0  0  0  0  0  0  0  0  0  0  0  0
    4.1086   21.2123   15.6959 C   0  0  0  0  0  0  0  0  0  0  0  0
    6.1266   20.5188   14.4605 C   0  0  0  0  0  0  0  0  0  0  0  0
    5.0248   21.6363   14.5601 N   0  0  0  0  0  0  0  0  0  0  0  0
    5.8056   22.9381   14.7379 C   0  0  0  0  0  0  0  0  0  0  0  0
    4.3561   21.6404   13.1724 C   0  0  0  0  0  0  0  0  0  0  0  0
   -2.4926   19.7496   18.9968 N   0  0  0  0  0  0  0  0  0  0  0  0
   -1.6892   20.3740   18.9251 H   0  0  0  0  0  0  0  0  0  0  0  0
   -3.4355   20.0560   17.6613 S   0  0  0  0  0  0  0  0  0  0  0  0
   -3.0014   21.2863   17.0569 O   0  0  0  0  0  0  0  0  0  0  0  0
   -3.4806   18.8091   16.8982 O   0  0  0  0  0  0  0  0  0  0  0  0
   -5.1057   20.2979   18.2001 C   0  0  0  0  0  0  0  0  0  0  0  0
   -5.3185   21.1335   19.3038 C   0  0  0  0  0  0  0  0  0  0  0  0
   -6.6172   21.4551   19.6953 C   0  0  0  0  0  0  0  0  0  0  0  0
   -7.7162   20.9574   18.9814 C   0  0  0  0  0  0  0  0  0  0  0  0
   -9.0296   21.2892   19.3467 C   0  0  0  0  0  0  0  0  0  0  0  0
  -10.1134   20.7751   18.6336 C   0  0  0  0  0  0  0  0  0  0  0  0
   -9.8985   19.9198   17.5539 C   0  0  0  0  0  0  0  0  0  0  0  0
   -8.5980   19.5700   17.1869 C   0  0  0  0  0  0  0  0  0  0  0  0
   -7.4968   20.0797   17.8909 C   0  0  0  0  0  0  0  0  0  0  0  0
   -6.1856   19.7297   17.5328 C   0  0  0  0  0  0  0  0  0  0  0  0
   -1.0673   17.9028   18.1330 C   0  0  0  0  0  0  0  0  0  0  0  0
   -0.9714   16.4119   17.9490 C   0  0  0  0  0  0  0  0  0  0  0  0
   -0.3003   15.6050   18.8778 C   0  0  0  0  0  0  0  0  0  0  0  0
   -0.2666   14.2167   18.7190 C   0  0  0  0  0  0  0  0  0  0  0  0
   -0.8922   13.6187   17.6263 C   0  0  0  0  0  0  0  0  0  0  0  0
   -1.5266   14.4118   16.6738 C   0  0  0  0  0  0  0  0  0  0  0  0
   -1.5722   15.8034   16.8337 C   0  0  0  0  0  0  0  0  0  0  0  0
   -2.1591   13.7778   15.4869 C   0  0  0  0  0  0  0  0  0  0  0  0
   -3.1573   14.3647   14.9173 N   0  0  0  0  0  0  0  0  0  0  0  0
   -1.6870   12.5796   15.0257 N   0  0  0  0  0  0  0  0  0  0  0  0
   -3.4839   15.2269   15.2627 H   0  0  0  0  0  0  0  0  0  0  0  0
   -0.9245   12.1460   15.4727 H   0  0  0  0  0  0  0  0  0  0  0  0
   -2.1098   12.1509   14.2468 H   0  0  0  0  0  0  0  0  0  0  0  0
 19 20  1  0
 20 21  1  0
 20 22  1  0
 20 18  1  0
 18 15  1  0
 15 16  1  0
 15 17  1  0
 15 14  1  0
 14 11  1  0
 11 12  1  0
 11 13  1  0
 11 10  1  0
  2 10  1  0
  2  3  1  0
  3  4  1  0
  4  5  1  0
  5  6  1  0
  6  7  1  0
  7  8  1  0
  8  9  2  0
  8  1  1  0
  1 38  1  0
 38 39  1  0
 39 40  2  0
 40 41  1  0
 41 42  2  0
 42 43  1  0
 43 45  1  0
 45 46  2  0
 45 47  1  0
 43 44  2  0
  1 23  1  0
 23 25  1  0
 25 26  2  0
 25 27  2  0
 25 28  1  0
 28 29  2  0
 29 30  1  0
 30 31  2  0
 31 32  1  0
 32 33  2  0
 33 34  1  0
 34 35  2  0
 35 36  1  0
 36 37  2  0
  7  2  1  0
 44 39  1  0
 37 28  1  0
 36 31  1  0
 46 48  1  0
 47 49  1  0
 47 50  1  0
 23 24  1  0
M  CHG 1  11   1
M  CHG 1  15   1
M  CHG 1  20   1
M  END
> <minimizedAffinity>
-8.22104

> <CNNscore>
0.6809754968

> <CNNaffinity>
7.8296456337

> <CNN_VS>
5.3317966461

> <CNNaffinity_variance>
0.4091609418

$$$$



 50 53  0  0  0  0  0  0  0  0999 V2000
   -1.7530   19.3324   16.9052 C   0  0  0  0  0  0  0  0  0  0  0  0
   -4.4570   20.2031   17.9882 C   0  0  0  0  0  0  0  0  0  0  0  0
   -5.3753   20.8734   19.0308 C   0  0  0  0  0  0  0  0  0  0  0  0
   -4.5902   21.8026   19.9603 C   0  0  0  0  0  0  0  0  0  0  0  0
   -3.8250   22.8882   19.1984 C   0  0  0  0  0  0  0  0  0  0  0  0
   -3.6933   22.5723   17.7132 C   0  0  0  0  0  0  0  0  0  0  0  0
   -3.4061   21.1427   17.5270 N   0  0  0  0  0  0  0  0  0  0  0  0
   -2.1563   20.8079   17.0022 C   0  0  0  0  0  0  0  0  0  0  0  0
   -1.3888   21.6694   16.5758 O   0  0  0  0  0  0  0  0  0  0  0  0
   -5.2465   19.6672   16.7418 C   0  0  0  0  0  0  0  0  0  0  0  0
   -6.6502   20.3642   16.3268 N   0  0  0  0  0  0  0  0  0  0  0  0
   -6.3351   21.7459   15.7447 C   0  0  0  0  0  0  0  0  0  0  0  0
   -7.2885   19.4845   15.2732 C   0  0  0  0  0  0  0  0  0  0  0  0
   -7.4152   20.4804   17.6556 C   0  0  0  0  0  0  0  0  0  0  0  0
   -8.7188   19.6983   18.0087 N   0  0  0  0  0  0  0  0  0  0  0  0
   -8.9723   18.5706   17.0267 C   0  0  0  0  0  0  0  0  0  0  0  0
   -8.2987   19.0096   19.3519 C   0  0  0  0  0  0  0  0  0  0  0  0
   -9.8855   20.6336   18.2520 C   0  0  0  0  0  0  0  0  0  0  0  0
  -11.8320   22.0360   17.6826 C   0  0  0  0  0  0  0  0  0  0  0  0
  -10.3980   21.6053   17.2020 N   0  0  0  0  0  0  0  0  0  0  0  0
  -10.6074   21.0637   15.7883 C   0  0  0  0  0  0  0  0  0  0  0  0
   -9.6085   22.9255   17.1194 C   0  0  0  0  0  0  0  0  0  0  0  0
   -0.2847   19.1852   16.8548 N   0  0  0  0  0  0  0  0  0  0  0  0
    0.0329   19.7784   16.0882 H   0  0  0  0  0  0  0  0  0  0  0  0
    0.6967   19.5405   18.1498 S   0  0  0  0  0  0  0  0  0  0  0  0
   -0.0320   20.3668   19.0737 O   0  0  0  0  0  0  0  0  0  0  0  0
    1.2924   18.2729   18.5711 O   0  0  0  0  0  0  0  0  0  0  0  0
    2.0703   20.4944   17.5649 C   0  0  0  0  0  0  0  0  0  0  0  0
    2.7470   21.2965   18.4925 C   0  0  0  0  0  0  0  0  0  0  0  0
    3.9061   21.9729   18.1153 C   0  0  0  0  0  0  0  0  0  0  0  0
    4.4091   21.8451   16.8130 C   0  0  0  0  0  0  0  0  0  0  0  0
    5.5869   22.4999   16.4223 C   0  0  0  0  0  0  0  0  0  0  0  0
    6.0676   22.3728   15.1184 C   0  0  0  0  0  0  0  0  0  0  0  0
    5.3749   21.5975   14.1895 C   0  0  0  0  0  0  0  0  0  0  0  0
    4.1946   20.9510   14.5598 C   0  0  0  0  0  0  0  0  0  0  0  0
    3.6985   21.0655   15.8669 C   0  0  0  0  0  0  0  0  0  0  0  0
    2.5097   20.4236   16.2473 C   0  0  0  0  0  0  0  0  0  0  0  0
   -2.3584   18.4517   18.0165 C   0  0  0  0  0  0  0  0  0  0  0  0
   -1.9706   16.9972   18.0247 C   0  0  0  0  0  0  0  0  0  0  0  0
   -1.4552   16.3872   19.1764 C   0  0  0  0  0  0  0  0  0  0  0  0
   -1.1502   15.0231   19.1817 C   0  0  0  0  0  0  0  0  0  0  0  0
   -1.3452   14.2547   18.0351 C   0  0  0  0  0  0  0  0  0  0  0  0
   -1.8170   14.8568   16.8716 C   0  0  0  0  0  0  0  0  0  0  0  0
   -2.1342   16.2219   16.8640 C   0  0  0  0  0  0  0  0  0  0  0  0
   -1.9868   14.0462   15.6368 C   0  0  0  0  0  0  0  0  0  0  0  0
   -1.1505   13.0951   15.3888 N   0  0  0  0  0  0  0  0  0  0  0  0
   -3.0127   14.3270   14.7767 N   0  0  0  0  0  0  0  0  0  0  0  0
   -0.4180   12.9069   16.0190 H   0  0  0  0  0  0  0  0  0  0  0  0
   -3.6414   15.0563   14.9819 H   0  0  0  0  0  0  0  0  0  0  0  0
   -3.1223   13.7999   13.9525 H   0  0  0  0  0  0  0  0  0  0  0  0
 19 20  1  0
 20 21  1  0
 20 22  1  0
 20 18  1  0
 18 15  1  0
 15 16  1  0
 15 17  1  0
 15 14  1  0
 14 11  1  0
 11 12  1  0
 11 13  1  0
 11 10  1  0
  2 10  1  0
  2  3  1  0
  3  4  1  0
  4  5  1  0
  5  6  1  0
  6  7  1  0
  7  8  1  0
  8  9  2  0
  8  1  1  0
  1 38  1  0
 38 39  1  0
 39 40  2  0
 40 41  1  0
 41 42  2  0
 42 43  1  0
 43 45  1  0
 45 46  2  0
 45 47  1  0
 43 44  2  0
  1 23  1  0
 23 25  1  0
 25 26  2  0
 25 27  2  0
 25 28  1  0
 28 29  2  0
 29 30  1  0
 30 31  2  0
 31 32  1  0
 32 33  2  0
 33 34  1  0
 34 35  2  0
 35 36  1  0
 36 37  2  0
  7  2  1  0
 44 39  1  0
 37 28  1  0
 36 31  1  0
 46 48  1  0
 47 49  1  0
 47 50  1  0
 23 24  1  0
M  CHG 1  11   1
M  CHG 1  15   1
M  CHG 1  20   1
M  END
> <minimizedAffinity>
-8.54832

> <CNNscore>
0.6748453379

> <CNNaffinity>
7.5421776772

> <CNN_VS>
5.0898032188

> <CNNaffinity_variance>
0.3815360069

$$$$



 50 53  0  0  0  0  0  0  0  0999 V2000
   -1.1191   18.9996   18.9765 C   0  0  0  0  0  0  0  0  0  0  0  0
    1.3861   19.6593   20.5674 C   0  0  0  0  0  0  0  0  0  0  0  0
    2.8674   20.0682   20.7027 C   0  0  0  0  0  0  0  0  0  0  0  0
    3.4015   20.6915   19.4104 C   0  0  0  0  0  0  0  0  0  0  0  0
    2.5869   21.9085   18.9633 C   0  0  0  0  0  0  0  0  0  0  0  0
    1.2319   21.9871   19.6566 C   0  0  0  0  0  0  0  0  0  0  0  0
    0.6374   20.6460   19.7516 N   0  0  0  0  0  0  0  0  0  0  0  0
   -0.5268   20.4128   19.0170 C   0  0  0  0  0  0  0  0  0  0  0  0
   -1.1120   21.3258   18.4365 O   0  0  0  0  0  0  0  0  0  0  0  0
    0.6733   19.4985   21.9566 C   0  0  0  0  0  0  0  0  0  0  0  0
    0.9965   20.5522   23.1457 N   0  0  0  0  0  0  0  0  0  0  0  0
    2.3230   21.2431   22.8140 C   0  0  0  0  0  0  0  0  0  0  0  0
   -0.1309   21.5622   23.1626 C   0  0  0  0  0  0  0  0  0  0  0  0
    1.1252   19.6709   24.3992 C   0  0  0  0  0  0  0  0  0  0  0  0
   -0.0580   19.2644   25.3321 N   0  0  0  0  0  0  0  0  0  0  0  0
   -1.2289   20.2180   25.1908 C   0  0  0  0  0  0  0  0  0  0  0  0
   -0.5161   17.9226   24.6653 C   0  0  0  0  0  0  0  0  0  0  0  0
    0.4096   19.0023   26.7492 C   0  0  0  0  0  0  0  0  0  0  0  0
   -0.1770   20.6428   28.4939 C   0  0  0  0  0  0  0  0  0  0  0  0
    1.0129   20.0814   27.6327 N   0  0  0  0  0  0  0  0  0  0  0  0
    1.6030   21.3080   26.9375 C   0  0  0  0  0  0  0  0  0  0  0  0
    2.0250   19.5603   28.6705 C   0  0  0  0  0  0  0  0  0  0  0  0
   -2.5771   19.0278   19.2077 N   0  0  0  0  0  0  0  0  0  0  0  0
   -2.7705   19.9072   19.6869 H   0  0  0  0  0  0  0  0  0  0  0  0
   -3.6832   18.9245   17.9697 S   0  0  0  0  0  0  0  0  0  0  0  0
   -3.1563   19.6026   16.8165 O   0  0  0  0  0  0  0  0  0  0  0  0
   -4.0939   17.5222   17.9047 O   0  0  0  0  0  0  0  0  0  0  0  0
   -5.1516   19.7865   18.4589 C   0  0  0  0  0  0  0  0  0  0  0  0
   -4.9968   20.9849   19.1670 C   0  0  0  0  0  0  0  0  0  0  0  0
   -6.1117   21.7647   19.4708 C   0  0  0  0  0  0  0  0  0  0  0  0
   -7.3904   21.3635   19.0593 C   0  0  0  0  0  0  0  0  0  0  0  0
   -8.5209   22.1471   19.3359 C   0  0  0  0  0  0  0  0  0  0  0  0
   -9.7887   21.7274   18.9308 C   0  0  0  0  0  0  0  0  0  0  0  0
   -9.9424   20.5192   18.2522 C   0  0  0  0  0  0  0  0  0  0  0  0
   -8.8286   19.7226   17.9817 C   0  0  0  0  0  0  0  0  0  0  0  0
   -7.5466   20.1304   18.3792 C   0  0  0  0  0  0  0  0  0  0  0  0
   -6.4212   19.3337   18.1165 C   0  0  0  0  0  0  0  0  0  0  0  0
   -0.7792   18.2236   17.6883 C   0  0  0  0  0  0  0  0  0  0  0  0
   -0.8921   16.7235   17.7430 C   0  0  0  0  0  0  0  0  0  0  0  0
   -0.4740   16.0021   18.8694 C   0  0  0  0  0  0  0  0  0  0  0  0
   -0.6352   14.6147   18.9244 C   0  0  0  0  0  0  0  0  0  0  0  0
   -1.2048   13.9301   17.8520 C   0  0  0  0  0  0  0  0  0  0  0  0
   -1.5861   14.6293   16.7098 C   0  0  0  0  0  0  0  0  0  0  0  0
   -1.4362   16.0217   16.6537 C   0  0  0  0  0  0  0  0  0  0  0  0
   -2.1563   13.8947   15.5497 C   0  0  0  0  0  0  0  0  0  0  0  0
   -3.2058   14.3631   14.9627 N   0  0  0  0  0  0  0  0  0  0  0  0
   -1.5732   12.7302   15.1312 N   0  0  0  0  0  0  0  0  0  0  0  0
   -3.6124   15.2027   15.2774 H   0  0  0  0  0  0  0  0  0  0  0  0
   -0.7728   12.3876   15.5908 H   0  0  0  0  0  0  0  0  0  0  0  0
   -1.9539   12.2348   14.3703 H   0  0  0  0  0  0  0  0  0  0  0  0
 19 20  1  0
 20 21  1  0
 20 22  1  0
 20 18  1  0
 18 15  1  0
 15 16  1  0
 15 17  1  0
 15 14  1  0
 14 11  1  0
 11 12  1  0
 11 13  1  0
 11 10  1  0
  2 10  1  0
  2  3  1  0
  3  4  1  0
  4  5  1  0
  5  6  1  0
  6  7  1  0
  7  8  1  0
  8  9  2  0
  8  1  1  0
  1 38  1  0
 38 39  1  0
 39 40  2  0
 40 41  1  0
 41 42  2  0
 42 43  1  0
 43 45  1  0
 45 46  2  0
 45 47  1  0
 43 44  2  0
  1 23  1  0
 23 25  1  0
 25 26  2  0
 25 27  2  0
 25 28  1  0
 28 29  2  0
 29 30  1  0
 30 31  2  0
 31 32  1  0
 32 33  2  0
 33 34  1  0
 34 35  2  0
 35 36  1  0
 36 37  2  0
  7  2  1  0
 44 39  1  0
 37 28  1  0
 36 31  1  0
 46 48  1  0
 47 49  1  0
 47 50  1  0
 23 24  1  0
M  CHG 1  11   1
M  CHG 1  15   1
M  CHG 1  20   1
M  END
> <minimizedAffinity>
-8.13173

> <CNNscore>
0.6448469758

> <CNNaffinity>
7.5377006531

> <CNN_VS>
4.8606634140

> <CNNaffinity_variance>
0.6744570732

$$$$



 50 53  0  0  0  0  0  0  0  0999 V2000
   -1.9966   18.8779   16.9420 C   0  0  0  0  0  0  0  0  0  0  0  0
   -2.0404   20.5075   19.5081 C   0  0  0  0  0  0  0  0  0  0  0  0
   -2.1659   21.8213   20.3068 C   0  0  0  0  0  0  0  0  0  0  0  0
   -2.8122   22.9300   19.4720 C   0  0  0  0  0  0  0  0  0  0  0  0
   -4.1926   22.5367   18.9386 C   0  0  0  0  0  0  0  0  0  0  0  0
   -4.4386   21.0346   19.0156 C   0  0  0  0  0  0  0  0  0  0  0  0
   -3.2208   20.3056   18.6331 N   0  0  0  0  0  0  0  0  0  0  0  0
   -3.2717   19.5548   17.4570 C   0  0  0  0  0  0  0  0  0  0  0  0
   -4.3275   19.3889   16.8479 O   0  0  0  0  0  0  0  0  0  0  0  0
   -1.8687   19.2510   20.4331 C   0  0  0  0  0  0  0  0  0  0  0  0
   -0.7936   19.2943   21.6459 N   0  0  0  0  0  0  0  0  0  0  0  0
   -0.8072   17.9262   22.3353 C   0  0  0  0  0  0  0  0  0  0  0  0
    0.5630   19.5566   21.0278 C   0  0  0  0  0  0  0  0  0  0  0  0
   -1.3287   20.3937   22.5785 C   0  0  0  0  0  0  0  0  0  0  0  0
   -0.6307   20.8723   23.8897 N   0  0  0  0  0  0  0  0  0  0  0  0
    0.8749   20.9447   23.7221 C   0  0  0  0  0  0  0  0  0  0  0  0
   -1.1248   22.3573   23.9655 C   0  0  0  0  0  0  0  0  0  0  0  0
   -1.1218   20.1035   25.0993 C   0  0  0  0  0  0  0  0  0  0  0  0
   -1.1699   19.0924   27.3476 C   0  0  0  0  0  0  0  0  0  0  0  0
   -0.2314   19.7738   26.2857 N   0  0  0  0  0  0  0  0  0  0  0  0
    0.4099   20.9458   27.0281 C   0  0  0  0  0  0  0  0  0  0  0  0
    0.8495   18.7157   25.9941 C   0  0  0  0  0  0  0  0  0  0  0  0
   -1.1516   19.8330   16.1977 N   0  0  0  0  0  0  0  0  0  0  0  0
   -1.7827   20.5510   15.8416 H   0  0  0  0  0  0  0  0  0  0  0  0
    0.1187   20.6436   16.9017 S   0  0  0  0  0  0  0  0  0  0  0  0
   -0.3229   21.9563   17.2879 O   0  0  0  0  0  0  0  0  0  0  0  0
    0.7025   19.7215   17.8753 O   0  0  0  0  0  0  0  0  0  0  0  0
    1.3894   20.8552   15.6855 C   0  0  0  0  0  0  0  0  0  0  0  0
    1.0339   21.4558   14.4712 C   0  0  0  0  0  0  0  0  0  0  0  0
    2.0153   21.7564   13.5279 C   0  0  0  0  0  0  0  0  0  0  0  0
    3.3626   21.4735   13.7923 C   0  0  0  0  0  0  0  0  0  0  0  0
    4.3664   21.7902   12.8646 C   0  0  0  0  0  0  0  0  0  0  0  0
    5.7017   21.4903   13.1373 C   0  0  0  0  0  0  0  0  0  0  0  0
    6.0484   20.8654   14.3344 C   0  0  0  0  0  0  0  0  0  0  0  0
    5.0593   20.5321   15.2612 C   0  0  0  0  0  0  0  0  0  0  0  0
    3.7124   20.8287   15.0046 C   0  0  0  0  0  0  0  0  0  0  0  0
    2.7101   20.4928   15.9280 C   0  0  0  0  0  0  0  0  0  0  0  0
   -1.1863   18.1662   18.0438 C   0  0  0  0  0  0  0  0  0  0  0  0
   -1.0442   16.6718   17.9317 C   0  0  0  0  0  0  0  0  0  0  0  0
   -0.3532   15.9310   18.9001 C   0  0  0  0  0  0  0  0  0  0  0  0
   -0.2765   14.5384   18.8080 C   0  0  0  0  0  0  0  0  0  0  0  0
   -0.8784   13.8701   17.7430 C   0  0  0  0  0  0  0  0  0  0  0  0
   -1.5322   14.5972   16.7516 C   0  0  0  0  0  0  0  0  0  0  0  0
   -1.6209   15.9928   16.8447 C   0  0  0  0  0  0  0  0  0  0  0  0
   -2.1394   13.8882   15.5944 C   0  0  0  0  0  0  0  0  0  0  0  0
   -3.1583   14.4118   15.0000 N   0  0  0  0  0  0  0  0  0  0  0  0
   -1.6226   12.6893   15.1862 N   0  0  0  0  0  0  0  0  0  0  0  0
   -3.5171   15.2756   15.3073 H   0  0  0  0  0  0  0  0  0  0  0  0
   -0.8448   12.3046   15.6513 H   0  0  0  0  0  0  0  0  0  0  0  0
   -2.0283   12.2111   14.4273 H   0  0  0  0  0  0  0  0  0  0  0  0
 19 20  1  0
 20 21  1  0
 20 22  1  0
 20 18  1  0
 18 15  1  0
 15 16  1  0
 15 17  1  0
 15 14  1  0
 14 11  1  0
 11 12  1  0
 11 13  1  0
 11 10  1  0
  2 10  1  0
  2  3  1  0
  3  4  1  0
  4  5  1  0
  5  6  1  0
  6  7  1  0
  7  8  1  0
  8  9  2  0
  8  1  1  0
  1 38  1  0
 38 39  1  0
 39 40  2  0
 40 41  1  0
 41 42  2  0
 42 43  1  0
 43 45  1  0
 45 46  2  0
 45 47  1  0
 43 44  2  0
  1 23  1  0
 23 25  1  0
 25 26  2  0
 25 27  2  0
 25 28  1  0
 28 29  2  0
 29 30  1  0
 30 31  2  0
 31 32  1  0
 32 33  2  0
 33 34  1  0
 34 35  2  0
 35 36  1  0
 36 37  2  0
  7  2  1  0
 44 39  1  0
 37 28  1  0
 36 31  1  0
 46 48  1  0
 47 49  1  0
 47 50  1  0
 23 24  1  0
M  CHG 1  11   1
M  CHG 1  15   1
M  CHG 1  20   1
M  END
> <minimizedAffinity>
-8.39142

> <CNNscore>
0.6307973862

> <CNNaffinity>
7.8510184288

> <CNN_VS>
4.9524021149

> <CNNaffinity_variance>
0.2813226879

$$$$



 50 53  0  0  0  0  0  0  0  0999 V2000
   -2.2357   19.2858   17.7554 C   0  0  0  0  0  0  0  0  0  0  0  0
   -4.4112   21.3633   18.1951 C   0  0  0  0  0  0  0  0  0  0  0  0
   -4.9805   22.7963   18.1502 C   0  0  0  0  0  0  0  0  0  0  0  0
   -4.1658   23.6987   17.2199 C   0  0  0  0  0  0  0  0  0  0  0  0
   -4.0820   23.1504   15.7927 C   0  0  0  0  0  0  0  0  0  0  0  0
   -4.4734   21.6796   15.7116 C   0  0  0  0  0  0  0  0  0  0  0  0
   -3.9184   20.9478   16.8593 N   0  0  0  0  0  0  0  0  0  0  0  0
   -2.9403   19.9886   16.5896 C   0  0  0  0  0  0  0  0  0  0  0  0
   -2.6621   19.6639   15.4363 O   0  0  0  0  0  0  0  0  0  0  0  0
   -5.4595   20.3113   18.7033 C   0  0  0  0  0  0  0  0  0  0  0  0
   -7.0220   20.4871   18.3081 N   0  0  0  0  0  0  0  0  0  0  0  0
   -7.8481   19.6122   19.2562 C   0  0  0  0  0  0  0  0  0  0  0  0
   -7.3687   21.9472   18.5064 C   0  0  0  0  0  0  0  0  0  0  0  0
   -7.1006   19.9704   16.8620 C   0  0  0  0  0  0  0  0  0  0  0  0
   -8.4124   19.8500   16.0251 N   0  0  0  0  0  0  0  0  0  0  0  0
   -8.1140   19.6217   14.5557 C   0  0  0  0  0  0  0  0  0  0  0  0
   -8.9847   18.4936   16.5613 C   0  0  0  0  0  0  0  0  0  0  0  0
   -9.3793   20.9750   16.3331 C   0  0  0  0  0  0  0  0  0  0  0  0
  -10.3814   22.0676   14.3629 C   0  0  0  0  0  0  0  0  0  0  0  0
   -9.3921   22.2864   15.5654 N   0  0  0  0  0  0  0  0  0  0  0  0
   -8.0821   22.7314   14.9158 C   0  0  0  0  0  0  0  0  0  0  0  0
   -9.9916   23.4726   16.3443 C   0  0  0  0  0  0  0  0  0  0  0  0
   -1.9563   20.2309   18.8548 N   0  0  0  0  0  0  0  0  0  0  0  0
   -2.6744   20.0648   19.5599 H   0  0  0  0  0  0  0  0  0  0  0  0
   -0.5066   20.2545   19.6699 S   0  0  0  0  0  0  0  0  0  0  0  0
   -0.4354   21.4541   20.4593 O   0  0  0  0  0  0  0  0  0  0  0  0
   -0.3595   18.9335   20.2804 O   0  0  0  0  0  0  0  0  0  0  0  0
    0.8028   20.3325   18.4792 C   0  0  0  0  0  0  0  0  0  0  0  0
    0.6574   19.5865   17.3028 C   0  0  0  0  0  0  0  0  0  0  0  0
    1.5980   19.7049   16.2808 C   0  0  0  0  0  0  0  0  0  0  0  0
    2.6857   20.5789   16.4166 C   0  0  0  0  0  0  0  0  0  0  0  0
    3.6294   20.7283   15.3892 C   0  0  0  0  0  0  0  0  0  0  0  0
    4.7138   21.5928   15.5451 C   0  0  0  0  0  0  0  0  0  0  0  0
    4.8715   22.3113   16.7294 C   0  0  0  0  0  0  0  0  0  0  0  0
    3.9481   22.1629   17.7656 C   0  0  0  0  0  0  0  0  0  0  0  0
    2.8507   21.3004   17.6249 C   0  0  0  0  0  0  0  0  0  0  0  0
    1.9198   21.1405   18.6631 C   0  0  0  0  0  0  0  0  0  0  0  0
   -2.9871   18.0430   18.2731 C   0  0  0  0  0  0  0  0  0  0  0  0
   -2.2992   16.7131   18.1173 C   0  0  0  0  0  0  0  0  0  0  0  0
   -1.5218   16.1698   19.1490 C   0  0  0  0  0  0  0  0  0  0  0  0
   -0.9339   14.9096   19.0071 C   0  0  0  0  0  0  0  0  0  0  0  0
   -1.1054   14.1823   17.8303 C   0  0  0  0  0  0  0  0  0  0  0  0
   -1.8405   14.7283   16.7813 C   0  0  0  0  0  0  0  0  0  0  0  0
   -2.4407   15.9869   16.9224 C   0  0  0  0  0  0  0  0  0  0  0  0
   -1.9899   13.9704   15.5109 C   0  0  0  0  0  0  0  0  0  0  0  0
   -2.9176   14.3107   14.6809 N   0  0  0  0  0  0  0  0  0  0  0  0
   -1.1564   12.9186   15.2464 N   0  0  0  0  0  0  0  0  0  0  0  0
   -3.5086   15.0706   14.8875 H   0  0  0  0  0  0  0  0  0  0  0  0
   -0.4540   12.6730   15.8911 H   0  0  0  0  0  0  0  0  0  0  0  0
   -1.2588   12.4072   14.4114 H   0  0  0  0  0  0  0  0  0  0  0  0
 19 20  1  0
 20 21  1  0
 20 22  1  0
 20 18  1  0
 18 15  1  0
 15 16  1  0
 15 17  1  0
 15 14  1  0
 14 11  1  0
 11 12  1  0
 11 13  1  0
 11 10  1  0
  2 10  1  0
  2  3  1  0
  3  4  1  0
  4  5  1  0
  5  6  1  0
  6  7  1  0
  7  8  1  0
  8  9  2  0
  8  1  1  0
  1 38  1  0
 38 39  1  0
 39 40  2  0
 40 41  1  0
 41 42  2  0
 42 43  1  0
 43 45  1  0
 45 46  2  0
 45 47  1  0
 43 44  2  0
  1 23  1  0
 23 25  1  0
 25 26  2  0
 25 27  2  0
 25 28  1  0
 28 29  2  0
 29 30  1  0
 30 31  2  0
 31 32  1  0
 32 33  2  0
 33 34  1  0
 34 35  2  0
 35 36  1  0
 36 37  2  0
  7  2  1  0
 44 39  1  0
 37 28  1  0
 36 31  1  0
 46 48  1  0
 47 49  1  0
 47 50  1  0
 23 24  1  0
M  CHG 1  11   1
M  CHG 1  15   1
M  CHG 1  20   1
M  END
> <minimizedAffinity>
-8.19484

> <CNNscore>
0.5375068784

> <CNNaffinity>
7.3841032982

> <CNN_VS>
3.9690063000

> <CNNaffinity_variance>
0.4455035627

$$$$



 50 53  0  0  0  0  0  0  0  0999 V2000
   -2.2919   19.7030   17.5660 C   0  0  0  0  0  0  0  0  0  0  0  0
    0.6858   20.2794   17.7747 C   0  0  0  0  0  0  0  0  0  0  0  0
    2.1272   20.3113   17.2259 C   0  0  0  0  0  0  0  0  0  0  0  0
    2.1529   20.1987   15.6994 C   0  0  0  0  0  0  0  0  0  0  0  0
    1.3339   21.2961   15.0142 C   0  0  0  0  0  0  0  0  0  0  0  0
    0.3793   21.9943   15.9755 C   0  0  0  0  0  0  0  0  0  0  0  0
   -0.2395   21.0087   16.8737 N   0  0  0  0  0  0  0  0  0  0  0  0
   -1.6152   20.8071   16.7461 C   0  0  0  0  0  0  0  0  0  0  0  0
   -2.3035   21.5248   16.0221 O   0  0  0  0  0  0  0  0  0  0  0  0
    0.5747   20.8831   19.2193 C   0  0  0  0  0  0  0  0  0  0  0  0
    1.8413   20.7810   20.2261 N   0  0  0  0  0  0  0  0  0  0  0  0
    1.3241   20.9807   21.6543 C   0  0  0  0  0  0  0  0  0  0  0  0
    2.4231   19.3925   20.0686 C   0  0  0  0  0  0  0  0  0  0  0  0
    2.7532   21.9421   19.7960 C   0  0  0  0  0  0  0  0  0  0  0  0
    4.0896   22.3374   20.4985 N   0  0  0  0  0  0  0  0  0  0  0  0
    4.5782   21.2369   21.4206 C   0  0  0  0  0  0  0  0  0  0  0  0
    5.0756   22.3447   19.2808 C   0  0  0  0  0  0  0  0  0  0  0  0
    4.0141   23.7220   21.1088 C   0  0  0  0  0  0  0  0  0  0  0  0
    4.7127   25.9101   22.0054 C   0  0  0  0  0  0  0  0  0  0  0  0
    5.2249   24.6293   21.2506 N   0  0  0  0  0  0  0  0  0  0  0  0
    5.8565   25.1617   19.9647 C   0  0  0  0  0  0  0  0  0  0  0  0
    6.3363   24.0682   22.1578 C   0  0  0  0  0  0  0  0  0  0  0  0
   -3.5062   20.2081   18.2372 N   0  0  0  0  0  0  0  0  0  0  0  0
   -3.4391   21.2257   18.2148 H   0  0  0  0  0  0  0  0  0  0  0  0
   -5.0404   19.8356   17.7137 S   0  0  0  0  0  0  0  0  0  0  0  0
   -5.1898   20.2805   16.3547 O   0  0  0  0  0  0  0  0  0  0  0  0
   -5.2716   18.4402   18.0860 O   0  0  0  0  0  0  0  0  0  0  0  0
   -6.2018   20.7462   18.6937 C   0  0  0  0  0  0  0  0  0  0  0  0
   -5.7000   21.5060   19.7580 C   0  0  0  0  0  0  0  0  0  0  0  0
   -6.5520   22.3356   20.4854 C   0  0  0  0  0  0  0  0  0  0  0  0
   -7.9101   22.4259   20.1499 C   0  0  0  0  0  0  0  0  0  0  0  0
   -8.7774   23.2730   20.8560 C   0  0  0  0  0  0  0  0  0  0  0  0
  -10.1296   23.3419   20.5178 C   0  0  0  0  0  0  0  0  0  0  0  0
  -10.6314   22.5616   19.4771 C   0  0  0  0  0  0  0  0  0  0  0  0
   -9.7834   21.7042   18.7742 C   0  0  0  0  0  0  0  0  0  0  0  0
   -8.4210   21.6245   19.0989 C   0  0  0  0  0  0  0  0  0  0  0  0
   -7.5614   20.7615   18.4015 C   0  0  0  0  0  0  0  0  0  0  0  0
   -2.5995   18.4296   16.7530 C   0  0  0  0  0  0  0  0  0  0  0  0
   -2.1015   17.1236   17.3120 C   0  0  0  0  0  0  0  0  0  0  0  0
   -1.7781   16.9881   18.6688 C   0  0  0  0  0  0  0  0  0  0  0  0
   -1.3679   15.7540   19.1814 C   0  0  0  0  0  0  0  0  0  0  0  0
   -1.2648   14.6443   18.3441 C   0  0  0  0  0  0  0  0  0  0  0  0
   -1.5427   14.7750   16.9860 C   0  0  0  0  0  0  0  0  0  0  0  0
   -1.9644   16.0075   16.4690 C   0  0  0  0  0  0  0  0  0  0  0  0
   -1.3939   13.6016   16.0851 C   0  0  0  0  0  0  0  0  0  0  0  0
   -2.2183   13.4538   15.1033 N   0  0  0  0  0  0  0  0  0  0  0  0
   -0.3998   12.6908   16.3162 N   0  0  0  0  0  0  0  0  0  0  0  0
   -2.9278   14.1193   14.9518 H   0  0  0  0  0  0  0  0  0  0  0  0
    0.2202   12.8195   17.0700 H   0  0  0  0  0  0  0  0  0  0  0  0
   -0.3044   11.9065   15.7288 H   0  0  0  0  0  0  0  0  0  0  0  0
 19 20  1  0
 20 21  1  0
 20 22  1  0
 20 18  1  0
 18 15  1  0
 15 16  1  0
 15 17  1  0
 15 14  1  0
 14 11  1  0
 11 12  1  0
 11 13  1  0
 11 10  1  0
  2 10  1  0
  2  3  1  0
  3  4  1  0
  4  5  1  0
  5  6  1  0
  6  7  1  0
  7  8  1  0
  8  9  2  0
  8  1  1  0
  1 38  1  0
 38 39  1  0
 39 40  2  0
 40 41  1  0
 41 42  2  0
 42 43  1  0
 43 45  1  0
 45 46  2  0
 45 47  1  0
 43 44  2  0
  1 23  1  0
 23 25  1  0
 25 26  2  0
 25 27  2  0
 25 28  1  0
 28 29  2  0
 29 30  1  0
 30 31  2  0
 31 32  1  0
 32 33  2  0
 33 34  1  0
 34 35  2  0
 35 36  1  0
 36 37  2  0
  7  2  1  0
 44 39  1  0
 37 28  1  0
 36 31  1  0
 46 48  1  0
 47 49  1  0
 47 50  1  0
 23 24  1  0
M  CHG 1  11   1
M  CHG 1  15   1
M  CHG 1  20   1
M  END
> <minimizedAffinity>
-7.04413

> <CNNscore>
0.4967160821

> <CNNaffinity>
7.4290695190

> <CNN_VS>
3.6901383400

> <CNNaffinity_variance>
0.1310951561

$$$$
