


 25 27  0  0  0  0  0  0  0  0999 V2000
   37.3693   -1.5047   12.3689 C   0  0  0  0  0  0  0  0  0  0  0  0
   37.8727   -1.1569   13.6839 O   0  0  0  0  0  0  0  0  0  0  0  0
   37.6689    0.2585   13.8679 C   0  0  0  0  0  0  0  0  0  0  0  0
   37.4386    0.8393   12.4774 C   0  0  0  0  0  0  0  0  0  0  0  0
   36.7327    2.0729   12.4823 O   0  0  0  0  0  0  0  0  0  0  0  0
   36.6293   -0.2671   11.8324 C   0  0  0  0  0  0  0  0  0  0  0  0
   36.6260   -0.1469   10.4153 O   0  0  0  0  0  0  0  0  0  0  0  0
   35.8783    1.9547   12.9260 H   0  0  0  0  0  0  0  0  0  0  0  0
   37.5398   -0.1270   10.0904 H   0  0  0  0  0  0  0  0  0  0  0  0
   34.0503   -5.8315   12.7540 O   0  0  0  0  0  0  0  0  0  0  0  0
   34.7994   -4.8662   12.6658 C   0  0  0  0  0  0  0  0  0  0  0  0
   35.9449   -4.7105   13.5741 C   0  0  0  0  0  0  0  0  0  0  0  0
   36.7376   -3.6461   13.4346 C   0  0  0  0  0  0  0  0  0  0  0  0
   36.5224   -2.6927   12.4572 N   0  0  0  0  0  0  0  0  0  0  0  0
   35.4458   -2.7788   11.5815 C   0  0  0  0  0  0  0  0  0  0  0  0
   35.1968   -1.9646   10.6960 O   0  0  0  0  0  0  0  0  0  0  0  0
   34.6375   -3.8755   11.7436 N   0  0  0  0  0  0  0  0  0  0  0  0
   33.8670   -3.9544   11.1358 H   0  0  0  0  0  0  0  0  0  0  0  0
   38.8755    0.8911   14.5792 C   0  0  0  0  0  0  0  0  0  0  0  0
   38.6529    1.0943   16.0245 N   0  0  0  0  0  0  0  0  0  0  0  0
   38.9459   -0.1285   16.7804 C   0  0  0  0  0  0  0  0  0  0  0  0
   38.9736    0.1744   18.2833 C   0  0  0  0  0  0  0  0  0  0  0  0
   37.9122    1.1882   18.7142 C   0  0  0  0  0  0  0  0  0  0  0  0
   36.7708    1.2368   17.7106 C   0  0  0  0  0  0  0  0  0  0  0  0
   37.2779    1.5666   16.2990 C   0  0  0  0  0  0  0  0  0  0  0  0
 10 11  2  0
 11 12  1  0
 12 13  2  0
 13 14  1  0
  1 14  1  0
  1  2  1  0
  2  3  1  0
  3 19  1  0
 19 20  1  0
 20 21  1  0
 21 22  1  0
 22 23  1  0
 23 24  1  0
 24 25  1  0
  3  4  1  0
  4  5  1  0
  4  6  1  0
  6  7  1  0
 14 15  1  0
 15 16  2  0
 15 17  1  0
 17 11  1  0
  6  1  1  0
 25 20  1  0
  5  8  1  0
  7  9  1  0
 17 18  1  0
M  END
> <minimizedAffinity>
-7.05152

> <CNNscore>
0.8858484030

> <CNNaffinity>
4.3979907036

> <CNN_VS>
3.8959529400

> <CNNaffinity_variance>
0.3663657606

$$$$



 25 27  0  0  0  0  0  0  0  0999 V2000
   37.2297   -1.9562   12.0729 C   0  0  0  0  0  0  0  0  0  0  0  0
   38.5948   -2.3712   11.8125 O   0  0  0  0  0  0  0  0  0  0  0  0
   39.4642   -1.5147   12.5800 C   0  0  0  0  0  0  0  0  0  0  0  0
   38.6312   -0.2970   12.9636 C   0  0  0  0  0  0  0  0  0  0  0  0
   39.1175    0.3913   14.1081 O   0  0  0  0  0  0  0  0  0  0  0  0
   37.2844   -0.9392   13.2260 C   0  0  0  0  0  0  0  0  0  0  0  0
   36.2401    0.0261   13.2146 O   0  0  0  0  0  0  0  0  0  0  0  0
   39.1574   -0.2199   14.8603 H   0  0  0  0  0  0  0  0  0  0  0  0
   36.2557    0.5095   12.3738 H   0  0  0  0  0  0  0  0  0  0  0  0
   33.9935   -6.2004   13.2556 O   0  0  0  0  0  0  0  0  0  0  0  0
   34.7236   -5.2539   12.9880 C   0  0  0  0  0  0  0  0  0  0  0  0
   36.0139   -5.0755   13.6697 C   0  0  0  0  0  0  0  0  0  0  0  0
   36.7786   -4.0332   13.3390 C   0  0  0  0  0  0  0  0  0  0  0  0
   36.4015   -3.1235   12.3691 N   0  0  0  0  0  0  0  0  0  0  0  0
   35.1853   -3.2320   11.7036 C   0  0  0  0  0  0  0  0  0  0  0  0
   34.7900   -2.4564   10.8369 O   0  0  0  0  0  0  0  0  0  0  0  0
   34.4090   -4.3052   12.0609 N   0  0  0  0  0  0  0  0  0  0  0  0
   33.5420   -4.3993   11.6042 H   0  0  0  0  0  0  0  0  0  0  0  0
   40.7136   -1.1422   11.7659 C   0  0  0  0  0  0  0  0  0  0  0  0
   41.8753   -2.0030   12.0642 N   0  0  0  0  0  0  0  0  0  0  0  0
   41.9715   -3.1099   11.1061 C   0  0  0  0  0  0  0  0  0  0  0  0
   43.3187   -3.8258   11.2610 C   0  0  0  0  0  0  0  0  0  0  0  0
   43.7787   -3.9382   12.7156 C   0  0  0  0  0  0  0  0  0  0  0  0
   42.5982   -3.8233   13.6672 C   0  0  0  0  0  0  0  0  0  0  0  0
   41.8301   -2.5108   13.4532 C   0  0  0  0  0  0  0  0  0  0  0  0
 10 11  2  0
 11 12  1  0
 12 13  2  0
 13 14  1  0
  1 14  1  0
  1  2  1  0
  2  3  1  0
  3 19  1  0
 19 20  1  0
 20 21  1  0
 21 22  1  0
 22 23  1  0
 23 24  1  0
 24 25  1  0
  3  4  1  0
  4  5  1  0
  4  6  1  0
  6  7  1  0
 14 15  1  0
 15 16  2  0
 15 17  1  0
 17 11  1  0
  6  1  1  0
 25 20  1  0
  5  8  1  0
  7  9  1  0
 17 18  1  0
M  END
> <minimizedAffinity>
-5.79868

> <CNNscore>
0.7928295135

> <CNNaffinity>
3.8923597336

> <CNN_VS>
3.0859777927

> <CNNaffinity_variance>
0.3937354982

$$$$



 25 27  0  0  0  0  0  0  0  0999 V2000
   37.6346    0.4285   13.4468 C   0  0  0  0  0  0  0  0  0  0  0  0
   38.0860    0.1457   14.7958 O   0  0  0  0  0  0  0  0  0  0  0  0
   37.6920    1.2547   15.6284 C   0  0  0  0  0  0  0  0  0  0  0  0
   37.3851    2.4094   14.6816 C   0  0  0  0  0  0  0  0  0  0  0  0
   36.5183    3.3895   15.2367 O   0  0  0  0  0  0  0  0  0  0  0  0
   36.7335    1.6728   13.5292 C   0  0  0  0  0  0  0  0  0  0  0  0
   36.7139    2.4692   12.3511 O   0  0  0  0  0  0  0  0  0  0  0  0
   35.6878    2.9693   15.5097 H   0  0  0  0  0  0  0  0  0  0  0  0
   37.6165    2.7535   12.1380 H   0  0  0  0  0  0  0  0  0  0  0  0
   34.9370   -3.8365   11.3448 O   0  0  0  0  0  0  0  0  0  0  0  0
   35.5472   -2.8849   11.8168 C   0  0  0  0  0  0  0  0  0  0  0  0
   35.9672   -2.8774   13.2258 C   0  0  0  0  0  0  0  0  0  0  0  0
   36.6365   -1.8218   13.6929 C   0  0  0  0  0  0  0  0  0  0  0  0
   36.9567   -0.7416   12.8921 N   0  0  0  0  0  0  0  0  0  0  0  0
   36.5710   -0.6860   11.5573 C   0  0  0  0  0  0  0  0  0  0  0  0
   36.8195    0.2447   10.7950 O   0  0  0  0  0  0  0  0  0  0  0  0
   35.8779   -1.7763   11.0958 N   0  0  0  0  0  0  0  0  0  0  0  0
   35.5921   -1.7562   10.1539 H   0  0  0  0  0  0  0  0  0  0  0  0
   38.8016    1.5965   16.6355 C   0  0  0  0  0  0  0  0  0  0  0  0
   38.8753    0.6425   17.7598 N   0  0  0  0  0  0  0  0  0  0  0  0
   38.6610    1.3214   19.0426 C   0  0  0  0  0  0  0  0  0  0  0  0
   38.4705    0.2890   20.1603 C   0  0  0  0  0  0  0  0  0  0  0  0
   39.3679   -0.9402   20.0059 C   0  0  0  0  0  0  0  0  0  0  0  0
   40.5777   -0.6221   19.1412 C   0  0  0  0  0  0  0  0  0  0  0  0
   40.1585   -0.0940   17.7613 C   0  0  0  0  0  0  0  0  0  0  0  0
 10 11  2  0
 11 12  1  0
 12 13  2  0
 13 14  1  0
  1 14  1  0
  1  2  1  0
  2  3  1  0
  3 19  1  0
 19 20  1  0
 20 21  1  0
 21 22  1  0
 22 23  1  0
 23 24  1  0
 24 25  1  0
  3  4  1  0
  4  5  1  0
  4  6  1  0
  6  7  1  0
 14 15  1  0
 15 16  2  0
 15 17  1  0
 17 11  1  0
  6  1  1  0
 25 20  1  0
  5  8  1  0
  7  9  1  0
 17 18  1  0
M  END
> <minimizedAffinity>
-6.28003

> <CNNscore>
0.7269964814

> <CNNaffinity>
4.4275360107

> <CNN_VS>
3.2188031673

> <CNNaffinity_variance>
0.1610495597

$$$$



 25 27  0  0  0  0  0  0  0  0999 V2000
   36.9785   -3.0606   12.7539 C   0  0  0  0  0  0  0  0  0  0  0  0
   37.9743   -3.3284   13.7737 O   0  0  0  0  0  0  0  0  0  0  0  0
   38.1628   -2.1141   14.5278 C   0  0  0  0  0  0  0  0  0  0  0  0
   37.5922   -0.9891   13.6720 C   0  0  0  0  0  0  0  0  0  0  0  0
   37.2210    0.1637   14.4158 O   0  0  0  0  0  0  0  0  0  0  0  0
   36.3871   -1.6738   13.0606 C   0  0  0  0  0  0  0  0  0  0  0  0
   35.9131   -0.9667   11.9213 O   0  0  0  0  0  0  0  0  0  0  0  0
   36.5729   -0.0838   15.0938 H   0  0  0  0  0  0  0  0  0  0  0  0
   36.6354   -0.8614   11.2825 H   0  0  0  0  0  0  0  0  0  0  0  0
   33.0979   -6.9110   12.7385 O   0  0  0  0  0  0  0  0  0  0  0  0
   33.9724   -6.0532   12.7408 C   0  0  0  0  0  0  0  0  0  0  0  0
   34.9994   -6.0207   13.7925 C   0  0  0  0  0  0  0  0  0  0  0  0
   35.9364   -5.0718   13.7487 C   0  0  0  0  0  0  0  0  0  0  0  0
   35.9786   -4.1265   12.7410 N   0  0  0  0  0  0  0  0  0  0  0  0
   35.0242   -4.0980   11.7301 C   0  0  0  0  0  0  0  0  0  0  0  0
   35.0028   -3.2839   10.8104 O   0  0  0  0  0  0  0  0  0  0  0  0
   34.0646   -5.0764   11.7945 N   0  0  0  0  0  0  0  0  0  0  0  0
   33.3769   -5.0725   11.0901 H   0  0  0  0  0  0  0  0  0  0  0  0
   39.6495   -1.9079   14.8589 C   0  0  0  0  0  0  0  0  0  0  0  0
   39.8877   -1.6082   16.2847 N   0  0  0  0  0  0  0  0  0  0  0  0
   38.8114   -2.1467   17.1239 C   0  0  0  0  0  0  0  0  0  0  0  0
   39.2064   -2.0673   18.6034 C   0  0  0  0  0  0  0  0  0  0  0  0
   39.9815   -0.7959   18.9537 C   0  0  0  0  0  0  0  0  0  0  0  0
   39.7102    0.3013   17.9364 C   0  0  0  0  0  0  0  0  0  0  0  0
   40.0562   -0.1559   16.5117 C   0  0  0  0  0  0  0  0  0  0  0  0
 10 11  2  0
 11 12  1  0
 12 13  2  0
 13 14  1  0
  1 14  1  0
  1  2  1  0
  2  3  1  0
  3 19  1  0
 19 20  1  0
 20 21  1  0
 21 22  1  0
 22 23  1  0
 23 24  1  0
 24 25  1  0
  3  4  1  0
  4  5  1  0
  4  6  1  0
  6  7  1  0
 14 15  1  0
 15 16  2  0
 15 17  1  0
 17 11  1  0
  6  1  1  0
 25 20  1  0
  5  8  1  0
  7  9  1  0
 17 18  1  0
M  END
> <minimizedAffinity>
-5.99663

> <CNNscore>
0.7126622796

> <CNNaffinity>
3.9814541340

> <CNN_VS>
2.8374321461

> <CNNaffinity_variance>
0.3990153372

$$$$



 25 27  0  0  0  0  0  0  0  0999 V2000
   38.3286   -1.6974   14.7843 C   0  0  0  0  0  0  0  0  0  0  0  0
   39.3386   -2.7167   14.9949 O   0  0  0  0  0  0  0  0  0  0  0  0
   39.3783   -3.0054   16.4068 C   0  0  0  0  0  0  0  0  0  0  0  0
   38.6901   -1.8348   17.0997 C   0  0  0  0  0  0  0  0  0  0  0  0
   38.1810   -2.1518   18.3883 O   0  0  0  0  0  0  0  0  0  0  0  0
   37.5781   -1.5305   16.1169 C   0  0  0  0  0  0  0  0  0  0  0  0
   37.0368   -0.2334   16.3336 O   0  0  0  0  0  0  0  0  0  0  0  0
   37.5591   -2.8929   18.3169 H   0  0  0  0  0  0  0  0  0  0  0  0
   37.7484    0.4247   16.2939 H   0  0  0  0  0  0  0  0  0  0  0  0
   35.0035   -2.9401   10.6268 O   0  0  0  0  0  0  0  0  0  0  0  0
   35.7510   -2.6684   11.5584 C   0  0  0  0  0  0  0  0  0  0  0  0
   35.5687   -3.2844   12.8809 C   0  0  0  0  0  0  0  0  0  0  0  0
   36.4129   -2.9631   13.8631 C   0  0  0  0  0  0  0  0  0  0  0  0
   37.4586   -2.0793   13.6736 N   0  0  0  0  0  0  0  0  0  0  0  0
   37.6694   -1.4535   12.4498 C   0  0  0  0  0  0  0  0  0  0  0  0
   38.5753   -0.6569   12.2179 O   0  0  0  0  0  0  0  0  0  0  0  0
   36.7883   -1.7901   11.4536 N   0  0  0  0  0  0  0  0  0  0  0  0
   36.9174   -1.3558   10.5796 H   0  0  0  0  0  0  0  0  0  0  0  0
   40.8279   -3.2009   16.8788 C   0  0  0  0  0  0  0  0  0  0  0  0
   40.9796   -3.0838   18.3426 N   0  0  0  0  0  0  0  0  0  0  0  0
   42.2568   -2.4517   18.6917 C   0  0  0  0  0  0  0  0  0  0  0  0
   42.2778   -2.0935   20.1825 C   0  0  0  0  0  0  0  0  0  0  0  0
   41.5961   -3.1410   21.0646 C   0  0  0  0  0  0  0  0  0  0  0  0
   41.5528   -4.4913   20.3666 C   0  0  0  0  0  0  0  0  0  0  0  0
   40.8433   -4.3985   19.0077 C   0  0  0  0  0  0  0  0  0  0  0  0
 10 11  2  0
 11 12  1  0
 12 13  2  0
 13 14  1  0
  1 14  1  0
  1  2  1  0
  2  3  1  0
  3 19  1  0
 19 20  1  0
 20 21  1  0
 21 22  1  0
 22 23  1  0
 23 24  1  0
 24 25  1  0
  3  4  1  0
  4  5  1  0
  4  6  1  0
  6  7  1  0
 14 15  1  0
 15 16  2  0
 15 17  1  0
 17 11  1  0
  6  1  1  0
 25 20  1  0
  5  8  1  0
  7  9  1  0
 17 18  1  0
M  END
> <minimizedAffinity>
-5.62043

> <CNNscore>
0.6765229106

> <CNNaffinity>
4.0237393379

> <CNN_VS>
2.7221517563

> <CNNaffinity_variance>
0.3993091285

$$$$



 25 27  0  0  0  0  0  0  0  0999 V2000
   37.0220   -2.9244   12.7873 C   0  0  0  0  0  0  0  0  0  0  0  0
   38.1589   -3.2985   13.6064 O   0  0  0  0  0  0  0  0  0  0  0  0
   38.4347   -2.1987   14.4970 C   0  0  0  0  0  0  0  0  0  0  0  0
   37.7283   -0.9846   13.9048 C   0  0  0  0  0  0  0  0  0  0  0  0
   37.4499    0.0351   14.8550 O   0  0  0  0  0  0  0  0  0  0  0  0
   36.4587   -1.6188   13.3748 C   0  0  0  0  0  0  0  0  0  0  0  0
   35.8137   -0.7738   12.4301 O   0  0  0  0  0  0  0  0  0  0  0  0
   36.9106   -0.3309   15.5734 H   0  0  0  0  0  0  0  0  0  0  0  0
   36.4344   -0.5513   11.7186 H   0  0  0  0  0  0  0  0  0  0  0  0
   33.2359   -6.8671   12.7164 O   0  0  0  0  0  0  0  0  0  0  0  0
   34.0893   -5.9885   12.7310 C   0  0  0  0  0  0  0  0  0  0  0  0
   35.1265   -5.9566   13.7726 C   0  0  0  0  0  0  0  0  0  0  0  0
   36.0398   -4.9842   13.7427 C   0  0  0  0  0  0  0  0  0  0  0  0
   36.0482   -4.0139   12.7583 N   0  0  0  0  0  0  0  0  0  0  0  0
   35.0825   -3.9840   11.7582 C   0  0  0  0  0  0  0  0  0  0  0  0
   35.0314   -3.1484   10.8592 O   0  0  0  0  0  0  0  0  0  0  0  0
   34.1476   -4.9868   11.8083 N   0  0  0  0  0  0  0  0  0  0  0  0
   33.4524   -4.9826   11.1112 H   0  0  0  0  0  0  0  0  0  0  0  0
   39.9501   -1.9870   14.6425 C   0  0  0  0  0  0  0  0  0  0  0  0
   40.6211   -1.7116   13.3566 N   0  0  0  0  0  0  0  0  0  0  0  0
   39.9315   -0.6470   12.6192 C   0  0  0  0  0  0  0  0  0  0  0  0
   40.7858   -0.1903   11.4306 C   0  0  0  0  0  0  0  0  0  0  0  0
   41.5253   -1.3389   10.7421 C   0  0  0  0  0  0  0  0  0  0  0  0
   40.8429   -2.6683   11.0239 C   0  0  0  0  0  0  0  0  0  0  0  0
   40.7345   -2.9352   12.5325 C   0  0  0  0  0  0  0  0  0  0  0  0
 10 11  2  0
 11 12  1  0
 12 13  2  0
 13 14  1  0
  1 14  1  0
  1  2  1  0
  2  3  1  0
  3 19  1  0
 19 20  1  0
 20 21  1  0
 21 22  1  0
 22 23  1  0
 23 24  1  0
 24 25  1  0
  3  4  1  0
  4  5  1  0
  4  6  1  0
  6  7  1  0
 14 15  1  0
 15 16  2  0
 15 17  1  0
 17 11  1  0
  6  1  1  0
 25 20  1  0
  5  8  1  0
  7  9  1  0
 17 18  1  0
M  END
> <minimizedAffinity>
-6.10237

> <CNNscore>
0.5782244205

> <CNNaffinity>
4.0637283325

> <CNN_VS>
2.3497469425

> <CNNaffinity_variance>
0.3025853336

$$$$



 25 27  0  0  0  0  0  0  0  0999 V2000
   42.1183    5.8976    8.9938 C   0  0  0  0  0  0  0  0  0  0  0  0
   41.8870    4.5002    9.3057 O   0  0  0  0  0  0  0  0  0  0  0  0
   40.8405    4.4425   10.2957 C   0  0  0  0  0  0  0  0  0  0  0  0
   40.7484    5.8393   10.8992 C   0  0  0  0  0  0  0  0  0  0  0  0
   39.4896    6.1232   11.4950 O   0  0  0  0  0  0  0  0  0  0  0  0
   40.9968    6.6992    9.6769 C   0  0  0  0  0  0  0  0  0  0  0  0
   41.3549    8.0262   10.0420 O   0  0  0  0  0  0  0  0  0  0  0  0
   38.7872    6.0120   10.8353 H   0  0  0  0  0  0  0  0  0  0  0  0
   42.1235    8.0026   10.6333 H   0  0  0  0  0  0  0  0  0  0  0  0
   42.4843    6.5670    3.5805 O   0  0  0  0  0  0  0  0  0  0  0  0
   42.3952    6.4181    4.7932 C   0  0  0  0  0  0  0  0  0  0  0  0
   41.9947    7.5313    5.6660 C   0  0  0  0  0  0  0  0  0  0  0  0
   41.9041    7.3191    6.9803 C   0  0  0  0  0  0  0  0  0  0  0  0
   42.1636    6.0843    7.5448 N   0  0  0  0  0  0  0  0  0  0  0  0
   42.5625    5.0001    6.7710 C   0  0  0  0  0  0  0  0  0  0  0  0
   42.8119    3.8804    7.2106 O   0  0  0  0  0  0  0  0  0  0  0  0
   42.6571    5.2380    5.4232 N   0  0  0  0  0  0  0  0  0  0  0  0
   42.9414    4.4844    4.8570 H   0  0  0  0  0  0  0  0  0  0  0  0
   41.1489    3.3646   11.3471 C   0  0  0  0  0  0  0  0  0  0  0  0
   40.2297    3.4040   12.5017 N   0  0  0  0  0  0  0  0  0  0  0  0
   40.9625    3.6343   13.7516 C   0  0  0  0  0  0  0  0  0  0  0  0
   39.9813    3.9418   14.8892 C   0  0  0  0  0  0  0  0  0  0  0  0
   38.6945    3.1179   14.8154 C   0  0  0  0  0  0  0  0  0  0  0  0
   38.9083    1.8515   14.0014 C   0  0  0  0  0  0  0  0  0  0  0  0
   39.4156    2.1716   12.5876 C   0  0  0  0  0  0  0  0  0  0  0  0
 10 11  2  0
 11 12  1  0
 12 13  2  0
 13 14  1  0
  1 14  1  0
  1  2  1  0
  2  3  1  0
  3 19  1  0
 19 20  1  0
 20 21  1  0
 21 22  1  0
 22 23  1  0
 23 24  1  0
 24 25  1  0
  3  4  1  0
  4  5  1  0
  4  6  1  0
  6  7  1  0
 14 15  1  0
 15 16  2  0
 15 17  1  0
 17 11  1  0
  6  1  1  0
 25 20  1  0
  5  8  1  0
  7  9  1  0
 17 18  1  0
M  END
> <minimizedAffinity>
-6.40539

> <CNNscore>
0.5698699355

> <CNNaffinity>
3.7525589466

> <CNN_VS>
2.1384704113

> <CNNaffinity_variance>
0.6366176605

$$$$



 25 27  0  0  0  0  0  0  0  0999 V2000
   37.8080   -1.7443   12.4760 C   0  0  0  0  0  0  0  0  0  0  0  0
   39.0820   -2.3528   12.8077 O   0  0  0  0  0  0  0  0  0  0  0  0
   39.6293   -1.6329   13.9306 C   0  0  0  0  0  0  0  0  0  0  0  0
   38.8785   -0.3077   13.9929 C   0  0  0  0  0  0  0  0  0  0  0  0
   38.8978    0.3009   15.2771 O   0  0  0  0  0  0  0  0  0  0  0  0
   37.4825   -0.7477   13.6020 C   0  0  0  0  0  0  0  0  0  0  0  0
   36.6844    0.3591   13.2013 O   0  0  0  0  0  0  0  0  0  0  0  0
   38.5236   -0.3107   15.9304 H   0  0  0  0  0  0  0  0  0  0  0  0
   37.1302    0.8363   12.4841 H   0  0  0  0  0  0  0  0  0  0  0  0
   33.8682   -5.4944   11.9283 O   0  0  0  0  0  0  0  0  0  0  0  0
   34.7557   -4.6585   12.0480 C   0  0  0  0  0  0  0  0  0  0  0  0
   35.9098   -4.8989   12.9265 C   0  0  0  0  0  0  0  0  0  0  0  0
   36.8555   -3.9621   13.0187 C   0  0  0  0  0  0  0  0  0  0  0  0
   36.7900   -2.7792   12.3065 N   0  0  0  0  0  0  0  0  0  0  0  0
   35.7145   -2.4902   11.4738 C   0  0  0  0  0  0  0  0  0  0  0  0
   35.5942   -1.4581   10.8185 O   0  0  0  0  0  0  0  0  0  0  0  0
   34.7484   -3.4612   11.3964 N   0  0  0  0  0  0  0  0  0  0  0  0
   33.9761   -3.2755   10.8148 H   0  0  0  0  0  0  0  0  0  0  0  0
   41.1458   -1.4448   13.7658 C   0  0  0  0  0  0  0  0  0  0  0  0
   41.5104   -0.1059   13.2617 N   0  0  0  0  0  0  0  0  0  0  0  0
   41.4193    0.9009   14.3249 C   0  0  0  0  0  0  0  0  0  0  0  0
   42.0555    2.2167   13.8612 C   0  0  0  0  0  0  0  0  0  0  0  0
   41.7865    2.5310   12.3884 C   0  0  0  0  0  0  0  0  0  0  0  0
   40.5504    1.7957   11.8949 C   0  0  0  0  0  0  0  0  0  0  0  0
   40.6803    0.2791   12.0990 C   0  0  0  0  0  0  0  0  0  0  0  0
 10 11  2  0
 11 12  1  0
 12 13  2  0
 13 14  1  0
  1 14  1  0
  1  2  1  0
  2  3  1  0
  3 19  1  0
 19 20  1  0
 20 21  1  0
 21 22  1  0
 22 23  1  0
 23 24  1  0
 24 25  1  0
  3  4  1  0
  4  5  1  0
  4  6  1  0
  6  7  1  0
 14 15  1  0
 15 16  2  0
 15 17  1  0
 17 11  1  0
  6  1  1  0
 25 20  1  0
  5  8  1  0
  7  9  1  0
 17 18  1  0
M  END
> <minimizedAffinity>
-5.24246

> <CNNscore>
0.5509201288

> <CNNaffinity>
3.7444067001

> <CNN_VS>
2.0628690720

> <CNNaffinity_variance>
0.3715188205

$$$$



 25 27  0  0  0  0  0  0  0  0999 V2000
   37.7595   -0.8818   12.7018 C   0  0  0  0  0  0  0  0  0  0  0  0
   38.1352   -0.2823   13.9679 O   0  0  0  0  0  0  0  0  0  0  0  0
   37.6426    1.0726   13.9713 C   0  0  0  0  0  0  0  0  0  0  0  0
   37.3489    1.4220   12.5168 C   0  0  0  0  0  0  0  0  0  0  0  0
   36.4081    2.4759   12.3604 O   0  0  0  0  0  0  0  0  0  0  0  0
   36.8037    0.1036   12.0073 C   0  0  0  0  0  0  0  0  0  0  0  0
   36.8263    0.0491   10.5863 O   0  0  0  0  0  0  0  0  0  0  0  0
   35.5801    2.2390   12.8068 H   0  0  0  0  0  0  0  0  0  0  0  0
   37.7280    0.2169   10.2706 H   0  0  0  0  0  0  0  0  0  0  0  0
   35.4352   -5.7287   13.6971 O   0  0  0  0  0  0  0  0  0  0  0  0
   35.9600   -4.6456   13.4690 C   0  0  0  0  0  0  0  0  0  0  0  0
   37.3898   -4.4258   13.7321 C   0  0  0  0  0  0  0  0  0  0  0  0
   37.9186   -3.2313   13.4603 C   0  0  0  0  0  0  0  0  0  0  0  0
   37.1682   -2.1989   12.9295 N   0  0  0  0  0  0  0  0  0  0  0  0
   35.8086   -2.3436   12.6762 C   0  0  0  0  0  0  0  0  0  0  0  0
   35.0861   -1.4660   12.2105 O   0  0  0  0  0  0  0  0  0  0  0  0
   35.2802   -3.5756   12.9678 N   0  0  0  0  0  0  0  0  0  0  0  0
   34.3181   -3.6987   12.7990 H   0  0  0  0  0  0  0  0  0  0  0  0
   38.6702    2.0205   14.6100 C   0  0  0  0  0  0  0  0  0  0  0  0
   39.7781    2.3700   13.6989 N   0  0  0  0  0  0  0  0  0  0  0  0
   39.3277    3.2916   12.6500 C   0  0  0  0  0  0  0  0  0  0  0  0
   40.5339    3.8519   11.8867 C   0  0  0  0  0  0  0  0  0  0  0  0
   41.6442    2.8217   11.6726 C   0  0  0  0  0  0  0  0  0  0  0  0
   41.0949    1.4067   11.7640 C   0  0  0  0  0  0  0  0  0  0  0  0
   40.3954    1.1616   13.1091 C   0  0  0  0  0  0  0  0  0  0  0  0
 10 11  2  0
 11 12  1  0
 12 13  2  0
 13 14  1  0
  1 14  1  0
  1  2  1  0
  2  3  1  0
  3 19  1  0
 19 20  1  0
 20 21  1  0
 21 22  1  0
 22 23  1  0
 23 24  1  0
 24 25  1  0
  3  4  1  0
  4  5  1  0
  4  6  1  0
  6  7  1  0
 14 15  1  0
 15 16  2  0
 15 17  1  0
 17 11  1  0
  6  1  1  0
 25 20  1  0
  5  8  1  0
  7  9  1  0
 17 18  1  0
M  END
> <minimizedAffinity>
-5.99224

> <CNNscore>
0.4461123347

> <CNNaffinity>
3.8290774822

> <CNN_VS>
1.7081986666

> <CNNaffinity_variance>
0.4256799221

$$$$
