


 25 28  0  0  0  0  0  0  0  0999 V2000
    8.7976   57.6662   -0.4927 C   0  0  0  0  0  0  0  0  0  0  0  0
    8.7819   58.9437   -0.8333 N   0  0  0  0  0  0  0  0  0  0  0  0
    7.5921   59.4392   -0.3877 C   0  0  0  0  0  0  0  0  0  0  0  0
    7.0525   60.7348   -0.4755 C   0  0  0  0  0  0  0  0  0  0  0  0
    5.8250   61.0589    0.0231 N   0  0  0  0  0  0  0  0  0  0  0  0
    5.1695   60.0409    0.6022 C   0  0  0  0  0  0  0  0  0  0  0  0
    3.9293   60.0956    1.1713 N   0  0  0  0  0  0  0  0  0  0  0  0
    3.5907   58.8515    1.6536 C   0  0  0  0  0  0  0  0  0  0  0  0
    4.6349   57.9800    1.3912 C   0  0  0  0  0  0  0  0  0  0  0  0
    5.6272   58.7455    0.7297 C   0  0  0  0  0  0  0  0  0  0  0  0
    6.8627   58.4365    0.2307 C   0  0  0  0  0  0  0  0  0  0  0  0
    7.6174   57.3093    0.1803 N   0  0  0  0  0  0  0  0  0  0  0  0
    3.3648   60.9002    1.2279 H   0  0  0  0  0  0  0  0  0  0  0  0
    7.3409   55.9655    0.6834 C   0  0  0  0  0  0  0  0  0  0  0  0
    7.2130   55.8968    2.2139 C   0  0  0  0  0  0  0  0  0  0  0  0
    6.9284   54.4756    2.6994 C   0  0  0  0  0  0  0  0  0  0  0  0
    5.7370   53.8437    1.9692 C   0  0  0  0  0  0  0  0  0  0  0  0
    5.9747   53.8361    0.4542 C   0  0  0  0  0  0  0  0  0  0  0  0
    6.2332   55.2389   -0.0950 C   0  0  0  0  0  0  0  0  0  0  0  0
    5.5053   52.4722    2.4586 C   0  0  0  0  0  0  0  0  0  0  0  0
    5.3213   51.3931    2.8428 N   0  0  0  0  0  0  0  0  0  0  0  0
   10.7667   57.2513   -2.0269 C   0  0  0  0  0  0  0  0  0  0  0  0
    9.9518   56.7670   -0.8389 C   0  0  0  0  0  0  0  0  0  0  0  0
   10.7712   56.6161    0.3166 O   0  0  0  0  0  0  0  0  0  0  0  0
   11.1254   57.4808    0.5769 H   0  0  0  0  0  0  0  0  0  0  0  0
 23 22  1  0
 23 24  1  0
 23  1  1  0
  1  2  2  0
  2  3  1  0
  3  4  2  0
  4  5  1  0
  5  6  2  0
  6  7  1  0
  7  8  1  0
  8  9  2  0
  9 10  1  0
 10 11  2  0
 11 12  1  0
 14 12  1  0
 14 15  1  0
 15 16  1  0
 16 17  1  0
 17 20  1  0
 20 21  3  0
 17 18  1  0
 18 19  1  0
 12  1  1  0
 19 14  1  0
 11  3  1  0
 10  6  1  0
 24 25  1  0
  7 13  1  0
M  END
> <minimizedAffinity>
-9.66891

> <CNNscore>
0.9967536926

> <CNNaffinity>
8.1860742569

> <CNN_VS>
8.1595001221

> <CNNaffinity_variance>
0.1399062723

$$$$



 25 28  0  0  0  0  0  0  0  0999 V2000
    5.6241   58.3162    0.7904 C   0  0  0  0  0  0  0  0  0  0  0  0
    5.8791   59.4718    0.2007 N   0  0  0  0  0  0  0  0  0  0  0  0
    7.0827   59.3208   -0.4222 C   0  0  0  0  0  0  0  0  0  0  0  0
    7.8300   60.2264   -1.1962 C   0  0  0  0  0  0  0  0  0  0  0  0
    9.0378   59.9083   -1.7442 N   0  0  0  0  0  0  0  0  0  0  0  0
    9.4599   58.6612   -1.4830 C   0  0  0  0  0  0  0  0  0  0  0  0
   10.6298   58.0973   -1.9051 N   0  0  0  0  0  0  0  0  0  0  0  0
   10.7139   56.8072   -1.4321 C   0  0  0  0  0  0  0  0  0  0  0  0
    9.5745   56.5356   -0.6929 C   0  0  0  0  0  0  0  0  0  0  0  0
    8.7892   57.7145   -0.7363 C   0  0  0  0  0  0  0  0  0  0  0  0
    7.5760   58.0455   -0.1982 C   0  0  0  0  0  0  0  0  0  0  0  0
    6.6584   57.3939    0.5609 N   0  0  0  0  0  0  0  0  0  0  0  0
   11.3080   58.5441   -2.4615 H   0  0  0  0  0  0  0  0  0  0  0  0
    6.6634   56.0288    1.0822 C   0  0  0  0  0  0  0  0  0  0  0  0
    6.2628   55.9353    2.5635 C   0  0  0  0  0  0  0  0  0  0  0  0
    6.2845   54.4936    3.0707 C   0  0  0  0  0  0  0  0  0  0  0  0
    5.4750   53.5525    2.1701 C   0  0  0  0  0  0  0  0  0  0  0  0
    5.9967   53.6030    0.7290 C   0  0  0  0  0  0  0  0  0  0  0  0
    5.9678   55.0196    0.1556 C   0  0  0  0  0  0  0  0  0  0  0  0
    5.5324   52.1730    2.6880 C   0  0  0  0  0  0  0  0  0  0  0  0
    5.5773   51.0871    3.0936 N   0  0  0  0  0  0  0  0  0  0  0  0
    3.6666   59.3876    1.9835 C   0  0  0  0  0  0  0  0  0  0  0  0
    4.3804   58.0997    1.6072 C   0  0  0  0  0  0  0  0  0  0  0  0
    3.5142   57.2248    0.8906 O   0  0  0  0  0  0  0  0  0  0  0  0
    3.2596   57.6382    0.0509 H   0  0  0  0  0  0  0  0  0  0  0  0
 23 22  1  0
 23 24  1  0
 23  1  1  0
  1  2  2  0
  2  3  1  0
  3  4  2  0
  4  5  1  0
  5  6  2  0
  6  7  1  0
  7  8  1  0
  8  9  2  0
  9 10  1  0
 10 11  2  0
 11 12  1  0
 14 12  1  0
 14 15  1  0
 15 16  1  0
 16 17  1  0
 17 20  1  0
 20 21  3  0
 17 18  1  0
 18 19  1  0
 12  1  1  0
 19 14  1  0
 11  3  1  0
 10  6  1  0
 24 25  1  0
  7 13  1  0
M  END
> <minimizedAffinity>
-8.63663

> <CNNscore>
0.8975097537

> <CNNaffinity>
7.5979428291

> <CNN_VS>
6.8192276955

> <CNNaffinity_variance>
0.2750874758

$$$$



 25 28  0  0  0  0  0  0  0  0999 V2000
    5.0622   57.4032    1.5965 C   0  0  0  0  0  0  0  0  0  0  0  0
    4.6765   58.6655    1.5183 N   0  0  0  0  0  0  0  0  0  0  0  0
    5.5887   59.2908    0.7205 C   0  0  0  0  0  0  0  0  0  0  0  0
    5.6671   60.6303    0.2997 C   0  0  0  0  0  0  0  0  0  0  0  0
    6.6678   61.0953   -0.5020 N   0  0  0  0  0  0  0  0  0  0  0  0
    7.5760   60.1724   -0.8557 C   0  0  0  0  0  0  0  0  0  0  0  0
    8.6732   60.3762   -1.6428 N   0  0  0  0  0  0  0  0  0  0  0  0
    9.3682   59.1953   -1.7755 C   0  0  0  0  0  0  0  0  0  0  0  0
    8.7035   58.2123   -1.0611 C   0  0  0  0  0  0  0  0  0  0  0  0
    7.5710   58.8426   -0.4879 C   0  0  0  0  0  0  0  0  0  0  0  0
    6.5578   58.3890    0.3112 C   0  0  0  0  0  0  0  0  0  0  0  0
    6.2326   57.1865    0.8506 N   0  0  0  0  0  0  0  0  0  0  0  0
    8.9278   61.2347   -2.0520 H   0  0  0  0  0  0  0  0  0  0  0  0
    6.9011   55.8917    0.7412 C   0  0  0  0  0  0  0  0  0  0  0  0
    7.7742   55.5462    1.9585 C   0  0  0  0  0  0  0  0  0  0  0  0
    8.4580   54.1881    1.8032 C   0  0  0  0  0  0  0  0  0  0  0  0
    7.4624   53.0779    1.4450 C   0  0  0  0  0  0  0  0  0  0  0  0
    6.7046   53.4269    0.1583 C   0  0  0  0  0  0  0  0  0  0  0  0
    5.9718   54.7639    0.2665 C   0  0  0  0  0  0  0  0  0  0  0  0
    8.1643   51.7900    1.2932 C   0  0  0  0  0  0  0  0  0  0  0  0
    8.7166   50.7771    1.1719 N   0  0  0  0  0  0  0  0  0  0  0  0
    3.2944   55.5928    1.6212 C   0  0  0  0  0  0  0  0  0  0  0  0
    4.3105   56.3935    2.4188 C   0  0  0  0  0  0  0  0  0  0  0  0
    5.2529   55.5354    3.0552 O   0  0  0  0  0  0  0  0  0  0  0  0
    5.7642   55.0605    2.3815 H   0  0  0  0  0  0  0  0  0  0  0  0
 23 22  1  0
 23 24  1  0
 23  1  1  0
  1  2  2  0
  2  3  1  0
  3  4  2  0
  4  5  1  0
  5  6  2  0
  6  7  1  0
  7  8  1  0
  8  9  2  0
  9 10  1  0
 10 11  2  0
 11 12  1  0
 14 12  1  0
 14 15  1  0
 15 16  1  0
 16 17  1  0
 17 20  1  0
 20 21  3  0
 17 18  1  0
 18 19  1  0
 12  1  1  0
 19 14  1  0
 11  3  1  0
 10  6  1  0
 24 25  1  0
  7 13  1  0
M  END
> <minimizedAffinity>
-7.44399

> <CNNscore>
0.8228030205

> <CNNaffinity>
7.2908482552

> <CNN_VS>
5.9989318848

> <CNNaffinity_variance>
0.0707900152

$$$$



 25 28  0  0  0  0  0  0  0  0999 V2000
    5.1551   58.2374    0.6018 C   0  0  0  0  0  0  0  0  0  0  0  0
    5.5198   59.3697    0.0248 N   0  0  0  0  0  0  0  0  0  0  0  0
    6.7902   59.1708   -0.4290 C   0  0  0  0  0  0  0  0  0  0  0  0
    7.6596   60.0355   -1.1174 C   0  0  0  0  0  0  0  0  0  0  0  0
    8.9194   59.6714   -1.4925 N   0  0  0  0  0  0  0  0  0  0  0  0
    9.2663   58.4211   -1.1489 C   0  0  0  0  0  0  0  0  0  0  0  0
   10.4646   57.8157   -1.3986 N   0  0  0  0  0  0  0  0  0  0  0  0
   10.4474   56.5370   -0.8890 C   0  0  0  0  0  0  0  0  0  0  0  0
    9.2127   56.3152   -0.3018 C   0  0  0  0  0  0  0  0  0  0  0  0
    8.4751   57.5126   -0.4763 C   0  0  0  0  0  0  0  0  0  0  0  0
    7.2117   57.8895   -0.1121 C   0  0  0  0  0  0  0  0  0  0  0  0
    6.1830   57.2826    0.5331 N   0  0  0  0  0  0  0  0  0  0  0  0
   11.2234   58.2297   -1.8701 H   0  0  0  0  0  0  0  0  0  0  0  0
    6.0789   55.9322    1.0818 C   0  0  0  0  0  0  0  0  0  0  0  0
    6.1922   54.8269    0.0193 C   0  0  0  0  0  0  0  0  0  0  0  0
    6.0743   53.4317    0.6325 C   0  0  0  0  0  0  0  0  0  0  0  0
    7.0390   53.2344    1.8083 C   0  0  0  0  0  0  0  0  0  0  0  0
    6.7991   54.2970    2.8876 C   0  0  0  0  0  0  0  0  0  0  0  0
    6.9366   55.7168    2.3383 C   0  0  0  0  0  0  0  0  0  0  0  0
    6.8840   51.8825    2.3765 C   0  0  0  0  0  0  0  0  0  0  0  0
    6.7635   50.8194    2.8247 N   0  0  0  0  0  0  0  0  0  0  0  0
    3.4363   56.6286    1.5295 C   0  0  0  0  0  0  0  0  0  0  0  0
    3.8084   58.0755    1.2508 C   0  0  0  0  0  0  0  0  0  0  0  0
    3.7856   58.8495    2.4465 O   0  0  0  0  0  0  0  0  0  0  0  0
    4.4611   58.5185    3.0588 H   0  0  0  0  0  0  0  0  0  0  0  0
 23 22  1  0
 23 24  1  0
 23  1  1  0
  1  2  2  0
  2  3  1  0
  3  4  2  0
  4  5  1  0
  5  6  2  0
  6  7  1  0
  7  8  1  0
  8  9  2  0
  9 10  1  0
 10 11  2  0
 11 12  1  0
 14 12  1  0
 14 15  1  0
 15 16  1  0
 16 17  1  0
 17 20  1  0
 20 21  3  0
 17 18  1  0
 18 19  1  0
 12  1  1  0
 19 14  1  0
 11  3  1  0
 10  6  1  0
 24 25  1  0
  7 13  1  0
M  END
> <minimizedAffinity>
-8.50598

> <CNNscore>
0.7343696952

> <CNNaffinity>
7.2009601593

> <CNN_VS>
5.2881669998

> <CNNaffinity_variance>
0.2735482454

$$$$



 25 28  0  0  0  0  0  0  0  0999 V2000
   14.0373   55.7885   -4.8818 C   0  0  0  0  0  0  0  0  0  0  0  0
   15.1301   56.4691   -4.5807 N   0  0  0  0  0  0  0  0  0  0  0  0
   16.0950   55.5405   -4.3233 C   0  0  0  0  0  0  0  0  0  0  0  0
   17.4431   55.7020   -3.9573 C   0  0  0  0  0  0  0  0  0  0  0  0
   18.2768   54.6478   -3.7252 N   0  0  0  0  0  0  0  0  0  0  0  0
   17.7071   53.4412   -3.8703 C   0  0  0  0  0  0  0  0  0  0  0  0
   18.3157   52.2317   -3.6920 N   0  0  0  0  0  0  0  0  0  0  0  0
   17.4081   51.2230   -3.9245 C   0  0  0  0  0  0  0  0  0  0  0  0
   16.1924   51.7954   -4.2609 C   0  0  0  0  0  0  0  0  0  0  0  0
   16.3966   53.1973   -4.2262 C   0  0  0  0  0  0  0  0  0  0  0  0
   15.5737   54.2642   -4.4622 C   0  0  0  0  0  0  0  0  0  0  0  0
   14.2732   54.4050   -4.8250 N   0  0  0  0  0  0  0  0  0  0  0  0
   19.2575   52.1014   -3.4368 H   0  0  0  0  0  0  0  0  0  0  0  0
   13.2580   53.3930   -5.1084 C   0  0  0  0  0  0  0  0  0  0  0  0
   12.3631   53.0657   -3.9020 C   0  0  0  0  0  0  0  0  0  0  0  0
   11.3187   52.0015   -4.2383 C   0  0  0  0  0  0  0  0  0  0  0  0
   10.5200   52.3544   -5.4990 C   0  0  0  0  0  0  0  0  0  0  0  0
   11.4591   52.5550   -6.6946 C   0  0  0  0  0  0  0  0  0  0  0  0
   12.5082   53.6342   -6.4277 C   0  0  0  0  0  0  0  0  0  0  0  0
    9.5342   51.2979   -5.7932 C   0  0  0  0  0  0  0  0  0  0  0  0
    8.7583   50.4667   -6.0228 N   0  0  0  0  0  0  0  0  0  0  0  0
   11.8722   56.7455   -3.9876 C   0  0  0  0  0  0  0  0  0  0  0  0
   12.7394   56.4749   -5.2059 C   0  0  0  0  0  0  0  0  0  0  0  0
   13.0273   57.6808   -5.9075 O   0  0  0  0  0  0  0  0  0  0  0  0
   13.5496   58.2685   -5.3395 H   0  0  0  0  0  0  0  0  0  0  0  0
 23 22  1  0
 23 24  1  0
 23  1  1  0
  1  2  2  0
  2  3  1  0
  3  4  2  0
  4  5  1  0
  5  6  2  0
  6  7  1  0
  7  8  1  0
  8  9  2  0
  9 10  1  0
 10 11  2  0
 11 12  1  0
 14 12  1  0
 14 15  1  0
 15 16  1  0
 16 17  1  0
 17 20  1  0
 20 21  3  0
 17 18  1  0
 18 19  1  0
 12  1  1  0
 19 14  1  0
 11  3  1  0
 10  6  1  0
 24 25  1  0
  7 13  1  0
M  END
> <minimizedAffinity>
-3.06055

> <CNNscore>
0.5857127905

> <CNNaffinity>
4.9546146393

> <CNN_VS>
2.9019811153

> <CNNaffinity_variance>
0.3355071843

$$$$



 25 28  0  0  0  0  0  0  0  0999 V2000
   13.4095   64.1342   -6.5212 C   0  0  0  0  0  0  0  0  0  0  0  0
   12.3904   63.5697   -7.1465 N   0  0  0  0  0  0  0  0  0  0  0  0
   11.4577   64.5507   -7.3116 C   0  0  0  0  0  0  0  0  0  0  0  0
   10.1871   64.5105   -7.9128 C   0  0  0  0  0  0  0  0  0  0  0  0
    9.3688   65.5993   -7.9836 N   0  0  0  0  0  0  0  0  0  0  0  0
    9.8711   66.7141   -7.4299 C   0  0  0  0  0  0  0  0  0  0  0  0
    9.2573   67.9320   -7.3620 N   0  0  0  0  0  0  0  0  0  0  0  0
   10.0813   68.8255   -6.7157 C   0  0  0  0  0  0  0  0  0  0  0  0
   11.2491   68.1695   -6.3629 C   0  0  0  0  0  0  0  0  0  0  0  0
   11.1043   66.8370   -6.8234 C   0  0  0  0  0  0  0  0  0  0  0  0
   11.9170   65.7384   -6.7653 C   0  0  0  0  0  0  0  0  0  0  0  0
   13.1563   65.4927   -6.2690 N   0  0  0  0  0  0  0  0  0  0  0  0
    8.3637   68.1390   -7.7198 H   0  0  0  0  0  0  0  0  0  0  0  0
   14.0959   66.3848   -5.5933 C   0  0  0  0  0  0  0  0  0  0  0  0
   14.2909   66.0578   -4.1038 C   0  0  0  0  0  0  0  0  0  0  0  0
   15.2764   67.0149   -3.4337 C   0  0  0  0  0  0  0  0  0  0  0  0
   16.5989   67.1144   -4.2039 C   0  0  0  0  0  0  0  0  0  0  0  0
   16.3491   67.5568   -5.6507 C   0  0  0  0  0  0  0  0  0  0  0  0
   15.3933   66.6157   -6.3836 C   0  0  0  0  0  0  0  0  0  0  0  0
   17.5138   68.0550   -3.5310 C   0  0  0  0  0  0  0  0  0  0  0  0
   18.2343   68.7935   -3.0007 N   0  0  0  0  0  0  0  0  0  0  0  0
   14.3350   62.1084   -5.3201 C   0  0  0  0  0  0  0  0  0  0  0  0
   14.6360   63.3535   -6.1379 C   0  0  0  0  0  0  0  0  0  0  0  0
   15.3537   63.0259   -7.3240 O   0  0  0  0  0  0  0  0  0  0  0  0
   14.8013   62.4665   -7.8921 H   0  0  0  0  0  0  0  0  0  0  0  0
 23 22  1  0
 23 24  1  0
 23  1  1  0
  1  2  2  0
  2  3  1  0
  3  4  2  0
  4  5  1  0
  5  6  2  0
  6  7  1  0
  7  8  1  0
  8  9  2  0
  9 10  1  0
 10 11  2  0
 11 12  1  0
 14 12  1  0
 14 15  1  0
 15 16  1  0
 16 17  1  0
 17 20  1  0
 20 21  3  0
 17 18  1  0
 18 19  1  0
 12  1  1  0
 19 14  1  0
 11  3  1  0
 10  6  1  0
 24 25  1  0
  7 13  1  0
M  END
> <minimizedAffinity>
-3.60248

> <CNNscore>
0.5000111461

> <CNNaffinity>
4.2241220474

> <CNN_VS>
2.1121079922

> <CNNaffinity_variance>
0.1742035598

$$$$



 25 28  0  0  0  0  0  0  0  0999 V2000
    8.0259   58.6571   -0.5315 C   0  0  0  0  0  0  0  0  0  0  0  0
    7.0943   59.5928   -0.4616 N   0  0  0  0  0  0  0  0  0  0  0  0
    6.0349   59.0243    0.1817 C   0  0  0  0  0  0  0  0  0  0  0  0
    4.7817   59.5607    0.5270 C   0  0  0  0  0  0  0  0  0  0  0  0
    3.8205   58.8375    1.1701 N   0  0  0  0  0  0  0  0  0  0  0  0
    4.1642   57.5694    1.4448 C   0  0  0  0  0  0  0  0  0  0  0  0
    3.3878   56.6379    2.0727 N   0  0  0  0  0  0  0  0  0  0  0  0
    4.0806   55.4522    2.1679 C   0  0  0  0  0  0  0  0  0  0  0  0
    5.3281   55.6254    1.5914 C   0  0  0  0  0  0  0  0  0  0  0  0
    5.3688   56.9687    1.1418 C   0  0  0  0  0  0  0  0  0  0  0  0
    6.3257   57.7080    0.5025 C   0  0  0  0  0  0  0  0  0  0  0  0
    7.5874   57.4635    0.0653 N   0  0  0  0  0  0  0  0  0  0  0  0
    2.4740   56.7907    2.4058 H   0  0  0  0  0  0  0  0  0  0  0  0
    8.3949   56.2483    0.1461 C   0  0  0  0  0  0  0  0  0  0  0  0
    9.3389   56.2175    1.3591 C   0  0  0  0  0  0  0  0  0  0  0  0
   10.1676   54.9339    1.4048 C   0  0  0  0  0  0  0  0  0  0  0  0
    9.2939   53.6784    1.2928 C   0  0  0  0  0  0  0  0  0  0  0  0
    8.4618   53.7127    0.0052 C   0  0  0  0  0  0  0  0  0  0  0  0
    7.5855   54.9621   -0.0808 C   0  0  0  0  0  0  0  0  0  0  0  0
   10.1326   52.4661    1.3290 C   0  0  0  0  0  0  0  0  0  0  0  0
   10.7912   51.5116    1.3588 N   0  0  0  0  0  0  0  0  0  0  0  0
    9.7775   57.7820   -2.1343 C   0  0  0  0  0  0  0  0  0  0  0  0
    9.3488   58.9033   -1.2023 C   0  0  0  0  0  0  0  0  0  0  0  0
    9.2817   60.1467   -1.8942 O   0  0  0  0  0  0  0  0  0  0  0  0
    8.5965   60.0990   -2.5791 H   0  0  0  0  0  0  0  0  0  0  0  0
 23 22  1  0
 23 24  1  0
 23  1  1  0
  1  2  2  0
  2  3  1  0
  3  4  2  0
  4  5  1  0
  5  6  2  0
  6  7  1  0
  7  8  1  0
  8  9  2  0
  9 10  1  0
 10 11  2  0
 11 12  1  0
 14 12  1  0
 14 15  1  0
 15 16  1  0
 16 17  1  0
 17 20  1  0
 20 21  3  0
 17 18  1  0
 18 19  1  0
 12  1  1  0
 19 14  1  0
 11  3  1  0
 10  6  1  0
 24 25  1  0
  7 13  1  0
M  END
> <minimizedAffinity>
-7.81368

> <CNNscore>
0.4870925844

> <CNNaffinity>
6.7990088463

> <CNN_VS>
3.3117468357

> <CNNaffinity_variance>
0.0097158579

$$$$



 25 28  0  0  0  0  0  0  0  0999 V2000
   10.0132   55.4345    0.1413 C   0  0  0  0  0  0  0  0  0  0  0  0
   10.6089   56.4486   -0.4627 N   0  0  0  0  0  0  0  0  0  0  0  0
    9.6585   57.4165   -0.6028 C   0  0  0  0  0  0  0  0  0  0  0  0
    9.7394   58.6998   -1.1719 C   0  0  0  0  0  0  0  0  0  0  0  0
    8.6724   59.5467   -1.2388 N   0  0  0  0  0  0  0  0  0  0  0  0
    7.5353   59.0564   -0.7209 C   0  0  0  0  0  0  0  0  0  0  0  0
    6.3289   59.6939   -0.6674 N   0  0  0  0  0  0  0  0  0  0  0  0
    5.4009   58.8703   -0.0710 C   0  0  0  0  0  0  0  0  0  0  0  0
    6.0237   57.6803    0.2675 C   0  0  0  0  0  0  0  0  0  0  0  0
    7.3728   57.8128   -0.1456 C   0  0  0  0  0  0  0  0  0  0  0  0
    8.4532   56.9766   -0.0796 C   0  0  0  0  0  0  0  0  0  0  0  0
    8.6645   55.7260    0.4041 N   0  0  0  0  0  0  0  0  0  0  0  0
    6.1504   60.6020   -1.0034 H   0  0  0  0  0  0  0  0  0  0  0  0
    7.7449   54.8020    1.0644 C   0  0  0  0  0  0  0  0  0  0  0  0
    6.2668   55.0649    0.7334 C   0  0  0  0  0  0  0  0  0  0  0  0
    5.3388   54.0813    1.4459 C   0  0  0  0  0  0  0  0  0  0  0  0
    5.7551   52.6235    1.2143 C   0  0  0  0  0  0  0  0  0  0  0  0
    7.2011   52.3959    1.6713 C   0  0  0  0  0  0  0  0  0  0  0  0
    8.1819   53.3323    0.9659 C   0  0  0  0  0  0  0  0  0  0  0  0
    4.8424   51.7109    1.9275 C   0  0  0  0  0  0  0  0  0  0  0  0
    4.1255   50.9914    2.4879 N   0  0  0  0  0  0  0  0  0  0  0  0
   11.5490   53.6168   -0.7192 C   0  0  0  0  0  0  0  0  0  0  0  0
   10.7419   54.1561    0.4502 C   0  0  0  0  0  0  0  0  0  0  0  0
   11.5709   54.3707    1.5887 O   0  0  0  0  0  0  0  0  0  0  0  0
   12.2278   55.0550    1.3860 H   0  0  0  0  0  0  0  0  0  0  0  0
 23 22  1  0
 23 24  1  0
 23  1  1  0
  1  2  2  0
  2  3  1  0
  3  4  2  0
  4  5  1  0
  5  6  2  0
  6  7  1  0
  7  8  1  0
  8  9  2  0
  9 10  1  0
 10 11  2  0
 11 12  1  0
 14 12  1  0
 14 15  1  0
 15 16  1  0
 16 17  1  0
 17 20  1  0
 20 21  3  0
 17 18  1  0
 18 19  1  0
 12  1  1  0
 19 14  1  0
 11  3  1  0
 10  6  1  0
 24 25  1  0
  7 13  1  0
M  END
> <minimizedAffinity>
-8.33869

> <CNNscore>
0.4795153737

> <CNNaffinity>
6.5442872047

> <CNN_VS>
3.1380863190

> <CNNaffinity_variance>
0.1627305597

$$$$



 25 28  0  0  0  0  0  0  0  0999 V2000
    6.1662   57.9234    0.0221 C   0  0  0  0  0  0  0  0  0  0  0  0
    6.9579   58.7681   -0.6167 N   0  0  0  0  0  0  0  0  0  0  0  0
    8.1473   58.1215   -0.7802 C   0  0  0  0  0  0  0  0  0  0  0  0
    9.3404   58.5456   -1.3919 C   0  0  0  0  0  0  0  0  0  0  0  0
   10.4549   57.7623   -1.4591 N   0  0  0  0  0  0  0  0  0  0  0  0
   10.3244   56.5533   -0.8909 C   0  0  0  0  0  0  0  0  0  0  0  0
   11.2851   55.5857   -0.8164 N   0  0  0  0  0  0  0  0  0  0  0  0
   10.7808   54.4887   -0.1550 C   0  0  0  0  0  0  0  0  0  0  0  0
    9.4691   54.7556    0.2010 C   0  0  0  0  0  0  0  0  0  0  0  0
    9.1926   56.0622   -0.2732 C   0  0  0  0  0  0  0  0  0  0  0  0
    8.0804   56.8564   -0.2189 C   0  0  0  0  0  0  0  0  0  0  0  0
    6.8282   56.7127    0.2851 N   0  0  0  0  0  0  0  0  0  0  0  0
   12.1972   55.6609   -1.1794 H   0  0  0  0  0  0  0  0  0  0  0  0
    6.2137   55.5816    0.9768 C   0  0  0  0  0  0  0  0  0  0  0  0
    6.0780   54.3257    0.1005 C   0  0  0  0  0  0  0  0  0  0  0  0
    5.4280   53.1686    0.8586 C   0  0  0  0  0  0  0  0  0  0  0  0
    6.1225   52.8931    2.1979 C   0  0  0  0  0  0  0  0  0  0  0  0
    6.1235   54.1514    3.0744 C   0  0  0  0  0  0  0  0  0  0  0  0
    6.7925   55.3368    2.3789 C   0  0  0  0  0  0  0  0  0  0  0  0
    5.4576   51.7798    2.9001 C   0  0  0  0  0  0  0  0  0  0  0  0
    4.9338   50.9053    3.4536 N   0  0  0  0  0  0  0  0  0  0  0  0
    4.1907   57.4326    1.5252 C   0  0  0  0  0  0  0  0  0  0  0  0
    4.7603   58.2910    0.4080 C   0  0  0  0  0  0  0  0  0  0  0  0
    4.7328   59.6716    0.7582 O   0  0  0  0  0  0  0  0  0  0  0  0
    5.3087   59.8224    1.5240 H   0  0  0  0  0  0  0  0  0  0  0  0
 23 22  1  0
 23 24  1  0
 23  1  1  0
  1  2  2  0
  2  3  1  0
  3  4  2  0
  4  5  1  0
  5  6  2  0
  6  7  1  0
  7  8  1  0
  8  9  2  0
  9 10  1  0
 10 11  2  0
 11 12  1  0
 14 12  1  0
 14 15  1  0
 15 16  1  0
 16 17  1  0
 17 20  1  0
 20 21  3  0
 17 18  1  0
 18 19  1  0
 12  1  1  0
 19 14  1  0
 11  3  1  0
 10  6  1  0
 24 25  1  0
  7 13  1  0
M  END
> <minimizedAffinity>
-7.95981

> <CNNscore>
0.4496895969

> <CNNaffinity>
6.7205791473

> <CNN_VS>
3.0221745968

> <CNNaffinity_variance>
0.1103689075

$$$$
