


 39 42  0  0  0  0  0  0  0  0999 V2000
   19.9403  -31.7985   13.1470 C   0  0  0  0  0  0  0  0  0  0  0  0
   21.1471  -32.2868   12.8132 C   0  0  0  0  0  0  0  0  0  0  0  0
   21.6257  -33.7168   12.8690 C   0  0  0  0  0  0  0  0  0  0  0  0
   21.3497  -34.2645   11.5579 O   0  0  0  0  0  0  0  0  0  0  0  0
   22.6112  -34.5456   10.9056 C   0  0  0  0  0  0  0  0  0  0  0  0
   23.7064  -33.8732   11.7458 C   0  0  0  0  0  0  0  0  0  0  0  0
   24.9757  -34.5370   11.7098 O   0  0  0  0  0  0  0  0  0  0  0  0
   23.1106  -33.9773   13.1350 C   0  0  0  0  0  0  0  0  0  0  0  0
   23.3053  -35.3159   13.6294 O   0  0  0  0  0  0  0  0  0  0  0  0
   24.8710  -35.4518   12.0150 H   0  0  0  0  0  0  0  0  0  0  0  0
   22.9302  -35.9510   12.9994 H   0  0  0  0  0  0  0  0  0  0  0  0
   22.5329  -34.0929    9.5258 N   0  0  0  0  0  0  0  0  0  0  0  0
   23.0138  -34.7577    8.4234 C   0  0  0  0  0  0  0  0  0  0  0  0
   22.8528  -34.0645    7.3140 N   0  0  0  0  0  0  0  0  0  0  0  0
   22.2485  -32.9011    7.7109 C   0  0  0  0  0  0  0  0  0  0  0  0
   21.8260  -31.7657    7.0107 C   0  0  0  0  0  0  0  0  0  0  0  0
   21.2447  -30.7387    7.6818 N   0  0  0  0  0  0  0  0  0  0  0  0
   21.1085  -30.8779    9.0152 C   0  0  0  0  0  0  0  0  0  0  0  0
   20.3706  -29.5616    9.8193 Cl  0  0  0  0  0  0  0  0  0  0  0  0
   21.4584  -31.9156    9.8112 N   0  0  0  0  0  0  0  0  0  0  0  0
   22.0340  -32.8950    9.0840 C   0  0  0  0  0  0  0  0  0  0  0  0
   19.5894  -30.3444   13.0889 C   0  0  0  0  0  0  0  0  0  0  0  0
   17.6204  -31.0713   11.2878 O   0  0  0  0  0  0  0  0  0  0  0  0
   17.2732  -30.6609   12.3865 C   0  0  0  0  0  0  0  0  0  0  0  0
   18.1751  -30.2140   13.3185 N   0  0  0  0  0  0  0  0  0  0  0  0
   17.8519  -29.8005   14.1514 H   0  0  0  0  0  0  0  0  0  0  0  0
   15.8292  -30.6768   12.7655 C   0  0  0  0  0  0  0  0  0  0  0  0
   14.9576  -31.4274   11.9524 C   0  0  0  0  0  0  0  0  0  0  0  0
   13.5958  -31.5287   12.2775 C   0  0  0  0  0  0  0  0  0  0  0  0
   13.0817  -30.8968   13.4172 C   0  0  0  0  0  0  0  0  0  0  0  0
   13.9465  -30.1517   14.2073 C   0  0  0  0  0  0  0  0  0  0  0  0
   13.5050  -29.5168   15.3392 O   0  0  0  0  0  0  0  0  0  0  0  0
   15.3018  -30.0255   13.8871 C   0  0  0  0  0  0  0  0  0  0  0  0
   16.0746  -29.2645   14.7312 O   0  0  0  0  0  0  0  0  0  0  0  0
   12.6038  -29.5766   15.5888 H   0  0  0  0  0  0  0  0  0  0  0  0
   15.6844  -28.8440   15.4721 H   0  0  0  0  0  0  0  0  0  0  0  0
   12.6948  -32.3144   11.4180 N   0  0  0  0  0  0  0  0  0  0  0  0
   12.3355  -33.4371   11.8141 O   0  0  0  0  0  0  0  0  0  0  0  0
   12.3487  -31.8038   10.3440 O   0  0  0  0  0  0  0  0  0  0  0  0
 23 24  2  0
 24 25  1  0
 25 22  1  0
 22  1  1  0
  1  2  2  0
  3  2  1  0
  3  4  1  0
  4  5  1  0
  5 12  1  0
 12 13  1  0
 13 14  2  0
 14 15  1  0
 15 16  2  0
 16 17  1  0
 17 18  2  0
 18 19  1  0
 18 20  1  0
 20 21  2  0
  5  6  1  0
  6  7  1  0
  6  8  1  0
  8  9  1  0
 24 27  1  0
 27 28  2  0
 28 29  1  0
 29 37  1  0
 37 38  2  0
 37 39  1  0
 29 30  2  0
 30 31  1  0
 31 32  1  0
 31 33  2  0
 33 34  1  0
  8  3  1  0
 33 27  1  0
 21 12  1  0
 21 15  1  0
 25 26  1  0
  7 10  1  0
  9 11  1  0
 32 35  1  0
 34 36  1  0
M  CHG 1  37   1
M  CHG 1  39  -1
M  END
> <minimizedAffinity>
-9.86275

> <CNNscore>
0.3721483946

> <CNNaffinity>
6.4061007500

> <CNN_VS>
2.3840200901

> <CNNaffinity_variance>
0.0339824893

$$$$



 39 42  0  0  0  0  0  0  0  0999 V2000
   20.0253  -32.2016   14.0593 C   0  0  0  0  0  0  0  0  0  0  0  0
   21.2776  -32.6890   14.0779 C   0  0  0  0  0  0  0  0  0  0  0  0
   21.8503  -33.7633   14.9694 C   0  0  0  0  0  0  0  0  0  0  0  0
   21.1167  -34.9665   14.6388 O   0  0  0  0  0  0  0  0  0  0  0  0
   22.0293  -35.9007   14.0141 C   0  0  0  0  0  0  0  0  0  0  0  0
   23.3123  -35.1214   13.6912 C   0  0  0  0  0  0  0  0  0  0  0  0
   24.5092  -35.9086   13.7177 O   0  0  0  0  0  0  0  0  0  0  0  0
   23.3330  -34.1155   14.8242 C   0  0  0  0  0  0  0  0  0  0  0  0
   23.8148  -34.7630   16.0170 O   0  0  0  0  0  0  0  0  0  0  0  0
   24.6083  -36.3171   14.5919 H   0  0  0  0  0  0  0  0  0  0  0  0
   23.2705  -35.5439   16.2035 H   0  0  0  0  0  0  0  0  0  0  0  0
   21.3694  -36.4978   12.8639 N   0  0  0  0  0  0  0  0  0  0  0  0
   20.6413  -37.6632   12.8585 C   0  0  0  0  0  0  0  0  0  0  0  0
   20.2209  -37.9826   11.6509 N   0  0  0  0  0  0  0  0  0  0  0  0
   20.6986  -36.9890   10.8381 C   0  0  0  0  0  0  0  0  0  0  0  0
   20.5989  -36.7607    9.4612 C   0  0  0  0  0  0  0  0  0  0  0  0
   21.1885  -35.6661    8.9160 N   0  0  0  0  0  0  0  0  0  0  0  0
   21.8521  -34.8464    9.7549 C   0  0  0  0  0  0  0  0  0  0  0  0
   22.5777  -33.4805    9.0259 Cl  0  0  0  0  0  0  0  0  0  0  0  0
   22.0171  -34.9390   11.0955 N   0  0  0  0  0  0  0  0  0  0  0  0
   21.4142  -36.0486   11.5696 C   0  0  0  0  0  0  0  0  0  0  0  0
   19.5783  -31.0985   13.1516 C   0  0  0  0  0  0  0  0  0  0  0  0
   17.5952  -31.0559   11.2242 O   0  0  0  0  0  0  0  0  0  0  0  0
   17.2666  -30.9029   12.3924 C   0  0  0  0  0  0  0  0  0  0  0  0
   18.1862  -30.8414   13.4084 N   0  0  0  0  0  0  0  0  0  0  0  0
   17.8911  -30.6195   14.3211 H   0  0  0  0  0  0  0  0  0  0  0  0
   15.8206  -30.8207   12.7550 C   0  0  0  0  0  0  0  0  0  0  0  0
   14.9119  -31.5312   11.9465 C   0  0  0  0  0  0  0  0  0  0  0  0
   13.5432  -31.5403   12.2577 C   0  0  0  0  0  0  0  0  0  0  0  0
   13.0582  -30.8549   13.3791 C   0  0  0  0  0  0  0  0  0  0  0  0
   13.9600  -30.1500   14.1647 C   0  0  0  0  0  0  0  0  0  0  0  0
   13.5478  -29.4662   15.2791 O   0  0  0  0  0  0  0  0  0  0  0  0
   15.3238  -30.1154   13.8578 C   0  0  0  0  0  0  0  0  0  0  0  0
   16.1342  -29.3878   14.6960 O   0  0  0  0  0  0  0  0  0  0  0  0
   12.6421  -29.4644   15.5193 H   0  0  0  0  0  0  0  0  0  0  0  0
   15.7637  -28.9290   15.4241 H   0  0  0  0  0  0  0  0  0  0  0  0
   12.6034  -32.2848   11.4032 N   0  0  0  0  0  0  0  0  0  0  0  0
   12.1502  -31.7167   10.3940 O   0  0  0  0  0  0  0  0  0  0  0  0
   12.3196  -33.4405   11.7465 O   0  0  0  0  0  0  0  0  0  0  0  0
 23 24  2  0
 24 25  1  0
 25 22  1  0
 22  1  1  0
  1  2  2  0
  3  2  1  0
  3  4  1  0
  4  5  1  0
  5 12  1  0
 12 13  1  0
 13 14  2  0
 14 15  1  0
 15 16  2  0
 16 17  1  0
 17 18  2  0
 18 19  1  0
 18 20  1  0
 20 21  2  0
  5  6  1  0
  6  7  1  0
  6  8  1  0
  8  9  1  0
 24 27  1  0
 27 28  2  0
 28 29  1  0
 29 37  1  0
 37 38  2  0
 37 39  1  0
 29 30  2  0
 30 31  1  0
 31 32  1  0
 31 33  2  0
 33 34  1  0
  8  3  1  0
 33 27  1  0
 21 12  1  0
 21 15  1  0
 25 26  1  0
  7 10  1  0
  9 11  1  0
 32 35  1  0
 34 36  1  0
M  CHG 1  37   1
M  CHG 1  39  -1
M  END
> <minimizedAffinity>
-9.77747

> <CNNscore>
0.3025533855

> <CNNaffinity>
6.1099777222

> <CNN_VS>
1.8485944271

> <CNNaffinity_variance>
0.0917474553

$$$$



 39 42  0  0  0  0  0  0  0  0999 V2000
   20.2181  -32.1722   13.7926 C   0  0  0  0  0  0  0  0  0  0  0  0
   21.4882  -32.6081   13.7372 C   0  0  0  0  0  0  0  0  0  0  0  0
   22.2719  -33.3433   14.7965 C   0  0  0  0  0  0  0  0  0  0  0  0
   21.5082  -34.5408   15.0759 O   0  0  0  0  0  0  0  0  0  0  0  0
   22.2742  -35.6854   14.6298 C   0  0  0  0  0  0  0  0  0  0  0  0
   23.4327  -35.1425   13.7809 C   0  0  0  0  0  0  0  0  0  0  0  0
   24.6207  -35.9428   13.8141 O   0  0  0  0  0  0  0  0  0  0  0  0
   23.6896  -33.8120   14.4589 C   0  0  0  0  0  0  0  0  0  0  0  0
   24.4445  -34.0382   15.6644 O   0  0  0  0  0  0  0  0  0  0  0  0
   24.9253  -36.0316   14.7308 H   0  0  0  0  0  0  0  0  0  0  0  0
   23.9739  -34.6737   16.2261 H   0  0  0  0  0  0  0  0  0  0  0  0
   21.3823  -36.6004   13.9353 N   0  0  0  0  0  0  0  0  0  0  0  0
   21.6331  -37.2299   12.7398 C   0  0  0  0  0  0  0  0  0  0  0  0
   20.6067  -37.9479   12.3297 N   0  0  0  0  0  0  0  0  0  0  0  0
   19.6489  -37.7744   13.2933 C   0  0  0  0  0  0  0  0  0  0  0  0
   18.3458  -38.2646   13.4336 C   0  0  0  0  0  0  0  0  0  0  0  0
   17.6088  -37.9160   14.5191 N   0  0  0  0  0  0  0  0  0  0  0  0
   18.1910  -37.0969   15.4170 C   0  0  0  0  0  0  0  0  0  0  0  0
   17.2276  -36.6851   16.7681 Cl  0  0  0  0  0  0  0  0  0  0  0  0
   19.4349  -36.5623   15.4127 N   0  0  0  0  0  0  0  0  0  0  0  0
   20.1082  -36.9425   14.3075 C   0  0  0  0  0  0  0  0  0  0  0  0
   19.5534  -31.4123   12.6873 C   0  0  0  0  0  0  0  0  0  0  0  0
   17.4601  -30.9726   10.9341 O   0  0  0  0  0  0  0  0  0  0  0  0
   17.2120  -31.0035   12.1315 C   0  0  0  0  0  0  0  0  0  0  0  0
   18.1943  -31.1477   13.0780 N   0  0  0  0  0  0  0  0  0  0  0  0
   17.9673  -31.0694   14.0328 H   0  0  0  0  0  0  0  0  0  0  0  0
   15.7969  -30.9266   12.6014 C   0  0  0  0  0  0  0  0  0  0  0  0
   14.8329  -31.6409   11.8633 C   0  0  0  0  0  0  0  0  0  0  0  0
   13.4914  -31.6551   12.2762 C   0  0  0  0  0  0  0  0  0  0  0  0
   13.0892  -30.9710   13.4307 C   0  0  0  0  0  0  0  0  0  0  0  0
   14.0446  -30.2624   14.1463 C   0  0  0  0  0  0  0  0  0  0  0  0
   13.7144  -29.5797   15.2884 O   0  0  0  0  0  0  0  0  0  0  0  0
   15.3814  -30.2228   13.7381 C   0  0  0  0  0  0  0  0  0  0  0  0
   16.2496  -29.4917   14.5131 O   0  0  0  0  0  0  0  0  0  0  0  0
   12.8293  -29.5812   15.5958 H   0  0  0  0  0  0  0  0  0  0  0  0
   15.9329  -29.0340   15.2669 H   0  0  0  0  0  0  0  0  0  0  0  0
   12.4931  -32.4036   11.4946 N   0  0  0  0  0  0  0  0  0  0  0  0
   11.9453  -31.8292   10.5372 O   0  0  0  0  0  0  0  0  0  0  0  0
   12.2584  -33.5686   11.8433 O   0  0  0  0  0  0  0  0  0  0  0  0
 23 24  2  0
 24 25  1  0
 25 22  1  0
 22  1  1  0
  1  2  2  0
  3  2  1  0
  3  4  1  0
  4  5  1  0
  5 12  1  0
 12 13  1  0
 13 14  2  0
 14 15  1  0
 15 16  2  0
 16 17  1  0
 17 18  2  0
 18 19  1  0
 18 20  1  0
 20 21  2  0
  5  6  1  0
  6  7  1  0
  6  8  1  0
  8  9  1  0
 24 27  1  0
 27 28  2  0
 28 29  1  0
 29 37  1  0
 37 38  2  0
 37 39  1  0
 29 30  2  0
 30 31  1  0
 31 32  1  0
 31 33  2  0
 33 34  1  0
  8  3  1  0
 33 27  1  0
 21 12  1  0
 21 15  1  0
 25 26  1  0
  7 10  1  0
  9 11  1  0
 32 35  1  0
 34 36  1  0
M  CHG 1  37   1
M  CHG 1  39  -1
M  END
> <minimizedAffinity>
-9.75020

> <CNNscore>
0.3024985194

> <CNNaffinity>
6.2844634056

> <CNN_VS>
1.9010409117

> <CNNaffinity_variance>
0.0072196289

$$$$



 39 42  0  0  0  0  0  0  0  0999 V2000
   20.0442  -31.9543   13.7831 C   0  0  0  0  0  0  0  0  0  0  0  0
   21.2732  -32.4816   13.6503 C   0  0  0  0  0  0  0  0  0  0  0  0
   21.8260  -33.7361   14.2810 C   0  0  0  0  0  0  0  0  0  0  0  0
   21.8178  -34.7295   13.2283 O   0  0  0  0  0  0  0  0  0  0  0  0
   23.1889  -35.0616   12.9031 C   0  0  0  0  0  0  0  0  0  0  0  0
   24.0759  -34.0138   13.5908 C   0  0  0  0  0  0  0  0  0  0  0  0
   25.3723  -34.4899   13.9727 O   0  0  0  0  0  0  0  0  0  0  0  0
   23.2558  -33.7067   14.8273 C   0  0  0  0  0  0  0  0  0  0  0  0
   23.4475  -34.7602   15.7904 O   0  0  0  0  0  0  0  0  0  0  0  0
   25.2753  -35.2500   14.5675 H   0  0  0  0  0  0  0  0  0  0  0  0
   23.2293  -35.6135   15.3840 H   0  0  0  0  0  0  0  0  0  0  0  0
   23.3226  -35.1227   11.4562 N   0  0  0  0  0  0  0  0  0  0  0  0
   24.2948  -34.5100   10.7028 C   0  0  0  0  0  0  0  0  0  0  0  0
   24.1147  -34.6958    9.4104 N   0  0  0  0  0  0  0  0  0  0  0  0
   22.9780  -35.4546    9.3194 C   0  0  0  0  0  0  0  0  0  0  0  0
   22.2697  -35.9736    8.2300 C   0  0  0  0  0  0  0  0  0  0  0  0
   21.1477  -36.7072    8.4447 N   0  0  0  0  0  0  0  0  0  0  0  0
   20.7741  -36.8939    9.7258 C   0  0  0  0  0  0  0  0  0  0  0  0
   19.3570  -37.8242    9.9495 Cl  0  0  0  0  0  0  0  0  0  0  0  0
   21.3656  -36.4634   10.8651 N   0  0  0  0  0  0  0  0  0  0  0  0
   22.4667  -35.7383   10.5801 C   0  0  0  0  0  0  0  0  0  0  0  0
   19.6176  -30.6730   13.1371 C   0  0  0  0  0  0  0  0  0  0  0  0
   17.6186  -31.0695   11.2674 O   0  0  0  0  0  0  0  0  0  0  0  0
   17.2903  -30.7734   12.4080 C   0  0  0  0  0  0  0  0  0  0  0  0
   18.2119  -30.4915   13.3841 N   0  0  0  0  0  0  0  0  0  0  0  0
   17.9089  -30.1623   14.2610 H   0  0  0  0  0  0  0  0  0  0  0  0
   15.8461  -30.7531   12.7860 C   0  0  0  0  0  0  0  0  0  0  0  0
   14.9625  -31.5158   11.9975 C   0  0  0  0  0  0  0  0  0  0  0  0
   13.5992  -31.5839   12.3245 C   0  0  0  0  0  0  0  0  0  0  0  0
   13.0951  -30.9062   13.4422 C   0  0  0  0  0  0  0  0  0  0  0  0
   13.9719  -30.1497   14.2079 C   0  0  0  0  0  0  0  0  0  0  0  0
   13.5405  -29.4703   15.3178 O   0  0  0  0  0  0  0  0  0  0  0  0
   15.3291  -30.0564   13.8849 C   0  0  0  0  0  0  0  0  0  0  0  0
   16.1140  -29.2806   14.7040 O   0  0  0  0  0  0  0  0  0  0  0  0
   12.6384  -29.5071   15.5684 H   0  0  0  0  0  0  0  0  0  0  0  0
   15.7306  -28.8294   15.4302 H   0  0  0  0  0  0  0  0  0  0  0  0
   12.6857  -32.3828   11.4908 N   0  0  0  0  0  0  0  0  0  0  0  0
   12.2984  -31.8982   10.4130 O   0  0  0  0  0  0  0  0  0  0  0  0
   12.3563  -33.4971   11.9195 O   0  0  0  0  0  0  0  0  0  0  0  0
 23 24  2  0
 24 25  1  0
 25 22  1  0
 22  1  1  0
  1  2  2  0
  3  2  1  0
  3  4  1  0
  4  5  1  0
  5 12  1  0
 12 13  1  0
 13 14  2  0
 14 15  1  0
 15 16  2  0
 16 17  1  0
 17 18  2  0
 18 19  1  0
 18 20  1  0
 20 21  2  0
  5  6  1  0
  6  7  1  0
  6  8  1  0
  8  9  1  0
 24 27  1  0
 27 28  2  0
 28 29  1  0
 29 37  1  0
 37 38  2  0
 37 39  1  0
 29 30  2  0
 30 31  1  0
 31 32  1  0
 31 33  2  0
 33 34  1  0
  8  3  1  0
 33 27  1  0
 21 12  1  0
 21 15  1  0
 25 26  1  0
  7 10  1  0
  9 11  1  0
 32 35  1  0
 34 36  1  0
M  CHG 1  37   1
M  CHG 1  39  -1
M  END
> <minimizedAffinity>
-9.39921

> <CNNscore>
0.3012387156

> <CNNaffinity>
6.1648044586

> <CNN_VS>
1.8570777178

> <CNNaffinity_variance>
0.1222112775

$$$$



 39 42  0  0  0  0  0  0  0  0999 V2000
   11.5260  -35.2065   10.7885 C   0  0  0  0  0  0  0  0  0  0  0  0
   11.4922  -35.9247    9.6530 C   0  0  0  0  0  0  0  0  0  0  0  0
   11.6473  -37.4162    9.4845 C   0  0  0  0  0  0  0  0  0  0  0  0
   12.4851  -37.5844    8.3162 O   0  0  0  0  0  0  0  0  0  0  0  0
   13.7489  -38.1506    8.7383 C   0  0  0  0  0  0  0  0  0  0  0  0
   13.7889  -38.0578   10.2704 C   0  0  0  0  0  0  0  0  0  0  0  0
   14.5444  -39.0939   10.9097 O   0  0  0  0  0  0  0  0  0  0  0  0
   12.3196  -38.2094   10.6080 C   0  0  0  0  0  0  0  0  0  0  0  0
   11.9607  -39.6017   10.5245 O   0  0  0  0  0  0  0  0  0  0  0  0
   14.1810  -39.9586   10.6625 H   0  0  0  0  0  0  0  0  0  0  0  0
   12.1928  -39.9434    9.6468 H   0  0  0  0  0  0  0  0  0  0  0  0
   14.8245  -37.4506    8.0539 N   0  0  0  0  0  0  0  0  0  0  0  0
   14.6962  -36.6459    6.9474 C   0  0  0  0  0  0  0  0  0  0  0  0
   15.8601  -36.2034    6.5154 N   0  0  0  0  0  0  0  0  0  0  0  0
   16.7820  -36.7457    7.3711 C   0  0  0  0  0  0  0  0  0  0  0  0
   18.1769  -36.6597    7.4400 C   0  0  0  0  0  0  0  0  0  0  0  0
   18.8443  -37.3207    8.4201 N   0  0  0  0  0  0  0  0  0  0  0  0
   18.1044  -38.0390    9.2876 C   0  0  0  0  0  0  0  0  0  0  0  0
   18.9856  -38.8536   10.5055 Cl  0  0  0  0  0  0  0  0  0  0  0  0
   16.7612  -38.1991    9.3444 N   0  0  0  0  0  0  0  0  0  0  0  0
   16.1626  -37.5237    8.3419 C   0  0  0  0  0  0  0  0  0  0  0  0
   11.4003  -33.7155   10.8305 C   0  0  0  0  0  0  0  0  0  0  0  0
   12.6531  -31.3316   10.2005 O   0  0  0  0  0  0  0  0  0  0  0  0
   13.0660  -31.9626   11.1636 C   0  0  0  0  0  0  0  0  0  0  0  0
   12.5525  -33.1863   11.5105 N   0  0  0  0  0  0  0  0  0  0  0  0
   12.9759  -33.7070   12.2308 H   0  0  0  0  0  0  0  0  0  0  0  0
   14.1344  -31.3836   12.0311 C   0  0  0  0  0  0  0  0  0  0  0  0
   15.4706  -31.6255   11.6564 C   0  0  0  0  0  0  0  0  0  0  0  0
   16.5260  -31.0699   12.3964 C   0  0  0  0  0  0  0  0  0  0  0  0
   16.2720  -30.2595   13.5106 C   0  0  0  0  0  0  0  0  0  0  0  0
   14.9522  -30.0344   13.8776 C   0  0  0  0  0  0  0  0  0  0  0  0
   14.6393  -29.2441   14.9532 O   0  0  0  0  0  0  0  0  0  0  0  0
   13.8899  -30.5956   13.1622 C   0  0  0  0  0  0  0  0  0  0  0  0
   12.6201  -30.3147   13.6069 O   0  0  0  0  0  0  0  0  0  0  0  0
   15.3223  -28.8492   15.4589 H   0  0  0  0  0  0  0  0  0  0  0  0
   12.4974  -29.7830   14.3686 H   0  0  0  0  0  0  0  0  0  0  0  0
   17.9183  -31.3323   11.9957 N   0  0  0  0  0  0  0  0  0  0  0  0
   18.5865  -32.1281   12.6789 O   0  0  0  0  0  0  0  0  0  0  0  0
   18.3410  -30.7379   10.9947 O   0  0  0  0  0  0  0  0  0  0  0  0
 23 24  2  0
 24 25  1  0
 25 22  1  0
 22  1  1  0
  1  2  2  0
  3  2  1  0
  3  4  1  0
  4  5  1  0
  5 12  1  0
 12 13  1  0
 13 14  2  0
 14 15  1  0
 15 16  2  0
 16 17  1  0
 17 18  2  0
 18 19  1  0
 18 20  1  0
 20 21  2  0
  5  6  1  0
  6  7  1  0
  6  8  1  0
  8  9  1  0
 24 27  1  0
 27 28  2  0
 28 29  1  0
 29 37  1  0
 37 38  2  0
 37 39  1  0
 29 30  2  0
 30 31  1  0
 31 32  1  0
 31 33  2  0
 33 34  1  0
  8  3  1  0
 33 27  1  0
 21 12  1  0
 21 15  1  0
 25 26  1  0
  7 10  1  0
  9 11  1  0
 32 35  1  0
 34 36  1  0
M  CHG 1  37   1
M  CHG 1  39  -1
M  END
> <minimizedAffinity>
-8.14652

> <CNNscore>
0.2911000550

> <CNNaffinity>
5.9963107109

> <CNN_VS>
1.7455264330

> <CNNaffinity_variance>
0.0689924583

$$$$



 39 42  0  0  0  0  0  0  0  0999 V2000
   19.8520  -32.5394   13.5383 C   0  0  0  0  0  0  0  0  0  0  0  0
   20.7598  -33.2743   12.8734 C   0  0  0  0  0  0  0  0  0  0  0  0
   21.1317  -34.7207   13.0892 C   0  0  0  0  0  0  0  0  0  0  0  0
   22.3751  -34.9074   12.3721 O   0  0  0  0  0  0  0  0  0  0  0  0
   23.4242  -35.1640   13.3362 C   0  0  0  0  0  0  0  0  0  0  0  0
   22.8466  -34.8361   14.7206 C   0  0  0  0  0  0  0  0  0  0  0  0
   23.3980  -35.6092   15.7936 O   0  0  0  0  0  0  0  0  0  0  0  0
   21.3896  -35.2001   14.5200 C   0  0  0  0  0  0  0  0  0  0  0  0
   21.2481  -36.6310   14.6037 O   0  0  0  0  0  0  0  0  0  0  0  0
   23.2588  -36.5528   15.6171 H   0  0  0  0  0  0  0  0  0  0  0  0
   21.8433  -37.0527   13.9644 H   0  0  0  0  0  0  0  0  0  0  0  0
   24.5983  -34.3909   12.9636 N   0  0  0  0  0  0  0  0  0  0  0  0
   24.6075  -33.0935   12.5106 C   0  0  0  0  0  0  0  0  0  0  0  0
   25.8194  -32.6860   12.1908 N   0  0  0  0  0  0  0  0  0  0  0  0
   26.6295  -33.7618   12.4405 C   0  0  0  0  0  0  0  0  0  0  0  0
   28.0068  -33.9641   12.2996 C   0  0  0  0  0  0  0  0  0  0  0  0
   28.5484  -35.1639   12.6320 N   0  0  0  0  0  0  0  0  0  0  0  0
   27.7049  -36.1113   13.0868 C   0  0  0  0  0  0  0  0  0  0  0  0
   28.4297  -37.6053   13.4943 Cl  0  0  0  0  0  0  0  0  0  0  0  0
   26.3666  -36.0487   13.2819 N   0  0  0  0  0  0  0  0  0  0  0  0
   25.8942  -34.8362   12.9269 C   0  0  0  0  0  0  0  0  0  0  0  0
   19.5950  -31.0908   13.2619 C   0  0  0  0  0  0  0  0  0  0  0  0
   17.6449  -31.0735   11.3007 O   0  0  0  0  0  0  0  0  0  0  0  0
   17.2966  -30.9051   12.4611 C   0  0  0  0  0  0  0  0  0  0  0  0
   18.1988  -30.8303   13.4917 N   0  0  0  0  0  0  0  0  0  0  0  0
   17.8883  -30.5964   14.3962 H   0  0  0  0  0  0  0  0  0  0  0  0
   15.8447  -30.8181   12.7979 C   0  0  0  0  0  0  0  0  0  0  0  0
   14.9497  -31.5394   11.9837 C   0  0  0  0  0  0  0  0  0  0  0  0
   13.5759  -31.5444   12.2717 C   0  0  0  0  0  0  0  0  0  0  0  0
   13.0720  -30.8439   13.3754 C   0  0  0  0  0  0  0  0  0  0  0  0
   13.9606  -30.1286   14.1666 C   0  0  0  0  0  0  0  0  0  0  0  0
   13.5296  -29.4299   15.2646 O   0  0  0  0  0  0  0  0  0  0  0  0
   15.3293  -30.0981   13.8825 C   0  0  0  0  0  0  0  0  0  0  0  0
   16.1256  -29.3592   14.7245 O   0  0  0  0  0  0  0  0  0  0  0  0
   12.6199  -29.4249   15.4893 H   0  0  0  0  0  0  0  0  0  0  0  0
   15.7428  -28.8906   15.4400 H   0  0  0  0  0  0  0  0  0  0  0  0
   12.6506  -32.3004   11.4114 N   0  0  0  0  0  0  0  0  0  0  0  0
   12.3072  -33.4388   11.7754 O   0  0  0  0  0  0  0  0  0  0  0  0
   12.2695  -31.7506   10.3690 O   0  0  0  0  0  0  0  0  0  0  0  0
 23 24  2  0
 24 25  1  0
 25 22  1  0
 22  1  1  0
  1  2  2  0
  3  2  1  0
  3  4  1  0
  4  5  1  0
  5 12  1  0
 12 13  1  0
 13 14  2  0
 14 15  1  0
 15 16  2  0
 16 17  1  0
 17 18  2  0
 18 19  1  0
 18 20  1  0
 20 21  2  0
  5  6  1  0
  6  7  1  0
  6  8  1  0
  8  9  1  0
 24 27  1  0
 27 28  2  0
 28 29  1  0
 29 37  1  0
 37 38  2  0
 37 39  1  0
 29 30  2  0
 30 31  1  0
 31 32  1  0
 31 33  2  0
 33 34  1  0
  8  3  1  0
 33 27  1  0
 21 12  1  0
 21 15  1  0
 25 26  1  0
  7 10  1  0
  9 11  1  0
 32 35  1  0
 34 36  1  0
M  CHG 1  37   1
M  CHG 1  39  -1
M  END
> <minimizedAffinity>
-9.73736

> <CNNscore>
0.2698495090

> <CNNaffinity>
5.8358669281

> <CNN_VS>
1.5748058558

> <CNNaffinity_variance>
0.1238965094

$$$$



 39 42  0  0  0  0  0  0  0  0999 V2000
   20.6614  -30.9682   10.3438 C   0  0  0  0  0  0  0  0  0  0  0  0
   19.7610  -30.7506   11.3176 C   0  0  0  0  0  0  0  0  0  0  0  0
   19.8410  -31.1472   12.7712 C   0  0  0  0  0  0  0  0  0  0  0  0
   19.6468  -32.5815   12.7881 O   0  0  0  0  0  0  0  0  0  0  0  0
   20.8813  -33.2044   13.2171 C   0  0  0  0  0  0  0  0  0  0  0  0
   21.9636  -32.1157   13.1861 C   0  0  0  0  0  0  0  0  0  0  0  0
   23.0086  -32.2879   14.1511 O   0  0  0  0  0  0  0  0  0  0  0  0
   21.1468  -30.8857   13.5261 C   0  0  0  0  0  0  0  0  0  0  0  0
   20.9095  -30.8586   14.9464 O   0  0  0  0  0  0  0  0  0  0  0  0
   22.6250  -32.3161   15.0416 H   0  0  0  0  0  0  0  0  0  0  0  0
   20.4896  -31.6891   15.2200 H   0  0  0  0  0  0  0  0  0  0  0  0
   21.1436  -34.3534   12.3651 N   0  0  0  0  0  0  0  0  0  0  0  0
   21.6984  -34.3240   11.1082 C   0  0  0  0  0  0  0  0  0  0  0  0
   21.7501  -35.5206   10.5581 N   0  0  0  0  0  0  0  0  0  0  0  0
   21.2027  -36.3605   11.4914 C   0  0  0  0  0  0  0  0  0  0  0  0
   20.9697  -37.7401   11.5042 C   0  0  0  0  0  0  0  0  0  0  0  0
   20.3966  -38.3159   12.5920 N   0  0  0  0  0  0  0  0  0  0  0  0
   20.0772  -37.5029   13.6181 C   0  0  0  0  0  0  0  0  0  0  0  0
   19.3593  -38.2701   14.9669 Cl  0  0  0  0  0  0  0  0  0  0  0  0
   20.2547  -36.1664   13.7432 N   0  0  0  0  0  0  0  0  0  0  0  0
   20.8204  -35.6592   12.6287 C   0  0  0  0  0  0  0  0  0  0  0  0
   20.4549  -30.5623    8.9178 C   0  0  0  0  0  0  0  0  0  0  0  0
   21.9280  -30.8884    6.5999 O   0  0  0  0  0  0  0  0  0  0  0  0
   22.1915  -29.9361    7.3209 C   0  0  0  0  0  0  0  0  0  0  0  0
   21.5613  -29.7322    8.5221 N   0  0  0  0  0  0  0  0  0  0  0  0
   21.8688  -29.0117    9.1185 H   0  0  0  0  0  0  0  0  0  0  0  0
   23.1982  -28.9249    6.8813 C   0  0  0  0  0  0  0  0  0  0  0  0
   24.1856  -29.3515    5.9718 C   0  0  0  0  0  0  0  0  0  0  0  0
   25.1336  -28.4424    5.4766 C   0  0  0  0  0  0  0  0  0  0  0  0
   25.1098  -27.0974    5.8676 C   0  0  0  0  0  0  0  0  0  0  0  0
   24.1387  -26.6883    6.7714 C   0  0  0  0  0  0  0  0  0  0  0  0
   24.0589  -25.3840    7.1859 O   0  0  0  0  0  0  0  0  0  0  0  0
   23.1988  -27.5852    7.2883 C   0  0  0  0  0  0  0  0  0  0  0  0
   22.2800  -27.0828    8.1785 O   0  0  0  0  0  0  0  0  0  0  0  0
   24.6702  -24.7516    6.8629 H   0  0  0  0  0  0  0  0  0  0  0  0
   22.3132  -26.1799    8.4265 H   0  0  0  0  0  0  0  0  0  0  0  0
   26.1620  -28.9016    4.5282 N   0  0  0  0  0  0  0  0  0  0  0  0
   26.3622  -30.1246    4.4250 O   0  0  0  0  0  0  0  0  0  0  0  0
   26.7696  -28.0330    3.8875 O   0  0  0  0  0  0  0  0  0  0  0  0
 23 24  2  0
 24 25  1  0
 25 22  1  0
 22  1  1  0
  1  2  2  0
  3  2  1  0
  3  4  1  0
  4  5  1  0
  5 12  1  0
 12 13  1  0
 13 14  2  0
 14 15  1  0
 15 16  2  0
 16 17  1  0
 17 18  2  0
 18 19  1  0
 18 20  1  0
 20 21  2  0
  5  6  1  0
  6  7  1  0
  6  8  1  0
  8  9  1  0
 24 27  1  0
 27 28  2  0
 28 29  1  0
 29 37  1  0
 37 38  2  0
 37 39  1  0
 29 30  2  0
 30 31  1  0
 31 32  1  0
 31 33  2  0
 33 34  1  0
  8  3  1  0
 33 27  1  0
 21 12  1  0
 21 15  1  0
 25 26  1  0
  7 10  1  0
  9 11  1  0
 32 35  1  0
 34 36  1  0
M  CHG 1  37   1
M  CHG 1  39  -1
M  END
> <minimizedAffinity>
-8.57576

> <CNNscore>
0.2453354001

> <CNNaffinity>
6.0746750832

> <CNN_VS>
1.4903328419

> <CNNaffinity_variance>
0.0091426568

$$$$



 39 42  0  0  0  0  0  0  0  0999 V2000
   20.3265  -30.0816    9.3148 C   0  0  0  0  0  0  0  0  0  0  0  0
   20.0084  -30.8011   10.4045 C   0  0  0  0  0  0  0  0  0  0  0  0
   19.4223  -30.3158   11.7076 C   0  0  0  0  0  0  0  0  0  0  0  0
   18.8787  -31.4958   12.3459 O   0  0  0  0  0  0  0  0  0  0  0  0
   19.6526  -31.7670   13.5390 C   0  0  0  0  0  0  0  0  0  0  0  0
   20.9026  -30.8780   13.4706 C   0  0  0  0  0  0  0  0  0  0  0  0
   21.4177  -30.4766   14.7459 O   0  0  0  0  0  0  0  0  0  0  0  0
   20.3598  -29.6715   12.7320 C   0  0  0  0  0  0  0  0  0  0  0  0
   19.6124  -28.8551   13.6535 O   0  0  0  0  0  0  0  0  0  0  0  0
   20.7291  -30.0030   15.2383 H   0  0  0  0  0  0  0  0  0  0  0  0
   18.9235  -29.3919   14.0757 H   0  0  0  0  0  0  0  0  0  0  0  0
   19.9195  -33.1951   13.6061 N   0  0  0  0  0  0  0  0  0  0  0  0
   19.4448  -34.0672   14.5561 C   0  0  0  0  0  0  0  0  0  0  0  0
   19.9129  -35.2881   14.3900 N   0  0  0  0  0  0  0  0  0  0  0  0
   20.7280  -35.2058   13.2923 C   0  0  0  0  0  0  0  0  0  0  0  0
   21.5120  -36.1505   12.6210 C   0  0  0  0  0  0  0  0  0  0  0  0
   22.2357  -35.7753   11.5354 N   0  0  0  0  0  0  0  0  0  0  0  0
   22.1544  -34.4830   11.1622 C   0  0  0  0  0  0  0  0  0  0  0  0
   23.0806  -34.0551    9.7902 Cl  0  0  0  0  0  0  0  0  0  0  0  0
   21.4342  -33.4746   11.7077 N   0  0  0  0  0  0  0  0  0  0  0  0
   20.7465  -33.9132   12.7820 C   0  0  0  0  0  0  0  0  0  0  0  0
   20.9451  -30.6693    8.0849 C   0  0  0  0  0  0  0  0  0  0  0  0
   22.6482  -31.1875    5.9683 O   0  0  0  0  0  0  0  0  0  0  0  0
   22.8089  -30.1504    6.5967 C   0  0  0  0  0  0  0  0  0  0  0  0
   22.0577  -29.8415    7.7020 N   0  0  0  0  0  0  0  0  0  0  0  0
   22.2818  -29.0466    8.2379 H   0  0  0  0  0  0  0  0  0  0  0  0
   23.8209  -29.1520    6.1402 C   0  0  0  0  0  0  0  0  0  0  0  0
   24.8721  -29.6239    5.3300 C   0  0  0  0  0  0  0  0  0  0  0  0
   25.8311  -28.7331    4.8228 C   0  0  0  0  0  0  0  0  0  0  0  0
   25.7556  -27.3625    5.1028 C   0  0  0  0  0  0  0  0  0  0  0  0
   24.7213  -26.9082    5.9097 C   0  0  0  0  0  0  0  0  0  0  0  0
   24.5894  -25.5777    6.2130 O   0  0  0  0  0  0  0  0  0  0  0  0
   23.7688  -27.7850    6.4381 C   0  0  0  0  0  0  0  0  0  0  0  0
   22.7858  -27.2374    7.2272 O   0  0  0  0  0  0  0  0  0  0  0  0
   25.2070  -24.9575    5.8786 H   0  0  0  0  0  0  0  0  0  0  0  0
   22.7852  -26.3171    7.4038 H   0  0  0  0  0  0  0  0  0  0  0  0
   26.9263  -29.2394    3.9791 N   0  0  0  0  0  0  0  0  0  0  0  0
   27.7152  -28.4158    3.4833 O   0  0  0  0  0  0  0  0  0  0  0  0
   26.9933  -30.4650    3.8135 O   0  0  0  0  0  0  0  0  0  0  0  0
 23 24  2  0
 24 25  1  0
 25 22  1  0
 22  1  1  0
  1  2  2  0
  3  2  1  0
  3  4  1  0
  4  5  1  0
  5 12  1  0
 12 13  1  0
 13 14  2  0
 14 15  1  0
 15 16  2  0
 16 17  1  0
 17 18  2  0
 18 19  1  0
 18 20  1  0
 20 21  2  0
  5  6  1  0
  6  7  1  0
  6  8  1  0
  8  9  1  0
 24 27  1  0
 27 28  2  0
 28 29  1  0
 29 37  1  0
 37 38  2  0
 37 39  1  0
 29 30  2  0
 30 31  1  0
 31 32  1  0
 31 33  2  0
 33 34  1  0
  8  3  1  0
 33 27  1  0
 21 12  1  0
 21 15  1  0
 25 26  1  0
  7 10  1  0
  9 11  1  0
 32 35  1  0
 34 36  1  0
M  CHG 1  37   1
M  CHG 1  39  -1
M  END
> <minimizedAffinity>
-9.28435

> <CNNscore>
0.2415592223

> <CNNaffinity>
6.3600926399

> <CNN_VS>
1.5363390446

> <CNNaffinity_variance>
0.0090690227

$$$$



 39 42  0  0  0  0  0  0  0  0999 V2000
   19.9181  -33.0049   13.4407 C   0  0  0  0  0  0  0  0  0  0  0  0
   20.7616  -33.6132   12.5894 C   0  0  0  0  0  0  0  0  0  0  0  0
   21.0366  -35.0893   12.4398 C   0  0  0  0  0  0  0  0  0  0  0  0
   22.4179  -35.2635   12.8360 O   0  0  0  0  0  0  0  0  0  0  0  0
   22.4481  -36.0385   14.0584 C   0  0  0  0  0  0  0  0  0  0  0  0
   21.0068  -36.0960   14.5849 C   0  0  0  0  0  0  0  0  0  0  0  0
   20.6895  -37.2830   15.3218 O   0  0  0  0  0  0  0  0  0  0  0  0
   20.2237  -36.0706   13.2880 C   0  0  0  0  0  0  0  0  0  0  0  0
   20.2494  -37.3848   12.6992 O   0  0  0  0  0  0  0  0  0  0  0  0
   20.8452  -38.0612   14.7641 H   0  0  0  0  0  0  0  0  0  0  0  0
   21.1693  -37.6720   12.5896 H   0  0  0  0  0  0  0  0  0  0  0  0
   23.4090  -35.4355   14.9684 N   0  0  0  0  0  0  0  0  0  0  0  0
   24.0053  -34.2059   14.8235 C   0  0  0  0  0  0  0  0  0  0  0  0
   24.8823  -33.9620   15.7767 N   0  0  0  0  0  0  0  0  0  0  0  0
   24.8595  -35.0786   16.5695 C   0  0  0  0  0  0  0  0  0  0  0  0
   25.5611  -35.4337   17.7269 C   0  0  0  0  0  0  0  0  0  0  0  0
   25.3286  -36.6363   18.3126 N   0  0  0  0  0  0  0  0  0  0  0  0
   24.4149  -37.4356   17.7278 C   0  0  0  0  0  0  0  0  0  0  0  0
   24.1532  -38.9388   18.4992 Cl  0  0  0  0  0  0  0  0  0  0  0  0
   23.6619  -37.2162   16.6241 N   0  0  0  0  0  0  0  0  0  0  0  0
   23.9467  -36.0107   16.0905 C   0  0  0  0  0  0  0  0  0  0  0  0
   19.7568  -31.5193   13.5283 C   0  0  0  0  0  0  0  0  0  0  0  0
   17.9970  -30.7466   11.5395 O   0  0  0  0  0  0  0  0  0  0  0  0
   17.5545  -30.9133   12.6676 C   0  0  0  0  0  0  0  0  0  0  0  0
   18.3621  -31.2298   13.7303 N   0  0  0  0  0  0  0  0  0  0  0  0
   17.9841  -31.2592   14.6388 H   0  0  0  0  0  0  0  0  0  0  0  0
   16.0850  -30.8166   12.9133 C   0  0  0  0  0  0  0  0  0  0  0  0
   15.2386  -31.5446   12.0543 C   0  0  0  0  0  0  0  0  0  0  0  0
   13.8496  -31.5408   12.2572 C   0  0  0  0  0  0  0  0  0  0  0  0
   13.2820  -30.8248   13.3192 C   0  0  0  0  0  0  0  0  0  0  0  0
   14.1234  -30.1030   14.1548 C   0  0  0  0  0  0  0  0  0  0  0  0
   13.6288  -29.3891   15.2156 O   0  0  0  0  0  0  0  0  0  0  0  0
   15.5071  -30.0812   13.9552 C   0  0  0  0  0  0  0  0  0  0  0  0
   16.2534  -29.3349   14.8355 O   0  0  0  0  0  0  0  0  0  0  0  0
   12.7071  -29.3779   15.3838 H   0  0  0  0  0  0  0  0  0  0  0  0
   15.8295  -28.8560   15.5203 H   0  0  0  0  0  0  0  0  0  0  0  0
   12.9756  -32.3040   11.3509 N   0  0  0  0  0  0  0  0  0  0  0  0
   12.2411  -33.1794   11.8415 O   0  0  0  0  0  0  0  0  0  0  0  0
   13.0279  -32.0245   10.1454 O   0  0  0  0  0  0  0  0  0  0  0  0
 23 24  2  0
 24 25  1  0
 25 22  1  0
 22  1  1  0
  1  2  2  0
  3  2  1  0
  3  4  1  0
  4  5  1  0
  5 12  1  0
 12 13  1  0
 13 14  2  0
 14 15  1  0
 15 16  2  0
 16 17  1  0
 17 18  2  0
 18 19  1  0
 18 20  1  0
 20 21  2  0
  5  6  1  0
  6  7  1  0
  6  8  1  0
  8  9  1  0
 24 27  1  0
 27 28  2  0
 28 29  1  0
 29 37  1  0
 37 38  2  0
 37 39  1  0
 29 30  2  0
 30 31  1  0
 31 32  1  0
 31 33  2  0
 33 34  1  0
  8  3  1  0
 33 27  1  0
 21 12  1  0
 21 15  1  0
 25 26  1  0
  7 10  1  0
  9 11  1  0
 32 35  1  0
 34 36  1  0
M  CHG 1  37   1
M  CHG 1  39  -1
M  END
> <minimizedAffinity>
-8.99527

> <CNNscore>
0.2321201563

> <CNNaffinity>
5.4177894592

> <CNN_VS>
1.2575781345

> <CNNaffinity_variance>
0.4920233190

$$$$
