


 25 27  0  0  0  0  0  0  0  0999 V2000
   29.7144   -4.5985   18.4917 O   0  0  0  0  0  0  0  0  0  0  0  0
   29.6395   -4.9172   19.8065 C   0  0  0  0  0  0  0  0  0  0  0  0
   30.1041   -5.9350   20.2916 O   0  0  0  0  0  0  0  0  0  0  0  0
   28.9808   -3.9066   20.4447 N   0  0  0  0  0  0  0  0  0  0  0  0
   28.6745   -3.1666   19.8721 H   0  0  0  0  0  0  0  0  0  0  0  0
   28.6831   -3.7845   21.8115 C   0  0  0  0  0  0  0  0  0  0  0  0
   29.6323   -3.9177   22.8258 C   0  0  0  0  0  0  0  0  0  0  0  0
   29.2599   -3.7758   24.1672 C   0  0  0  0  0  0  0  0  0  0  0  0
   27.9352   -3.4976   24.5066 C   0  0  0  0  0  0  0  0  0  0  0  0
   27.5494   -3.3325   26.1793 Cl  0  0  0  0  0  0  0  0  0  0  0  0
   26.9786   -3.3664   23.4981 C   0  0  0  0  0  0  0  0  0  0  0  0
   25.3184   -3.0271   23.8361 Cl  0  0  0  0  0  0  0  0  0  0  0  0
   27.3541   -3.5098   22.1571 C   0  0  0  0  0  0  0  0  0  0  0  0
   30.3535   -5.6191   16.3971 C   0  0  0  0  0  0  0  0  0  0  0  0
   30.8247   -5.1608   17.7724 C   0  0  0  0  0  0  0  0  0  0  0  0
   31.8436   -4.0663   17.6885 C   0  0  0  0  0  0  0  0  0  0  0  0
   33.1578   -4.1788   17.6752 N   0  0  0  0  0  0  0  0  0  0  0  0
   33.6399   -2.8974   17.5656 C   0  0  0  0  0  0  0  0  0  0  0  0
   34.9629   -2.4400   17.4996 C   0  0  0  0  0  0  0  0  0  0  0  0
   35.1974   -1.0654   17.3790 C   0  0  0  0  0  0  0  0  0  0  0  0
   34.1299   -0.1633   17.3279 C   0  0  0  0  0  0  0  0  0  0  0  0
   32.8013   -0.6022   17.3930 C   0  0  0  0  0  0  0  0  0  0  0  0
   32.6018   -1.9784   17.5106 C   0  0  0  0  0  0  0  0  0  0  0  0
   31.4693   -2.7447   17.5960 N   0  0  0  0  0  0  0  0  0  0  0  0
   30.5444   -2.4073   17.5919 H   0  0  0  0  0  0  0  0  0  0  0  0
 15 14  1  0
 15  1  1  0
  1  2  1  0
  2  3  2  0
  2  4  1  0
  4  6  1  0
  6  7  2  0
  7  8  1  0
  8  9  2  0
  9 10  1  0
  9 11  1  0
 11 12  1  0
 11 13  2  0
 15 16  1  0
 16 17  2  0
 17 18  1  0
 18 19  2  0
 19 20  1  0
 20 21  2  0
 21 22  1  0
 22 23  2  0
 23 24  1  0
 13  6  1  0
 24 16  1  0
 23 18  1  0
  4  5  1  0
 24 25  1  0
M  END
> <minimizedAffinity>
-7.77817

> <CNNscore>
0.9812501073

> <CNNaffinity>
5.5522723198

> <CNN_VS>
5.4481678009

> <CNNaffinity_variance>
1.2351499796

$$$$



 25 27  0  0  0  0  0  0  0  0999 V2000
   30.0994   -5.2824   18.6389 O   0  0  0  0  0  0  0  0  0  0  0  0
   29.6167   -5.5212   19.8822 C   0  0  0  0  0  0  0  0  0  0  0  0
   29.3823   -6.6336   20.3235 O   0  0  0  0  0  0  0  0  0  0  0  0
   29.4676   -4.3190   20.5107 N   0  0  0  0  0  0  0  0  0  0  0  0
   29.7068   -3.5256   19.9792 H   0  0  0  0  0  0  0  0  0  0  0  0
   29.0175   -4.0661   21.8165 C   0  0  0  0  0  0  0  0  0  0  0  0
   29.8182   -4.2015   22.9515 C   0  0  0  0  0  0  0  0  0  0  0  0
   29.2993   -3.9245   24.2212 C   0  0  0  0  0  0  0  0  0  0  0  0
   27.9755   -3.5079   24.3675 C   0  0  0  0  0  0  0  0  0  0  0  0
   27.4050   -3.1809   25.9618 Cl  0  0  0  0  0  0  0  0  0  0  0  0
   27.1667   -3.3734   23.2375 C   0  0  0  0  0  0  0  0  0  0  0  0
   25.5174   -2.8673   23.3350 Cl  0  0  0  0  0  0  0  0  0  0  0  0
   27.6884   -3.6522   21.9687 C   0  0  0  0  0  0  0  0  0  0  0  0
   30.5385   -6.9157   16.9135 C   0  0  0  0  0  0  0  0  0  0  0  0
   31.0787   -6.2174   18.1562 C   0  0  0  0  0  0  0  0  0  0  0  0
   32.3010   -5.4027   17.8642 C   0  0  0  0  0  0  0  0  0  0  0  0
   32.3646   -4.1439   17.4748 N   0  0  0  0  0  0  0  0  0  0  0  0
   33.7030   -3.8558   17.3644 C   0  0  0  0  0  0  0  0  0  0  0  0
   34.3352   -2.6614   16.9932 C   0  0  0  0  0  0  0  0  0  0  0  0
   35.7338   -2.6175   16.9653 C   0  0  0  0  0  0  0  0  0  0  0  0
   36.4880   -3.7470   17.2994 C   0  0  0  0  0  0  0  0  0  0  0  0
   35.8734   -4.9493   17.6720 C   0  0  0  0  0  0  0  0  0  0  0  0
   34.4780   -4.9591   17.6920 C   0  0  0  0  0  0  0  0  0  0  0  0
   33.5644   -5.9321   18.0012 N   0  0  0  0  0  0  0  0  0  0  0  0
   33.7756   -6.8539   18.2750 H   0  0  0  0  0  0  0  0  0  0  0  0
 15 14  1  0
 15  1  1  0
  1  2  1  0
  2  3  2  0
  2  4  1  0
  4  6  1  0
  6  7  2  0
  7  8  1  0
  8  9  2  0
  9 10  1  0
  9 11  1  0
 11 12  1  0
 11 13  2  0
 15 16  1  0
 16 17  2  0
 17 18  1  0
 18 19  2  0
 19 20  1  0
 20 21  2  0
 21 22  1  0
 22 23  2  0
 23 24  1  0
 13  6  1  0
 24 16  1  0
 23 18  1  0
  4  5  1  0
 24 25  1  0
M  END
> <minimizedAffinity>
-6.05734

> <CNNscore>
0.8922725320

> <CNNaffinity>
5.9049754143

> <CNN_VS>
5.2688474655

> <CNNaffinity_variance>
0.0371009894

$$$$



 25 27  0  0  0  0  0  0  0  0999 V2000
   29.3619   -4.3845   18.3630 O   0  0  0  0  0  0  0  0  0  0  0  0
   29.1848   -4.8185   19.6343 C   0  0  0  0  0  0  0  0  0  0  0  0
   29.3078   -5.9802   19.9843 O   0  0  0  0  0  0  0  0  0  0  0  0
   28.8693   -3.7373   20.4050 N   0  0  0  0  0  0  0  0  0  0  0  0
   28.8109   -2.8763   19.9311 H   0  0  0  0  0  0  0  0  0  0  0  0
   28.6170   -3.6927   21.7855 C   0  0  0  0  0  0  0  0  0  0  0  0
   29.5934   -3.9099   22.7587 C   0  0  0  0  0  0  0  0  0  0  0  0
   29.2663   -3.8423   24.1176 C   0  0  0  0  0  0  0  0  0  0  0  0
   27.9600   -3.5551   24.5159 C   0  0  0  0  0  0  0  0  0  0  0  0
   27.6302   -3.4843   26.2072 Cl  0  0  0  0  0  0  0  0  0  0  0  0
   26.9763   -3.3400   23.5487 C   0  0  0  0  0  0  0  0  0  0  0  0
   25.3363   -2.9841   23.9601 Cl  0  0  0  0  0  0  0  0  0  0  0  0
   27.3066   -3.4093   22.1900 C   0  0  0  0  0  0  0  0  0  0  0  0
   31.5346   -5.4185   18.5813 C   0  0  0  0  0  0  0  0  0  0  0  0
   30.4166   -5.0228   17.6237 C   0  0  0  0  0  0  0  0  0  0  0  0
   29.7836   -6.2108   16.9671 C   0  0  0  0  0  0  0  0  0  0  0  0
   30.2543   -7.4403   16.8843 N   0  0  0  0  0  0  0  0  0  0  0  0
   29.2988   -8.1599   16.2094 C   0  0  0  0  0  0  0  0  0  0  0  0
   29.2822   -9.5154   15.8539 C   0  0  0  0  0  0  0  0  0  0  0  0
   28.1727  -10.0200   15.1659 C   0  0  0  0  0  0  0  0  0  0  0  0
   27.0999   -9.1854   14.8362 C   0  0  0  0  0  0  0  0  0  0  0  0
   27.0995   -7.8282   15.1827 C   0  0  0  0  0  0  0  0  0  0  0  0
   28.2191   -7.3572   15.8700 C   0  0  0  0  0  0  0  0  0  0  0  0
   28.5525   -6.1210   16.3575 N   0  0  0  0  0  0  0  0  0  0  0  0
   28.0046   -5.3064   16.2842 H   0  0  0  0  0  0  0  0  0  0  0  0
 15 14  1  0
 15  1  1  0
  1  2  1  0
  2  3  2  0
  2  4  1  0
  4  6  1  0
  6  7  2  0
  7  8  1  0
  8  9  2  0
  9 10  1  0
  9 11  1  0
 11 12  1  0
 11 13  2  0
 15 16  1  0
 16 17  2  0
 17 18  1  0
 18 19  2  0
 19 20  1  0
 20 21  2  0
 21 22  1  0
 22 23  2  0
 23 24  1  0
 13  6  1  0
 24 16  1  0
 23 18  1  0
  4  5  1  0
 24 25  1  0
M  END
> <minimizedAffinity>
-6.21670

> <CNNscore>
0.8327518702

> <CNNaffinity>
6.0944061279

> <CNN_VS>
5.0751280785

> <CNNaffinity_variance>
0.0068642716

$$$$



 25 27  0  0  0  0  0  0  0  0999 V2000
   29.4074   -4.9693   18.4891 O   0  0  0  0  0  0  0  0  0  0  0  0
   29.2507   -5.2311   19.8092 C   0  0  0  0  0  0  0  0  0  0  0  0
   29.4019   -6.3320   20.3114 O   0  0  0  0  0  0  0  0  0  0  0  0
   28.9186   -4.0623   20.4306 N   0  0  0  0  0  0  0  0  0  0  0  0
   28.8375   -3.2746   19.8456 H   0  0  0  0  0  0  0  0  0  0  0  0
   28.6774   -3.8366   21.7953 C   0  0  0  0  0  0  0  0  0  0  0  0
   29.6596   -3.9344   22.7819 C   0  0  0  0  0  0  0  0  0  0  0  0
   29.3436   -3.6880   24.1226 C   0  0  0  0  0  0  0  0  0  0  0  0
   28.0427   -3.3399   24.4890 C   0  0  0  0  0  0  0  0  0  0  0  0
   27.7267   -3.0473   26.1589 Cl  0  0  0  0  0  0  0  0  0  0  0  0
   27.0534   -3.2434   23.5086 C   0  0  0  0  0  0  0  0  0  0  0  0
   25.4195   -2.8224   23.8812 Cl  0  0  0  0  0  0  0  0  0  0  0  0
   27.3725   -3.4914   22.1683 C   0  0  0  0  0  0  0  0  0  0  0  0
   31.7046   -5.6988   18.6565 C   0  0  0  0  0  0  0  0  0  0  0  0
   30.7477   -4.6710   18.0637 C   0  0  0  0  0  0  0  0  0  0  0  0
   30.7141   -4.7224   16.5673 C   0  0  0  0  0  0  0  0  0  0  0  0
   31.0223   -5.7364   15.7819 N   0  0  0  0  0  0  0  0  0  0  0  0
   30.8088   -5.2924   14.4998 C   0  0  0  0  0  0  0  0  0  0  0  0
   30.9712   -5.9632   13.2801 C   0  0  0  0  0  0  0  0  0  0  0  0
   30.6744   -5.2860   12.0918 C   0  0  0  0  0  0  0  0  0  0  0  0
   30.2260   -3.9616   12.1205 C   0  0  0  0  0  0  0  0  0  0  0  0
   30.0584   -3.2752   13.3300 C   0  0  0  0  0  0  0  0  0  0  0  0
   30.3606   -3.9793   14.4964 C   0  0  0  0  0  0  0  0  0  0  0  0
   30.3134   -3.6364   15.8220 N   0  0  0  0  0  0  0  0  0  0  0  0
   30.0394   -2.7615   16.1809 H   0  0  0  0  0  0  0  0  0  0  0  0
 15 14  1  0
 15  1  1  0
  1  2  1  0
  2  3  2  0
  2  4  1  0
  4  6  1  0
  6  7  2  0
  7  8  1  0
  8  9  2  0
  9 10  1  0
  9 11  1  0
 11 12  1  0
 11 13  2  0
 15 16  1  0
 16 17  2  0
 17 18  1  0
 18 19  2  0
 19 20  1  0
 20 21  2  0
 21 22  1  0
 22 23  2  0
 23 24  1  0
 13  6  1  0
 24 16  1  0
 23 18  1  0
  4  5  1  0
 24 25  1  0
M  END
> <minimizedAffinity>
-6.50613

> <CNNscore>
0.7938374877

> <CNNaffinity>
5.4299259186

> <CNN_VS>
4.3104786873

> <CNNaffinity_variance>
0.2933171690

$$$$



 25 27  0  0  0  0  0  0  0  0999 V2000
   31.1386   -5.4737   19.4825 O   0  0  0  0  0  0  0  0  0  0  0  0
   30.0229   -5.6069   20.2397 C   0  0  0  0  0  0  0  0  0  0  0  0
   29.2900   -6.5812   20.2134 O   0  0  0  0  0  0  0  0  0  0  0  0
   29.9037   -4.4860   21.0091 N   0  0  0  0  0  0  0  0  0  0  0  0
   30.5997   -3.8019   20.8795 H   0  0  0  0  0  0  0  0  0  0  0  0
   28.9178   -4.1812   21.9613 C   0  0  0  0  0  0  0  0  0  0  0  0
   27.7179   -3.5377   21.6551 C   0  0  0  0  0  0  0  0  0  0  0  0
   26.7798   -3.2734   22.6593 C   0  0  0  0  0  0  0  0  0  0  0  0
   27.0322   -3.6517   23.9787 C   0  0  0  0  0  0  0  0  0  0  0  0
   25.8297   -3.2970   25.1629 Cl  0  0  0  0  0  0  0  0  0  0  0  0
   28.2318   -4.2927   24.2941 C   0  0  0  0  0  0  0  0  0  0  0  0
   28.6208   -4.7883   25.9031 Cl  0  0  0  0  0  0  0  0  0  0  0  0
   29.1686   -4.5548   23.2874 C   0  0  0  0  0  0  0  0  0  0  0  0
   31.7904   -3.8530   17.8134 C   0  0  0  0  0  0  0  0  0  0  0  0
   30.9266   -5.0712   18.1189 C   0  0  0  0  0  0  0  0  0  0  0  0
   31.3038   -6.2584   17.2873 C   0  0  0  0  0  0  0  0  0  0  0  0
   30.5577   -7.2995   16.9718 N   0  0  0  0  0  0  0  0  0  0  0  0
   31.3475   -8.0968   16.1799 C   0  0  0  0  0  0  0  0  0  0  0  0
   31.0533   -9.3210   15.5643 C   0  0  0  0  0  0  0  0  0  0  0  0
   32.0393   -9.9413   14.7885 C   0  0  0  0  0  0  0  0  0  0  0  0
   33.2977   -9.3512   14.6323 C   0  0  0  0  0  0  0  0  0  0  0  0
   33.6097   -8.1286   15.2406 C   0  0  0  0  0  0  0  0  0  0  0  0
   32.6042   -7.5353   16.0051 C   0  0  0  0  0  0  0  0  0  0  0  0
   32.5545   -6.3694   16.7230 N   0  0  0  0  0  0  0  0  0  0  0  0
   33.2890   -5.7209   16.8191 H   0  0  0  0  0  0  0  0  0  0  0  0
 15 14  1  0
 15  1  1  0
  1  2  1  0
  2  3  2  0
  2  4  1  0
  4  6  1  0
  6  7  2  0
  7  8  1  0
  8  9  2  0
  9 10  1  0
  9 11  1  0
 11 12  1  0
 11 13  2  0
 15 16  1  0
 16 17  2  0
 17 18  1  0
 18 19  2  0
 19 20  1  0
 20 21  2  0
 21 22  1  0
 22 23  2  0
 23 24  1  0
 13  6  1  0
 24 16  1  0
 23 18  1  0
  4  5  1  0
 24 25  1  0
M  END
> <minimizedAffinity>
-5.10969

> <CNNscore>
0.7931308746

> <CNNaffinity>
5.3671584129

> <CNN_VS>
4.2568588257

> <CNNaffinity_variance>
0.1176340282

$$$$



 25 27  0  0  0  0  0  0  0  0999 V2000
   31.9075   -7.7059   23.5079 O   0  0  0  0  0  0  0  0  0  0  0  0
   30.6042   -7.3369   23.5407 C   0  0  0  0  0  0  0  0  0  0  0  0
   29.6770   -8.1125   23.7019 O   0  0  0  0  0  0  0  0  0  0  0  0
   30.5489   -5.9831   23.3773 N   0  0  0  0  0  0  0  0  0  0  0  0
   31.4147   -5.5311   23.2540 H   0  0  0  0  0  0  0  0  0  0  0  0
   29.4181   -5.1508   23.3622 C   0  0  0  0  0  0  0  0  0  0  0  0
   28.7115   -4.8252   22.2036 C   0  0  0  0  0  0  0  0  0  0  0  0
   27.5884   -3.9931   22.2695 C   0  0  0  0  0  0  0  0  0  0  0  0
   27.1604   -3.4803   23.4949 C   0  0  0  0  0  0  0  0  0  0  0  0
   25.7667   -2.4645   23.5009 Cl  0  0  0  0  0  0  0  0  0  0  0  0
   27.8638   -3.7983   24.6582 C   0  0  0  0  0  0  0  0  0  0  0  0
   27.4009   -3.2004   26.2119 Cl  0  0  0  0  0  0  0  0  0  0  0  0
   28.9876   -4.6302   24.5889 C   0  0  0  0  0  0  0  0  0  0  0  0
   33.3866   -9.6099   23.6652 C   0  0  0  0  0  0  0  0  0  0  0  0
   32.2627   -8.8272   24.3344 C   0  0  0  0  0  0  0  0  0  0  0  0
   32.6819   -8.2407   25.6471 C   0  0  0  0  0  0  0  0  0  0  0  0
   33.2211   -7.0583   25.8737 N   0  0  0  0  0  0  0  0  0  0  0  0
   33.3999   -6.9853   27.2335 C   0  0  0  0  0  0  0  0  0  0  0  0
   33.9280   -5.9478   28.0138 C   0  0  0  0  0  0  0  0  0  0  0  0
   33.9972   -6.1142   29.4018 C   0  0  0  0  0  0  0  0  0  0  0  0
   33.5496   -7.2966   29.9999 C   0  0  0  0  0  0  0  0  0  0  0  0
   33.0196   -8.3442   29.2359 C   0  0  0  0  0  0  0  0  0  0  0  0
   32.9624   -8.1457   27.8558 C   0  0  0  0  0  0  0  0  0  0  0  0
   32.5151   -8.9314   26.8263 N   0  0  0  0  0  0  0  0  0  0  0  0
   32.1382   -9.8365   26.9148 H   0  0  0  0  0  0  0  0  0  0  0  0
 15 14  1  0
 15  1  1  0
  1  2  1  0
  2  3  2  0
  2  4  1  0
  4  6  1  0
  6  7  2  0
  7  8  1  0
  8  9  2  0
  9 10  1  0
  9 11  1  0
 11 12  1  0
 11 13  2  0
 15 16  1  0
 16 17  2  0
 17 18  1  0
 18 19  2  0
 19 20  1  0
 20 21  2  0
 21 22  1  0
 22 23  2  0
 23 24  1  0
 13  6  1  0
 24 16  1  0
 23 18  1  0
  4  5  1  0
 24 25  1  0
M  END
> <minimizedAffinity>
-5.41659

> <CNNscore>
0.7869620919

> <CNNaffinity>
5.0412983894

> <CNN_VS>
3.9673106670

> <CNNaffinity_variance>
0.3447469473

$$$$



 25 27  0  0  0  0  0  0  0  0999 V2000
   30.6759   -3.7612   17.3902 O   0  0  0  0  0  0  0  0  0  0  0  0
   29.6812   -4.2932   18.1407 C   0  0  0  0  0  0  0  0  0  0  0  0
   28.6158   -4.6796   17.6904 O   0  0  0  0  0  0  0  0  0  0  0  0
   30.1039   -4.3179   19.4381 N   0  0  0  0  0  0  0  0  0  0  0  0
   31.0024   -3.9508   19.6026 H   0  0  0  0  0  0  0  0  0  0  0  0
   29.4243   -4.7985   20.5690 C   0  0  0  0  0  0  0  0  0  0  0  0
   29.5935   -6.0836   21.0861 C   0  0  0  0  0  0  0  0  0  0  0  0
   28.8845   -6.4886   22.2225 C   0  0  0  0  0  0  0  0  0  0  0  0
   28.0010   -5.6117   22.8534 C   0  0  0  0  0  0  0  0  0  0  0  0
   27.1640   -6.1777   24.2509 Cl  0  0  0  0  0  0  0  0  0  0  0  0
   27.8232   -4.3254   22.3403 C   0  0  0  0  0  0  0  0  0  0  0  0
   26.7454   -3.1828   23.0604 Cl  0  0  0  0  0  0  0  0  0  0  0  0
   28.5333   -3.9235   21.2027 C   0  0  0  0  0  0  0  0  0  0  0  0
   32.5247   -5.2204   16.8516 C   0  0  0  0  0  0  0  0  0  0  0  0
   32.0132   -4.1211   17.7755 C   0  0  0  0  0  0  0  0  0  0  0  0
   32.8162   -2.8622   17.6599 C   0  0  0  0  0  0  0  0  0  0  0  0
   34.1260   -2.7399   17.5616 N   0  0  0  0  0  0  0  0  0  0  0  0
   34.3672   -1.3917   17.4591 C   0  0  0  0  0  0  0  0  0  0  0  0
   35.5820   -0.7061   17.3242 C   0  0  0  0  0  0  0  0  0  0  0  0
   35.5630    0.6901   17.2289 C   0  0  0  0  0  0  0  0  0  0  0  0
   34.3526    1.3897   17.2703 C   0  0  0  0  0  0  0  0  0  0  0  0
   33.1290    0.7214   17.4053 C   0  0  0  0  0  0  0  0  0  0  0  0
   33.1826   -0.6703   17.4954 C   0  0  0  0  0  0  0  0  0  0  0  0
   32.2104   -1.6264   17.6290 N   0  0  0  0  0  0  0  0  0  0  0  0
   31.2424   -1.4581   17.6921 H   0  0  0  0  0  0  0  0  0  0  0  0
 15 14  1  0
 15  1  1  0
  1  2  1  0
  2  3  2  0
  2  4  1  0
  4  6  1  0
  6  7  2  0
  7  8  1  0
  8  9  2  0
  9 10  1  0
  9 11  1  0
 11 12  1  0
 11 13  2  0
 15 16  1  0
 16 17  2  0
 17 18  1  0
 18 19  2  0
 19 20  1  0
 20 21  2  0
 21 22  1  0
 22 23  2  0
 23 24  1  0
 13  6  1  0
 24 16  1  0
 23 18  1  0
  4  5  1  0
 24 25  1  0
M  END
> <minimizedAffinity>
-6.79879

> <CNNscore>
0.6988646984

> <CNNaffinity>
5.7044596672

> <CNN_VS>
3.9866454601

> <CNNaffinity_variance>
0.3169112206

$$$$



 25 27  0  0  0  0  0  0  0  0999 V2000
   24.2700   -8.9654   23.8240 O   0  0  0  0  0  0  0  0  0  0  0  0
   23.7717   -9.6822   22.7878 C   0  0  0  0  0  0  0  0  0  0  0  0
   23.9289  -10.8834   22.6482 O   0  0  0  0  0  0  0  0  0  0  0  0
   23.0808   -8.8255   21.9809 N   0  0  0  0  0  0  0  0  0  0  0  0
   23.0752   -7.8823   22.2631 H   0  0  0  0  0  0  0  0  0  0  0  0
   22.3769   -9.1137   20.8006 C   0  0  0  0  0  0  0  0  0  0  0  0
   21.1659   -9.8066   20.7707 C   0  0  0  0  0  0  0  0  0  0  0  0
   20.5195  -10.0506   19.5538 C   0  0  0  0  0  0  0  0  0  0  0  0
   21.0773   -9.6024   18.3556 C   0  0  0  0  0  0  0  0  0  0  0  0
   20.2237   -9.9358   16.8947 Cl  0  0  0  0  0  0  0  0  0  0  0  0
   22.2904   -8.9115   18.3764 C   0  0  0  0  0  0  0  0  0  0  0  0
   23.0478   -8.3282   16.9370 Cl  0  0  0  0  0  0  0  0  0  0  0  0
   22.9351   -8.6699   19.5954 C   0  0  0  0  0  0  0  0  0  0  0  0
   22.6713   -8.1708   25.4521 C   0  0  0  0  0  0  0  0  0  0  0  0
   23.4992   -7.8189   24.2215 C   0  0  0  0  0  0  0  0  0  0  0  0
   24.5000   -6.7399   24.4993 C   0  0  0  0  0  0  0  0  0  0  0  0
   24.3390   -5.4350   24.3917 N   0  0  0  0  0  0  0  0  0  0  0  0
   25.5342   -4.8795   24.7782 C   0  0  0  0  0  0  0  0  0  0  0  0
   25.9116   -3.5324   24.8607 C   0  0  0  0  0  0  0  0  0  0  0  0
   27.2033   -3.2181   25.2981 C   0  0  0  0  0  0  0  0  0  0  0  0
   28.1035   -4.2310   25.6444 C   0  0  0  0  0  0  0  0  0  0  0  0
   27.7441   -5.5827   25.5675 C   0  0  0  0  0  0  0  0  0  0  0  0
   26.4486   -5.8620   25.1302 C   0  0  0  0  0  0  0  0  0  0  0  0
   25.7701   -7.0369   24.9395 N   0  0  0  0  0  0  0  0  0  0  0  0
   26.1299   -7.9406   25.0916 H   0  0  0  0  0  0  0  0  0  0  0  0
 15 14  1  0
 15  1  1  0
  1  2  1  0
  2  3  2  0
  2  4  1  0
  4  6  1  0
  6  7  2  0
  7  8  1  0
  8  9  2  0
  9 10  1  0
  9 11  1  0
 11 12  1  0
 11 13  2  0
 15 16  1  0
 16 17  2  0
 17 18  1  0
 18 19  2  0
 19 20  1  0
 20 21  2  0
 21 22  1  0
 22 23  2  0
 23 24  1  0
 13  6  1  0
 24 16  1  0
 23 18  1  0
  4  5  1  0
 24 25  1  0
M  END
> <minimizedAffinity>
-5.01004

> <CNNscore>
0.6048696637

> <CNNaffinity>
6.1739888191

> <CNN_VS>
3.7344584465

> <CNNaffinity_variance>
0.5754927993

$$$$



 25 27  0  0  0  0  0  0  0  0999 V2000
   32.2293   -7.7224   24.4370 O   0  0  0  0  0  0  0  0  0  0  0  0
   31.1238   -7.3552   23.7449 C   0  0  0  0  0  0  0  0  0  0  0  0
   30.5175   -8.0899   22.9835 O   0  0  0  0  0  0  0  0  0  0  0  0
   30.8369   -6.0615   24.0712 N   0  0  0  0  0  0  0  0  0  0  0  0
   31.4558   -5.6328   24.7057 H   0  0  0  0  0  0  0  0  0  0  0  0
   29.7743   -5.2621   23.6202 C   0  0  0  0  0  0  0  0  0  0  0  0
   29.5907   -4.8990   22.2852 C   0  0  0  0  0  0  0  0  0  0  0  0
   28.5018   -4.1038   21.9110 C   0  0  0  0  0  0  0  0  0  0  0  0
   27.5855   -3.6656   22.8681 C   0  0  0  0  0  0  0  0  0  0  0  0
   26.2661   -2.6917   22.3343 Cl  0  0  0  0  0  0  0  0  0  0  0  0
   27.7639   -4.0214   24.2063 C   0  0  0  0  0  0  0  0  0  0  0  0
   26.6771   -3.5158   25.4509 Cl  0  0  0  0  0  0  0  0  0  0  0  0
   28.8548   -4.8163   24.5777 C   0  0  0  0  0  0  0  0  0  0  0  0
   33.5342   -9.5994   25.2191 C   0  0  0  0  0  0  0  0  0  0  0  0
   32.1452   -8.9773   25.1330 C   0  0  0  0  0  0  0  0  0  0  0  0
   31.5844   -8.6503   26.4827 C   0  0  0  0  0  0  0  0  0  0  0  0
   30.6915   -7.7292   26.7902 N   0  0  0  0  0  0  0  0  0  0  0  0
   30.4944   -7.8397   28.1450 C   0  0  0  0  0  0  0  0  0  0  0  0
   29.6465   -7.1108   28.9898 C   0  0  0  0  0  0  0  0  0  0  0  0
   29.6191   -7.4243   30.3536 C   0  0  0  0  0  0  0  0  0  0  0  0
   30.4259   -8.4457   30.8653 C   0  0  0  0  0  0  0  0  0  0  0  0
   31.2799   -9.1842   30.0361 C   0  0  0  0  0  0  0  0  0  0  0  0
   31.2818   -8.8483   28.6816 C   0  0  0  0  0  0  0  0  0  0  0  0
   31.9701   -9.3457   27.6064 N   0  0  0  0  0  0  0  0  0  0  0  0
   32.6290  -10.0767   27.6330 H   0  0  0  0  0  0  0  0  0  0  0  0
 15 14  1  0
 15  1  1  0
  1  2  1  0
  2  3  2  0
  2  4  1  0
  4  6  1  0
  6  7  2  0
  7  8  1  0
  8  9  2  0
  9 10  1  0
  9 11  1  0
 11 12  1  0
 11 13  2  0
 15 16  1  0
 16 17  2  0
 17 18  1  0
 18 19  2  0
 19 20  1  0
 20 21  2  0
 21 22  1  0
 22 23  2  0
 23 24  1  0
 13  6  1  0
 24 16  1  0
 23 18  1  0
  4  5  1  0
 24 25  1  0
M  END
> <minimizedAffinity>
-5.01159

> <CNNscore>
0.5417115688

> <CNNaffinity>
5.3133544922

> <CNN_VS>
2.8783056736

> <CNNaffinity_variance>
0.2621599138

$$$$
