


 26 26  0  0  0  0  0  0  0  0999 V2000
   80.4361    4.5395   33.3187 C   0  0  0  0  0  0  0  0  0  0  0  0
   80.8400    5.6417   34.2971 C   0  0  0  0  0  0  0  0  0  0  0  0
   79.7166    6.6894   34.4393 C   0  0  0  0  0  0  0  0  0  0  0  0
   80.2616    7.9935   35.0201 C   0  0  0  0  0  0  0  0  0  0  0  0
   81.3937    8.5855   34.1629 C   0  0  0  0  0  0  0  0  0  0  0  0
   81.9707    7.5652   33.1610 C   0  0  0  0  0  0  0  0  0  0  0  0
   82.1187    6.2703   33.8658 N   0  0  0  0  0  0  0  0  0  0  0  0
   83.3249    5.9909   34.5325 C   0  0  0  0  0  0  0  0  0  0  0  0
   84.3074    6.7116   34.3499 O   0  0  0  0  0  0  0  0  0  0  0  0
   83.2566    8.0978   32.4359 C   0  0  0  0  0  0  0  0  0  0  0  0
   83.0435    8.6614   30.9236 N   0  0  0  0  0  0  0  0  0  0  0  0
   82.4963   10.0747   31.1763 C   0  0  0  0  0  0  0  0  0  0  0  0
   81.9281    7.8339   30.2805 C   0  0  0  0  0  0  0  0  0  0  0  0
   84.3943    8.5711   30.2272 C   0  0  0  0  0  0  0  0  0  0  0  0
   85.2256    7.2531   30.1237 N   0  0  0  0  0  0  0  0  0  0  0  0
   84.2651    6.0610   30.0714 C   0  0  0  0  0  0  0  0  0  0  0  0
   86.1909    7.0935   31.2672 C   0  0  0  0  0  0  0  0  0  0  0  0
   85.9572    7.3691   28.7519 C   0  0  0  0  0  0  0  0  0  0  0  0
   87.3818    6.8956   28.5186 N   0  0  0  0  0  0  0  0  0  0  0  0
   88.4610    7.9442   28.8478 C   0  0  0  0  0  0  0  0  0  0  0  0
   87.7899    5.5554   29.1220 C   0  0  0  0  0  0  0  0  0  0  0  0
   87.5108    6.6888   26.9613 C   0  0  0  0  0  0  0  0  0  0  0  0
   83.3909    4.7681   35.4336 C   0  0  0  0  0  0  0  0  0  0  0  0
   84.5723    4.8543   36.3957 C   0  0  0  0  0  0  0  0  0  0  0  0
   85.7214    3.4805   36.1112 S   0  0  0  0  0  0  0  0  0  0  0  0
   85.0774    2.3006   36.3183 H   0  0  0  0  0  0  0  0  0  0  0  0
  2  1  1  0
  2  3  1  0
  3  4  1  0
  4  5  1  0
  5  6  1  0
  6 10  1  0
 10 11  1  0
 11 12  1  0
 11 13  1  0
 11 14  1  0
 14 15  1  0
 15 16  1  0
 15 17  1  0
 15 18  1  0
 18 19  1  0
 19 20  1  0
 19 21  1  0
 19 22  1  0
  6  7  1  0
  7  8  1  0
  8  9  2  0
  8 23  1  0
 23 24  1  0
 24 25  1  0
  7  2  1  0
 25 26  1  0
M  CHG 1  11   1
M  CHG 1  15   1
M  CHG 1  19   1
M  END
> <minimizedAffinity>
-4.29085

> <CNNscore>
0.6417382956

> <CNNaffinity>
5.0570807457

> <CNN_VS>
3.2453224659

> <CNNaffinity_variance>
0.0018719044

$$$$



 26 26  0  0  0  0  0  0  0  0999 V2000
   80.0999    4.4100   33.3693 C   0  0  0  0  0  0  0  0  0  0  0  0
   80.7526    5.5896   34.0888 C   0  0  0  0  0  0  0  0  0  0  0  0
   79.7490    6.7474   34.2688 C   0  0  0  0  0  0  0  0  0  0  0  0
   80.4798    8.0602   34.5469 C   0  0  0  0  0  0  0  0  0  0  0  0
   81.4702    8.4248   33.4276 C   0  0  0  0  0  0  0  0  0  0  0  0
   81.7803    7.2311   32.5021 C   0  0  0  0  0  0  0  0  0  0  0  0
   81.9685    6.0331   33.3533 N   0  0  0  0  0  0  0  0  0  0  0  0
   83.2558    5.7330   33.8332 C   0  0  0  0  0  0  0  0  0  0  0  0
   84.2338    6.3280   33.3778 O   0  0  0  0  0  0  0  0  0  0  0  0
   82.9422    7.5403   31.4932 C   0  0  0  0  0  0  0  0  0  0  0  0
   82.6441    7.1937   29.9308 N   0  0  0  0  0  0  0  0  0  0  0  0
   81.2019    7.6937   29.7553 C   0  0  0  0  0  0  0  0  0  0  0  0
   82.6325    5.6693   29.7950 C   0  0  0  0  0  0  0  0  0  0  0  0
   83.7132    7.9042   29.1121 C   0  0  0  0  0  0  0  0  0  0  0  0
   85.2448    7.6616   29.2966 N   0  0  0  0  0  0  0  0  0  0  0  0
   85.4549    6.3215   30.0080 C   0  0  0  0  0  0  0  0  0  0  0  0
   85.9114    8.7695   30.0667 C   0  0  0  0  0  0  0  0  0  0  0  0
   85.7922    7.5488   27.8412 C   0  0  0  0  0  0  0  0  0  0  0  0
   85.0085    7.9835   26.6144 N   0  0  0  0  0  0  0  0  0  0  0  0
   85.7519    7.7785   25.2810 C   0  0  0  0  0  0  0  0  0  0  0  0
   83.5785    7.4724   26.4704 C   0  0  0  0  0  0  0  0  0  0  0  0
   84.8635    9.5484   26.7356 C   0  0  0  0  0  0  0  0  0  0  0  0
   83.4050    4.6397   34.8792 C   0  0  0  0  0  0  0  0  0  0  0  0
   84.8126    4.6277   35.4683 C   0  0  0  0  0  0  0  0  0  0  0  0
   84.9082    5.7354   36.9011 S   0  0  0  0  0  0  0  0  0  0  0  0
   84.6099    7.0045   36.5136 H   0  0  0  0  0  0  0  0  0  0  0  0
  2  1  1  0
  2  3  1  0
  3  4  1  0
  4  5  1  0
  5  6  1  0
  6 10  1  0
 10 11  1  0
 11 12  1  0
 11 13  1  0
 11 14  1  0
 14 15  1  0
 15 16  1  0
 15 17  1  0
 15 18  1  0
 18 19  1  0
 19 20  1  0
 19 21  1  0
 19 22  1  0
  6  7  1  0
  7  8  1  0
  8  9  2  0
  8 23  1  0
 23 24  1  0
 24 25  1  0
  7  2  1  0
 25 26  1  0
M  CHG 1  11   1
M  CHG 1  15   1
M  CHG 1  19   1
M  END
> <minimizedAffinity>
-4.23328

> <CNNscore>
0.4933758974

> <CNNaffinity>
4.7159056664

> <CNN_VS>
2.3267142773

> <CNNaffinity_variance>
0.2157700658

$$$$



 26 26  0  0  0  0  0  0  0  0999 V2000
   81.1634    4.3869   34.0638 C   0  0  0  0  0  0  0  0  0  0  0  0
   80.1352    5.3905   33.5434 C   0  0  0  0  0  0  0  0  0  0  0  0
   79.2801    4.7689   32.4198 C   0  0  0  0  0  0  0  0  0  0  0  0
   78.5957    5.8573   31.5941 C   0  0  0  0  0  0  0  0  0  0  0  0
   79.6043    6.8385   30.9720 C   0  0  0  0  0  0  0  0  0  0  0  0
   81.0002    6.7394   31.6197 C   0  0  0  0  0  0  0  0  0  0  0  0
   80.8143    6.6337   33.0858 N   0  0  0  0  0  0  0  0  0  0  0  0
   80.7659    7.8108   33.8537 C   0  0  0  0  0  0  0  0  0  0  0  0
   81.0876    8.8868   33.3470 O   0  0  0  0  0  0  0  0  0  0  0  0
   81.9682    7.8758   31.1353 C   0  0  0  0  0  0  0  0  0  0  0  0
   83.1119    7.4332   30.0647 N   0  0  0  0  0  0  0  0  0  0  0  0
   82.5246    7.9317   28.7353 C   0  0  0  0  0  0  0  0  0  0  0  0
   83.1328    5.9034   30.0247 C   0  0  0  0  0  0  0  0  0  0  0  0
   84.4122    8.0825   30.5181 C   0  0  0  0  0  0  0  0  0  0  0  0
   85.4152    8.7779   29.5438 N   0  0  0  0  0  0  0  0  0  0  0  0
   85.5835    7.9058   28.2959 C   0  0  0  0  0  0  0  0  0  0  0  0
   86.7529    9.0326   30.1847 C   0  0  0  0  0  0  0  0  0  0  0  0
   84.6988   10.1019   29.1384 C   0  0  0  0  0  0  0  0  0  0  0  0
   85.4283   11.3154   28.5877 N   0  0  0  0  0  0  0  0  0  0  0  0
   85.9716   12.2724   29.6656 C   0  0  0  0  0  0  0  0  0  0  0  0
   86.5136   11.0750   27.5431 C   0  0  0  0  0  0  0  0  0  0  0  0
   84.3328   12.1652   27.8378 C   0  0  0  0  0  0  0  0  0  0  0  0
   80.3555    7.7096   35.3142 C   0  0  0  0  0  0  0  0  0  0  0  0
   81.5762    7.6394   36.2271 C   0  0  0  0  0  0  0  0  0  0  0  0
   81.4045    6.2750   37.4092 S   0  0  0  0  0  0  0  0  0  0  0  0
   80.2993    6.4757   38.1759 H   0  0  0  0  0  0  0  0  0  0  0  0
  2  1  1  0
  2  3  1  0
  3  4  1  0
  4  5  1  0
  5  6  1  0
  6 10  1  0
 10 11  1  0
 11 12  1  0
 11 13  1  0
 11 14  1  0
 14 15  1  0
 15 16  1  0
 15 17  1  0
 15 18  1  0
 18 19  1  0
 19 20  1  0
 19 21  1  0
 19 22  1  0
  6  7  1  0
  7  8  1  0
  8  9  2  0
  8 23  1  0
 23 24  1  0
 24 25  1  0
  7  2  1  0
 25 26  1  0
M  CHG 1  11   1
M  CHG 1  15   1
M  CHG 1  19   1
M  END
> <minimizedAffinity>
-4.08012

> <CNNscore>
0.4702225327

> <CNNaffinity>
4.4065871239

> <CNN_VS>
2.0720765591

> <CNNaffinity_variance>
0.4785875380

$$$$



 26 26  0  0  0  0  0  0  0  0999 V2000
   77.5136    7.5933   29.4451 C   0  0  0  0  0  0  0  0  0  0  0  0
   78.4356    6.4363   29.8278 C   0  0  0  0  0  0  0  0  0  0  0  0
   78.5555    6.3127   31.3608 C   0  0  0  0  0  0  0  0  0  0  0  0
   79.7923    5.5016   31.7444 C   0  0  0  0  0  0  0  0  0  0  0  0
   81.0884    6.1161   31.1883 C   0  0  0  0  0  0  0  0  0  0  0  0
   80.8210    7.1541   30.0798 C   0  0  0  0  0  0  0  0  0  0  0  0
   79.7697    6.6080   29.1899 N   0  0  0  0  0  0  0  0  0  0  0  0
   80.1505    5.8270   28.0842 C   0  0  0  0  0  0  0  0  0  0  0  0
   81.3337    5.7822   27.7438 O   0  0  0  0  0  0  0  0  0  0  0  0
   82.1385    7.6259   29.3693 C   0  0  0  0  0  0  0  0  0  0  0  0
   82.4230    9.2287   29.3808 N   0  0  0  0  0  0  0  0  0  0  0  0
   82.5312    9.5299   30.8837 C   0  0  0  0  0  0  0  0  0  0  0  0
   81.1638    9.9201   28.8528 C   0  0  0  0  0  0  0  0  0  0  0  0
   83.6785    9.4576   28.5506 C   0  0  0  0  0  0  0  0  0  0  0  0
   85.0730    8.8538   28.9104 N   0  0  0  0  0  0  0  0  0  0  0  0
   85.2357    7.5117   28.1903 C   0  0  0  0  0  0  0  0  0  0  0  0
   85.2536    8.6735   30.3936 C   0  0  0  0  0  0  0  0  0  0  0  0
   86.0947    9.8701   28.3155 C   0  0  0  0  0  0  0  0  0  0  0  0
   87.5931    9.7893   28.5532 N   0  0  0  0  0  0  0  0  0  0  0  0
   88.1071    8.3767   28.8895 C   0  0  0  0  0  0  0  0  0  0  0  0
   88.5102   10.4168   27.5082 C   0  0  0  0  0  0  0  0  0  0  0  0
   87.8596   10.6170   29.8679 C   0  0  0  0  0  0  0  0  0  0  0  0
   79.0704    5.0896   27.3087 C   0  0  0  0  0  0  0  0  0  0  0  0
   78.5554    5.9304   26.1440 C   0  0  0  0  0  0  0  0  0  0  0  0
   77.1168    5.1357   25.3775 S   0  0  0  0  0  0  0  0  0  0  0  0
   77.4734    3.9111   24.9053 H   0  0  0  0  0  0  0  0  0  0  0  0
  2  1  1  0
  2  3  1  0
  3  4  1  0
  4  5  1  0
  5  6  1  0
  6 10  1  0
 10 11  1  0
 11 12  1  0
 11 13  1  0
 11 14  1  0
 14 15  1  0
 15 16  1  0
 15 17  1  0
 15 18  1  0
 18 19  1  0
 19 20  1  0
 19 21  1  0
 19 22  1  0
  6  7  1  0
  7  8  1  0
  8  9  2  0
  8 23  1  0
 23 24  1  0
 24 25  1  0
  7  2  1  0
 25 26  1  0
M  CHG 1  11   1
M  CHG 1  15   1
M  CHG 1  19   1
M  END
> <minimizedAffinity>
-4.18631

> <CNNscore>
0.4502361715

> <CNNaffinity>
4.3721580505

> <CNN_VS>
1.9685037136

> <CNNaffinity_variance>
0.2410380840

$$$$



 26 26  0  0  0  0  0  0  0  0999 V2000
   80.9393    5.7313   26.4213 C   0  0  0  0  0  0  0  0  0  0  0  0
   80.6307    7.1406   26.9252 C   0  0  0  0  0  0  0  0  0  0  0  0
   81.9295    7.8959   27.2754 C   0  0  0  0  0  0  0  0  0  0  0  0
   81.6360    9.0836   28.1909 C   0  0  0  0  0  0  0  0  0  0  0  0
   80.9373    8.6572   29.4936 C   0  0  0  0  0  0  0  0  0  0  0  0
   80.3567    7.2310   29.4123 C   0  0  0  0  0  0  0  0  0  0  0  0
   79.7055    7.0803   28.0899 N   0  0  0  0  0  0  0  0  0  0  0  0
   78.3478    7.4210   27.9556 C   0  0  0  0  0  0  0  0  0  0  0  0
   77.6663    7.6311   28.9603 O   0  0  0  0  0  0  0  0  0  0  0  0
   79.4673    6.8736   30.6550 C   0  0  0  0  0  0  0  0  0  0  0  0
   80.2390    6.1869   31.9132 N   0  0  0  0  0  0  0  0  0  0  0  0
   81.5040    5.6205   31.2501 C   0  0  0  0  0  0  0  0  0  0  0  0
   79.3861    5.0061   32.3830 C   0  0  0  0  0  0  0  0  0  0  0  0
   80.4484    7.2818   32.9502 C   0  0  0  0  0  0  0  0  0  0  0  0
   81.0395    7.0221   34.3721 N   0  0  0  0  0  0  0  0  0  0  0  0
   82.4177    7.6837   34.4673 C   0  0  0  0  0  0  0  0  0  0  0  0
   81.1439    5.5547   34.6897 C   0  0  0  0  0  0  0  0  0  0  0  0
   80.0602    7.7610   35.3341 C   0  0  0  0  0  0  0  0  0  0  0  0
   80.4113    9.0470   36.0629 N   0  0  0  0  0  0  0  0  0  0  0  0
   81.2038   10.0604   35.2157 C   0  0  0  0  0  0  0  0  0  0  0  0
   79.2870    9.7779   36.7900 C   0  0  0  0  0  0  0  0  0  0  0  0
   81.4181    8.6288   37.2011 C   0  0  0  0  0  0  0  0  0  0  0  0
   77.7470    7.4766   26.5601 C   0  0  0  0  0  0  0  0  0  0  0  0
   77.2771    6.0976   26.1060 C   0  0  0  0  0  0  0  0  0  0  0  0
   77.4914    5.9145   24.3145 S   0  0  0  0  0  0  0  0  0  0  0  0
   76.7540    6.8587   23.6709 H   0  0  0  0  0  0  0  0  0  0  0  0
  2  1  1  0
  2  3  1  0
  3  4  1  0
  4  5  1  0
  5  6  1  0
  6 10  1  0
 10 11  1  0
 11 12  1  0
 11 13  1  0
 11 14  1  0
 14 15  1  0
 15 16  1  0
 15 17  1  0
 15 18  1  0
 18 19  1  0
 19 20  1  0
 19 21  1  0
 19 22  1  0
  6  7  1  0
  7  8  1  0
  8  9  2  0
  8 23  1  0
 23 24  1  0
 24 25  1  0
  7  2  1  0
 25 26  1  0
M  CHG 1  11   1
M  CHG 1  15   1
M  CHG 1  19   1
M  END
> <minimizedAffinity>
-5.15255

> <CNNscore>
0.4362223148

> <CNNaffinity>
5.0383434296

> <CNN_VS>
2.1978378296

> <CNNaffinity_variance>
0.4256396592

$$$$



 26 26  0  0  0  0  0  0  0  0999 V2000
   77.4862    7.6802   29.4798 C   0  0  0  0  0  0  0  0  0  0  0  0
   78.2742    6.4372   29.8913 C   0  0  0  0  0  0  0  0  0  0  0  0
   78.2731    6.2682   31.4247 C   0  0  0  0  0  0  0  0  0  0  0  0
   79.4040    5.3416   31.8689 C   0  0  0  0  0  0  0  0  0  0  0  0
   80.7851    5.8510   31.4217 C   0  0  0  0  0  0  0  0  0  0  0  0
   80.6890    6.9339   30.3282 C   0  0  0  0  0  0  0  0  0  0  0  0
   79.6603    6.5041   29.3523 N   0  0  0  0  0  0  0  0  0  0  0  0
   80.0494    5.7180   28.2532 C   0  0  0  0  0  0  0  0  0  0  0  0
   81.2455    5.5758   27.9941 O   0  0  0  0  0  0  0  0  0  0  0  0
   82.0899    7.3028   29.7245 C   0  0  0  0  0  0  0  0  0  0  0  0
   82.4735    8.8848   29.7213 N   0  0  0  0  0  0  0  0  0  0  0  0
   82.4228    9.2356   31.2164 C   0  0  0  0  0  0  0  0  0  0  0  0
   81.3325    9.6303   29.0251 C   0  0  0  0  0  0  0  0  0  0  0  0
   83.8302    9.0061   29.0414 C   0  0  0  0  0  0  0  0  0  0  0  0
   84.0100    9.1983   27.5021 N   0  0  0  0  0  0  0  0  0  0  0  0
   83.7710   10.6704   27.1524 C   0  0  0  0  0  0  0  0  0  0  0  0
   83.0875    8.3175   26.7032 C   0  0  0  0  0  0  0  0  0  0  0  0
   85.5101    8.8588   27.2469 C   0  0  0  0  0  0  0  0  0  0  0  0
   86.1175    8.7337   25.8600 N   0  0  0  0  0  0  0  0  0  0  0  0
   85.1831    9.1713   24.7162 C   0  0  0  0  0  0  0  0  0  0  0  0
   87.4982    9.3416   25.6346 C   0  0  0  0  0  0  0  0  0  0  0  0
   86.3171    7.1884   25.6216 C   0  0  0  0  0  0  0  0  0  0  0  0
   78.9673    5.0977   27.3838 C   0  0  0  0  0  0  0  0  0  0  0  0
   78.5780    6.0284   26.2388 C   0  0  0  0  0  0  0  0  0  0  0  0
   77.0721    5.4322   25.4231 S   0  0  0  0  0  0  0  0  0  0  0  0
   77.2924    4.1892   24.9171 H   0  0  0  0  0  0  0  0  0  0  0  0
  2  1  1  0
  2  3  1  0
  3  4  1  0
  4  5  1  0
  5  6  1  0
  6 10  1  0
 10 11  1  0
 11 12  1  0
 11 13  1  0
 11 14  1  0
 14 15  1  0
 15 16  1  0
 15 17  1  0
 15 18  1  0
 18 19  1  0
 19 20  1  0
 19 21  1  0
 19 22  1  0
  6  7  1  0
  7  8  1  0
  8  9  2  0
  8 23  1  0
 23 24  1  0
 24 25  1  0
  7  2  1  0
 25 26  1  0
M  CHG 1  11   1
M  CHG 1  15   1
M  CHG 1  19   1
M  END
> <minimizedAffinity>
-4.30816

> <CNNscore>
0.4298108518

> <CNNaffinity>
4.4225554466

> <CNN_VS>
1.9008623362

> <CNNaffinity_variance>
0.2690821886

$$$$



 26 26  0  0  0  0  0  0  0  0999 V2000
   85.1928   10.1545   29.1233 C   0  0  0  0  0  0  0  0  0  0  0  0
   85.2441    8.9808   28.1461 C   0  0  0  0  0  0  0  0  0  0  0  0
   84.4251    9.2873   26.8751 C   0  0  0  0  0  0  0  0  0  0  0  0
   84.0844    7.9998   26.1260 C   0  0  0  0  0  0  0  0  0  0  0  0
   83.2999    7.0064   27.0005 C   0  0  0  0  0  0  0  0  0  0  0  0
   83.3731    7.3553   28.5007 C   0  0  0  0  0  0  0  0  0  0  0  0
   84.7711    7.7357   28.8109 N   0  0  0  0  0  0  0  0  0  0  0  0
   85.6776    6.7365   29.2078 C   0  0  0  0  0  0  0  0  0  0  0  0
   85.2630    5.6133   29.4988 O   0  0  0  0  0  0  0  0  0  0  0  0
   82.7540    6.2344   29.4081 C   0  0  0  0  0  0  0  0  0  0  0  0
   81.2212    6.4773   29.8996 N   0  0  0  0  0  0  0  0  0  0  0  0
   80.4090    5.8367   28.7634 C   0  0  0  0  0  0  0  0  0  0  0  0
   80.9647    7.9858   29.8676 C   0  0  0  0  0  0  0  0  0  0  0  0
   81.0931    5.8322   31.2726 C   0  0  0  0  0  0  0  0  0  0  0  0
   79.7344    5.6638   32.0238 N   0  0  0  0  0  0  0  0  0  0  0  0
   79.7938    4.3975   32.8835 C   0  0  0  0  0  0  0  0  0  0  0  0
   78.5631    5.5980   31.0810 C   0  0  0  0  0  0  0  0  0  0  0  0
   79.6604    6.9057   32.9634 C   0  0  0  0  0  0  0  0  0  0  0  0
   80.7855    7.3194   33.8967 N   0  0  0  0  0  0  0  0  0  0  0  0
   81.7015    6.1624   34.3382 C   0  0  0  0  0  0  0  0  0  0  0  0
   81.6485    8.5068   33.4820 C   0  0  0  0  0  0  0  0  0  0  0  0
   80.0829    7.7819   35.2297 C   0  0  0  0  0  0  0  0  0  0  0  0
   87.1525    7.0916   29.3085 C   0  0  0  0  0  0  0  0  0  0  0  0
   87.9970    5.8595   29.6206 C   0  0  0  0  0  0  0  0  0  0  0  0
   88.5957    5.0981   28.0875 S   0  0  0  0  0  0  0  0  0  0  0  0
   87.5351    4.7167   27.3265 H   0  0  0  0  0  0  0  0  0  0  0  0
  2  1  1  0
  2  3  1  0
  3  4  1  0
  4  5  1  0
  5  6  1  0
  6 10  1  0
 10 11  1  0
 11 12  1  0
 11 13  1  0
 11 14  1  0
 14 15  1  0
 15 16  1  0
 15 17  1  0
 15 18  1  0
 18 19  1  0
 19 20  1  0
 19 21  1  0
 19 22  1  0
  6  7  1  0
  7  8  1  0
  8  9  2  0
  8 23  1  0
 23 24  1  0
 24 25  1  0
  7  2  1  0
 25 26  1  0
M  CHG 1  11   1
M  CHG 1  15   1
M  CHG 1  19   1
M  END
> <minimizedAffinity>
-4.28360

> <CNNscore>
0.4165420234

> <CNNaffinity>
4.4039511681

> <CNN_VS>
1.8344306946

> <CNNaffinity_variance>
0.4735500813

$$$$



 26 26  0  0  0  0  0  0  0  0999 V2000
   78.6580    9.0663   27.5718 C   0  0  0  0  0  0  0  0  0  0  0  0
   78.3798    7.6784   28.1476 C   0  0  0  0  0  0  0  0  0  0  0  0
   77.4331    7.7668   29.3625 C   0  0  0  0  0  0  0  0  0  0  0  0
   77.5172    6.4976   30.2091 C   0  0  0  0  0  0  0  0  0  0  0  0
   78.9467    6.2219   30.7065 C   0  0  0  0  0  0  0  0  0  0  0  0
   80.0059    7.0408   29.9415 C   0  0  0  0  0  0  0  0  0  0  0  0
   79.6576    7.0018   28.5019 N   0  0  0  0  0  0  0  0  0  0  0  0
   80.1759    5.9673   27.7027 C   0  0  0  0  0  0  0  0  0  0  0  0
   81.0688    5.2414   28.1430 O   0  0  0  0  0  0  0  0  0  0  0  0
   81.4717    6.6098   30.3004 C   0  0  0  0  0  0  0  0  0  0  0  0
   82.4224    7.7680   30.9366 N   0  0  0  0  0  0  0  0  0  0  0  0
   81.7634    8.0173   32.3020 C   0  0  0  0  0  0  0  0  0  0  0  0
   82.2370    9.0284   30.0884 C   0  0  0  0  0  0  0  0  0  0  0  0
   83.8388    7.2101   30.9584 C   0  0  0  0  0  0  0  0  0  0  0  0
   84.9055    7.5201   29.8608 N   0  0  0  0  0  0  0  0  0  0  0  0
   84.2230    7.5238   28.4896 C   0  0  0  0  0  0  0  0  0  0  0  0
   86.0430    6.5347   29.8730 C   0  0  0  0  0  0  0  0  0  0  0  0
   85.3819    8.9680   30.1886 C   0  0  0  0  0  0  0  0  0  0  0  0
   86.3241    9.7622   29.3000 N   0  0  0  0  0  0  0  0  0  0  0  0
   85.6616   10.3542   28.0417 C   0  0  0  0  0  0  0  0  0  0  0  0
   87.1841   10.8348   29.9608 C   0  0  0  0  0  0  0  0  0  0  0  0
   87.3566    8.7150   28.7329 C   0  0  0  0  0  0  0  0  0  0  0  0
   79.6421    5.8043   26.2885 C   0  0  0  0  0  0  0  0  0  0  0  0
   78.5952    4.6963   26.2178 C   0  0  0  0  0  0  0  0  0  0  0  0
   77.0854    5.3027   25.4168 S   0  0  0  0  0  0  0  0  0  0  0  0
   76.5750    6.3378   26.1362 H   0  0  0  0  0  0  0  0  0  0  0  0
  2  1  1  0
  2  3  1  0
  3  4  1  0
  4  5  1  0
  5  6  1  0
  6 10  1  0
 10 11  1  0
 11 12  1  0
 11 13  1  0
 11 14  1  0
 14 15  1  0
 15 16  1  0
 15 17  1  0
 15 18  1  0
 18 19  1  0
 19 20  1  0
 19 21  1  0
 19 22  1  0
  6  7  1  0
  7  8  1  0
  8  9  2  0
  8 23  1  0
 23 24  1  0
 24 25  1  0
  7  2  1  0
 25 26  1  0
M  CHG 1  11   1
M  CHG 1  15   1
M  CHG 1  19   1
M  END
> <minimizedAffinity>
-4.22895

> <CNNscore>
0.4038720131

> <CNNaffinity>
4.3356914520

> <CNN_VS>
1.7510644197

> <CNNaffinity_variance>
0.2801714838

$$$$



 26 26  0  0  0  0  0  0  0  0999 V2000
   77.8037    7.7493   29.4806 C   0  0  0  0  0  0  0  0  0  0  0  0
   78.4409    6.4219   29.8894 C   0  0  0  0  0  0  0  0  0  0  0  0
   78.1283    6.0931   31.3639 C   0  0  0  0  0  0  0  0  0  0  0  0
   79.1082    5.0542   31.9073 C   0  0  0  0  0  0  0  0  0  0  0  0
   80.5709    5.5179   31.7965 C   0  0  0  0  0  0  0  0  0  0  0  0
   80.7397    6.7137   30.8377 C   0  0  0  0  0  0  0  0  0  0  0  0
   79.9080    6.4559   29.6389 N   0  0  0  0  0  0  0  0  0  0  0  0
   80.4739    5.7663   28.5518 C   0  0  0  0  0  0  0  0  0  0  0  0
   81.6905    5.5756   28.5132 O   0  0  0  0  0  0  0  0  0  0  0  0
   82.2470    7.0532   30.5618 C   0  0  0  0  0  0  0  0  0  0  0  0
   83.0677    7.7217   31.7985 N   0  0  0  0  0  0  0  0  0  0  0  0
   83.9581    8.7485   31.0818 C   0  0  0  0  0  0  0  0  0  0  0  0
   83.9771    6.6378   32.3823 C   0  0  0  0  0  0  0  0  0  0  0  0
   82.0303    8.2791   32.7634 C   0  0  0  0  0  0  0  0  0  0  0  0
   82.2475    8.3681   34.3073 N   0  0  0  0  0  0  0  0  0  0  0  0
   83.5333    9.1528   34.5852 C   0  0  0  0  0  0  0  0  0  0  0  0
   82.3158    7.0115   34.9552 C   0  0  0  0  0  0  0  0  0  0  0  0
   81.0315    9.1998   34.8172 C   0  0  0  0  0  0  0  0  0  0  0  0
   80.8581    9.6316   36.2635 N   0  0  0  0  0  0  0  0  0  0  0  0
   82.1325   10.2046   36.9118 C   0  0  0  0  0  0  0  0  0  0  0  0
   79.6794   10.5418   36.5938 C   0  0  0  0  0  0  0  0  0  0  0  0
   80.5793    8.3072   37.0715 C   0  0  0  0  0  0  0  0  0  0  0  0
   79.5606    5.3117   27.4245 C   0  0  0  0  0  0  0  0  0  0  0  0
   79.6981    6.2167   26.2036 C   0  0  0  0  0  0  0  0  0  0  0  0
   78.1007    6.9696   25.7912 S   0  0  0  0  0  0  0  0  0  0  0  0
   77.1983    5.9922   25.5083 H   0  0  0  0  0  0  0  0  0  0  0  0
  2  1  1  0
  2  3  1  0
  3  4  1  0
  4  5  1  0
  5  6  1  0
  6 10  1  0
 10 11  1  0
 11 12  1  0
 11 13  1  0
 11 14  1  0
 14 15  1  0
 15 16  1  0
 15 17  1  0
 15 18  1  0
 18 19  1  0
 19 20  1  0
 19 21  1  0
 19 22  1  0
  6  7  1  0
  7  8  1  0
  8  9  2  0
  8 23  1  0
 23 24  1  0
 24 25  1  0
  7  2  1  0
 25 26  1  0
M  CHG 1  11   1
M  CHG 1  15   1
M  CHG 1  19   1
M  END
> <minimizedAffinity>
-4.92819

> <CNNscore>
0.3915135860

> <CNNaffinity>
4.5922322273

> <CNN_VS>
1.7979212999

> <CNNaffinity_variance>
0.4453690052

$$$$
