


 48 50  0  0  0  0  0  0  0  0999 V2000
    7.8016   28.7748    5.9675 C   0  0  0  0  0  0  0  0  0  0  0  0
    8.2951   28.9696    8.4035 N   0  0  0  0  0  0  0  0  0  0  0  0
    7.3170   28.8789    7.4458 C   0  0  0  0  0  0  0  0  0  0  0  0
    6.1222   28.9199    7.7452 O   0  0  0  0  0  0  0  0  0  0  0  0
    9.2255   28.8494    8.1048 H   0  0  0  0  0  0  0  0  0  0  0  0
    8.0828   29.2289    9.8302 C   0  0  0  0  0  0  0  0  0  0  0  0
    9.0895   30.2150   10.4662 C   0  0  0  0  0  0  0  0  0  0  0  0
    8.5862   31.3247   11.0754 N   0  0  0  0  0  0  0  0  0  0  0  0
   10.3023   30.1347   10.2620 O   0  0  0  0  0  0  0  0  0  0  0  0
    7.6189   31.3983   11.2429 H   0  0  0  0  0  0  0  0  0  0  0  0
    9.1899   32.0530   11.3482 H   0  0  0  0  0  0  0  0  0  0  0  0
    7.9362   27.9350   10.6503 C   0  0  0  0  0  0  0  0  0  0  0  0
    8.6816   27.9877   11.9967 C   0  0  0  0  0  0  0  0  0  0  0  0
    8.0872   27.0351   13.0410 C   0  0  0  0  0  0  0  0  0  0  0  0
    5.9201   28.2569   13.5652 C   0  0  0  0  0  0  0  0  0  0  0  0
    7.2428   27.7490   14.1154 N   0  0  0  0  0  0  0  0  0  0  0  0
    8.0254   28.9099   14.7312 C   0  0  0  0  0  0  0  0  0  0  0  0
    6.9524   26.7431   15.2285 C   0  0  0  0  0  0  0  0  0  0  0  0
    7.4242   27.5480    5.2442 N   0  0  0  0  0  0  0  0  0  0  0  0
    8.3928   26.7453    4.6711 C   0  0  0  0  0  0  0  0  0  0  0  0
    9.5743   26.8382    4.9954 O   0  0  0  0  0  0  0  0  0  0  0  0
    6.4750   27.2979    5.1686 H   0  0  0  0  0  0  0  0  0  0  0  0
    7.8509   25.7047    3.7129 C   0  0  0  0  0  0  0  0  0  0  0  0
    7.9843   24.3026    4.2986 C   0  0  0  0  0  0  0  0  0  0  0  0
    6.7093   23.8399    4.9604 C   0  0  0  0  0  0  0  0  0  0  0  0
    6.7225   22.8458    5.9451 C   0  0  0  0  0  0  0  0  0  0  0  0
    5.5301   22.4388    6.5555 C   0  0  0  0  0  0  0  0  0  0  0  0
    4.3086   23.0264    6.2014 C   0  0  0  0  0  0  0  0  0  0  0  0
    4.2968   24.0107    5.2064 C   0  0  0  0  0  0  0  0  0  0  0  0
    5.4847   24.4130    4.5900 C   0  0  0  0  0  0  0  0  0  0  0  0
    3.0674   22.5996    6.8543 C   0  0  0  0  0  0  0  0  0  0  0  0
    1.7625   22.9168    6.5317 C   0  0  0  0  0  0  0  0  0  0  0  0
    0.8019   22.3133    7.4099 C   0  0  0  0  0  0  0  0  0  0  0  0
    1.4263   21.5441    8.3690 C   0  0  0  0  0  0  0  0  0  0  0  0
    3.1273   21.5468    8.2032 S   0  0  0  0  0  0  0  0  0  0  0  0
   -0.6474   22.4807    7.3773 C   0  0  0  0  0  0  0  0  0  0  0  0
   -1.5051   21.3996    7.6172 C   0  0  0  0  0  0  0  0  0  0  0  0
   -2.8902   21.5816    7.6069 C   0  0  0  0  0  0  0  0  0  0  0  0
   -3.4275   22.8418    7.3558 C   0  0  0  0  0  0  0  0  0  0  0  0
   -2.5832   23.9226    7.1092 C   0  0  0  0  0  0  0  0  0  0  0  0
   -1.1980   23.7428    7.1181 C   0  0  0  0  0  0  0  0  0  0  0  0
    7.3582   30.0225    5.1859 C   0  0  0  0  0  0  0  0  0  0  0  0
    8.3788   30.4934    4.1433 C   0  0  0  0  0  0  0  0  0  0  0  0
    9.4708   31.3286    4.7743 C   0  0  0  0  0  0  0  0  0  0  0  0
   10.5748   31.4878    3.9917 N   0  0  0  0  0  0  0  0  0  0  0  0
    9.4043   31.8316    5.8874 O   0  0  0  0  0  0  0  0  0  0  0  0
   10.6089   31.0748    3.0986 H   0  0  0  0  0  0  0  0  0  0  0  0
   11.3385   32.0158    4.3193 H   0  0  0  0  0  0  0  0  0  0  0  0
 15 16  1  0
 16 17  1  0
 16 18  1  0
 16 14  1  0
 14 13  1  0
 13 12  1  0
  6 12  1  0
  6  2  1  0
  2  3  1  0
  3  4  2  0
  3  1  1  0
  1 42  1  0
 42 43  1  0
 43 44  1  0
 44 45  1  0
 44 46  2  0
  1 19  1  0
 19 20  1  0
 20 21  2  0
 20 23  1  0
 23 24  1  0
 24 25  1  0
 25 26  2  0
 26 27  1  0
 27 28  2  0
 28 31  1  0
 31 32  2  0
 32 33  1  0
 33 36  1  0
 36 37  2  0
 37 38  1  0
 38 39  2  0
 39 40  1  0
 40 41  2  0
 33 34  2  0
 34 35  1  0
 28 29  1  0
 29 30  2  0
  6  7  1  0
  7  8  1  0
  7  9  2  0
 30 25  1  0
 35 31  1  0
 41 36  1  0
  2  5  1  0
 45 47  1  0
 45 48  1  0
 19 22  1  0
  8 10  1  0
  8 11  1  0
M  CHG 1  16   1
M  END
> <minimizedAffinity>
-9.17772

> <CNNscore>
0.9149206877

> <CNNaffinity>
8.1119136810

> <CNN_VS>
7.4217576981

> <CNNaffinity_variance>
0.2854974270

$$$$



 48 50  0  0  0  0  0  0  0  0999 V2000
    8.4520   24.5229    3.6707 C   0  0  0  0  0  0  0  0  0  0  0  0
    8.3277   26.7511    4.7822 N   0  0  0  0  0  0  0  0  0  0  0  0
    9.1326   25.8454    4.1389 C   0  0  0  0  0  0  0  0  0  0  0  0
   10.3363   26.0574    3.9812 O   0  0  0  0  0  0  0  0  0  0  0  0
    7.3629   26.5560    4.8028 H   0  0  0  0  0  0  0  0  0  0  0  0
    8.7715   27.9823    5.4416 C   0  0  0  0  0  0  0  0  0  0  0  0
    7.9085   28.4183    6.6481 C   0  0  0  0  0  0  0  0  0  0  0  0
    8.5287   29.0925    7.6563 N   0  0  0  0  0  0  0  0  0  0  0  0
    6.7595   28.0045    6.8144 O   0  0  0  0  0  0  0  0  0  0  0  0
    9.4465   29.4270    7.5332 H   0  0  0  0  0  0  0  0  0  0  0  0
    8.0593   29.2453    8.5080 H   0  0  0  0  0  0  0  0  0  0  0  0
    9.0077   29.1328    4.4473 C   0  0  0  0  0  0  0  0  0  0  0  0
    7.8250   29.3499    3.4855 C   0  0  0  0  0  0  0  0  0  0  0  0
    8.2236   29.2002    2.0125 C   0  0  0  0  0  0  0  0  0  0  0  0
    7.5662   31.6562    2.0116 C   0  0  0  0  0  0  0  0  0  0  0  0
    7.9058   30.4445    1.1592 N   0  0  0  0  0  0  0  0  0  0  0  0
    6.7562   30.1548    0.1928 C   0  0  0  0  0  0  0  0  0  0  0  0
    9.1435   30.7689    0.3239 C   0  0  0  0  0  0  0  0  0  0  0  0
    7.8553   23.6887    4.7284 N   0  0  0  0  0  0  0  0  0  0  0  0
    6.7085   24.0990    5.3822 C   0  0  0  0  0  0  0  0  0  0  0  0
    5.9865   24.9775    4.9167 O   0  0  0  0  0  0  0  0  0  0  0  0
    8.2765   22.8327    4.9714 H   0  0  0  0  0  0  0  0  0  0  0  0
    6.3899   23.3080    6.6343 C   0  0  0  0  0  0  0  0  0  0  0  0
    5.5544   22.0757    6.3025 C   0  0  0  0  0  0  0  0  0  0  0  0
    4.0836   22.3024    6.5535 C   0  0  0  0  0  0  0  0  0  0  0  0
    3.4298   21.6958    7.6319 C   0  0  0  0  0  0  0  0  0  0  0  0
    2.0674   21.9282    7.8546 C   0  0  0  0  0  0  0  0  0  0  0  0
    1.3399   22.7791    7.0122 C   0  0  0  0  0  0  0  0  0  0  0  0
    1.9933   23.3734    5.9264 C   0  0  0  0  0  0  0  0  0  0  0  0
    3.3514   23.1367    5.6974 C   0  0  0  0  0  0  0  0  0  0  0  0
   -0.0840   23.0232    7.2607 C   0  0  0  0  0  0  0  0  0  0  0  0
   -1.0388   22.1603    7.7621 C   0  0  0  0  0  0  0  0  0  0  0  0
   -2.3407   22.7550    7.8595 C   0  0  0  0  0  0  0  0  0  0  0  0
   -2.3167   24.0659    7.4320 C   0  0  0  0  0  0  0  0  0  0  0  0
   -0.7586   24.5629    6.9358 S   0  0  0  0  0  0  0  0  0  0  0  0
   -3.5726   22.1090    8.3006 C   0  0  0  0  0  0  0  0  0  0  0  0
   -4.7248   22.8584    8.5707 C   0  0  0  0  0  0  0  0  0  0  0  0
   -5.9035   22.2224    8.9682 C   0  0  0  0  0  0  0  0  0  0  0  0
   -5.9392   20.8364    9.1003 C   0  0  0  0  0  0  0  0  0  0  0  0
   -4.7967   20.0820    8.8406 C   0  0  0  0  0  0  0  0  0  0  0  0
   -3.6168   20.7159    8.4439 C   0  0  0  0  0  0  0  0  0  0  0  0
    7.4180   24.8299    2.5749 C   0  0  0  0  0  0  0  0  0  0  0  0
    7.9419   25.7597    1.4742 C   0  0  0  0  0  0  0  0  0  0  0  0
    8.4800   24.9768    0.2969 C   0  0  0  0  0  0  0  0  0  0  0  0
    8.8928   23.7158    0.6066 N   0  0  0  0  0  0  0  0  0  0  0  0
    8.5544   25.4060   -0.8462 O   0  0  0  0  0  0  0  0  0  0  0  0
    8.8246   23.3890    1.5328 H   0  0  0  0  0  0  0  0  0  0  0  0
    9.2593   23.1314   -0.0959 H   0  0  0  0  0  0  0  0  0  0  0  0
 15 16  1  0
 16 17  1  0
 16 18  1  0
 16 14  1  0
 14 13  1  0
 13 12  1  0
  6 12  1  0
  6  2  1  0
  2  3  1  0
  3  4  2  0
  3  1  1  0
  1 42  1  0
 42 43  1  0
 43 44  1  0
 44 45  1  0
 44 46  2  0
  1 19  1  0
 19 20  1  0
 20 21  2  0
 20 23  1  0
 23 24  1  0
 24 25  1  0
 25 26  2  0
 26 27  1  0
 27 28  2  0
 28 31  1  0
 31 32  2  0
 32 33  1  0
 33 36  1  0
 36 37  2  0
 37 38  1  0
 38 39  2  0
 39 40  1  0
 40 41  2  0
 33 34  2  0
 34 35  1  0
 28 29  1  0
 29 30  2  0
  6  7  1  0
  7  8  1  0
  7  9  2  0
 30 25  1  0
 35 31  1  0
 41 36  1  0
  2  5  1  0
 45 47  1  0
 45 48  1  0
 19 22  1  0
  8 10  1  0
  8 11  1  0
M  CHG 1  16   1
M  END
> <minimizedAffinity>
-9.76783

> <CNNscore>
0.8902587891

> <CNNaffinity>
8.0732126236

> <CNN_VS>
7.1872487068

> <CNNaffinity_variance>
0.5907694697

$$$$



 48 50  0  0  0  0  0  0  0  0999 V2000
    8.6100   27.4507    2.7720 C   0  0  0  0  0  0  0  0  0  0  0  0
    8.9820   29.4754    4.1783 N   0  0  0  0  0  0  0  0  0  0  0  0
    8.5841   28.9989    2.9549 C   0  0  0  0  0  0  0  0  0  0  0  0
    8.2648   29.7639    2.0429 O   0  0  0  0  0  0  0  0  0  0  0  0
    9.1456   28.8102    4.8853 H   0  0  0  0  0  0  0  0  0  0  0  0
    9.1860   30.8835    4.5298 C   0  0  0  0  0  0  0  0  0  0  0  0
    7.8960   31.6529    4.8965 C   0  0  0  0  0  0  0  0  0  0  0  0
    7.8221   32.2034    6.1404 N   0  0  0  0  0  0  0  0  0  0  0  0
    6.8837   31.6052    4.1951 O   0  0  0  0  0  0  0  0  0  0  0  0
    8.6252   32.2462    6.7082 H   0  0  0  0  0  0  0  0  0  0  0  0
    6.9656   32.5585    6.4714 H   0  0  0  0  0  0  0  0  0  0  0  0
   10.0376   31.6343    3.4910 C   0  0  0  0  0  0  0  0  0  0  0  0
   11.0352   32.6190    4.1283 C   0  0  0  0  0  0  0  0  0  0  0  0
   12.4713   32.4119    3.6327 C   0  0  0  0  0  0  0  0  0  0  0  0
   11.7269   34.2695    2.0646 C   0  0  0  0  0  0  0  0  0  0  0  0
   12.8770   33.3767    2.5006 N   0  0  0  0  0  0  0  0  0  0  0  0
   13.4116   32.5991    1.2969 C   0  0  0  0  0  0  0  0  0  0  0  0
   14.0091   34.2612    3.0213 C   0  0  0  0  0  0  0  0  0  0  0  0
    7.9547   26.6600    3.8285 N   0  0  0  0  0  0  0  0  0  0  0  0
    8.6610   25.6963    4.5237 C   0  0  0  0  0  0  0  0  0  0  0  0
    9.8895   25.6753    4.5180 O   0  0  0  0  0  0  0  0  0  0  0  0
    7.0066   26.8192    4.0409 H   0  0  0  0  0  0  0  0  0  0  0  0
    7.7961   24.7659    5.3489 C   0  0  0  0  0  0  0  0  0  0  0  0
    6.8703   23.9467    4.4554 C   0  0  0  0  0  0  0  0  0  0  0  0
    5.6163   23.5184    5.1778 C   0  0  0  0  0  0  0  0  0  0  0  0
    4.3878   24.1409    4.9298 C   0  0  0  0  0  0  0  0  0  0  0  0
    3.2336   23.7211    5.6016 C   0  0  0  0  0  0  0  0  0  0  0  0
    3.2856   22.6657    6.5216 C   0  0  0  0  0  0  0  0  0  0  0  0
    4.5183   22.0542    6.7778 C   0  0  0  0  0  0  0  0  0  0  0  0
    5.6733   22.4768    6.1142 C   0  0  0  0  0  0  0  0  0  0  0  0
    2.0689   22.2277    7.2120 C   0  0  0  0  0  0  0  0  0  0  0  0
    0.7680   22.6569    7.0364 C   0  0  0  0  0  0  0  0  0  0  0  0
   -0.1650   21.9991    7.9052 C   0  0  0  0  0  0  0  0  0  0  0  0
    0.4744   21.0776    8.7075 C   0  0  0  0  0  0  0  0  0  0  0  0
    2.1556   21.0065    8.4089 S   0  0  0  0  0  0  0  0  0  0  0  0
   -1.5988   22.2503    8.0090 C   0  0  0  0  0  0  0  0  0  0  0  0
   -2.1171   23.5446    7.8744 C   0  0  0  0  0  0  0  0  0  0  0  0
   -3.4945   23.7650    7.9515 C   0  0  0  0  0  0  0  0  0  0  0  0
   -4.3621   22.6966    8.1650 C   0  0  0  0  0  0  0  0  0  0  0  0
   -3.8564   21.4060    8.3071 C   0  0  0  0  0  0  0  0  0  0  0  0
   -2.4795   21.1834    8.2312 C   0  0  0  0  0  0  0  0  0  0  0  0
    8.0462   27.0809    1.3901 C   0  0  0  0  0  0  0  0  0  0  0  0
    9.0738   26.4282    0.4582 C   0  0  0  0  0  0  0  0  0  0  0  0
    8.7363   24.9783    0.1896 C   0  0  0  0  0  0  0  0  0  0  0  0
    8.9316   24.1526    1.2558 N   0  0  0  0  0  0  0  0  0  0  0  0
    8.3234   24.5481   -0.8785 O   0  0  0  0  0  0  0  0  0  0  0  0
    9.2647   24.5183    2.1071 H   0  0  0  0  0  0  0  0  0  0  0  0
    8.7397   23.1904    1.1750 H   0  0  0  0  0  0  0  0  0  0  0  0
 15 16  1  0
 16 17  1  0
 16 18  1  0
 16 14  1  0
 14 13  1  0
 13 12  1  0
  6 12  1  0
  6  2  1  0
  2  3  1  0
  3  4  2  0
  3  1  1  0
  1 42  1  0
 42 43  1  0
 43 44  1  0
 44 45  1  0
 44 46  2  0
  1 19  1  0
 19 20  1  0
 20 21  2  0
 20 23  1  0
 23 24  1  0
 24 25  1  0
 25 26  2  0
 26 27  1  0
 27 28  2  0
 28 31  1  0
 31 32  2  0
 32 33  1  0
 33 36  1  0
 36 37  2  0
 37 38  1  0
 38 39  2  0
 39 40  1  0
 40 41  2  0
 33 34  2  0
 34 35  1  0
 28 29  1  0
 29 30  2  0
  6  7  1  0
  7  8  1  0
  7  9  2  0
 30 25  1  0
 35 31  1  0
 41 36  1  0
  2  5  1  0
 45 47  1  0
 45 48  1  0
 19 22  1  0
  8 10  1  0
  8 11  1  0
M  CHG 1  16   1
M  END
> <minimizedAffinity>
-8.79785

> <CNNscore>
0.8797619343

> <CNNaffinity>
8.0123786926

> <CNN_VS>
7.0489859581

> <CNNaffinity_variance>
0.4430917501

$$$$



 48 50  0  0  0  0  0  0  0  0999 V2000
    8.5753   29.0769    4.9246 C   0  0  0  0  0  0  0  0  0  0  0  0
    8.5163   28.8937    7.4103 N   0  0  0  0  0  0  0  0  0  0  0  0
    7.9307   29.4408    6.2969 C   0  0  0  0  0  0  0  0  0  0  0  0
    6.9725   30.2103    6.3902 O   0  0  0  0  0  0  0  0  0  0  0  0
    9.2242   28.2261    7.2605 H   0  0  0  0  0  0  0  0  0  0  0  0
    8.1852   29.2112    8.8022 C   0  0  0  0  0  0  0  0  0  0  0  0
    6.7266   29.6695    9.0327 C   0  0  0  0  0  0  0  0  0  0  0  0
    6.4993   31.0059    9.1678 N   0  0  0  0  0  0  0  0  0  0  0  0
    5.8243   28.8728    9.2974 O   0  0  0  0  0  0  0  0  0  0  0  0
    7.2137   31.6503    8.9588 H   0  0  0  0  0  0  0  0  0  0  0  0
    5.6207   31.3272    9.4744 H   0  0  0  0  0  0  0  0  0  0  0  0
    9.2052   30.1645    9.4494 C   0  0  0  0  0  0  0  0  0  0  0  0
    9.1736   30.1259   10.9883 C   0  0  0  0  0  0  0  0  0  0  0  0
    9.4295   28.7228   11.5515 C   0  0  0  0  0  0  0  0  0  0  0  0
   10.2666   30.1376   13.4910 C   0  0  0  0  0  0  0  0  0  0  0  0
   10.0789   28.7298   12.9499 N   0  0  0  0  0  0  0  0  0  0  0  0
   11.4249   28.0041   12.9216 C   0  0  0  0  0  0  0  0  0  0  0  0
    9.1583   27.9629   13.8983 C   0  0  0  0  0  0  0  0  0  0  0  0
    8.7566   27.6404    4.6519 N   0  0  0  0  0  0  0  0  0  0  0  0
    7.9541   26.7016    5.2729 C   0  0  0  0  0  0  0  0  0  0  0  0
    6.8943   27.0194    5.8074 O   0  0  0  0  0  0  0  0  0  0  0  0
    9.4546   27.3469    4.0227 H   0  0  0  0  0  0  0  0  0  0  0  0
    8.4477   25.2757    5.1392 C   0  0  0  0  0  0  0  0  0  0  0  0
    7.5522   24.4750    4.1992 C   0  0  0  0  0  0  0  0  0  0  0  0
    6.3262   23.9421    4.8996 C   0  0  0  0  0  0  0  0  0  0  0  0
    6.4228   22.9322    5.8634 C   0  0  0  0  0  0  0  0  0  0  0  0
    5.2748   22.4597    6.5105 C   0  0  0  0  0  0  0  0  0  0  0  0
    4.0150   22.9964    6.2146 C   0  0  0  0  0  0  0  0  0  0  0  0
    3.9198   23.9967    5.2402 C   0  0  0  0  0  0  0  0  0  0  0  0
    5.0634   24.4644    4.5873 C   0  0  0  0  0  0  0  0  0  0  0  0
    2.8207   22.5010    6.9055 C   0  0  0  0  0  0  0  0  0  0  0  0
    1.4904   22.7272    6.6115 C   0  0  0  0  0  0  0  0  0  0  0  0
    0.5931   22.0777    7.5233 C   0  0  0  0  0  0  0  0  0  0  0  0
    1.2898   21.3672    8.4779 C   0  0  0  0  0  0  0  0  0  0  0  0
    2.9824   21.4775    8.2686 S   0  0  0  0  0  0  0  0  0  0  0  0
   -0.8644   22.1499    7.5252 C   0  0  0  0  0  0  0  0  0  0  0  0
   -1.6415   21.0557    7.9263 C   0  0  0  0  0  0  0  0  0  0  0  0
   -3.0353   21.1491    7.9462 C   0  0  0  0  0  0  0  0  0  0  0  0
   -3.6616   22.3332    7.5646 C   0  0  0  0  0  0  0  0  0  0  0  0
   -2.8982   23.4254    7.1574 C   0  0  0  0  0  0  0  0  0  0  0  0
   -1.5045   23.3340    7.1359 C   0  0  0  0  0  0  0  0  0  0  0  0
    7.7901   29.7495    3.7866 C   0  0  0  0  0  0  0  0  0  0  0  0
    8.0405   29.1239    2.4095 C   0  0  0  0  0  0  0  0  0  0  0  0
    8.3815   30.1753    1.3767 C   0  0  0  0  0  0  0  0  0  0  0  0
    9.2256   31.1461    1.8257 N   0  0  0  0  0  0  0  0  0  0  0  0
    7.9548   30.1860    0.2303 O   0  0  0  0  0  0  0  0  0  0  0  0
    9.5579   31.1196    2.7520 H   0  0  0  0  0  0  0  0  0  0  0  0
    9.5030   31.8741    1.2237 H   0  0  0  0  0  0  0  0  0  0  0  0
 15 16  1  0
 16 17  1  0
 16 18  1  0
 16 14  1  0
 14 13  1  0
 13 12  1  0
  6 12  1  0
  6  2  1  0
  2  3  1  0
  3  4  2  0
  3  1  1  0
  1 42  1  0
 42 43  1  0
 43 44  1  0
 44 45  1  0
 44 46  2  0
  1 19  1  0
 19 20  1  0
 20 21  2  0
 20 23  1  0
 23 24  1  0
 24 25  1  0
 25 26  2  0
 26 27  1  0
 27 28  2  0
 28 31  1  0
 31 32  2  0
 32 33  1  0
 33 36  1  0
 36 37  2  0
 37 38  1  0
 38 39  2  0
 39 40  1  0
 40 41  2  0
 33 34  2  0
 34 35  1  0
 28 29  1  0
 29 30  2  0
  6  7  1  0
  7  8  1  0
  7  9  2  0
 30 25  1  0
 35 31  1  0
 41 36  1  0
  2  5  1  0
 45 47  1  0
 45 48  1  0
 19 22  1  0
  8 10  1  0
  8 11  1  0
M  CHG 1  16   1
M  END
> <minimizedAffinity>
-8.74618

> <CNNscore>
0.7700502872

> <CNNaffinity>
7.8183045387

> <CNN_VS>
6.0204877853

> <CNNaffinity_variance>
0.1650143117

$$$$



 48 50  0  0  0  0  0  0  0  0999 V2000
    7.8641   28.7617    6.1711 C   0  0  0  0  0  0  0  0  0  0  0  0
    8.1038   28.9313    8.6469 N   0  0  0  0  0  0  0  0  0  0  0  0
    7.2307   28.9007    7.5891 C   0  0  0  0  0  0  0  0  0  0  0  0
    6.0157   29.0188    7.7583 O   0  0  0  0  0  0  0  0  0  0  0  0
    9.0514   28.7511    8.4496 H   0  0  0  0  0  0  0  0  0  0  0  0
    7.7560   29.2077   10.0434 C   0  0  0  0  0  0  0  0  0  0  0  0
    7.5763   30.7055   10.3820 C   0  0  0  0  0  0  0  0  0  0  0  0
    8.1813   31.6135    9.5662 N   0  0  0  0  0  0  0  0  0  0  0  0
    7.0924   31.0813   11.4514 O   0  0  0  0  0  0  0  0  0  0  0  0
    8.5708   31.3231    8.7100 H   0  0  0  0  0  0  0  0  0  0  0  0
    8.2289   32.5599    9.8330 H   0  0  0  0  0  0  0  0  0  0  0  0
    8.6889   28.4930   11.0370 C   0  0  0  0  0  0  0  0  0  0  0  0
    9.9167   29.3375   11.4246 C   0  0  0  0  0  0  0  0  0  0  0  0
   10.0828   29.4804   12.9422 C   0  0  0  0  0  0  0  0  0  0  0  0
   11.9126   30.8328   14.0765 C   0  0  0  0  0  0  0  0  0  0  0  0
   10.5625   30.8787   13.3800 N   0  0  0  0  0  0  0  0  0  0  0  0
    9.5312   31.5388   14.2965 C   0  0  0  0  0  0  0  0  0  0  0  0
   10.6908   31.7441   12.1271 C   0  0  0  0  0  0  0  0  0  0  0  0
    7.4305   27.5994    5.3762 N   0  0  0  0  0  0  0  0  0  0  0  0
    8.3599   26.8004    4.7370 C   0  0  0  0  0  0  0  0  0  0  0  0
    9.5485   26.8281    5.0476 O   0  0  0  0  0  0  0  0  0  0  0  0
    6.4715   27.3901    5.2998 H   0  0  0  0  0  0  0  0  0  0  0  0
    7.7658   25.8452    3.7224 C   0  0  0  0  0  0  0  0  0  0  0  0
    7.9024   24.3997    4.1897 C   0  0  0  0  0  0  0  0  0  0  0  0
    6.6551   23.9063    4.8815 C   0  0  0  0  0  0  0  0  0  0  0  0
    6.7137   22.8993    5.8514 C   0  0  0  0  0  0  0  0  0  0  0  0
    5.5466   22.4638    6.4903 C   0  0  0  0  0  0  0  0  0  0  0  0
    4.3056   23.0351    6.1799 C   0  0  0  0  0  0  0  0  0  0  0  0
    4.2483   24.0324    5.1995 C   0  0  0  0  0  0  0  0  0  0  0  0
    5.4109   24.4633    4.5547 C   0  0  0  0  0  0  0  0  0  0  0  0
    3.0913   22.5782    6.8623 C   0  0  0  0  0  0  0  0  0  0  0  0
    1.7703   22.8183    6.5387 C   0  0  0  0  0  0  0  0  0  0  0  0
    0.8464   22.2084    7.4512 C   0  0  0  0  0  0  0  0  0  0  0  0
    1.5142   21.5125    8.4367 C   0  0  0  0  0  0  0  0  0  0  0  0
    3.2118   21.5893    8.2549 S   0  0  0  0  0  0  0  0  0  0  0  0
   -0.6095   22.3047    7.4252 C   0  0  0  0  0  0  0  0  0  0  0  0
   -1.2485   23.4845    7.0231 C   0  0  0  0  0  0  0  0  0  0  0  0
   -2.6432   23.5526    6.9798 C   0  0  0  0  0  0  0  0  0  0  0  0
   -3.4082   22.4454    7.3389 C   0  0  0  0  0  0  0  0  0  0  0  0
   -2.7826   21.2690    7.7469 C   0  0  0  0  0  0  0  0  0  0  0  0
   -1.3882   21.1990    7.7918 C   0  0  0  0  0  0  0  0  0  0  0  0
    7.6605   30.0648    5.3807 C   0  0  0  0  0  0  0  0  0  0  0  0
    8.5794   31.2080    5.8271 C   0  0  0  0  0  0  0  0  0  0  0  0
    9.5400   31.6080    4.7291 C   0  0  0  0  0  0  0  0  0  0  0  0
    9.3866   32.8896    4.2923 N   0  0  0  0  0  0  0  0  0  0  0  0
   10.3917   30.8721    4.2499 O   0  0  0  0  0  0  0  0  0  0  0  0
    8.6951   33.4660    4.6909 H   0  0  0  0  0  0  0  0  0  0  0  0
    9.9672   33.2391    3.5782 H   0  0  0  0  0  0  0  0  0  0  0  0
 15 16  1  0
 16 17  1  0
 16 18  1  0
 16 14  1  0
 14 13  1  0
 13 12  1  0
  6 12  1  0
  6  2  1  0
  2  3  1  0
  3  4  2  0
  3  1  1  0
  1 42  1  0
 42 43  1  0
 43 44  1  0
 44 45  1  0
 44 46  2  0
  1 19  1  0
 19 20  1  0
 20 21  2  0
 20 23  1  0
 23 24  1  0
 24 25  1  0
 25 26  2  0
 26 27  1  0
 27 28  2  0
 28 31  1  0
 31 32  2  0
 32 33  1  0
 33 36  1  0
 36 37  2  0
 37 38  1  0
 38 39  2  0
 39 40  1  0
 40 41  2  0
 33 34  2  0
 34 35  1  0
 28 29  1  0
 29 30  2  0
  6  7  1  0
  7  8  1  0
  7  9  2  0
 30 25  1  0
 35 31  1  0
 41 36  1  0
  2  5  1  0
 45 47  1  0
 45 48  1  0
 19 22  1  0
  8 10  1  0
  8 11  1  0
M  CHG 1  16   1
M  END
> <minimizedAffinity>
-8.53438

> <CNNscore>
0.7685639858

> <CNNaffinity>
8.0855026245

> <CNN_VS>
6.2142262459

> <CNNaffinity_variance>
0.0650351420

$$$$



 48 50  0  0  0  0  0  0  0  0999 V2000
    8.6543   27.5627    1.7185 C   0  0  0  0  0  0  0  0  0  0  0  0
    8.3034   29.8542    2.6359 N   0  0  0  0  0  0  0  0  0  0  0  0
    8.5907   29.1081    1.5211 C   0  0  0  0  0  0  0  0  0  0  0  0
    8.8250   29.6429    0.4358 O   0  0  0  0  0  0  0  0  0  0  0  0
    8.0478   29.3620    3.4494 H   0  0  0  0  0  0  0  0  0  0  0  0
    8.3417   31.3163    2.7276 C   0  0  0  0  0  0  0  0  0  0  0  0
    9.4407   31.8783    3.6588 C   0  0  0  0  0  0  0  0  0  0  0  0
    9.3688   33.1964    3.9952 N   0  0  0  0  0  0  0  0  0  0  0  0
   10.4607   31.2405    3.9266 O   0  0  0  0  0  0  0  0  0  0  0  0
    8.5583   33.7145    3.7855 H   0  0  0  0  0  0  0  0  0  0  0  0
   10.1273   33.6310    4.4480 H   0  0  0  0  0  0  0  0  0  0  0  0
    6.9599   31.9262    3.0219 C   0  0  0  0  0  0  0  0  0  0  0  0
    5.8586   31.4051    2.0803 C   0  0  0  0  0  0  0  0  0  0  0  0
    4.8396   32.4872    1.7037 C   0  0  0  0  0  0  0  0  0  0  0  0
    6.4722   33.0542   -0.1610 C   0  0  0  0  0  0  0  0  0  0  0  0
    5.0149   33.0253    0.2695 N   0  0  0  0  0  0  0  0  0  0  0  0
    4.4115   34.4250    0.1427 C   0  0  0  0  0  0  0  0  0  0  0  0
    4.2468   32.1018   -0.6750 C   0  0  0  0  0  0  0  0  0  0  0  0
    8.0105   27.0354    2.9343 N   0  0  0  0  0  0  0  0  0  0  0  0
    8.7501   26.3463    3.8772 C   0  0  0  0  0  0  0  0  0  0  0  0
    9.9767   26.4153    3.9031 O   0  0  0  0  0  0  0  0  0  0  0  0
    7.0464   27.1748    3.0763 H   0  0  0  0  0  0  0  0  0  0  0  0
    7.9158   25.6076    4.9034 C   0  0  0  0  0  0  0  0  0  0  0  0
    7.4755   24.2477    4.3709 C   0  0  0  0  0  0  0  0  0  0  0  0
    6.2315   23.7434    5.0608 C   0  0  0  0  0  0  0  0  0  0  0  0
    6.2884   22.6901    5.9804 C   0  0  0  0  0  0  0  0  0  0  0  0
    5.1248   22.2447    6.6187 C   0  0  0  0  0  0  0  0  0  0  0  0
    3.8893   22.8518    6.3585 C   0  0  0  0  0  0  0  0  0  0  0  0
    3.8333   23.8958    5.4280 C   0  0  0  0  0  0  0  0  0  0  0  0
    4.9922   24.3370    4.7836 C   0  0  0  0  0  0  0  0  0  0  0  0
    2.6788   22.3838    7.0402 C   0  0  0  0  0  0  0  0  0  0  0  0
    1.3575   22.6717    6.7599 C   0  0  0  0  0  0  0  0  0  0  0  0
    0.4384   22.0313    7.6561 C   0  0  0  0  0  0  0  0  0  0  0  0
    1.1097   21.2650    8.5855 C   0  0  0  0  0  0  0  0  0  0  0  0
    2.8045   21.3139    8.3711 S   0  0  0  0  0  0  0  0  0  0  0  0
   -1.0151   22.1616    7.6675 C   0  0  0  0  0  0  0  0  0  0  0  0
   -1.6318   23.3951    7.4223 C   0  0  0  0  0  0  0  0  0  0  0  0
   -3.0250   23.4982    7.4121 C   0  0  0  0  0  0  0  0  0  0  0  0
   -3.8106   22.3725    7.6482 C   0  0  0  0  0  0  0  0  0  0  0  0
   -3.2071   21.1420    7.8999 C   0  0  0  0  0  0  0  0  0  0  0  0
   -1.8142   21.0368    7.9114 C   0  0  0  0  0  0  0  0  0  0  0  0
    8.1089   26.8558    0.4667 C   0  0  0  0  0  0  0  0  0  0  0  0
    9.0793   25.8346   -0.1382 C   0  0  0  0  0  0  0  0  0  0  0  0
    8.7075   24.4201    0.2483 C   0  0  0  0  0  0  0  0  0  0  0  0
    9.2090   23.4639   -0.5828 N   0  0  0  0  0  0  0  0  0  0  0  0
    8.0181   24.1230    1.2142 O   0  0  0  0  0  0  0  0  0  0  0  0
    9.7617   23.7235   -1.3550 H   0  0  0  0  0  0  0  0  0  0  0  0
    9.0185   22.5134   -0.4112 H   0  0  0  0  0  0  0  0  0  0  0  0
 15 16  1  0
 16 17  1  0
 16 18  1  0
 16 14  1  0
 14 13  1  0
 13 12  1  0
  6 12  1  0
  6  2  1  0
  2  3  1  0
  3  4  2  0
  3  1  1  0
  1 42  1  0
 42 43  1  0
 43 44  1  0
 44 45  1  0
 44 46  2  0
  1 19  1  0
 19 20  1  0
 20 21  2  0
 20 23  1  0
 23 24  1  0
 24 25  1  0
 25 26  2  0
 26 27  1  0
 27 28  2  0
 28 31  1  0
 31 32  2  0
 32 33  1  0
 33 36  1  0
 36 37  2  0
 37 38  1  0
 38 39  2  0
 39 40  1  0
 40 41  2  0
 33 34  2  0
 34 35  1  0
 28 29  1  0
 29 30  2  0
  6  7  1  0
  7  8  1  0
  7  9  2  0
 30 25  1  0
 35 31  1  0
 41 36  1  0
  2  5  1  0
 45 47  1  0
 45 48  1  0
 19 22  1  0
  8 10  1  0
  8 11  1  0
M  CHG 1  16   1
M  END
> <minimizedAffinity>
-8.65600

> <CNNscore>
0.6878550053

> <CNNaffinity>
7.9035334587

> <CNN_VS>
5.4364848137

> <CNNaffinity_variance>
0.3238084614

$$$$



 48 50  0  0  0  0  0  0  0  0999 V2000
    7.3332   24.7382    4.1107 C   0  0  0  0  0  0  0  0  0  0  0  0
    7.8114   27.0201    4.9938 N   0  0  0  0  0  0  0  0  0  0  0  0
    8.3328   25.7905    4.6805 C   0  0  0  0  0  0  0  0  0  0  0  0
    9.5203   25.5287    4.8811 O   0  0  0  0  0  0  0  0  0  0  0  0
    6.8768   27.1886    4.7340 H   0  0  0  0  0  0  0  0  0  0  0  0
    8.5172   28.1060    5.6796 C   0  0  0  0  0  0  0  0  0  0  0  0
    7.8740   28.5572    7.0113 C   0  0  0  0  0  0  0  0  0  0  0  0
    8.6854   29.1388    7.9383 N   0  0  0  0  0  0  0  0  0  0  0  0
    6.7302   28.2275    7.3304 O   0  0  0  0  0  0  0  0  0  0  0  0
    9.6007   29.4057    7.6931 H   0  0  0  0  0  0  0  0  0  0  0  0
    8.3564   29.2921    8.8534 H   0  0  0  0  0  0  0  0  0  0  0  0
    8.8235   29.2923    4.7484 C   0  0  0  0  0  0  0  0  0  0  0  0
    7.8351   30.4609    4.9166 C   0  0  0  0  0  0  0  0  0  0  0  0
    8.2767   31.7234    4.1669 C   0  0  0  0  0  0  0  0  0  0  0  0
    6.1643   32.9718    3.5008 C   0  0  0  0  0  0  0  0  0  0  0  0
    7.3278   32.1210    3.0185 N   0  0  0  0  0  0  0  0  0  0  0  0
    6.7963   30.8770    2.3047 C   0  0  0  0  0  0  0  0  0  0  0  0
    8.1336   32.9298    2.0029 C   0  0  0  0  0  0  0  0  0  0  0  0
    6.0030   24.6959    4.7427 N   0  0  0  0  0  0  0  0  0  0  0  0
    5.5418   23.5325    5.3298 C   0  0  0  0  0  0  0  0  0  0  0  0
    6.3073   22.6170    5.6226 O   0  0  0  0  0  0  0  0  0  0  0  0
    5.4383   25.5024    4.7470 H   0  0  0  0  0  0  0  0  0  0  0  0
    4.0632   23.5458    5.6588 C   0  0  0  0  0  0  0  0  0  0  0  0
    3.6687   22.2998    6.4454 C   0  0  0  0  0  0  0  0  0  0  0  0
    2.2042   22.2984    6.8097 C   0  0  0  0  0  0  0  0  0  0  0  0
    1.3116   23.2071    6.2303 C   0  0  0  0  0  0  0  0  0  0  0  0
   -0.0456   23.1817    6.5728 C   0  0  0  0  0  0  0  0  0  0  0  0
   -0.5346   22.2413    7.4889 C   0  0  0  0  0  0  0  0  0  0  0  0
    0.3630   21.3428    8.0772 C   0  0  0  0  0  0  0  0  0  0  0  0
    1.7196   21.3713    7.7429 C   0  0  0  0  0  0  0  0  0  0  0  0
   -1.9594   22.2173    7.8327 C   0  0  0  0  0  0  0  0  0  0  0  0
   -2.6638   21.2721    8.5523 C   0  0  0  0  0  0  0  0  0  0  0  0
   -4.0579   21.5851    8.6810 C   0  0  0  0  0  0  0  0  0  0  0  0
   -4.3552   22.7767    8.0540 C   0  0  0  0  0  0  0  0  0  0  0  0
   -2.9816   23.4989    7.3381 S   0  0  0  0  0  0  0  0  0  0  0  0
   -5.0842   20.7791    9.3344 C   0  0  0  0  0  0  0  0  0  0  0  0
   -6.1819   21.3794    9.9643 C   0  0  0  0  0  0  0  0  0  0  0  0
   -7.1687   20.5929   10.5638 C   0  0  0  0  0  0  0  0  0  0  0  0
   -7.0654   19.2042   10.5401 C   0  0  0  0  0  0  0  0  0  0  0  0
   -5.9740   18.5971    9.9220 C   0  0  0  0  0  0  0  0  0  0  0  0
   -4.9857   19.3815    9.3227 C   0  0  0  0  0  0  0  0  0  0  0  0
    7.2044   24.9143    2.5886 C   0  0  0  0  0  0  0  0  0  0  0  0
    8.5207   25.2858    1.8961 C   0  0  0  0  0  0  0  0  0  0  0  0
    8.6192   24.6620    0.5215 C   0  0  0  0  0  0  0  0  0  0  0  0
    7.4407   24.1715    0.0451 N   0  0  0  0  0  0  0  0  0  0  0  0
    9.6494   24.5857   -0.1338 O   0  0  0  0  0  0  0  0  0  0  0  0
    6.6225   24.2427    0.5879 H   0  0  0  0  0  0  0  0  0  0  0  0
    7.4074   23.7459   -0.8421 H   0  0  0  0  0  0  0  0  0  0  0  0
 15 16  1  0
 16 17  1  0
 16 18  1  0
 16 14  1  0
 14 13  1  0
 13 12  1  0
  6 12  1  0
  6  2  1  0
  2  3  1  0
  3  4  2  0
  3  1  1  0
  1 42  1  0
 42 43  1  0
 43 44  1  0
 44 45  1  0
 44 46  2  0
  1 19  1  0
 19 20  1  0
 20 21  2  0
 20 23  1  0
 23 24  1  0
 24 25  1  0
 25 26  2  0
 26 27  1  0
 27 28  2  0
 28 31  1  0
 31 32  2  0
 32 33  1  0
 33 36  1  0
 36 37  2  0
 37 38  1  0
 38 39  2  0
 39 40  1  0
 40 41  2  0
 33 34  2  0
 34 35  1  0
 28 29  1  0
 29 30  2  0
  6  7  1  0
  7  8  1  0
  7  9  2  0
 30 25  1  0
 35 31  1  0
 41 36  1  0
  2  5  1  0
 45 47  1  0
 45 48  1  0
 19 22  1  0
  8 10  1  0
  8 11  1  0
M  CHG 1  16   1
M  END
> <minimizedAffinity>
-9.56083

> <CNNscore>
0.6516671777

> <CNNaffinity>
7.5154824257

> <CNN_VS>
4.8975930214

> <CNNaffinity_variance>
0.2349132895

$$$$



 48 50  0  0  0  0  0  0  0  0999 V2000
    7.4722   28.5024    5.6188 C   0  0  0  0  0  0  0  0  0  0  0  0
    7.4877   28.7710    3.1402 N   0  0  0  0  0  0  0  0  0  0  0  0
    8.0505   29.1607    4.3290 C   0  0  0  0  0  0  0  0  0  0  0  0
    8.9367   30.0163    4.3677 O   0  0  0  0  0  0  0  0  0  0  0  0
    6.8434   28.0273    3.1733 H   0  0  0  0  0  0  0  0  0  0  0  0
    7.7572   29.3595    1.8253 C   0  0  0  0  0  0  0  0  0  0  0  0
    6.9339   30.6277    1.5023 C   0  0  0  0  0  0  0  0  0  0  0  0
    5.9427   30.9741    2.3702 N   0  0  0  0  0  0  0  0  0  0  0  0
    7.0085   31.1961    0.4113 O   0  0  0  0  0  0  0  0  0  0  0  0
    5.8747   30.5259    3.2441 H   0  0  0  0  0  0  0  0  0  0  0  0
    5.2943   31.6727    2.1236 H   0  0  0  0  0  0  0  0  0  0  0  0
    7.6993   28.3217    0.6905 C   0  0  0  0  0  0  0  0  0  0  0  0
    8.8468   27.2969    0.7524 C   0  0  0  0  0  0  0  0  0  0  0  0
    8.8722   26.3613   -0.4621 C   0  0  0  0  0  0  0  0  0  0  0  0
   11.4097   26.2062   -0.4914 C   0  0  0  0  0  0  0  0  0  0  0  0
   10.1568   26.4827   -1.3061 N   0  0  0  0  0  0  0  0  0  0  0  0
   10.2520   27.8692   -1.9445 C   0  0  0  0  0  0  0  0  0  0  0  0
   10.0747   25.4566   -2.4355 C   0  0  0  0  0  0  0  0  0  0  0  0
    7.6209   27.0404    5.7254 N   0  0  0  0  0  0  0  0  0  0  0  0
    8.7091   26.4028    5.1597 C   0  0  0  0  0  0  0  0  0  0  0  0
    9.7179   27.0252    4.8360 O   0  0  0  0  0  0  0  0  0  0  0  0
    6.9401   26.5137    6.2032 H   0  0  0  0  0  0  0  0  0  0  0  0
    8.5747   24.8960    5.0799 C   0  0  0  0  0  0  0  0  0  0  0  0
    7.4611   24.4986    4.1163 C   0  0  0  0  0  0  0  0  0  0  0  0
    6.2498   23.9614    4.8387 C   0  0  0  0  0  0  0  0  0  0  0  0
    6.3649   22.9380    5.7861 C   0  0  0  0  0  0  0  0  0  0  0  0
    5.2306   22.4616    6.4542 C   0  0  0  0  0  0  0  0  0  0  0  0
    3.9665   23.0077    6.1960 C   0  0  0  0  0  0  0  0  0  0  0  0
    3.8526   24.0217    5.2378 C   0  0  0  0  0  0  0  0  0  0  0  0
    4.9823   24.4934    4.5640 C   0  0  0  0  0  0  0  0  0  0  0  0
    2.7869   22.5080    6.9087 C   0  0  0  0  0  0  0  0  0  0  0  0
    1.4505   22.6945    6.6145 C   0  0  0  0  0  0  0  0  0  0  0  0
    0.5723   22.0547    7.5513 C   0  0  0  0  0  0  0  0  0  0  0  0
    1.2893   21.3913    8.5247 C   0  0  0  0  0  0  0  0  0  0  0  0
    2.9780   21.5331    8.3032 S   0  0  0  0  0  0  0  0  0  0  0  0
   -0.8865   22.0940    7.5585 C   0  0  0  0  0  0  0  0  0  0  0  0
   -1.6356   21.0229    8.0620 C   0  0  0  0  0  0  0  0  0  0  0  0
   -3.0310   21.0863    8.0846 C   0  0  0  0  0  0  0  0  0  0  0  0
   -3.6869   22.2171    7.6038 C   0  0  0  0  0  0  0  0  0  0  0  0
   -2.9514   23.2854    7.0945 C   0  0  0  0  0  0  0  0  0  0  0  0
   -1.5560   23.2237    7.0701 C   0  0  0  0  0  0  0  0  0  0  0  0
    8.0510   29.1979    6.8619 C   0  0  0  0  0  0  0  0  0  0  0  0
    7.7554   28.4632    8.1746 C   0  0  0  0  0  0  0  0  0  0  0  0
    8.5297   29.0587    9.3297 C   0  0  0  0  0  0  0  0  0  0  0  0
    9.2866   30.1413    8.9956 N   0  0  0  0  0  0  0  0  0  0  0  0
    8.5042   28.6318   10.4758 O   0  0  0  0  0  0  0  0  0  0  0  0
    9.2936   30.4695    8.0674 H   0  0  0  0  0  0  0  0  0  0  0  0
    9.8265   30.5954    9.6823 H   0  0  0  0  0  0  0  0  0  0  0  0
 15 16  1  0
 16 17  1  0
 16 18  1  0
 16 14  1  0
 14 13  1  0
 13 12  1  0
  6 12  1  0
  6  2  1  0
  2  3  1  0
  3  4  2  0
  3  1  1  0
  1 42  1  0
 42 43  1  0
 43 44  1  0
 44 45  1  0
 44 46  2  0
  1 19  1  0
 19 20  1  0
 20 21  2  0
 20 23  1  0
 23 24  1  0
 24 25  1  0
 25 26  2  0
 26 27  1  0
 27 28  2  0
 28 31  1  0
 31 32  2  0
 32 33  1  0
 33 36  1  0
 36 37  2  0
 37 38  1  0
 38 39  2  0
 39 40  1  0
 40 41  2  0
 33 34  2  0
 34 35  1  0
 28 29  1  0
 29 30  2  0
  6  7  1  0
  7  8  1  0
  7  9  2  0
 30 25  1  0
 35 31  1  0
 41 36  1  0
  2  5  1  0
 45 47  1  0
 45 48  1  0
 19 22  1  0
  8 10  1  0
  8 11  1  0
M  CHG 1  16   1
M  END
> <minimizedAffinity>
-9.11655

> <CNNscore>
0.6439566612

> <CNNaffinity>
7.9175510406

> <CNN_VS>
5.0985598564

> <CNNaffinity_variance>
0.1974766701

$$$$



 48 50  0  0  0  0  0  0  0  0999 V2000
    8.4672   27.5494    2.0123 C   0  0  0  0  0  0  0  0  0  0  0  0
    7.3973   29.6291    2.8761 N   0  0  0  0  0  0  0  0  0  0  0  0
    8.2254   29.0874    1.9259 C   0  0  0  0  0  0  0  0  0  0  0  0
    8.7762   29.7934    1.0792 O   0  0  0  0  0  0  0  0  0  0  0  0
    6.9279   29.0003    3.4707 H   0  0  0  0  0  0  0  0  0  0  0  0
    7.1470   31.0575    3.0877 C   0  0  0  0  0  0  0  0  0  0  0  0
    6.6781   31.8261    1.8308 C   0  0  0  0  0  0  0  0  0  0  0  0
    7.1972   33.0680    1.6207 N   0  0  0  0  0  0  0  0  0  0  0  0
    5.7238   31.4463    1.1495 O   0  0  0  0  0  0  0  0  0  0  0  0
    7.9594   33.3805    2.1598 H   0  0  0  0  0  0  0  0  0  0  0  0
    6.8101   33.6529    0.9299 H   0  0  0  0  0  0  0  0  0  0  0  0
    8.3144   31.7625    3.8007 C   0  0  0  0  0  0  0  0  0  0  0  0
    8.9319   30.9146    4.9280 C   0  0  0  0  0  0  0  0  0  0  0  0
    8.7965   31.5721    6.3065 C   0  0  0  0  0  0  0  0  0  0  0  0
    7.2816   29.5575    6.6394 C   0  0  0  0  0  0  0  0  0  0  0  0
    7.7813   30.8667    7.2280 N   0  0  0  0  0  0  0  0  0  0  0  0
    6.5949   31.7853    7.5243 C   0  0  0  0  0  0  0  0  0  0  0  0
    8.4797   30.5686    8.5540 C   0  0  0  0  0  0  0  0  0  0  0  0
    7.9550   26.8774    3.2193 N   0  0  0  0  0  0  0  0  0  0  0  0
    8.8140   26.1951    4.0604 C   0  0  0  0  0  0  0  0  0  0  0  0
   10.0285   26.3776    4.0191 O   0  0  0  0  0  0  0  0  0  0  0  0
    6.9937   26.9146    3.4284 H   0  0  0  0  0  0  0  0  0  0  0  0
    8.1189   25.3089    5.0734 C   0  0  0  0  0  0  0  0  0  0  0  0
    7.5101   24.0838    4.3988 C   0  0  0  0  0  0  0  0  0  0  0  0
    6.2458   23.6273    5.0850 C   0  0  0  0  0  0  0  0  0  0  0  0
    6.2585   22.5681    5.9994 C   0  0  0  0  0  0  0  0  0  0  0  0
    5.0769   22.1674    6.6344 C   0  0  0  0  0  0  0  0  0  0  0  0
    3.8675   22.8256    6.3758 C   0  0  0  0  0  0  0  0  0  0  0  0
    3.8553   23.8756    5.4504 C   0  0  0  0  0  0  0  0  0  0  0  0
    5.0320   24.2722    4.8094 C   0  0  0  0  0  0  0  0  0  0  0  0
    2.6381   22.4040    7.0539 C   0  0  0  0  0  0  0  0  0  0  0  0
    1.3277   22.7193    6.7524 C   0  0  0  0  0  0  0  0  0  0  0  0
    0.3828   22.1228    7.6521 C   0  0  0  0  0  0  0  0  0  0  0  0
    1.0241   21.3605    8.6057 C   0  0  0  0  0  0  0  0  0  0  0  0
    2.7219   21.3614    8.4094 S   0  0  0  0  0  0  0  0  0  0  0  0
   -1.0668   22.2905    7.6442 C   0  0  0  0  0  0  0  0  0  0  0  0
   -1.9225   21.1821    7.6801 C   0  0  0  0  0  0  0  0  0  0  0  0
   -3.3081   21.3602    7.6971 C   0  0  0  0  0  0  0  0  0  0  0  0
   -3.8477   22.6440    7.6766 C   0  0  0  0  0  0  0  0  0  0  0  0
   -3.0055   23.7533    7.6341 C   0  0  0  0  0  0  0  0  0  0  0  0
   -1.6198   23.5776    7.6161 C   0  0  0  0  0  0  0  0  0  0  0  0
    7.9308   26.8667    0.7433 C   0  0  0  0  0  0  0  0  0  0  0  0
    8.9242   25.8929    0.0989 C   0  0  0  0  0  0  0  0  0  0  0  0
    8.6138   24.4592    0.4682 C   0  0  0  0  0  0  0  0  0  0  0  0
    9.2537   23.5335   -0.3002 N   0  0  0  0  0  0  0  0  0  0  0  0
    7.8590   24.1226    1.3701 O   0  0  0  0  0  0  0  0  0  0  0  0
    9.8573   23.8248   -1.0213 H   0  0  0  0  0  0  0  0  0  0  0  0
    9.1124   22.5734   -0.1342 H   0  0  0  0  0  0  0  0  0  0  0  0
 15 16  1  0
 16 17  1  0
 16 18  1  0
 16 14  1  0
 14 13  1  0
 13 12  1  0
  6 12  1  0
  6  2  1  0
  2  3  1  0
  3  4  2  0
  3  1  1  0
  1 42  1  0
 42 43  1  0
 43 44  1  0
 44 45  1  0
 44 46  2  0
  1 19  1  0
 19 20  1  0
 20 21  2  0
 20 23  1  0
 23 24  1  0
 24 25  1  0
 25 26  2  0
 26 27  1  0
 27 28  2  0
 28 31  1  0
 31 32  2  0
 32 33  1  0
 33 36  1  0
 36 37  2  0
 37 38  1  0
 38 39  2  0
 39 40  1  0
 40 41  2  0
 33 34  2  0
 34 35  1  0
 28 29  1  0
 29 30  2  0
  6  7  1  0
  7  8  1  0
  7  9  2  0
 30 25  1  0
 35 31  1  0
 41 36  1  0
  2  5  1  0
 45 47  1  0
 45 48  1  0
 19 22  1  0
  8 10  1  0
  8 11  1  0
M  CHG 1  16   1
M  END
> <minimizedAffinity>
-9.05341

> <CNNscore>
0.6393356323

> <CNNaffinity>
7.9229750633

> <CNN_VS>
5.0654401779

> <CNNaffinity_variance>
0.6360211968

$$$$
