


 40 45  0  0  0  0  0  0  0  0999 V2000
   39.6137   32.9160   30.6491 C   0  0  0  0  0  0  0  0  0  0  0  0
   39.8018   32.1059   31.9059 C   0  0  0  0  0  0  0  0  0  0  0  0
   38.6778   31.4927   32.4852 C   0  0  0  0  0  0  0  0  0  0  0  0
   38.7929   30.7397   33.6544 C   0  0  0  0  0  0  0  0  0  0  0  0
   40.0380   30.5956   34.2693 C   0  0  0  0  0  0  0  0  0  0  0  0
   41.1693   31.1703   33.6768 C   0  0  0  0  0  0  0  0  0  0  0  0
   41.0753   31.9228   32.4907 C   0  0  0  0  0  0  0  0  0  0  0  0
   42.3074   32.4745   31.9008 C   0  0  0  0  0  0  0  0  0  0  0  0
   43.0106   31.7487   30.9204 C   0  0  0  0  0  0  0  0  0  0  0  0
   44.1914   32.2353   30.3355 C   0  0  0  0  0  0  0  0  0  0  0  0
   44.6837   33.4787   30.7631 C   0  0  0  0  0  0  0  0  0  0  0  0
   45.7899   34.3258   30.4766 C   0  0  0  0  0  0  0  0  0  0  0  0
   45.7550   35.4413   31.2235 N   0  0  0  0  0  0  0  0  0  0  0  0
   44.6196   35.3370   32.0091 O   0  0  0  0  0  0  0  0  0  0  0  0
   43.9816   34.1690   31.7341 C   0  0  0  0  0  0  0  0  0  0  0  0
   42.8037   33.7196   32.3274 C   0  0  0  0  0  0  0  0  0  0  0  0
   46.9138   34.1283   29.5015 C   0  0  0  0  0  0  0  0  0  0  0  0
   47.5199   32.7132   29.5845 C   0  0  0  0  0  0  0  0  0  0  0  0
   49.0440   32.7191   29.4726 C   0  0  0  0  0  0  0  0  0  0  0  0
   49.5030   33.5939   28.3999 N   0  0  0  0  0  0  0  0  0  0  0  0
   49.0978   34.9910   28.5874 C   0  0  0  0  0  0  0  0  0  0  0  0
   47.9972   35.2071   29.6275 C   0  0  0  0  0  0  0  0  0  0  0  0
   49.1150   33.2584   27.5183 H   0  0  0  0  0  0  0  0  0  0  0  0
   40.2168   29.8073   35.5240 C   0  0  0  0  0  0  0  0  0  0  0  0
   41.1480   30.1043   36.2636 O   0  0  0  0  0  0  0  0  0  0  0  0
   39.2655   28.8254   35.7427 N   0  0  0  0  0  0  0  0  0  0  0  0
   38.5446   28.7607   35.0754 H   0  0  0  0  0  0  0  0  0  0  0  0
   39.2106   27.9051   36.8141 C   0  0  0  0  0  0  0  0  0  0  0  0
   38.8143   26.6017   36.5139 C   0  0  0  0  0  0  0  0  0  0  0  0
   38.7525   25.6514   37.5277 C   0  0  0  0  0  0  0  0  0  0  0  0
   38.2228   23.8799   37.1141 Br  0  0  0  0  0  0  0  0  0  0  0  0
   39.0771   25.9858   38.8433 C   0  0  0  0  0  0  0  0  0  0  0  0
   39.4768   27.2852   39.1880 C   0  0  0  0  0  0  0  0  0  0  0  0
   39.5433   28.2238   38.1380 C   0  0  0  0  0  0  0  0  0  0  0  0
   39.7924   27.6314   40.4916 N   0  0  0  0  0  0  0  0  0  0  0  0
   40.7949   28.6578   40.8211 C   0  0  0  0  0  0  0  0  0  0  0  0
   40.4845   29.2700   42.1979 C   0  0  0  0  0  0  0  0  0  0  0  0
   40.4897   28.3191   43.2722 O   0  0  0  0  0  0  0  0  0  0  0  0
   40.1077   26.9980   42.8618 C   0  0  0  0  0  0  0  0  0  0  0  0
   39.1656   26.9598   41.6462 C   0  0  0  0  0  0  0  0  0  0  0  0
  1  2  1  0
  2  3  2  0
  3  4  1  0
  4  5  2  0
  5 24  1  0
 24 25  2  0
 24 26  1  0
 26 28  1  0
 28 29  2  0
 29 30  1  0
 30 31  1  0
 30 32  2  0
 32 33  1  0
 33 35  1  0
 35 36  1  0
 36 37  1  0
 37 38  1  0
 38 39  1  0
 39 40  1  0
 33 34  2  0
  5  6  1  0
  6  7  2  0
  7  8  1  0
  8  9  2  0
  9 10  1  0
 10 11  2  0
 11 12  1  0
 12 17  1  0
 17 18  1  0
 18 19  1  0
 19 20  1  0
 20 21  1  0
 21 22  1  0
 12 13  2  0
 13 14  1  0
 14 15  1  0
 15 16  2  0
  7  2  1  0
 16  8  1  0
 34 28  1  0
 15 11  1  0
 40 35  1  0
 22 17  1  0
 26 27  1  0
 20 23  1  0
M  END
> <minimizedAffinity>
-14.24449

> <CNNscore>
0.9830852747

> <CNNaffinity>
8.4780254364

> <CNN_VS>
8.3346223831

> <CNNaffinity_variance>
0.4009487927

$$$$



 40 45  0  0  0  0  0  0  0  0999 V2000
   39.4749   32.9409   30.7945 C   0  0  0  0  0  0  0  0  0  0  0  0
   39.6783   32.0754   32.0113 C   0  0  0  0  0  0  0  0  0  0  0  0
   38.5583   31.4532   32.5889 C   0  0  0  0  0  0  0  0  0  0  0  0
   38.6877   30.6494   33.7223 C   0  0  0  0  0  0  0  0  0  0  0  0
   39.9435   30.4624   34.3028 C   0  0  0  0  0  0  0  0  0  0  0  0
   41.0700   31.0466   33.7103 C   0  0  0  0  0  0  0  0  0  0  0  0
   40.9613   31.8503   32.5595 C   0  0  0  0  0  0  0  0  0  0  0  0
   42.1883   32.4100   31.9665 C   0  0  0  0  0  0  0  0  0  0  0  0
   42.8856   31.6954   30.9738 C   0  0  0  0  0  0  0  0  0  0  0  0
   44.0614   32.1899   30.3854 C   0  0  0  0  0  0  0  0  0  0  0  0
   44.5547   33.4297   30.8220 C   0  0  0  0  0  0  0  0  0  0  0  0
   45.6574   34.2816   30.5362 C   0  0  0  0  0  0  0  0  0  0  0  0
   45.6261   35.3893   31.2947 N   0  0  0  0  0  0  0  0  0  0  0  0
   44.4966   35.2752   32.0873 O   0  0  0  0  0  0  0  0  0  0  0  0
   43.8584   34.1089   31.8050 C   0  0  0  0  0  0  0  0  0  0  0  0
   42.6856   33.6515   32.4021 C   0  0  0  0  0  0  0  0  0  0  0  0
   46.7746   34.0958   29.5511 C   0  0  0  0  0  0  0  0  0  0  0  0
   47.4411   32.7112   29.6750 C   0  0  0  0  0  0  0  0  0  0  0  0
   48.9619   32.7766   29.5389 C   0  0  0  0  0  0  0  0  0  0  0  0
   49.3681   33.6303   28.4286 N   0  0  0  0  0  0  0  0  0  0  0  0
   48.9069   35.0152   28.5725 C   0  0  0  0  0  0  0  0  0  0  0  0
   47.8132   35.2227   29.6215 C   0  0  0  0  0  0  0  0  0  0  0  0
   48.9821   33.2471   27.5657 H   0  0  0  0  0  0  0  0  0  0  0  0
   40.1379   29.6189   35.5186 C   0  0  0  0  0  0  0  0  0  0  0  0
   41.0503   29.9112   36.2831 O   0  0  0  0  0  0  0  0  0  0  0  0
   39.2205   28.5941   35.6768 N   0  0  0  0  0  0  0  0  0  0  0  0
   38.5091   28.5375   34.9985 H   0  0  0  0  0  0  0  0  0  0  0  0
   39.1879   27.6198   36.7002 C   0  0  0  0  0  0  0  0  0  0  0  0
   39.3770   28.0647   38.0088 C   0  0  0  0  0  0  0  0  0  0  0  0
   39.3444   27.1509   39.0569 C   0  0  0  0  0  0  0  0  0  0  0  0
   39.5922   27.7606   40.8336 Br  0  0  0  0  0  0  0  0  0  0  0  0
   39.1297   25.7929   38.8164 C   0  0  0  0  0  0  0  0  0  0  0  0
   38.9386   25.3040   37.5158 C   0  0  0  0  0  0  0  0  0  0  0  0
   38.9633   26.2546   36.4749 C   0  0  0  0  0  0  0  0  0  0  0  0
   38.7340   23.9573   37.2638 N   0  0  0  0  0  0  0  0  0  0  0  0
   39.8416   23.0103   37.0550 C   0  0  0  0  0  0  0  0  0  0  0  0
   39.3947   21.5891   37.4384 C   0  0  0  0  0  0  0  0  0  0  0  0
   38.2796   21.1043   36.6768 O   0  0  0  0  0  0  0  0  0  0  0  0
   37.3963   22.1470   36.2382 C   0  0  0  0  0  0  0  0  0  0  0  0
   37.3782   23.3867   37.1490 C   0  0  0  0  0  0  0  0  0  0  0  0
  1  2  1  0
  2  3  2  0
  3  4  1  0
  4  5  2  0
  5 24  1  0
 24 25  2  0
 24 26  1  0
 26 28  1  0
 28 29  2  0
 29 30  1  0
 30 31  1  0
 30 32  2  0
 32 33  1  0
 33 35  1  0
 35 36  1  0
 36 37  1  0
 37 38  1  0
 38 39  1  0
 39 40  1  0
 33 34  2  0
  5  6  1  0
  6  7  2  0
  7  8  1  0
  8  9  2  0
  9 10  1  0
 10 11  2  0
 11 12  1  0
 12 17  1  0
 17 18  1  0
 18 19  1  0
 19 20  1  0
 20 21  1  0
 21 22  1  0
 12 13  2  0
 13 14  1  0
 14 15  1  0
 15 16  2  0
  7  2  1  0
 16  8  1  0
 34 28  1  0
 15 11  1  0
 40 35  1  0
 22 17  1  0
 26 27  1  0
 20 23  1  0
M  END
> <minimizedAffinity>
-14.20085

> <CNNscore>
0.9808412194

> <CNNaffinity>
8.4380683899

> <CNN_VS>
8.2764053345

> <CNNaffinity_variance>
0.1991933137

$$$$



 40 45  0  0  0  0  0  0  0  0999 V2000
   39.7017   32.6010   30.7195 C   0  0  0  0  0  0  0  0  0  0  0  0
   39.8085   31.8065   31.9956 C   0  0  0  0  0  0  0  0  0  0  0  0
   38.6323   31.5187   32.7090 C   0  0  0  0  0  0  0  0  0  0  0  0
   38.6742   30.7956   33.9018 C   0  0  0  0  0  0  0  0  0  0  0  0
   39.8995   30.3552   34.4057 C   0  0  0  0  0  0  0  0  0  0  0  0
   41.0716   30.6036   33.6805 C   0  0  0  0  0  0  0  0  0  0  0  0
   41.0482   31.3204   32.4691 C   0  0  0  0  0  0  0  0  0  0  0  0
   42.3117   31.5207   31.7386 C   0  0  0  0  0  0  0  0  0  0  0  0
   43.0234   30.4144   31.2366 C   0  0  0  0  0  0  0  0  0  0  0  0
   44.2338   30.5600   30.5387 C   0  0  0  0  0  0  0  0  0  0  0  0
   44.7470   31.8541   30.3574 C   0  0  0  0  0  0  0  0  0  0  0  0
   45.8839   32.4586   29.7528 C   0  0  0  0  0  0  0  0  0  0  0  0
   45.8576   33.7939   29.8930 N   0  0  0  0  0  0  0  0  0  0  0  0
   44.6971   34.0796   30.5922 O   0  0  0  0  0  0  0  0  0  0  0  0
   44.0357   32.9247   30.8677 C   0  0  0  0  0  0  0  0  0  0  0  0
   42.8290   32.8158   31.5558 C   0  0  0  0  0  0  0  0  0  0  0  0
   47.0302   31.8177   29.0260 C   0  0  0  0  0  0  0  0  0  0  0  0
   46.6968   30.3903   28.5484 C   0  0  0  0  0  0  0  0  0  0  0  0
   47.8625   29.4201   28.7369 C   0  0  0  0  0  0  0  0  0  0  0  0
   49.1265   30.0046   28.3040 N   0  0  0  0  0  0  0  0  0  0  0  0
   49.4783   31.2209   29.0443 C   0  0  0  0  0  0  0  0  0  0  0  0
   48.3301   31.8438   29.8402 C   0  0  0  0  0  0  0  0  0  0  0  0
   49.0551   30.2362   27.3132 H   0  0  0  0  0  0  0  0  0  0  0  0
   40.0026   29.5842   35.6794 C   0  0  0  0  0  0  0  0  0  0  0  0
   40.7864   29.9834   36.5330 O   0  0  0  0  0  0  0  0  0  0  0  0
   39.1533   28.4953   35.7786 N   0  0  0  0  0  0  0  0  0  0  0  0
   38.5396   28.3510   35.0224 H   0  0  0  0  0  0  0  0  0  0  0  0
   39.0662   27.5669   36.8409 C   0  0  0  0  0  0  0  0  0  0  0  0
   38.6330   26.2787   36.5263 C   0  0  0  0  0  0  0  0  0  0  0  0
   38.5384   25.3211   37.5307 C   0  0  0  0  0  0  0  0  0  0  0  0
   37.9586   23.5700   37.0978 Br  0  0  0  0  0  0  0  0  0  0  0  0
   38.8665   25.6333   38.8509 C   0  0  0  0  0  0  0  0  0  0  0  0
   39.3027   26.9171   39.2098 C   0  0  0  0  0  0  0  0  0  0  0  0
   39.4018   27.8631   38.1692 C   0  0  0  0  0  0  0  0  0  0  0  0
   39.6223   27.2414   40.5181 N   0  0  0  0  0  0  0  0  0  0  0  0
   40.4863   28.3813   40.8662 C   0  0  0  0  0  0  0  0  0  0  0  0
   40.1527   28.8775   42.2837 C   0  0  0  0  0  0  0  0  0  0  0  0
   40.3346   27.8865   43.3050 O   0  0  0  0  0  0  0  0  0  0  0  0
   40.1218   26.5460   42.8387 C   0  0  0  0  0  0  0  0  0  0  0  0
   39.1436   26.4342   41.6567 C   0  0  0  0  0  0  0  0  0  0  0  0
  1  2  1  0
  2  3  2  0
  3  4  1  0
  4  5  2  0
  5 24  1  0
 24 25  2  0
 24 26  1  0
 26 28  1  0
 28 29  2  0
 29 30  1  0
 30 31  1  0
 30 32  2  0
 32 33  1  0
 33 35  1  0
 35 36  1  0
 36 37  1  0
 37 38  1  0
 38 39  1  0
 39 40  1  0
 33 34  2  0
  5  6  1  0
  6  7  2  0
  7  8  1  0
  8  9  2  0
  9 10  1  0
 10 11  2  0
 11 12  1  0
 12 17  1  0
 17 18  1  0
 18 19  1  0
 19 20  1  0
 20 21  1  0
 21 22  1  0
 12 13  2  0
 13 14  1  0
 14 15  1  0
 15 16  2  0
  7  2  1  0
 16  8  1  0
 34 28  1  0
 15 11  1  0
 40 35  1  0
 22 17  1  0
 26 27  1  0
 20 23  1  0
M  END
> <minimizedAffinity>
-12.98605

> <CNNscore>
0.9450665116

> <CNNaffinity>
8.4501352310

> <CNN_VS>
7.9859399796

> <CNNaffinity_variance>
0.1394468397

$$$$



 40 45  0  0  0  0  0  0  0  0999 V2000
   39.8385   32.9729   30.6751 C   0  0  0  0  0  0  0  0  0  0  0  0
   39.9622   32.1208   31.9120 C   0  0  0  0  0  0  0  0  0  0  0  0
   38.8016   31.5307   32.4409 C   0  0  0  0  0  0  0  0  0  0  0  0
   38.8569   30.7408   33.5900 C   0  0  0  0  0  0  0  0  0  0  0  0
   40.0778   30.5358   34.2351 C   0  0  0  0  0  0  0  0  0  0  0  0
   41.2449   31.0876   33.6921 C   0  0  0  0  0  0  0  0  0  0  0  0
   41.2112   31.8767   32.5267 C   0  0  0  0  0  0  0  0  0  0  0  0
   42.4780   32.4019   31.9885 C   0  0  0  0  0  0  0  0  0  0  0  0
   42.9764   33.6421   32.4316 C   0  0  0  0  0  0  0  0  0  0  0  0
   44.1772   34.1817   31.9415 C   0  0  0  0  0  0  0  0  0  0  0  0
   44.8842   33.4589   30.9675 C   0  0  0  0  0  0  0  0  0  0  0  0
   46.0809   33.6055   30.2127 C   0  0  0  0  0  0  0  0  0  0  0  0
   46.2692   32.5602   29.3909 N   0  0  0  0  0  0  0  0  0  0  0  0
   45.1943   31.7133   29.6012 O   0  0  0  0  0  0  0  0  0  0  0  0
   44.3704   32.2481   30.5405 C   0  0  0  0  0  0  0  0  0  0  0  0
   43.1884   31.6807   31.0121 C   0  0  0  0  0  0  0  0  0  0  0  0
   47.0876   34.7188   30.2294 C   0  0  0  0  0  0  0  0  0  0  0  0
   47.1008   35.5168   28.9105 C   0  0  0  0  0  0  0  0  0  0  0  0
   48.5144   35.8811   28.4581 C   0  0  0  0  0  0  0  0  0  0  0  0
   49.3229   36.3811   29.5639 N   0  0  0  0  0  0  0  0  0  0  0  0
   49.4755   35.4057   30.6486 C   0  0  0  0  0  0  0  0  0  0  0  0
   48.4944   34.2330   30.6013 C   0  0  0  0  0  0  0  0  0  0  0  0
   48.8775   37.2182   29.9398 H   0  0  0  0  0  0  0  0  0  0  0  0
   40.1930   29.7059   35.4703 C   0  0  0  0  0  0  0  0  0  0  0  0
   41.0115   30.0442   36.3177 O   0  0  0  0  0  0  0  0  0  0  0  0
   39.3148   28.6384   35.5461 N   0  0  0  0  0  0  0  0  0  0  0  0
   38.6764   28.5456   34.8024 H   0  0  0  0  0  0  0  0  0  0  0  0
   39.2294   27.6664   36.5688 C   0  0  0  0  0  0  0  0  0  0  0  0
   39.4303   28.1016   37.8789 C   0  0  0  0  0  0  0  0  0  0  0  0
   39.3475   27.1900   38.9261 C   0  0  0  0  0  0  0  0  0  0  0  0
   39.6117   27.7868   40.7049 Br  0  0  0  0  0  0  0  0  0  0  0  0
   39.0708   25.8437   38.6834 C   0  0  0  0  0  0  0  0  0  0  0  0
   38.8658   25.3646   37.3812 C   0  0  0  0  0  0  0  0  0  0  0  0
   38.9424   26.3133   36.3411 C   0  0  0  0  0  0  0  0  0  0  0  0
   38.5998   24.0292   37.1270 N   0  0  0  0  0  0  0  0  0  0  0  0
   39.6623   23.0372   36.8942 C   0  0  0  0  0  0  0  0  0  0  0  0
   39.1622   21.6342   37.2793 C   0  0  0  0  0  0  0  0  0  0  0  0
   38.0143   21.2011   36.5357 O   0  0  0  0  0  0  0  0  0  0  0  0
   37.1684   22.2825   36.1177 C   0  0  0  0  0  0  0  0  0  0  0  0
   37.2191   23.5171   37.0341 C   0  0  0  0  0  0  0  0  0  0  0  0
  1  2  1  0
  2  3  2  0
  3  4  1  0
  4  5  2  0
  5 24  1  0
 24 25  2  0
 24 26  1  0
 26 28  1  0
 28 29  2  0
 29 30  1  0
 30 31  1  0
 30 32  2  0
 32 33  1  0
 33 35  1  0
 35 36  1  0
 36 37  1  0
 37 38  1  0
 38 39  1  0
 39 40  1  0
 33 34  2  0
  5  6  1  0
  6  7  2  0
  7  8  1  0
  8  9  2  0
  9 10  1  0
 10 11  2  0
 11 12  1  0
 12 17  1  0
 17 18  1  0
 18 19  1  0
 19 20  1  0
 20 21  1  0
 21 22  1  0
 12 13  2  0
 13 14  1  0
 14 15  1  0
 15 16  2  0
  7  2  1  0
 16  8  1  0
 34 28  1  0
 15 11  1  0
 40 35  1  0
 22 17  1  0
 26 27  1  0
 20 23  1  0
M  END
> <minimizedAffinity>
-13.55856

> <CNNscore>
0.9436054230

> <CNNaffinity>
8.1394758224

> <CNN_VS>
7.6804533005

> <CNNaffinity_variance>
0.2454763204

$$$$



 40 45  0  0  0  0  0  0  0  0999 V2000
   39.9856   32.3920   30.7042 C   0  0  0  0  0  0  0  0  0  0  0  0
   40.0312   31.6078   31.9903 C   0  0  0  0  0  0  0  0  0  0  0  0
   38.8589   31.5078   32.7589 C   0  0  0  0  0  0  0  0  0  0  0  0
   38.8471   30.8027   33.9631 C   0  0  0  0  0  0  0  0  0  0  0  0
   40.0152   30.1919   34.4229 C   0  0  0  0  0  0  0  0  0  0  0  0
   41.1772   30.2533   33.6436 C   0  0  0  0  0  0  0  0  0  0  0  0
   41.2054   30.9491   32.4201 C   0  0  0  0  0  0  0  0  0  0  0  0
   42.4503   30.9494   31.6325 C   0  0  0  0  0  0  0  0  0  0  0  0
   43.0254   29.7337   31.2151 C   0  0  0  0  0  0  0  0  0  0  0  0
   44.2134   29.6883   30.4670 C   0  0  0  0  0  0  0  0  0  0  0  0
   44.8457   30.9000   30.1461 C   0  0  0  0  0  0  0  0  0  0  0  0
   46.0107   31.3252   29.4493 C   0  0  0  0  0  0  0  0  0  0  0  0
   46.1244   32.6632   29.4622 N   0  0  0  0  0  0  0  0  0  0  0  0
   45.0294   33.1307   30.1688 O   0  0  0  0  0  0  0  0  0  0  0  0
   44.2678   32.0809   30.5750 C   0  0  0  0  0  0  0  0  0  0  0  0
   43.0867   32.1615   31.3099 C   0  0  0  0  0  0  0  0  0  0  0  0
   47.0549   30.5048   28.7496 C   0  0  0  0  0  0  0  0  0  0  0  0
   46.6190   29.0381   28.5614 C   0  0  0  0  0  0  0  0  0  0  0  0
   47.7566   28.0496   28.8154 C   0  0  0  0  0  0  0  0  0  0  0  0
   48.9962   28.4781   28.1780 N   0  0  0  0  0  0  0  0  0  0  0  0
   49.4669   29.7812   28.6592 C   0  0  0  0  0  0  0  0  0  0  0  0
   48.4268   30.5958   29.4301 C   0  0  0  0  0  0  0  0  0  0  0  0
   48.8399   28.5401   27.1720 H   0  0  0  0  0  0  0  0  0  0  0  0
   40.0605   29.4313   35.7064 C   0  0  0  0  0  0  0  0  0  0  0  0
   40.6147   29.9538   36.6667 O   0  0  0  0  0  0  0  0  0  0  0  0
   39.4226   28.2027   35.6852 N   0  0  0  0  0  0  0  0  0  0  0  0
   38.9711   27.9606   34.8445 H   0  0  0  0  0  0  0  0  0  0  0  0
   39.3452   27.2561   36.7320 C   0  0  0  0  0  0  0  0  0  0  0  0
   39.4167   27.7434   38.0372 C   0  0  0  0  0  0  0  0  0  0  0  0
   39.3352   26.8579   39.1068 C   0  0  0  0  0  0  0  0  0  0  0  0
   39.4231   27.5247   40.8781 Br  0  0  0  0  0  0  0  0  0  0  0  0
   39.1877   25.4868   38.8915 C   0  0  0  0  0  0  0  0  0  0  0  0
   39.1153   24.9557   37.5954 C   0  0  0  0  0  0  0  0  0  0  0  0
   39.1871   25.8779   36.5314 C   0  0  0  0  0  0  0  0  0  0  0  0
   38.9784   23.5960   37.3691 N   0  0  0  0  0  0  0  0  0  0  0  0
   37.8597   22.8083   37.9124 C   0  0  0  0  0  0  0  0  0  0  0  0
   37.6059   21.5778   37.0246 C   0  0  0  0  0  0  0  0  0  0  0  0
   38.7303   20.6928   36.9211 O   0  0  0  0  0  0  0  0  0  0  0  0
   39.9931   21.3637   37.0441 C   0  0  0  0  0  0  0  0  0  0  0  0
   39.9757   22.8343   36.5930 C   0  0  0  0  0  0  0  0  0  0  0  0
  1  2  1  0
  2  3  2  0
  3  4  1  0
  4  5  2  0
  5 24  1  0
 24 25  2  0
 24 26  1  0
 26 28  1  0
 28 29  2  0
 29 30  1  0
 30 31  1  0
 30 32  2  0
 32 33  1  0
 33 35  1  0
 35 36  1  0
 36 37  1  0
 37 38  1  0
 38 39  1  0
 39 40  1  0
 33 34  2  0
  5  6  1  0
  6  7  2  0
  7  8  1  0
  8  9  2  0
  9 10  1  0
 10 11  2  0
 11 12  1  0
 12 17  1  0
 17 18  1  0
 18 19  1  0
 19 20  1  0
 20 21  1  0
 21 22  1  0
 12 13  2  0
 13 14  1  0
 14 15  1  0
 15 16  2  0
  7  2  1  0
 16  8  1  0
 34 28  1  0
 15 11  1  0
 40 35  1  0
 22 17  1  0
 26 27  1  0
 20 23  1  0
M  END
> <minimizedAffinity>
-12.70544

> <CNNscore>
0.9427169561

> <CNNaffinity>
8.1306066513

> <CNN_VS>
7.6648607254

> <CNNaffinity_variance>
0.1335409433

$$$$



 40 45  0  0  0  0  0  0  0  0999 V2000
   40.4711   32.5593   32.1467 C   0  0  0  0  0  0  0  0  0  0  0  0
   40.2823   31.3930   33.0824 C   0  0  0  0  0  0  0  0  0  0  0  0
   39.1633   31.3873   33.9327 C   0  0  0  0  0  0  0  0  0  0  0  0
   38.9451   30.3377   34.8260 C   0  0  0  0  0  0  0  0  0  0  0  0
   39.8515   29.2777   34.8887 C   0  0  0  0  0  0  0  0  0  0  0  0
   40.9476   29.2564   34.0171 C   0  0  0  0  0  0  0  0  0  0  0  0
   41.1777   30.2997   33.1004 C   0  0  0  0  0  0  0  0  0  0  0  0
   42.3311   30.2021   32.1891 C   0  0  0  0  0  0  0  0  0  0  0  0
   42.8462   28.9418   31.8300 C   0  0  0  0  0  0  0  0  0  0  0  0
   43.9468   28.8035   30.9682 C   0  0  0  0  0  0  0  0  0  0  0  0
   44.5530   29.9674   30.4694 C   0  0  0  0  0  0  0  0  0  0  0  0
   45.6408   30.3028   29.6164 C   0  0  0  0  0  0  0  0  0  0  0  0
   45.7685   31.6337   29.4908 N   0  0  0  0  0  0  0  0  0  0  0  0
   44.7601   32.1865   30.2618 O   0  0  0  0  0  0  0  0  0  0  0  0
   44.0360   31.1942   30.8435 C   0  0  0  0  0  0  0  0  0  0  0  0
   42.9412   31.3662   31.6881 C   0  0  0  0  0  0  0  0  0  0  0  0
   46.5960   29.4004   28.8909 C   0  0  0  0  0  0  0  0  0  0  0  0
   46.6058   27.9712   29.4688 C   0  0  0  0  0  0  0  0  0  0  0  0
   48.0123   27.3786   29.5476 C   0  0  0  0  0  0  0  0  0  0  0  0
   48.7704   27.6238   28.3262 N   0  0  0  0  0  0  0  0  0  0  0  0
   48.9399   29.0512   28.0341 C   0  0  0  0  0  0  0  0  0  0  0  0
   48.0136   29.9822   28.8184 C   0  0  0  0  0  0  0  0  0  0  0  0
   48.2790   27.1884   27.5456 H   0  0  0  0  0  0  0  0  0  0  0  0
   39.6703   28.1334   35.8296 C   0  0  0  0  0  0  0  0  0  0  0  0
   39.6964   28.3668   37.0327 O   0  0  0  0  0  0  0  0  0  0  0  0
   39.4486   26.9063   35.2281 N   0  0  0  0  0  0  0  0  0  0  0  0
   39.3957   26.9062   34.2450 H   0  0  0  0  0  0  0  0  0  0  0  0
   39.2896   25.6537   35.8634 C   0  0  0  0  0  0  0  0  0  0  0  0
   38.1434   25.4741   36.6381 C   0  0  0  0  0  0  0  0  0  0  0  0
   37.9300   24.2575   37.2777 C   0  0  0  0  0  0  0  0  0  0  0  0
   36.3674   24.0142   38.3213 Br  0  0  0  0  0  0  0  0  0  0  0  0
   38.8503   23.2149   37.1588 C   0  0  0  0  0  0  0  0  0  0  0  0
   40.0166   23.3556   36.3926 C   0  0  0  0  0  0  0  0  0  0  0  0
   40.1999   24.5944   35.7450 C   0  0  0  0  0  0  0  0  0  0  0  0
   40.9418   22.3314   36.2747 N   0  0  0  0  0  0  0  0  0  0  0  0
   41.8774   22.2316   35.1425 C   0  0  0  0  0  0  0  0  0  0  0  0
   43.1348   21.4547   35.5692 C   0  0  0  0  0  0  0  0  0  0  0  0
   42.8694   20.1163   36.0128 O   0  0  0  0  0  0  0  0  0  0  0  0
   41.5738   19.9637   36.6110 C   0  0  0  0  0  0  0  0  0  0  0  0
   41.0242   21.2422   37.2667 C   0  0  0  0  0  0  0  0  0  0  0  0
  1  2  1  0
  2  3  2  0
  3  4  1  0
  4  5  2  0
  5 24  1  0
 24 25  2  0
 24 26  1  0
 26 28  1  0
 28 29  2  0
 29 30  1  0
 30 31  1  0
 30 32  2  0
 32 33  1  0
 33 35  1  0
 35 36  1  0
 36 37  1  0
 37 38  1  0
 38 39  1  0
 39 40  1  0
 33 34  2  0
  5  6  1  0
  6  7  2  0
  7  8  1  0
  8  9  2  0
  9 10  1  0
 10 11  2  0
 11 12  1  0
 12 17  1  0
 17 18  1  0
 18 19  1  0
 19 20  1  0
 20 21  1  0
 21 22  1  0
 12 13  2  0
 13 14  1  0
 14 15  1  0
 15 16  2  0
  7  2  1  0
 16  8  1  0
 34 28  1  0
 15 11  1  0
 40 35  1  0
 22 17  1  0
 26 27  1  0
 20 23  1  0
M  END
> <minimizedAffinity>
-10.12506

> <CNNscore>
0.5418131351

> <CNNaffinity>
7.6490960121

> <CNN_VS>
4.1443805695

> <CNNaffinity_variance>
0.0965625346

$$$$



 40 45  0  0  0  0  0  0  0  0999 V2000
   37.8471   31.1694   32.6739 C   0  0  0  0  0  0  0  0  0  0  0  0
   39.2598   31.5451   32.3074 C   0  0  0  0  0  0  0  0  0  0  0  0
   39.4778   32.2647   31.1201 C   0  0  0  0  0  0  0  0  0  0  0  0
   40.7662   32.6296   30.7273 C   0  0  0  0  0  0  0  0  0  0  0  0
   41.8614   32.2709   31.5152 C   0  0  0  0  0  0  0  0  0  0  0  0
   41.6493   31.5885   32.7197 C   0  0  0  0  0  0  0  0  0  0  0  0
   40.3561   31.2228   33.1390 C   0  0  0  0  0  0  0  0  0  0  0  0
   40.1975   30.5342   34.4317 C   0  0  0  0  0  0  0  0  0  0  0  0
   40.9877   30.9079   35.5356 C   0  0  0  0  0  0  0  0  0  0  0  0
   40.8723   30.2749   36.7843 C   0  0  0  0  0  0  0  0  0  0  0  0
   39.9473   29.2272   36.9174 C   0  0  0  0  0  0  0  0  0  0  0  0
   39.5105   28.3339   37.9346 C   0  0  0  0  0  0  0  0  0  0  0  0
   38.5618   27.5011   37.4765 N   0  0  0  0  0  0  0  0  0  0  0  0
   38.3649   27.8428   36.1493 O   0  0  0  0  0  0  0  0  0  0  0  0
   39.1892   28.8711   35.8170 C   0  0  0  0  0  0  0  0  0  0  0  0
   39.2723   29.4837   34.5683 C   0  0  0  0  0  0  0  0  0  0  0  0
   39.9584   28.2242   39.3629 C   0  0  0  0  0  0  0  0  0  0  0  0
   39.8308   26.7880   39.9086 C   0  0  0  0  0  0  0  0  0  0  0  0
   39.3083   26.7489   41.3443 C   0  0  0  0  0  0  0  0  0  0  0  0
   39.9682   27.7403   42.1858 N   0  0  0  0  0  0  0  0  0  0  0  0
   39.7722   29.1148   41.7128 C   0  0  0  0  0  0  0  0  0  0  0  0
   39.2536   29.2332   40.2787 C   0  0  0  0  0  0  0  0  0  0  0  0
   40.9684   27.5408   42.1999 H   0  0  0  0  0  0  0  0  0  0  0  0
   43.2607   32.6294   31.1393 C   0  0  0  0  0  0  0  0  0  0  0  0
   43.6793   33.7349   31.4632 O   0  0  0  0  0  0  0  0  0  0  0  0
   43.9663   31.6359   30.4820 N   0  0  0  0  0  0  0  0  0  0  0  0
   43.4976   30.7795   30.3553 H   0  0  0  0  0  0  0  0  0  0  0  0
   45.2825   31.7101   29.9722 C   0  0  0  0  0  0  0  0  0  0  0  0
   45.8183   32.9832   29.7762 C   0  0  0  0  0  0  0  0  0  0  0  0
   47.1134   33.1158   29.2864 C   0  0  0  0  0  0  0  0  0  0  0  0
   47.8408   34.8465   29.0306 Br  0  0  0  0  0  0  0  0  0  0  0  0
   47.8829   31.9915   28.9835 C   0  0  0  0  0  0  0  0  0  0  0  0
   47.3809   30.6942   29.1627 C   0  0  0  0  0  0  0  0  0  0  0  0
   46.0707   30.5902   29.6730 C   0  0  0  0  0  0  0  0  0  0  0  0
   48.1316   29.5710   28.8568 N   0  0  0  0  0  0  0  0  0  0  0  0
   47.5536   28.2181   28.8056 C   0  0  0  0  0  0  0  0  0  0  0  0
   48.3825   27.3298   27.8620 C   0  0  0  0  0  0  0  0  0  0  0  0
   49.7547   27.1847   28.2552 O   0  0  0  0  0  0  0  0  0  0  0  0
   50.2658   28.3249   28.9611 C   0  0  0  0  0  0  0  0  0  0  0  0
   49.5818   29.6541   28.5975 C   0  0  0  0  0  0  0  0  0  0  0  0
  1  2  1  0
  2  3  2  0
  3  4  1  0
  4  5  2  0
  5 24  1  0
 24 25  2  0
 24 26  1  0
 26 28  1  0
 28 29  2  0
 29 30  1  0
 30 31  1  0
 30 32  2  0
 32 33  1  0
 33 35  1  0
 35 36  1  0
 36 37  1  0
 37 38  1  0
 38 39  1  0
 39 40  1  0
 33 34  2  0
  5  6  1  0
  6  7  2  0
  7  8  1  0
  8  9  2  0
  9 10  1  0
 10 11  2  0
 11 12  1  0
 12 17  1  0
 17 18  1  0
 18 19  1  0
 19 20  1  0
 20 21  1  0
 21 22  1  0
 12 13  2  0
 13 14  1  0
 14 15  1  0
 15 16  2  0
  7  2  1  0
 16  8  1  0
 34 28  1  0
 15 11  1  0
 40 35  1  0
 22 17  1  0
 26 27  1  0
 20 23  1  0
M  END
> <minimizedAffinity>
-11.50315

> <CNNscore>
0.4543584883

> <CNNaffinity>
7.8131957054

> <CNN_VS>
3.5499918461

> <CNNaffinity_variance>
0.3198408782

$$$$



 40 45  0  0  0  0  0  0  0  0999 V2000
   37.8414   31.2911   32.7224 C   0  0  0  0  0  0  0  0  0  0  0  0
   39.2608   31.5451   32.2844 C   0  0  0  0  0  0  0  0  0  0  0  0
   39.4796   32.2279   31.0757 C   0  0  0  0  0  0  0  0  0  0  0  0
   40.7732   32.4809   30.6174 C   0  0  0  0  0  0  0  0  0  0  0  0
   41.8720   32.0450   31.3600 C   0  0  0  0  0  0  0  0  0  0  0  0
   41.6629   31.3990   32.5849 C   0  0  0  0  0  0  0  0  0  0  0  0
   40.3658   31.1460   33.0700 C   0  0  0  0  0  0  0  0  0  0  0  0
   40.2136   30.4906   34.3806 C   0  0  0  0  0  0  0  0  0  0  0  0
   40.8730   31.0073   35.5123 C   0  0  0  0  0  0  0  0  0  0  0  0
   40.7591   30.4112   36.7792 C   0  0  0  0  0  0  0  0  0  0  0  0
   39.9729   29.2547   36.9034 C   0  0  0  0  0  0  0  0  0  0  0  0
   39.5907   28.3493   37.9317 C   0  0  0  0  0  0  0  0  0  0  0  0
   38.7921   27.3805   37.4552 N   0  0  0  0  0  0  0  0  0  0  0  0
   38.6404   27.6435   36.1043 O   0  0  0  0  0  0  0  0  0  0  0  0
   39.3427   28.7599   35.7762 C   0  0  0  0  0  0  0  0  0  0  0  0
   39.4272   29.3315   34.5083 C   0  0  0  0  0  0  0  0  0  0  0  0
   39.9535   28.3535   39.3882 C   0  0  0  0  0  0  0  0  0  0  0  0
   39.9318   26.9393   40.0017 C   0  0  0  0  0  0  0  0  0  0  0  0
   39.3236   26.9160   41.4035 C   0  0  0  0  0  0  0  0  0  0  0  0
   39.8273   28.0079   42.2285 N   0  0  0  0  0  0  0  0  0  0  0  0
   39.5289   29.3315   41.6713 C   0  0  0  0  0  0  0  0  0  0  0  0
   39.0954   29.3285   40.2044 C   0  0  0  0  0  0  0  0  0  0  0  0
   40.8392   27.9114   42.3131 H   0  0  0  0  0  0  0  0  0  0  0  0
   43.2762   32.2829   30.9135 C   0  0  0  0  0  0  0  0  0  0  0  0
   43.7235   33.4208   30.9996 O   0  0  0  0  0  0  0  0  0  0  0  0
   43.9527   31.1575   30.4745 N   0  0  0  0  0  0  0  0  0  0  0  0
   43.4628   30.3053   30.5297 H   0  0  0  0  0  0  0  0  0  0  0  0
   45.2661   31.0916   29.9562 C   0  0  0  0  0  0  0  0  0  0  0  0
   45.7626   29.8269   29.6397 C   0  0  0  0  0  0  0  0  0  0  0  0
   47.0454   29.7036   29.1163 C   0  0  0  0  0  0  0  0  0  0  0  0
   47.7127   27.9850   28.6789 Br  0  0  0  0  0  0  0  0  0  0  0  0
   47.8450   30.8284   28.9079 C   0  0  0  0  0  0  0  0  0  0  0  0
   47.3852   32.1171   29.2159 C   0  0  0  0  0  0  0  0  0  0  0  0
   46.0767   32.2130   29.7322 C   0  0  0  0  0  0  0  0  0  0  0  0
   48.1728   33.2401   29.0223 N   0  0  0  0  0  0  0  0  0  0  0  0
   49.6347   33.1683   28.8651 C   0  0  0  0  0  0  0  0  0  0  0  0
   50.1345   34.3781   28.0569 C   0  0  0  0  0  0  0  0  0  0  0  0
   49.8399   35.6447   28.6630 O   0  0  0  0  0  0  0  0  0  0  0  0
   48.6422   35.6301   29.4536 C   0  0  0  0  0  0  0  0  0  0  0  0
   47.5958   34.5979   28.9993 C   0  0  0  0  0  0  0  0  0  0  0  0
  1  2  1  0
  2  3  2  0
  3  4  1  0
  4  5  2  0
  5 24  1  0
 24 25  2  0
 24 26  1  0
 26 28  1  0
 28 29  2  0
 29 30  1  0
 30 31  1  0
 30 32  2  0
 32 33  1  0
 33 35  1  0
 35 36  1  0
 36 37  1  0
 37 38  1  0
 38 39  1  0
 39 40  1  0
 33 34  2  0
  5  6  1  0
  6  7  2  0
  7  8  1  0
  8  9  2  0
  9 10  1  0
 10 11  2  0
 11 12  1  0
 12 17  1  0
 17 18  1  0
 18 19  1  0
 19 20  1  0
 20 21  1  0
 21 22  1  0
 12 13  2  0
 13 14  1  0
 14 15  1  0
 15 16  2  0
  7  2  1  0
 16  8  1  0
 34 28  1  0
 15 11  1  0
 40 35  1  0
 22 17  1  0
 26 27  1  0
 20 23  1  0
M  END
> <minimizedAffinity>
-11.37367

> <CNNscore>
0.4072994590

> <CNNaffinity>
7.8195605278

> <CNN_VS>
3.1849026680

> <CNNaffinity_variance>
0.2542811334

$$$$



 40 45  0  0  0  0  0  0  0  0999 V2000
   49.0705   31.6771   29.9398 C   0  0  0  0  0  0  0  0  0  0  0  0
   49.2523   33.0194   29.2794 C   0  0  0  0  0  0  0  0  0  0  0  0
   50.4639   33.2852   28.6187 C   0  0  0  0  0  0  0  0  0  0  0  0
   50.6897   34.5150   27.9990 C   0  0  0  0  0  0  0  0  0  0  0  0
   49.7061   35.5049   28.0387 C   0  0  0  0  0  0  0  0  0  0  0  0
   48.4809   35.2338   28.6607 C   0  0  0  0  0  0  0  0  0  0  0  0
   48.2297   33.9949   29.2803 C   0  0  0  0  0  0  0  0  0  0  0  0
   46.9090   33.7611   29.8895 C   0  0  0  0  0  0  0  0  0  0  0  0
   46.1977   32.5789   29.6081 C   0  0  0  0  0  0  0  0  0  0  0  0
   44.9342   32.3181   30.1636 C   0  0  0  0  0  0  0  0  0  0  0  0
   44.3670   33.2825   31.0117 C   0  0  0  0  0  0  0  0  0  0  0  0
   43.1689   33.4497   31.7599 C   0  0  0  0  0  0  0  0  0  0  0  0
   43.1624   34.6232   32.4127 N   0  0  0  0  0  0  0  0  0  0  0  0
   44.3623   35.2389   32.0992 O   0  0  0  0  0  0  0  0  0  0  0  0
   45.0796   34.4401   31.2659 C   0  0  0  0  0  0  0  0  0  0  0  0
   46.3376   34.7255   30.7391 C   0  0  0  0  0  0  0  0  0  0  0  0
   41.9925   32.5271   31.8936 C   0  0  0  0  0  0  0  0  0  0  0  0
   40.9690   32.7137   30.7559 C   0  0  0  0  0  0  0  0  0  0  0  0
   39.5239   32.6541   31.2496 C   0  0  0  0  0  0  0  0  0  0  0  0
   39.3158   31.5484   32.1774 N   0  0  0  0  0  0  0  0  0  0  0  0
   40.1575   31.6396   33.3751 C   0  0  0  0  0  0  0  0  0  0  0  0
   41.3211   32.6268   33.2693 C   0  0  0  0  0  0  0  0  0  0  0  0
   39.5295   30.6751   31.6956 H   0  0  0  0  0  0  0  0  0  0  0  0
   49.8974   36.8396   27.3987 C   0  0  0  0  0  0  0  0  0  0  0  0
   50.6621   36.9167   26.4439 O   0  0  0  0  0  0  0  0  0  0  0  0
   49.1429   37.8659   27.9412 N   0  0  0  0  0  0  0  0  0  0  0  0
   48.5286   37.6173   28.6692 H   0  0  0  0  0  0  0  0  0  0  0  0
   49.1535   39.2297   27.5698 C   0  0  0  0  0  0  0  0  0  0  0  0
   49.9336   40.0929   28.3395 C   0  0  0  0  0  0  0  0  0  0  0  0
   49.9896   41.4438   28.0131 C   0  0  0  0  0  0  0  0  0  0  0  0
   51.0578   42.6113   29.0553 Br  0  0  0  0  0  0  0  0  0  0  0  0
   49.2715   41.9487   26.9281 C   0  0  0  0  0  0  0  0  0  0  0  0
   48.4728   41.1157   26.1311 C   0  0  0  0  0  0  0  0  0  0  0  0
   48.4457   39.7492   26.4771 C   0  0  0  0  0  0  0  0  0  0  0  0
   47.7481   41.6068   25.0575 N   0  0  0  0  0  0  0  0  0  0  0  0
   46.5106   42.3865   25.2236 C   0  0  0  0  0  0  0  0  0  0  0  0
   46.3018   43.3033   24.0060 C   0  0  0  0  0  0  0  0  0  0  0  0
   46.1901   42.6000   22.7604 O   0  0  0  0  0  0  0  0  0  0  0  0
   46.9248   41.3674   22.7373 C   0  0  0  0  0  0  0  0  0  0  0  0
   48.1532   41.3447   23.6631 C   0  0  0  0  0  0  0  0  0  0  0  0
  1  2  1  0
  2  3  2  0
  3  4  1  0
  4  5  2  0
  5 24  1  0
 24 25  2  0
 24 26  1  0
 26 28  1  0
 28 29  2  0
 29 30  1  0
 30 31  1  0
 30 32  2  0
 32 33  1  0
 33 35  1  0
 35 36  1  0
 36 37  1  0
 37 38  1  0
 38 39  1  0
 39 40  1  0
 33 34  2  0
  5  6  1  0
  6  7  2  0
  7  8  1  0
  8  9  2  0
  9 10  1  0
 10 11  2  0
 11 12  1  0
 12 17  1  0
 17 18  1  0
 18 19  1  0
 19 20  1  0
 20 21  1  0
 21 22  1  0
 12 13  2  0
 13 14  1  0
 14 15  1  0
 15 16  2  0
  7  2  1  0
 16  8  1  0
 34 28  1  0
 15 11  1  0
 40 35  1  0
 22 17  1  0
 26 27  1  0
 20 23  1  0
M  END
> <minimizedAffinity>
-10.22164

> <CNNscore>
0.3331111670

> <CNNaffinity>
7.1269536018

> <CNN_VS>
2.3740677834

> <CNNaffinity_variance>
0.0754917413

$$$$
