


 38 42  0  0  0  0  0  0  0  0999 V2000
  -44.3742  -48.0083   -8.6046 C   0  0  0  0  0  0  0  0  0  0  0  0
  -45.0571  -48.6830   -7.8288 O   0  0  0  0  0  0  0  0  0  0  0  0
  -43.7505  -48.5948   -9.6900 N   0  0  0  0  0  0  0  0  0  0  0  0
  -42.9795  -47.8914  -10.7485 C   0  0  0  0  0  0  0  0  0  0  0  0
  -42.5778  -49.0469  -11.5379 C   0  0  0  0  0  0  0  0  0  0  0  0
  -41.8369  -49.2769  -12.6351 N   0  0  0  0  0  0  0  0  0  0  0  0
  -41.7917  -50.5985  -12.9305 N   0  0  0  0  0  0  0  0  0  0  0  0
  -42.5450  -51.1931  -11.9846 C   0  0  0  0  0  0  0  0  0  0  0  0
  -43.0560  -50.2435  -11.0990 C   0  0  0  0  0  0  0  0  0  0  0  0
  -43.8869  -50.0724   -9.9018 C   0  0  0  0  0  0  0  0  0  0  0  0
  -41.3849  -48.5752  -13.1572 H   0  0  0  0  0  0  0  0  0  0  0  0
  -42.6732  -52.5579  -12.0274 N   0  0  0  0  0  0  0  0  0  0  0  0
  -42.9069  -53.3099  -13.1532 C   0  0  0  0  0  0  0  0  0  0  0  0
  -42.9684  -52.8840  -14.3016 O   0  0  0  0  0  0  0  0  0  0  0  0
  -42.5903  -53.0425  -11.1744 H   0  0  0  0  0  0  0  0  0  0  0  0
  -43.0692  -54.7747  -12.9216 C   0  0  0  0  0  0  0  0  0  0  0  0
  -42.7352  -55.7278  -13.8851 C   0  0  0  0  0  0  0  0  0  0  0  0
  -42.9001  -57.0941  -13.6106 C   0  0  0  0  0  0  0  0  0  0  0  0
  -43.3818  -57.5576  -12.3754 C   0  0  0  0  0  0  0  0  0  0  0  0
  -43.6971  -56.5761  -11.4220 C   0  0  0  0  0  0  0  0  0  0  0  0
  -43.5412  -55.2075  -11.6819 C   0  0  0  0  0  0  0  0  0  0  0  0
  -43.5399  -58.9065  -12.1102 N   0  0  0  0  0  0  0  0  0  0  0  0
  -44.4067  -59.3770  -11.0146 C   0  0  0  0  0  0  0  0  0  0  0  0
  -43.8886  -60.7073  -10.4155 C   0  0  0  0  0  0  0  0  0  0  0  0
  -43.6793  -61.8125  -11.3741 N   0  0  0  0  0  0  0  0  0  0  0  0
  -44.7786  -62.7735  -11.3509 C   0  0  0  0  0  0  0  0  0  0  0  0
  -43.4584  -61.3038  -12.7443 C   0  0  0  0  0  0  0  0  0  0  0  0
  -42.7403  -59.9357  -12.7957 C   0  0  0  0  0  0  0  0  0  0  0  0
  -44.1399  -46.4816   -8.3688 C   0  0  0  0  0  0  0  0  0  0  0  0
  -42.7490  -46.0413   -8.8062 C   0  0  0  0  0  0  0  0  0  0  0  0
  -41.6473  -46.2360   -7.9537 C   0  0  0  0  0  0  0  0  0  0  0  0
  -40.3713  -45.8250   -8.3420 C   0  0  0  0  0  0  0  0  0  0  0  0
  -40.1942  -45.2079   -9.5744 C   0  0  0  0  0  0  0  0  0  0  0  0
  -38.9682  -44.8151   -9.9437 F   0  0  0  0  0  0  0  0  0  0  0  0
  -41.2707  -44.9837  -10.4229 C   0  0  0  0  0  0  0  0  0  0  0  0
  -42.5483  -45.3921  -10.0371 C   0  0  0  0  0  0  0  0  0  0  0  0
  -45.7084  -44.7094   -8.1740 C   0  0  0  0  0  0  0  0  0  0  0  0
  -45.0408  -45.6079   -9.0486 O   0  0  0  0  0  0  0  0  0  0  0  0
 37 38  1  0
 29 38  1  0
 29  1  1  0
  1  2  2  0
  1  3  1  0
  3  4  1  0
  4  5  1  0
  5  6  1  0
  6  7  1  0
  7  8  2  0
  8 12  1  0
 12 13  1  0
 13 14  2  0
 13 16  1  0
 16 17  2  0
 17 18  1  0
 18 19  2  0
 19 22  1  0
 22 23  1  0
 23 24  1  0
 24 25  1  0
 25 26  1  0
 25 27  1  0
 27 28  1  0
 19 20  1  0
 20 21  2  0
  8  9  1  0
  9 10  1  0
 29 30  1  0
 30 31  2  0
 31 32  1  0
 32 33  2  0
 33 34  1  0
 33 35  1  0
 35 36  2  0
 10  3  1  0
 36 30  1  0
  9  5  2  0
 21 16  1  0
 28 22  1  0
  6 11  1  0
 12 15  1  0
M  END
> <minimizedAffinity>
-6.90132

> <CNNscore>
0.4501909912

> <CNNaffinity>
6.7195053101

> <CNN_VS>
3.0250606537

> <CNNaffinity_variance>
0.1402779371

$$$$



 38 42  0  0  0  0  0  0  0  0999 V2000
  -44.5328  -47.6558   -9.7353 C   0  0  0  0  0  0  0  0  0  0  0  0
  -45.7436  -47.6912   -9.9722 O   0  0  0  0  0  0  0  0  0  0  0  0
  -43.6722  -48.5690  -10.3152 N   0  0  0  0  0  0  0  0  0  0  0  0
  -42.1910  -48.5848  -10.1912 C   0  0  0  0  0  0  0  0  0  0  0  0
  -41.9129  -49.7752  -10.9820 C   0  0  0  0  0  0  0  0  0  0  0  0
  -40.8306  -50.4903  -11.3326 N   0  0  0  0  0  0  0  0  0  0  0  0
  -41.1703  -51.5511  -12.1042 N   0  0  0  0  0  0  0  0  0  0  0  0
  -42.5085  -51.4699  -12.2389 C   0  0  0  0  0  0  0  0  0  0  0  0
  -43.0024  -50.3620  -11.5493 C   0  0  0  0  0  0  0  0  0  0  0  0
  -44.2292  -49.6286  -11.2174 C   0  0  0  0  0  0  0  0  0  0  0  0
  -39.9093  -50.2716  -11.0634 H   0  0  0  0  0  0  0  0  0  0  0  0
  -43.1414  -52.4381  -12.9759 N   0  0  0  0  0  0  0  0  0  0  0  0
  -43.9473  -53.4324  -12.4763 C   0  0  0  0  0  0  0  0  0  0  0  0
  -44.2799  -53.5661  -11.3036 O   0  0  0  0  0  0  0  0  0  0  0  0
  -43.0060  -52.4189  -13.9509 H   0  0  0  0  0  0  0  0  0  0  0  0
  -44.4664  -54.4019  -13.4845 C   0  0  0  0  0  0  0  0  0  0  0  0
  -45.7700  -54.8992  -13.4447 C   0  0  0  0  0  0  0  0  0  0  0  0
  -46.2088  -55.8031  -14.4243 C   0  0  0  0  0  0  0  0  0  0  0  0
  -45.3815  -56.2275  -15.4769 C   0  0  0  0  0  0  0  0  0  0  0  0
  -44.0801  -55.7005  -15.4976 C   0  0  0  0  0  0  0  0  0  0  0  0
  -43.6256  -54.7994  -14.5247 C   0  0  0  0  0  0  0  0  0  0  0  0
  -45.8211  -57.1174  -16.4411 N   0  0  0  0  0  0  0  0  0  0  0  0
  -44.9004  -58.0772  -17.0769 C   0  0  0  0  0  0  0  0  0  0  0  0
  -45.3287  -58.3933  -18.5307 C   0  0  0  0  0  0  0  0  0  0  0  0
  -46.7176  -58.8657  -18.7095 N   0  0  0  0  0  0  0  0  0  0  0  0
  -46.7867  -60.3154  -18.8712 C   0  0  0  0  0  0  0  0  0  0  0  0
  -47.5860  -58.4215  -17.5990 C   0  0  0  0  0  0  0  0  0  0  0  0
  -47.1831  -57.0554  -16.9976 C   0  0  0  0  0  0  0  0  0  0  0  0
  -43.9271  -46.6196   -8.7349 C   0  0  0  0  0  0  0  0  0  0  0  0
  -42.5962  -46.0627   -9.2230 C   0  0  0  0  0  0  0  0  0  0  0  0
  -41.4923  -46.0096   -8.3528 C   0  0  0  0  0  0  0  0  0  0  0  0
  -40.2725  -45.4902   -8.7887 C   0  0  0  0  0  0  0  0  0  0  0  0
  -40.1552  -45.0111  -10.0877 C   0  0  0  0  0  0  0  0  0  0  0  0
  -38.9829  -44.5136  -10.5025 F   0  0  0  0  0  0  0  0  0  0  0  0
  -41.2378  -45.0315  -10.9576 C   0  0  0  0  0  0  0  0  0  0  0  0
  -42.4595  -45.5488  -10.5246 C   0  0  0  0  0  0  0  0  0  0  0  0
  -44.7501  -45.1131   -7.0942 C   0  0  0  0  0  0  0  0  0  0  0  0
  -44.7370  -45.4752   -8.4677 O   0  0  0  0  0  0  0  0  0  0  0  0
 37 38  1  0
 29 38  1  0
 29  1  1  0
  1  2  2  0
  1  3  1  0
  3  4  1  0
  4  5  1  0
  5  6  1  0
  6  7  1  0
  7  8  2  0
  8 12  1  0
 12 13  1  0
 13 14  2  0
 13 16  1  0
 16 17  2  0
 17 18  1  0
 18 19  2  0
 19 22  1  0
 22 23  1  0
 23 24  1  0
 24 25  1  0
 25 26  1  0
 25 27  1  0
 27 28  1  0
 19 20  1  0
 20 21  2  0
  8  9  1  0
  9 10  1  0
 29 30  1  0
 30 31  2  0
 31 32  1  0
 32 33  2  0
 33 34  1  0
 33 35  1  0
 35 36  2  0
 10  3  1  0
 36 30  1  0
  9  5  2  0
 21 16  1  0
 28 22  1  0
  6 11  1  0
 12 15  1  0
M  END
> <minimizedAffinity>
-7.28582

> <CNNscore>
0.3412381709

> <CNNaffinity>
6.6931967735

> <CNN_VS>
2.2839741707

> <CNNaffinity_variance>
0.5338411927

$$$$



 38 42  0  0  0  0  0  0  0  0999 V2000
  -44.1667  -47.5463   -7.8612 C   0  0  0  0  0  0  0  0  0  0  0  0
  -45.1110  -48.2692   -7.5310 O   0  0  0  0  0  0  0  0  0  0  0  0
  -43.4311  -47.8201   -8.9991 N   0  0  0  0  0  0  0  0  0  0  0  0
  -42.3348  -46.9878   -9.5605 C   0  0  0  0  0  0  0  0  0  0  0  0
  -41.9771  -47.8255  -10.6963 C   0  0  0  0  0  0  0  0  0  0  0  0
  -41.0643  -47.8055  -11.6821 N   0  0  0  0  0  0  0  0  0  0  0  0
  -41.1866  -48.8875  -12.4884 N   0  0  0  0  0  0  0  0  0  0  0  0
  -42.2220  -49.5849  -11.9813 C   0  0  0  0  0  0  0  0  0  0  0  0
  -42.7419  -48.9400  -10.8584 C   0  0  0  0  0  0  0  0  0  0  0  0
  -43.7735  -49.0276   -9.8186 C   0  0  0  0  0  0  0  0  0  0  0  0
  -40.3928  -47.0958  -11.8030 H   0  0  0  0  0  0  0  0  0  0  0  0
  -42.5741  -50.7569  -12.6007 N   0  0  0  0  0  0  0  0  0  0  0  0
  -42.9826  -51.9085  -11.9726 C   0  0  0  0  0  0  0  0  0  0  0  0
  -43.1610  -52.0447  -10.7671 O   0  0  0  0  0  0  0  0  0  0  0  0
  -42.5302  -50.7745  -13.5841 H   0  0  0  0  0  0  0  0  0  0  0  0
  -43.2483  -53.0682  -12.8729 C   0  0  0  0  0  0  0  0  0  0  0  0
  -42.3199  -53.5141  -13.8150 C   0  0  0  0  0  0  0  0  0  0  0  0
  -42.6187  -54.6162  -14.6307 C   0  0  0  0  0  0  0  0  0  0  0  0
  -43.8314  -55.3174  -14.5285 C   0  0  0  0  0  0  0  0  0  0  0  0
  -44.7396  -54.8534  -13.5634 C   0  0  0  0  0  0  0  0  0  0  0  0
  -44.4575  -53.7521  -12.7433 C   0  0  0  0  0  0  0  0  0  0  0  0
  -44.1189  -56.4049  -15.3344 N   0  0  0  0  0  0  0  0  0  0  0  0
  -44.4091  -56.2409  -16.7704 C   0  0  0  0  0  0  0  0  0  0  0  0
  -45.3890  -57.3274  -17.2767 C   0  0  0  0  0  0  0  0  0  0  0  0
  -44.9929  -58.7280  -17.0212 N   0  0  0  0  0  0  0  0  0  0  0  0
  -44.4181  -59.3597  -18.2056 C   0  0  0  0  0  0  0  0  0  0  0  0
  -44.0655  -58.8260  -15.8743 C   0  0  0  0  0  0  0  0  0  0  0  0
  -44.3051  -57.7576  -14.7829 C   0  0  0  0  0  0  0  0  0  0  0  0
  -43.7271  -46.3281   -6.9869 C   0  0  0  0  0  0  0  0  0  0  0  0
  -44.8584  -45.8195   -6.1030 C   0  0  0  0  0  0  0  0  0  0  0  0
  -45.3365  -46.6121   -5.0439 C   0  0  0  0  0  0  0  0  0  0  0  0
  -46.3806  -46.1584   -4.2364 C   0  0  0  0  0  0  0  0  0  0  0  0
  -46.9578  -44.9205   -4.4917 C   0  0  0  0  0  0  0  0  0  0  0  0
  -47.9593  -44.4884   -3.7145 F   0  0  0  0  0  0  0  0  0  0  0  0
  -46.5184  -44.1306   -5.5463 C   0  0  0  0  0  0  0  0  0  0  0  0
  -45.4756  -44.5819   -6.3567 C   0  0  0  0  0  0  0  0  0  0  0  0
  -42.3323  -47.9493   -5.9549 C   0  0  0  0  0  0  0  0  0  0  0  0
  -42.6365  -46.5691   -6.0983 O   0  0  0  0  0  0  0  0  0  0  0  0
 37 38  1  0
 29 38  1  0
 29  1  1  0
  1  2  2  0
  1  3  1  0
  3  4  1  0
  4  5  1  0
  5  6  1  0
  6  7  1  0
  7  8  2  0
  8 12  1  0
 12 13  1  0
 13 14  2  0
 13 16  1  0
 16 17  2  0
 17 18  1  0
 18 19  2  0
 19 22  1  0
 22 23  1  0
 23 24  1  0
 24 25  1  0
 25 26  1  0
 25 27  1  0
 27 28  1  0
 19 20  1  0
 20 21  2  0
  8  9  1  0
  9 10  1  0
 29 30  1  0
 30 31  2  0
 31 32  1  0
 32 33  2  0
 33 34  1  0
 33 35  1  0
 35 36  2  0
 10  3  1  0
 36 30  1  0
  9  5  2  0
 21 16  1  0
 28 22  1  0
  6 11  1  0
 12 15  1  0
M  END
> <minimizedAffinity>
-7.52406

> <CNNscore>
0.3117505610

> <CNNaffinity>
6.7560086250

> <CNN_VS>
2.1061894894

> <CNNaffinity_variance>
0.1403307170

$$$$



 38 42  0  0  0  0  0  0  0  0999 V2000
  -41.5459  -48.3882  -11.6115 C   0  0  0  0  0  0  0  0  0  0  0  0
  -40.4121  -48.7239  -11.9653 O   0  0  0  0  0  0  0  0  0  0  0  0
  -42.5722  -49.3128  -11.5573 N   0  0  0  0  0  0  0  0  0  0  0  0
  -43.9532  -49.0676  -11.0650 C   0  0  0  0  0  0  0  0  0  0  0  0
  -44.5135  -50.3902  -11.3028 C   0  0  0  0  0  0  0  0  0  0  0  0
  -45.7078  -50.9900  -11.1637 N   0  0  0  0  0  0  0  0  0  0  0  0
  -45.6588  -52.2835  -11.5644 N   0  0  0  0  0  0  0  0  0  0  0  0
  -44.3826  -52.4811  -11.9490 C   0  0  0  0  0  0  0  0  0  0  0  0
  -43.6384  -51.3114  -11.7914 C   0  0  0  0  0  0  0  0  0  0  0  0
  -42.3020  -50.7303  -11.9629 C   0  0  0  0  0  0  0  0  0  0  0  0
  -46.5149  -50.5466  -10.8154 H   0  0  0  0  0  0  0  0  0  0  0  0
  -44.0371  -53.7217  -12.4209 N   0  0  0  0  0  0  0  0  0  0  0  0
  -43.9988  -54.8813  -11.6849 C   0  0  0  0  0  0  0  0  0  0  0  0
  -44.3333  -54.9983  -10.5110 O   0  0  0  0  0  0  0  0  0  0  0  0
  -43.7946  -53.7873  -13.3728 H   0  0  0  0  0  0  0  0  0  0  0  0
  -43.5275  -56.0905  -12.4208 C   0  0  0  0  0  0  0  0  0  0  0  0
  -43.3839  -56.1148  -13.8090 C   0  0  0  0  0  0  0  0  0  0  0  0
  -42.9280  -57.2774  -14.4492 C   0  0  0  0  0  0  0  0  0  0  0  0
  -42.5861  -58.4395  -13.7385 C   0  0  0  0  0  0  0  0  0  0  0  0
  -42.7287  -58.3804  -12.3428 C   0  0  0  0  0  0  0  0  0  0  0  0
  -43.1860  -57.2280  -11.6886 C   0  0  0  0  0  0  0  0  0  0  0  0
  -42.1349  -59.5819  -14.3757 N   0  0  0  0  0  0  0  0  0  0  0  0
  -42.5012  -60.9257  -13.8929 C   0  0  0  0  0  0  0  0  0  0  0  0
  -41.3854  -61.9569  -14.1908 C   0  0  0  0  0  0  0  0  0  0  0  0
  -40.9498  -62.0523  -15.5998 N   0  0  0  0  0  0  0  0  0  0  0  0
  -41.5440  -63.1994  -16.2806 C   0  0  0  0  0  0  0  0  0  0  0  0
  -41.2316  -60.8029  -16.3376 C   0  0  0  0  0  0  0  0  0  0  0  0
  -41.1466  -59.5289  -15.4661 C   0  0  0  0  0  0  0  0  0  0  0  0
  -41.8857  -46.9035  -11.2625 C   0  0  0  0  0  0  0  0  0  0  0  0
  -42.5068  -46.7681   -9.8784 C   0  0  0  0  0  0  0  0  0  0  0  0
  -43.6549  -45.9764   -9.6952 C   0  0  0  0  0  0  0  0  0  0  0  0
  -44.2236  -45.8378   -8.4283 C   0  0  0  0  0  0  0  0  0  0  0  0
  -43.6413  -46.4773   -7.3407 C   0  0  0  0  0  0  0  0  0  0  0  0
  -44.1901  -46.3422   -6.1264 F   0  0  0  0  0  0  0  0  0  0  0  0
  -42.4940  -47.2452   -7.4931 C   0  0  0  0  0  0  0  0  0  0  0  0
  -41.9218  -47.3846   -8.7584 C   0  0  0  0  0  0  0  0  0  0  0  0
  -41.0411  -44.8072  -11.9912 C   0  0  0  0  0  0  0  0  0  0  0  0
  -40.7799  -46.0010  -11.2671 O   0  0  0  0  0  0  0  0  0  0  0  0
 37 38  1  0
 29 38  1  0
 29  1  1  0
  1  2  2  0
  1  3  1  0
  3  4  1  0
  4  5  1  0
  5  6  1  0
  6  7  1  0
  7  8  2  0
  8 12  1  0
 12 13  1  0
 13 14  2  0
 13 16  1  0
 16 17  2  0
 17 18  1  0
 18 19  2  0
 19 22  1  0
 22 23  1  0
 23 24  1  0
 24 25  1  0
 25 26  1  0
 25 27  1  0
 27 28  1  0
 19 20  1  0
 20 21  2  0
  8  9  1  0
  9 10  1  0
 29 30  1  0
 30 31  2  0
 31 32  1  0
 32 33  2  0
 33 34  1  0
 33 35  1  0
 35 36  2  0
 10  3  1  0
 36 30  1  0
  9  5  2  0
 21 16  1  0
 28 22  1  0
  6 11  1  0
 12 15  1  0
M  END
> <minimizedAffinity>
-7.67314

> <CNNscore>
0.2592452466

> <CNNaffinity>
6.5842337608

> <CNN_VS>
1.7069313526

> <CNNaffinity_variance>
0.1795405746

$$$$



 38 42  0  0  0  0  0  0  0  0999 V2000
  -44.5228  -55.7027  -14.4870 C   0  0  0  0  0  0  0  0  0  0  0  0
  -45.5395  -56.1627  -13.9596 O   0  0  0  0  0  0  0  0  0  0  0  0
  -43.8257  -54.6668  -13.8938 N   0  0  0  0  0  0  0  0  0  0  0  0
  -42.5440  -54.0824  -14.3685 C   0  0  0  0  0  0  0  0  0  0  0  0
  -42.3801  -53.0498  -13.3553 C   0  0  0  0  0  0  0  0  0  0  0  0
  -41.5028  -52.0680  -13.0869 N   0  0  0  0  0  0  0  0  0  0  0  0
  -41.8610  -51.3773  -11.9776 N   0  0  0  0  0  0  0  0  0  0  0  0
  -42.9918  -51.9705  -11.5476 C   0  0  0  0  0  0  0  0  0  0  0  0
  -43.3397  -53.0272  -12.3899 C   0  0  0  0  0  0  0  0  0  0  0  0
  -44.3349  -54.0825  -12.6107 C   0  0  0  0  0  0  0  0  0  0  0  0
  -40.7025  -51.8753  -13.6270 H   0  0  0  0  0  0  0  0  0  0  0  0
  -43.5972  -51.4656  -10.4252 N   0  0  0  0  0  0  0  0  0  0  0  0
  -43.3261  -50.2520   -9.8410 C   0  0  0  0  0  0  0  0  0  0  0  0
  -42.5512  -49.4047  -10.2714 O   0  0  0  0  0  0  0  0  0  0  0  0
  -44.2884  -52.0230   -9.9999 H   0  0  0  0  0  0  0  0  0  0  0  0
  -44.0803  -49.9635   -8.5865 C   0  0  0  0  0  0  0  0  0  0  0  0
  -44.7026  -50.9645   -7.8387 C   0  0  0  0  0  0  0  0  0  0  0  0
  -45.3919  -50.6377   -6.6609 C   0  0  0  0  0  0  0  0  0  0  0  0
  -45.4721  -49.3204   -6.1803 C   0  0  0  0  0  0  0  0  0  0  0  0
  -44.8257  -48.3374   -6.9469 C   0  0  0  0  0  0  0  0  0  0  0  0
  -44.1360  -48.6471   -8.1274 C   0  0  0  0  0  0  0  0  0  0  0  0
  -46.1515  -49.0051   -5.0168 N   0  0  0  0  0  0  0  0  0  0  0  0
  -47.5284  -49.4756   -4.7803 C   0  0  0  0  0  0  0  0  0  0  0  0
  -48.3258  -48.4748   -3.9087 C   0  0  0  0  0  0  0  0  0  0  0  0
  -47.7119  -48.1087   -2.6152 N   0  0  0  0  0  0  0  0  0  0  0  0
  -48.3108  -48.8355   -1.4992 C   0  0  0  0  0  0  0  0  0  0  0  0
  -46.2467  -48.3023   -2.6392 C   0  0  0  0  0  0  0  0  0  0  0  0
  -45.6064  -48.0621   -4.0257 C   0  0  0  0  0  0  0  0  0  0  0  0
  -44.0095  -56.2289  -15.8658 C   0  0  0  0  0  0  0  0  0  0  0  0
  -45.0825  -56.1513  -16.9440 C   0  0  0  0  0  0  0  0  0  0  0  0
  -45.4520  -57.3070  -17.6555 C   0  0  0  0  0  0  0  0  0  0  0  0
  -46.4260  -57.2423  -18.6529 C   0  0  0  0  0  0  0  0  0  0  0  0
  -47.0233  -56.0237  -18.9511 C   0  0  0  0  0  0  0  0  0  0  0  0
  -47.9579  -55.9655  -19.9087 F   0  0  0  0  0  0  0  0  0  0  0  0
  -46.6580  -54.8648  -18.2782 C   0  0  0  0  0  0  0  0  0  0  0  0
  -45.6832  -54.9257  -17.2813 C   0  0  0  0  0  0  0  0  0  0  0  0
  -41.9604  -56.4060  -17.0526 C   0  0  0  0  0  0  0  0  0  0  0  0
  -42.8831  -55.5398  -16.4075 O   0  0  0  0  0  0  0  0  0  0  0  0
 37 38  1  0
 29 38  1  0
 29  1  1  0
  1  2  2  0
  1  3  1  0
  3  4  1  0
  4  5  1  0
  5  6  1  0
  6  7  1  0
  7  8  2  0
  8 12  1  0
 12 13  1  0
 13 14  2  0
 13 16  1  0
 16 17  2  0
 17 18  1  0
 18 19  2  0
 19 22  1  0
 22 23  1  0
 23 24  1  0
 24 25  1  0
 25 26  1  0
 25 27  1  0
 27 28  1  0
 19 20  1  0
 20 21  2  0
  8  9  1  0
  9 10  1  0
 29 30  1  0
 30 31  2  0
 31 32  1  0
 32 33  2  0
 33 34  1  0
 33 35  1  0
 35 36  2  0
 10  3  1  0
 36 30  1  0
  9  5  2  0
 21 16  1  0
 28 22  1  0
  6 11  1  0
 12 15  1  0
M  END
> <minimizedAffinity>
-7.18805

> <CNNscore>
0.2541346848

> <CNNaffinity>
6.2070670128

> <CNN_VS>
1.5774309635

> <CNNaffinity_variance>
0.1086958572

$$$$



 38 42  0  0  0  0  0  0  0  0999 V2000
  -43.1259  -49.4424  -11.7309 C   0  0  0  0  0  0  0  0  0  0  0  0
  -44.2143  -49.0797  -11.2755 O   0  0  0  0  0  0  0  0  0  0  0  0
  -42.9490  -50.7318  -12.1968 N   0  0  0  0  0  0  0  0  0  0  0  0
  -41.7283  -51.2720  -12.8509 C   0  0  0  0  0  0  0  0  0  0  0  0
  -42.1723  -52.6435  -13.0550 C   0  0  0  0  0  0  0  0  0  0  0  0
  -41.6538  -53.7798  -13.5506 N   0  0  0  0  0  0  0  0  0  0  0  0
  -42.5453  -54.7980  -13.4835 N   0  0  0  0  0  0  0  0  0  0  0  0
  -43.6525  -54.2566  -12.9388 C   0  0  0  0  0  0  0  0  0  0  0  0
  -43.4499  -52.9038  -12.6637 C   0  0  0  0  0  0  0  0  0  0  0  0
  -44.0891  -51.7017  -12.1165 C   0  0  0  0  0  0  0  0  0  0  0  0
  -40.7432  -53.8620  -13.9156 H   0  0  0  0  0  0  0  0  0  0  0  0
  -44.7364  -55.0727  -12.7378 N   0  0  0  0  0  0  0  0  0  0  0  0
  -44.9226  -55.9153  -11.6687 C   0  0  0  0  0  0  0  0  0  0  0  0
  -44.1822  -56.0167  -10.6965 O   0  0  0  0  0  0  0  0  0  0  0  0
  -45.4448  -55.0529  -13.4212 H   0  0  0  0  0  0  0  0  0  0  0  0
  -46.1606  -56.7464  -11.7177 C   0  0  0  0  0  0  0  0  0  0  0  0
  -47.2055  -56.4838  -12.6052 C   0  0  0  0  0  0  0  0  0  0  0  0
  -48.3441  -57.3040  -12.6145 C   0  0  0  0  0  0  0  0  0  0  0  0
  -48.4762  -58.4127  -11.7625 C   0  0  0  0  0  0  0  0  0  0  0  0
  -47.4037  -58.6591  -10.8902 C   0  0  0  0  0  0  0  0  0  0  0  0
  -46.2610  -57.8474  -10.8664 C   0  0  0  0  0  0  0  0  0  0  0  0
  -49.6007  -59.2189  -11.7783 N   0  0  0  0  0  0  0  0  0  0  0  0
  -49.5243  -60.6354  -12.1794 C   0  0  0  0  0  0  0  0  0  0  0  0
  -50.8411  -61.1068  -12.8432 C   0  0  0  0  0  0  0  0  0  0  0  0
  -52.0755  -60.8930  -12.0591 N   0  0  0  0  0  0  0  0  0  0  0  0
  -52.5216  -62.1149  -11.3955 C   0  0  0  0  0  0  0  0  0  0  0  0
  -51.9106  -59.7971  -11.0810 C   0  0  0  0  0  0  0  0  0  0  0  0
  -50.9516  -58.6789  -11.5500 C   0  0  0  0  0  0  0  0  0  0  0  0
  -41.8909  -48.4854  -11.7530 C   0  0  0  0  0  0  0  0  0  0  0  0
  -41.9178  -47.4889  -10.6014 C   0  0  0  0  0  0  0  0  0  0  0  0
  -42.0919  -47.9417   -9.2811 C   0  0  0  0  0  0  0  0  0  0  0  0
  -42.1292  -47.0343   -8.2214 C   0  0  0  0  0  0  0  0  0  0  0  0
  -42.0063  -45.6742   -8.4776 C   0  0  0  0  0  0  0  0  0  0  0  0
  -42.0423  -44.8064   -7.4580 F   0  0  0  0  0  0  0  0  0  0  0  0
  -41.8572  -45.2017   -9.7752 C   0  0  0  0  0  0  0  0  0  0  0  0
  -41.8210  -46.1063  -10.8374 C   0  0  0  0  0  0  0  0  0  0  0  0
  -39.6029  -48.4333  -12.3862 C   0  0  0  0  0  0  0  0  0  0  0  0
  -40.6165  -49.1223  -11.6680 O   0  0  0  0  0  0  0  0  0  0  0  0
 37 38  1  0
 29 38  1  0
 29  1  1  0
  1  2  2  0
  1  3  1  0
  3  4  1  0
  4  5  1  0
  5  6  1  0
  6  7  1  0
  7  8  2  0
  8 12  1  0
 12 13  1  0
 13 14  2  0
 13 16  1  0
 16 17  2  0
 17 18  1  0
 18 19  2  0
 19 22  1  0
 22 23  1  0
 23 24  1  0
 24 25  1  0
 25 26  1  0
 25 27  1  0
 27 28  1  0
 19 20  1  0
 20 21  2  0
  8  9  1  0
  9 10  1  0
 29 30  1  0
 30 31  2  0
 31 32  1  0
 32 33  2  0
 33 34  1  0
 33 35  1  0
 35 36  2  0
 10  3  1  0
 36 30  1  0
  9  5  2  0
 21 16  1  0
 28 22  1  0
  6 11  1  0
 12 15  1  0
M  END
> <minimizedAffinity>
-7.28853

> <CNNscore>
0.2403808087

> <CNNaffinity>
5.7120094299

> <CNN_VS>
1.3730574846

> <CNNaffinity_variance>
0.4010355771

$$$$



 38 42  0  0  0  0  0  0  0  0999 V2000
  -44.0123  -48.1575  -10.5583 C   0  0  0  0  0  0  0  0  0  0  0  0
  -45.1657  -48.1312  -10.1196 O   0  0  0  0  0  0  0  0  0  0  0  0
  -43.5301  -49.2760  -11.2121 N   0  0  0  0  0  0  0  0  0  0  0  0
  -42.2021  -49.4092  -11.8666 C   0  0  0  0  0  0  0  0  0  0  0  0
  -42.3110  -50.7903  -12.3144 C   0  0  0  0  0  0  0  0  0  0  0  0
  -41.5315  -51.6801  -12.9518 N   0  0  0  0  0  0  0  0  0  0  0  0
  -42.1641  -52.8687  -13.1039 N   0  0  0  0  0  0  0  0  0  0  0  0
  -43.3793  -52.6903  -12.5499 C   0  0  0  0  0  0  0  0  0  0  0  0
  -43.5026  -51.3933  -12.0501 C   0  0  0  0  0  0  0  0  0  0  0  0
  -44.4160  -50.4762  -11.3590 C   0  0  0  0  0  0  0  0  0  0  0  0
  -40.6181  -51.4925  -13.2676 H   0  0  0  0  0  0  0  0  0  0  0  0
  -44.2490  -53.7508  -12.5498 N   0  0  0  0  0  0  0  0  0  0  0  0
  -44.7130  -54.4116  -11.4382 C   0  0  0  0  0  0  0  0  0  0  0  0
  -44.4753  -54.1120  -10.2730 O   0  0  0  0  0  0  0  0  0  0  0  0
  -44.5697  -54.0671  -13.4252 H   0  0  0  0  0  0  0  0  0  0  0  0
  -45.6037  -55.5767  -11.7121 C   0  0  0  0  0  0  0  0  0  0  0  0
  -45.1339  -56.7630  -12.2782 C   0  0  0  0  0  0  0  0  0  0  0  0
  -46.0147  -57.8312  -12.5063 C   0  0  0  0  0  0  0  0  0  0  0  0
  -47.3763  -57.7654  -12.1680 C   0  0  0  0  0  0  0  0  0  0  0  0
  -47.8166  -56.5645  -11.5886 C   0  0  0  0  0  0  0  0  0  0  0  0
  -46.9501  -55.4871  -11.3574 C   0  0  0  0  0  0  0  0  0  0  0  0
  -48.2392  -58.8234  -12.3935 N   0  0  0  0  0  0  0  0  0  0  0  0
  -48.2197  -59.5729  -13.6627 C   0  0  0  0  0  0  0  0  0  0  0  0
  -49.6236  -60.1211  -14.0171 C   0  0  0  0  0  0  0  0  0  0  0  0
  -50.2788  -60.9452  -12.9799 N   0  0  0  0  0  0  0  0  0  0  0  0
  -50.1648  -62.3734  -13.2618 C   0  0  0  0  0  0  0  0  0  0  0  0
  -49.7549  -60.6346  -11.6331 C   0  0  0  0  0  0  0  0  0  0  0  0
  -49.3221  -59.1613  -11.4545 C   0  0  0  0  0  0  0  0  0  0  0  0
  -43.0326  -46.9581  -10.3502 C   0  0  0  0  0  0  0  0  0  0  0  0
  -42.4447  -46.9360   -8.9453 C   0  0  0  0  0  0  0  0  0  0  0  0
  -42.4311  -48.1083   -8.1681 C   0  0  0  0  0  0  0  0  0  0  0  0
  -41.9047  -48.0938   -6.8756 C   0  0  0  0  0  0  0  0  0  0  0  0
  -41.4035  -46.9085   -6.3517 C   0  0  0  0  0  0  0  0  0  0  0  0
  -40.8988  -46.8986   -5.1111 F   0  0  0  0  0  0  0  0  0  0  0  0
  -41.4277  -45.7332   -7.0915 C   0  0  0  0  0  0  0  0  0  0  0  0
  -41.9548  -45.7437   -8.3837 C   0  0  0  0  0  0  0  0  0  0  0  0
  -41.6846  -45.6372  -11.7912 C   0  0  0  0  0  0  0  0  0  0  0  0
  -41.9078  -46.9220  -11.2280 O   0  0  0  0  0  0  0  0  0  0  0  0
 37 38  1  0
 29 38  1  0
 29  1  1  0
  1  2  2  0
  1  3  1  0
  3  4  1  0
  4  5  1  0
  5  6  1  0
  6  7  1  0
  7  8  2  0
  8 12  1  0
 12 13  1  0
 13 14  2  0
 13 16  1  0
 16 17  2  0
 17 18  1  0
 18 19  2  0
 19 22  1  0
 22 23  1  0
 23 24  1  0
 24 25  1  0
 25 26  1  0
 25 27  1  0
 27 28  1  0
 19 20  1  0
 20 21  2  0
  8  9  1  0
  9 10  1  0
 29 30  1  0
 30 31  2  0
 31 32  1  0
 32 33  2  0
 33 34  1  0
 33 35  1  0
 35 36  2  0
 10  3  1  0
 36 30  1  0
  9  5  2  0
 21 16  1  0
 28 22  1  0
  6 11  1  0
 12 15  1  0
M  END
> <minimizedAffinity>
-7.31427

> <CNNscore>
0.2048960626

> <CNNaffinity>
6.0903306007

> <CNN_VS>
1.2478847504

> <CNNaffinity_variance>
0.2742661238

$$$$



 38 42  0  0  0  0  0  0  0  0999 V2000
  -42.4101  -48.8159  -11.2562 C   0  0  0  0  0  0  0  0  0  0  0  0
  -41.6911  -48.4062  -12.1719 O   0  0  0  0  0  0  0  0  0  0  0  0
  -42.8648  -50.1214  -11.2447 N   0  0  0  0  0  0  0  0  0  0  0  0
  -43.6555  -50.7689  -10.1653 C   0  0  0  0  0  0  0  0  0  0  0  0
  -43.8282  -52.0815  -10.7711 C   0  0  0  0  0  0  0  0  0  0  0  0
  -44.4499  -53.2317  -10.4613 N   0  0  0  0  0  0  0  0  0  0  0  0
  -44.2806  -54.1602  -11.4335 N   0  0  0  0  0  0  0  0  0  0  0  0
  -43.5156  -53.5557  -12.3635 C   0  0  0  0  0  0  0  0  0  0  0  0
  -43.2115  -52.2511  -11.9728 C   0  0  0  0  0  0  0  0  0  0  0  0
  -42.4992  -51.0334  -12.3767 C   0  0  0  0  0  0  0  0  0  0  0  0
  -44.9625  -53.3807   -9.6341 H   0  0  0  0  0  0  0  0  0  0  0  0
  -43.1863  -54.2677  -13.4886 N   0  0  0  0  0  0  0  0  0  0  0  0
  -44.0611  -54.9699  -14.2819 C   0  0  0  0  0  0  0  0  0  0  0  0
  -45.2791  -55.0117  -14.1458 O   0  0  0  0  0  0  0  0  0  0  0  0
  -42.2376  -54.2765  -13.7513 H   0  0  0  0  0  0  0  0  0  0  0  0
  -43.4397  -55.7144  -15.4156 C   0  0  0  0  0  0  0  0  0  0  0  0
  -42.9767  -57.0251  -15.2878 C   0  0  0  0  0  0  0  0  0  0  0  0
  -42.4082  -57.6814  -16.3901 C   0  0  0  0  0  0  0  0  0  0  0  0
  -42.2961  -57.0709  -17.6500 C   0  0  0  0  0  0  0  0  0  0  0  0
  -42.7820  -55.7573  -17.7509 C   0  0  0  0  0  0  0  0  0  0  0  0
  -43.3495  -55.0868  -16.6584 C   0  0  0  0  0  0  0  0  0  0  0  0
  -41.7365  -57.7245  -18.7337 N   0  0  0  0  0  0  0  0  0  0  0  0
  -40.4146  -57.3419  -19.2621 C   0  0  0  0  0  0  0  0  0  0  0  0
  -40.3197  -57.5967  -20.7863 C   0  0  0  0  0  0  0  0  0  0  0  0
  -40.6411  -58.9673  -21.2360 N   0  0  0  0  0  0  0  0  0  0  0  0
  -39.4392  -59.7520  -21.5042 C   0  0  0  0  0  0  0  0  0  0  0  0
  -41.5139  -59.6627  -20.2666 C   0  0  0  0  0  0  0  0  0  0  0  0
  -42.4849  -58.7244  -19.5138 C   0  0  0  0  0  0  0  0  0  0  0  0
  -42.8811  -47.8717  -10.1037 C   0  0  0  0  0  0  0  0  0  0  0  0
  -41.8543  -46.7904   -9.7934 C   0  0  0  0  0  0  0  0  0  0  0  0
  -41.6771  -46.3451   -8.4710 C   0  0  0  0  0  0  0  0  0  0  0  0
  -40.7465  -45.3466   -8.1797 C   0  0  0  0  0  0  0  0  0  0  0  0
  -40.0012  -44.7818   -9.2075 C   0  0  0  0  0  0  0  0  0  0  0  0
  -39.1090  -43.8240   -8.9241 F   0  0  0  0  0  0  0  0  0  0  0  0
  -40.1756  -45.1887  -10.5241 C   0  0  0  0  0  0  0  0  0  0  0  0
  -41.1064  -46.1859  -10.8190 C   0  0  0  0  0  0  0  0  0  0  0  0
  -45.0933  -47.4372   -9.3582 C   0  0  0  0  0  0  0  0  0  0  0  0
  -44.1023  -47.1721  -10.3408 O   0  0  0  0  0  0  0  0  0  0  0  0
 37 38  1  0
 29 38  1  0
 29  1  1  0
  1  2  2  0
  1  3  1  0
  3  4  1  0
  4  5  1  0
  5  6  1  0
  6  7  1  0
  7  8  2  0
  8 12  1  0
 12 13  1  0
 13 14  2  0
 13 16  1  0
 16 17  2  0
 17 18  1  0
 18 19  2  0
 19 22  1  0
 22 23  1  0
 23 24  1  0
 24 25  1  0
 25 26  1  0
 25 27  1  0
 27 28  1  0
 19 20  1  0
 20 21  2  0
  8  9  1  0
  9 10  1  0
 29 30  1  0
 30 31  2  0
 31 32  1  0
 32 33  2  0
 33 34  1  0
 33 35  1  0
 35 36  2  0
 10  3  1  0
 36 30  1  0
  9  5  2  0
 21 16  1  0
 28 22  1  0
  6 11  1  0
 12 15  1  0
M  END
> <minimizedAffinity>
-7.88739

> <CNNscore>
0.1875062436

> <CNNaffinity>
6.4122128487

> <CNN_VS>
1.2023299932

> <CNNaffinity_variance>
0.0030618366

$$$$



 38 42  0  0  0  0  0  0  0  0999 V2000
  -44.1091  -49.2613   -8.7522 C   0  0  0  0  0  0  0  0  0  0  0  0
  -45.2262  -49.7438   -8.5461 O   0  0  0  0  0  0  0  0  0  0  0  0
  -43.3728  -49.6321   -9.8619 N   0  0  0  0  0  0  0  0  0  0  0  0
  -42.0630  -49.0663  -10.2789 C   0  0  0  0  0  0  0  0  0  0  0  0
  -41.8307  -49.8862  -11.4594 C   0  0  0  0  0  0  0  0  0  0  0  0
  -40.8633  -50.0286  -12.3810 N   0  0  0  0  0  0  0  0  0  0  0  0
  -41.1819  -50.9861  -13.2852 N   0  0  0  0  0  0  0  0  0  0  0  0
  -42.3953  -51.4333  -12.9066 C   0  0  0  0  0  0  0  0  0  0  0  0
  -42.8306  -50.7577  -11.7659 C   0  0  0  0  0  0  0  0  0  0  0  0
  -43.9337  -50.6543  -10.8039 C   0  0  0  0  0  0  0  0  0  0  0  0
  -40.0300  -49.5046  -12.3972 H   0  0  0  0  0  0  0  0  0  0  0  0
  -42.9732  -52.4326  -13.6472 N   0  0  0  0  0  0  0  0  0  0  0  0
  -42.6089  -53.7573  -13.6352 C   0  0  0  0  0  0  0  0  0  0  0  0
  -41.7577  -54.2617  -12.9108 O   0  0  0  0  0  0  0  0  0  0  0  0
  -43.7161  -52.1778  -14.2408 H   0  0  0  0  0  0  0  0  0  0  0  0
  -43.3557  -54.6344  -14.5833 C   0  0  0  0  0  0  0  0  0  0  0  0
  -44.6685  -55.0463  -14.3481 C   0  0  0  0  0  0  0  0  0  0  0  0
  -45.3268  -55.8649  -15.2786 C   0  0  0  0  0  0  0  0  0  0  0  0
  -44.7160  -56.2850  -16.4715 C   0  0  0  0  0  0  0  0  0  0  0  0
  -43.4002  -55.8443  -16.6862 C   0  0  0  0  0  0  0  0  0  0  0  0
  -42.7277  -55.0292  -15.7650 C   0  0  0  0  0  0  0  0  0  0  0  0
  -45.3716  -57.0903  -17.3861 N   0  0  0  0  0  0  0  0  0  0  0  0
  -46.5706  -56.6194  -18.1028 C   0  0  0  0  0  0  0  0  0  0  0  0
  -47.5292  -57.7900  -18.4311 C   0  0  0  0  0  0  0  0  0  0  0  0
  -46.9382  -58.9241  -19.1719 N   0  0  0  0  0  0  0  0  0  0  0  0
  -47.2622  -58.8772  -20.5950 C   0  0  0  0  0  0  0  0  0  0  0  0
  -45.4757  -58.9966  -18.9707 C   0  0  0  0  0  0  0  0  0  0  0  0
  -45.0100  -58.5045  -17.5812 C   0  0  0  0  0  0  0  0  0  0  0  0
  -43.4562  -48.2571   -7.7488 C   0  0  0  0  0  0  0  0  0  0  0  0
  -44.2193  -46.9409   -7.6775 C   0  0  0  0  0  0  0  0  0  0  0  0
  -44.5178  -46.3657   -6.4291 C   0  0  0  0  0  0  0  0  0  0  0  0
  -45.2267  -45.1658   -6.3546 C   0  0  0  0  0  0  0  0  0  0  0  0
  -45.6501  -44.5449   -7.5234 C   0  0  0  0  0  0  0  0  0  0  0  0
  -46.3299  -43.3933   -7.4479 F   0  0  0  0  0  0  0  0  0  0  0  0
  -45.3876  -45.1061   -8.7665 C   0  0  0  0  0  0  0  0  0  0  0  0
  -44.6803  -46.3066   -8.8446 C   0  0  0  0  0  0  0  0  0  0  0  0
  -44.0161  -49.9514   -6.1822 C   0  0  0  0  0  0  0  0  0  0  0  0
  -43.3617  -48.7093   -6.3984 O   0  0  0  0  0  0  0  0  0  0  0  0
 37 38  1  0
 29 38  1  0
 29  1  1  0
  1  2  2  0
  1  3  1  0
  3  4  1  0
  4  5  1  0
  5  6  1  0
  6  7  1  0
  7  8  2  0
  8 12  1  0
 12 13  1  0
 13 14  2  0
 13 16  1  0
 16 17  2  0
 17 18  1  0
 18 19  2  0
 19 22  1  0
 22 23  1  0
 23 24  1  0
 24 25  1  0
 25 26  1  0
 25 27  1  0
 27 28  1  0
 19 20  1  0
 20 21  2  0
  8  9  1  0
  9 10  1  0
 29 30  1  0
 30 31  2  0
 31 32  1  0
 32 33  2  0
 33 34  1  0
 33 35  1  0
 35 36  2  0
 10  3  1  0
 36 30  1  0
  9  5  2  0
 21 16  1  0
 28 22  1  0
  6 11  1  0
 12 15  1  0
M  END
> <minimizedAffinity>
-6.50895

> <CNNscore>
0.1819690466

> <CNNaffinity>
6.1082186699

> <CNN_VS>
1.1115067005

> <CNNaffinity_variance>
0.0534920283

$$$$
