


 44 48  0  0  0  0  0  0  0  0999 V2000
   -6.1029   12.9602   12.7101 C   0  0  0  0  0  0  0  0  0  0  0  0
   -5.3046   12.6142   13.7347 C   0  0  0  0  0  0  0  0  0  0  0  0
   -7.1361    9.7130   11.6711 C   0  0  0  0  0  0  0  0  0  0  0  0
   -6.1269   10.7093   11.9420 O   0  0  0  0  0  0  0  0  0  0  0  0
   -6.7341   11.9944   11.7555 C   0  0  0  0  0  0  0  0  0  0  0  0
   -8.2315   11.8156   12.0180 C   0  0  0  0  0  0  0  0  0  0  0  0
   -9.0427   12.7760   11.3358 O   0  0  0  0  0  0  0  0  0  0  0  0
   -8.4815   10.4208   11.4707 C   0  0  0  0  0  0  0  0  0  0  0  0
   -8.7887   10.5101   10.0656 O   0  0  0  0  0  0  0  0  0  0  0  0
   -8.8742   12.7224   10.3820 H   0  0  0  0  0  0  0  0  0  0  0  0
   -8.0680   10.9680    9.6055 H   0  0  0  0  0  0  0  0  0  0  0  0
   -7.5861    4.9305   15.5187 C   0  0  0  0  0  0  0  0  0  0  0  0
   -7.8007    5.6402   14.2204 C   0  0  0  0  0  0  0  0  0  0  0  0
   -8.4934    4.9934   13.2368 N   0  0  0  0  0  0  0  0  0  0  0  0
   -8.7023    5.6240   12.0588 C   0  0  0  0  0  0  0  0  0  0  0  0
   -9.6815    4.6611   10.7408 Br  0  0  0  0  0  0  0  0  0  0  0  0
   -8.2958    6.8626   11.7132 N   0  0  0  0  0  0  0  0  0  0  0  0
   -7.6424    7.4664   12.7163 C   0  0  0  0  0  0  0  0  0  0  0  0
   -7.3548    6.9413   13.9673 C   0  0  0  0  0  0  0  0  0  0  0  0
   -6.6570    7.8477   14.7297 N   0  0  0  0  0  0  0  0  0  0  0  0
   -6.5362    8.9116   13.9640 C   0  0  0  0  0  0  0  0  0  0  0  0
   -7.1119    8.7272   12.7325 N   0  0  0  0  0  0  0  0  0  0  0  0
   -4.6635   13.6135   14.6459 C   0  0  0  0  0  0  0  0  0  0  0  0
   -3.3116   13.1765   14.9077 N   0  0  0  0  0  0  0  0  0  0  0  0
   -2.2229   13.9340   14.5350 C   0  0  0  0  0  0  0  0  0  0  0  0
   -2.3100   15.0167   13.9589 O   0  0  0  0  0  0  0  0  0  0  0  0
   -3.1647   12.3164   15.3637 H   0  0  0  0  0  0  0  0  0  0  0  0
   -0.8706   13.3663   14.7803 C   0  0  0  0  0  0  0  0  0  0  0  0
   -0.6851   12.1832   15.5154 C   0  0  0  0  0  0  0  0  0  0  0  0
    0.6005   11.6358   15.7034 C   0  0  0  0  0  0  0  0  0  0  0  0
    1.7045   12.3003   15.1482 C   0  0  0  0  0  0  0  0  0  0  0  0
    1.5210   13.4854   14.4485 C   0  0  0  0  0  0  0  0  0  0  0  0
    2.6124   14.1254   13.9324 O   0  0  0  0  0  0  0  0  0  0  0  0
    0.2518   14.0289   14.2704 C   0  0  0  0  0  0  0  0  0  0  0  0
    0.1903   15.2166   13.5810 O   0  0  0  0  0  0  0  0  0  0  0  0
    3.4679   13.7621   14.0507 H   0  0  0  0  0  0  0  0  0  0  0  0
    0.9764   15.6148   13.2625 H   0  0  0  0  0  0  0  0  0  0  0  0
    0.7761   10.3935   16.4663 C   0  0  0  0  0  0  0  0  0  0  0  0
    1.6692    9.3991   16.0262 C   0  0  0  0  0  0  0  0  0  0  0  0
    1.8460    8.2226   16.7589 C   0  0  0  0  0  0  0  0  0  0  0  0
    1.1306    8.0354   17.9360 C   0  0  0  0  0  0  0  0  0  0  0  0
    1.3025    6.9096   18.6414 F   0  0  0  0  0  0  0  0  0  0  0  0
    0.2401    9.0004   18.3936 C   0  0  0  0  0  0  0  0  0  0  0  0
    0.0624   10.1756   17.6592 C   0  0  0  0  0  0  0  0  0  0  0  0
 12 13  1  0
 13 14  2  0
 14 15  1  0
 15 16  1  0
 15 17  2  0
 17 18  1  0
 18 19  2  0
 19 20  1  0
 20 21  2  0
 21 22  1  0
  3 22  1  0
  3  4  1  0
  4  5  1  0
  5  1  1  0
  1  2  2  0
  2 23  1  0
 23 24  1  0
 24 25  1  0
 25 26  2  0
 25 28  1  0
 28 29  2  0
 29 30  1  0
 30 38  1  0
 38 39  2  0
 39 40  1  0
 40 41  2  0
 41 42  1  0
 41 43  1  0
 43 44  2  0
 30 31  2  0
 31 32  1  0
 32 33  1  0
 32 34  2  0
 34 35  1  0
  5  6  1  0
  6  7  1  0
  6  8  1  0
  8  9  1  0
 19 13  1  0
  8  3  1  0
 22 18  1  0
 34 28  1  0
 44 38  1  0
 24 27  1  0
 33 36  1  0
 35 37  1  0
  7 10  1  0
  9 11  1  0
M  END
> <minimizedAffinity>
-7.91449

> <CNNscore>
0.5347112417

> <CNNaffinity>
6.6855545044

> <CNN_VS>
3.5748412609

> <CNNaffinity_variance>
0.2501123250

$$$$



 44 48  0  0  0  0  0  0  0  0999 V2000
   -3.8679   17.8643   13.7517 C   0  0  0  0  0  0  0  0  0  0  0  0
   -3.4447   16.7123   14.2999 C   0  0  0  0  0  0  0  0  0  0  0  0
   -5.0413   20.1699   16.2011 C   0  0  0  0  0  0  0  0  0  0  0  0
   -5.1931   19.4078   14.9841 O   0  0  0  0  0  0  0  0  0  0  0  0
   -3.8807   19.1886   14.4507 C   0  0  0  0  0  0  0  0  0  0  0  0
   -2.9122   19.2274   15.6355 C   0  0  0  0  0  0  0  0  0  0  0  0
   -1.5849   19.6127   15.2670 O   0  0  0  0  0  0  0  0  0  0  0  0
   -3.5468   20.2828   16.5248 C   0  0  0  0  0  0  0  0  0  0  0  0
   -3.0552   21.5828   16.1439 O   0  0  0  0  0  0  0  0  0  0  0  0
   -1.6076   20.4837   14.8408 H   0  0  0  0  0  0  0  0  0  0  0  0
   -3.2327   21.7324   15.2021 H   0  0  0  0  0  0  0  0  0  0  0  0
   -9.1657   18.3321   20.3832 C   0  0  0  0  0  0  0  0  0  0  0  0
   -8.6654   19.2048   19.2772 C   0  0  0  0  0  0  0  0  0  0  0  0
   -9.4541   20.2405   18.8638 N   0  0  0  0  0  0  0  0  0  0  0  0
   -9.0134   21.0437   17.8691 C   0  0  0  0  0  0  0  0  0  0  0  0
  -10.1650   22.4688   17.3535 Br  0  0  0  0  0  0  0  0  0  0  0  0
   -7.8454   20.9495   17.2015 N   0  0  0  0  0  0  0  0  0  0  0  0
   -7.0958   19.9354   17.6569 C   0  0  0  0  0  0  0  0  0  0  0  0
   -7.4215   19.0357   18.6609 C   0  0  0  0  0  0  0  0  0  0  0  0
   -6.4107   18.1227   18.8464 N   0  0  0  0  0  0  0  0  0  0  0  0
   -5.4793   18.4694   17.9832 C   0  0  0  0  0  0  0  0  0  0  0  0
   -5.8502   19.5583   17.2357 N   0  0  0  0  0  0  0  0  0  0  0  0
   -3.4814   15.4012   13.5791 C   0  0  0  0  0  0  0  0  0  0  0  0
   -2.2335   14.7182   13.8303 N   0  0  0  0  0  0  0  0  0  0  0  0
   -2.1658   13.6188   14.6577 C   0  0  0  0  0  0  0  0  0  0  0  0
   -3.1382   13.1421   15.2399 O   0  0  0  0  0  0  0  0  0  0  0  0
   -1.4112   15.0464   13.3996 H   0  0  0  0  0  0  0  0  0  0  0  0
   -0.8249   13.0291   14.9137 C   0  0  0  0  0  0  0  0  0  0  0  0
   -0.6584   11.8837   15.7105 C   0  0  0  0  0  0  0  0  0  0  0  0
    0.6154   11.3129   15.9092 C   0  0  0  0  0  0  0  0  0  0  0  0
    1.7271   11.9158   15.3015 C   0  0  0  0  0  0  0  0  0  0  0  0
    1.5631   13.0651   14.5400 C   0  0  0  0  0  0  0  0  0  0  0  0
    2.6623   13.6460   13.9730 O   0  0  0  0  0  0  0  0  0  0  0  0
    0.3059   13.6321   14.3511 C   0  0  0  0  0  0  0  0  0  0  0  0
    0.2641   14.7813   13.5979 O   0  0  0  0  0  0  0  0  0  0  0  0
    3.5098   13.2667   14.0983 H   0  0  0  0  0  0  0  0  0  0  0  0
    1.0551   15.1399   13.2462 H   0  0  0  0  0  0  0  0  0  0  0  0
    0.7710   10.1102   16.7371 C   0  0  0  0  0  0  0  0  0  0  0  0
    1.6392    9.0744   16.3452 C   0  0  0  0  0  0  0  0  0  0  0  0
    1.7971    7.9358   17.1394 C   0  0  0  0  0  0  0  0  0  0  0  0
    1.0877    7.8279   18.3299 C   0  0  0  0  0  0  0  0  0  0  0  0
    1.2415    6.7384   19.0941 F   0  0  0  0  0  0  0  0  0  0  0  0
    0.2216    8.8351   18.7408 C   0  0  0  0  0  0  0  0  0  0  0  0
    0.0626    9.9726   17.9451 C   0  0  0  0  0  0  0  0  0  0  0  0
 12 13  1  0
 13 14  2  0
 14 15  1  0
 15 16  1  0
 15 17  2  0
 17 18  1  0
 18 19  2  0
 19 20  1  0
 20 21  2  0
 21 22  1  0
  3 22  1  0
  3  4  1  0
  4  5  1  0
  5  1  1  0
  1  2  2  0
  2 23  1  0
 23 24  1  0
 24 25  1  0
 25 26  2  0
 25 28  1  0
 28 29  2  0
 29 30  1  0
 30 38  1  0
 38 39  2  0
 39 40  1  0
 40 41  2  0
 41 42  1  0
 41 43  1  0
 43 44  2  0
 30 31  2  0
 31 32  1  0
 32 33  1  0
 32 34  2  0
 34 35  1  0
  5  6  1  0
  6  7  1  0
  6  8  1  0
  8  9  1  0
 19 13  1  0
  8  3  1  0
 22 18  1  0
 34 28  1  0
 44 38  1  0
 24 27  1  0
 33 36  1  0
 35 37  1  0
  7 10  1  0
  9 11  1  0
M  END
> <minimizedAffinity>
-10.25361

> <CNNscore>
0.5209877491

> <CNNaffinity>
6.6916041374

> <CNN_VS>
3.4862437248

> <CNNaffinity_variance>
0.2419383526

$$$$



 44 48  0  0  0  0  0  0  0  0999 V2000
   -5.8689   12.8488   12.9803 C   0  0  0  0  0  0  0  0  0  0  0  0
   -4.7116   13.4783   12.7132 C   0  0  0  0  0  0  0  0  0  0  0  0
   -6.6767    9.9161   11.1259 C   0  0  0  0  0  0  0  0  0  0  0  0
   -5.8309   11.0464   11.4287 O   0  0  0  0  0  0  0  0  0  0  0  0
   -6.6680   12.0707   11.9811 C   0  0  0  0  0  0  0  0  0  0  0  0
   -7.8648   11.3630   12.6213 C   0  0  0  0  0  0  0  0  0  0  0  0
   -9.0363   12.1812   12.6852 O   0  0  0  0  0  0  0  0  0  0  0  0
   -8.0810   10.1944   11.6752 C   0  0  0  0  0  0  0  0  0  0  0  0
   -8.9575   10.6040   10.6072 O   0  0  0  0  0  0  0  0  0  0  0  0
   -9.2753   12.4740   11.7919 H   0  0  0  0  0  0  0  0  0  0  0  0
   -8.5837   11.3805   10.1620 H   0  0  0  0  0  0  0  0  0  0  0  0
   -3.7513    5.3992   14.1121 C   0  0  0  0  0  0  0  0  0  0  0  0
   -4.2940    6.7841   13.9616 C   0  0  0  0  0  0  0  0  0  0  0  0
   -4.0797    7.6760   14.9737 N   0  0  0  0  0  0  0  0  0  0  0  0
   -4.5580    8.9349   14.8503 C   0  0  0  0  0  0  0  0  0  0  0  0
   -4.2132   10.1213   16.2984 Br  0  0  0  0  0  0  0  0  0  0  0  0
   -5.2515    9.4461   13.8127 N   0  0  0  0  0  0  0  0  0  0  0  0
   -5.4163    8.5433   12.8353 C   0  0  0  0  0  0  0  0  0  0  0  0
   -4.9856    7.2249   12.8289 C   0  0  0  0  0  0  0  0  0  0  0  0
   -5.3479    6.5976   11.6606 N   0  0  0  0  0  0  0  0  0  0  0  0
   -5.9730    7.5209   10.9608 C   0  0  0  0  0  0  0  0  0  0  0  0
   -6.0450    8.7148   11.6326 N   0  0  0  0  0  0  0  0  0  0  0  0
   -3.9604   14.2764   13.7323 C   0  0  0  0  0  0  0  0  0  0  0  0
   -2.6746   13.6487   13.9322 N   0  0  0  0  0  0  0  0  0  0  0  0
   -2.2433   13.2692   15.1843 C   0  0  0  0  0  0  0  0  0  0  0  0
   -2.8997   13.4332   16.2109 O   0  0  0  0  0  0  0  0  0  0  0  0
   -2.0925   13.4882   13.1547 H   0  0  0  0  0  0  0  0  0  0  0  0
   -0.8747   12.6990   15.2994 C   0  0  0  0  0  0  0  0  0  0  0  0
   -0.6182   11.5289   16.0340 C   0  0  0  0  0  0  0  0  0  0  0  0
    0.6781   10.9783   16.0986 C   0  0  0  0  0  0  0  0  0  0  0  0
    1.7210   11.6266   15.4199 C   0  0  0  0  0  0  0  0  0  0  0  0
    1.4701   12.7993   14.7204 C   0  0  0  0  0  0  0  0  0  0  0  0
    2.5045   13.4239   14.0823 O   0  0  0  0  0  0  0  0  0  0  0  0
    0.1912   13.3461   14.6639 C   0  0  0  0  0  0  0  0  0  0  0  0
    0.0627   14.5211   13.9620 O   0  0  0  0  0  0  0  0  0  0  0  0
    3.3665   13.0583   14.1185 H   0  0  0  0  0  0  0  0  0  0  0  0
    0.8131   14.9091   13.5565 H   0  0  0  0  0  0  0  0  0  0  0  0
    0.9274    9.7496   16.8630 C   0  0  0  0  0  0  0  0  0  0  0  0
    0.3888    9.5825   18.1523 C   0  0  0  0  0  0  0  0  0  0  0  0
    0.6152    8.4081   18.8744 C   0  0  0  0  0  0  0  0  0  0  0  0
    1.3811    7.3945   18.3101 C   0  0  0  0  0  0  0  0  0  0  0  0
    1.5953    6.2664   18.9999 F   0  0  0  0  0  0  0  0  0  0  0  0
    1.9271    7.5332   17.0388 C   0  0  0  0  0  0  0  0  0  0  0  0
    1.7019    8.7089   16.3181 C   0  0  0  0  0  0  0  0  0  0  0  0
 12 13  1  0
 13 14  2  0
 14 15  1  0
 15 16  1  0
 15 17  2  0
 17 18  1  0
 18 19  2  0
 19 20  1  0
 20 21  2  0
 21 22  1  0
  3 22  1  0
  3  4  1  0
  4  5  1  0
  5  1  1  0
  1  2  2  0
  2 23  1  0
 23 24  1  0
 24 25  1  0
 25 26  2  0
 25 28  1  0
 28 29  2  0
 29 30  1  0
 30 38  1  0
 38 39  2  0
 39 40  1  0
 40 41  2  0
 41 42  1  0
 41 43  1  0
 43 44  2  0
 30 31  2  0
 31 32  1  0
 32 33  1  0
 32 34  2  0
 34 35  1  0
  5  6  1  0
  6  7  1  0
  6  8  1  0
  8  9  1  0
 19 13  1  0
  8  3  1  0
 22 18  1  0
 34 28  1  0
 44 38  1  0
 24 27  1  0
 33 36  1  0
 35 37  1  0
  7 10  1  0
  9 11  1  0
M  END
> <minimizedAffinity>
-8.23208

> <CNNscore>
0.4563262761

> <CNNaffinity>
6.7540984154

> <CNN_VS>
3.0820724964

> <CNNaffinity_variance>
0.3012848794

$$$$



 44 48  0  0  0  0  0  0  0  0999 V2000
   -5.2918   16.1036   17.1998 C   0  0  0  0  0  0  0  0  0  0  0  0
   -4.8695   14.8573   16.9254 C   0  0  0  0  0  0  0  0  0  0  0  0
   -6.9011   18.4218   19.3743 C   0  0  0  0  0  0  0  0  0  0  0  0
   -5.7845   17.9841   18.5703 O   0  0  0  0  0  0  0  0  0  0  0  0
   -5.8258   16.5519   18.5251 C   0  0  0  0  0  0  0  0  0  0  0  0
   -7.2882   16.1475   18.7271 C   0  0  0  0  0  0  0  0  0  0  0  0
   -7.4399   14.8397   19.2861 O   0  0  0  0  0  0  0  0  0  0  0  0
   -7.7741   17.2049   19.7034 C   0  0  0  0  0  0  0  0  0  0  0  0
   -7.5169   16.7617   21.0503 O   0  0  0  0  0  0  0  0  0  0  0  0
   -6.9731   14.7948   20.1352 H   0  0  0  0  0  0  0  0  0  0  0  0
   -6.5722   16.5661   21.1515 H   0  0  0  0  0  0  0  0  0  0  0  0
  -10.4325   22.9917   17.2476 C   0  0  0  0  0  0  0  0  0  0  0  0
  -10.0099   21.9738   18.2577 C   0  0  0  0  0  0  0  0  0  0  0  0
  -10.7392   21.8620   19.4071 N   0  0  0  0  0  0  0  0  0  0  0  0
  -10.3745   20.9414   20.3282 C   0  0  0  0  0  0  0  0  0  0  0  0
  -11.4437   20.8409   21.8997 Br  0  0  0  0  0  0  0  0  0  0  0  0
   -9.3370   20.0827   20.2568 N   0  0  0  0  0  0  0  0  0  0  0  0
   -8.6663   20.2124   19.1032 C   0  0  0  0  0  0  0  0  0  0  0  0
   -8.9246   21.1103   18.0781 C   0  0  0  0  0  0  0  0  0  0  0  0
   -8.0176   20.9602   17.0562 N   0  0  0  0  0  0  0  0  0  0  0  0
   -7.2313   19.9781   17.4434 C   0  0  0  0  0  0  0  0  0  0  0  0
   -7.5805   19.4962   18.6794 N   0  0  0  0  0  0  0  0  0  0  0  0
   -4.3754   14.4395   15.5760 C   0  0  0  0  0  0  0  0  0  0  0  0
   -3.0069   13.9987   15.7181 N   0  0  0  0  0  0  0  0  0  0  0  0
   -2.3661   13.2995   14.7190 C   0  0  0  0  0  0  0  0  0  0  0  0
   -2.8947   12.9966   13.6510 O   0  0  0  0  0  0  0  0  0  0  0  0
   -2.5204   14.2031   16.5493 H   0  0  0  0  0  0  0  0  0  0  0  0
   -0.9829   12.8239   14.9874 C   0  0  0  0  0  0  0  0  0  0  0  0
   -0.7294   11.6826   15.7670 C   0  0  0  0  0  0  0  0  0  0  0  0
    0.5861   11.2210   15.9772 C   0  0  0  0  0  0  0  0  0  0  0  0
    1.6502   11.9295   15.3989 C   0  0  0  0  0  0  0  0  0  0  0  0
    1.3983   13.0742   14.6547 C   0  0  0  0  0  0  0  0  0  0  0  0
    2.4512   13.7589   14.1163 O   0  0  0  0  0  0  0  0  0  0  0  0
    0.0995   13.5332   14.4544 C   0  0  0  0  0  0  0  0  0  0  0  0
   -0.0308   14.6883   13.7206 O   0  0  0  0  0  0  0  0  0  0  0  0
    3.3266   13.4524   14.2494 H   0  0  0  0  0  0  0  0  0  0  0  0
    0.7311   15.1208   13.3884 H   0  0  0  0  0  0  0  0  0  0  0  0
    0.8333   10.0211   16.7868 C   0  0  0  0  0  0  0  0  0  0  0  0
    0.1566    9.8230   18.0047 C   0  0  0  0  0  0  0  0  0  0  0  0
    0.3820    8.6752   18.7687 C   0  0  0  0  0  0  0  0  0  0  0  0
    1.2851    7.7194   18.3178 C   0  0  0  0  0  0  0  0  0  0  0  0
    1.4989    6.6165   19.0476 F   0  0  0  0  0  0  0  0  0  0  0  0
    1.9691    7.8900   17.1192 C   0  0  0  0  0  0  0  0  0  0  0  0
    1.7446    9.0391   16.3568 C   0  0  0  0  0  0  0  0  0  0  0  0
 12 13  1  0
 13 14  2  0
 14 15  1  0
 15 16  1  0
 15 17  2  0
 17 18  1  0
 18 19  2  0
 19 20  1  0
 20 21  2  0
 21 22  1  0
  3 22  1  0
  3  4  1  0
  4  5  1  0
  5  1  1  0
  1  2  2  0
  2 23  1  0
 23 24  1  0
 24 25  1  0
 25 26  2  0
 25 28  1  0
 28 29  2  0
 29 30  1  0
 30 38  1  0
 38 39  2  0
 39 40  1  0
 40 41  2  0
 41 42  1  0
 41 43  1  0
 43 44  2  0
 30 31  2  0
 31 32  1  0
 32 33  1  0
 32 34  2  0
 34 35  1  0
  5  6  1  0
  6  7  1  0
  6  8  1  0
  8  9  1  0
 19 13  1  0
  8  3  1  0
 22 18  1  0
 34 28  1  0
 44 38  1  0
 24 27  1  0
 33 36  1  0
 35 37  1  0
  7 10  1  0
  9 11  1  0
M  END
> <minimizedAffinity>
-8.38705

> <CNNscore>
0.4093048573

> <CNNaffinity>
6.2500376701

> <CNN_VS>
2.5581707954

> <CNNaffinity_variance>
0.0075712339

$$$$



 44 48  0  0  0  0  0  0  0  0999 V2000
   -5.9772   15.3274   17.2848 C   0  0  0  0  0  0  0  0  0  0  0  0
   -4.8432   15.1632   16.5818 C   0  0  0  0  0  0  0  0  0  0  0  0
   -6.1029   18.7550   18.2482 C   0  0  0  0  0  0  0  0  0  0  0  0
   -5.3899   17.5487   17.9000 O   0  0  0  0  0  0  0  0  0  0  0  0
   -6.2265   16.4401   18.2554 C   0  0  0  0  0  0  0  0  0  0  0  0
   -7.6709   16.9438   18.2006 C   0  0  0  0  0  0  0  0  0  0  0  0
   -8.5562   16.2130   19.0538 O   0  0  0  0  0  0  0  0  0  0  0  0
   -7.5225   18.3755   18.6861 C   0  0  0  0  0  0  0  0  0  0  0  0
   -7.6201   18.4018   20.1237 O   0  0  0  0  0  0  0  0  0  0  0  0
   -8.2342   16.2570   19.9677 H   0  0  0  0  0  0  0  0  0  0  0  0
   -6.9542   17.8077   20.5039 H   0  0  0  0  0  0  0  0  0  0  0  0
   -5.0837   21.9992   13.1184 C   0  0  0  0  0  0  0  0  0  0  0  0
   -4.9005   20.8300   14.0319 C   0  0  0  0  0  0  0  0  0  0  0  0
   -4.0222   19.8517   13.6617 N   0  0  0  0  0  0  0  0  0  0  0  0
   -3.8396   18.7906   14.4800 C   0  0  0  0  0  0  0  0  0  0  0  0
   -2.5948   17.4730   13.8990 Br  0  0  0  0  0  0  0  0  0  0  0  0
   -4.4402   18.5618   15.6656 N   0  0  0  0  0  0  0  0  0  0  0  0
   -5.2736   19.5581   15.9981 C   0  0  0  0  0  0  0  0  0  0  0  0
   -5.5589   20.6962   15.2585 C   0  0  0  0  0  0  0  0  0  0  0  0
   -6.4725   21.4883   15.9123 N   0  0  0  0  0  0  0  0  0  0  0  0
   -6.7269   20.8534   17.0370 C   0  0  0  0  0  0  0  0  0  0  0  0
   -6.0291   19.6761   17.1324 N   0  0  0  0  0  0  0  0  0  0  0  0
   -4.6191   14.0162   15.6470 C   0  0  0  0  0  0  0  0  0  0  0  0
   -3.2469   13.5867   15.7878 N   0  0  0  0  0  0  0  0  0  0  0  0
   -2.3659   13.6256   14.7295 C   0  0  0  0  0  0  0  0  0  0  0  0
   -2.6686   14.0161   13.6036 O   0  0  0  0  0  0  0  0  0  0  0  0
   -2.9339   13.2581   16.6614 H   0  0  0  0  0  0  0  0  0  0  0  0
   -0.9956   13.0929   14.9523 C   0  0  0  0  0  0  0  0  0  0  0  0
   -0.7668   11.9216   15.6940 C   0  0  0  0  0  0  0  0  0  0  0  0
    0.5352   11.4070   15.8607 C   0  0  0  0  0  0  0  0  0  0  0  0
    1.6114   12.0926   15.2773 C   0  0  0  0  0  0  0  0  0  0  0  0
    1.3853   13.2663   14.5710 C   0  0  0  0  0  0  0  0  0  0  0  0
    2.4503   13.9274   14.0272 O   0  0  0  0  0  0  0  0  0  0  0  0
    0.1001   13.7774   14.4138 C   0  0  0  0  0  0  0  0  0  0  0  0
   -0.0040   14.9568   13.7153 O   0  0  0  0  0  0  0  0  0  0  0  0
    3.3166   13.5858   14.1312 H   0  0  0  0  0  0  0  0  0  0  0  0
    0.7657   15.3707   13.3774 H   0  0  0  0  0  0  0  0  0  0  0  0
    0.7561   10.1765   16.6310 C   0  0  0  0  0  0  0  0  0  0  0  0
    0.0727    9.9525   17.8406 C   0  0  0  0  0  0  0  0  0  0  0  0
    0.2730    8.7759   18.5669 C   0  0  0  0  0  0  0  0  0  0  0  0
    1.1576    7.8172   18.0866 C   0  0  0  0  0  0  0  0  0  0  0  0
    1.3473    6.6869   18.7801 F   0  0  0  0  0  0  0  0  0  0  0  0
    1.8476    8.0129   16.8953 C   0  0  0  0  0  0  0  0  0  0  0  0
    1.6483    9.1907   16.1705 C   0  0  0  0  0  0  0  0  0  0  0  0
 12 13  1  0
 13 14  2  0
 14 15  1  0
 15 16  1  0
 15 17  2  0
 17 18  1  0
 18 19  2  0
 19 20  1  0
 20 21  2  0
 21 22  1  0
  3 22  1  0
  3  4  1  0
  4  5  1  0
  5  1  1  0
  1  2  2  0
  2 23  1  0
 23 24  1  0
 24 25  1  0
 25 26  2  0
 25 28  1  0
 28 29  2  0
 29 30  1  0
 30 38  1  0
 38 39  2  0
 39 40  1  0
 40 41  2  0
 41 42  1  0
 41 43  1  0
 43 44  2  0
 30 31  2  0
 31 32  1  0
 32 33  1  0
 32 34  2  0
 34 35  1  0
  5  6  1  0
  6  7  1  0
  6  8  1  0
  8  9  1  0
 19 13  1  0
  8  3  1  0
 22 18  1  0
 34 28  1  0
 44 38  1  0
 24 27  1  0
 33 36  1  0
 35 37  1  0
  7 10  1  0
  9 11  1  0
M  END
> <minimizedAffinity>
-10.40273

> <CNNscore>
0.3628887832

> <CNNaffinity>
6.7449765205

> <CNN_VS>
2.4476764202

> <CNNaffinity_variance>
0.1586536765

$$$$



 44 48  0  0  0  0  0  0  0  0999 V2000
   -2.6368   15.9900   13.8999 C   0  0  0  0  0  0  0  0  0  0  0  0
   -3.7702   15.3262   13.6139 C   0  0  0  0  0  0  0  0  0  0  0  0
   -3.3997   19.4696   13.8537 C   0  0  0  0  0  0  0  0  0  0  0  0
   -3.6230   18.1047   13.4389 O   0  0  0  0  0  0  0  0  0  0  0  0
   -2.3686   17.4177   13.5367 C   0  0  0  0  0  0  0  0  0  0  0  0
   -1.5516   18.1443   14.6079 C   0  0  0  0  0  0  0  0  0  0  0  0
   -0.1390   18.0000   14.4348 O   0  0  0  0  0  0  0  0  0  0  0  0
   -1.9704   19.5889   14.3958 C   0  0  0  0  0  0  0  0  0  0  0  0
   -1.1144   20.1909   13.4050 O   0  0  0  0  0  0  0  0  0  0  0  0
    0.1145   18.3287   13.5582 H   0  0  0  0  0  0  0  0  0  0  0  0
   -1.1482   19.6687   12.5883 H   0  0  0  0  0  0  0  0  0  0  0  0
   -7.7251   20.1107   18.1848 C   0  0  0  0  0  0  0  0  0  0  0  0
   -6.6500   19.3733   17.4530 C   0  0  0  0  0  0  0  0  0  0  0  0
   -6.3666   18.0938   17.8377 N   0  0  0  0  0  0  0  0  0  0  0  0
   -5.4017   17.4103   17.1815 C   0  0  0  0  0  0  0  0  0  0  0  0
   -5.0695   15.6310   17.7706 Br  0  0  0  0  0  0  0  0  0  0  0  0
   -4.6481   17.8482   16.1523 N   0  0  0  0  0  0  0  0  0  0  0  0
   -4.9775   19.0977   15.7948 C   0  0  0  0  0  0  0  0  0  0  0  0
   -5.9369   19.9123   16.3775 C   0  0  0  0  0  0  0  0  0  0  0  0
   -5.9862   21.1351   15.7512 N   0  0  0  0  0  0  0  0  0  0  0  0
   -5.0855   21.0613   14.7940 C   0  0  0  0  0  0  0  0  0  0  0  0
   -4.4439   19.8488   14.7837 N   0  0  0  0  0  0  0  0  0  0  0  0
   -3.9857   13.8870   13.9632 C   0  0  0  0  0  0  0  0  0  0  0  0
   -2.6909   13.2723   14.1435 N   0  0  0  0  0  0  0  0  0  0  0  0
   -2.2168   12.9405   15.3937 C   0  0  0  0  0  0  0  0  0  0  0  0
   -2.8401   13.1392   16.4347 O   0  0  0  0  0  0  0  0  0  0  0  0
   -2.1336   13.0859   13.3535 H   0  0  0  0  0  0  0  0  0  0  0  0
   -0.8422   12.3804   15.4843 C   0  0  0  0  0  0  0  0  0  0  0  0
   -0.5626   11.2167   16.2206 C   0  0  0  0  0  0  0  0  0  0  0  0
    0.7385   10.6755   16.2621 C   0  0  0  0  0  0  0  0  0  0  0  0
    1.7629   11.3266   15.5583 C   0  0  0  0  0  0  0  0  0  0  0  0
    1.4896   12.4932   14.8570 C   0  0  0  0  0  0  0  0  0  0  0  0
    2.5064   13.1209   14.1941 O   0  0  0  0  0  0  0  0  0  0  0  0
    0.2061   13.0308   14.8232 C   0  0  0  0  0  0  0  0  0  0  0  0
    0.0551   14.2005   14.1170 O   0  0  0  0  0  0  0  0  0  0  0  0
    3.3715   12.7614   14.2150 H   0  0  0  0  0  0  0  0  0  0  0  0
    0.7943   14.5911   13.6939 H   0  0  0  0  0  0  0  0  0  0  0  0
    1.0120    9.4532   17.0287 C   0  0  0  0  0  0  0  0  0  0  0  0
    1.6998    8.3748   16.4420 C   0  0  0  0  0  0  0  0  0  0  0  0
    1.9714    7.2170   17.1753 C   0  0  0  0  0  0  0  0  0  0  0  0
    1.5568    7.1323   18.4994 C   0  0  0  0  0  0  0  0  0  0  0  0
    1.8203    6.0242   19.2045 F   0  0  0  0  0  0  0  0  0  0  0  0
    0.8737    8.1818   19.1040 C   0  0  0  0  0  0  0  0  0  0  0  0
    0.6007    9.3386   18.3695 C   0  0  0  0  0  0  0  0  0  0  0  0
 12 13  1  0
 13 14  2  0
 14 15  1  0
 15 16  1  0
 15 17  2  0
 17 18  1  0
 18 19  2  0
 19 20  1  0
 20 21  2  0
 21 22  1  0
  3 22  1  0
  3  4  1  0
  4  5  1  0
  5  1  1  0
  1  2  2  0
  2 23  1  0
 23 24  1  0
 24 25  1  0
 25 26  2  0
 25 28  1  0
 28 29  2  0
 29 30  1  0
 30 38  1  0
 38 39  2  0
 39 40  1  0
 40 41  2  0
 41 42  1  0
 41 43  1  0
 43 44  2  0
 30 31  2  0
 31 32  1  0
 32 33  1  0
 32 34  2  0
 34 35  1  0
  5  6  1  0
  6  7  1  0
  6  8  1  0
  8  9  1  0
 19 13  1  0
  8  3  1  0
 22 18  1  0
 34 28  1  0
 44 38  1  0
 24 27  1  0
 33 36  1  0
 35 37  1  0
  7 10  1  0
  9 11  1  0
M  END
> <minimizedAffinity>
-10.39439

> <CNNscore>
0.3256615400

> <CNNaffinity>
6.5485076904

> <CNN_VS>
2.1325972080

> <CNNaffinity_variance>
0.1970124245

$$$$



 44 48  0  0  0  0  0  0  0  0999 V2000
   -5.6190   12.0646   14.4290 C   0  0  0  0  0  0  0  0  0  0  0  0
   -4.7547   11.1049   14.8015 C   0  0  0  0  0  0  0  0  0  0  0  0
   -6.1080   11.1503   11.0206 C   0  0  0  0  0  0  0  0  0  0  0  0
   -5.2717   11.4965   12.1456 O   0  0  0  0  0  0  0  0  0  0  0  0
   -6.0512   12.3240   13.0189 C   0  0  0  0  0  0  0  0  0  0  0  0
   -7.5174   11.9520   12.7848 C   0  0  0  0  0  0  0  0  0  0  0  0
   -8.4250   13.0141   13.0912 O   0  0  0  0  0  0  0  0  0  0  0  0
   -7.5308   11.6513   11.2958 C   0  0  0  0  0  0  0  0  0  0  0  0
   -7.7752   12.8705   10.5674 O   0  0  0  0  0  0  0  0  0  0  0  0
   -8.2016   13.7939   12.5592 H   0  0  0  0  0  0  0  0  0  0  0  0
   -7.1071   13.5309   10.8089 H   0  0  0  0  0  0  0  0  0  0  0  0
   -5.9477    5.3320    9.0208 C   0  0  0  0  0  0  0  0  0  0  0  0
   -6.1578    6.8042    8.8673 C   0  0  0  0  0  0  0  0  0  0  0  0
   -6.5697    7.2754    7.6532 N   0  0  0  0  0  0  0  0  0  0  0  0
   -6.7711    8.6038    7.4995 C   0  0  0  0  0  0  0  0  0  0  0  0
   -7.3513    9.1827    5.7815 Br  0  0  0  0  0  0  0  0  0  0  0  0
   -6.6089    9.5665    8.4299 N   0  0  0  0  0  0  0  0  0  0  0  0
   -6.2279    9.0552    9.6093 C   0  0  0  0  0  0  0  0  0  0  0  0
   -5.9821    7.7230    9.9068 C   0  0  0  0  0  0  0  0  0  0  0  0
   -5.5962    7.5778   11.2182 N   0  0  0  0  0  0  0  0  0  0  0  0
   -5.6225    8.7964   11.7153 C   0  0  0  0  0  0  0  0  0  0  0  0
   -5.9935    9.7266   10.7779 N   0  0  0  0  0  0  0  0  0  0  0  0
   -4.3202   10.9006   16.2190 C   0  0  0  0  0  0  0  0  0  0  0  0
   -2.9115   10.5802   16.2127 N   0  0  0  0  0  0  0  0  0  0  0  0
   -1.9484   11.5564   16.3442 C   0  0  0  0  0  0  0  0  0  0  0  0
   -2.2022   12.7527   16.4707 O   0  0  0  0  0  0  0  0  0  0  0  0
   -2.6330    9.6413   16.1119 H   0  0  0  0  0  0  0  0  0  0  0  0
   -0.5244   11.1380   16.2510 C   0  0  0  0  0  0  0  0  0  0  0  0
   -0.0457    9.9871   16.8996 C   0  0  0  0  0  0  0  0  0  0  0  0
    1.2980    9.5814   16.7670 C   0  0  0  0  0  0  0  0  0  0  0  0
    2.1618   10.3557   15.9777 C   0  0  0  0  0  0  0  0  0  0  0  0
    1.6932   11.5091   15.3632 C   0  0  0  0  0  0  0  0  0  0  0  0
    2.5567   12.2580   14.6144 O   0  0  0  0  0  0  0  0  0  0  0  0
    0.3681   11.9127   15.5013 C   0  0  0  0  0  0  0  0  0  0  0  0
    0.0194   13.0819   14.8679 O   0  0  0  0  0  0  0  0  0  0  0  0
    3.4492   11.9889   14.5195 H   0  0  0  0  0  0  0  0  0  0  0  0
    0.6607   13.5592   14.3791 H   0  0  0  0  0  0  0  0  0  0  0  0
    1.7801    8.3707   17.4439 C   0  0  0  0  0  0  0  0  0  0  0  0
    2.4570    8.4557   18.6746 C   0  0  0  0  0  0  0  0  0  0  0  0
    2.9043    7.3029   19.3251 C   0  0  0  0  0  0  0  0  0  0  0  0
    2.6760    6.0591   18.7478 C   0  0  0  0  0  0  0  0  0  0  0  0
    3.1008    4.9529   19.3726 F   0  0  0  0  0  0  0  0  0  0  0  0
    2.0114    5.9456   17.5316 C   0  0  0  0  0  0  0  0  0  0  0  0
    1.5663    7.0990   16.8808 C   0  0  0  0  0  0  0  0  0  0  0  0
 12 13  1  0
 13 14  2  0
 14 15  1  0
 15 16  1  0
 15 17  2  0
 17 18  1  0
 18 19  2  0
 19 20  1  0
 20 21  2  0
 21 22  1  0
  3 22  1  0
  3  4  1  0
  4  5  1  0
  5  1  1  0
  1  2  2  0
  2 23  1  0
 23 24  1  0
 24 25  1  0
 25 26  2  0
 25 28  1  0
 28 29  2  0
 29 30  1  0
 30 38  1  0
 38 39  2  0
 39 40  1  0
 40 41  2  0
 41 42  1  0
 41 43  1  0
 43 44  2  0
 30 31  2  0
 31 32  1  0
 32 33  1  0
 32 34  2  0
 34 35  1  0
  5  6  1  0
  6  7  1  0
  6  8  1  0
  8  9  1  0
 19 13  1  0
  8  3  1  0
 22 18  1  0
 34 28  1  0
 44 38  1  0
 24 27  1  0
 33 36  1  0
 35 37  1  0
  7 10  1  0
  9 11  1  0
M  END
> <minimizedAffinity>
-8.37406

> <CNNscore>
0.3213339448

> <CNNaffinity>
5.8945689201

> <CNN_VS>
1.8941251040

> <CNNaffinity_variance>
0.1059052721

$$$$



 44 48  0  0  0  0  0  0  0  0999 V2000
   -6.3085   12.7467   12.8327 C   0  0  0  0  0  0  0  0  0  0  0  0
   -5.4928   12.6601   13.8977 C   0  0  0  0  0  0  0  0  0  0  0  0
   -7.8276    9.5259   12.9379 C   0  0  0  0  0  0  0  0  0  0  0  0
   -6.6776   10.3989   12.9267 O   0  0  0  0  0  0  0  0  0  0  0  0
   -7.0561   11.5955   12.2341 C   0  0  0  0  0  0  0  0  0  0  0  0
   -8.5709   11.7395   12.4003 C   0  0  0  0  0  0  0  0  0  0  0  0
   -9.1863   12.4833   11.3449 O   0  0  0  0  0  0  0  0  0  0  0  0
   -9.0288   10.2914   12.3700 C   0  0  0  0  0  0  0  0  0  0  0  0
   -9.2658    9.8968   11.0044 O   0  0  0  0  0  0  0  0  0  0  0  0
   -8.9945   12.0574   10.4947 H   0  0  0  0  0  0  0  0  0  0  0  0
   -8.4629   10.0455   10.4809 H   0  0  0  0  0  0  0  0  0  0  0  0
   -7.5377    7.3396   18.6837 C   0  0  0  0  0  0  0  0  0  0  0  0
   -6.9555    7.8691   17.4126 C   0  0  0  0  0  0  0  0  0  0  0  0
   -5.5963    7.9577   17.3116 N   0  0  0  0  0  0  0  0  0  0  0  0
   -5.0531    8.4281   16.1659 C   0  0  0  0  0  0  0  0  0  0  0  0
   -3.1529    8.5149   16.0986 Br  0  0  0  0  0  0  0  0  0  0  0  0
   -5.7085    8.8413   15.0620 N   0  0  0  0  0  0  0  0  0  0  0  0
   -7.0362    8.7139   15.1984 C   0  0  0  0  0  0  0  0  0  0  0  0
   -7.7256    8.2533   16.3102 C   0  0  0  0  0  0  0  0  0  0  0  0
   -9.0821    8.2752   16.0885 N   0  0  0  0  0  0  0  0  0  0  0  0
   -9.2164    8.7249   14.8586 C   0  0  0  0  0  0  0  0  0  0  0  0
   -8.0057    9.0101   14.2799 N   0  0  0  0  0  0  0  0  0  0  0  0
   -4.7348   13.8289   14.4446 C   0  0  0  0  0  0  0  0  0  0  0  0
   -3.4074   13.3771   14.7929 N   0  0  0  0  0  0  0  0  0  0  0  0
   -2.2809   13.9922   14.2925 C   0  0  0  0  0  0  0  0  0  0  0  0
   -2.3115   14.9510   13.5233 O   0  0  0  0  0  0  0  0  0  0  0  0
   -3.3055   12.6110   15.4027 H   0  0  0  0  0  0  0  0  0  0  0  0
   -0.9602   13.4091   14.6489 C   0  0  0  0  0  0  0  0  0  0  0  0
   -0.8496   12.2416   15.4231 C   0  0  0  0  0  0  0  0  0  0  0  0
    0.4090   11.6784   15.7171 C   0  0  0  0  0  0  0  0  0  0  0  0
    1.5620   12.3113   15.2285 C   0  0  0  0  0  0  0  0  0  0  0  0
    1.4509   13.4816   14.4898 C   0  0  0  0  0  0  0  0  0  0  0  0
    2.5880   14.0911   14.0398 O   0  0  0  0  0  0  0  0  0  0  0  0
    0.2079   14.0408   14.2069 C   0  0  0  0  0  0  0  0  0  0  0  0
    0.2177   15.2120   13.4873 O   0  0  0  0  0  0  0  0  0  0  0  0
    3.4262   13.7170   14.2286 H   0  0  0  0  0  0  0  0  0  0  0  0
    1.0318   15.5895   13.2178 H   0  0  0  0  0  0  0  0  0  0  0  0
    0.5066   10.4526   16.5196 C   0  0  0  0  0  0  0  0  0  0  0  0
    1.2365    9.3436   16.0532 C   0  0  0  0  0  0  0  0  0  0  0  0
    1.3403    8.1819   16.8225 C   0  0  0  0  0  0  0  0  0  0  0  0
    0.7149    8.1241   18.0626 C   0  0  0  0  0  0  0  0  0  0  0  0
    0.8172    7.0123   18.8028 F   0  0  0  0  0  0  0  0  0  0  0  0
   -0.0142    9.2043   18.5476 C   0  0  0  0  0  0  0  0  0  0  0  0
   -0.1193   10.3648   17.7768 C   0  0  0  0  0  0  0  0  0  0  0  0
 12 13  1  0
 13 14  2  0
 14 15  1  0
 15 16  1  0
 15 17  2  0
 17 18  1  0
 18 19  2  0
 19 20  1  0
 20 21  2  0
 21 22  1  0
  3 22  1  0
  3  4  1  0
  4  5  1  0
  5  1  1  0
  1  2  2  0
  2 23  1  0
 23 24  1  0
 24 25  1  0
 25 26  2  0
 25 28  1  0
 28 29  2  0
 29 30  1  0
 30 38  1  0
 38 39  2  0
 39 40  1  0
 40 41  2  0
 41 42  1  0
 41 43  1  0
 43 44  2  0
 30 31  2  0
 31 32  1  0
 32 33  1  0
 32 34  2  0
 34 35  1  0
  5  6  1  0
  6  7  1  0
  6  8  1  0
  8  9  1  0
 19 13  1  0
  8  3  1  0
 22 18  1  0
 34 28  1  0
 44 38  1  0
 24 27  1  0
 33 36  1  0
 35 37  1  0
  7 10  1  0
  9 11  1  0
M  END
> <minimizedAffinity>
-7.34855

> <CNNscore>
0.3004985452

> <CNNaffinity>
6.5798783302

> <CNN_VS>
1.9772439003

> <CNNaffinity_variance>
0.0776758716

$$$$



 44 48  0  0  0  0  0  0  0  0999 V2000
   -4.5863   11.9113   12.4926 C   0  0  0  0  0  0  0  0  0  0  0  0
   -5.1622   13.0253   12.9765 C   0  0  0  0  0  0  0  0  0  0  0  0
   -6.6824    9.0593   12.8983 C   0  0  0  0  0  0  0  0  0  0  0  0
   -5.4325    9.7630   13.0635 O   0  0  0  0  0  0  0  0  0  0  0  0
   -5.3318   10.7121   11.9939 C   0  0  0  0  0  0  0  0  0  0  0  0
   -6.7632   11.0538   11.5729 C   0  0  0  0  0  0  0  0  0  0  0  0
   -6.8636   11.4854   10.2129 O   0  0  0  0  0  0  0  0  0  0  0  0
   -7.4725    9.7243   11.7648 C   0  0  0  0  0  0  0  0  0  0  0  0
   -7.3560    8.9455   10.5579 O   0  0  0  0  0  0  0  0  0  0  0  0
   -6.5117   10.7961    9.6281 H   0  0  0  0  0  0  0  0  0  0  0  0
   -6.4190    8.8394   10.3307 H   0  0  0  0  0  0  0  0  0  0  0  0
   -9.7742    9.8780   18.1565 C   0  0  0  0  0  0  0  0  0  0  0  0
   -9.2225   10.3115   16.8364 C   0  0  0  0  0  0  0  0  0  0  0  0
   -9.4185   11.6060   16.4474 N   0  0  0  0  0  0  0  0  0  0  0  0
   -8.9200   12.0162   15.2590 C   0  0  0  0  0  0  0  0  0  0  0  0
   -9.2276   13.8352   14.7901 Br  0  0  0  0  0  0  0  0  0  0  0  0
   -8.2254   11.2799   14.3679 N   0  0  0  0  0  0  0  0  0  0  0  0
   -8.0375   10.0255   14.8025 C   0  0  0  0  0  0  0  0  0  0  0  0
   -8.4927    9.4712   15.9896 C   0  0  0  0  0  0  0  0  0  0  0  0
   -8.1185    8.1522   16.0887 N   0  0  0  0  0  0  0  0  0  0  0  0
   -7.4337    7.9115   14.9906 C   0  0  0  0  0  0  0  0  0  0  0  0
   -7.3619    9.0137   14.1770 N   0  0  0  0  0  0  0  0  0  0  0  0
   -4.3805   14.1896   13.4990 C   0  0  0  0  0  0  0  0  0  0  0  0
   -3.0864   13.7055   13.9211 N   0  0  0  0  0  0  0  0  0  0  0  0
   -1.9849   14.5318   13.9631 C   0  0  0  0  0  0  0  0  0  0  0  0
   -2.0109   15.7201   13.6485 O   0  0  0  0  0  0  0  0  0  0  0  0
   -2.9894   12.7621   14.1852 H   0  0  0  0  0  0  0  0  0  0  0  0
   -0.6806   13.9247   14.3392 C   0  0  0  0  0  0  0  0  0  0  0  0
   -0.6032   12.7490   15.1050 C   0  0  0  0  0  0  0  0  0  0  0  0
    0.6406   12.1634   15.4177 C   0  0  0  0  0  0  0  0  0  0  0  0
    1.8125   12.7820   14.9565 C   0  0  0  0  0  0  0  0  0  0  0  0
    1.7339   13.9601   14.2262 C   0  0  0  0  0  0  0  0  0  0  0  0
    2.8889   14.5553   13.8032 O   0  0  0  0  0  0  0  0  0  0  0  0
    0.5055   14.5415   13.9249 C   0  0  0  0  0  0  0  0  0  0  0  0
    0.5474   15.7185   13.2160 O   0  0  0  0  0  0  0  0  0  0  0  0
    3.7172   14.1663   14.0044 H   0  0  0  0  0  0  0  0  0  0  0  0
    1.3723   16.0853   12.9652 H   0  0  0  0  0  0  0  0  0  0  0  0
    0.7036   10.9294   16.2111 C   0  0  0  0  0  0  0  0  0  0  0  0
   -0.1577   10.7336   17.3065 C   0  0  0  0  0  0  0  0  0  0  0  0
   -0.1067    9.5540   18.0535 C   0  0  0  0  0  0  0  0  0  0  0  0
    0.8059    8.5640   17.7080 C   0  0  0  0  0  0  0  0  0  0  0  0
    0.8529    7.4309   18.4210 F   0  0  0  0  0  0  0  0  0  0  0  0
    1.6702    8.7314   16.6316 C   0  0  0  0  0  0  0  0  0  0  0  0
    1.6199    9.9121   15.8863 C   0  0  0  0  0  0  0  0  0  0  0  0
 12 13  1  0
 13 14  2  0
 14 15  1  0
 15 16  1  0
 15 17  2  0
 17 18  1  0
 18 19  2  0
 19 20  1  0
 20 21  2  0
 21 22  1  0
  3 22  1  0
  3  4  1  0
  4  5  1  0
  5  1  1  0
  1  2  2  0
  2 23  1  0
 23 24  1  0
 24 25  1  0
 25 26  2  0
 25 28  1  0
 28 29  2  0
 29 30  1  0
 30 38  1  0
 38 39  2  0
 39 40  1  0
 40 41  2  0
 41 42  1  0
 41 43  1  0
 43 44  2  0
 30 31  2  0
 31 32  1  0
 32 33  1  0
 32 34  2  0
 34 35  1  0
  5  6  1  0
  6  7  1  0
  6  8  1  0
  8  9  1  0
 19 13  1  0
  8  3  1  0
 22 18  1  0
 34 28  1  0
 44 38  1  0
 24 27  1  0
 33 36  1  0
 35 37  1  0
  7 10  1  0
  9 11  1  0
M  END
> <minimizedAffinity>
-8.76387

> <CNNscore>
0.2007532269

> <CNNaffinity>
6.2202010155

> <CNN_VS>
1.2487254143

> <CNNaffinity_variance>
0.0106884167

$$$$
