


 52 54  0  0  0  0  0  0  0  0999 V2000
    8.4025   28.3490    4.9407 C   0  0  0  0  0  0  0  0  0  0  0  0
    8.4702   30.1420    6.6497 N   0  0  0  0  0  0  0  0  0  0  0  0
    7.7308   29.1126    6.1034 C   0  0  0  0  0  0  0  0  0  0  0  0
    6.5791   28.8577    6.4676 O   0  0  0  0  0  0  0  0  0  0  0  0
    9.2567   30.4654    6.1536 H   0  0  0  0  0  0  0  0  0  0  0  0
    8.1437   30.7850    7.9406 C   0  0  0  0  0  0  0  0  0  0  0  0
    8.2891   32.3328    8.0688 C   0  0  0  0  0  0  0  0  0  0  0  0
    9.4570   32.9010    7.6379 N   0  0  0  0  0  0  0  0  0  0  0  0
    7.4162   33.0520    8.5550 O   0  0  0  0  0  0  0  0  0  0  0  0
   10.1636   32.3378    7.2470 H   0  0  0  0  0  0  0  0  0  0  0  0
    9.5907   33.8731    7.7187 H   0  0  0  0  0  0  0  0  0  0  0  0
    9.0140   30.1490    9.0577 C   0  0  0  0  0  0  0  0  0  0  0  0
    8.4983   28.7747    9.5116 C   0  0  0  0  0  0  0  0  0  0  0  0
    7.1901   28.8224   10.3202 C   0  0  0  0  0  0  0  0  0  0  0  0
    7.2876   29.2689   11.8100 C   0  0  0  0  0  0  0  0  0  0  0  0
    6.1927   28.5991   12.6456 C   0  0  0  0  0  0  0  0  0  0  0  0
    7.0647   30.8004   11.8961 C   0  0  0  0  0  0  0  0  0  0  0  0
    8.7196   29.0077   12.3976 C   0  0  0  0  0  0  0  0  0  0  0  0
    8.6331   27.4988   14.5003 C   0  0  0  0  0  0  0  0  0  0  0  0
    9.1662   27.6755   13.0749 C   0  0  0  0  0  0  0  0  0  0  0  0
    8.5836   26.5230   12.2111 C   0  0  0  0  0  0  0  0  0  0  0  0
   10.6955   27.5007   13.0721 C   0  0  0  0  0  0  0  0  0  0  0  0
    8.1892   26.9184    5.1968 N   0  0  0  0  0  0  0  0  0  0  0  0
    9.0448   25.9343    4.7589 C   0  0  0  0  0  0  0  0  0  0  0  0
   10.0721   26.1589    4.1202 O   0  0  0  0  0  0  0  0  0  0  0  0
    7.3922   26.6498    5.7086 H   0  0  0  0  0  0  0  0  0  0  0  0
    8.5688   24.5406    5.1205 C   0  0  0  0  0  0  0  0  0  0  0  0
    7.4143   24.0756    4.2315 C   0  0  0  0  0  0  0  0  0  0  0  0
    6.1859   23.6529    5.0087 C   0  0  0  0  0  0  0  0  0  0  0  0
    4.9523   24.2728    4.7717 C   0  0  0  0  0  0  0  0  0  0  0  0
    3.7991   23.8744    5.4603 C   0  0  0  0  0  0  0  0  0  0  0  0
    3.8459   22.8337    6.3963 C   0  0  0  0  0  0  0  0  0  0  0  0
    5.0822   22.2115    6.6284 C   0  0  0  0  0  0  0  0  0  0  0  0
    6.2342   22.6111    5.9399 C   0  0  0  0  0  0  0  0  0  0  0  0
    2.6222   22.4175    7.1016 C   0  0  0  0  0  0  0  0  0  0  0  0
    1.3014   22.7347    6.8313 C   0  0  0  0  0  0  0  0  0  0  0  0
    0.3614   22.1332    7.7307 C   0  0  0  0  0  0  0  0  0  0  0  0
    1.0156   21.3457    8.6614 C   0  0  0  0  0  0  0  0  0  0  0  0
    2.7131   21.3643    8.4560 S   0  0  0  0  0  0  0  0  0  0  0  0
   -1.0933   22.2592    7.7194 C   0  0  0  0  0  0  0  0  0  0  0  0
   -1.9182   21.1478    7.9461 C   0  0  0  0  0  0  0  0  0  0  0  0
   -3.3086   21.2802    7.9285 C   0  0  0  0  0  0  0  0  0  0  0  0
   -3.8898   22.5217    7.6836 C   0  0  0  0  0  0  0  0  0  0  0  0
   -3.0809   23.6330    7.4616 C   0  0  0  0  0  0  0  0  0  0  0  0
   -1.6881   23.5060    7.4865 C   0  0  0  0  0  0  0  0  0  0  0  0
    7.8015   28.6902    3.5626 C   0  0  0  0  0  0  0  0  0  0  0  0
    8.7198   28.6785    2.3388 C   0  0  0  0  0  0  0  0  0  0  0  0
    8.3072   27.6780    1.2862 C   0  0  0  0  0  0  0  0  0  0  0  0
    7.3049   26.8352    1.6447 N   0  0  0  0  0  0  0  0  0  0  0  0
    8.8181   27.6257    0.1709 O   0  0  0  0  0  0  0  0  0  0  0  0
    6.9098   26.8948    2.5444 H   0  0  0  0  0  0  0  0  0  0  0  0
    6.9732   26.1644    1.0049 H   0  0  0  0  0  0  0  0  0  0  0  0
 19 20  1  0
 20 21  1  0
 20 22  1  0
 20 18  1  0
 18 15  1  0
 15 16  1  0
 15 17  1  0
 15 14  1  0
 14 13  1  0
 13 12  1  0
  6 12  1  0
  6  2  1  0
  2  3  1  0
  3  4  2  0
  3  1  1  0
  1 46  1  0
 46 47  1  0
 47 48  1  0
 48 49  1  0
 48 50  2  0
  1 23  1  0
 23 24  1  0
 24 25  2  0
 24 27  1  0
 27 28  1  0
 28 29  1  0
 29 30  2  0
 30 31  1  0
 31 32  2  0
 32 35  1  0
 35 36  2  0
 36 37  1  0
 37 40  1  0
 40 41  2  0
 41 42  1  0
 42 43  2  0
 43 44  1  0
 44 45  2  0
 37 38  2  0
 38 39  1  0
 32 33  1  0
 33 34  2  0
  6  7  1  0
  7  8  1  0
  7  9  2  0
 34 29  1  0
 39 35  1  0
 45 40  1  0
  2  5  1  0
 49 51  1  0
 49 52  1  0
 23 26  1  0
  8 10  1  0
  8 11  1  0
M  END
> <minimizedAffinity>
-9.14501

> <CNNscore>
0.7556185126

> <CNNaffinity>
8.3483762741

> <CNN_VS>
6.3081874847

> <CNNaffinity_variance>
0.5547664762

$$$$



 52 54  0  0  0  0  0  0  0  0999 V2000
    8.2165   27.9042    5.7954 C   0  0  0  0  0  0  0  0  0  0  0  0
    8.6112   29.0672    7.9476 N   0  0  0  0  0  0  0  0  0  0  0  0
    7.6642   28.6005    7.0588 C   0  0  0  0  0  0  0  0  0  0  0  0
    6.4544   28.7855    7.2213 O   0  0  0  0  0  0  0  0  0  0  0  0
    9.5459   29.1269    7.6441 H   0  0  0  0  0  0  0  0  0  0  0  0
    8.2966   29.4822    9.3315 C   0  0  0  0  0  0  0  0  0  0  0  0
    9.3509   30.3126   10.1266 C   0  0  0  0  0  0  0  0  0  0  0  0
    9.1552   31.6634   10.2255 N   0  0  0  0  0  0  0  0  0  0  0  0
   10.3498   29.8122   10.6435 O   0  0  0  0  0  0  0  0  0  0  0  0
    8.3608   32.0769    9.8168 H   0  0  0  0  0  0  0  0  0  0  0  0
    9.8089   32.2216   10.7054 H   0  0  0  0  0  0  0  0  0  0  0  0
    7.9738   28.2214   10.1775 C   0  0  0  0  0  0  0  0  0  0  0  0
    7.1641   28.5391   11.4441 C   0  0  0  0  0  0  0  0  0  0  0  0
    7.5603   27.7078   12.6767 C   0  0  0  0  0  0  0  0  0  0  0  0
    7.3936   28.3782   14.0735 C   0  0  0  0  0  0  0  0  0  0  0  0
    6.4977   29.6163   13.9730 C   0  0  0  0  0  0  0  0  0  0  0  0
    8.7811   28.8499   14.5785 C   0  0  0  0  0  0  0  0  0  0  0  0
    6.8691   27.3571   15.1441 C   0  0  0  0  0  0  0  0  0  0  0  0
    5.0230   25.7461   15.9821 C   0  0  0  0  0  0  0  0  0  0  0  0
    5.3673   27.1655   15.5198 C   0  0  0  0  0  0  0  0  0  0  0  0
    5.0823   28.1265   16.7069 C   0  0  0  0  0  0  0  0  0  0  0  0
    4.4206   27.5791   14.3789 C   0  0  0  0  0  0  0  0  0  0  0  0
    7.2749   26.8274    5.4615 N   0  0  0  0  0  0  0  0  0  0  0  0
    7.6629   25.6185    4.9319 C   0  0  0  0  0  0  0  0  0  0  0  0
    8.8335   25.3218    4.6964 O   0  0  0  0  0  0  0  0  0  0  0  0
    6.3160   26.9788    5.6253 H   0  0  0  0  0  0  0  0  0  0  0  0
    6.4895   24.7032    4.6400 C   0  0  0  0  0  0  0  0  0  0  0  0
    6.5371   23.4201    5.4711 C   0  0  0  0  0  0  0  0  0  0  0  0
    5.1898   23.0099    6.0262 C   0  0  0  0  0  0  0  0  0  0  0  0
    4.0133   23.5669    5.5087 C   0  0  0  0  0  0  0  0  0  0  0  0
    2.7565   23.1773    5.9899 C   0  0  0  0  0  0  0  0  0  0  0  0
    2.6417   22.2077    6.9939 C   0  0  0  0  0  0  0  0  0  0  0  0
    3.8219   21.6481    7.5073 C   0  0  0  0  0  0  0  0  0  0  0  0
    5.0774   22.0389    7.0260 C   0  0  0  0  0  0  0  0  0  0  0  0
    1.3130   21.7989    7.4791 C   0  0  0  0  0  0  0  0  0  0  0  0
    0.1209   22.5039    7.4743 C   0  0  0  0  0  0  0  0  0  0  0  0
   -0.9875   21.7789    8.0224 C   0  0  0  0  0  0  0  0  0  0  0  0
   -0.5928   20.5122    8.4146 C   0  0  0  0  0  0  0  0  0  0  0  0
    1.0727   20.2335    8.1452 S   0  0  0  0  0  0  0  0  0  0  0  0
   -2.3701   22.2282    8.1587 C   0  0  0  0  0  0  0  0  0  0  0  0
   -2.6988   23.5901    8.0930 C   0  0  0  0  0  0  0  0  0  0  0  0
   -4.0246   24.0080    8.2291 C   0  0  0  0  0  0  0  0  0  0  0  0
   -5.0353   23.0720    8.4333 C   0  0  0  0  0  0  0  0  0  0  0  0
   -4.7216   21.7169    8.4959 C   0  0  0  0  0  0  0  0  0  0  0  0
   -3.3961   21.2940    8.3518 C   0  0  0  0  0  0  0  0  0  0  0  0
    8.3257   28.8474    4.5808 C   0  0  0  0  0  0  0  0  0  0  0  0
    8.5900   28.2397    3.2017 C   0  0  0  0  0  0  0  0  0  0  0  0
    8.0571   29.0758    2.0632 C   0  0  0  0  0  0  0  0  0  0  0  0
    7.1394   28.4643    1.2712 N   0  0  0  0  0  0  0  0  0  0  0  0
    8.4036   30.2363    1.8614 O   0  0  0  0  0  0  0  0  0  0  0  0
    6.8762   27.5329    1.4514 H   0  0  0  0  0  0  0  0  0  0  0  0
    6.7372   28.9523    0.5167 H   0  0  0  0  0  0  0  0  0  0  0  0
 19 20  1  0
 20 21  1  0
 20 22  1  0
 20 18  1  0
 18 15  1  0
 15 16  1  0
 15 17  1  0
 15 14  1  0
 14 13  1  0
 13 12  1  0
  6 12  1  0
  6  2  1  0
  2  3  1  0
  3  4  2  0
  3  1  1  0
  1 46  1  0
 46 47  1  0
 47 48  1  0
 48 49  1  0
 48 50  2  0
  1 23  1  0
 23 24  1  0
 24 25  2  0
 24 27  1  0
 27 28  1  0
 28 29  1  0
 29 30  2  0
 30 31  1  0
 31 32  2  0
 32 35  1  0
 35 36  2  0
 36 37  1  0
 37 40  1  0
 40 41  2  0
 41 42  1  0
 42 43  2  0
 43 44  1  0
 44 45  2  0
 37 38  2  0
 38 39  1  0
 32 33  1  0
 33 34  2  0
  6  7  1  0
  7  8  1  0
  7  9  2  0
 34 29  1  0
 39 35  1  0
 45 40  1  0
  2  5  1  0
 49 51  1  0
 49 52  1  0
 23 26  1  0
  8 10  1  0
  8 11  1  0
M  END
> <minimizedAffinity>
-9.17569

> <CNNscore>
0.7085310817

> <CNNaffinity>
7.9709219933

> <CNN_VS>
5.6476459503

> <CNNaffinity_variance>
0.7197296619

$$$$



 52 54  0  0  0  0  0  0  0  0999 V2000
    8.4443   28.4451    5.2573 C   0  0  0  0  0  0  0  0  0  0  0  0
    8.4585   30.1052    7.0969 N   0  0  0  0  0  0  0  0  0  0  0  0
    7.7567   29.0884    6.4818 C   0  0  0  0  0  0  0  0  0  0  0  0
    6.6223   28.7560    6.8380 O   0  0  0  0  0  0  0  0  0  0  0  0
    9.2232   30.4995    6.6184 H   0  0  0  0  0  0  0  0  0  0  0  0
    8.1227   30.6338    8.4364 C   0  0  0  0  0  0  0  0  0  0  0  0
    8.2088   32.1718    8.6822 C   0  0  0  0  0  0  0  0  0  0  0  0
    9.4339   32.7011    8.9853 N   0  0  0  0  0  0  0  0  0  0  0  0
    7.2291   32.9158    8.6363 O   0  0  0  0  0  0  0  0  0  0  0  0
   10.2259   32.1177    9.0254 H   0  0  0  0  0  0  0  0  0  0  0  0
    9.5231   33.6653    9.1632 H   0  0  0  0  0  0  0  0  0  0  0  0
    9.0308   29.9494    9.4933 C   0  0  0  0  0  0  0  0  0  0  0  0
    8.5008   28.5793    9.9435 C   0  0  0  0  0  0  0  0  0  0  0  0
    7.1316   28.6265   10.6438 C   0  0  0  0  0  0  0  0  0  0  0  0
    7.1272   28.8162   12.1905 C   0  0  0  0  0  0  0  0  0  0  0  0
    7.6806   30.1942   12.5656 C   0  0  0  0  0  0  0  0  0  0  0  0
    8.0538   27.7536   12.8346 C   0  0  0  0  0  0  0  0  0  0  0  0
    5.7007   28.5695   12.7975 C   0  0  0  0  0  0  0  0  0  0  0  0
    4.9451   30.7540   13.9647 C   0  0  0  0  0  0  0  0  0  0  0  0
    4.6012   29.6663   12.9421 C   0  0  0  0  0  0  0  0  0  0  0  0
    4.4752   30.3522   11.5537 C   0  0  0  0  0  0  0  0  0  0  0  0
    3.2196   29.0715   13.2685 C   0  0  0  0  0  0  0  0  0  0  0  0
    8.2745   26.9924    5.3931 N   0  0  0  0  0  0  0  0  0  0  0  0
    9.0873   26.0730    4.7715 C   0  0  0  0  0  0  0  0  0  0  0  0
   10.0369   26.3794    4.0516 O   0  0  0  0  0  0  0  0  0  0  0  0
    7.5406   26.6593    5.9585 H   0  0  0  0  0  0  0  0  0  0  0  0
    8.6675   24.6414    5.0435 C   0  0  0  0  0  0  0  0  0  0  0  0
    7.5029   24.2021    4.1546 C   0  0  0  0  0  0  0  0  0  0  0  0
    6.2839   23.7557    4.9333 C   0  0  0  0  0  0  0  0  0  0  0  0
    5.0423   24.3655    4.7123 C   0  0  0  0  0  0  0  0  0  0  0  0
    3.8976   23.9454    5.4023 C   0  0  0  0  0  0  0  0  0  0  0  0
    3.9612   22.8925    6.3235 C   0  0  0  0  0  0  0  0  0  0  0  0
    5.2055   22.2804    6.5395 C   0  0  0  0  0  0  0  0  0  0  0  0
    6.3489   22.7017    5.8497 C   0  0  0  0  0  0  0  0  0  0  0  0
    2.7464   22.4535    7.0303 C   0  0  0  0  0  0  0  0  0  0  0  0
    1.4204   22.7573    6.7701 C   0  0  0  0  0  0  0  0  0  0  0  0
    0.4925   22.1344    7.6675 C   0  0  0  0  0  0  0  0  0  0  0  0
    1.1611   21.3451    8.5864 C   0  0  0  0  0  0  0  0  0  0  0  0
    2.8572   21.3870    8.3728 S   0  0  0  0  0  0  0  0  0  0  0  0
   -0.9636   22.2425    7.6649 C   0  0  0  0  0  0  0  0  0  0  0  0
   -1.6076   23.3337    7.0633 C   0  0  0  0  0  0  0  0  0  0  0  0
   -3.0012   23.4281    7.0709 C   0  0  0  0  0  0  0  0  0  0  0  0
   -3.7659   22.4362    7.6796 C   0  0  0  0  0  0  0  0  0  0  0  0
   -3.1378   21.3461    8.2762 C   0  0  0  0  0  0  0  0  0  0  0  0
   -1.7429   21.2439    8.2633 C   0  0  0  0  0  0  0  0  0  0  0  0
    7.8262   28.8826    3.9144 C   0  0  0  0  0  0  0  0  0  0  0  0
    8.7271   29.5561    2.8771 C   0  0  0  0  0  0  0  0  0  0  0  0
    8.1357   29.5759    1.4883 C   0  0  0  0  0  0  0  0  0  0  0  0
    7.0063   28.8401    1.3256 N   0  0  0  0  0  0  0  0  0  0  0  0
    8.6175   30.2207    0.5612 O   0  0  0  0  0  0  0  0  0  0  0  0
    6.6373   28.3306    2.0829 H   0  0  0  0  0  0  0  0  0  0  0  0
    6.5563   28.8161    0.4503 H   0  0  0  0  0  0  0  0  0  0  0  0
 19 20  1  0
 20 21  1  0
 20 22  1  0
 20 18  1  0
 18 15  1  0
 15 16  1  0
 15 17  1  0
 15 14  1  0
 14 13  1  0
 13 12  1  0
  6 12  1  0
  6  2  1  0
  2  3  1  0
  3  4  2  0
  3  1  1  0
  1 46  1  0
 46 47  1  0
 47 48  1  0
 48 49  1  0
 48 50  2  0
  1 23  1  0
 23 24  1  0
 24 25  2  0
 24 27  1  0
 27 28  1  0
 28 29  1  0
 29 30  2  0
 30 31  1  0
 31 32  2  0
 32 35  1  0
 35 36  2  0
 36 37  1  0
 37 40  1  0
 40 41  2  0
 41 42  1  0
 42 43  2  0
 43 44  1  0
 44 45  2  0
 37 38  2  0
 38 39  1  0
 32 33  1  0
 33 34  2  0
  6  7  1  0
  7  8  1  0
  7  9  2  0
 34 29  1  0
 39 35  1  0
 45 40  1  0
  2  5  1  0
 49 51  1  0
 49 52  1  0
 23 26  1  0
  8 10  1  0
  8 11  1  0
M  END
> <minimizedAffinity>
-8.80817

> <CNNscore>
0.6813457012

> <CNNaffinity>
8.2328271866

> <CNN_VS>
5.6094012260

> <CNNaffinity_variance>
0.4019822776

$$$$



 52 54  0  0  0  0  0  0  0  0999 V2000
    8.5480   27.8435    5.4935 C   0  0  0  0  0  0  0  0  0  0  0  0
    8.3849   29.7861    7.0231 N   0  0  0  0  0  0  0  0  0  0  0  0
    7.8064   28.6007    6.6172 C   0  0  0  0  0  0  0  0  0  0  0  0
    6.7295   28.1998    7.0686 O   0  0  0  0  0  0  0  0  0  0  0  0
    9.0852   30.1815    6.4552 H   0  0  0  0  0  0  0  0  0  0  0  0
    8.0088   30.4939    8.2658 C   0  0  0  0  0  0  0  0  0  0  0  0
    7.3091   31.8838    8.1582 C   0  0  0  0  0  0  0  0  0  0  0  0
    6.1721   32.0834    8.8932 N   0  0  0  0  0  0  0  0  0  0  0  0
    7.7203   32.7891    7.4325 O   0  0  0  0  0  0  0  0  0  0  0  0
    5.8319   31.3680    9.4778 H   0  0  0  0  0  0  0  0  0  0  0  0
    5.6943   32.9424    8.8374 H   0  0  0  0  0  0  0  0  0  0  0  0
    9.2752   30.6851    9.1429 C   0  0  0  0  0  0  0  0  0  0  0  0
    9.5533   29.4881   10.0652 C   0  0  0  0  0  0  0  0  0  0  0  0
    8.3034   28.9126   10.7537 C   0  0  0  0  0  0  0  0  0  0  0  0
    8.5112   28.1771   12.1116 C   0  0  0  0  0  0  0  0  0  0  0  0
    8.5296   26.6596   11.9047 C   0  0  0  0  0  0  0  0  0  0  0  0
    7.3225   28.5023   13.0518 C   0  0  0  0  0  0  0  0  0  0  0  0
    9.7985   28.6860   12.8519 C   0  0  0  0  0  0  0  0  0  0  0  0
   11.2338   30.3841   14.1793 C   0  0  0  0  0  0  0  0  0  0  0  0
    9.8243   29.8748   13.8615 C   0  0  0  0  0  0  0  0  0  0  0  0
    9.0451   31.0405   13.1923 C   0  0  0  0  0  0  0  0  0  0  0  0
    9.0881   29.5460   15.1726 C   0  0  0  0  0  0  0  0  0  0  0  0
    7.9831   26.4882    5.4542 N   0  0  0  0  0  0  0  0  0  0  0  0
    8.7030   25.3776    5.0792 C   0  0  0  0  0  0  0  0  0  0  0  0
    9.8881   25.4126    4.7504 O   0  0  0  0  0  0  0  0  0  0  0  0
    7.0398   26.3683    5.7095 H   0  0  0  0  0  0  0  0  0  0  0  0
    7.8701   24.1103    5.0841 C   0  0  0  0  0  0  0  0  0  0  0  0
    6.5480   24.2850    4.3352 C   0  0  0  0  0  0  0  0  0  0  0  0
    5.3474   23.7732    5.1020 C   0  0  0  0  0  0  0  0  0  0  0  0
    4.0663   24.2630    4.8174 C   0  0  0  0  0  0  0  0  0  0  0  0
    2.9402   23.7795    5.4964 C   0  0  0  0  0  0  0  0  0  0  0  0
    3.0637   22.7808    6.4704 C   0  0  0  0  0  0  0  0  0  0  0  0
    4.3479   22.2887    6.7502 C   0  0  0  0  0  0  0  0  0  0  0  0
    5.4726   22.7734    6.0713 C   0  0  0  0  0  0  0  0  0  0  0  0
    1.8689   22.2733    7.1652 C   0  0  0  0  0  0  0  0  0  0  0  0
    0.5560   22.7075    7.0864 C   0  0  0  0  0  0  0  0  0  0  0  0
   -0.3549   21.9615    7.9039 C   0  0  0  0  0  0  0  0  0  0  0  0
    0.3107   20.9508    8.5746 C   0  0  0  0  0  0  0  0  0  0  0  0
    1.9866   20.9342    8.2353 S   0  0  0  0  0  0  0  0  0  0  0  0
   -1.7951   22.1568    8.0448 C   0  0  0  0  0  0  0  0  0  0  0  0
   -2.6501   21.0763    8.3066 C   0  0  0  0  0  0  0  0  0  0  0  0
   -4.0267   21.2751    8.4351 C   0  0  0  0  0  0  0  0  0  0  0  0
   -4.5640   22.5529    8.3025 C   0  0  0  0  0  0  0  0  0  0  0  0
   -3.7245   23.6339    8.0470 C   0  0  0  0  0  0  0  0  0  0  0  0
   -2.3445   23.4399    7.9258 C   0  0  0  0  0  0  0  0  0  0  0  0
    8.3642   28.4864    4.1043 C   0  0  0  0  0  0  0  0  0  0  0  0
    8.3417   27.5782    2.8731 C   0  0  0  0  0  0  0  0  0  0  0  0
    8.1211   28.3238    1.5791 C   0  0  0  0  0  0  0  0  0  0  0  0
    6.8384   28.6936    1.3312 N   0  0  0  0  0  0  0  0  0  0  0  0
    9.0283   28.6021    0.7999 O   0  0  0  0  0  0  0  0  0  0  0  0
    6.1265   28.4598    1.9699 H   0  0  0  0  0  0  0  0  0  0  0  0
    6.6201   29.1954    0.5128 H   0  0  0  0  0  0  0  0  0  0  0  0
 19 20  1  0
 20 21  1  0
 20 22  1  0
 20 18  1  0
 18 15  1  0
 15 16  1  0
 15 17  1  0
 15 14  1  0
 14 13  1  0
 13 12  1  0
  6 12  1  0
  6  2  1  0
  2  3  1  0
  3  4  2  0
  3  1  1  0
  1 46  1  0
 46 47  1  0
 47 48  1  0
 48 49  1  0
 48 50  2  0
  1 23  1  0
 23 24  1  0
 24 25  2  0
 24 27  1  0
 27 28  1  0
 28 29  1  0
 29 30  2  0
 30 31  1  0
 31 32  2  0
 32 35  1  0
 35 36  2  0
 36 37  1  0
 37 40  1  0
 40 41  2  0
 41 42  1  0
 42 43  2  0
 43 44  1  0
 44 45  2  0
 37 38  2  0
 38 39  1  0
 32 33  1  0
 33 34  2  0
  6  7  1  0
  7  8  1  0
  7  9  2  0
 34 29  1  0
 39 35  1  0
 45 40  1  0
  2  5  1  0
 49 51  1  0
 49 52  1  0
 23 26  1  0
  8 10  1  0
  8 11  1  0
M  END
> <minimizedAffinity>
-8.90156

> <CNNscore>
0.6656141281

> <CNNaffinity>
8.2438192368

> <CNN_VS>
5.4872026443

> <CNNaffinity_variance>
0.4916743338

$$$$



 52 54  0  0  0  0  0  0  0  0999 V2000
    8.7996   27.5538    4.0661 C   0  0  0  0  0  0  0  0  0  0  0  0
    8.2492   29.0223    5.9846 N   0  0  0  0  0  0  0  0  0  0  0  0
    8.4206   28.9461    4.6173 C   0  0  0  0  0  0  0  0  0  0  0  0
    8.3464   29.9363    3.8836 O   0  0  0  0  0  0  0  0  0  0  0  0
    8.5752   28.2758    6.5375 H   0  0  0  0  0  0  0  0  0  0  0  0
    7.6020   30.1656    6.6632 C   0  0  0  0  0  0  0  0  0  0  0  0
    8.4603   31.4224    7.0048 C   0  0  0  0  0  0  0  0  0  0  0  0
    8.2650   32.5505    6.2550 N   0  0  0  0  0  0  0  0  0  0  0  0
    9.3101   31.4344    7.8954 O   0  0  0  0  0  0  0  0  0  0  0  0
    7.5888   32.5550    5.5395 H   0  0  0  0  0  0  0  0  0  0  0  0
    8.8007   33.3575    6.4311 H   0  0  0  0  0  0  0  0  0  0  0  0
    6.9639   29.6723    7.9895 C   0  0  0  0  0  0  0  0  0  0  0  0
    7.9078   28.7862    8.8170 C   0  0  0  0  0  0  0  0  0  0  0  0
    7.2559   28.1463   10.0551 C   0  0  0  0  0  0  0  0  0  0  0  0
    8.0293   28.2516   11.4038 C   0  0  0  0  0  0  0  0  0  0  0  0
    9.3124   29.0687   11.2263 C   0  0  0  0  0  0  0  0  0  0  0  0
    8.4446   26.8305   11.8627 C   0  0  0  0  0  0  0  0  0  0  0  0
    7.1193   28.8253   12.5470 C   0  0  0  0  0  0  0  0  0  0  0  0
    7.6864   27.1689   14.4550 C   0  0  0  0  0  0  0  0  0  0  0  0
    7.3818   28.6204   14.0708 C   0  0  0  0  0  0  0  0  0  0  0  0
    8.6341   29.4702   14.4222 C   0  0  0  0  0  0  0  0  0  0  0  0
    6.2285   29.1518   14.9407 C   0  0  0  0  0  0  0  0  0  0  0  0
    7.9860   26.5744    4.7987 N   0  0  0  0  0  0  0  0  0  0  0  0
    8.4253   25.3099    5.1158 C   0  0  0  0  0  0  0  0  0  0  0  0
    9.5419   24.8832    4.8243 O   0  0  0  0  0  0  0  0  0  0  0  0
    7.0789   26.8366    5.0773 H   0  0  0  0  0  0  0  0  0  0  0  0
    7.3737   24.4876    5.8352 C   0  0  0  0  0  0  0  0  0  0  0  0
    6.3711   23.8575    4.8671 C   0  0  0  0  0  0  0  0  0  0  0  0
    5.1013   23.3799    5.5388 C   0  0  0  0  0  0  0  0  0  0  0  0
    3.8571   23.8808    5.1348 C   0  0  0  0  0  0  0  0  0  0  0  0
    2.6696   23.4285    5.7248 C   0  0  0  0  0  0  0  0  0  0  0  0
    2.6936   22.4507    6.7271 C   0  0  0  0  0  0  0  0  0  0  0  0
    3.9412   21.9474    7.1267 C   0  0  0  0  0  0  0  0  0  0  0  0
    5.1274   22.4009    6.5367 C   0  0  0  0  0  0  0  0  0  0  0  0
    1.4359   21.9758    7.3275 C   0  0  0  0  0  0  0  0  0  0  0  0
    0.1801   22.5598    7.3133 C   0  0  0  0  0  0  0  0  0  0  0  0
   -0.8241   21.8000    7.9980 C   0  0  0  0  0  0  0  0  0  0  0  0
   -0.2871   20.6289    8.5023 C   0  0  0  0  0  0  0  0  0  0  0  0
    1.3840   20.4802    8.1716 S   0  0  0  0  0  0  0  0  0  0  0  0
   -2.2372   22.1292    8.1623 C   0  0  0  0  0  0  0  0  0  0  0  0
   -2.6805   23.4591    8.1203 C   0  0  0  0  0  0  0  0  0  0  0  0
   -4.0344   23.7617    8.2830 C   0  0  0  0  0  0  0  0  0  0  0  0
   -4.9590   22.7413    8.4904 C   0  0  0  0  0  0  0  0  0  0  0  0
   -4.5311   21.4169    8.5296 C   0  0  0  0  0  0  0  0  0  0  0  0
   -3.1773   21.1093    8.3589 C   0  0  0  0  0  0  0  0  0  0  0  0
    8.5086   27.3970    2.5603 C   0  0  0  0  0  0  0  0  0  0  0  0
    9.1179   26.2072    1.8156 C   0  0  0  0  0  0  0  0  0  0  0  0
    8.0982   25.1809    1.3842 C   0  0  0  0  0  0  0  0  0  0  0  0
    6.8027   25.5121    1.6197 N   0  0  0  0  0  0  0  0  0  0  0  0
    8.3984   24.1219    0.8402 O   0  0  0  0  0  0  0  0  0  0  0  0
    6.5849   26.3666    2.0574 H   0  0  0  0  0  0  0  0  0  0  0  0
    6.0812   24.8977    1.3529 H   0  0  0  0  0  0  0  0  0  0  0  0
 19 20  1  0
 20 21  1  0
 20 22  1  0
 20 18  1  0
 18 15  1  0
 15 16  1  0
 15 17  1  0
 15 14  1  0
 14 13  1  0
 13 12  1  0
  6 12  1  0
  6  2  1  0
  2  3  1  0
  3  4  2  0
  3  1  1  0
  1 46  1  0
 46 47  1  0
 47 48  1  0
 48 49  1  0
 48 50  2  0
  1 23  1  0
 23 24  1  0
 24 25  2  0
 24 27  1  0
 27 28  1  0
 28 29  1  0
 29 30  2  0
 30 31  1  0
 31 32  2  0
 32 35  1  0
 35 36  2  0
 36 37  1  0
 37 40  1  0
 40 41  2  0
 41 42  1  0
 42 43  2  0
 43 44  1  0
 44 45  2  0
 37 38  2  0
 38 39  1  0
 32 33  1  0
 33 34  2  0
  6  7  1  0
  7  8  1  0
  7  9  2  0
 34 29  1  0
 39 35  1  0
 45 40  1  0
  2  5  1  0
 49 51  1  0
 49 52  1  0
 23 26  1  0
  8 10  1  0
  8 11  1  0
M  END
> <minimizedAffinity>
-9.94608

> <CNNscore>
0.6579540372

> <CNNaffinity>
8.2474899292

> <CNN_VS>
5.4264693260

> <CNNaffinity_variance>
0.3823492527

$$$$



 52 54  0  0  0  0  0  0  0  0999 V2000
    8.1164   28.3802    3.5341 C   0  0  0  0  0  0  0  0  0  0  0  0
    8.3041   26.7457    1.6812 N   0  0  0  0  0  0  0  0  0  0  0  0
    8.3333   28.0795    2.0346 C   0  0  0  0  0  0  0  0  0  0  0  0
    8.4543   28.9833    1.2024 O   0  0  0  0  0  0  0  0  0  0  0  0
    7.9460   26.0989    2.3314 H   0  0  0  0  0  0  0  0  0  0  0  0
    8.7822   26.2364    0.3779 C   0  0  0  0  0  0  0  0  0  0  0  0
    8.4323   24.7729   -0.0328 C   0  0  0  0  0  0  0  0  0  0  0  0
    8.0719   24.5447   -1.3331 N   0  0  0  0  0  0  0  0  0  0  0  0
    8.4461   23.8307    0.7595 O   0  0  0  0  0  0  0  0  0  0  0  0
    8.0565   25.2889   -1.9774 H   0  0  0  0  0  0  0  0  0  0  0  0
    7.8281   23.6364   -1.6242 H   0  0  0  0  0  0  0  0  0  0  0  0
   10.3273   26.3725    0.3168 C   0  0  0  0  0  0  0  0  0  0  0  0
   10.8871   26.2282   -1.1068 C   0  0  0  0  0  0  0  0  0  0  0  0
   11.5829   27.4898   -1.6468 C   0  0  0  0  0  0  0  0  0  0  0  0
   13.1384   27.4640   -1.7366 C   0  0  0  0  0  0  0  0  0  0  0  0
   13.5917   26.7823   -3.0311 C   0  0  0  0  0  0  0  0  0  0  0  0
   13.7011   26.6344   -0.5544 C   0  0  0  0  0  0  0  0  0  0  0  0
   13.7487   28.9021   -1.5836 C   0  0  0  0  0  0  0  0  0  0  0  0
   15.6785   30.1624   -0.4032 C   0  0  0  0  0  0  0  0  0  0  0  0
   15.2767   29.2121   -1.5357 C   0  0  0  0  0  0  0  0  0  0  0  0
   15.9953   27.8572   -1.2870 C   0  0  0  0  0  0  0  0  0  0  0  0
   15.8068   29.7545   -2.8751 C   0  0  0  0  0  0  0  0  0  0  0  0
    7.9222   27.0854    4.2001 N   0  0  0  0  0  0  0  0  0  0  0  0
    8.9449   26.1993    4.4473 C   0  0  0  0  0  0  0  0  0  0  0  0
   10.1181   26.4102    4.1425 O   0  0  0  0  0  0  0  0  0  0  0  0
    7.0124   26.8390    4.4846 H   0  0  0  0  0  0  0  0  0  0  0  0
    8.4656   24.9206    5.1070 C   0  0  0  0  0  0  0  0  0  0  0  0
    7.5156   24.1277    4.2079 C   0  0  0  0  0  0  0  0  0  0  0  0
    6.2462   23.6907    4.9073 C   0  0  0  0  0  0  0  0  0  0  0  0
    6.2740   22.6338    5.8262 C   0  0  0  0  0  0  0  0  0  0  0  0
    5.1149   22.2351    6.5047 C   0  0  0  0  0  0  0  0  0  0  0  0
    3.8971   22.8934    6.2925 C   0  0  0  0  0  0  0  0  0  0  0  0
    3.8732   23.9548    5.3747 C   0  0  0  0  0  0  0  0  0  0  0  0
    5.0323   24.3518    4.6967 C   0  0  0  0  0  0  0  0  0  0  0  0
    2.6908   22.4714    7.0238 C   0  0  0  0  0  0  0  0  0  0  0  0
    1.3612   22.7617    6.7668 C   0  0  0  0  0  0  0  0  0  0  0  0
    0.4443   22.1628    7.6916 C   0  0  0  0  0  0  0  0  0  0  0  0
    1.1248   21.4048    8.6279 C   0  0  0  0  0  0  0  0  0  0  0  0
    2.8187   21.4470    8.3972 S   0  0  0  0  0  0  0  0  0  0  0  0
   -1.0123   22.2649    7.6993 C   0  0  0  0  0  0  0  0  0  0  0  0
   -1.6556   23.4667    7.3694 C   0  0  0  0  0  0  0  0  0  0  0  0
   -3.0497   23.5532    7.3845 C   0  0  0  0  0  0  0  0  0  0  0  0
   -3.8155   22.4427    7.7300 C   0  0  0  0  0  0  0  0  0  0  0  0
   -3.1879   21.2430    8.0551 C   0  0  0  0  0  0  0  0  0  0  0  0
   -1.7924   21.1503    8.0331 C   0  0  0  0  0  0  0  0  0  0  0  0
    9.3177   29.0886    4.1913 C   0  0  0  0  0  0  0  0  0  0  0  0
    9.1177   30.4939    4.7625 C   0  0  0  0  0  0  0  0  0  0  0  0
    9.8304   31.5694    3.9786 C   0  0  0  0  0  0  0  0  0  0  0  0
   10.4398   32.5267    4.7241 N   0  0  0  0  0  0  0  0  0  0  0  0
    9.8821   31.5853    2.7520 O   0  0  0  0  0  0  0  0  0  0  0  0
   10.3854   32.4943    5.7066 H   0  0  0  0  0  0  0  0  0  0  0  0
   10.9361   33.2531    4.2822 H   0  0  0  0  0  0  0  0  0  0  0  0
 19 20  1  0
 20 21  1  0
 20 22  1  0
 20 18  1  0
 18 15  1  0
 15 16  1  0
 15 17  1  0
 15 14  1  0
 14 13  1  0
 13 12  1  0
  6 12  1  0
  6  2  1  0
  2  3  1  0
  3  4  2  0
  3  1  1  0
  1 46  1  0
 46 47  1  0
 47 48  1  0
 48 49  1  0
 48 50  2  0
  1 23  1  0
 23 24  1  0
 24 25  2  0
 24 27  1  0
 27 28  1  0
 28 29  1  0
 29 30  2  0
 30 31  1  0
 31 32  2  0
 32 35  1  0
 35 36  2  0
 36 37  1  0
 37 40  1  0
 40 41  2  0
 41 42  1  0
 42 43  2  0
 43 44  1  0
 44 45  2  0
 37 38  2  0
 38 39  1  0
 32 33  1  0
 33 34  2  0
  6  7  1  0
  7  8  1  0
  7  9  2  0
 34 29  1  0
 39 35  1  0
 45 40  1  0
  2  5  1  0
 49 51  1  0
 49 52  1  0
 23 26  1  0
  8 10  1  0
  8 11  1  0
M  END
> <minimizedAffinity>
-9.62767

> <CNNscore>
0.5610510111

> <CNNaffinity>
7.9290757179

> <CNN_VS>
4.4486160278

> <CNNaffinity_variance>
0.6050644517

$$$$



 52 54  0  0  0  0  0  0  0  0999 V2000
    7.1592   24.7150    4.9321 C   0  0  0  0  0  0  0  0  0  0  0  0
    8.4898   26.8032    4.8388 N   0  0  0  0  0  0  0  0  0  0  0  0
    7.3349   26.2048    5.3001 C   0  0  0  0  0  0  0  0  0  0  0  0
    6.4612   26.8305    5.9078 O   0  0  0  0  0  0  0  0  0  0  0  0
    9.0125   26.3364    4.1473 H   0  0  0  0  0  0  0  0  0  0  0  0
    8.9838   28.1082    5.3279 C   0  0  0  0  0  0  0  0  0  0  0  0
    8.0998   28.9235    6.3214 C   0  0  0  0  0  0  0  0  0  0  0  0
    8.2217   28.6482    7.6563 N   0  0  0  0  0  0  0  0  0  0  0  0
    7.2922   29.7782    5.9569 O   0  0  0  0  0  0  0  0  0  0  0  0
    8.8636   27.9671    7.9619 H   0  0  0  0  0  0  0  0  0  0  0  0
    7.6675   29.1312    8.3112 H   0  0  0  0  0  0  0  0  0  0  0  0
    9.2740   29.0282    4.1117 C   0  0  0  0  0  0  0  0  0  0  0  0
    8.4368   28.6696    2.8742 C   0  0  0  0  0  0  0  0  0  0  0  0
    7.5790   29.8256    2.3308 C   0  0  0  0  0  0  0  0  0  0  0  0
    7.9987   30.4445    0.9636 C   0  0  0  0  0  0  0  0  0  0  0  0
    8.8839   29.4702    0.1807 C   0  0  0  0  0  0  0  0  0  0  0  0
    8.8338   31.7246    1.2214 C   0  0  0  0  0  0  0  0  0  0  0  0
    6.7499   30.9044    0.1312 C   0  0  0  0  0  0  0  0  0  0  0  0
    4.5964   32.2483   -0.3809 C   0  0  0  0  0  0  0  0  0  0  0  0
    5.8483   32.1246    0.4936 C   0  0  0  0  0  0  0  0  0  0  0  0
    5.3768   31.9069    1.9579 C   0  0  0  0  0  0  0  0  0  0  0  0
    6.6246   33.4536    0.4718 C   0  0  0  0  0  0  0  0  0  0  0  0
    5.7515   24.3809    5.1864 N   0  0  0  0  0  0  0  0  0  0  0  0
    5.3492   23.2341    5.8308 C   0  0  0  0  0  0  0  0  0  0  0  0
    6.1288   22.3855    6.2622 O   0  0  0  0  0  0  0  0  0  0  0  0
    5.0598   25.0106    4.8795 H   0  0  0  0  0  0  0  0  0  0  0  0
    3.8405   23.1129    5.9241 C   0  0  0  0  0  0  0  0  0  0  0  0
    3.4067   22.1013    6.9861 C   0  0  0  0  0  0  0  0  0  0  0  0
    1.9108   22.0711    7.2161 C   0  0  0  0  0  0  0  0  0  0  0  0
    1.3479   21.1225    8.0794 C   0  0  0  0  0  0  0  0  0  0  0  0
   -0.0309   21.0985    8.3270 C   0  0  0  0  0  0  0  0  0  0  0  0
   -0.8838   22.0337    7.7275 C   0  0  0  0  0  0  0  0  0  0  0  0
   -0.3165   22.9858    6.8666 C   0  0  0  0  0  0  0  0  0  0  0  0
    1.0616   23.0082    6.6195 C   0  0  0  0  0  0  0  0  0  0  0  0
   -2.3287   22.0041    8.0089 C   0  0  0  0  0  0  0  0  0  0  0  0
   -3.1273   20.9396    8.3928 C   0  0  0  0  0  0  0  0  0  0  0  0
   -4.5038   21.2857    8.5927 C   0  0  0  0  0  0  0  0  0  0  0  0
   -4.7024   22.6363    8.3679 C   0  0  0  0  0  0  0  0  0  0  0  0
   -3.2657   23.4406    7.9062 S   0  0  0  0  0  0  0  0  0  0  0  0
   -5.5964   20.4071    9.0008 C   0  0  0  0  0  0  0  0  0  0  0  0
   -5.4207   19.4578   10.0181 C   0  0  0  0  0  0  0  0  0  0  0  0
   -6.4722   18.6200   10.3968 C   0  0  0  0  0  0  0  0  0  0  0  0
   -7.7086   18.7199    9.7640 C   0  0  0  0  0  0  0  0  0  0  0  0
   -7.8961   19.6616    8.7557 C   0  0  0  0  0  0  0  0  0  0  0  0
   -6.8479   20.5079    8.3794 C   0  0  0  0  0  0  0  0  0  0  0  0
    7.4696   24.4143    3.4522 C   0  0  0  0  0  0  0  0  0  0  0  0
    7.7623   25.5851    2.5116 C   0  0  0  0  0  0  0  0  0  0  0  0
    8.2203   25.1547    1.1390 C   0  0  0  0  0  0  0  0  0  0  0  0
    7.5465   24.1050    0.6027 N   0  0  0  0  0  0  0  0  0  0  0  0
    9.1256   25.7135    0.5260 O   0  0  0  0  0  0  0  0  0  0  0  0
    6.8239   23.6718    1.1121 H   0  0  0  0  0  0  0  0  0  0  0  0
    7.7805   23.7771   -0.2957 H   0  0  0  0  0  0  0  0  0  0  0  0
 19 20  1  0
 20 21  1  0
 20 22  1  0
 20 18  1  0
 18 15  1  0
 15 16  1  0
 15 17  1  0
 15 14  1  0
 14 13  1  0
 13 12  1  0
  6 12  1  0
  6  2  1  0
  2  3  1  0
  3  4  2  0
  3  1  1  0
  1 46  1  0
 46 47  1  0
 47 48  1  0
 48 49  1  0
 48 50  2  0
  1 23  1  0
 23 24  1  0
 24 25  2  0
 24 27  1  0
 27 28  1  0
 28 29  1  0
 29 30  2  0
 30 31  1  0
 31 32  2  0
 32 35  1  0
 35 36  2  0
 36 37  1  0
 37 40  1  0
 40 41  2  0
 41 42  1  0
 42 43  2  0
 43 44  1  0
 44 45  2  0
 37 38  2  0
 38 39  1  0
 32 33  1  0
 33 34  2  0
  6  7  1  0
  7  8  1  0
  7  9  2  0
 34 29  1  0
 39 35  1  0
 45 40  1  0
  2  5  1  0
 49 51  1  0
 49 52  1  0
 23 26  1  0
  8 10  1  0
  8 11  1  0
M  END
> <minimizedAffinity>
-9.54761

> <CNNscore>
0.5452260971

> <CNNaffinity>
7.7955017090

> <CNN_VS>
4.2503108978

> <CNNaffinity_variance>
0.2389680147

$$$$



 52 54  0  0  0  0  0  0  0  0999 V2000
    8.4025   26.8571    2.3073 C   0  0  0  0  0  0  0  0  0  0  0  0
    7.4456   28.9889    1.4828 N   0  0  0  0  0  0  0  0  0  0  0  0
    8.2486   28.3890    2.4315 C   0  0  0  0  0  0  0  0  0  0  0  0
    8.7576   29.0189    3.3634 O   0  0  0  0  0  0  0  0  0  0  0  0
    6.8635   28.4148    0.9344 H   0  0  0  0  0  0  0  0  0  0  0  0
    7.4131   30.4482    1.2463 C   0  0  0  0  0  0  0  0  0  0  0  0
    8.6998   31.2848    1.5247 C   0  0  0  0  0  0  0  0  0  0  0  0
    8.7856   31.9426    2.7216 N   0  0  0  0  0  0  0  0  0  0  0  0
    9.6195   31.3935    0.7137 O   0  0  0  0  0  0  0  0  0  0  0  0
    8.0574   31.8646    3.3795 H   0  0  0  0  0  0  0  0  0  0  0  0
    9.5756   32.4939    2.9248 H   0  0  0  0  0  0  0  0  0  0  0  0
    6.2691   31.0726    2.0897 C   0  0  0  0  0  0  0  0  0  0  0  0
    5.5396   32.2123    1.3618 C   0  0  0  0  0  0  0  0  0  0  0  0
    4.1084   32.4727    1.8628 C   0  0  0  0  0  0  0  0  0  0  0  0
    3.6302   33.9547    1.9187 C   0  0  0  0  0  0  0  0  0  0  0  0
    4.6041   34.8636    1.1629 C   0  0  0  0  0  0  0  0  0  0  0  0
    3.6084   34.4253    3.3955 C   0  0  0  0  0  0  0  0  0  0  0  0
    2.1578   34.1056    1.3961 C   0  0  0  0  0  0  0  0  0  0  0  0
    0.4074   32.3736    0.5948 C   0  0  0  0  0  0  0  0  0  0  0  0
    0.9828   33.1545    1.7807 C   0  0  0  0  0  0  0  0  0  0  0  0
    1.5615   32.1205    2.7856 C   0  0  0  0  0  0  0  0  0  0  0  0
   -0.1535   33.8926    2.5108 C   0  0  0  0  0  0  0  0  0  0  0  0
    7.6809   26.2672    3.4427 N   0  0  0  0  0  0  0  0  0  0  0  0
    8.3007   25.5779    4.4590 C   0  0  0  0  0  0  0  0  0  0  0  0
    9.5164   25.3978    4.5180 O   0  0  0  0  0  0  0  0  0  0  0  0
    6.7025   26.3707    3.4781 H   0  0  0  0  0  0  0  0  0  0  0  0
    7.3211   25.0363    5.4821 C   0  0  0  0  0  0  0  0  0  0  0  0
    7.0040   23.5578    5.2522 C   0  0  0  0  0  0  0  0  0  0  0  0
    5.6355   23.1486    5.7534 C   0  0  0  0  0  0  0  0  0  0  0  0
    5.5031   22.0891    6.6601 C   0  0  0  0  0  0  0  0  0  0  0  0
    4.2476   21.7157    7.1572 C   0  0  0  0  0  0  0  0  0  0  0  0
    3.0898   22.4025    6.7709 C   0  0  0  0  0  0  0  0  0  0  0  0
    3.2260   23.4664    5.8659 C   0  0  0  0  0  0  0  0  0  0  0  0
    4.4814   23.8381    5.3693 C   0  0  0  0  0  0  0  0  0  0  0  0
    1.7793   22.0068    7.3131 C   0  0  0  0  0  0  0  0  0  0  0  0
    0.5631   22.6653    7.2398 C   0  0  0  0  0  0  0  0  0  0  0  0
   -0.5157   21.9704    7.8785 C   0  0  0  0  0  0  0  0  0  0  0  0
   -0.0742   20.7712    8.4089 C   0  0  0  0  0  0  0  0  0  0  0  0
    1.5983   20.5207    8.1562 S   0  0  0  0  0  0  0  0  0  0  0  0
   -1.9124   22.3848    7.9765 C   0  0  0  0  0  0  0  0  0  0  0  0
   -2.2948   23.7090    7.7170 C   0  0  0  0  0  0  0  0  0  0  0  0
   -3.6336   24.0942    7.8182 C   0  0  0  0  0  0  0  0  0  0  0  0
   -4.6036   23.1632    8.1806 C   0  0  0  0  0  0  0  0  0  0  0  0
   -4.2365   21.8448    8.4364 C   0  0  0  0  0  0  0  0  0  0  0  0
   -2.8980   21.4533    8.3279 C   0  0  0  0  0  0  0  0  0  0  0  0
    7.8039   26.2903    1.0045 C   0  0  0  0  0  0  0  0  0  0  0  0
    7.9710   24.7983    0.7089 C   0  0  0  0  0  0  0  0  0  0  0  0
    9.2181   24.4766   -0.0786 C   0  0  0  0  0  0  0  0  0  0  0  0
   10.2582   25.3302    0.1031 N   0  0  0  0  0  0  0  0  0  0  0  0
    9.3114   23.5049   -0.8234 O   0  0  0  0  0  0  0  0  0  0  0  0
   10.1613   26.1032    0.7051 H   0  0  0  0  0  0  0  0  0  0  0  0
   11.1093   25.1762   -0.3671 H   0  0  0  0  0  0  0  0  0  0  0  0
 19 20  1  0
 20 21  1  0
 20 22  1  0
 20 18  1  0
 18 15  1  0
 15 16  1  0
 15 17  1  0
 15 14  1  0
 14 13  1  0
 13 12  1  0
  6 12  1  0
  6  2  1  0
  2  3  1  0
  3  4  2  0
  3  1  1  0
  1 46  1  0
 46 47  1  0
 47 48  1  0
 48 49  1  0
 48 50  2  0
  1 23  1  0
 23 24  1  0
 24 25  2  0
 24 27  1  0
 27 28  1  0
 28 29  1  0
 29 30  2  0
 30 31  1  0
 31 32  2  0
 32 35  1  0
 35 36  2  0
 36 37  1  0
 37 40  1  0
 40 41  2  0
 41 42  1  0
 42 43  2  0
 43 44  1  0
 44 45  2  0
 37 38  2  0
 38 39  1  0
 32 33  1  0
 33 34  2  0
  6  7  1  0
  7  8  1  0
  7  9  2  0
 34 29  1  0
 39 35  1  0
 45 40  1  0
  2  5  1  0
 49 51  1  0
 49 52  1  0
 23 26  1  0
  8 10  1  0
  8 11  1  0
M  END
> <minimizedAffinity>
-8.98815

> <CNNscore>
0.5138235688

> <CNNaffinity>
7.8277592659

> <CNN_VS>
4.0220870972

> <CNNaffinity_variance>
0.7891960740

$$$$



 52 54  0  0  0  0  0  0  0  0999 V2000
    8.0325   28.4726    5.8107 C   0  0  0  0  0  0  0  0  0  0  0  0
    6.9103   30.1369    7.2637 N   0  0  0  0  0  0  0  0  0  0  0  0
    7.3052   28.8214    7.1281 C   0  0  0  0  0  0  0  0  0  0  0  0
    7.0365   27.9585    7.9691 O   0  0  0  0  0  0  0  0  0  0  0  0
    6.9149   30.7098    6.4632 H   0  0  0  0  0  0  0  0  0  0  0  0
    6.4808   30.7313    8.5477 C   0  0  0  0  0  0  0  0  0  0  0  0
    4.9795   31.1102    8.7371 C   0  0  0  0  0  0  0  0  0  0  0  0
    4.1454   30.1636    9.2671 N   0  0  0  0  0  0  0  0  0  0  0  0
    4.5162   32.2039    8.4137 O   0  0  0  0  0  0  0  0  0  0  0  0
    4.5025   29.2846    9.5301 H   0  0  0  0  0  0  0  0  0  0  0  0
    3.1883   30.3616    9.3855 H   0  0  0  0  0  0  0  0  0  0  0  0
    7.3142   32.0131    8.8164 C   0  0  0  0  0  0  0  0  0  0  0  0
    8.8261   31.7454    8.8736 C   0  0  0  0  0  0  0  0  0  0  0  0
    9.6055   32.6979    9.7970 C   0  0  0  0  0  0  0  0  0  0  0  0
    9.4384   32.4983   11.3334 C   0  0  0  0  0  0  0  0  0  0  0  0
    9.0143   33.8086   12.0036 C   0  0  0  0  0  0  0  0  0  0  0  0
   10.8028   32.0865   11.9428 C   0  0  0  0  0  0  0  0  0  0  0  0
    8.4489   31.3238   11.6580 C   0  0  0  0  0  0  0  0  0  0  0  0
   10.0717   29.3616   11.1867 C   0  0  0  0  0  0  0  0  0  0  0  0
    8.8903   29.8717   12.0181 C   0  0  0  0  0  0  0  0  0  0  0  0
    9.3425   29.9026   13.5042 C   0  0  0  0  0  0  0  0  0  0  0  0
    7.7274   28.8671   11.9305 C   0  0  0  0  0  0  0  0  0  0  0  0
    8.0007   27.0094    5.6860 N   0  0  0  0  0  0  0  0  0  0  0  0
    8.9507   26.2861    5.0029 C   0  0  0  0  0  0  0  0  0  0  0  0
    9.9198   26.7941    4.4403 O   0  0  0  0  0  0  0  0  0  0  0  0
    7.2607   26.5207    6.1137 H   0  0  0  0  0  0  0  0  0  0  0  0
    8.6577   24.7982    4.9909 C   0  0  0  0  0  0  0  0  0  0  0  0
    7.4642   24.4517    4.0994 C   0  0  0  0  0  0  0  0  0  0  0  0
    6.2564   23.9632    4.8703 C   0  0  0  0  0  0  0  0  0  0  0  0
    4.9837   24.4761    4.5884 C   0  0  0  0  0  0  0  0  0  0  0  0
    3.8508   24.0144    5.2712 C   0  0  0  0  0  0  0  0  0  0  0  0
    3.9586   23.0150    6.2464 C   0  0  0  0  0  0  0  0  0  0  0  0
    5.2342   22.4998    6.5235 C   0  0  0  0  0  0  0  0  0  0  0  0
    6.3658   22.9626    5.8408 C   0  0  0  0  0  0  0  0  0  0  0  0
    2.7565   22.5306    6.9452 C   0  0  0  0  0  0  0  0  0  0  0  0
    1.4241   22.8254    6.7086 C   0  0  0  0  0  0  0  0  0  0  0  0
    0.5132   22.1538    7.5881 C   0  0  0  0  0  0  0  0  0  0  0  0
    1.2011   21.3381    8.4689 C   0  0  0  0  0  0  0  0  0  0  0  0
    2.8944   21.4130    8.2428 S   0  0  0  0  0  0  0  0  0  0  0  0
   -0.9443   22.2409    7.6021 C   0  0  0  0  0  0  0  0  0  0  0  0
   -1.6001   23.4499    7.3276 C   0  0  0  0  0  0  0  0  0  0  0  0
   -2.9949   23.5217    7.3482 C   0  0  0  0  0  0  0  0  0  0  0  0
   -3.7491   22.3891    7.6440 C   0  0  0  0  0  0  0  0  0  0  0  0
   -3.1092   21.1823    7.9138 C   0  0  0  0  0  0  0  0  0  0  0  0
   -1.7129   21.1045    7.8860 C   0  0  0  0  0  0  0  0  0  0  0  0
    7.3576   29.0807    4.5651 C   0  0  0  0  0  0  0  0  0  0  0  0
    8.2437   29.6047    3.4331 C   0  0  0  0  0  0  0  0  0  0  0  0
    9.0744   30.8030    3.8243 C   0  0  0  0  0  0  0  0  0  0  0  0
    8.4521   32.0046    3.7127 N   0  0  0  0  0  0  0  0  0  0  0  0
   10.2285   30.7166    4.2343 O   0  0  0  0  0  0  0  0  0  0  0  0
    7.5262   32.0505    3.3815 H   0  0  0  0  0  0  0  0  0  0  0  0
    8.9269   32.8299    3.9631 H   0  0  0  0  0  0  0  0  0  0  0  0
 19 20  1  0
 20 21  1  0
 20 22  1  0
 20 18  1  0
 18 15  1  0
 15 16  1  0
 15 17  1  0
 15 14  1  0
 14 13  1  0
 13 12  1  0
  6 12  1  0
  6  2  1  0
  2  3  1  0
  3  4  2  0
  3  1  1  0
  1 46  1  0
 46 47  1  0
 47 48  1  0
 48 49  1  0
 48 50  2  0
  1 23  1  0
 23 24  1  0
 24 25  2  0
 24 27  1  0
 27 28  1  0
 28 29  1  0
 29 30  2  0
 30 31  1  0
 31 32  2  0
 32 35  1  0
 35 36  2  0
 36 37  1  0
 37 40  1  0
 40 41  2  0
 41 42  1  0
 42 43  2  0
 43 44  1  0
 44 45  2  0
 37 38  2  0
 38 39  1  0
 32 33  1  0
 33 34  2  0
  6  7  1  0
  7  8  1  0
  7  9  2  0
 34 29  1  0
 39 35  1  0
 45 40  1  0
  2  5  1  0
 49 51  1  0
 49 52  1  0
 23 26  1  0
  8 10  1  0
  8 11  1  0
M  END
> <minimizedAffinity>
-8.15078

> <CNNscore>
0.4993527830

> <CNNaffinity>
8.0456094742

> <CNN_VS>
4.0175976753

> <CNNaffinity_variance>
0.4445838034

$$$$
