


 42 43  0  0  0  0  0  0  0  0999 V2000
   35.9921   42.5704   -5.7334 P   0  0  0  0  0  0  0  0  0  0  0  0
   37.3866   42.8482   -6.1915 O   0  0  0  0  0  0  0  0  0  0  0  0
   35.2644   43.9532   -5.3510 O   0  0  0  0  0  0  0  0  0  0  0  0
   35.7819   44.4140   -4.6722 H   0  0  0  0  0  0  0  0  0  0  0  0
   35.8071   41.7196   -4.3443 N   0  0  0  0  0  0  0  0  0  0  0  0
   34.8277   41.8049   -4.0727 H   0  0  0  0  0  0  0  0  0  0  0  0
   36.6125   42.0745   -3.1610 C   0  0  0  0  0  0  0  0  0  0  0  0
   37.8922   41.2162   -3.2875 C   0  0  0  0  0  0  0  0  0  0  0  0
   39.0164   41.5971   -2.9798 O   0  0  0  0  0  0  0  0  0  0  0  0
   37.6455   39.9226   -3.7233 N   0  0  0  0  0  0  0  0  0  0  0  0
   36.7623   39.7041   -4.0995 H   0  0  0  0  0  0  0  0  0  0  0  0
   38.6649   38.8714   -3.6389 C   0  0  0  0  0  0  0  0  0  0  0  0
   39.9968   39.4554   -4.1275 C   0  0  0  0  0  0  0  0  0  0  0  0
   38.8416   38.2771   -2.1991 C   0  0  0  0  0  0  0  0  0  0  0  0
   39.2242   36.7678   -2.1549 N   0  0  0  0  0  0  0  0  0  0  0  0
   38.5554   36.0782   -0.9642 C   0  0  0  0  0  0  0  0  0  0  0  0
   38.8711   36.0427   -3.4443 C   0  0  0  0  0  0  0  0  0  0  0  0
   40.7385   36.6768   -1.9499 C   0  0  0  0  0  0  0  0  0  0  0  0
   35.8498   41.8220   -1.8448 C   0  0  0  0  0  0  0  0  0  0  0  0
   36.9316   42.3176    0.3819 C   0  0  0  0  0  0  0  0  0  0  0  0
   36.1093   42.9057   -0.7685 C   0  0  0  0  0  0  0  0  0  0  0  0
   36.8417   44.1322   -1.3213 C   0  0  0  0  0  0  0  0  0  0  0  0
   34.8930   41.8614   -6.9978 C   0  0  0  0  0  0  0  0  0  0  0  0
   34.9303   42.6844   -8.2038 N   0  0  0  0  0  0  0  0  0  0  0  0
   33.7933   43.2942   -8.6510 C   0  0  0  0  0  0  0  0  0  0  0  0
   32.7691   43.4195   -7.9955 O   0  0  0  0  0  0  0  0  0  0  0  0
   35.7759   42.7995   -8.6947 H   0  0  0  0  0  0  0  0  0  0  0  0
   33.9723   43.6813   -9.9327 O   0  0  0  0  0  0  0  0  0  0  0  0
   33.3418   42.8478  -10.9137 C   0  0  0  0  0  0  0  0  0  0  0  0
   33.2404   43.5936  -12.2176 C   0  0  0  0  0  0  0  0  0  0  0  0
   33.5226   44.9665  -12.2662 C   0  0  0  0  0  0  0  0  0  0  0  0
   33.4563   45.6634  -13.4740 C   0  0  0  0  0  0  0  0  0  0  0  0
   33.1161   44.9948  -14.6468 C   0  0  0  0  0  0  0  0  0  0  0  0
   32.8468   43.6277  -14.6138 C   0  0  0  0  0  0  0  0  0  0  0  0
   32.9102   42.9271  -13.4058 C   0  0  0  0  0  0  0  0  0  0  0  0
   35.1309   40.3623   -7.2665 C   0  0  0  0  0  0  0  0  0  0  0  0
   33.8921   39.5613   -7.5881 C   0  0  0  0  0  0  0  0  0  0  0  0
   33.3914   38.6088   -6.6948 C   0  0  0  0  0  0  0  0  0  0  0  0
   32.2723   37.8410   -7.0251 C   0  0  0  0  0  0  0  0  0  0  0  0
   31.6419   38.0193   -8.2551 C   0  0  0  0  0  0  0  0  0  0  0  0
   32.1171   38.9769   -9.1446 C   0  0  0  0  0  0  0  0  0  0  0  0
   33.2352   39.7451   -8.8146 C   0  0  0  0  0  0  0  0  0  0  0  0
 20 21  1  0
 21 22  1  0
 21 19  1  0
  7 19  1  0
  7  5  1  0
  5  1  1  0
  1  2  2  0
  1  3  1  0
  1 23  1  0
 23 36  1  0
 36 37  1  0
 37 38  2  0
 38 39  1  0
 39 40  2  0
 40 41  1  0
 41 42  2  0
 23 24  1  0
 24 25  1  0
 25 26  2  0
 25 28  1  0
 28 29  1  0
 29 30  1  0
 30 31  2  0
 31 32  1  0
 32 33  2  0
 33 34  1  0
 34 35  2  0
  7  8  1  0
  8  9  2  0
  8 10  1  0
 10 12  1  0
 12 13  1  0
 12 14  1  0
 14 15  1  0
 15 16  1  0
 15 17  1  0
 15 18  1  0
 42 37  1  0
 35 30  1  0
  5  6  1  0
  3  4  1  0
 24 27  1  0
 10 11  1  0
M  CHG 1  15   1
M  END
> <minimizedAffinity>
-8.95869

> <CNNscore>
0.9290444851

> <CNNaffinity>
8.0694656372

> <CNN_VS>
7.4968924522

> <CNNaffinity_variance>
0.0618710518

$$$$



 42 43  0  0  0  0  0  0  0  0999 V2000
   36.0271   42.5939   -5.5856 P   0  0  0  0  0  0  0  0  0  0  0  0
   37.4491   42.7917   -5.9984 O   0  0  0  0  0  0  0  0  0  0  0  0
   35.3254   44.0246   -5.3650 O   0  0  0  0  0  0  0  0  0  0  0  0
   35.8250   44.5315   -4.7060 H   0  0  0  0  0  0  0  0  0  0  0  0
   35.7522   41.8787   -4.1362 N   0  0  0  0  0  0  0  0  0  0  0  0
   34.7874   42.0885   -3.8803 H   0  0  0  0  0  0  0  0  0  0  0  0
   36.5907   42.2374   -2.9772 C   0  0  0  0  0  0  0  0  0  0  0  0
   37.8386   41.3336   -3.1030 C   0  0  0  0  0  0  0  0  0  0  0  0
   38.9603   41.7357   -3.3926 O   0  0  0  0  0  0  0  0  0  0  0  0
   37.5907   40.0066   -2.7838 N   0  0  0  0  0  0  0  0  0  0  0  0
   36.6588   39.6991   -2.7044 H   0  0  0  0  0  0  0  0  0  0  0  0
   38.6793   39.0491   -2.5615 C   0  0  0  0  0  0  0  0  0  0  0  0
   38.3783   38.2724   -1.2731 C   0  0  0  0  0  0  0  0  0  0  0  0
   38.8918   38.0475   -3.7484 C   0  0  0  0  0  0  0  0  0  0  0  0
   40.3804   37.7478   -4.0953 N   0  0  0  0  0  0  0  0  0  0  0  0
   40.5399   37.4778   -5.5927 C   0  0  0  0  0  0  0  0  0  0  0  0
   41.3127   38.8696   -3.6647 C   0  0  0  0  0  0  0  0  0  0  0  0
   40.7848   36.4728   -3.3509 C   0  0  0  0  0  0  0  0  0  0  0  0
   35.8444   42.0455   -1.6415 C   0  0  0  0  0  0  0  0  0  0  0  0
   37.1370   42.3475    0.5061 C   0  0  0  0  0  0  0  0  0  0  0  0
   36.2777   43.0530   -0.5471 C   0  0  0  0  0  0  0  0  0  0  0  0
   37.0633   44.2422   -1.1084 C   0  0  0  0  0  0  0  0  0  0  0  0
   34.9660   41.8017   -6.8330 C   0  0  0  0  0  0  0  0  0  0  0  0
   35.0510   42.5354   -8.0930 N   0  0  0  0  0  0  0  0  0  0  0  0
   33.9367   43.1253   -8.6172 C   0  0  0  0  0  0  0  0  0  0  0  0
   32.8953   43.3098   -8.0041 O   0  0  0  0  0  0  0  0  0  0  0  0
   35.9124   42.6046   -8.5647 H   0  0  0  0  0  0  0  0  0  0  0  0
   34.1592   43.4172   -9.9172 O   0  0  0  0  0  0  0  0  0  0  0  0
   33.2647   42.7879  -10.8438 C   0  0  0  0  0  0  0  0  0  0  0  0
   33.2441   43.5671  -12.1318 C   0  0  0  0  0  0  0  0  0  0  0  0
   32.8684   42.9386  -13.3280 C   0  0  0  0  0  0  0  0  0  0  0  0
   32.8215   43.6569  -14.5240 C   0  0  0  0  0  0  0  0  0  0  0  0
   33.1406   45.0120  -14.5362 C   0  0  0  0  0  0  0  0  0  0  0  0
   33.5022   45.6511  -13.3517 C   0  0  0  0  0  0  0  0  0  0  0  0
   33.5523   44.9344  -12.1525 C   0  0  0  0  0  0  0  0  0  0  0  0
   35.2010   40.2858   -6.9849 C   0  0  0  0  0  0  0  0  0  0  0  0
   33.9960   39.4881   -7.4223 C   0  0  0  0  0  0  0  0  0  0  0  0
   33.3444   38.6168   -6.5436 C   0  0  0  0  0  0  0  0  0  0  0  0
   32.2600   37.8491   -6.9747 C   0  0  0  0  0  0  0  0  0  0  0  0
   31.8161   37.9462   -8.2922 C   0  0  0  0  0  0  0  0  0  0  0  0
   32.4422   38.8234   -9.1712 C   0  0  0  0  0  0  0  0  0  0  0  0
   33.5256   39.5914   -8.7405 C   0  0  0  0  0  0  0  0  0  0  0  0
 20 21  1  0
 21 22  1  0
 21 19  1  0
  7 19  1  0
  7  5  1  0
  5  1  1  0
  1  2  2  0
  1  3  1  0
  1 23  1  0
 23 36  1  0
 36 37  1  0
 37 38  2  0
 38 39  1  0
 39 40  2  0
 40 41  1  0
 41 42  2  0
 23 24  1  0
 24 25  1  0
 25 26  2  0
 25 28  1  0
 28 29  1  0
 29 30  1  0
 30 31  2  0
 31 32  1  0
 32 33  2  0
 33 34  1  0
 34 35  2  0
  7  8  1  0
  8  9  2  0
  8 10  1  0
 10 12  1  0
 12 13  1  0
 12 14  1  0
 14 15  1  0
 15 16  1  0
 15 17  1  0
 15 18  1  0
 42 37  1  0
 35 30  1  0
  5  6  1  0
  3  4  1  0
 24 27  1  0
 10 11  1  0
M  CHG 1  15   1
M  END
> <minimizedAffinity>
-9.33689

> <CNNscore>
0.9255859852

> <CNNaffinity>
8.0011987686

> <CNN_VS>
7.4057974815

> <CNNaffinity_variance>
0.1303316951

$$$$



 42 43  0  0  0  0  0  0  0  0999 V2000
   35.9350   42.5661   -5.8150 P   0  0  0  0  0  0  0  0  0  0  0  0
   37.3401   42.7038   -6.3032 O   0  0  0  0  0  0  0  0  0  0  0  0
   35.3064   44.0252   -5.5621 O   0  0  0  0  0  0  0  0  0  0  0  0
   35.8610   44.5113   -4.9320 H   0  0  0  0  0  0  0  0  0  0  0  0
   35.7077   41.8643   -4.3509 N   0  0  0  0  0  0  0  0  0  0  0  0
   34.7316   42.0169   -4.0974 H   0  0  0  0  0  0  0  0  0  0  0  0
   36.5222   42.2996   -3.2012 C   0  0  0  0  0  0  0  0  0  0  0  0
   37.8098   41.4485   -3.2898 C   0  0  0  0  0  0  0  0  0  0  0  0
   38.9281   41.9024   -3.5072 O   0  0  0  0  0  0  0  0  0  0  0  0
   37.5986   40.1030   -3.0265 N   0  0  0  0  0  0  0  0  0  0  0  0
   36.6767   39.7580   -3.0060 H   0  0  0  0  0  0  0  0  0  0  0  0
   38.7114   39.1805   -2.7777 C   0  0  0  0  0  0  0  0  0  0  0  0
   38.5118   38.5518   -1.3925 C   0  0  0  0  0  0  0  0  0  0  0  0
   38.8508   38.0531   -3.8579 C   0  0  0  0  0  0  0  0  0  0  0  0
   40.3162   37.6755   -4.2266 N   0  0  0  0  0  0  0  0  0  0  0  0
   41.2446   38.8770   -4.0393 C   0  0  0  0  0  0  0  0  0  0  0  0
   40.8284   36.4897   -3.4237 C   0  0  0  0  0  0  0  0  0  0  0  0
   40.3415   37.2998   -5.7104 C   0  0  0  0  0  0  0  0  0  0  0  0
   35.7770   42.1207   -1.8631 C   0  0  0  0  0  0  0  0  0  0  0  0
   37.1076   42.4126    0.2625 C   0  0  0  0  0  0  0  0  0  0  0  0
   36.2286   43.1227   -0.7712 C   0  0  0  0  0  0  0  0  0  0  0  0
   37.0025   44.3160   -1.3400 C   0  0  0  0  0  0  0  0  0  0  0  0
   34.7771   41.8180   -7.0021 C   0  0  0  0  0  0  0  0  0  0  0  0
   34.1101   40.6729   -6.3882 N   0  0  0  0  0  0  0  0  0  0  0  0
   34.3681   39.4095   -6.8376 C   0  0  0  0  0  0  0  0  0  0  0  0
   35.3050   39.1087   -7.5629 O   0  0  0  0  0  0  0  0  0  0  0  0
   33.4739   40.8119   -5.6499 H   0  0  0  0  0  0  0  0  0  0  0  0
   33.4019   38.5754   -6.3956 O   0  0  0  0  0  0  0  0  0  0  0  0
   33.1988   37.4024   -7.1939 C   0  0  0  0  0  0  0  0  0  0  0  0
   31.9323   37.5513   -7.9942 C   0  0  0  0  0  0  0  0  0  0  0  0
   30.8388   36.7097   -7.7431 C   0  0  0  0  0  0  0  0  0  0  0  0
   29.6507   36.8546   -8.4615 C   0  0  0  0  0  0  0  0  0  0  0  0
   29.5394   37.8470   -9.4316 C   0  0  0  0  0  0  0  0  0  0  0  0
   30.6143   38.6984   -9.6808 C   0  0  0  0  0  0  0  0  0  0  0  0
   31.8063   38.5548   -8.9648 C   0  0  0  0  0  0  0  0  0  0  0  0
   33.8048   42.8242   -7.6491 C   0  0  0  0  0  0  0  0  0  0  0  0
   33.6321   42.6835   -9.1424 C   0  0  0  0  0  0  0  0  0  0  0  0
   33.7466   43.7873   -9.9935 C   0  0  0  0  0  0  0  0  0  0  0  0
   33.5375   43.6522  -11.3679 C   0  0  0  0  0  0  0  0  0  0  0  0
   33.2112   42.4084  -11.9052 C   0  0  0  0  0  0  0  0  0  0  0  0
   33.1138   41.2984  -11.0731 C   0  0  0  0  0  0  0  0  0  0  0  0
   33.3234   41.4328   -9.6994 C   0  0  0  0  0  0  0  0  0  0  0  0
 20 21  1  0
 21 22  1  0
 21 19  1  0
  7 19  1  0
  7  5  1  0
  5  1  1  0
  1  2  2  0
  1  3  1  0
  1 23  1  0
 23 36  1  0
 36 37  1  0
 37 38  2  0
 38 39  1  0
 39 40  2  0
 40 41  1  0
 41 42  2  0
 23 24  1  0
 24 25  1  0
 25 26  2  0
 25 28  1  0
 28 29  1  0
 29 30  1  0
 30 31  2  0
 31 32  1  0
 32 33  2  0
 33 34  1  0
 34 35  2  0
  7  8  1  0
  8  9  2  0
  8 10  1  0
 10 12  1  0
 12 13  1  0
 12 14  1  0
 14 15  1  0
 15 16  1  0
 15 17  1  0
 15 18  1  0
 42 37  1  0
 35 30  1  0
  5  6  1  0
  3  4  1  0
 24 27  1  0
 10 11  1  0
M  CHG 1  15   1
M  END
> <minimizedAffinity>
-9.25106

> <CNNscore>
0.9231122732

> <CNNaffinity>
7.4232420921

> <CNN_VS>
6.8524856567

> <CNNaffinity_variance>
0.5930290818

$$$$



 42 43  0  0  0  0  0  0  0  0999 V2000
   35.6795   42.4763   -5.9939 P   0  0  0  0  0  0  0  0  0  0  0  0
   37.0294   42.5051   -6.6333 O   0  0  0  0  0  0  0  0  0  0  0  0
   35.1940   43.9797   -5.6908 O   0  0  0  0  0  0  0  0  0  0  0  0
   35.8490   44.4242   -5.1302 H   0  0  0  0  0  0  0  0  0  0  0  0
   35.5610   41.7983   -4.5060 N   0  0  0  0  0  0  0  0  0  0  0  0
   34.6138   41.9779   -4.1730 H   0  0  0  0  0  0  0  0  0  0  0  0
   36.4802   42.2275   -3.4356 C   0  0  0  0  0  0  0  0  0  0  0  0
   37.8120   41.5093   -3.7527 C   0  0  0  0  0  0  0  0  0  0  0  0
   38.9231   41.9741   -3.5223 O   0  0  0  0  0  0  0  0  0  0  0  0
   37.6390   40.2331   -4.2682 N   0  0  0  0  0  0  0  0  0  0  0  0
   36.7452   39.9579   -4.5759 H   0  0  0  0  0  0  0  0  0  0  0  0
   38.7517   39.2826   -4.3673 C   0  0  0  0  0  0  0  0  0  0  0  0
   39.9044   39.8023   -3.4984 C   0  0  0  0  0  0  0  0  0  0  0  0
   38.3763   37.8233   -3.9347 C   0  0  0  0  0  0  0  0  0  0  0  0
   38.6249   37.5004   -2.4314 N   0  0  0  0  0  0  0  0  0  0  0  0
   37.9974   38.5737   -1.5398 C   0  0  0  0  0  0  0  0  0  0  0  0
   38.1036   36.1263   -2.0402 C   0  0  0  0  0  0  0  0  0  0  0  0
   40.1367   37.5282   -2.1926 C   0  0  0  0  0  0  0  0  0  0  0  0
   35.9352   41.8873   -2.0338 C   0  0  0  0  0  0  0  0  0  0  0  0
   36.9956   42.3917    0.2012 C   0  0  0  0  0  0  0  0  0  0  0  0
   36.2240   42.9862   -0.9806 C   0  0  0  0  0  0  0  0  0  0  0  0
   37.0233   44.1625   -1.5496 C   0  0  0  0  0  0  0  0  0  0  0  0
   34.3460   41.8149   -7.0398 C   0  0  0  0  0  0  0  0  0  0  0  0
   34.4855   42.3251   -8.4012 N   0  0  0  0  0  0  0  0  0  0  0  0
   33.4868   43.0721   -8.9572 C   0  0  0  0  0  0  0  0  0  0  0  0
   32.5634   43.5723   -8.3314 O   0  0  0  0  0  0  0  0  0  0  0  0
   35.3002   42.1302   -8.9184 H   0  0  0  0  0  0  0  0  0  0  0  0
   33.6611   43.1196  -10.2959 O   0  0  0  0  0  0  0  0  0  0  0  0
   33.4666   44.4099  -10.8893 C   0  0  0  0  0  0  0  0  0  0  0  0
   33.3103   44.2602  -12.3792 C   0  0  0  0  0  0  0  0  0  0  0  0
   32.8759   43.0421  -12.9218 C   0  0  0  0  0  0  0  0  0  0  0  0
   32.7033   42.8991  -14.2997 C   0  0  0  0  0  0  0  0  0  0  0  0
   32.9543   43.9735  -15.1488 C   0  0  0  0  0  0  0  0  0  0  0  0
   33.3732   45.1933  -14.6204 C   0  0  0  0  0  0  0  0  0  0  0  0
   33.5491   45.3394  -13.2414 C   0  0  0  0  0  0  0  0  0  0  0  0
   34.1939   40.2826   -6.9679 C   0  0  0  0  0  0  0  0  0  0  0  0
   34.5126   39.5433   -8.2452 C   0  0  0  0  0  0  0  0  0  0  0  0
   33.5138   39.2371   -9.1751 C   0  0  0  0  0  0  0  0  0  0  0  0
   33.8139   38.5111  -10.3300 C   0  0  0  0  0  0  0  0  0  0  0  0
   35.1191   38.0836  -10.5663 C   0  0  0  0  0  0  0  0  0  0  0  0
   36.1258   38.3985   -9.6600 C   0  0  0  0  0  0  0  0  0  0  0  0
   35.8265   39.1247   -8.5057 C   0  0  0  0  0  0  0  0  0  0  0  0
 20 21  1  0
 21 22  1  0
 21 19  1  0
  7 19  1  0
  7  5  1  0
  5  1  1  0
  1  2  2  0
  1  3  1  0
  1 23  1  0
 23 36  1  0
 36 37  1  0
 37 38  2  0
 38 39  1  0
 39 40  2  0
 40 41  1  0
 41 42  2  0
 23 24  1  0
 24 25  1  0
 25 26  2  0
 25 28  1  0
 28 29  1  0
 29 30  1  0
 30 31  2  0
 31 32  1  0
 32 33  2  0
 33 34  1  0
 34 35  2  0
  7  8  1  0
  8  9  2  0
  8 10  1  0
 10 12  1  0
 12 13  1  0
 12 14  1  0
 14 15  1  0
 15 16  1  0
 15 17  1  0
 15 18  1  0
 42 37  1  0
 35 30  1  0
  5  6  1  0
  3  4  1  0
 24 27  1  0
 10 11  1  0
M  CHG 1  15   1
M  END
> <minimizedAffinity>
-9.08661

> <CNNscore>
0.7481356859

> <CNNaffinity>
7.7204489708

> <CNN_VS>
5.7759432793

> <CNNaffinity_variance>
0.1650384367

$$$$



 42 43  0  0  0  0  0  0  0  0999 V2000
   36.2164   42.2861   -5.0905 P   0  0  0  0  0  0  0  0  0  0  0  0
   35.0277   43.0788   -5.5267 O   0  0  0  0  0  0  0  0  0  0  0  0
   37.5635   43.0487   -5.5282 O   0  0  0  0  0  0  0  0  0  0  0  0
   37.5573   43.1909   -6.4877 H   0  0  0  0  0  0  0  0  0  0  0  0
   36.4431   40.8179   -5.7839 N   0  0  0  0  0  0  0  0  0  0  0  0
   37.3036   40.8770   -6.3284 H   0  0  0  0  0  0  0  0  0  0  0  0
   35.4072   40.2678   -6.6778 C   0  0  0  0  0  0  0  0  0  0  0  0
   35.8039   38.7860   -6.8703 C   0  0  0  0  0  0  0  0  0  0  0  0
   36.7583   38.2462   -6.3213 O   0  0  0  0  0  0  0  0  0  0  0  0
   34.9257   38.0829   -7.6819 N   0  0  0  0  0  0  0  0  0  0  0  0
   34.2666   38.5802   -8.2181 H   0  0  0  0  0  0  0  0  0  0  0  0
   34.9526   36.6186   -7.7628 C   0  0  0  0  0  0  0  0  0  0  0  0
   33.5961   36.1437   -8.2997 C   0  0  0  0  0  0  0  0  0  0  0  0
   36.1066   36.0568   -8.6628 C   0  0  0  0  0  0  0  0  0  0  0  0
   36.2433   36.7395  -10.0561 N   0  0  0  0  0  0  0  0  0  0  0  0
   34.9410   37.4448  -10.4395 C   0  0  0  0  0  0  0  0  0  0  0  0
   37.4039   37.7210  -10.1089 C   0  0  0  0  0  0  0  0  0  0  0  0
   36.4946   35.6400  -11.0911 C   0  0  0  0  0  0  0  0  0  0  0  0
   35.3203   41.0422   -8.0085 C   0  0  0  0  0  0  0  0  0  0  0  0
   33.8586   42.9566   -8.7655 C   0  0  0  0  0  0  0  0  0  0  0  0
   33.8782   41.4767   -8.3717 C   0  0  0  0  0  0  0  0  0  0  0  0
   33.2777   40.6541   -9.5159 C   0  0  0  0  0  0  0  0  0  0  0  0
   36.4073   42.1119   -3.2897 C   0  0  0  0  0  0  0  0  0  0  0  0
   37.0964   40.8611   -2.9837 N   0  0  0  0  0  0  0  0  0  0  0  0
   38.4154   40.7110   -3.3036 C   0  0  0  0  0  0  0  0  0  0  0  0
   39.1630   41.6272   -3.6137 O   0  0  0  0  0  0  0  0  0  0  0  0
   36.6096   40.1256   -2.5464 H   0  0  0  0  0  0  0  0  0  0  0  0
   38.7334   39.3986   -3.2702 O   0  0  0  0  0  0  0  0  0  0  0  0
   39.6991   38.9817   -4.2441 C   0  0  0  0  0  0  0  0  0  0  0  0
   40.9210   38.4482   -3.5449 C   0  0  0  0  0  0  0  0  0  0  0  0
   42.1757   39.0290   -3.7804 C   0  0  0  0  0  0  0  0  0  0  0  0
   43.3118   38.5591   -3.1191 C   0  0  0  0  0  0  0  0  0  0  0  0
   43.2051   37.5106   -2.2094 C   0  0  0  0  0  0  0  0  0  0  0  0
   41.9616   36.9343   -1.9565 C   0  0  0  0  0  0  0  0  0  0  0  0
   40.8222   37.4008   -2.6185 C   0  0  0  0  0  0  0  0  0  0  0  0
   37.0305   43.3434   -2.6030 C   0  0  0  0  0  0  0  0  0  0  0  0
   37.3074   43.1863   -1.1271 C   0  0  0  0  0  0  0  0  0  0  0  0
   38.3638   43.8644   -0.5106 C   0  0  0  0  0  0  0  0  0  0  0  0
   38.6384   43.6734    0.8455 C   0  0  0  0  0  0  0  0  0  0  0  0
   37.8567   42.8002    1.5996 C   0  0  0  0  0  0  0  0  0  0  0  0
   36.7907   42.1348    1.0041 C   0  0  0  0  0  0  0  0  0  0  0  0
   36.5154   42.3259   -0.3512 C   0  0  0  0  0  0  0  0  0  0  0  0
 20 21  1  0
 21 22  1  0
 21 19  1  0
  7 19  1  0
  7  5  1  0
  5  1  1  0
  1  2  2  0
  1  3  1  0
  1 23  1  0
 23 36  1  0
 36 37  1  0
 37 38  2  0
 38 39  1  0
 39 40  2  0
 40 41  1  0
 41 42  2  0
 23 24  1  0
 24 25  1  0
 25 26  2  0
 25 28  1  0
 28 29  1  0
 29 30  1  0
 30 31  2  0
 31 32  1  0
 32 33  2  0
 33 34  1  0
 34 35  2  0
  7  8  1  0
  8  9  2  0
  8 10  1  0
 10 12  1  0
 12 13  1  0
 12 14  1  0
 14 15  1  0
 15 16  1  0
 15 17  1  0
 15 18  1  0
 42 37  1  0
 35 30  1  0
  5  6  1  0
  3  4  1  0
 24 27  1  0
 10 11  1  0
M  CHG 1  15   1
M  END
> <minimizedAffinity>
-7.94749

> <CNNscore>
0.6212891340

> <CNNaffinity>
7.1871948242

> <CNN_VS>
4.4653258324

> <CNNaffinity_variance>
0.0875047222

$$$$



 42 43  0  0  0  0  0  0  0  0999 V2000
   36.1597   42.0980   -5.2552 P   0  0  0  0  0  0  0  0  0  0  0  0
   34.8286   42.7669   -5.1445 O   0  0  0  0  0  0  0  0  0  0  0  0
   37.1199   42.9628   -6.2134 O   0  0  0  0  0  0  0  0  0  0  0  0
   36.6982   43.0723   -7.0800 H   0  0  0  0  0  0  0  0  0  0  0  0
   36.2122   40.6339   -5.9910 N   0  0  0  0  0  0  0  0  0  0  0  0
   37.0831   40.5995   -6.5208 H   0  0  0  0  0  0  0  0  0  0  0  0
   35.1319   40.2457   -6.9167 C   0  0  0  0  0  0  0  0  0  0  0  0
   35.3917   38.7513   -7.2159 C   0  0  0  0  0  0  0  0  0  0  0  0
   36.2604   38.0761   -6.6745 O   0  0  0  0  0  0  0  0  0  0  0  0
   34.4910   38.2070   -8.1196 N   0  0  0  0  0  0  0  0  0  0  0  0
   33.9111   38.8092   -8.6394 H   0  0  0  0  0  0  0  0  0  0  0  0
   34.3794   36.7586   -8.3218 C   0  0  0  0  0  0  0  0  0  0  0  0
   33.7059   36.1527   -7.0836 C   0  0  0  0  0  0  0  0  0  0  0  0
   33.5800   36.3603   -9.6100 C   0  0  0  0  0  0  0  0  0  0  0  0
   32.0628   36.7112   -9.5751 N   0  0  0  0  0  0  0  0  0  0  0  0
   31.8415   38.0768   -8.9218 C   0  0  0  0  0  0  0  0  0  0  0  0
   31.4302   36.6851  -10.9579 C   0  0  0  0  0  0  0  0  0  0  0  0
   31.3624   35.6644   -8.7049 C   0  0  0  0  0  0  0  0  0  0  0  0
   35.1182   41.1175   -8.1885 C   0  0  0  0  0  0  0  0  0  0  0  0
   33.4935   43.0474   -8.2892 C   0  0  0  0  0  0  0  0  0  0  0  0
   33.6959   41.5637   -8.6106 C   0  0  0  0  0  0  0  0  0  0  0  0
   33.4178   41.3395  -10.1002 C   0  0  0  0  0  0  0  0  0  0  0  0
   37.1043   42.0008   -3.7035 C   0  0  0  0  0  0  0  0  0  0  0  0
   38.4540   41.5136   -3.9754 N   0  0  0  0  0  0  0  0  0  0  0  0
   38.7716   40.2080   -3.7322 C   0  0  0  0  0  0  0  0  0  0  0  0
   37.9552   39.3214   -3.5279 O   0  0  0  0  0  0  0  0  0  0  0  0
   39.1354   42.1270   -4.3342 H   0  0  0  0  0  0  0  0  0  0  0  0
   40.1157   40.0761   -3.7050 O   0  0  0  0  0  0  0  0  0  0  0  0
   40.5959   38.8604   -3.1166 C   0  0  0  0  0  0  0  0  0  0  0  0
   42.0081   38.6045   -3.5717 C   0  0  0  0  0  0  0  0  0  0  0  0
   42.2494   37.8128   -4.7039 C   0  0  0  0  0  0  0  0  0  0  0  0
   43.5531   37.5891   -5.1499 C   0  0  0  0  0  0  0  0  0  0  0  0
   44.6284   38.1607   -4.4752 C   0  0  0  0  0  0  0  0  0  0  0  0
   44.4007   38.9606   -3.3568 C   0  0  0  0  0  0  0  0  0  0  0  0
   43.0966   39.1851   -2.9061 C   0  0  0  0  0  0  0  0  0  0  0  0
   37.0726   43.2957   -2.8678 C   0  0  0  0  0  0  0  0  0  0  0  0
   37.2737   43.1089   -1.3831 C   0  0  0  0  0  0  0  0  0  0  0  0
   38.1275   43.9441   -0.6555 C   0  0  0  0  0  0  0  0  0  0  0  0
   38.3413   43.7308    0.7083 C   0  0  0  0  0  0  0  0  0  0  0  0
   37.7013   42.6774    1.3586 C   0  0  0  0  0  0  0  0  0  0  0  0
   36.8342   41.8514    0.6517 C   0  0  0  0  0  0  0  0  0  0  0  0
   36.6196   42.0647   -0.7112 C   0  0  0  0  0  0  0  0  0  0  0  0
 20 21  1  0
 21 22  1  0
 21 19  1  0
  7 19  1  0
  7  5  1  0
  5  1  1  0
  1  2  2  0
  1  3  1  0
  1 23  1  0
 23 36  1  0
 36 37  1  0
 37 38  2  0
 38 39  1  0
 39 40  2  0
 40 41  1  0
 41 42  2  0
 23 24  1  0
 24 25  1  0
 25 26  2  0
 25 28  1  0
 28 29  1  0
 29 30  1  0
 30 31  2  0
 31 32  1  0
 32 33  2  0
 33 34  1  0
 34 35  2  0
  7  8  1  0
  8  9  2  0
  8 10  1  0
 10 12  1  0
 12 13  1  0
 12 14  1  0
 14 15  1  0
 15 16  1  0
 15 17  1  0
 15 18  1  0
 42 37  1  0
 35 30  1  0
  5  6  1  0
  3  4  1  0
 24 27  1  0
 10 11  1  0
M  CHG 1  15   1
M  END
> <minimizedAffinity>
-7.64630

> <CNNscore>
0.3692403436

> <CNNaffinity>
6.9227471352

> <CNN_VS>
2.5561575890

> <CNNaffinity_variance>
0.0428961515

$$$$



 42 43  0  0  0  0  0  0  0  0999 V2000
   34.7376   40.2167   -7.5018 P   0  0  0  0  0  0  0  0  0  0  0  0
   35.7143   40.0801   -8.6239 O   0  0  0  0  0  0  0  0  0  0  0  0
   35.5050   40.0602   -6.0966 O   0  0  0  0  0  0  0  0  0  0  0  0
   35.9646   39.2063   -6.0726 H   0  0  0  0  0  0  0  0  0  0  0  0
   33.5799   39.0644   -7.3614 N   0  0  0  0  0  0  0  0  0  0  0  0
   33.7717   38.5551   -6.4987 H   0  0  0  0  0  0  0  0  0  0  0  0
   33.4225   38.0576   -8.4274 C   0  0  0  0  0  0  0  0  0  0  0  0
   32.0086   37.4726   -8.2067 C   0  0  0  0  0  0  0  0  0  0  0  0
   31.5831   37.0741   -7.1279 O   0  0  0  0  0  0  0  0  0  0  0  0
   31.2175   37.5023   -9.3458 N   0  0  0  0  0  0  0  0  0  0  0  0
   31.6383   37.6868  -10.2165 H   0  0  0  0  0  0  0  0  0  0  0  0
   29.7710   37.2663   -9.2882 C   0  0  0  0  0  0  0  0  0  0  0  0
   29.0729   38.3728  -10.0896 C   0  0  0  0  0  0  0  0  0  0  0  0
   29.3379   35.8617   -9.8329 C   0  0  0  0  0  0  0  0  0  0  0  0
   28.4134   35.0457   -8.8813 N   0  0  0  0  0  0  0  0  0  0  0  0
   28.5336   33.5478   -9.1686 C   0  0  0  0  0  0  0  0  0  0  0  0
   28.7046   35.3210   -7.4141 C   0  0  0  0  0  0  0  0  0  0  0  0
   26.9675   35.4566   -9.1709 C   0  0  0  0  0  0  0  0  0  0  0  0
   34.5290   36.9847   -8.3783 C   0  0  0  0  0  0  0  0  0  0  0  0
   35.1963   37.4170  -10.7745 C   0  0  0  0  0  0  0  0  0  0  0  0
   34.8171   36.3378   -9.7562 C   0  0  0  0  0  0  0  0  0  0  0  0
   35.9375   35.2947   -9.7029 C   0  0  0  0  0  0  0  0  0  0  0  0
   33.9491   41.8502   -7.3617 C   0  0  0  0  0  0  0  0  0  0  0  0
   34.3357   42.4800   -6.1020 N   0  0  0  0  0  0  0  0  0  0  0  0
   35.6161   42.9190   -5.9216 C   0  0  0  0  0  0  0  0  0  0  0  0
   36.4350   43.0581   -6.8185 O   0  0  0  0  0  0  0  0  0  0  0  0
   33.6727   42.5881   -5.3823 H   0  0  0  0  0  0  0  0  0  0  0  0
   35.8348   43.1196   -4.6038 O   0  0  0  0  0  0  0  0  0  0  0  0
   36.9545   42.4103   -4.0581 C   0  0  0  0  0  0  0  0  0  0  0  0
   37.0552   42.6881   -2.5818 C   0  0  0  0  0  0  0  0  0  0  0  0
   36.7750   41.6737   -1.6547 C   0  0  0  0  0  0  0  0  0  0  0  0
   36.8891   41.9123   -0.2840 C   0  0  0  0  0  0  0  0  0  0  0  0
   37.2927   43.1634    0.1746 C   0  0  0  0  0  0  0  0  0  0  0  0
   37.5872   44.1755   -0.7372 C   0  0  0  0  0  0  0  0  0  0  0  0
   37.4719   43.9408   -2.1104 C   0  0  0  0  0  0  0  0  0  0  0  0
   34.1568   42.7545   -8.5927 C   0  0  0  0  0  0  0  0  0  0  0  0
   33.3324   42.3918   -9.8045 C   0  0  0  0  0  0  0  0  0  0  0  0
   33.5181   43.0407  -11.0294 C   0  0  0  0  0  0  0  0  0  0  0  0
   32.7165   42.7287  -12.1299 C   0  0  0  0  0  0  0  0  0  0  0  0
   31.7191   41.7622  -12.0151 C   0  0  0  0  0  0  0  0  0  0  0  0
   31.5368   41.0949  -10.8087 C   0  0  0  0  0  0  0  0  0  0  0  0
   32.3383   41.4058   -9.7087 C   0  0  0  0  0  0  0  0  0  0  0  0
 20 21  1  0
 21 22  1  0
 21 19  1  0
  7 19  1  0
  7  5  1  0
  5  1  1  0
  1  2  2  0
  1  3  1  0
  1 23  1  0
 23 36  1  0
 36 37  1  0
 37 38  2  0
 38 39  1  0
 39 40  2  0
 40 41  1  0
 41 42  2  0
 23 24  1  0
 24 25  1  0
 25 26  2  0
 25 28  1  0
 28 29  1  0
 29 30  1  0
 30 31  2  0
 31 32  1  0
 32 33  2  0
 33 34  1  0
 34 35  2  0
  7  8  1  0
  8  9  2  0
  8 10  1  0
 10 12  1  0
 12 13  1  0
 12 14  1  0
 14 15  1  0
 15 16  1  0
 15 17  1  0
 15 18  1  0
 42 37  1  0
 35 30  1  0
  5  6  1  0
  3  4  1  0
 24 27  1  0
 10 11  1  0
M  CHG 1  15   1
M  END
> <minimizedAffinity>
-7.84001

> <CNNscore>
0.1582258642

> <CNNaffinity>
6.2308211327

> <CNN_VS>
0.9858770370

> <CNNaffinity_variance>
0.2314260006

$$$$



 42 43  0  0  0  0  0  0  0  0999 V2000
   33.4866   42.6957   -8.9187 P   0  0  0  0  0  0  0  0  0  0  0  0
   32.4451   43.4987   -8.2099 O   0  0  0  0  0  0  0  0  0  0  0  0
   34.6607   43.6682   -9.4320 O   0  0  0  0  0  0  0  0  0  0  0  0
   34.2845   44.3555  -10.0037 H   0  0  0  0  0  0  0  0  0  0  0  0
   33.0519   41.9574  -10.3164 N   0  0  0  0  0  0  0  0  0  0  0  0
   33.9076   41.6005  -10.7416 H   0  0  0  0  0  0  0  0  0  0  0  0
   32.3453   42.7275  -11.3568 C   0  0  0  0  0  0  0  0  0  0  0  0
   31.4467   41.6901  -12.0684 C   0  0  0  0  0  0  0  0  0  0  0  0
   31.8616   40.8017  -12.8047 O   0  0  0  0  0  0  0  0  0  0  0  0
   30.1042   41.8083  -11.7397 N   0  0  0  0  0  0  0  0  0  0  0  0
   29.7953   42.6170  -11.2708 H   0  0  0  0  0  0  0  0  0  0  0  0
   29.1324   40.7611  -12.0718 C   0  0  0  0  0  0  0  0  0  0  0  0
   29.7364   39.8787  -13.1719 C   0  0  0  0  0  0  0  0  0  0  0  0
   28.7164   39.8744  -10.8478 C   0  0  0  0  0  0  0  0  0  0  0  0
   29.6245   38.6339  -10.5978 N   0  0  0  0  0  0  0  0  0  0  0  0
   28.8839   37.5838   -9.7675 C   0  0  0  0  0  0  0  0  0  0  0  0
   30.1294   38.0152  -11.8921 C   0  0  0  0  0  0  0  0  0  0  0  0
   30.8337   39.0984   -9.7819 C   0  0  0  0  0  0  0  0  0  0  0  0
   33.3224   43.4333  -12.3185 C   0  0  0  0  0  0  0  0  0  0  0  0
   32.6437   45.8356  -11.9408 C   0  0  0  0  0  0  0  0  0  0  0  0
   32.7276   44.7061  -12.9716 C   0  0  0  0  0  0  0  0  0  0  0  0
   33.5409   45.1953  -14.1740 C   0  0  0  0  0  0  0  0  0  0  0  0
   34.3715   41.4932   -7.8792 C   0  0  0  0  0  0  0  0  0  0  0  0
   34.4273   41.9761   -6.5019 N   0  0  0  0  0  0  0  0  0  0  0  0
   35.5099   42.6875   -6.0701 C   0  0  0  0  0  0  0  0  0  0  0  0
   36.3544   43.1802   -6.8039 O   0  0  0  0  0  0  0  0  0  0  0  0
   33.6838   41.7885   -5.8844 H   0  0  0  0  0  0  0  0  0  0  0  0
   35.5164   42.7093   -4.7195 O   0  0  0  0  0  0  0  0  0  0  0  0
   36.5722   41.9603   -4.1040 C   0  0  0  0  0  0  0  0  0  0  0  0
   36.8401   42.5064   -2.7268 C   0  0  0  0  0  0  0  0  0  0  0  0
   36.6264   41.7023   -1.5977 C   0  0  0  0  0  0  0  0  0  0  0  0
   36.8950   42.1892   -0.3173 C   0  0  0  0  0  0  0  0  0  0  0  0
   37.3879   43.4807   -0.1519 C   0  0  0  0  0  0  0  0  0  0  0  0
   37.6174   44.2847   -1.2670 C   0  0  0  0  0  0  0  0  0  0  0  0
   37.3475   43.8011   -2.5505 C   0  0  0  0  0  0  0  0  0  0  0  0
   33.8473   40.0492   -8.0057 C   0  0  0  0  0  0  0  0  0  0  0  0
   34.7821   39.0827   -8.6926 C   0  0  0  0  0  0  0  0  0  0  0  0
   34.6196   38.7502  -10.0413 C   0  0  0  0  0  0  0  0  0  0  0  0
   35.4623   37.8186  -10.6520 C   0  0  0  0  0  0  0  0  0  0  0  0
   36.4780   37.2094   -9.9176 C   0  0  0  0  0  0  0  0  0  0  0  0
   36.6635   37.5457   -8.5810 C   0  0  0  0  0  0  0  0  0  0  0  0
   35.8219   38.4773   -7.9702 C   0  0  0  0  0  0  0  0  0  0  0  0
 20 21  1  0
 21 22  1  0
 21 19  1  0
  7 19  1  0
  7  5  1  0
  5  1  1  0
  1  2  2  0
  1  3  1  0
  1 23  1  0
 23 36  1  0
 36 37  1  0
 37 38  2  0
 38 39  1  0
 39 40  2  0
 40 41  1  0
 41 42  2  0
 23 24  1  0
 24 25  1  0
 25 26  2  0
 25 28  1  0
 28 29  1  0
 29 30  1  0
 30 31  2  0
 31 32  1  0
 32 33  2  0
 33 34  1  0
 34 35  2  0
  7  8  1  0
  8  9  2  0
  8 10  1  0
 10 12  1  0
 12 13  1  0
 12 14  1  0
 14 15  1  0
 15 16  1  0
 15 17  1  0
 15 18  1  0
 42 37  1  0
 35 30  1  0
  5  6  1  0
  3  4  1  0
 24 27  1  0
 10 11  1  0
M  CHG 1  15   1
M  END
> <minimizedAffinity>
-8.13928

> <CNNscore>
0.1573533714

> <CNNaffinity>
5.9450469017

> <CNN_VS>
0.9354731441

> <CNNaffinity_variance>
0.6767985821

$$$$



 42 43  0  0  0  0  0  0  0  0999 V2000
   34.7845   39.9847   -6.9710 P   0  0  0  0  0  0  0  0  0  0  0  0
   35.2915   39.4418   -8.2671 O   0  0  0  0  0  0  0  0  0  0  0  0
   35.9701   39.9804   -5.8837 O   0  0  0  0  0  0  0  0  0  0  0  0
   36.3163   39.0796   -5.7864 H   0  0  0  0  0  0  0  0  0  0  0  0
   33.6321   39.1211   -6.1876 N   0  0  0  0  0  0  0  0  0  0  0  0
   34.1090   38.5680   -5.4755 H   0  0  0  0  0  0  0  0  0  0  0  0
   32.7753   38.1929   -6.9486 C   0  0  0  0  0  0  0  0  0  0  0  0
   33.6371   36.9216   -7.1256 C   0  0  0  0  0  0  0  0  0  0  0  0
   33.7718   36.0503   -6.2733 O   0  0  0  0  0  0  0  0  0  0  0  0
   34.2030   36.8125   -8.3874 N   0  0  0  0  0  0  0  0  0  0  0  0
   34.1959   37.5950   -8.9848 H   0  0  0  0  0  0  0  0  0  0  0  0
   34.8114   35.5627   -8.8557 C   0  0  0  0  0  0  0  0  0  0  0  0
   34.1202   35.1539  -10.1630 C   0  0  0  0  0  0  0  0  0  0  0  0
   36.3597   35.6597   -9.0810 C   0  0  0  0  0  0  0  0  0  0  0  0
   37.0376   34.3395   -9.5540 N   0  0  0  0  0  0  0  0  0  0  0  0
   36.4693   33.8967  -10.9036 C   0  0  0  0  0  0  0  0  0  0  0  0
   38.5509   34.4640   -9.6401 C   0  0  0  0  0  0  0  0  0  0  0  0
   36.7011   33.2507   -8.5320 C   0  0  0  0  0  0  0  0  0  0  0  0
   32.3167   38.7973   -8.2911 C   0  0  0  0  0  0  0  0  0  0  0  0
   30.8404   38.3638  -10.2928 C   0  0  0  0  0  0  0  0  0  0  0  0
   30.9443   38.2598   -8.7683 C   0  0  0  0  0  0  0  0  0  0  0  0
   30.6968   36.8056   -8.3554 C   0  0  0  0  0  0  0  0  0  0  0  0
   34.2712   41.7295   -7.0150 C   0  0  0  0  0  0  0  0  0  0  0  0
   34.5330   42.3552   -5.7216 N   0  0  0  0  0  0  0  0  0  0  0  0
   35.7796   42.8314   -5.4321 C   0  0  0  0  0  0  0  0  0  0  0  0
   36.6644   43.0069   -6.2571 O   0  0  0  0  0  0  0  0  0  0  0  0
   33.8101   42.4337   -5.0579 H   0  0  0  0  0  0  0  0  0  0  0  0
   35.8831   43.0222   -4.0989 O   0  0  0  0  0  0  0  0  0  0  0  0
   37.2190   42.9849   -3.5808 C   0  0  0  0  0  0  0  0  0  0  0  0
   37.1760   42.7533   -2.0938 C   0  0  0  0  0  0  0  0  0  0  0  0
   36.6180   41.5728   -1.5819 C   0  0  0  0  0  0  0  0  0  0  0  0
   36.5950   41.3358   -0.2064 C   0  0  0  0  0  0  0  0  0  0  0  0
   37.1368   42.2710    0.6713 C   0  0  0  0  0  0  0  0  0  0  0  0
   37.7065   43.4417    0.1739 C   0  0  0  0  0  0  0  0  0  0  0  0
   37.7293   43.6833   -1.2027 C   0  0  0  0  0  0  0  0  0  0  0  0
   34.8402   42.5207   -8.2094 C   0  0  0  0  0  0  0  0  0  0  0  0
   33.8892   42.7124   -9.3663 C   0  0  0  0  0  0  0  0  0  0  0  0
   32.9691   41.7208   -9.7216 C   0  0  0  0  0  0  0  0  0  0  0  0
   32.1277   41.8913  -10.8234 C   0  0  0  0  0  0  0  0  0  0  0  0
   32.1988   43.0582  -11.5820 C   0  0  0  0  0  0  0  0  0  0  0  0
   33.0950   44.0609  -11.2280 C   0  0  0  0  0  0  0  0  0  0  0  0
   33.9358   43.8913  -10.1264 C   0  0  0  0  0  0  0  0  0  0  0  0
 20 21  1  0
 21 22  1  0
 21 19  1  0
  7 19  1  0
  7  5  1  0
  5  1  1  0
  1  2  2  0
  1  3  1  0
  1 23  1  0
 23 36  1  0
 36 37  1  0
 37 38  2  0
 38 39  1  0
 39 40  2  0
 40 41  1  0
 41 42  2  0
 23 24  1  0
 24 25  1  0
 25 26  2  0
 25 28  1  0
 28 29  1  0
 29 30  1  0
 30 31  2  0
 31 32  1  0
 32 33  2  0
 33 34  1  0
 34 35  2  0
  7  8  1  0
  8  9  2  0
  8 10  1  0
 10 12  1  0
 12 13  1  0
 12 14  1  0
 14 15  1  0
 15 16  1  0
 15 17  1  0
 15 18  1  0
 42 37  1  0
 35 30  1  0
  5  6  1  0
  3  4  1  0
 24 27  1  0
 10 11  1  0
M  CHG 1  15   1
M  END
> <minimizedAffinity>
-8.04887

> <CNNscore>
0.1539380401

> <CNNaffinity>
5.9787316322

> <CNN_VS>
0.9203542471

> <CNNaffinity_variance>
0.6667194366

$$$$
