


 24 26  0  0  0  0  0  0  0  0999 V2000
    4.5507  -19.7323  -12.8408 C   0  0  0  0  0  0  0  0  0  0  0  0
    5.0928  -20.1413  -14.0502 C   0  0  0  0  0  0  0  0  0  0  0  0
    4.7463  -21.4507  -14.2586 N   0  0  0  0  0  0  0  0  0  0  0  0
    4.0362  -21.9242  -13.1858 C   0  0  0  0  0  0  0  0  0  0  0  0
    3.4869  -23.1628  -12.9025 C   0  0  0  0  0  0  0  0  0  0  0  0
    3.6156  -24.2728  -13.7250 N   0  0  0  0  0  0  0  0  0  0  0  0
    2.8091  -23.3004  -11.7535 N   0  0  0  0  0  0  0  0  0  0  0  0
    2.7134  -22.2276  -10.9434 C   0  0  0  0  0  0  0  0  0  0  0  0
    3.2286  -21.0035  -11.1228 N   0  0  0  0  0  0  0  0  0  0  0  0
    3.8906  -20.8718  -12.2935 C   0  0  0  0  0  0  0  0  0  0  0  0
    4.9738  -21.9742  -15.0608 H   0  0  0  0  0  0  0  0  0  0  0  0
    4.1078  -24.2015  -14.5746 H   0  0  0  0  0  0  0  0  0  0  0  0
    3.2146  -25.1316  -13.4589 H   0  0  0  0  0  0  0  0  0  0  0  0
    4.6604  -18.3823  -12.2034 C   0  0  0  0  0  0  0  0  0  0  0  0
    6.5564  -16.6712  -10.3110 C   0  0  0  0  0  0  0  0  0  0  0  0
    5.1359  -17.2270  -10.0927 C   0  0  0  0  0  0  0  0  0  0  0  0
    5.0569  -18.5254  -10.7913 N   0  0  0  0  0  0  0  0  0  0  0  0
    6.4234  -19.0602  -10.6653 C   0  0  0  0  0  0  0  0  0  0  0  0
    7.3473  -17.8615  -10.8737 C   0  0  0  0  0  0  0  0  0  0  0  0
    5.1656  -15.0874  -11.4402 C   0  0  0  0  0  0  0  0  0  0  0  0
    6.4799  -15.5913  -11.2526 O   0  0  0  0  0  0  0  0  0  0  0  0
    8.7801  -18.0092  -10.3427 C   0  0  0  0  0  0  0  0  0  0  0  0
    9.1708  -19.3169   -9.1268 S   0  0  0  0  0  0  0  0  0  0  0  0
   10.9500  -19.0777   -8.9270 C   0  0  0  0  0  0  0  0  0  0  0  0
 20 21  1  0
 15 21  1  0
 15 16  1  0
 16 17  1  0
 17 14  1  0
 14  1  1  0
  1  2  2  0
  2  3  1  0
  3  4  1  0
  4  5  2  0
  5  6  1  0
  5  7  1  0
  7  8  2  0
  8  9  1  0
  9 10  2  0
 17 18  1  0
 18 19  1  0
 19 22  1  0
 22 23  1  0
 23 24  1  0
 19 15  1  0
 10  1  1  0
 10  4  1  0
  3 11  1  0
  6 12  1  0
  6 13  1  0
M  END
> <minimizedAffinity>
-8.47691

> <CNNscore>
0.9868865013

> <CNNaffinity>
8.9720077515

> <CNN_VS>
8.8543529510

> <CNNaffinity_variance>
1.0445928574

$$$$



 24 26  0  0  0  0  0  0  0  0999 V2000
    3.9022  -19.5125  -13.0671 C   0  0  0  0  0  0  0  0  0  0  0  0
    4.5684  -19.8803  -14.2266 C   0  0  0  0  0  0  0  0  0  0  0  0
    4.5315  -21.2462  -14.3317 N   0  0  0  0  0  0  0  0  0  0  0  0
    3.9044  -21.7839  -13.2377 C   0  0  0  0  0  0  0  0  0  0  0  0
    3.6352  -23.0889  -12.8630 C   0  0  0  0  0  0  0  0  0  0  0  0
    4.0404  -24.2011  -13.5868 N   0  0  0  0  0  0  0  0  0  0  0  0
    2.9614  -23.2872  -11.7205 N   0  0  0  0  0  0  0  0  0  0  0  0
    2.5971  -22.2046  -11.0051 C   0  0  0  0  0  0  0  0  0  0  0  0
    2.8323  -20.9133  -11.2759 N   0  0  0  0  0  0  0  0  0  0  0  0
    3.4928  -20.7261  -12.4398 C   0  0  0  0  0  0  0  0  0  0  0  0
    4.9011  -21.7650  -15.0824 H   0  0  0  0  0  0  0  0  0  0  0  0
    4.5367  -24.0861  -14.4292 H   0  0  0  0  0  0  0  0  0  0  0  0
    3.8315  -25.1053  -13.2579 H   0  0  0  0  0  0  0  0  0  0  0  0
    3.6828  -18.1277  -12.5428 C   0  0  0  0  0  0  0  0  0  0  0  0
    6.7833  -18.3877  -11.8927 C   0  0  0  0  0  0  0  0  0  0  0  0
    6.0432  -18.0726  -13.2069 C   0  0  0  0  0  0  0  0  0  0  0  0
    4.8459  -17.2808  -12.8613 N   0  0  0  0  0  0  0  0  0  0  0  0
    5.2832  -16.5010  -11.6909 C   0  0  0  0  0  0  0  0  0  0  0  0
    6.1269  -17.4633  -10.8565 C   0  0  0  0  0  0  0  0  0  0  0  0
    6.0548  -19.9897  -10.2739 C   0  0  0  0  0  0  0  0  0  0  0  0
    6.5755  -19.7718  -11.5770 O   0  0  0  0  0  0  0  0  0  0  0  0
    7.0875  -16.8214   -9.8456 C   0  0  0  0  0  0  0  0  0  0  0  0
    8.7781  -17.4872   -9.6458 S   0  0  0  0  0  0  0  0  0  0  0  0
    8.4818  -18.8248   -8.4686 C   0  0  0  0  0  0  0  0  0  0  0  0
 20 21  1  0
 15 21  1  0
 15 16  1  0
 16 17  1  0
 17 14  1  0
 14  1  1  0
  1  2  2  0
  2  3  1  0
  3  4  1  0
  4  5  2  0
  5  6  1  0
  5  7  1  0
  7  8  2  0
  8  9  1  0
  9 10  2  0
 17 18  1  0
 18 19  1  0
 19 22  1  0
 22 23  1  0
 23 24  1  0
 19 15  1  0
 10  1  1  0
 10  4  1  0
  3 11  1  0
  6 12  1  0
  6 13  1  0
M  END
> <minimizedAffinity>
-5.44384

> <CNNscore>
0.7738413215

> <CNNaffinity>
7.8778977394

> <CNN_VS>
6.0962429047

> <CNNaffinity_variance>
0.6816294789

$$$$



 24 26  0  0  0  0  0  0  0  0999 V2000
    7.8770  -18.1720  -10.6193 C   0  0  0  0  0  0  0  0  0  0  0  0
    7.5088  -19.3383  -11.2733 C   0  0  0  0  0  0  0  0  0  0  0  0
    6.3666  -19.0908  -11.9889 N   0  0  0  0  0  0  0  0  0  0  0  0
    5.9480  -17.8033  -11.7731 C   0  0  0  0  0  0  0  0  0  0  0  0
    4.8595  -17.0849  -12.2369 C   0  0  0  0  0  0  0  0  0  0  0  0
    3.8709  -17.6178  -13.0517 N   0  0  0  0  0  0  0  0  0  0  0  0
    4.7450  -15.8040  -11.8565 N   0  0  0  0  0  0  0  0  0  0  0  0
    5.6913  -15.3000  -11.0398 C   0  0  0  0  0  0  0  0  0  0  0  0
    6.7607  -15.9224  -10.5251 N   0  0  0  0  0  0  0  0  0  0  0  0
    6.8763  -17.2055  -10.9329 C   0  0  0  0  0  0  0  0  0  0  0  0
    5.9134  -19.7417  -12.5721 H   0  0  0  0  0  0  0  0  0  0  0  0
    3.9285  -18.5553  -13.3467 H   0  0  0  0  0  0  0  0  0  0  0  0
    3.1119  -17.0584  -13.3349 H   0  0  0  0  0  0  0  0  0  0  0  0
    9.0606  -17.9625   -9.7271 C   0  0  0  0  0  0  0  0  0  0  0  0
   12.0013  -18.6385   -8.7276 C   0  0  0  0  0  0  0  0  0  0  0  0
   10.6349  -19.2410   -8.3477 C   0  0  0  0  0  0  0  0  0  0  0  0
    9.7939  -19.2299   -9.5612 N   0  0  0  0  0  0  0  0  0  0  0  0
   10.7664  -19.4377  -10.6477 C   0  0  0  0  0  0  0  0  0  0  0  0
   11.9866  -18.6028  -10.2630 C   0  0  0  0  0  0  0  0  0  0  0  0
   13.0833  -16.5065   -8.7666 C   0  0  0  0  0  0  0  0  0  0  0  0
   12.0866  -17.3208   -8.1664 O   0  0  0  0  0  0  0  0  0  0  0  0
   13.3098  -18.9827  -10.9424 C   0  0  0  0  0  0  0  0  0  0  0  0
   14.6574  -19.7296   -9.9589 S   0  0  0  0  0  0  0  0  0  0  0  0
   15.7760  -20.2733  -11.2687 C   0  0  0  0  0  0  0  0  0  0  0  0
 20 21  1  0
 15 21  1  0
 15 16  1  0
 16 17  1  0
 17 14  1  0
 14  1  1  0
  1  2  2  0
  2  3  1  0
  3  4  1  0
  4  5  2  0
  5  6  1  0
  5  7  1  0
  7  8  2  0
  8  9  1  0
  9 10  2  0
 17 18  1  0
 18 19  1  0
 19 22  1  0
 22 23  1  0
 23 24  1  0
 19 15  1  0
 10  1  1  0
 10  4  1  0
  3 11  1  0
  6 12  1  0
  6 13  1  0
M  END
> <minimizedAffinity>
-6.26693

> <CNNscore>
0.2922034860

> <CNNaffinity>
6.5619907379

> <CNN_VS>
1.9174365997

> <CNNaffinity_variance>
0.2387826890

$$$$



 24 26  0  0  0  0  0  0  0  0999 V2000
   13.9566  -15.1830   -8.3621 C   0  0  0  0  0  0  0  0  0  0  0  0
   14.5525  -15.2857   -7.1139 C   0  0  0  0  0  0  0  0  0  0  0  0
   14.4035  -14.0885   -6.4638 N   0  0  0  0  0  0  0  0  0  0  0  0
   13.7720  -13.1868   -7.2807 C   0  0  0  0  0  0  0  0  0  0  0  0
   13.4123  -11.8615   -7.1072 C   0  0  0  0  0  0  0  0  0  0  0  0
   13.7033  -11.1234   -5.9690 N   0  0  0  0  0  0  0  0  0  0  0  0
   12.7630  -11.2513   -8.1095 N   0  0  0  0  0  0  0  0  0  0  0  0
   12.5100  -11.9636   -9.2253 C   0  0  0  0  0  0  0  0  0  0  0  0
   12.8383  -13.2357   -9.4902 N   0  0  0  0  0  0  0  0  0  0  0  0
   13.4727  -13.8454   -8.4647 C   0  0  0  0  0  0  0  0  0  0  0  0
   14.7055  -13.9034   -5.5452 H   0  0  0  0  0  0  0  0  0  0  0  0
   14.1790  -11.5449   -5.2172 H   0  0  0  0  0  0  0  0  0  0  0  0
   13.4340  -10.1781   -5.9131 H   0  0  0  0  0  0  0  0  0  0  0  0
   13.8657  -16.2403   -9.4180 C   0  0  0  0  0  0  0  0  0  0  0  0
   13.1465  -19.0935  -10.6203 C   0  0  0  0  0  0  0  0  0  0  0  0
   14.1795  -18.6687   -9.5588 C   0  0  0  0  0  0  0  0  0  0  0  0
   13.5944  -17.5482   -8.7958 N   0  0  0  0  0  0  0  0  0  0  0  0
   12.1543  -17.8571   -8.7933 C   0  0  0  0  0  0  0  0  0  0  0  0
   11.8519  -18.3850  -10.1947 C   0  0  0  0  0  0  0  0  0  0  0  0
   15.0173  -18.6041  -12.0268 C   0  0  0  0  0  0  0  0  0  0  0  0
   13.6031  -18.6404  -11.9028 O   0  0  0  0  0  0  0  0  0  0  0  0
   10.5685  -19.2139  -10.3448 C   0  0  0  0  0  0  0  0  0  0  0  0
    8.9386  -18.4203  -10.1105 S   0  0  0  0  0  0  0  0  0  0  0  0
    8.4279  -19.1458   -8.5372 C   0  0  0  0  0  0  0  0  0  0  0  0
 20 21  1  0
 15 21  1  0
 15 16  1  0
 16 17  1  0
 17 14  1  0
 14  1  1  0
  1  2  2  0
  2  3  1  0
  3  4  1  0
  4  5  2  0
  5  6  1  0
  5  7  1  0
  7  8  2  0
  8  9  1  0
  9 10  2  0
 17 18  1  0
 18 19  1  0
 19 22  1  0
 22 23  1  0
 23 24  1  0
 19 15  1  0
 10  1  1  0
 10  4  1  0
  3 11  1  0
  6 12  1  0
  6 13  1  0
M  END
> <minimizedAffinity>
-4.79443

> <CNNscore>
0.2179810554

> <CNNaffinity>
4.9176096916

> <CNN_VS>
1.0719457865

> <CNNaffinity_variance>
0.1801487952

$$$$



 24 26  0  0  0  0  0  0  0  0999 V2000
    6.1518  -17.4234  -10.7681 C   0  0  0  0  0  0  0  0  0  0  0  0
    5.0952  -16.5527  -10.5465 C   0  0  0  0  0  0  0  0  0  0  0  0
    4.0618  -16.9075  -11.3738 N   0  0  0  0  0  0  0  0  0  0  0  0
    4.4388  -17.9565  -12.1716 C   0  0  0  0  0  0  0  0  0  0  0  0
    3.7804  -18.6555  -13.1686 C   0  0  0  0  0  0  0  0  0  0  0  0
    2.5020  -18.3500  -13.6129 N   0  0  0  0  0  0  0  0  0  0  0  0
    4.4279  -19.6745  -13.7527 N   0  0  0  0  0  0  0  0  0  0  0  0
    5.6811  -19.9476  -13.3390 C   0  0  0  0  0  0  0  0  0  0  0  0
    6.4026  -19.3151  -12.4033 N   0  0  0  0  0  0  0  0  0  0  0  0
    5.7316  -18.3047  -11.8077 C   0  0  0  0  0  0  0  0  0  0  0  0
    3.1786  -16.4728  -11.3924 H   0  0  0  0  0  0  0  0  0  0  0  0
    2.0027  -17.6073  -13.2027 H   0  0  0  0  0  0  0  0  0  0  0  0
    2.0943  -18.8760  -14.3384 H   0  0  0  0  0  0  0  0  0  0  0  0
    7.4866  -17.4271  -10.0906 C   0  0  0  0  0  0  0  0  0  0  0  0
    9.0361  -20.0471   -9.1750 C   0  0  0  0  0  0  0  0  0  0  0  0
    8.1800  -19.7562  -10.4227 C   0  0  0  0  0  0  0  0  0  0  0  0
    8.4024  -18.3441  -10.7921 N   0  0  0  0  0  0  0  0  0  0  0  0
    9.8037  -18.1102  -10.4037 C   0  0  0  0  0  0  0  0  0  0  0  0
    9.9818  -18.8411   -9.0740 C   0  0  0  0  0  0  0  0  0  0  0  0
    8.2566  -19.0243   -7.1591 C   0  0  0  0  0  0  0  0  0  0  0  0
    8.1644  -20.1353   -8.0387 O   0  0  0  0  0  0  0  0  0  0  0  0
   11.4256  -19.1696   -8.6687 C   0  0  0  0  0  0  0  0  0  0  0  0
   12.7407  -19.2122   -9.9375 S   0  0  0  0  0  0  0  0  0  0  0  0
   13.5538  -17.6268   -9.6408 C   0  0  0  0  0  0  0  0  0  0  0  0
 20 21  1  0
 15 21  1  0
 15 16  1  0
 16 17  1  0
 17 14  1  0
 14  1  1  0
  1  2  2  0
  2  3  1  0
  3  4  1  0
  4  5  2  0
  5  6  1  0
  5  7  1  0
  7  8  2  0
  8  9  1  0
  9 10  2  0
 17 18  1  0
 18 19  1  0
 19 22  1  0
 22 23  1  0
 23 24  1  0
 19 15  1  0
 10  1  1  0
 10  4  1  0
  3 11  1  0
  6 12  1  0
  6 13  1  0
M  END
> <minimizedAffinity>
-4.75505

> <CNNscore>
0.1614067852

> <CNNaffinity>
6.1177010536

> <CNN_VS>
0.9874384403

> <CNNaffinity_variance>
0.0844166577

$$$$



 24 26  0  0  0  0  0  0  0  0999 V2000
    7.3017  -17.1534  -10.3376 C   0  0  0  0  0  0  0  0  0  0  0  0
    6.4933  -16.0653  -10.0441 C   0  0  0  0  0  0  0  0  0  0  0  0
    5.2980  -16.2267  -10.6946 N   0  0  0  0  0  0  0  0  0  0  0  0
    5.3269  -17.3690  -11.4521 C   0  0  0  0  0  0  0  0  0  0  0  0
    4.3978  -17.9552  -12.2941 C   0  0  0  0  0  0  0  0  0  0  0  0
    3.1591  -17.4017  -12.5846 N   0  0  0  0  0  0  0  0  0  0  0  0
    4.7261  -19.1164  -12.8792 N   0  0  0  0  0  0  0  0  0  0  0  0
    5.9426  -19.6343  -12.6181 C   0  0  0  0  0  0  0  0  0  0  0  0
    6.9100  -19.1295  -11.8399 N   0  0  0  0  0  0  0  0  0  0  0  0
    6.5588  -17.9710  -11.2396 C   0  0  0  0  0  0  0  0  0  0  0  0
    4.5313  -15.6128  -10.6278 H   0  0  0  0  0  0  0  0  0  0  0  0
    2.8910  -16.5501  -12.1699 H   0  0  0  0  0  0  0  0  0  0  0  0
    2.5483  -17.8607  -13.2056 H   0  0  0  0  0  0  0  0  0  0  0  0
    8.6921  -17.4138   -9.8477 C   0  0  0  0  0  0  0  0  0  0  0  0
   11.1070  -19.1656   -8.7509 C   0  0  0  0  0  0  0  0  0  0  0  0
    9.5819  -19.3376   -8.6137 C   0  0  0  0  0  0  0  0  0  0  0  0
    8.9684  -18.8611   -9.8693 N   0  0  0  0  0  0  0  0  0  0  0  0
    9.9752  -19.2038  -10.8883 C   0  0  0  0  0  0  0  0  0  0  0  0
   11.3245  -18.8870  -10.2456 C   0  0  0  0  0  0  0  0  0  0  0  0
   12.3595  -17.1335   -8.6104 C   0  0  0  0  0  0  0  0  0  0  0  0
   11.5118  -18.0540   -7.9390 O   0  0  0  0  0  0  0  0  0  0  0  0
   12.5500  -19.5690  -10.8702 C   0  0  0  0  0  0  0  0  0  0  0  0
   13.8790  -18.5547  -11.6092 S   0  0  0  0  0  0  0  0  0  0  0  0
   15.3005  -19.6496  -11.4016 C   0  0  0  0  0  0  0  0  0  0  0  0
 20 21  1  0
 15 21  1  0
 15 16  1  0
 16 17  1  0
 17 14  1  0
 14  1  1  0
  1  2  2  0
  2  3  1  0
  3  4  1  0
  4  5  2  0
  5  6  1  0
  5  7  1  0
  7  8  2  0
  8  9  1  0
  9 10  2  0
 17 18  1  0
 18 19  1  0
 19 22  1  0
 22 23  1  0
 23 24  1  0
 19 15  1  0
 10  1  1  0
 10  4  1  0
  3 11  1  0
  6 12  1  0
  6 13  1  0
M  END
> <minimizedAffinity>
-4.82740

> <CNNscore>
0.1612399668

> <CNNaffinity>
6.1888141632

> <CNN_VS>
0.9978842139

> <CNNaffinity_variance>
0.0629861653

$$$$



 24 26  0  0  0  0  0  0  0  0999 V2000
    7.3763  -18.1706  -11.2241 C   0  0  0  0  0  0  0  0  0  0  0  0
    6.9828  -19.3936  -11.7465 C   0  0  0  0  0  0  0  0  0  0  0  0
    5.7567  -19.2368  -12.3383 N   0  0  0  0  0  0  0  0  0  0  0  0
    5.3140  -17.9509  -12.1661 C   0  0  0  0  0  0  0  0  0  0  0  0
    4.1513  -17.3043  -12.5480 C   0  0  0  0  0  0  0  0  0  0  0  0
    3.0979  -17.9278  -13.2012 N   0  0  0  0  0  0  0  0  0  0  0  0
    4.0297  -16.0028  -12.2479 N   0  0  0  0  0  0  0  0  0  0  0  0
    5.0424  -15.4092  -11.5858 C   0  0  0  0  0  0  0  0  0  0  0  0
    6.1883  -15.9570  -11.1580 N   0  0  0  0  0  0  0  0  0  0  0  0
    6.3079  -17.2626  -11.4852 C   0  0  0  0  0  0  0  0  0  0  0  0
    5.2661  -19.9436  -12.8168 H   0  0  0  0  0  0  0  0  0  0  0  0
    3.1590  -18.8824  -13.4342 H   0  0  0  0  0  0  0  0  0  0  0  0
    2.2894  -17.4156  -13.4318 H   0  0  0  0  0  0  0  0  0  0  0  0
    8.6453  -17.8573  -10.4945 C   0  0  0  0  0  0  0  0  0  0  0  0
   10.4252  -19.4132   -8.3697 C   0  0  0  0  0  0  0  0  0  0  0  0
    9.4825  -19.9254   -9.4757 C   0  0  0  0  0  0  0  0  0  0  0  0
    9.5832  -18.9878  -10.6119 N   0  0  0  0  0  0  0  0  0  0  0  0
   10.9839  -18.5361  -10.5536 C   0  0  0  0  0  0  0  0  0  0  0  0
   11.2872  -18.3508   -9.0678 C   0  0  0  0  0  0  0  0  0  0  0  0
    8.2614  -19.2331   -7.3679 C   0  0  0  0  0  0  0  0  0  0  0  0
    9.6267  -18.8448   -7.3218 O   0  0  0  0  0  0  0  0  0  0  0  0
   12.7710  -18.3450   -8.6740 C   0  0  0  0  0  0  0  0  0  0  0  0
   14.0572  -18.2629   -9.9702 S   0  0  0  0  0  0  0  0  0  0  0  0
   14.5844  -16.5418   -9.8203 C   0  0  0  0  0  0  0  0  0  0  0  0
 20 21  1  0
 15 21  1  0
 15 16  1  0
 16 17  1  0
 17 14  1  0
 14  1  1  0
  1  2  2  0
  2  3  1  0
  3  4  1  0
  4  5  2  0
  5  6  1  0
  5  7  1  0
  7  8  2  0
  8  9  1  0
  9 10  2  0
 17 18  1  0
 18 19  1  0
 19 22  1  0
 22 23  1  0
 23 24  1  0
 19 15  1  0
 10  1  1  0
 10  4  1  0
  3 11  1  0
  6 12  1  0
  6 13  1  0
M  END
> <minimizedAffinity>
-4.37381

> <CNNscore>
0.1418780386

> <CNNaffinity>
5.7192139626

> <CNN_VS>
0.8114308715

> <CNNaffinity_variance>
0.2533284724

$$$$



 24 26  0  0  0  0  0  0  0  0999 V2000
   -1.1529  -27.6859   -3.0179 C   0  0  0  0  0  0  0  0  0  0  0  0
   -2.2718  -27.7479   -3.8351 C   0  0  0  0  0  0  0  0  0  0  0  0
   -3.3873  -27.5993   -3.0530 N   0  0  0  0  0  0  0  0  0  0  0  0
   -3.0254  -27.4972   -1.7347 C   0  0  0  0  0  0  0  0  0  0  0  0
   -3.7629  -27.3571   -0.5717 C   0  0  0  0  0  0  0  0  0  0  0  0
   -5.1497  -27.3417   -0.5320 N   0  0  0  0  0  0  0  0  0  0  0  0
   -3.0945  -27.2520    0.5862 N   0  0  0  0  0  0  0  0  0  0  0  0
   -1.7482  -27.2987    0.5456 C   0  0  0  0  0  0  0  0  0  0  0  0
   -0.9549  -27.4540   -0.5234 N   0  0  0  0  0  0  0  0  0  0  0  0
   -1.6394  -27.5371   -1.6855 C   0  0  0  0  0  0  0  0  0  0  0  0
   -4.3124  -27.5701   -3.3885 H   0  0  0  0  0  0  0  0  0  0  0  0
   -5.6669  -27.4171   -1.3663 H   0  0  0  0  0  0  0  0  0  0  0  0
   -5.6165  -27.2553    0.3304 H   0  0  0  0  0  0  0  0  0  0  0  0
    0.2825  -27.7925   -3.4290 C   0  0  0  0  0  0  0  0  0  0  0  0
    2.6629  -29.8180   -4.0075 C   0  0  0  0  0  0  0  0  0  0  0  0
    1.1522  -30.0531   -3.8154 C   0  0  0  0  0  0  0  0  0  0  0  0
    0.4469  -28.8928   -4.3953 N   0  0  0  0  0  0  0  0  0  0  0  0
    1.3125  -28.4992   -5.5201 C   0  0  0  0  0  0  0  0  0  0  0  0
    2.7418  -28.6503   -5.0021 C   0  0  0  0  0  0  0  0  0  0  0  0
    2.2781  -29.0270   -1.7840 C   0  0  0  0  0  0  0  0  0  0  0  0
    3.2324  -29.4727   -2.7366 O   0  0  0  0  0  0  0  0  0  0  0  0
    3.8406  -28.7671   -6.0678 C   0  0  0  0  0  0  0  0  0  0  0  0
    3.5091  -29.6682   -7.6232 S   0  0  0  0  0  0  0  0  0  0  0  0
    5.0686  -30.5520   -7.8455 C   0  0  0  0  0  0  0  0  0  0  0  0
 20 21  1  0
 15 21  1  0
 15 16  1  0
 16 17  1  0
 17 14  1  0
 14  1  1  0
  1  2  2  0
  2  3  1  0
  3  4  1  0
  4  5  2  0
  5  6  1  0
  5  7  1  0
  7  8  2  0
  8  9  1  0
  9 10  2  0
 17 18  1  0
 18 19  1  0
 19 22  1  0
 22 23  1  0
 23 24  1  0
 19 15  1  0
 10  1  1  0
 10  4  1  0
  3 11  1  0
  6 12  1  0
  6 13  1  0
M  END
> <minimizedAffinity>
-6.24947

> <CNNscore>
0.1335913986

> <CNNaffinity>
3.7613894939

> <CNN_VS>
0.5024892688

> <CNNaffinity_variance>
2.4426381588

$$$$



 24 26  0  0  0  0  0  0  0  0999 V2000
   13.8650  -15.8828   -9.2066 C   0  0  0  0  0  0  0  0  0  0  0  0
   14.6439  -15.3831  -10.2397 C   0  0  0  0  0  0  0  0  0  0  0  0
   14.7539  -16.3498  -11.2049 N   0  0  0  0  0  0  0  0  0  0  0  0
   14.1105  -17.4910  -10.8010 C   0  0  0  0  0  0  0  0  0  0  0  0
   13.9504  -18.7322  -11.3924 C   0  0  0  0  0  0  0  0  0  0  0  0
   14.5161  -19.0888  -12.6081 N   0  0  0  0  0  0  0  0  0  0  0  0
   13.2228  -19.6495  -10.7385 N   0  0  0  0  0  0  0  0  0  0  0  0
   12.7014  -19.3085   -9.5434 C   0  0  0  0  0  0  0  0  0  0  0  0
   12.8219  -18.1466   -8.8864 N   0  0  0  0  0  0  0  0  0  0  0  0
   13.5389  -17.2241   -9.5652 C   0  0  0  0  0  0  0  0  0  0  0  0
   15.2256  -16.2408  -12.0621 H   0  0  0  0  0  0  0  0  0  0  0  0
   15.0553  -18.4360  -13.1105 H   0  0  0  0  0  0  0  0  0  0  0  0
   14.3782  -19.9946  -12.9683 H   0  0  0  0  0  0  0  0  0  0  0  0
   13.4697  -15.1836   -7.9434 C   0  0  0  0  0  0  0  0  0  0  0  0
   14.6347  -13.6804   -5.3965 C   0  0  0  0  0  0  0  0  0  0  0  0
   15.2910  -14.0709   -6.7349 C   0  0  0  0  0  0  0  0  0  0  0  0
   14.2599  -13.9499   -7.7848 N   0  0  0  0  0  0  0  0  0  0  0  0
   13.4264  -12.8313   -7.3122 C   0  0  0  0  0  0  0  0  0  0  0  0
   13.3046  -13.0281   -5.8021 C   0  0  0  0  0  0  0  0  0  0  0  0
   15.6302  -15.4690   -4.1605 C   0  0  0  0  0  0  0  0  0  0  0  0
   14.4283  -14.8746   -4.6284 O   0  0  0  0  0  0  0  0  0  0  0  0
   12.9035  -11.7905   -4.9870 C   0  0  0  0  0  0  0  0  0  0  0  0
   11.4178  -10.8339   -5.4548 S   0  0  0  0  0  0  0  0  0  0  0  0
   11.1418   -9.8733   -3.9503 C   0  0  0  0  0  0  0  0  0  0  0  0
 20 21  1  0
 15 21  1  0
 15 16  1  0
 16 17  1  0
 17 14  1  0
 14  1  1  0
  1  2  2  0
  2  3  1  0
  3  4  1  0
  4  5  2  0
  5  6  1  0
  5  7  1  0
  7  8  2  0
  8  9  1  0
  9 10  2  0
 17 18  1  0
 18 19  1  0
 19 22  1  0
 22 23  1  0
 23 24  1  0
 19 15  1  0
 10  1  1  0
 10  4  1  0
  3 11  1  0
  6 12  1  0
  6 13  1  0
M  END
> <minimizedAffinity>
-4.75594

> <CNNscore>
0.1178909689

> <CNNaffinity>
4.5507602692

> <CNN_VS>
0.5364935398

> <CNNaffinity_variance>
0.1070315540

$$$$
