


 24 26  0  0  0  0  0  0  0  0999 V2000
   57.7028   72.0764   22.0852 C   0  0  0  0  0  0  0  0  0  0  0  0
   57.7329   71.7847   20.6739 O   0  0  0  0  0  0  0  0  0  0  0  0
   58.0231   73.0166   19.9579 C   0  0  0  0  0  0  0  0  0  0  0  0
   58.2424   74.1058   21.0116 C   0  0  0  0  0  0  0  0  0  0  0  0
   59.6267   74.1783   21.3987 O   0  0  0  0  0  0  0  0  0  0  0  0
   57.4292   73.5779   22.1817 C   0  0  0  0  0  0  0  0  0  0  0  0
   57.8711   74.1685   23.4002 O   0  0  0  0  0  0  0  0  0  0  0  0
   59.9198   73.3095   21.7154 H   0  0  0  0  0  0  0  0  0  0  0  0
   58.8226   74.0137   23.5081 H   0  0  0  0  0  0  0  0  0  0  0  0
   56.9123   73.3121   19.0555 N   0  0  0  0  0  0  0  0  0  0  0  0
   56.8811   73.1549   17.6889 C   0  0  0  0  0  0  0  0  0  0  0  0
   55.6398   73.5565   17.2407 C   0  0  0  0  0  0  0  0  0  0  0  0
   54.8861   73.9737   18.3715 C   0  0  0  0  0  0  0  0  0  0  0  0
   53.5999   74.4792   18.6059 C   0  0  0  0  0  0  0  0  0  0  0  0
   52.6604   74.6866   17.6070 N   0  0  0  0  0  0  0  0  0  0  0  0
   53.2340   74.7679   19.8699 N   0  0  0  0  0  0  0  0  0  0  0  0
   54.1306   74.5682   20.8553 C   0  0  0  0  0  0  0  0  0  0  0  0
   55.3815   74.0876   20.7548 N   0  0  0  0  0  0  0  0  0  0  0  0
   55.7045   73.8134   19.4806 C   0  0  0  0  0  0  0  0  0  0  0  0
   52.8867   74.4885   16.6695 H   0  0  0  0  0  0  0  0  0  0  0  0
   51.7672   75.0320   17.8353 H   0  0  0  0  0  0  0  0  0  0  0  0
   56.6158   71.2533   22.7816 C   0  0  0  0  0  0  0  0  0  0  0  0
   55.8498   68.9599   24.1771 C   0  0  0  0  0  0  0  0  0  0  0  0
   56.9482   69.4542   22.8247 S   0  0  0  0  0  0  0  0  0  0  0  0
 23 24  1  0
 24 22  1  0
  1 22  1  0
  1  2  1  0
  2  3  1  0
  3 10  1  0
 10 11  1  0
 11 12  2  0
 12 13  1  0
 13 14  2  0
 14 15  1  0
 14 16  1  0
 16 17  2  0
 17 18  1  0
 18 19  2  0
  3  4  1  0
  4  5  1  0
  4  6  1  0
  6  7  1  0
  6  1  1  0
 19 10  1  0
 19 13  1  0
 15 20  1  0
 15 21  1  0
  5  8  1  0
  7  9  1  0
M  END
> <minimizedAffinity>
-8.25705

> <CNNscore>
0.9600491524

> <CNNaffinity>
6.8958840370

> <CNN_VS>
6.6203875542

> <CNNaffinity_variance>
0.2098015547

$$$$



 24 26  0  0  0  0  0  0  0  0999 V2000
   58.0719   71.4522   22.1003 C   0  0  0  0  0  0  0  0  0  0  0  0
   57.3153   71.5628   20.8785 O   0  0  0  0  0  0  0  0  0  0  0  0
   57.6014   72.8560   20.2784 C   0  0  0  0  0  0  0  0  0  0  0  0
   58.6446   73.5406   21.1661 C   0  0  0  0  0  0  0  0  0  0  0  0
   59.9797   73.2130   20.7400 O   0  0  0  0  0  0  0  0  0  0  0  0
   58.3830   72.8910   22.5147 C   0  0  0  0  0  0  0  0  0  0  0  0
   59.5256   73.0158   23.3559 O   0  0  0  0  0  0  0  0  0  0  0  0
   60.0903   72.2493   20.7354 H   0  0  0  0  0  0  0  0  0  0  0  0
   60.3001   72.6424   22.9068 H   0  0  0  0  0  0  0  0  0  0  0  0
   56.3566   73.6145   20.1734 N   0  0  0  0  0  0  0  0  0  0  0  0
   55.7185   74.3158   21.1705 C   0  0  0  0  0  0  0  0  0  0  0  0
   54.5780   74.8777   20.6353 C   0  0  0  0  0  0  0  0  0  0  0  0
   54.5162   74.5073   19.2641 C   0  0  0  0  0  0  0  0  0  0  0  0
   53.6466   74.7330   18.1882 C   0  0  0  0  0  0  0  0  0  0  0  0
   52.4969   75.5037   18.2761 N   0  0  0  0  0  0  0  0  0  0  0  0
   53.9395   74.1922   16.9896 N   0  0  0  0  0  0  0  0  0  0  0  0
   55.0550   73.4445   16.8822 C   0  0  0  0  0  0  0  0  0  0  0  0
   55.9613   73.1639   17.8340 N   0  0  0  0  0  0  0  0  0  0  0  0
   55.6313   73.7214   19.0100 C   0  0  0  0  0  0  0  0  0  0  0  0
   52.2460   75.9174   19.1335 H   0  0  0  0  0  0  0  0  0  0  0  0
   51.9318   75.6372   17.4811 H   0  0  0  0  0  0  0  0  0  0  0  0
   57.2621   70.7138   23.1695 C   0  0  0  0  0  0  0  0  0  0  0  0
   56.7901   68.1552   24.1818 C   0  0  0  0  0  0  0  0  0  0  0  0
   56.6241   69.0837   22.6358 S   0  0  0  0  0  0  0  0  0  0  0  0
 23 24  1  0
 24 22  1  0
  1 22  1  0
  1  2  1  0
  2  3  1  0
  3 10  1  0
 10 11  1  0
 11 12  2  0
 12 13  1  0
 13 14  2  0
 14 15  1  0
 14 16  1  0
 16 17  2  0
 17 18  1  0
 18 19  2  0
  3  4  1  0
  4  5  1  0
  4  6  1  0
  6  7  1  0
  6  1  1  0
 19 10  1  0
 19 13  1  0
 15 20  1  0
 15 21  1  0
  5  8  1  0
  7  9  1  0
M  END
> <minimizedAffinity>
-5.46963

> <CNNscore>
0.4289996028

> <CNNaffinity>
6.1691184044

> <CNN_VS>
2.6465494633

> <CNNaffinity_variance>
0.0348100550

$$$$



 24 26  0  0  0  0  0  0  0  0999 V2000
   60.5979   65.9337   25.4812 C   0  0  0  0  0  0  0  0  0  0  0  0
   61.0934   67.0054   26.3079 O   0  0  0  0  0  0  0  0  0  0  0  0
   62.3680   66.5947   26.8744 C   0  0  0  0  0  0  0  0  0  0  0  0
   62.6877   65.2112   26.3013 C   0  0  0  0  0  0  0  0  0  0  0  0
   63.4351   65.3201   25.0762 O   0  0  0  0  0  0  0  0  0  0  0  0
   61.3012   64.6739   25.9880 C   0  0  0  0  0  0  0  0  0  0  0  0
   61.3799   63.6286   25.0238 O   0  0  0  0  0  0  0  0  0  0  0  0
   62.9411   65.8645   24.4434 H   0  0  0  0  0  0  0  0  0  0  0  0
   61.8414   63.9513   24.2340 H   0  0  0  0  0  0  0  0  0  0  0  0
   62.2606   66.5968   28.3319 N   0  0  0  0  0  0  0  0  0  0  0  0
   61.1812   66.2069   29.0909 C   0  0  0  0  0  0  0  0  0  0  0  0
   61.5105   66.3742   30.4200 C   0  0  0  0  0  0  0  0  0  0  0  0
   62.8364   66.8840   30.4760 C   0  0  0  0  0  0  0  0  0  0  0  0
   63.7382   67.2636   31.4796 C   0  0  0  0  0  0  0  0  0  0  0  0
   63.4592   67.1837   32.8358 N   0  0  0  0  0  0  0  0  0  0  0  0
   64.9559   67.7170   31.1235 N   0  0  0  0  0  0  0  0  0  0  0  0
   65.2484   67.7970   29.8108 C   0  0  0  0  0  0  0  0  0  0  0  0
   64.4739   67.4602   28.7656 N   0  0  0  0  0  0  0  0  0  0  0  0
   63.2719   67.0142   29.1648 C   0  0  0  0  0  0  0  0  0  0  0  0
   62.5812   66.8577   33.1393 H   0  0  0  0  0  0  0  0  0  0  0  0
   64.1391   67.4530   33.4949 H   0  0  0  0  0  0  0  0  0  0  0  0
   59.0755   65.8230   25.5994 C   0  0  0  0  0  0  0  0  0  0  0  0
   56.6195   66.0975   24.3005 C   0  0  0  0  0  0  0  0  0  0  0  0
   58.2367   65.3209   24.0523 S   0  0  0  0  0  0  0  0  0  0  0  0
 23 24  1  0
 24 22  1  0
  1 22  1  0
  1  2  1  0
  2  3  1  0
  3 10  1  0
 10 11  1  0
 11 12  2  0
 12 13  1  0
 13 14  2  0
 14 15  1  0
 14 16  1  0
 16 17  2  0
 17 18  1  0
 18 19  2  0
  3  4  1  0
  4  5  1  0
  4  6  1  0
  6  7  1  0
  6  1  1  0
 19 10  1  0
 19 13  1  0
 15 20  1  0
 15 21  1  0
  5  8  1  0
  7  9  1  0
M  END
> <minimizedAffinity>
-5.45626

> <CNNscore>
0.4168409109

> <CNNaffinity>
4.0020465851

> <CNN_VS>
1.6682167053

> <CNNaffinity_variance>
0.2177235335

$$$$



 24 26  0  0  0  0  0  0  0  0999 V2000
   58.4037   65.3540   24.1206 C   0  0  0  0  0  0  0  0  0  0  0  0
   59.3269   66.3731   24.5526 O   0  0  0  0  0  0  0  0  0  0  0  0
   60.5621   65.7264   24.9656 C   0  0  0  0  0  0  0  0  0  0  0  0
   60.3908   64.2270   24.7065 C   0  0  0  0  0  0  0  0  0  0  0  0
   60.8258   63.8796   23.3793 O   0  0  0  0  0  0  0  0  0  0  0  0
   58.8822   64.0650   24.7901 C   0  0  0  0  0  0  0  0  0  0  0  0
   58.4722   62.8782   24.1178 O   0  0  0  0  0  0  0  0  0  0  0  0
   60.3410   64.4129   22.7301 H   0  0  0  0  0  0  0  0  0  0  0  0
   58.7945   62.8969   23.2031 H   0  0  0  0  0  0  0  0  0  0  0  0
   60.8113   66.0369   26.3718 N   0  0  0  0  0  0  0  0  0  0  0  0
   59.8786   66.1948   27.3709 C   0  0  0  0  0  0  0  0  0  0  0  0
   60.5501   66.4815   28.5412 C   0  0  0  0  0  0  0  0  0  0  0  0
   61.9411   66.4997   28.2481 C   0  0  0  0  0  0  0  0  0  0  0  0
   63.1275   66.7220   28.9606 C   0  0  0  0  0  0  0  0  0  0  0  0
   63.1695   66.9979   30.3191 N   0  0  0  0  0  0  0  0  0  0  0  0
   64.3032   66.6493   28.3068 N   0  0  0  0  0  0  0  0  0  0  0  0
   64.2840   66.3770   26.9875 C   0  0  0  0  0  0  0  0  0  0  0  0
   63.2182   66.1421   26.2036 N   0  0  0  0  0  0  0  0  0  0  0  0
   62.0695   66.2240   26.8941 C   0  0  0  0  0  0  0  0  0  0  0  0
   62.3332   67.0598   30.8349 H   0  0  0  0  0  0  0  0  0  0  0  0
   64.0356   67.1318   30.7677 H   0  0  0  0  0  0  0  0  0  0  0  0
   56.9739   65.7136   24.5333 C   0  0  0  0  0  0  0  0  0  0  0  0
   56.3327   64.8674   21.9513 C   0  0  0  0  0  0  0  0  0  0  0  0
   55.8786   66.1593   23.1366 S   0  0  0  0  0  0  0  0  0  0  0  0
 23 24  1  0
 24 22  1  0
  1 22  1  0
  1  2  1  0
  2  3  1  0
  3 10  1  0
 10 11  1  0
 11 12  2  0
 12 13  1  0
 13 14  2  0
 14 15  1  0
 14 16  1  0
 16 17  2  0
 17 18  1  0
 18 19  2  0
  3  4  1  0
  4  5  1  0
  4  6  1  0
  6  7  1  0
  6  1  1  0
 19 10  1  0
 19 13  1  0
 15 20  1  0
 15 21  1  0
  5  8  1  0
  7  9  1  0
M  END
> <minimizedAffinity>
-5.11110

> <CNNscore>
0.4074427485

> <CNNaffinity>
4.6911835670

> <CNN_VS>
1.9113887548

> <CNNaffinity_variance>
0.0659237877

$$$$



 24 26  0  0  0  0  0  0  0  0999 V2000
   57.2152   64.6950   22.2795 C   0  0  0  0  0  0  0  0  0  0  0  0
   58.5582   65.2067   22.3893 O   0  0  0  0  0  0  0  0  0  0  0  0
   59.2635   64.4289   23.3953 C   0  0  0  0  0  0  0  0  0  0  0  0
   58.3001   63.3403   23.8762 C   0  0  0  0  0  0  0  0  0  0  0  0
   58.4276   62.1491   23.0786 O   0  0  0  0  0  0  0  0  0  0  0  0
   56.9473   63.9758   23.6023 C   0  0  0  0  0  0  0  0  0  0  0  0
   55.9360   62.9760   23.5217 O   0  0  0  0  0  0  0  0  0  0  0  0
   58.2830   62.3683   22.1448 H   0  0  0  0  0  0  0  0  0  0  0  0
   56.1822   62.3205   22.8505 H   0  0  0  0  0  0  0  0  0  0  0  0
   59.6945   65.3229   24.4680 N   0  0  0  0  0  0  0  0  0  0  0  0
   58.9249   66.2294   25.1604 C   0  0  0  0  0  0  0  0  0  0  0  0
   59.7341   66.8617   26.0814 C   0  0  0  0  0  0  0  0  0  0  0  0
   61.0433   66.3240   25.9478 C   0  0  0  0  0  0  0  0  0  0  0  0
   62.2908   66.5220   26.5555 C   0  0  0  0  0  0  0  0  0  0  0  0
   62.5106   67.4240   27.5859 N   0  0  0  0  0  0  0  0  0  0  0  0
   63.3419   65.7897   26.1386 N   0  0  0  0  0  0  0  0  0  0  0  0
   63.1477   64.9040   25.1422 C   0  0  0  0  0  0  0  0  0  0  0  0
   62.0062   64.6245   24.4906 N   0  0  0  0  0  0  0  0  0  0  0  0
   60.9861   65.3751   24.9368 C   0  0  0  0  0  0  0  0  0  0  0  0
   61.7696   67.9789   27.9208 H   0  0  0  0  0  0  0  0  0  0  0  0
   63.4077   67.5092   27.9824 H   0  0  0  0  0  0  0  0  0  0  0  0
   56.2228   65.8361   22.0402 C   0  0  0  0  0  0  0  0  0  0  0  0
   55.6721   68.3574   23.1049 C   0  0  0  0  0  0  0  0  0  0  0  0
   55.5844   66.6096   23.5710 S   0  0  0  0  0  0  0  0  0  0  0  0
 23 24  1  0
 24 22  1  0
  1 22  1  0
  1  2  1  0
  2  3  1  0
  3 10  1  0
 10 11  1  0
 11 12  2  0
 12 13  1  0
 13 14  2  0
 14 15  1  0
 14 16  1  0
 16 17  2  0
 17 18  1  0
 18 19  2  0
  3  4  1  0
  4  5  1  0
  4  6  1  0
  6  7  1  0
  6  1  1  0
 19 10  1  0
 19 13  1  0
 15 20  1  0
 15 21  1  0
  5  8  1  0
  7  9  1  0
M  END
> <minimizedAffinity>
-5.48831

> <CNNscore>
0.3838825822

> <CNNaffinity>
4.1889100075

> <CNN_VS>
1.6080496311

> <CNNaffinity_variance>
0.4158454835

$$$$



 24 26  0  0  0  0  0  0  0  0999 V2000
   58.7273   65.4546   25.0029 C   0  0  0  0  0  0  0  0  0  0  0  0
   57.6710   64.5031   24.7656 O   0  0  0  0  0  0  0  0  0  0  0  0
   58.2625   63.2854   24.2348 C   0  0  0  0  0  0  0  0  0  0  0  0
   59.7787   63.4982   24.2097 C   0  0  0  0  0  0  0  0  0  0  0  0
   60.3798   63.0751   25.4471 O   0  0  0  0  0  0  0  0  0  0  0  0
   59.8810   65.0105   24.1026 C   0  0  0  0  0  0  0  0  0  0  0  0
   61.1610   65.4541   24.5427 O   0  0  0  0  0  0  0  0  0  0  0  0
   59.9642   63.5462   26.1862 H   0  0  0  0  0  0  0  0  0  0  0  0
   61.3223   65.1329   25.4437 H   0  0  0  0  0  0  0  0  0  0  0  0
   57.7017   63.0254   22.9105 N   0  0  0  0  0  0  0  0  0  0  0  0
   58.3013   63.2432   21.6914 C   0  0  0  0  0  0  0  0  0  0  0  0
   57.4161   62.8603   20.7052 C   0  0  0  0  0  0  0  0  0  0  0  0
   56.2346   62.3925   21.3426 C   0  0  0  0  0  0  0  0  0  0  0  0
   54.9946   61.8806   20.9363 C   0  0  0  0  0  0  0  0  0  0  0  0
   54.6376   61.6905   19.6097 N   0  0  0  0  0  0  0  0  0  0  0  0
   54.0944   61.5320   21.8760 N   0  0  0  0  0  0  0  0  0  0  0  0
   54.4244   61.7039   23.1709 C   0  0  0  0  0  0  0  0  0  0  0  0
   55.5752   62.1769   23.6787 N   0  0  0  0  0  0  0  0  0  0  0  0
   56.4423   62.5113   22.7096 C   0  0  0  0  0  0  0  0  0  0  0  0
   55.2659   61.9319   18.8914 H   0  0  0  0  0  0  0  0  0  0  0  0
   53.7557   61.3141   19.3864 H   0  0  0  0  0  0  0  0  0  0  0  0
   58.2581   66.8733   24.6696 C   0  0  0  0  0  0  0  0  0  0  0  0
   56.1276   68.5023   23.8940 C   0  0  0  0  0  0  0  0  0  0  0  0
   56.9267   66.9489   23.4162 S   0  0  0  0  0  0  0  0  0  0  0  0
 23 24  1  0
 24 22  1  0
  1 22  1  0
  1  2  1  0
  2  3  1  0
  3 10  1  0
 10 11  1  0
 11 12  2  0
 12 13  1  0
 13 14  2  0
 14 15  1  0
 14 16  1  0
 16 17  2  0
 17 18  1  0
 18 19  2  0
  3  4  1  0
  4  5  1  0
  4  6  1  0
  6  7  1  0
  6  1  1  0
 19 10  1  0
 19 13  1  0
 15 20  1  0
 15 21  1  0
  5  8  1  0
  7  9  1  0
M  END
> <minimizedAffinity>
-4.71535

> <CNNscore>
0.2842338383

> <CNNaffinity>
4.4268527031

> <CNN_VS>
1.2582613230

> <CNNaffinity_variance>
0.3994881809

$$$$



 24 26  0  0  0  0  0  0  0  0999 V2000
   56.9745   66.0506   24.5715 C   0  0  0  0  0  0  0  0  0  0  0  0
   56.2562   65.1016   23.7586 O   0  0  0  0  0  0  0  0  0  0  0  0
   57.1555   64.0073   23.4298 C   0  0  0  0  0  0  0  0  0  0  0  0
   58.4812   64.2876   24.1430 C   0  0  0  0  0  0  0  0  0  0  0  0
   58.4923   63.7057   25.4593 O   0  0  0  0  0  0  0  0  0  0  0  0
   58.4534   65.8014   24.2723 C   0  0  0  0  0  0  0  0  0  0  0  0
   59.3324   66.2275   25.3089 O   0  0  0  0  0  0  0  0  0  0  0  0
   57.7354   64.0387   25.9664 H   0  0  0  0  0  0  0  0  0  0  0  0
   59.0981   65.7788   26.1363 H   0  0  0  0  0  0  0  0  0  0  0  0
   57.2952   63.9300   21.9771 N   0  0  0  0  0  0  0  0  0  0  0  0
   56.4564   64.4659   21.0271 C   0  0  0  0  0  0  0  0  0  0  0  0
   56.9640   64.1527   19.7832 C   0  0  0  0  0  0  0  0  0  0  0  0
   58.1536   63.3994   19.9789 C   0  0  0  0  0  0  0  0  0  0  0  0
   59.1179   62.7916   19.1632 C   0  0  0  0  0  0  0  0  0  0  0  0
   59.0910   62.8336   17.7772 N   0  0  0  0  0  0  0  0  0  0  0  0
   60.1451   62.1410   19.7433 N   0  0  0  0  0  0  0  0  0  0  0  0
   60.1922   62.0935   21.0889 C   0  0  0  0  0  0  0  0  0  0  0  0
   59.3355   62.6380   21.9694 N   0  0  0  0  0  0  0  0  0  0  0  0
   58.3293   63.2757   21.3499 C   0  0  0  0  0  0  0  0  0  0  0  0
   58.3580   63.2987   17.3130 H   0  0  0  0  0  0  0  0  0  0  0  0
   59.8050   62.3983   17.2576 H   0  0  0  0  0  0  0  0  0  0  0  0
   56.5562   67.4818   24.2241 C   0  0  0  0  0  0  0  0  0  0  0  0
   55.0063   69.2135   22.6772 C   0  0  0  0  0  0  0  0  0  0  0  0
   55.9834   67.6991   22.4996 S   0  0  0  0  0  0  0  0  0  0  0  0
 23 24  1  0
 24 22  1  0
  1 22  1  0
  1  2  1  0
  2  3  1  0
  3 10  1  0
 10 11  1  0
 11 12  2  0
 12 13  1  0
 13 14  2  0
 14 15  1  0
 14 16  1  0
 16 17  2  0
 17 18  1  0
 18 19  2  0
  3  4  1  0
  4  5  1  0
  4  6  1  0
  6  7  1  0
  6  1  1  0
 19 10  1  0
 19 13  1  0
 15 20  1  0
 15 21  1  0
  5  8  1  0
  7  9  1  0
M  END
> <minimizedAffinity>
-4.59340

> <CNNscore>
0.2310576588

> <CNNaffinity>
4.4838223457

> <CNN_VS>
1.0360214710

> <CNNaffinity_variance>
0.2493128330

$$$$



 24 26  0  0  0  0  0  0  0  0999 V2000
   57.1036   73.7465   21.0165 C   0  0  0  0  0  0  0  0  0  0  0  0
   56.2586   72.9899   21.9059 O   0  0  0  0  0  0  0  0  0  0  0  0
   57.0637   71.9525   22.5303 C   0  0  0  0  0  0  0  0  0  0  0  0
   58.4989   72.1375   22.0295 C   0  0  0  0  0  0  0  0  0  0  0  0
   59.2364   73.0227   22.8920 O   0  0  0  0  0  0  0  0  0  0  0  0
   58.2779   72.8224   20.6912 C   0  0  0  0  0  0  0  0  0  0  0  0
   59.4576   73.5088   20.2838 O   0  0  0  0  0  0  0  0  0  0  0  0
   58.7693   73.8700   22.9613 H   0  0  0  0  0  0  0  0  0  0  0  0
   59.7274   74.1288   20.9792 H   0  0  0  0  0  0  0  0  0  0  0  0
   56.5037   70.6474   22.1855 N   0  0  0  0  0  0  0  0  0  0  0  0
   55.6596   70.3498   21.1406 C   0  0  0  0  0  0  0  0  0  0  0  0
   55.3783   69.0001   21.1893 C   0  0  0  0  0  0  0  0  0  0  0  0
   56.0739   68.4536   22.3022 C   0  0  0  0  0  0  0  0  0  0  0  0
   56.2121   67.1907   22.8944 C   0  0  0  0  0  0  0  0  0  0  0  0
   55.6020   66.0428   22.4112 N   0  0  0  0  0  0  0  0  0  0  0  0
   56.9929   67.0648   23.9851 N   0  0  0  0  0  0  0  0  0  0  0  0
   57.5989   68.1674   24.4669 C   0  0  0  0  0  0  0  0  0  0  0  0
   57.5464   69.4210   23.9858 N   0  0  0  0  0  0  0  0  0  0  0  0
   56.7592   69.5012   22.9010 C   0  0  0  0  0  0  0  0  0  0  0  0
   55.0232   66.0904   21.6162 H   0  0  0  0  0  0  0  0  0  0  0  0
   55.7476   65.1804   22.8631 H   0  0  0  0  0  0  0  0  0  0  0  0
   56.3326   74.1526   19.7577 C   0  0  0  0  0  0  0  0  0  0  0  0
   53.9639   74.6330   18.3602 C   0  0  0  0  0  0  0  0  0  0  0  0
   54.5860   74.6072   20.0609 S   0  0  0  0  0  0  0  0  0  0  0  0
 23 24  1  0
 24 22  1  0
  1 22  1  0
  1  2  1  0
  2  3  1  0
  3 10  1  0
 10 11  1  0
 11 12  2  0
 12 13  1  0
 13 14  2  0
 14 15  1  0
 14 16  1  0
 16 17  2  0
 17 18  1  0
 18 19  2  0
  3  4  1  0
  4  5  1  0
  4  6  1  0
  6  7  1  0
  6  1  1  0
 19 10  1  0
 19 13  1  0
 15 20  1  0
 15 21  1  0
  5  8  1  0
  7  9  1  0
M  END
> <minimizedAffinity>
-5.37547

> <CNNscore>
0.2107779831

> <CNNaffinity>
5.8054223061

> <CNN_VS>
1.2236552238

> <CNNaffinity_variance>
0.0125667192

$$$$



 24 26  0  0  0  0  0  0  0  0999 V2000
   61.3766   64.2740   27.9673 C   0  0  0  0  0  0  0  0  0  0  0  0
   62.7159   64.2503   28.4996 O   0  0  0  0  0  0  0  0  0  0  0  0
   62.6450   63.8658   29.9002 C   0  0  0  0  0  0  0  0  0  0  0  0
   61.1732   63.5805   30.2122 C   0  0  0  0  0  0  0  0  0  0  0  0
   60.8526   62.1986   29.9694 O   0  0  0  0  0  0  0  0  0  0  0  0
   60.4620   64.4412   29.1814 C   0  0  0  0  0  0  0  0  0  0  0  0
   59.1338   63.9709   28.9732 O   0  0  0  0  0  0  0  0  0  0  0  0
   61.0751   61.9713   29.0530 H   0  0  0  0  0  0  0  0  0  0  0  0
   59.1579   63.0340   28.7231 H   0  0  0  0  0  0  0  0  0  0  0  0
   63.2017   64.9435   30.7153 N   0  0  0  0  0  0  0  0  0  0  0  0
   63.1877   65.0465   32.0873 C   0  0  0  0  0  0  0  0  0  0  0  0
   63.8208   66.2220   32.4342 C   0  0  0  0  0  0  0  0  0  0  0  0
   64.2360   66.8600   31.2336 C   0  0  0  0  0  0  0  0  0  0  0  0
   64.9054   68.0424   30.8896 C   0  0  0  0  0  0  0  0  0  0  0  0
   65.3798   68.9567   31.8183 N   0  0  0  0  0  0  0  0  0  0  0  0
   65.1242   68.3119   29.5878 N   0  0  0  0  0  0  0  0  0  0  0  0
   64.6758   67.4333   28.6702 C   0  0  0  0  0  0  0  0  0  0  0  0
   64.0307   66.2729   28.8774 N   0  0  0  0  0  0  0  0  0  0  0  0
   63.8340   66.0438   30.1858 C   0  0  0  0  0  0  0  0  0  0  0  0
   65.2413   68.7982   32.7801 H   0  0  0  0  0  0  0  0  0  0  0  0
   65.8550   69.7641   31.5159 H   0  0  0  0  0  0  0  0  0  0  0  0
   61.2148   65.4238   26.9694 C   0  0  0  0  0  0  0  0  0  0  0  0
   59.6613   65.5972   24.6563 C   0  0  0  0  0  0  0  0  0  0  0  0
   61.2386   64.9043   25.2148 S   0  0  0  0  0  0  0  0  0  0  0  0
 23 24  1  0
 24 22  1  0
  1 22  1  0
  1  2  1  0
  2  3  1  0
  3 10  1  0
 10 11  1  0
 11 12  2  0
 12 13  1  0
 13 14  2  0
 14 15  1  0
 14 16  1  0
 16 17  2  0
 17 18  1  0
 18 19  2  0
  3  4  1  0
  4  5  1  0
  4  6  1  0
  6  7  1  0
  6  1  1  0
 19 10  1  0
 19 13  1  0
 15 20  1  0
 15 21  1  0
  5  8  1  0
  7  9  1  0
M  END
> <minimizedAffinity>
-4.63473

> <CNNscore>
0.1981161237

> <CNNaffinity>
3.5031597614

> <CNN_VS>
0.6940324306

> <CNNaffinity_variance>
0.6576839089

$$$$
