


 28 27  0  0  0  0  0  0  0  0999 V2000
   -3.5072    6.1464   20.1644 C   0  0  0  0  0  0  0  0  0  0  0  0
   -2.9698    4.7594   20.5196 C   0  0  0  0  0  0  0  0  0  0  0  0
   -2.1332    4.0070   19.4713 C   0  0  0  0  0  0  0  0  0  0  0  0
   -0.6324    3.6313   19.7645 C   0  0  0  0  0  0  0  0  0  0  0  0
   -0.0054    4.6984   20.6797 C   0  0  0  0  0  0  0  0  0  0  0  0
   -0.5570    2.2629   20.4508 C   0  0  0  0  0  0  0  0  0  0  0  0
    0.0683    3.6125   18.3516 C   0  0  0  0  0  0  0  0  0  0  0  0
   -0.0170    2.4492   17.3175 C   0  0  0  0  0  0  0  0  0  0  0  0
    0.9266    1.2807   17.6777 C   0  0  0  0  0  0  0  0  0  0  0  0
   -1.4435    1.8682   17.2109 C   0  0  0  0  0  0  0  0  0  0  0  0
    0.4623    2.9413   15.8946 C   0  0  0  0  0  0  0  0  0  0  0  0
    0.1365    2.2030   14.5545 C   0  0  0  0  0  0  0  0  0  0  0  0
    1.0590    0.9582   14.4942 C   0  0  0  0  0  0  0  0  0  0  0  0
   -1.3099    1.7071   14.4482 C   0  0  0  0  0  0  0  0  0  0  0  0
    0.4713    3.0610   13.3188 C   0  0  0  0  0  0  0  0  0  0  0  0
   -2.4121    7.1991   19.9795 C   0  0  0  0  0  0  0  0  0  0  0  0
   -2.7310    8.5332   20.6625 C   0  0  0  0  0  0  0  0  0  0  0  0
   -3.1268    9.6842   19.7309 C   0  0  0  0  0  0  0  0  0  0  0  0
   -2.2277   10.9247   19.7791 C   0  0  0  0  0  0  0  0  0  0  0  0
   -2.4706   11.8966   18.6217 C   0  0  0  0  0  0  0  0  0  0  0  0
   -3.9154   12.4037   18.5448 C   0  0  0  0  0  0  0  0  0  0  0  0
   -4.0273   13.8761   18.1421 C   0  0  0  0  0  0  0  0  0  0  0  0
   -2.8076   14.7094   18.5516 C   0  0  0  0  0  0  0  0  0  0  0  0
   -2.9158   16.2179   18.3057 C   0  0  0  0  0  0  0  0  0  0  0  0
   -4.3077   16.7292   17.9195 C   0  0  0  0  0  0  0  0  0  0  0  0
   -4.3072   18.1902   17.4616 C   0  0  0  0  0  0  0  0  0  0  0  0
   -4.2773   19.7100   15.4125 C   0  0  0  0  0  0  0  0  0  0  0  0
   -4.6781   18.3604   15.9866 C   0  0  0  0  0  0  0  0  0  0  0  0
 27 28  1  0
 28 26  1  0
 26 25  1  0
 25 24  1  0
 24 23  1  0
 23 22  1  0
 22 21  1  0
 21 20  1  0
 20 19  1  0
 19 18  1  0
 18 17  1  0
 17 16  1  0
 16  1  1  0
  1  2  1  0
  2  3  1  0
  3  4  1  0
  4  5  1  0
  4  6  1  0
  4  7  1  0
  7  8  1  0
  8  9  1  0
  8 10  1  0
  8 11  1  0
 11 12  1  0
 12 13  1  0
 12 14  1  0
 12 15  1  0
M  END
> <minimizedAffinity>
-6.24454

> <CNNscore>
0.5571222305

> <CNNaffinity>
6.5147795677

> <CNN_VS>
3.6295285225

> <CNNaffinity_variance>
0.6692473292

$$$$



 28 27  0  0  0  0  0  0  0  0999 V2000
   -3.5180    8.5639   19.5184 C   0  0  0  0  0  0  0  0  0  0  0  0
   -2.9230    7.4419   20.3704 C   0  0  0  0  0  0  0  0  0  0  0  0
   -3.5042    6.0255   20.2265 C   0  0  0  0  0  0  0  0  0  0  0  0
   -4.5101    5.6874   19.0631 C   0  0  0  0  0  0  0  0  0  0  0  0
   -5.6053    6.7673   19.0014 C   0  0  0  0  0  0  0  0  0  0  0  0
   -3.7673    5.6375   17.7233 C   0  0  0  0  0  0  0  0  0  0  0  0
   -5.1185    4.2828   19.4433 C   0  0  0  0  0  0  0  0  0  0  0  0
   -4.6426    2.9104   18.8777 C   0  0  0  0  0  0  0  0  0  0  0  0
   -4.9714    2.7545   17.3766 C   0  0  0  0  0  0  0  0  0  0  0  0
   -3.1194    2.7124   19.0345 C   0  0  0  0  0  0  0  0  0  0  0  0
   -5.4070    1.7260   19.5914 C   0  0  0  0  0  0  0  0  0  0  0  0
   -6.9572    1.5230   19.5379 C   0  0  0  0  0  0  0  0  0  0  0  0
   -7.4492    1.4480   21.0063 C   0  0  0  0  0  0  0  0  0  0  0  0
   -7.7157    2.6684   18.8583 C   0  0  0  0  0  0  0  0  0  0  0  0
   -7.3488    0.1892   18.8724 C   0  0  0  0  0  0  0  0  0  0  0  0
   -3.1626    9.9663   20.0167 C   0  0  0  0  0  0  0  0  0  0  0  0
   -3.5764   11.0782   19.0470 C   0  0  0  0  0  0  0  0  0  0  0  0
   -2.4563   12.0200   18.5914 C   0  0  0  0  0  0  0  0  0  0  0  0
   -2.1878   13.2284   19.4952 C   0  0  0  0  0  0  0  0  0  0  0  0
   -2.0449   14.5435   18.7250 C   0  0  0  0  0  0  0  0  0  0  0  0
   -3.3871   15.2136   18.4088 C   0  0  0  0  0  0  0  0  0  0  0  0
   -3.2582   16.4565   17.5250 C   0  0  0  0  0  0  0  0  0  0  0  0
   -4.1362   17.6235   17.9908 C   0  0  0  0  0  0  0  0  0  0  0  0
   -5.0103   18.2738   16.9134 C   0  0  0  0  0  0  0  0  0  0  0  0
   -5.3102   17.4041   15.6880 C   0  0  0  0  0  0  0  0  0  0  0  0
   -5.7052   18.2186   14.4533 C   0  0  0  0  0  0  0  0  0  0  0  0
   -5.3331   20.3561   13.1108 C   0  0  0  0  0  0  0  0  0  0  0  0
   -4.9549   19.5479   14.3418 C   0  0  0  0  0  0  0  0  0  0  0  0
 27 28  1  0
 28 26  1  0
 26 25  1  0
 25 24  1  0
 24 23  1  0
 23 22  1  0
 22 21  1  0
 21 20  1  0
 20 19  1  0
 19 18  1  0
 18 17  1  0
 17 16  1  0
 16  1  1  0
  1  2  1  0
  2  3  1  0
  3  4  1  0
  4  5  1  0
  4  6  1  0
  4  7  1  0
  7  8  1  0
  8  9  1  0
  8 10  1  0
  8 11  1  0
 11 12  1  0
 12 13  1  0
 12 14  1  0
 12 15  1  0
M  END
> <minimizedAffinity>
-5.98832

> <CNNscore>
0.5311027169

> <CNNaffinity>
6.7683815956

> <CNN_VS>
3.5947058201

> <CNNaffinity_variance>
1.0528134108

$$$$



 28 27  0  0  0  0  0  0  0  0999 V2000
   -3.3869    5.2677   20.2735 C   0  0  0  0  0  0  0  0  0  0  0  0
   -2.9371    3.8067   20.2310 C   0  0  0  0  0  0  0  0  0  0  0  0
   -3.9922    2.7228   19.9537 C   0  0  0  0  0  0  0  0  0  0  0  0
   -4.7315    2.0026   21.1429 C   0  0  0  0  0  0  0  0  0  0  0  0
   -4.9759    0.5274   20.7773 C   0  0  0  0  0  0  0  0  0  0  0  0
   -3.8797    2.0782   22.4149 C   0  0  0  0  0  0  0  0  0  0  0  0
   -6.0940    2.7796   21.3084 C   0  0  0  0  0  0  0  0  0  0  0  0
   -7.4498    2.3729   20.6555 C   0  0  0  0  0  0  0  0  0  0  0  0
   -7.3736    2.3668   19.1129 C   0  0  0  0  0  0  0  0  0  0  0  0
   -7.9093    0.9661   21.0956 C   0  0  0  0  0  0  0  0  0  0  0  0
   -8.5696    3.4304   21.0079 C   0  0  0  0  0  0  0  0  0  0  0  0
   -9.4511    3.3785   22.2991 C   0  0  0  0  0  0  0  0  0  0  0  0
  -10.5921    2.3661   22.0213 C   0  0  0  0  0  0  0  0  0  0  0  0
   -8.7047    2.8965   23.5480 C   0  0  0  0  0  0  0  0  0  0  0  0
  -10.1250    4.7314   22.6008 C   0  0  0  0  0  0  0  0  0  0  0  0
   -2.2603    6.2463   20.6117 C   0  0  0  0  0  0  0  0  0  0  0  0
   -2.6008    7.7027   20.2787 C   0  0  0  0  0  0  0  0  0  0  0  0
   -1.4097    8.6617   20.1754 C   0  0  0  0  0  0  0  0  0  0  0  0
   -1.7563   10.1436   19.9935 C   0  0  0  0  0  0  0  0  0  0  0  0
   -3.2062   10.3802   19.5633 C   0  0  0  0  0  0  0  0  0  0  0  0
   -3.4768   11.8151   19.0960 C   0  0  0  0  0  0  0  0  0  0  0  0
   -2.2995   12.7662   19.3246 C   0  0  0  0  0  0  0  0  0  0  0  0
   -2.5535   14.1814   18.7935 C   0  0  0  0  0  0  0  0  0  0  0  0
   -3.9417   14.4317   18.1953 C   0  0  0  0  0  0  0  0  0  0  0  0
   -4.0267   15.5641   17.1665 C   0  0  0  0  0  0  0  0  0  0  0  0
   -3.7267   16.9425   17.7616 C   0  0  0  0  0  0  0  0  0  0  0  0
   -4.3457   18.9325   16.2899 C   0  0  0  0  0  0  0  0  0  0  0  0
   -4.7789   17.9954   17.4060 C   0  0  0  0  0  0  0  0  0  0  0  0
 27 28  1  0
 28 26  1  0
 26 25  1  0
 25 24  1  0
 24 23  1  0
 23 22  1  0
 22 21  1  0
 21 20  1  0
 20 19  1  0
 19 18  1  0
 18 17  1  0
 17 16  1  0
 16  1  1  0
  1  2  1  0
  2  3  1  0
  3  4  1  0
  4  5  1  0
  4  6  1  0
  4  7  1  0
  7  8  1  0
  8  9  1  0
  8 10  1  0
  8 11  1  0
 11 12  1  0
 12 13  1  0
 12 14  1  0
 12 15  1  0
M  END
> <minimizedAffinity>
-6.28316

> <CNNscore>
0.5203232765

> <CNNaffinity>
6.4464621544

> <CNN_VS>
3.3542442322

> <CNNaffinity_variance>
0.7854945064

$$$$



 28 27  0  0  0  0  0  0  0  0999 V2000
   -3.2371    7.3008   20.6804 C   0  0  0  0  0  0  0  0  0  0  0  0
   -2.1863    6.7467   19.7173 C   0  0  0  0  0  0  0  0  0  0  0  0
   -2.6582    5.8823   18.5361 C   0  0  0  0  0  0  0  0  0  0  0  0
   -2.8852    4.3347   18.7174 C   0  0  0  0  0  0  0  0  0  0  0  0
   -3.2349    3.7043   17.3573 C   0  0  0  0  0  0  0  0  0  0  0  0
   -1.6163    3.6782   19.2724 C   0  0  0  0  0  0  0  0  0  0  0  0
   -4.0915    4.2133   19.7262 C   0  0  0  0  0  0  0  0  0  0  0  0
   -5.6005    4.2472   19.3365 C   0  0  0  0  0  0  0  0  0  0  0  0
   -6.3628    5.3784   20.0609 C   0  0  0  0  0  0  0  0  0  0  0  0
   -5.8060    4.4557   17.8206 C   0  0  0  0  0  0  0  0  0  0  0  0
   -6.3160    2.9132   19.7896 C   0  0  0  0  0  0  0  0  0  0  0  0
   -6.9068    2.6754   21.2184 C   0  0  0  0  0  0  0  0  0  0  0  0
   -5.7425    2.8753   22.2226 C   0  0  0  0  0  0  0  0  0  0  0  0
   -8.0202    3.6545   21.6067 C   0  0  0  0  0  0  0  0  0  0  0  0
   -7.4111    1.2315   21.4088 C   0  0  0  0  0  0  0  0  0  0  0  0
   -4.2513    8.2313   20.0119 C   0  0  0  0  0  0  0  0  0  0  0  0
   -3.6006    9.3774   19.2303 C   0  0  0  0  0  0  0  0  0  0  0  0
   -3.0170   10.5162   20.0739 C   0  0  0  0  0  0  0  0  0  0  0  0
   -1.5243   10.8011   19.8742 C   0  0  0  0  0  0  0  0  0  0  0  0
   -1.2134   12.2825   19.6468 C   0  0  0  0  0  0  0  0  0  0  0  0
   -2.4671   13.1562   19.5228 C   0  0  0  0  0  0  0  0  0  0  0  0
   -2.2080   14.5081   18.8536 C   0  0  0  0  0  0  0  0  0  0  0  0
   -3.3354   14.9418   17.9099 C   0  0  0  0  0  0  0  0  0  0  0  0
   -3.5612   16.4524   17.7883 C   0  0  0  0  0  0  0  0  0  0  0  0
   -4.9222   16.8769   17.2266 C   0  0  0  0  0  0  0  0  0  0  0  0
   -5.1645   18.3863   17.3109 C   0  0  0  0  0  0  0  0  0  0  0  0
   -4.5917   19.3880   15.0353 C   0  0  0  0  0  0  0  0  0  0  0  0
   -4.1695   19.2043   16.4843 C   0  0  0  0  0  0  0  0  0  0  0  0
 27 28  1  0
 28 26  1  0
 26 25  1  0
 25 24  1  0
 24 23  1  0
 23 22  1  0
 22 21  1  0
 21 20  1  0
 20 19  1  0
 19 18  1  0
 18 17  1  0
 17 16  1  0
 16  1  1  0
  1  2  1  0
  2  3  1  0
  3  4  1  0
  4  5  1  0
  4  6  1  0
  4  7  1  0
  7  8  1  0
  8  9  1  0
  8 10  1  0
  8 11  1  0
 11 12  1  0
 12 13  1  0
 12 14  1  0
 12 15  1  0
M  END
> <minimizedAffinity>
-6.17120

> <CNNscore>
0.5018445849

> <CNNaffinity>
6.8404660225

> <CNN_VS>
3.4328508377

> <CNNaffinity_variance>
1.0396138430

$$$$



 28 27  0  0  0  0  0  0  0  0999 V2000
   -4.4038    7.3835   20.8284 C   0  0  0  0  0  0  0  0  0  0  0  0
   -4.1426    6.2740   19.8087 C   0  0  0  0  0  0  0  0  0  0  0  0
   -5.3461    5.6395   19.0917 C   0  0  0  0  0  0  0  0  0  0  0  0
   -5.1310    4.5255   17.9999 C   0  0  0  0  0  0  0  0  0  0  0  0
   -6.3815    4.4335   17.1070 C   0  0  0  0  0  0  0  0  0  0  0  0
   -3.9113    4.8643   17.1357 C   0  0  0  0  0  0  0  0  0  0  0  0
   -4.9149    3.1915   18.8132 C   0  0  0  0  0  0  0  0  0  0  0  0
   -6.0190    2.4304   19.6079 C   0  0  0  0  0  0  0  0  0  0  0  0
   -5.4524    1.7242   20.8593 C   0  0  0  0  0  0  0  0  0  0  0  0
   -7.1461    3.3713   20.0855 C   0  0  0  0  0  0  0  0  0  0  0  0
   -6.6335    1.2729   18.7252 C   0  0  0  0  0  0  0  0  0  0  0  0
   -7.2899   -0.0218   19.3083 C   0  0  0  0  0  0  0  0  0  0  0  0
   -6.2128   -1.1354   19.2478 C   0  0  0  0  0  0  0  0  0  0  0  0
   -7.7360    0.1056   20.7691 C   0  0  0  0  0  0  0  0  0  0  0  0
   -8.4774   -0.5093   18.4554 C   0  0  0  0  0  0  0  0  0  0  0  0
   -3.2320    8.3538   20.9920 C   0  0  0  0  0  0  0  0  0  0  0  0
   -3.0243    9.2651   19.7777 C   0  0  0  0  0  0  0  0  0  0  0  0
   -1.7026   10.0403   19.7410 C   0  0  0  0  0  0  0  0  0  0  0  0
   -1.7679   11.4985   20.2089 C   0  0  0  0  0  0  0  0  0  0  0  0
   -3.1381   12.1456   19.9920 C   0  0  0  0  0  0  0  0  0  0  0  0
   -3.2053   13.0242   18.7375 C   0  0  0  0  0  0  0  0  0  0  0  0
   -2.2477   14.2177   18.7733 C   0  0  0  0  0  0  0  0  0  0  0  0
   -2.9339   15.5531   18.4644 C   0  0  0  0  0  0  0  0  0  0  0  0
   -4.3022   15.4591   17.7814 C   0  0  0  0  0  0  0  0  0  0  0  0
   -4.9306   16.7941   17.3679 C   0  0  0  0  0  0  0  0  0  0  0  0
   -4.0351   17.6200   16.4405 C   0  0  0  0  0  0  0  0  0  0  0  0
   -4.4556   19.7759   15.1425 C   0  0  0  0  0  0  0  0  0  0  0  0
   -4.3185   19.1224   16.5084 C   0  0  0  0  0  0  0  0  0  0  0  0
 27 28  1  0
 28 26  1  0
 26 25  1  0
 25 24  1  0
 24 23  1  0
 23 22  1  0
 22 21  1  0
 21 20  1  0
 20 19  1  0
 19 18  1  0
 18 17  1  0
 17 16  1  0
 16  1  1  0
  1  2  1  0
  2  3  1  0
  3  4  1  0
  4  5  1  0
  4  6  1  0
  4  7  1  0
  7  8  1  0
  8  9  1  0
  8 10  1  0
  8 11  1  0
 11 12  1  0
 12 13  1  0
 12 14  1  0
 12 15  1  0
M  END
> <minimizedAffinity>
-6.03258

> <CNNscore>
0.5005797744

> <CNNaffinity>
6.6176228523

> <CNN_VS>
3.3126480579

> <CNNaffinity_variance>
0.8344400525

$$$$



 28 27  0  0  0  0  0  0  0  0999 V2000
   -2.9610    8.8463   19.9391 C   0  0  0  0  0  0  0  0  0  0  0  0
   -3.2287    8.0048   21.1877 C   0  0  0  0  0  0  0  0  0  0  0  0
   -3.2511    6.4734   21.0485 C   0  0  0  0  0  0  0  0  0  0  0  0
   -2.0833    5.7199   20.3084 C   0  0  0  0  0  0  0  0  0  0  0  0
   -0.7873    6.5425   20.4235 C   0  0  0  0  0  0  0  0  0  0  0  0
   -1.8676    4.3383   20.9359 C   0  0  0  0  0  0  0  0  0  0  0  0
   -2.5541    5.6095   18.8071 C   0  0  0  0  0  0  0  0  0  0  0  0
   -3.9429    5.0834   18.3334 C   0  0  0  0  0  0  0  0  0  0  0  0
   -4.9738    6.2227   18.1769 C   0  0  0  0  0  0  0  0  0  0  0  0
   -3.8572    4.3550   16.9747 C   0  0  0  0  0  0  0  0  0  0  0  0
   -4.5626    4.1137   19.4161 C   0  0  0  0  0  0  0  0  0  0  0  0
   -5.9719    3.4461   19.2929 C   0  0  0  0  0  0  0  0  0  0  0  0
   -5.7666    1.9248   19.5103 C   0  0  0  0  0  0  0  0  0  0  0  0
   -6.9856    3.9257   20.3377 C   0  0  0  0  0  0  0  0  0  0  0  0
   -6.5761    3.6134   17.8850 C   0  0  0  0  0  0  0  0  0  0  0  0
   -1.6613    9.6507   20.0092 C   0  0  0  0  0  0  0  0  0  0  0  0
   -1.8455   11.1330   19.6673 C   0  0  0  0  0  0  0  0  0  0  0  0
   -3.2014   11.7425   20.0408 C   0  0  0  0  0  0  0  0  0  0  0  0
   -3.9141   12.5224   18.9304 C   0  0  0  0  0  0  0  0  0  0  0  0
   -3.2039   13.8239   18.5499 C   0  0  0  0  0  0  0  0  0  0  0  0
   -4.1271   14.8486   17.8804 C   0  0  0  0  0  0  0  0  0  0  0  0
   -3.3849   16.0551   17.3005 C   0  0  0  0  0  0  0  0  0  0  0  0
   -3.4854   17.3067   18.1797 C   0  0  0  0  0  0  0  0  0  0  0  0
   -4.1234   18.5353   17.5230 C   0  0  0  0  0  0  0  0  0  0  0  0
   -4.5392   18.3640   16.0581 C   0  0  0  0  0  0  0  0  0  0  0  0
   -4.3922   19.6474   15.2362 C   0  0  0  0  0  0  0  0  0  0  0  0
   -5.3976   20.9602   13.2933 C   0  0  0  0  0  0  0  0  0  0  0  0
   -5.1223   19.5902   13.8923 C   0  0  0  0  0  0  0  0  0  0  0  0
 27 28  1  0
 28 26  1  0
 26 25  1  0
 25 24  1  0
 24 23  1  0
 23 22  1  0
 22 21  1  0
 21 20  1  0
 20 19  1  0
 19 18  1  0
 18 17  1  0
 17 16  1  0
 16  1  1  0
  1  2  1  0
  2  3  1  0
  3  4  1  0
  4  5  1  0
  4  6  1  0
  4  7  1  0
  7  8  1  0
  8  9  1  0
  8 10  1  0
  8 11  1  0
 11 12  1  0
 12 13  1  0
 12 14  1  0
 12 15  1  0
M  END
> <minimizedAffinity>
-6.96552

> <CNNscore>
0.4985682368

> <CNNaffinity>
6.9897789955

> <CNN_VS>
3.4848818779

> <CNNaffinity_variance>
1.0915179253

$$$$



 28 27  0  0  0  0  0  0  0  0999 V2000
   -5.0752    5.9821   18.9259 C   0  0  0  0  0  0  0  0  0  0  0  0
   -5.0606    4.4883   19.2531 C   0  0  0  0  0  0  0  0  0  0  0  0
   -5.5398    4.0379   20.6433 C   0  0  0  0  0  0  0  0  0  0  0  0
   -6.8047    3.1120   20.7927 C   0  0  0  0  0  0  0  0  0  0  0  0
   -7.2102    2.5698   19.4103 C   0  0  0  0  0  0  0  0  0  0  0  0
   -6.4907    1.9393   21.7283 C   0  0  0  0  0  0  0  0  0  0  0  0
   -7.9276    4.0462   21.3878 C   0  0  0  0  0  0  0  0  0  0  0  0
   -9.2428    3.5564   22.0662 C   0  0  0  0  0  0  0  0  0  0  0  0
  -10.1701    4.7298   22.4519 C   0  0  0  0  0  0  0  0  0  0  0  0
  -10.0546    2.6147   21.1507 C   0  0  0  0  0  0  0  0  0  0  0  0
   -8.9197    2.8227   23.4278 C   0  0  0  0  0  0  0  0  0  0  0  0
   -9.6204    1.5079   23.9046 C   0  0  0  0  0  0  0  0  0  0  0  0
   -8.9743    1.1232   25.2604 C   0  0  0  0  0  0  0  0  0  0  0  0
  -11.1282    1.6516   24.1397 C   0  0  0  0  0  0  0  0  0  0  0  0
   -9.3663    0.3296   22.9442 C   0  0  0  0  0  0  0  0  0  0  0  0
   -4.4382    6.8534   20.0105 C   0  0  0  0  0  0  0  0  0  0  0  0
   -3.5949    8.0027   19.4483 C   0  0  0  0  0  0  0  0  0  0  0  0
   -2.4012    8.4385   20.3054 C   0  0  0  0  0  0  0  0  0  0  0  0
   -1.7785    9.7926   19.9480 C   0  0  0  0  0  0  0  0  0  0  0  0
   -2.7095   10.9785   20.2127 C   0  0  0  0  0  0  0  0  0  0  0  0
   -2.5643   12.1081   19.1863 C   0  0  0  0  0  0  0  0  0  0  0  0
   -3.7696   12.2467   18.2532 C   0  0  0  0  0  0  0  0  0  0  0  0
   -4.2752   13.6883   18.1284 C   0  0  0  0  0  0  0  0  0  0  0  0
   -3.2409   14.7853   18.4015 C   0  0  0  0  0  0  0  0  0  0  0  0
   -3.2454   15.9612   17.4191 C   0  0  0  0  0  0  0  0  0  0  0  0
   -4.4487   16.8909   17.5978 C   0  0  0  0  0  0  0  0  0  0  0  0
   -4.3908   18.9900   16.1486 C   0  0  0  0  0  0  0  0  0  0  0  0
   -4.0842   18.3744   17.5046 C   0  0  0  0  0  0  0  0  0  0  0  0
 27 28  1  0
 28 26  1  0
 26 25  1  0
 25 24  1  0
 24 23  1  0
 23 22  1  0
 22 21  1  0
 21 20  1  0
 20 19  1  0
 19 18  1  0
 18 17  1  0
 17 16  1  0
 16  1  1  0
  1  2  1  0
  2  3  1  0
  3  4  1  0
  4  5  1  0
  4  6  1  0
  4  7  1  0
  7  8  1  0
  8  9  1  0
  8 10  1  0
  8 11  1  0
 11 12  1  0
 12 13  1  0
 12 14  1  0
 12 15  1  0
M  END
> <minimizedAffinity>
-6.37172

> <CNNscore>
0.4972304702

> <CNNaffinity>
6.6704535484

> <CNN_VS>
3.3167526722

> <CNNaffinity_variance>
0.7954660058

$$$$



 28 27  0  0  0  0  0  0  0  0999 V2000
   -3.4559    6.0433   20.1646 C   0  0  0  0  0  0  0  0  0  0  0  0
   -3.0012    4.6261   20.5161 C   0  0  0  0  0  0  0  0  0  0  0  0
   -2.3620    3.7666   19.4126 C   0  0  0  0  0  0  0  0  0  0  0  0
   -3.1182    3.5160   18.0543 C   0  0  0  0  0  0  0  0  0  0  0  0
   -4.5997    3.2112   18.3402 C   0  0  0  0  0  0  0  0  0  0  0  0
   -3.0164    4.7558   17.1590 C   0  0  0  0  0  0  0  0  0  0  0  0
   -2.3969    2.2712   17.4080 C   0  0  0  0  0  0  0  0  0  0  0  0
   -1.0399    2.3120   16.6420 C   0  0  0  0  0  0  0  0  0  0  0  0
   -1.2131    2.7667   15.1761 C   0  0  0  0  0  0  0  0  0  0  0  0
   -0.0274    3.2730   17.3016 C   0  0  0  0  0  0  0  0  0  0  0  0
   -0.4146    0.8637   16.5523 C   0  0  0  0  0  0  0  0  0  0  0  0
    1.0837    0.5739   16.2087 C   0  0  0  0  0  0  0  0  0  0  0  0
    1.7847    0.2048   17.5415 C   0  0  0  0  0  0  0  0  0  0  0  0
    1.2894   -0.5981   15.2427 C   0  0  0  0  0  0  0  0  0  0  0  0
    1.8078    1.8183   15.6589 C   0  0  0  0  0  0  0  0  0  0  0  0
   -2.3006    7.0297   19.9807 C   0  0  0  0  0  0  0  0  0  0  0  0
   -2.5270    8.3689   20.6901 C   0  0  0  0  0  0  0  0  0  0  0  0
   -3.0308    9.5167   19.8081 C   0  0  0  0  0  0  0  0  0  0  0  0
   -2.1646   10.7812   19.7946 C   0  0  0  0  0  0  0  0  0  0  0  0
   -2.5232   11.7514   18.6662 C   0  0  0  0  0  0  0  0  0  0  0  0
   -3.9775   12.2340   18.7166 C   0  0  0  0  0  0  0  0  0  0  0  0
   -4.1564   13.6877   18.2724 C   0  0  0  0  0  0  0  0  0  0  0  0
   -2.9061   14.5462   18.4945 C   0  0  0  0  0  0  0  0  0  0  0  0
   -3.0817   16.0523   18.2745 C   0  0  0  0  0  0  0  0  0  0  0  0
   -4.4491   16.4897   17.7387 C   0  0  0  0  0  0  0  0  0  0  0  0
   -4.5230   17.9868   17.4268 C   0  0  0  0  0  0  0  0  0  0  0  0
   -4.2786   19.7242   15.5744 C   0  0  0  0  0  0  0  0  0  0  0  0
   -4.6247   18.2870   15.9295 C   0  0  0  0  0  0  0  0  0  0  0  0
 27 28  1  0
 28 26  1  0
 26 25  1  0
 25 24  1  0
 24 23  1  0
 23 22  1  0
 22 21  1  0
 21 20  1  0
 20 19  1  0
 19 18  1  0
 18 17  1  0
 17 16  1  0
 16  1  1  0
  1  2  1  0
  2  3  1  0
  3  4  1  0
  4  5  1  0
  4  6  1  0
  4  7  1  0
  7  8  1  0
  8  9  1  0
  8 10  1  0
  8 11  1  0
 11 12  1  0
 12 13  1  0
 12 14  1  0
 12 15  1  0
M  END
> <minimizedAffinity>
-5.97306

> <CNNscore>
0.4943877459

> <CNNaffinity>
6.4628911018

> <CNN_VS>
3.1951742172

> <CNNaffinity_variance>
0.5961481929

$$$$



 28 27  0  0  0  0  0  0  0  0999 V2000
   -1.4059    6.7163   19.5572 C   0  0  0  0  0  0  0  0  0  0  0  0
   -0.0759    6.0428   19.8982 C   0  0  0  0  0  0  0  0  0  0  0  0
   -0.1049    4.7070   20.6595 C   0  0  0  0  0  0  0  0  0  0  0  0
   -1.2881    3.6900   20.4468 C   0  0  0  0  0  0  0  0  0  0  0  0
   -0.8406    2.2832   20.8831 C   0  0  0  0  0  0  0  0  0  0  0  0
   -2.5048    4.1177   21.2751 C   0  0  0  0  0  0  0  0  0  0  0  0
   -1.5930    3.7345   18.9000 C   0  0  0  0  0  0  0  0  0  0  0  0
   -3.0132    3.6910   18.2587 C   0  0  0  0  0  0  0  0  0  0  0  0
   -2.9671    3.9003   16.7291 C   0  0  0  0  0  0  0  0  0  0  0  0
   -3.7268    2.3460   18.5144 C   0  0  0  0  0  0  0  0  0  0  0  0
   -3.9023    4.8755   18.8093 C   0  0  0  0  0  0  0  0  0  0  0  0
   -5.4409    5.0076   18.5602 C   0  0  0  0  0  0  0  0  0  0  0  0
   -5.7211    6.5061   18.2774 C   0  0  0  0  0  0  0  0  0  0  0  0
   -5.9508    4.2106   17.3544 C   0  0  0  0  0  0  0  0  0  0  0  0
   -6.2684    4.6309   19.8047 C   0  0  0  0  0  0  0  0  0  0  0  0
   -1.6709    7.9914   20.3605 C   0  0  0  0  0  0  0  0  0  0  0  0
   -2.9990    8.6679   20.0050 C   0  0  0  0  0  0  0  0  0  0  0  0
   -2.9402   10.1835   19.7845 C   0  0  0  0  0  0  0  0  0  0  0  0
   -1.5928   10.8518   20.0799 C   0  0  0  0  0  0  0  0  0  0  0  0
   -1.5551   12.3354   19.7046 C   0  0  0  0  0  0  0  0  0  0  0  0
   -2.7364   12.7732   18.8310 C   0  0  0  0  0  0  0  0  0  0  0  0
   -2.7917   14.2833   18.5874 C   0  0  0  0  0  0  0  0  0  0  0  0
   -4.1057   14.7448   17.9472 C   0  0  0  0  0  0  0  0  0  0  0  0
   -3.9910   15.8935   16.9396 C   0  0  0  0  0  0  0  0  0  0  0  0
   -3.8358   17.2931   17.5437 C   0  0  0  0  0  0  0  0  0  0  0  0
   -4.8912   18.2844   17.0461 C   0  0  0  0  0  0  0  0  0  0  0  0
   -4.6652   19.4697   14.7981 C   0  0  0  0  0  0  0  0  0  0  0  0
   -4.2952   19.4629   16.2728 C   0  0  0  0  0  0  0  0  0  0  0  0
 27 28  1  0
 28 26  1  0
 26 25  1  0
 25 24  1  0
 24 23  1  0
 23 22  1  0
 22 21  1  0
 21 20  1  0
 20 19  1  0
 19 18  1  0
 18 17  1  0
 17 16  1  0
 16  1  1  0
  1  2  1  0
  2  3  1  0
  3  4  1  0
  4  5  1  0
  4  6  1  0
  4  7  1  0
  7  8  1  0
  8  9  1  0
  8 10  1  0
  8 11  1  0
 11 12  1  0
 12 13  1  0
 12 14  1  0
 12 15  1  0
M  END
> <minimizedAffinity>
-7.11231

> <CNNscore>
0.4772361219

> <CNNaffinity>
6.7640929222

> <CNN_VS>
3.2280695438

> <CNNaffinity_variance>
1.2703318596

$$$$
