


 25 26  0  0  0  0  0  0  0  0999 V2000
   35.2188   25.8570   32.8597 C   0  0  0  0  0  0  0  0  0  0  0  0
   36.1272   26.4094   33.8223 O   0  0  0  0  0  0  0  0  0  0  0  0
   37.3815   26.7469   33.2448 C   0  0  0  0  0  0  0  0  0  0  0  0
   38.1083   25.4675   32.7750 C   0  0  0  0  0  0  0  0  0  0  0  0
   37.2122   24.7105   31.7750 C   0  0  0  0  0  0  0  0  0  0  0  0
   35.7657   24.5367   32.2855 C   0  0  0  0  0  0  0  0  0  0  0  0
   38.0643   27.4215   34.3191 N   0  0  0  0  0  0  0  0  0  0  0  0
   37.9009   27.0517   35.6333 C   0  0  0  0  0  0  0  0  0  0  0  0
   37.1385   26.1657   36.0002 O   0  0  0  0  0  0  0  0  0  0  0  0
   38.6665   28.1706   34.1057 H   0  0  0  0  0  0  0  0  0  0  0  0
   38.7464   27.7689   36.6290 C   0  0  0  0  0  0  0  0  0  0  0  0
   38.1142   28.3884   37.7148 C   0  0  0  0  0  0  0  0  0  0  0  0
   38.8671   29.0734   38.6701 C   0  0  0  0  0  0  0  0  0  0  0  0
   40.2530   29.1505   38.5403 C   0  0  0  0  0  0  0  0  0  0  0  0
   40.8880   28.5500   37.4532 C   0  0  0  0  0  0  0  0  0  0  0  0
   40.1384   27.8627   36.4951 C   0  0  0  0  0  0  0  0  0  0  0  0
   39.3392   25.7923   32.1039 O   0  0  0  0  0  0  0  0  0  0  0  0
   40.2957   24.7443   32.1654 C   0  0  0  0  0  0  0  0  0  0  0  0
   37.7622   23.3855   31.5688 O   0  0  0  0  0  0  0  0  0  0  0  0
   37.8280   23.0284   30.1933 C   0  0  0  0  0  0  0  0  0  0  0  0
   34.9460   24.1437   31.1692 O   0  0  0  0  0  0  0  0  0  0  0  0
   34.7104   25.2093   30.2577 C   0  0  0  0  0  0  0  0  0  0  0  0
   33.8754   25.6665   33.5957 C   0  0  0  0  0  0  0  0  0  0  0  0
   32.0015   24.3675   32.9239 C   0  0  0  0  0  0  0  0  0  0  0  0
   33.2948   24.3692   33.5121 O   0  0  0  0  0  0  0  0  0  0  0  0
 24 25  1  0
 25 23  1  0
  1 23  1  0
  1  2  1  0
  2  3  1  0
  3  7  1  0
  7  8  1  0
  8  9  2  0
  8 11  1  0
 11 12  2  0
 12 13  1  0
 13 14  2  0
 14 15  1  0
 15 16  2  0
  3  4  1  0
  4 17  1  0
 17 18  1  0
  4  5  1  0
  5 19  1  0
 19 20  1  0
  5  6  1  0
  6 21  1  0
 21 22  1  0
  6  1  1  0
 16 11  1  0
  7 10  1  0
M  END
> <minimizedAffinity>
-7.55896

> <CNNscore>
0.2440962046

> <CNNaffinity>
4.6823725700

> <CNN_VS>
1.1429493427

> <CNNaffinity_variance>
0.0603011549

$$$$



 25 26  0  0  0  0  0  0  0  0999 V2000
   31.3203   24.8364   27.0573 C   0  0  0  0  0  0  0  0  0  0  0  0
   32.4678   24.5100   27.8534 O   0  0  0  0  0  0  0  0  0  0  0  0
   33.4789   23.8584   27.0959 C   0  0  0  0  0  0  0  0  0  0  0  0
   32.9776   22.4754   26.6246 C   0  0  0  0  0  0  0  0  0  0  0  0
   31.6851   22.6544   25.8041 C   0  0  0  0  0  0  0  0  0  0  0  0
   30.6535   23.5610   26.5090 C   0  0  0  0  0  0  0  0  0  0  0  0
   34.5780   23.7742   28.0234 N   0  0  0  0  0  0  0  0  0  0  0  0
   34.5266   24.3526   29.2697 C   0  0  0  0  0  0  0  0  0  0  0  0
   33.5793   25.0172   29.6720 O   0  0  0  0  0  0  0  0  0  0  0  0
   35.3912   23.2875   27.7565 H   0  0  0  0  0  0  0  0  0  0  0  0
   35.6931   24.0991   30.1617 C   0  0  0  0  0  0  0  0  0  0  0  0
   35.6212   24.5360   31.4908 C   0  0  0  0  0  0  0  0  0  0  0  0
   36.6917   24.3219   32.3607 C   0  0  0  0  0  0  0  0  0  0  0  0
   37.8417   23.6789   31.9050 C   0  0  0  0  0  0  0  0  0  0  0  0
   37.9271   23.2555   30.5786 C   0  0  0  0  0  0  0  0  0  0  0  0
   36.8576   23.4672   29.7047 C   0  0  0  0  0  0  0  0  0  0  0  0
   33.9507   21.8367   25.7785 O   0  0  0  0  0  0  0  0  0  0  0  0
   34.3223   20.5459   26.2398 C   0  0  0  0  0  0  0  0  0  0  0  0
   31.0681   21.3560   25.6197 O   0  0  0  0  0  0  0  0  0  0  0  0
   30.7605   20.7162   26.8525 C   0  0  0  0  0  0  0  0  0  0  0  0
   29.6600   23.9399   25.5385 O   0  0  0  0  0  0  0  0  0  0  0  0
   28.3587   23.4745   25.8731 C   0  0  0  0  0  0  0  0  0  0  0  0
   30.3775   25.6459   27.9731 C   0  0  0  0  0  0  0  0  0  0  0  0
   28.1867   26.5670   28.0177 C   0  0  0  0  0  0  0  0  0  0  0  0
   29.4171   26.4650   27.3146 O   0  0  0  0  0  0  0  0  0  0  0  0
 24 25  1  0
 25 23  1  0
  1 23  1  0
  1  2  1  0
  2  3  1  0
  3  7  1  0
  7  8  1  0
  8  9  2  0
  8 11  1  0
 11 12  2  0
 12 13  1  0
 13 14  2  0
 14 15  1  0
 15 16  2  0
  3  4  1  0
  4 17  1  0
 17 18  1  0
  4  5  1  0
  5 19  1  0
 19 20  1  0
  5  6  1  0
  6 21  1  0
 21 22  1  0
  6  1  1  0
 16 11  1  0
  7 10  1  0
M  END
> <minimizedAffinity>
-7.73263

> <CNNscore>
0.1703978479

> <CNNaffinity>
3.8996226788

> <CNN_VS>
0.6644873023

> <CNNaffinity_variance>
0.6612247825

$$$$



 25 26  0  0  0  0  0  0  0  0999 V2000
   28.2428   24.5408   25.7757 C   0  0  0  0  0  0  0  0  0  0  0  0
   27.3518   24.8682   26.8509 O   0  0  0  0  0  0  0  0  0  0  0  0
   27.8214   25.9664   27.6217 C   0  0  0  0  0  0  0  0  0  0  0  0
   29.1241   25.5784   28.3554 C   0  0  0  0  0  0  0  0  0  0  0  0
   30.1744   25.1238   27.3228 C   0  0  0  0  0  0  0  0  0  0  0  0
   29.6140   24.0953   26.3172 C   0  0  0  0  0  0  0  0  0  0  0  0
   26.7249   26.2278   28.5188 N   0  0  0  0  0  0  0  0  0  0  0  0
   26.0342   25.2148   29.1410 C   0  0  0  0  0  0  0  0  0  0  0  0
   26.2563   24.0249   28.9521 O   0  0  0  0  0  0  0  0  0  0  0  0
   26.4620   27.1607   28.6916 H   0  0  0  0  0  0  0  0  0  0  0  0
   24.9921   25.6335   30.1205 C   0  0  0  0  0  0  0  0  0  0  0  0
   23.8342   24.8532   30.2338 C   0  0  0  0  0  0  0  0  0  0  0  0
   22.8310   25.2097   31.1367 C   0  0  0  0  0  0  0  0  0  0  0  0
   22.9756   26.3515   31.9234 C   0  0  0  0  0  0  0  0  0  0  0  0
   24.1185   27.1425   31.8045 C   0  0  0  0  0  0  0  0  0  0  0  0
   25.1254   26.7889   30.9026 C   0  0  0  0  0  0  0  0  0  0  0  0
   29.6674   26.7040   29.0687 O   0  0  0  0  0  0  0  0  0  0  0  0
   30.0203   27.7821   28.2143 C   0  0  0  0  0  0  0  0  0  0  0  0
   31.2729   24.4906   28.0251 O   0  0  0  0  0  0  0  0  0  0  0  0
   32.5199   25.1299   27.7802 C   0  0  0  0  0  0  0  0  0  0  0  0
   30.5374   24.0028   25.2167 O   0  0  0  0  0  0  0  0  0  0  0  0
   31.2855   22.7936   25.2266 C   0  0  0  0  0  0  0  0  0  0  0  0
   27.5439   23.4320   24.9603 C   0  0  0  0  0  0  0  0  0  0  0  0
   28.0439   24.6424   22.9767 C   0  0  0  0  0  0  0  0  0  0  0  0
   27.1261   23.7900   23.6473 O   0  0  0  0  0  0  0  0  0  0  0  0
 24 25  1  0
 25 23  1  0
  1 23  1  0
  1  2  1  0
  2  3  1  0
  3  7  1  0
  7  8  1  0
  8  9  2  0
  8 11  1  0
 11 12  2  0
 12 13  1  0
 13 14  2  0
 14 15  1  0
 15 16  2  0
  3  4  1  0
  4 17  1  0
 17 18  1  0
  4  5  1  0
  5 19  1  0
 19 20  1  0
  5  6  1  0
  6 21  1  0
 21 22  1  0
  6  1  1  0
 16 11  1  0
  7 10  1  0
M  END
> <minimizedAffinity>
-4.71785

> <CNNscore>
0.1573091149

> <CNNaffinity>
3.7956449986

> <CNN_VS>
0.5970895290

> <CNNaffinity_variance>
0.2376439422

$$$$



 25 26  0  0  0  0  0  0  0  0999 V2000
   34.6298   25.3539   31.5072 C   0  0  0  0  0  0  0  0  0  0  0  0
   35.4966   25.5254   32.6370 O   0  0  0  0  0  0  0  0  0  0  0  0
   36.7905   25.9753   32.2575 C   0  0  0  0  0  0  0  0  0  0  0  0
   37.5077   24.8851   31.4311 C   0  0  0  0  0  0  0  0  0  0  0  0
   36.6498   24.5317   30.2003 C   0  0  0  0  0  0  0  0  0  0  0  0
   35.1723   24.2668   30.5609 C   0  0  0  0  0  0  0  0  0  0  0  0
   37.4291   26.2362   33.5222 N   0  0  0  0  0  0  0  0  0  0  0  0
   38.4920   27.1006   33.6379 C   0  0  0  0  0  0  0  0  0  0  0  0
   39.0080   27.6746   32.6865 O   0  0  0  0  0  0  0  0  0  0  0  0
   37.0940   25.7816   34.3286 H   0  0  0  0  0  0  0  0  0  0  0  0
   38.9873   27.3536   35.0205 C   0  0  0  0  0  0  0  0  0  0  0  0
   40.2780   26.9226   35.3537 C   0  0  0  0  0  0  0  0  0  0  0  0
   40.7815   27.1364   36.6379 C   0  0  0  0  0  0  0  0  0  0  0  0
   39.9954   27.7730   37.5973 C   0  0  0  0  0  0  0  0  0  0  0  0
   38.7033   28.1904   37.2777 C   0  0  0  0  0  0  0  0  0  0  0  0
   38.1956   27.9790   35.9932 C   0  0  0  0  0  0  0  0  0  0  0  0
   38.7833   25.3542   30.9579 O   0  0  0  0  0  0  0  0  0  0  0  0
   39.8736   24.6009   31.4685 C   0  0  0  0  0  0  0  0  0  0  0  0
   37.1743   23.3211   29.6001 O   0  0  0  0  0  0  0  0  0  0  0  0
   37.4663   22.3153   30.5628 C   0  0  0  0  0  0  0  0  0  0  0  0
   34.4071   24.2917   29.3418 O   0  0  0  0  0  0  0  0  0  0  0  0
   34.1344   22.9907   28.8368 C   0  0  0  0  0  0  0  0  0  0  0  0
   33.2419   24.9958   32.0803 C   0  0  0  0  0  0  0  0  0  0  0  0
   31.7388   25.2762   30.2604 C   0  0  0  0  0  0  0  0  0  0  0  0
   32.3352   24.3704   31.1783 O   0  0  0  0  0  0  0  0  0  0  0  0
 24 25  1  0
 25 23  1  0
  1 23  1  0
  1  2  1  0
  2  3  1  0
  3  7  1  0
  7  8  1  0
  8  9  2  0
  8 11  1  0
 11 12  2  0
 12 13  1  0
 13 14  2  0
 14 15  1  0
 15 16  2  0
  3  4  1  0
  4 17  1  0
 17 18  1  0
  4  5  1  0
  5 19  1  0
 19 20  1  0
  5  6  1  0
  6 21  1  0
 21 22  1  0
  6  1  1  0
 16 11  1  0
  7 10  1  0
M  END
> <minimizedAffinity>
-5.61495

> <CNNscore>
0.1295840442

> <CNNaffinity>
4.1970200539

> <CNN_VS>
0.5438668132

> <CNNaffinity_variance>
0.2586353123

$$$$



 25 26  0  0  0  0  0  0  0  0999 V2000
   36.6392   25.8119   34.7648 C   0  0  0  0  0  0  0  0  0  0  0  0
   35.9379   25.8135   33.5137 O   0  0  0  0  0  0  0  0  0  0  0  0
   36.6974   25.2149   32.4718 C   0  0  0  0  0  0  0  0  0  0  0  0
   37.9478   26.0703   32.1708 C   0  0  0  0  0  0  0  0  0  0  0  0
   38.7808   26.2258   33.4583 C   0  0  0  0  0  0  0  0  0  0  0  0
   37.9269   26.6516   34.6718 C   0  0  0  0  0  0  0  0  0  0  0  0
   35.7662   25.1706   31.3734 N   0  0  0  0  0  0  0  0  0  0  0  0
   35.6814   24.0861   30.5325 C   0  0  0  0  0  0  0  0  0  0  0  0
   36.4093   23.1041   30.6142 O   0  0  0  0  0  0  0  0  0  0  0  0
   35.1723   25.9406   31.2202 H   0  0  0  0  0  0  0  0  0  0  0  0
   34.6045   24.1336   29.5035 C   0  0  0  0  0  0  0  0  0  0  0  0
   34.9365   23.8223   28.1787 C   0  0  0  0  0  0  0  0  0  0  0  0
   33.9599   23.8566   27.1818 C   0  0  0  0  0  0  0  0  0  0  0  0
   32.6501   24.2107   27.5020 C   0  0  0  0  0  0  0  0  0  0  0  0
   32.3154   24.5379   28.8160 C   0  0  0  0  0  0  0  0  0  0  0  0
   33.2896   24.5041   29.8170 C   0  0  0  0  0  0  0  0  0  0  0  0
   38.7797   25.4353   31.1829 O   0  0  0  0  0  0  0  0  0  0  0  0
   39.4659   24.2982   31.6861 C   0  0  0  0  0  0  0  0  0  0  0  0
   39.7776   27.2563   33.2454 O   0  0  0  0  0  0  0  0  0  0  0  0
   41.0257   26.9441   33.8526 C   0  0  0  0  0  0  0  0  0  0  0  0
   38.7075   26.4336   35.8616 O   0  0  0  0  0  0  0  0  0  0  0  0
   39.1291   27.6463   36.4726 C   0  0  0  0  0  0  0  0  0  0  0  0
   35.6504   26.3655   35.8129 C   0  0  0  0  0  0  0  0  0  0  0  0
   36.0586   27.5545   37.8302 C   0  0  0  0  0  0  0  0  0  0  0  0
   36.0742   26.2964   37.1703 O   0  0  0  0  0  0  0  0  0  0  0  0
 24 25  1  0
 25 23  1  0
  1 23  1  0
  1  2  1  0
  2  3  1  0
  3  7  1  0
  7  8  1  0
  8  9  2  0
  8 11  1  0
 11 12  2  0
 12 13  1  0
 13 14  2  0
 14 15  1  0
 15 16  2  0
  3  4  1  0
  4 17  1  0
 17 18  1  0
  4  5  1  0
  5 19  1  0
 19 20  1  0
  5  6  1  0
  6 21  1  0
 21 22  1  0
  6  1  1  0
 16 11  1  0
  7 10  1  0
M  END
> <minimizedAffinity>
-6.15114

> <CNNscore>
0.1211729869

> <CNNaffinity>
4.0809502602

> <CNN_VS>
0.4945009351

> <CNNaffinity_variance>
0.2065013498

$$$$



 25 26  0  0  0  0  0  0  0  0999 V2000
   35.7561   25.5717   33.5448 C   0  0  0  0  0  0  0  0  0  0  0  0
   34.9094   25.6963   32.3938 O   0  0  0  0  0  0  0  0  0  0  0  0
   35.3099   24.8342   31.3369 C   0  0  0  0  0  0  0  0  0  0  0  0
   36.6929   25.2641   30.7996 C   0  0  0  0  0  0  0  0  0  0  0  0
   37.7140   25.2532   31.9542 C   0  0  0  0  0  0  0  0  0  0  0  0
   37.2002   25.9894   33.2100 C   0  0  0  0  0  0  0  0  0  0  0  0
   34.2545   24.9923   30.3692 N   0  0  0  0  0  0  0  0  0  0  0  0
   33.8628   23.9656   29.5429 C   0  0  0  0  0  0  0  0  0  0  0  0
   34.3997   22.8646   29.5255 O   0  0  0  0  0  0  0  0  0  0  0  0
   33.7996   25.8625   30.2974 H   0  0  0  0  0  0  0  0  0  0  0  0
   32.6913   24.2389   28.6633 C   0  0  0  0  0  0  0  0  0  0  0  0
   32.3806   23.3098   27.6619 C   0  0  0  0  0  0  0  0  0  0  0  0
   31.2934   23.5268   26.8136 C   0  0  0  0  0  0  0  0  0  0  0  0
   30.5179   24.6765   26.9555 C   0  0  0  0  0  0  0  0  0  0  0  0
   30.8309   25.6142   27.9397 C   0  0  0  0  0  0  0  0  0  0  0  0
   31.9177   25.4005   28.7915 C   0  0  0  0  0  0  0  0  0  0  0  0
   37.1597   24.3497   29.7911 O   0  0  0  0  0  0  0  0  0  0  0  0
   37.5541   23.0935   30.3236 C   0  0  0  0  0  0  0  0  0  0  0  0
   38.9183   25.9302   31.5160 O   0  0  0  0  0  0  0  0  0  0  0  0
   40.0697   25.0975   31.5840 C   0  0  0  0  0  0  0  0  0  0  0  0
   38.0523   25.6312   34.3136 O   0  0  0  0  0  0  0  0  0  0  0  0
   38.8394   26.7210   34.7771 C   0  0  0  0  0  0  0  0  0  0  0  0
   35.1263   26.4583   34.6402 C   0  0  0  0  0  0  0  0  0  0  0  0
   35.9320   27.1487   36.7672 C   0  0  0  0  0  0  0  0  0  0  0  0
   35.4069   26.0851   35.9851 O   0  0  0  0  0  0  0  0  0  0  0  0
 24 25  1  0
 25 23  1  0
  1 23  1  0
  1  2  1  0
  2  3  1  0
  3  7  1  0
  7  8  1  0
  8  9  2  0
  8 11  1  0
 11 12  2  0
 12 13  1  0
 13 14  2  0
 14 15  1  0
 15 16  2  0
  3  4  1  0
  4 17  1  0
 17 18  1  0
  4  5  1  0
  5 19  1  0
 19 20  1  0
  5  6  1  0
  6 21  1  0
 21 22  1  0
  6  1  1  0
 16 11  1  0
  7 10  1  0
M  END
> <minimizedAffinity>
-5.13410

> <CNNscore>
0.1187395453

> <CNNaffinity>
3.9696776867

> <CNN_VS>
0.4713577330

> <CNNaffinity_variance>
1.0640624762

$$$$



 25 26  0  0  0  0  0  0  0  0999 V2000
   30.1065   21.7705   25.9031 C   0  0  0  0  0  0  0  0  0  0  0  0
   28.8835   21.9995   26.6165 O   0  0  0  0  0  0  0  0  0  0  0  0
   28.1880   23.1425   26.1364 C   0  0  0  0  0  0  0  0  0  0  0  0
   29.0056   24.4200   26.4286 C   0  0  0  0  0  0  0  0  0  0  0  0
   30.3980   24.2933   25.7799 C   0  0  0  0  0  0  0  0  0  0  0  0
   31.0820   22.9463   26.0973 C   0  0  0  0  0  0  0  0  0  0  0  0
   26.9418   23.0927   26.8576 N   0  0  0  0  0  0  0  0  0  0  0  0
   26.6516   23.9723   27.8738 C   0  0  0  0  0  0  0  0  0  0  0  0
   27.4322   24.8260   28.2773 O   0  0  0  0  0  0  0  0  0  0  0  0
   26.2775   22.4077   26.6154 H   0  0  0  0  0  0  0  0  0  0  0  0
   25.2863   23.8710   28.4622 C   0  0  0  0  0  0  0  0  0  0  0  0
   25.0125   24.5880   29.6342 C   0  0  0  0  0  0  0  0  0  0  0  0
   23.7478   24.5203   30.2212 C   0  0  0  0  0  0  0  0  0  0  0  0
   22.7543   23.7294   29.6459 C   0  0  0  0  0  0  0  0  0  0  0  0
   23.0244   22.9997   28.4881 C   0  0  0  0  0  0  0  0  0  0  0  0
   24.2887   23.0653   27.8968 C   0  0  0  0  0  0  0  0  0  0  0  0
   28.3639   25.5804   25.8694 O   0  0  0  0  0  0  0  0  0  0  0  0
   27.9852   25.4026   24.5122 C   0  0  0  0  0  0  0  0  0  0  0  0
   31.2496   25.3456   26.2978 O   0  0  0  0  0  0  0  0  0  0  0  0
   31.2609   25.3903   27.7197 C   0  0  0  0  0  0  0  0  0  0  0  0
   32.1866   22.7850   25.1882 O   0  0  0  0  0  0  0  0  0  0  0  0
   33.4477   22.8119   25.8447 C   0  0  0  0  0  0  0  0  0  0  0  0
   30.6750   20.4396   26.4400 C   0  0  0  0  0  0  0  0  0  0  0  0
   32.0291   19.3347   28.0511 C   0  0  0  0  0  0  0  0  0  0  0  0
   31.7523   20.5474   27.3646 O   0  0  0  0  0  0  0  0  0  0  0  0
 24 25  1  0
 25 23  1  0
  1 23  1  0
  1  2  1  0
  2  3  1  0
  3  7  1  0
  7  8  1  0
  8  9  2  0
  8 11  1  0
 11 12  2  0
 12 13  1  0
 13 14  2  0
 14 15  1  0
 15 16  2  0
  3  4  1  0
  4 17  1  0
 17 18  1  0
  4  5  1  0
  5 19  1  0
 19 20  1  0
  5  6  1  0
  6 21  1  0
 21 22  1  0
  6  1  1  0
 16 11  1  0
  7 10  1  0
M  END
> <minimizedAffinity>
-7.59053

> <CNNscore>
0.1146265343

> <CNNaffinity>
3.8967344761

> <CNN_VS>
0.4466691613

> <CNNaffinity_variance>
0.2392585725

$$$$



 25 26  0  0  0  0  0  0  0  0999 V2000
   26.4024   24.0887   28.0343 C   0  0  0  0  0  0  0  0  0  0  0  0
   26.1700   25.3469   28.6824 O   0  0  0  0  0  0  0  0  0  0  0  0
   25.4969   25.1944   29.9251 C   0  0  0  0  0  0  0  0  0  0  0  0
   24.0687   24.6552   29.6897 C   0  0  0  0  0  0  0  0  0  0  0  0
   24.1478   23.3201   28.9235 C   0  0  0  0  0  0  0  0  0  0  0  0
   25.0708   23.3967   27.6884 C   0  0  0  0  0  0  0  0  0  0  0  0
   25.5140   26.5274   30.4711 N   0  0  0  0  0  0  0  0  0  0  0  0
   24.7288   26.8875   31.5407 C   0  0  0  0  0  0  0  0  0  0  0  0
   23.9275   26.1339   32.0798 O   0  0  0  0  0  0  0  0  0  0  0  0
   26.1062   27.2014   30.0657 H   0  0  0  0  0  0  0  0  0  0  0  0
   24.9239   28.2688   32.0651 C   0  0  0  0  0  0  0  0  0  0  0  0
   25.4042   28.4221   33.3721 C   0  0  0  0  0  0  0  0  0  0  0  0
   25.5995   29.6975   33.9048 C   0  0  0  0  0  0  0  0  0  0  0  0
   25.3075   30.8247   33.1382 C   0  0  0  0  0  0  0  0  0  0  0  0
   24.8135   30.6800   31.8418 C   0  0  0  0  0  0  0  0  0  0  0  0
   24.6173   29.4052   31.3044 C   0  0  0  0  0  0  0  0  0  0  0  0
   23.4007   24.4057   30.9398 O   0  0  0  0  0  0  0  0  0  0  0  0
   21.9859   24.4672   30.8326 C   0  0  0  0  0  0  0  0  0  0  0  0
   22.8210   22.9745   28.4535 O   0  0  0  0  0  0  0  0  0  0  0  0
   22.4266   21.6643   28.8430 C   0  0  0  0  0  0  0  0  0  0  0  0
   25.3476   22.0512   27.2578 O   0  0  0  0  0  0  0  0  0  0  0  0
   26.0013   21.2777   28.2559 C   0  0  0  0  0  0  0  0  0  0  0  0
   27.2466   24.4002   26.7801 C   0  0  0  0  0  0  0  0  0  0  0  0
   26.9796   24.6268   24.4290 C   0  0  0  0  0  0  0  0  0  0  0  0
   26.8127   23.7934   25.5675 O   0  0  0  0  0  0  0  0  0  0  0  0
 24 25  1  0
 25 23  1  0
  1 23  1  0
  1  2  1  0
  2  3  1  0
  3  7  1  0
  7  8  1  0
  8  9  2  0
  8 11  1  0
 11 12  2  0
 12 13  1  0
 13 14  2  0
 14 15  1  0
 15 16  2  0
  3  4  1  0
  4 17  1  0
 17 18  1  0
  4  5  1  0
  5 19  1  0
 19 20  1  0
  5  6  1  0
  6 21  1  0
 21 22  1  0
  6  1  1  0
 16 11  1  0
  7 10  1  0
M  END
> <minimizedAffinity>
-3.22600

> <CNNscore>
0.1128193438

> <CNNaffinity>
3.6454360485

> <CNN_VS>
0.4112757146

> <CNNaffinity_variance>
0.5196475387

$$$$



 25 26  0  0  0  0  0  0  0  0999 V2000
   32.6785   22.9056   26.5712 C   0  0  0  0  0  0  0  0  0  0  0  0
   33.6987   23.2185   27.5296 O   0  0  0  0  0  0  0  0  0  0  0  0
   33.1573   23.5426   28.8034 C   0  0  0  0  0  0  0  0  0  0  0  0
   32.3483   24.8555   28.7152 C   0  0  0  0  0  0  0  0  0  0  0  0
   31.2409   24.7014   27.6542 C   0  0  0  0  0  0  0  0  0  0  0  0
   31.7679   24.1226   26.3236 C   0  0  0  0  0  0  0  0  0  0  0  0
   34.3275   23.6558   29.6359 N   0  0  0  0  0  0  0  0  0  0  0  0
   35.5299   24.1087   29.1464 C   0  0  0  0  0  0  0  0  0  0  0  0
   35.7181   24.4031   27.9723 O   0  0  0  0  0  0  0  0  0  0  0  0
   34.2644   23.4009   30.5848 H   0  0  0  0  0  0  0  0  0  0  0  0
   36.6266   24.2717   30.1421 C   0  0  0  0  0  0  0  0  0  0  0  0
   36.8228   25.5352   30.7143 C   0  0  0  0  0  0  0  0  0  0  0  0
   37.8400   25.7339   31.6495 C   0  0  0  0  0  0  0  0  0  0  0  0
   38.6711   24.6743   32.0102 C   0  0  0  0  0  0  0  0  0  0  0  0
   38.4923   23.4172   31.4326 C   0  0  0  0  0  0  0  0  0  0  0  0
   37.4749   23.2139   30.4967 C   0  0  0  0  0  0  0  0  0  0  0  0
   31.7144   25.1544   29.9721 O   0  0  0  0  0  0  0  0  0  0  0  0
   32.4790   24.7310   31.0915 C   0  0  0  0  0  0  0  0  0  0  0  0
   30.6849   26.0092   27.3692 O   0  0  0  0  0  0  0  0  0  0  0  0
   29.3680   26.1678   27.8834 C   0  0  0  0  0  0  0  0  0  0  0  0
   30.6339   23.7001   25.5439 O   0  0  0  0  0  0  0  0  0  0  0  0
   29.8587   22.7025   26.1964 C   0  0  0  0  0  0  0  0  0  0  0  0
   33.4143   22.4516   25.2924 C   0  0  0  0  0  0  0  0  0  0  0  0
   33.0392   20.1416   25.7082 C   0  0  0  0  0  0  0  0  0  0  0  0
   33.0168   21.1947   24.7548 O   0  0  0  0  0  0  0  0  0  0  0  0
 24 25  1  0
 25 23  1  0
  1 23  1  0
  1  2  1  0
  2  3  1  0
  3  7  1  0
  7  8  1  0
  8  9  2  0
  8 11  1  0
 11 12  2  0
 12 13  1  0
 13 14  2  0
 14 15  1  0
 15 16  2  0
  3  4  1  0
  4 17  1  0
 17 18  1  0
  4  5  1  0
  5 19  1  0
 19 20  1  0
  5  6  1  0
  6 21  1  0
 21 22  1  0
  6  1  1  0
 16 11  1  0
  7 10  1  0
M  END
> <minimizedAffinity>
-8.13018

> <CNNscore>
0.1085094288

> <CNNaffinity>
3.4276437759

> <CNN_VS>
0.3719316721

> <CNNaffinity_variance>
1.0016498566

$$$$
