


 40 44  0  0  0  0  0  0  0  0999 V2000
    1.3609   23.2392   18.5950 C   0  0  0  0  0  0  0  0  0  0  0  0
    2.6448   23.5359   19.0403 C   0  0  0  0  0  0  0  0  0  0  0  0
    2.8211   23.8104   20.3803 C   0  0  0  0  0  0  0  0  0  0  0  0
    1.7811   23.7568   21.2440 N   0  0  0  0  0  0  0  0  0  0  0  0
    0.5385   23.4639   20.8147 C   0  0  0  0  0  0  0  0  0  0  0  0
    0.2928   23.1923   19.4815 C   0  0  0  0  0  0  0  0  0  0  0  0
    0.8622   21.4268   16.8035 O   0  0  0  0  0  0  0  0  0  0  0  0
    1.1058   22.8558   16.8865 S   0  0  0  0  0  0  0  0  0  0  0  0
    0.1341   23.7978   16.3615 O   0  0  0  0  0  0  0  0  0  0  0  0
    2.6521   23.1865   16.0734 C   0  0  0  0  0  0  0  0  0  0  0  0
    2.7266   24.2220   15.1368 C   0  0  0  0  0  0  0  0  0  0  0  0
    3.9364   24.4753   14.4911 C   0  0  0  0  0  0  0  0  0  0  0  0
    5.0574   23.6934   14.7750 C   0  0  0  0  0  0  0  0  0  0  0  0
    4.9727   22.6501   15.6999 C   0  0  0  0  0  0  0  0  0  0  0  0
    3.7666   22.3890   16.3504 C   0  0  0  0  0  0  0  0  0  0  0  0
    4.0400   24.1401   20.9618 N   0  0  0  0  0  0  0  0  0  0  0  0
    4.1285   23.7628   21.8669 H   0  0  0  0  0  0  0  0  0  0  0  0
    5.1283   24.8427   20.6035 C   0  0  0  0  0  0  0  0  0  0  0  0
    5.1924   26.1949   20.1970 C   0  0  0  0  0  0  0  0  0  0  0  0
    6.5261   26.4665   19.9530 C   0  0  0  0  0  0  0  0  0  0  0  0
    7.1650   25.2925   20.2496 N   0  0  0  0  0  0  0  0  0  0  0  0
    6.3513   24.3126   20.6652 N   0  0  0  0  0  0  0  0  0  0  0  0
    8.1391   25.1781   20.1648 H   0  0  0  0  0  0  0  0  0  0  0  0
    7.2078   27.6842   19.5226 C   0  0  0  0  0  0  0  0  0  0  0  0
    7.2770   28.0377   18.1669 C   0  0  0  0  0  0  0  0  0  0  0  0
    7.9325   29.2066   17.7661 C   0  0  0  0  0  0  0  0  0  0  0  0
    8.5208   30.0318   18.7202 C   0  0  0  0  0  0  0  0  0  0  0  0
    9.4050   31.6120   18.1804 Br  0  0  0  0  0  0  0  0  0  0  0  0
    8.4590   29.7003   20.0712 C   0  0  0  0  0  0  0  0  0  0  0  0
    7.8032   28.5313   20.4689 C   0  0  0  0  0  0  0  0  0  0  0  0
   -0.5309   23.3817   21.7094 N   0  0  0  0  0  0  0  0  0  0  0  0
   -0.4207   23.7098   22.6310 H   0  0  0  0  0  0  0  0  0  0  0  0
   -1.8186   22.8111   21.2906 C   0  0  0  0  0  0  0  0  0  0  0  0
   -2.5242   22.0774   22.4393 C   0  0  0  0  0  0  0  0  0  0  0  0
   -3.8462   21.4767   21.9710 C   0  0  0  0  0  0  0  0  0  0  0  0
   -4.7519   22.4891   21.2602 C   0  0  0  0  0  0  0  0  0  0  0  0
   -5.0687   21.9863   19.9604 O   0  0  0  0  0  0  0  0  0  0  0  0
   -4.1305   23.8745   21.0948 C   0  0  0  0  0  0  0  0  0  0  0  0
   -2.7103   23.8070   20.5321 C   0  0  0  0  0  0  0  0  0  0  0  0
   -4.2545   21.8980   19.4406 H   0  0  0  0  0  0  0  0  0  0  0  0
  7  8  2  0
  8  9  2  0
  8 10  1  0
 10 11  2  0
 11 12  1  0
 12 13  2  0
 13 14  1  0
 14 15  2  0
  8  1  1  0
  1  2  2  0
  2  3  1  0
  3 16  1  0
 16 18  1  0
 18 19  1  0
 19 20  2  0
 20 24  1  0
 24 25  2  0
 25 26  1  0
 26 27  2  0
 27 28  1  0
 27 29  1  0
 29 30  2  0
 20 21  1  0
 21 22  1  0
  3  4  2  0
  4  5  1  0
  5 31  1  0
 33 31  1  0
 33 34  1  0
 34 35  1  0
 35 36  1  0
 36 37  1  0
 36 38  1  0
 38 39  1  0
  5  6  2  0
 15 10  1  0
  6  1  1  0
 22 18  2  0
 39 33  1  0
 30 24  1  0
 16 17  1  0
 21 23  1  0
 31 32  1  0
 37 40  1  0
M  END
> <minimizedAffinity>
-9.31570

> <CNNscore>
0.7433034778

> <CNNaffinity>
7.6798210144

> <CNN_VS>
5.7084374428

> <CNNaffinity_variance>
0.0149324564

$$$$



 40 44  0  0  0  0  0  0  0  0999 V2000
    1.4425   23.3835   18.6619 C   0  0  0  0  0  0  0  0  0  0  0  0
    2.7271   23.6807   19.1050 C   0  0  0  0  0  0  0  0  0  0  0  0
    2.9197   23.8767   20.4565 C   0  0  0  0  0  0  0  0  0  0  0  0
    1.8955   23.7474   21.3310 N   0  0  0  0  0  0  0  0  0  0  0  0
    0.6525   23.4538   20.9035 C   0  0  0  0  0  0  0  0  0  0  0  0
    0.3905   23.2589   19.5600 C   0  0  0  0  0  0  0  0  0  0  0  0
    1.4072   24.3593   16.2558 O   0  0  0  0  0  0  0  0  0  0  0  0
    1.1673   23.0997   16.9372 S   0  0  0  0  0  0  0  0  0  0  0  0
    1.9071   21.9089   16.5606 O   0  0  0  0  0  0  0  0  0  0  0  0
   -0.5618   22.7192   16.7725 C   0  0  0  0  0  0  0  0  0  0  0  0
   -1.4819   23.7612   16.6213 C   0  0  0  0  0  0  0  0  0  0  0  0
   -2.8391   23.4641   16.5025 C   0  0  0  0  0  0  0  0  0  0  0  0
   -3.2705   22.1372   16.5435 C   0  0  0  0  0  0  0  0  0  0  0  0
   -2.3482   21.1015   16.7107 C   0  0  0  0  0  0  0  0  0  0  0  0
   -0.9885   21.3890   16.8309 C   0  0  0  0  0  0  0  0  0  0  0  0
    4.1407   24.1971   21.0386 N   0  0  0  0  0  0  0  0  0  0  0  0
    4.2276   23.8160   21.9422 H   0  0  0  0  0  0  0  0  0  0  0  0
    5.2330   24.8946   20.6823 C   0  0  0  0  0  0  0  0  0  0  0  0
    5.3064   26.2510   20.2918 C   0  0  0  0  0  0  0  0  0  0  0  0
    6.6410   26.5142   20.0430 C   0  0  0  0  0  0  0  0  0  0  0  0
    7.2714   25.3312   20.3216 N   0  0  0  0  0  0  0  0  0  0  0  0
    6.4517   24.3533   20.7302 N   0  0  0  0  0  0  0  0  0  0  0  0
    8.2440   25.2095   20.2296 H   0  0  0  0  0  0  0  0  0  0  0  0
    7.3306   27.7310   19.6233 C   0  0  0  0  0  0  0  0  0  0  0  0
    8.0799   28.4921   20.5329 C   0  0  0  0  0  0  0  0  0  0  0  0
    8.7365   29.6559   20.1196 C   0  0  0  0  0  0  0  0  0  0  0  0
    8.6504   30.0647   18.7919 C   0  0  0  0  0  0  0  0  0  0  0  0
    9.5384   31.6358   18.2319 Br  0  0  0  0  0  0  0  0  0  0  0  0
    7.9151   29.3204   17.8731 C   0  0  0  0  0  0  0  0  0  0  0  0
    7.2598   28.1575   18.2889 C   0  0  0  0  0  0  0  0  0  0  0  0
   -0.4000   23.2934   21.8076 N   0  0  0  0  0  0  0  0  0  0  0  0
   -0.2711   23.5371   22.7527 H   0  0  0  0  0  0  0  0  0  0  0  0
   -1.6975   22.7652   21.3641 C   0  0  0  0  0  0  0  0  0  0  0  0
   -2.4858   22.1307   22.5180 C   0  0  0  0  0  0  0  0  0  0  0  0
   -3.8171   21.5714   22.0253 C   0  0  0  0  0  0  0  0  0  0  0  0
   -4.6399   22.5873   21.2243 C   0  0  0  0  0  0  0  0  0  0  0  0
   -4.9295   22.0309   19.9401 O   0  0  0  0  0  0  0  0  0  0  0  0
   -3.9417   23.9293   21.0139 C   0  0  0  0  0  0  0  0  0  0  0  0
   -2.5053   23.7613   20.5171 C   0  0  0  0  0  0  0  0  0  0  0  0
   -4.1006   21.8745   19.4611 H   0  0  0  0  0  0  0  0  0  0  0  0
  7  8  2  0
  8  9  2  0
  8 10  1  0
 10 11  2  0
 11 12  1  0
 12 13  2  0
 13 14  1  0
 14 15  2  0
  8  1  1  0
  1  2  2  0
  2  3  1  0
  3 16  1  0
 16 18  1  0
 18 19  1  0
 19 20  2  0
 20 24  1  0
 24 25  2  0
 25 26  1  0
 26 27  2  0
 27 28  1  0
 27 29  1  0
 29 30  2  0
 20 21  1  0
 21 22  1  0
  3  4  2  0
  4  5  1  0
  5 31  1  0
 33 31  1  0
 33 34  1  0
 34 35  1  0
 35 36  1  0
 36 37  1  0
 36 38  1  0
 38 39  1  0
  5  6  2  0
 15 10  1  0
  6  1  1  0
 22 18  2  0
 39 33  1  0
 30 24  1  0
 16 17  1  0
 21 23  1  0
 31 32  1  0
 37 40  1  0
M  END
> <minimizedAffinity>
-9.78480

> <CNNscore>
0.6998734474

> <CNNaffinity>
7.6691741943

> <CNN_VS>
5.3674511909

> <CNNaffinity_variance>
0.0878830925

$$$$



 40 44  0  0  0  0  0  0  0  0999 V2000
    1.6746   23.5974   20.3279 C   0  0  0  0  0  0  0  0  0  0  0  0
    2.9999   24.0039   20.2132 C   0  0  0  0  0  0  0  0  0  0  0  0
    3.5535   24.0678   18.9516 C   0  0  0  0  0  0  0  0  0  0  0  0
    2.8177   23.7788   17.8536 N   0  0  0  0  0  0  0  0  0  0  0  0
    1.5327   23.3908   17.9634 C   0  0  0  0  0  0  0  0  0  0  0  0
    0.9228   23.2933   19.2004 C   0  0  0  0  0  0  0  0  0  0  0  0
    1.3868   22.3081   22.5634 O   0  0  0  0  0  0  0  0  0  0  0  0
    0.9267   23.5310   21.9301 S   0  0  0  0  0  0  0  0  0  0  0  0
    1.1401   24.8152   22.5723 O   0  0  0  0  0  0  0  0  0  0  0  0
   -0.8214   23.3671   21.6490 C   0  0  0  0  0  0  0  0  0  0  0  0
   -1.5900   22.6058   22.5349 C   0  0  0  0  0  0  0  0  0  0  0  0
   -2.9592   22.4683   22.3093 C   0  0  0  0  0  0  0  0  0  0  0  0
   -3.5503   23.0802   21.2026 C   0  0  0  0  0  0  0  0  0  0  0  0
   -2.7745   23.8263   20.3122 C   0  0  0  0  0  0  0  0  0  0  0  0
   -1.4040   23.9690   20.5295 C   0  0  0  0  0  0  0  0  0  0  0  0
    4.8671   24.4381   18.6871 N   0  0  0  0  0  0  0  0  0  0  0  0
    5.1130   24.2719   17.7484 H   0  0  0  0  0  0  0  0  0  0  0  0
    5.8869   24.9651   19.3861 C   0  0  0  0  0  0  0  0  0  0  0  0
    5.9757   26.2588   19.9485 C   0  0  0  0  0  0  0  0  0  0  0  0
    7.2015   26.3247   20.5850 C   0  0  0  0  0  0  0  0  0  0  0  0
    7.7449   25.0831   20.3910 N   0  0  0  0  0  0  0  0  0  0  0  0
    6.9654   24.2432   19.6967 N   0  0  0  0  0  0  0  0  0  0  0  0
    8.6326   24.8291   20.7325 H   0  0  0  0  0  0  0  0  0  0  0  0
    7.8458   27.3910   21.3468 C   0  0  0  0  0  0  0  0  0  0  0  0
    8.7077   27.1021   22.4152 C   0  0  0  0  0  0  0  0  0  0  0  0
    9.3194   28.1316   23.1379 C   0  0  0  0  0  0  0  0  0  0  0  0
    9.0752   29.4581   22.7941 C   0  0  0  0  0  0  0  0  0  0  0  0
    9.9025   30.8498   23.7684 Br  0  0  0  0  0  0  0  0  0  0  0  0
    8.2263   29.7651   21.7340 C   0  0  0  0  0  0  0  0  0  0  0  0
    7.6161   28.7340   21.0134 C   0  0  0  0  0  0  0  0  0  0  0  0
    0.7642   23.1182   16.8294 N   0  0  0  0  0  0  0  0  0  0  0  0
    1.2076   22.9965   15.9588 H   0  0  0  0  0  0  0  0  0  0  0  0
   -0.6984   23.0111   16.9209 C   0  0  0  0  0  0  0  0  0  0  0  0
   -1.4026   23.7445   15.7713 C   0  0  0  0  0  0  0  0  0  0  0  0
   -2.9187   23.6358   15.9037 C   0  0  0  0  0  0  0  0  0  0  0  0
   -3.4078   22.1940   16.0838 C   0  0  0  0  0  0  0  0  0  0  0  0
   -4.1740   22.1176   17.2878 O   0  0  0  0  0  0  0  0  0  0  0  0
   -2.2865   21.1603   16.1682 C   0  0  0  0  0  0  0  0  0  0  0  0
   -1.1924   21.5742   17.1529 C   0  0  0  0  0  0  0  0  0  0  0  0
   -3.6092   22.3378   18.0450 H   0  0  0  0  0  0  0  0  0  0  0  0
  7  8  2  0
  8  9  2  0
  8 10  1  0
 10 11  2  0
 11 12  1  0
 12 13  2  0
 13 14  1  0
 14 15  2  0
  8  1  1  0
  1  2  2  0
  2  3  1  0
  3 16  1  0
 16 18  1  0
 18 19  1  0
 19 20  2  0
 20 24  1  0
 24 25  2  0
 25 26  1  0
 26 27  2  0
 27 28  1  0
 27 29  1  0
 29 30  2  0
 20 21  1  0
 21 22  1  0
  3  4  2  0
  4  5  1  0
  5 31  1  0
 33 31  1  0
 33 34  1  0
 34 35  1  0
 35 36  1  0
 36 37  1  0
 36 38  1  0
 38 39  1  0
  5  6  2  0
 15 10  1  0
  6  1  1  0
 22 18  2  0
 39 33  1  0
 30 24  1  0
 16 17  1  0
 21 23  1  0
 31 32  1  0
 37 40  1  0
M  END
> <minimizedAffinity>
-9.14866

> <CNNscore>
0.4860806763

> <CNNaffinity>
7.3161082268

> <CNN_VS>
3.5562188625

> <CNNaffinity_variance>
0.0475530513

$$$$



 40 44  0  0  0  0  0  0  0  0999 V2000
    1.3495   23.4770   18.5051 C   0  0  0  0  0  0  0  0  0  0  0  0
    2.6264   23.8626   18.8992 C   0  0  0  0  0  0  0  0  0  0  0  0
    2.8514   24.0926   20.2404 C   0  0  0  0  0  0  0  0  0  0  0  0
    1.8675   23.9128   21.1515 N   0  0  0  0  0  0  0  0  0  0  0  0
    0.6322   23.5338   20.7715 C   0  0  0  0  0  0  0  0  0  0  0  0
    0.3383   23.3006   19.4407 C   0  0  0  0  0  0  0  0  0  0  0  0
    1.4131   24.3398   16.0568 O   0  0  0  0  0  0  0  0  0  0  0  0
    1.0352   23.1481   16.7952 S   0  0  0  0  0  0  0  0  0  0  0  0
    1.6333   21.8650   16.4737 O   0  0  0  0  0  0  0  0  0  0  0  0
   -0.7267   22.9593   16.6477 C   0  0  0  0  0  0  0  0  0  0  0  0
   -1.3464   21.8412   17.2144 C   0  0  0  0  0  0  0  0  0  0  0  0
   -2.7267   21.6873   17.0902 C   0  0  0  0  0  0  0  0  0  0  0  0
   -3.4769   22.6395   16.3980 C   0  0  0  0  0  0  0  0  0  0  0  0
   -2.8501   23.7461   15.8204 C   0  0  0  0  0  0  0  0  0  0  0  0
   -1.4697   23.9083   15.9390 C   0  0  0  0  0  0  0  0  0  0  0  0
    4.0682   24.4996   20.7753 N   0  0  0  0  0  0  0  0  0  0  0  0
    3.9796   24.7840   21.7136 H   0  0  0  0  0  0  0  0  0  0  0  0
    5.3349   24.6037   20.3380 C   0  0  0  0  0  0  0  0  0  0  0  0
    5.8035   24.5095   19.0079 C   0  0  0  0  0  0  0  0  0  0  0  0
    7.1717   24.7027   19.0612 C   0  0  0  0  0  0  0  0  0  0  0  0
    7.4256   24.9234   20.3884 N   0  0  0  0  0  0  0  0  0  0  0  0
    6.3375   24.8935   21.1695 N   0  0  0  0  0  0  0  0  0  0  0  0
    8.3304   25.0898   20.7388 H   0  0  0  0  0  0  0  0  0  0  0  0
    8.1917   24.7297   18.0165 C   0  0  0  0  0  0  0  0  0  0  0  0
    8.9182   25.8975   17.7403 C   0  0  0  0  0  0  0  0  0  0  0  0
    9.8930   25.9118   16.7373 C   0  0  0  0  0  0  0  0  0  0  0  0
   10.1498   24.7560   16.0055 C   0  0  0  0  0  0  0  0  0  0  0  0
   11.4677   24.7733   14.6515 Br  0  0  0  0  0  0  0  0  0  0  0  0
    9.4422   23.5857   16.2677 C   0  0  0  0  0  0  0  0  0  0  0  0
    8.4684   23.5743   17.2708 C   0  0  0  0  0  0  0  0  0  0  0  0
   -0.3769   23.3217   21.7135 N   0  0  0  0  0  0  0  0  0  0  0  0
   -0.2090   23.5285   22.6613 H   0  0  0  0  0  0  0  0  0  0  0  0
   -1.6861   22.7935   21.3061 C   0  0  0  0  0  0  0  0  0  0  0  0
   -2.4270   22.1273   22.4736 C   0  0  0  0  0  0  0  0  0  0  0  0
   -3.7716   21.5689   22.0175 C   0  0  0  0  0  0  0  0  0  0  0  0
   -4.6304   22.5960   21.2703 C   0  0  0  0  0  0  0  0  0  0  0  0
   -4.9632   22.0662   19.9854 O   0  0  0  0  0  0  0  0  0  0  0  0
   -3.9497   23.9477   21.0648 C   0  0  0  0  0  0  0  0  0  0  0  0
   -2.5314   23.8020   20.5120 C   0  0  0  0  0  0  0  0  0  0  0  0
   -4.1515   21.9269   19.4729 H   0  0  0  0  0  0  0  0  0  0  0  0
  7  8  2  0
  8  9  2  0
  8 10  1  0
 10 11  2  0
 11 12  1  0
 12 13  2  0
 13 14  1  0
 14 15  2  0
  8  1  1  0
  1  2  2  0
  2  3  1  0
  3 16  1  0
 16 18  1  0
 18 19  1  0
 19 20  2  0
 20 24  1  0
 24 25  2  0
 25 26  1  0
 26 27  2  0
 27 28  1  0
 27 29  1  0
 29 30  2  0
 20 21  1  0
 21 22  1  0
  3  4  2  0
  4  5  1  0
  5 31  1  0
 33 31  1  0
 33 34  1  0
 34 35  1  0
 35 36  1  0
 36 37  1  0
 36 38  1  0
 38 39  1  0
  5  6  2  0
 15 10  1  0
  6  1  1  0
 22 18  2  0
 39 33  1  0
 30 24  1  0
 16 17  1  0
 21 23  1  0
 31 32  1  0
 37 40  1  0
M  END
> <minimizedAffinity>
-8.67528

> <CNNscore>
0.4564614892

> <CNNaffinity>
7.5924968719

> <CNN_VS>
3.4656825066

> <CNNaffinity_variance>
0.0564490557

$$$$



 40 44  0  0  0  0  0  0  0  0999 V2000
    7.2309   23.8577   17.1798 C   0  0  0  0  0  0  0  0  0  0  0  0
    5.8439   23.8999   17.0847 C   0  0  0  0  0  0  0  0  0  0  0  0
    5.1300   24.3382   18.1803 C   0  0  0  0  0  0  0  0  0  0  0  0
    5.7624   24.7502   19.3032 N   0  0  0  0  0  0  0  0  0  0  0  0
    7.1057   24.7153   19.3941 C   0  0  0  0  0  0  0  0  0  0  0  0
    7.8784   24.2734   18.3361 C   0  0  0  0  0  0  0  0  0  0  0  0
    7.2864   22.5533   14.9352 O   0  0  0  0  0  0  0  0  0  0  0  0
    8.1772   23.3259   15.7825 S   0  0  0  0  0  0  0  0  0  0  0  0
    8.8734   24.4840   15.2523 O   0  0  0  0  0  0  0  0  0  0  0  0
    9.4114   22.2158   16.4198 C   0  0  0  0  0  0  0  0  0  0  0  0
   10.4276   22.7175   17.2389 C   0  0  0  0  0  0  0  0  0  0  0  0
   11.4018   21.8494   17.7306 C   0  0  0  0  0  0  0  0  0  0  0  0
   11.3629   20.4942   17.3978 C   0  0  0  0  0  0  0  0  0  0  0  0
   10.3544   20.0018   16.5662 C   0  0  0  0  0  0  0  0  0  0  0  0
    9.3758   20.8628   16.0691 C   0  0  0  0  0  0  0  0  0  0  0  0
    3.7430   24.4155   18.2357 N   0  0  0  0  0  0  0  0  0  0  0  0
    3.3645   24.8075   17.4158 H   0  0  0  0  0  0  0  0  0  0  0  0
    2.7872   24.0915   19.1233 C   0  0  0  0  0  0  0  0  0  0  0  0
    1.4719   23.6473   18.8579 C   0  0  0  0  0  0  0  0  0  0  0  0
    0.8796   23.4239   20.0872 C   0  0  0  0  0  0  0  0  0  0  0  0
    1.8662   23.7156   20.9905 N   0  0  0  0  0  0  0  0  0  0  0  0
    3.0257   24.0940   20.4363 N   0  0  0  0  0  0  0  0  0  0  0  0
    1.7348   23.6527   21.9641 H   0  0  0  0  0  0  0  0  0  0  0  0
   -0.4525   22.9505   20.4533 C   0  0  0  0  0  0  0  0  0  0  0  0
   -0.8920   22.9757   21.7853 C   0  0  0  0  0  0  0  0  0  0  0  0
   -2.1701   22.5199   22.1244 C   0  0  0  0  0  0  0  0  0  0  0  0
   -3.0189   22.0383   21.1319 C   0  0  0  0  0  0  0  0  0  0  0  0
   -4.7465   21.4239   21.5884 Br  0  0  0  0  0  0  0  0  0  0  0  0
   -2.6026   22.0093   19.8035 C   0  0  0  0  0  0  0  0  0  0  0  0
   -1.3245   22.4656   19.4674 C   0  0  0  0  0  0  0  0  0  0  0  0
    7.7609   25.1656   20.5424 N   0  0  0  0  0  0  0  0  0  0  0  0
    8.0040   24.5231   21.2476 H   0  0  0  0  0  0  0  0  0  0  0  0
    8.0915   26.5875   20.7100 C   0  0  0  0  0  0  0  0  0  0  0  0
    6.8423   27.4437   20.9591 C   0  0  0  0  0  0  0  0  0  0  0  0
    7.2122   28.9165   21.1070 C   0  0  0  0  0  0  0  0  0  0  0  0
    8.3216   29.1606   22.1367 C   0  0  0  0  0  0  0  0  0  0  0  0
    9.3932   29.8581   21.4983 O   0  0  0  0  0  0  0  0  0  0  0  0
    8.8883   27.8855   22.7580 C   0  0  0  0  0  0  0  0  0  0  0  0
    9.2380   26.8352   21.7031 C   0  0  0  0  0  0  0  0  0  0  0  0
    9.7604   29.3075   20.7892 H   0  0  0  0  0  0  0  0  0  0  0  0
  7  8  2  0
  8  9  2  0
  8 10  1  0
 10 11  2  0
 11 12  1  0
 12 13  2  0
 13 14  1  0
 14 15  2  0
  8  1  1  0
  1  2  2  0
  2  3  1  0
  3 16  1  0
 16 18  1  0
 18 19  1  0
 19 20  2  0
 20 24  1  0
 24 25  2  0
 25 26  1  0
 26 27  2  0
 27 28  1  0
 27 29  1  0
 29 30  2  0
 20 21  1  0
 21 22  1  0
  3  4  2  0
  4  5  1  0
  5 31  1  0
 33 31  1  0
 33 34  1  0
 34 35  1  0
 35 36  1  0
 36 37  1  0
 36 38  1  0
 38 39  1  0
  5  6  2  0
 15 10  1  0
  6  1  1  0
 22 18  2  0
 39 33  1  0
 30 24  1  0
 16 17  1  0
 21 23  1  0
 31 32  1  0
 37 40  1  0
M  END
> <minimizedAffinity>
-8.89645

> <CNNscore>
0.1614212990

> <CNNaffinity>
6.8234581947

> <CNN_VS>
1.1014515162

> <CNNaffinity_variance>
0.1257605404

$$$$



 40 44  0  0  0  0  0  0  0  0999 V2000
    6.9390   25.1445   18.2166 C   0  0  0  0  0  0  0  0  0  0  0  0
    5.7241   24.7131   18.7388 C   0  0  0  0  0  0  0  0  0  0  0  0
    5.5644   24.7247   20.1087 C   0  0  0  0  0  0  0  0  0  0  0  0
    6.5479   25.1774   20.9199 N   0  0  0  0  0  0  0  0  0  0  0  0
    7.7224   25.6009   20.4148 C   0  0  0  0  0  0  0  0  0  0  0  0
    7.9508   25.6015   19.0511 C   0  0  0  0  0  0  0  0  0  0  0  0
    7.0947   26.5556   16.0424 O   0  0  0  0  0  0  0  0  0  0  0  0
    7.1660   25.1674   16.4620 S   0  0  0  0  0  0  0  0  0  0  0  0
    8.3382   24.3676   16.1565 O   0  0  0  0  0  0  0  0  0  0  0  0
    5.7597   24.3242   15.7744 C   0  0  0  0  0  0  0  0  0  0  0  0
    5.9498   23.4088   14.7346 C   0  0  0  0  0  0  0  0  0  0  0  0
    4.8462   22.7548   14.1880 C   0  0  0  0  0  0  0  0  0  0  0  0
    3.5646   23.0219   14.6725 C   0  0  0  0  0  0  0  0  0  0  0  0
    3.3792   23.9493   15.7005 C   0  0  0  0  0  0  0  0  0  0  0  0
    4.4772   24.6087   16.2532 C   0  0  0  0  0  0  0  0  0  0  0  0
    4.4156   24.3057   20.7701 N   0  0  0  0  0  0  0  0  0  0  0  0
    4.5742   24.1737   21.7327 H   0  0  0  0  0  0  0  0  0  0  0  0
    3.1437   24.0349   20.4303 C   0  0  0  0  0  0  0  0  0  0  0  0
    2.1263   23.4878   21.2447 C   0  0  0  0  0  0  0  0  0  0  0  0
    0.9919   23.4161   20.4573 C   0  0  0  0  0  0  0  0  0  0  0  0
    1.3869   23.9399   19.2556 N   0  0  0  0  0  0  0  0  0  0  0  0
    2.6649   24.3403   19.2228 N   0  0  0  0  0  0  0  0  0  0  0  0
    0.7832   24.0157   18.4816 H   0  0  0  0  0  0  0  0  0  0  0  0
   -0.3633   22.9537   20.7438 C   0  0  0  0  0  0  0  0  0  0  0  0
   -0.8906   23.0087   22.0426 C   0  0  0  0  0  0  0  0  0  0  0  0
   -2.1901   22.5631   22.3053 C   0  0  0  0  0  0  0  0  0  0  0  0
   -2.9725   22.0620   21.2690 C   0  0  0  0  0  0  0  0  0  0  0  0
   -4.7289   21.4614   21.6222 Br  0  0  0  0  0  0  0  0  0  0  0  0
   -2.4686   22.0033   19.9723 C   0  0  0  0  0  0  0  0  0  0  0  0
   -1.1693   22.4494   19.7125 C   0  0  0  0  0  0  0  0  0  0  0  0
    8.7284   26.0938   21.2490 N   0  0  0  0  0  0  0  0  0  0  0  0
    9.4985   25.5226   21.4726 H   0  0  0  0  0  0  0  0  0  0  0  0
    8.6505   27.4550   21.7967 C   0  0  0  0  0  0  0  0  0  0  0  0
    8.8726   27.4784   23.3151 C   0  0  0  0  0  0  0  0  0  0  0  0
    8.7642   28.8997   23.8595 C   0  0  0  0  0  0  0  0  0  0  0  0
    9.6472   29.9033   23.1088 C   0  0  0  0  0  0  0  0  0  0  0  0
    8.8220   30.9629   22.6201 O   0  0  0  0  0  0  0  0  0  0  0  0
   10.4036   29.3056   21.9241 C   0  0  0  0  0  0  0  0  0  0  0  0
    9.4937   28.4764   21.0170 C   0  0  0  0  0  0  0  0  0  0  0  0
    8.1756   30.6056   21.9912 H   0  0  0  0  0  0  0  0  0  0  0  0
  7  8  2  0
  8  9  2  0
  8 10  1  0
 10 11  2  0
 11 12  1  0
 12 13  2  0
 13 14  1  0
 14 15  2  0
  8  1  1  0
  1  2  2  0
  2  3  1  0
  3 16  1  0
 16 18  1  0
 18 19  1  0
 19 20  2  0
 20 24  1  0
 24 25  2  0
 25 26  1  0
 26 27  2  0
 27 28  1  0
 27 29  1  0
 29 30  2  0
 20 21  1  0
 21 22  1  0
  3  4  2  0
  4  5  1  0
  5 31  1  0
 33 31  1  0
 33 34  1  0
 34 35  1  0
 35 36  1  0
 36 37  1  0
 36 38  1  0
 38 39  1  0
  5  6  2  0
 15 10  1  0
  6  1  1  0
 22 18  2  0
 39 33  1  0
 30 24  1  0
 16 17  1  0
 21 23  1  0
 31 32  1  0
 37 40  1  0
M  END
> <minimizedAffinity>
-7.74911

> <CNNscore>
0.1444588602

> <CNNaffinity>
6.4425663948

> <CNN_VS>
0.9306858182

> <CNNaffinity_variance>
0.2859076262

$$$$



 40 44  0  0  0  0  0  0  0  0999 V2000
    7.8716   26.5070   20.3255 C   0  0  0  0  0  0  0  0  0  0  0  0
    6.6814   26.0810   20.9056 C   0  0  0  0  0  0  0  0  0  0  0  0
    6.1605   24.8683   20.5053 C   0  0  0  0  0  0  0  0  0  0  0  0
    6.8077   24.0977   19.6010 N   0  0  0  0  0  0  0  0  0  0  0  0
    7.9633   24.5068   19.0431 C   0  0  0  0  0  0  0  0  0  0  0  0
    8.5308   25.7185   19.3914 C   0  0  0  0  0  0  0  0  0  0  0  0
    9.8980   28.1282   20.2332 O   0  0  0  0  0  0  0  0  0  0  0  0
    8.5802   28.0455   20.8372 S   0  0  0  0  0  0  0  0  0  0  0  0
    7.5971   29.0868   20.5994 O   0  0  0  0  0  0  0  0  0  0  0  0
    8.8013   27.9224   22.5972 C   0  0  0  0  0  0  0  0  0  0  0  0
    8.3583   28.9637   23.4185 C   0  0  0  0  0  0  0  0  0  0  0  0
    8.5406   28.8726   24.7980 C   0  0  0  0  0  0  0  0  0  0  0  0
    9.1683   27.7534   25.3477 C   0  0  0  0  0  0  0  0  0  0  0  0
    9.6230   26.7236   24.5207 C   0  0  0  0  0  0  0  0  0  0  0  0
    9.4454   26.8062   23.1396 C   0  0  0  0  0  0  0  0  0  0  0  0
    4.9732   24.3260   20.9835 N   0  0  0  0  0  0  0  0  0  0  0  0
    5.0680   23.9898   21.9040 H   0  0  0  0  0  0  0  0  0  0  0  0
    3.7287   24.1436   20.5096 C   0  0  0  0  0  0  0  0  0  0  0  0
    2.5748   23.7578   21.2288 C   0  0  0  0  0  0  0  0  0  0  0  0
    1.5378   23.7245   20.3147 C   0  0  0  0  0  0  0  0  0  0  0  0
    2.1191   24.1115   19.1371 N   0  0  0  0  0  0  0  0  0  0  0  0
    3.4256   24.3918   19.2339 N   0  0  0  0  0  0  0  0  0  0  0  0
    1.6196   24.1782   18.2913 H   0  0  0  0  0  0  0  0  0  0  0  0
    0.1195   23.4101   20.4638 C   0  0  0  0  0  0  0  0  0  0  0  0
   -0.7306   23.3415   19.3500 C   0  0  0  0  0  0  0  0  0  0  0  0
   -2.0875   23.0394   19.5047 C   0  0  0  0  0  0  0  0  0  0  0  0
   -2.6027   22.8006   20.7755 C   0  0  0  0  0  0  0  0  0  0  0  0
   -4.4352   22.3906   20.9857 Br  0  0  0  0  0  0  0  0  0  0  0  0
   -1.7741   22.8598   21.8929 C   0  0  0  0  0  0  0  0  0  0  0  0
   -0.4181   23.1620   21.7354 C   0  0  0  0  0  0  0  0  0  0  0  0
    8.6462   23.7004   18.1298 N   0  0  0  0  0  0  0  0  0  0  0  0
    9.5162   23.3125   18.3786 H   0  0  0  0  0  0  0  0  0  0  0  0
    8.0810   23.4244   16.8019 C   0  0  0  0  0  0  0  0  0  0  0  0
    6.9210   22.4215   16.8668 C   0  0  0  0  0  0  0  0  0  0  0  0
    6.3687   22.1369   15.4733 C   0  0  0  0  0  0  0  0  0  0  0  0
    6.0192   23.4079   14.6905 C   0  0  0  0  0  0  0  0  0  0  0  0
    6.7366   23.3961   13.4545 O   0  0  0  0  0  0  0  0  0  0  0  0
    6.3567   24.7050   15.4230 C   0  0  0  0  0  0  0  0  0  0  0  0
    7.7761   24.6945   15.9917 C   0  0  0  0  0  0  0  0  0  0  0  0
    7.6898   23.4088   13.6338 H   0  0  0  0  0  0  0  0  0  0  0  0
  7  8  2  0
  8  9  2  0
  8 10  1  0
 10 11  2  0
 11 12  1  0
 12 13  2  0
 13 14  1  0
 14 15  2  0
  8  1  1  0
  1  2  2  0
  2  3  1  0
  3 16  1  0
 16 18  1  0
 18 19  1  0
 19 20  2  0
 20 24  1  0
 24 25  2  0
 25 26  1  0
 26 27  2  0
 27 28  1  0
 27 29  1  0
 29 30  2  0
 20 21  1  0
 21 22  1  0
  3  4  2  0
  4  5  1  0
  5 31  1  0
 33 31  1  0
 33 34  1  0
 34 35  1  0
 35 36  1  0
 36 37  1  0
 36 38  1  0
 38 39  1  0
  5  6  2  0
 15 10  1  0
  6  1  1  0
 22 18  2  0
 39 33  1  0
 30 24  1  0
 16 17  1  0
 21 23  1  0
 31 32  1  0
 37 40  1  0
M  END
> <minimizedAffinity>
-8.85536

> <CNNscore>
0.1302848458

> <CNNaffinity>
6.1400218010

> <CNN_VS>
0.7999517918

> <CNNaffinity_variance>
0.6564836502

$$$$



 40 44  0  0  0  0  0  0  0  0999 V2000
    2.9266   24.0532   20.2740 C   0  0  0  0  0  0  0  0  0  0  0  0
    2.5037   23.9133   18.9563 C   0  0  0  0  0  0  0  0  0  0  0  0
    3.1996   24.5878   17.9750 C   0  0  0  0  0  0  0  0  0  0  0  0
    4.2851   25.3352   18.2808 N   0  0  0  0  0  0  0  0  0  0  0  0
    4.6988   25.4665   19.5557 C   0  0  0  0  0  0  0  0  0  0  0  0
    4.0363   24.8272   20.5874 C   0  0  0  0  0  0  0  0  0  0  0  0
    2.4959   21.7928   21.4772 O   0  0  0  0  0  0  0  0  0  0  0  0
    2.0718   23.1793   21.5533 S   0  0  0  0  0  0  0  0  0  0  0  0
    2.2324   23.9295   22.7856 O   0  0  0  0  0  0  0  0  0  0  0  0
    0.3481   23.2397   21.1211 C   0  0  0  0  0  0  0  0  0  0  0  0
   -0.0265   23.7123   19.8595 C   0  0  0  0  0  0  0  0  0  0  0  0
   -1.3787   23.7696   19.5237 C   0  0  0  0  0  0  0  0  0  0  0  0
   -2.3457   23.3656   20.4458 C   0  0  0  0  0  0  0  0  0  0  0  0
   -1.9663   22.9094   21.7104 C   0  0  0  0  0  0  0  0  0  0  0  0
   -0.6160   22.8490   22.0554 C   0  0  0  0  0  0  0  0  0  0  0  0
    2.8809   24.5565   16.6222 N   0  0  0  0  0  0  0  0  0  0  0  0
    3.2286   25.3444   16.1451 H   0  0  0  0  0  0  0  0  0  0  0  0
    2.2190   23.7249   15.7995 C   0  0  0  0  0  0  0  0  0  0  0  0
    0.8483   23.3818   15.8323 C   0  0  0  0  0  0  0  0  0  0  0  0
    0.6375   22.5137   14.7768 C   0  0  0  0  0  0  0  0  0  0  0  0
    1.8636   22.4166   14.1754 N   0  0  0  0  0  0  0  0  0  0  0  0
    2.8213   23.1524   14.7553 N   0  0  0  0  0  0  0  0  0  0  0  0
    2.0275   21.8540   13.3843 H   0  0  0  0  0  0  0  0  0  0  0  0
   -0.5655   21.8380   14.2985 C   0  0  0  0  0  0  0  0  0  0  0  0
   -1.1183   20.7558   14.9993 C   0  0  0  0  0  0  0  0  0  0  0  0
   -2.2711   20.1163   14.5319 C   0  0  0  0  0  0  0  0  0  0  0  0
   -2.8807   20.5576   13.3610 C   0  0  0  0  0  0  0  0  0  0  0  0
   -4.4392   19.6956   12.7294 Br  0  0  0  0  0  0  0  0  0  0  0  0
   -2.3497   21.6329   12.6536 C   0  0  0  0  0  0  0  0  0  0  0  0
   -1.1973   22.2703   13.1231 C   0  0  0  0  0  0  0  0  0  0  0  0
    5.8349   26.2157   19.8698 N   0  0  0  0  0  0  0  0  0  0  0  0
    5.7552   26.9928   20.4690 H   0  0  0  0  0  0  0  0  0  0  0  0
    7.1480   25.8572   19.3161 C   0  0  0  0  0  0  0  0  0  0  0  0
    7.3970   24.3433   19.3585 C   0  0  0  0  0  0  0  0  0  0  0  0
    8.7748   24.0023   18.7988 C   0  0  0  0  0  0  0  0  0  0  0  0
    9.0342   24.6141   17.4172 C   0  0  0  0  0  0  0  0  0  0  0  0
   10.2219   25.4062   17.4830 O   0  0  0  0  0  0  0  0  0  0  0  0
    7.9007   25.4998   16.9037 C   0  0  0  0  0  0  0  0  0  0  0  0
    7.4352   26.5088   17.9541 C   0  0  0  0  0  0  0  0  0  0  0  0
   10.0912   26.1334   18.1115 H   0  0  0  0  0  0  0  0  0  0  0  0
  7  8  2  0
  8  9  2  0
  8 10  1  0
 10 11  2  0
 11 12  1  0
 12 13  2  0
 13 14  1  0
 14 15  2  0
  8  1  1  0
  1  2  2  0
  2  3  1  0
  3 16  1  0
 16 18  1  0
 18 19  1  0
 19 20  2  0
 20 24  1  0
 24 25  2  0
 25 26  1  0
 26 27  2  0
 27 28  1  0
 27 29  1  0
 29 30  2  0
 20 21  1  0
 21 22  1  0
  3  4  2  0
  4  5  1  0
  5 31  1  0
 33 31  1  0
 33 34  1  0
 34 35  1  0
 35 36  1  0
 36 37  1  0
 36 38  1  0
 38 39  1  0
  5  6  2  0
 15 10  1  0
  6  1  1  0
 22 18  2  0
 39 33  1  0
 30 24  1  0
 16 17  1  0
 21 23  1  0
 31 32  1  0
 37 40  1  0
M  END
> <minimizedAffinity>
-7.68831

> <CNNscore>
0.1295212209

> <CNNaffinity>
6.4774413109

> <CNN_VS>
0.8389661312

> <CNNaffinity_variance>
0.2642739713

$$$$



 40 44  0  0  0  0  0  0  0  0999 V2000
    7.9078   24.7467   18.1462 C   0  0  0  0  0  0  0  0  0  0  0  0
    6.6649   24.3698   18.6440 C   0  0  0  0  0  0  0  0  0  0  0  0
    6.3125   24.7992   19.9063 C   0  0  0  0  0  0  0  0  0  0  0  0
    7.1370   25.5950   20.6257 N   0  0  0  0  0  0  0  0  0  0  0  0
    8.3382   25.9653   20.1422 C   0  0  0  0  0  0  0  0  0  0  0  0
    8.7565   25.5570   18.8892 C   0  0  0  0  0  0  0  0  0  0  0  0
    7.1542   23.9496   15.7926 O   0  0  0  0  0  0  0  0  0  0  0  0
    8.3786   24.2347   16.5192 S   0  0  0  0  0  0  0  0  0  0  0  0
    9.3272   25.2064   16.0062 O   0  0  0  0  0  0  0  0  0  0  0  0
    9.2542   22.7005   16.7220 C   0  0  0  0  0  0  0  0  0  0  0  0
    8.7390   21.5355   16.1454 C   0  0  0  0  0  0  0  0  0  0  0  0
    9.4197   20.3300   16.3126 C   0  0  0  0  0  0  0  0  0  0  0  0
   10.5998   20.2911   17.0573 C   0  0  0  0  0  0  0  0  0  0  0  0
   11.1011   21.4552   17.6443 C   0  0  0  0  0  0  0  0  0  0  0  0
   10.4268   22.6657   17.4828 C   0  0  0  0  0  0  0  0  0  0  0  0
    5.1142   24.4859   20.5377 N   0  0  0  0  0  0  0  0  0  0  0  0
    5.2324   24.3596   21.5069 H   0  0  0  0  0  0  0  0  0  0  0  0
    3.8355   24.3115   20.1623 C   0  0  0  0  0  0  0  0  0  0  0  0
    2.7373   23.9405   20.9709 C   0  0  0  0  0  0  0  0  0  0  0  0
    1.6327   23.9104   20.1396 C   0  0  0  0  0  0  0  0  0  0  0  0
    2.1248   24.2848   18.9180 N   0  0  0  0  0  0  0  0  0  0  0  0
    3.4371   24.5541   18.9120 N   0  0  0  0  0  0  0  0  0  0  0  0
    1.5622   24.3504   18.1127 H   0  0  0  0  0  0  0  0  0  0  0  0
    0.2275   23.6096   20.3996 C   0  0  0  0  0  0  0  0  0  0  0  0
   -0.7490   23.7865   19.4082 C   0  0  0  0  0  0  0  0  0  0  0  0
   -2.0920   23.4950   19.6685 C   0  0  0  0  0  0  0  0  0  0  0  0
   -2.4667   23.0210   20.9224 C   0  0  0  0  0  0  0  0  0  0  0  0
   -4.2804   22.6250   21.2748 Br  0  0  0  0  0  0  0  0  0  0  0  0
   -1.5115   22.8346   21.9182 C   0  0  0  0  0  0  0  0  0  0  0  0
   -0.1698   23.1269   21.6553 C   0  0  0  0  0  0  0  0  0  0  0  0
    9.1787   26.8086   20.8724 N   0  0  0  0  0  0  0  0  0  0  0  0
    9.6152   26.4729   21.6885 H   0  0  0  0  0  0  0  0  0  0  0  0
    9.4189   28.1910   20.4363 C   0  0  0  0  0  0  0  0  0  0  0  0
   10.6386   28.2993   19.5109 C   0  0  0  0  0  0  0  0  0  0  0  0
   10.8776   29.7469   19.0921 C   0  0  0  0  0  0  0  0  0  0  0  0
    9.6275   30.4241   18.5182 C   0  0  0  0  0  0  0  0  0  0  0  0
    9.3588   31.6060   19.2755 O   0  0  0  0  0  0  0  0  0  0  0  0
    8.3759   29.5491   18.5437 C   0  0  0  0  0  0  0  0  0  0  0  0
    8.1579   28.8926   19.9074 C   0  0  0  0  0  0  0  0  0  0  0  0
    9.1712   31.3645   20.1961 H   0  0  0  0  0  0  0  0  0  0  0  0
  7  8  2  0
  8  9  2  0
  8 10  1  0
 10 11  2  0
 11 12  1  0
 12 13  2  0
 13 14  1  0
 14 15  2  0
  8  1  1  0
  1  2  2  0
  2  3  1  0
  3 16  1  0
 16 18  1  0
 18 19  1  0
 19 20  2  0
 20 24  1  0
 24 25  2  0
 25 26  1  0
 26 27  2  0
 27 28  1  0
 27 29  1  0
 29 30  2  0
 20 21  1  0
 21 22  1  0
  3  4  2  0
  4  5  1  0
  5 31  1  0
 33 31  1  0
 33 34  1  0
 34 35  1  0
 35 36  1  0
 36 37  1  0
 36 38  1  0
 38 39  1  0
  5  6  2  0
 15 10  1  0
  6  1  1  0
 22 18  2  0
 39 33  1  0
 30 24  1  0
 16 17  1  0
 21 23  1  0
 31 32  1  0
 37 40  1  0
M  END
> <minimizedAffinity>
-7.98983

> <CNNscore>
0.1023534313

> <CNNaffinity>
5.9524521828

> <CNN_VS>
0.6092538834

> <CNNaffinity_variance>
0.3918829262

$$$$
