


 20 20  0  0  0  0  0  0  0  0999 V2000
   83.8123   37.2246   35.7902 C   0  0  0  0  0  0  0  0  0  0  0  0
   83.2791   38.5540   35.4571 N   0  0  0  0  0  0  0  0  0  0  0  0
   82.3210   38.4612   35.1196 H   0  0  0  0  0  0  0  0  0  0  0  0
   83.8556   38.9795   34.7312 H   0  0  0  0  0  0  0  0  0  0  0  0
   83.9157   36.3313   34.5291 C   0  0  0  0  0  0  0  0  0  0  0  0
   82.6684   35.8862   33.6912 C   0  0  0  0  0  0  0  0  0  0  0  0
   82.9430   36.0217   32.1797 C   0  0  0  0  0  0  0  0  0  0  0  0
   81.5392   36.8904   34.0359 C   0  0  0  0  0  0  0  0  0  0  0  0
   82.2196   34.4422   34.0359 C   0  0  0  0  0  0  0  0  0  0  0  0
   79.9515   33.9914   35.0421 C   0  0  0  0  0  0  0  0  0  0  0  0
   81.4182   34.2772   35.3345 C   0  0  0  0  0  0  0  0  0  0  0  0
   83.0882   36.5691   36.9823 C   0  0  0  0  0  0  0  0  0  0  0  0
   84.0055   36.1950   38.0959 C   0  0  0  0  0  0  0  0  0  0  0  0
   84.2398   34.9263   38.6402 C   0  0  0  0  0  0  0  0  0  0  0  0
   83.6946   33.7558   38.3079 O   0  0  0  0  0  0  0  0  0  0  0  0
   85.1210   34.9072   39.6308 N   0  0  0  0  0  0  0  0  0  0  0  0
   85.5089   36.2363   39.7649 O   0  0  0  0  0  0  0  0  0  0  0  0
   84.8389   36.9972   38.8501 C   0  0  0  0  0  0  0  0  0  0  0  0
   85.1429   38.4403   38.8676 C   0  0  0  0  0  0  0  0  0  0  0  0
   83.0658   33.7118   37.6146 H   0  0  0  0  0  0  0  0  0  0  0  0
 10 11  1  0
 11  9  1  0
  9  6  1  0
  6  7  1  0
  6  8  1  0
  6  5  1  0
  5  1  1  0
  1  2  1  0
  1 12  1  0
 12 13  1  0
 13 14  1  0
 14 15  1  0
 14 16  2  0
 16 17  1  0
 17 18  1  0
 18 19  1  0
 18 13  2  0
  2  3  1  0
  2  4  1  0
 15 20  1  0
M  END
> <minimizedAffinity>
-4.82786

> <CNNscore>
0.2441246510

> <CNNaffinity>
3.7810058594

> <CNN_VS>
0.9230367541

> <CNNaffinity_variance>
1.0192813873

$$$$



 20 20  0  0  0  0  0  0  0  0999 V2000
   82.6168   36.2990   37.0878 C   0  0  0  0  0  0  0  0  0  0  0  0
   82.6954   35.7799   38.4614 N   0  0  0  0  0  0  0  0  0  0  0  0
   83.6123   35.3599   38.6142 H   0  0  0  0  0  0  0  0  0  0  0  0
   81.9712   35.0752   38.6006 H   0  0  0  0  0  0  0  0  0  0  0  0
   82.7112   35.1526   36.0504 C   0  0  0  0  0  0  0  0  0  0  0  0
   81.7744   35.0528   34.7979 C   0  0  0  0  0  0  0  0  0  0  0  0
   81.3592   36.4547   34.3073 C   0  0  0  0  0  0  0  0  0  0  0  0
   80.4840   34.3443   35.2825 C   0  0  0  0  0  0  0  0  0  0  0  0
   82.4252   34.2434   33.6461 C   0  0  0  0  0  0  0  0  0  0  0  0
   84.4471   34.7201   32.2162 C   0  0  0  0  0  0  0  0  0  0  0  0
   82.9874   35.0655   32.4783 C   0  0  0  0  0  0  0  0  0  0  0  0
   83.5814   37.4739   36.8341 C   0  0  0  0  0  0  0  0  0  0  0  0
   84.1598   38.0422   38.0848 C   0  0  0  0  0  0  0  0  0  0  0  0
   83.4948   38.6846   39.1363 C   0  0  0  0  0  0  0  0  0  0  0  0
   82.1958   38.9547   39.2686 O   0  0  0  0  0  0  0  0  0  0  0  0
   84.2843   39.0832   40.1242 N   0  0  0  0  0  0  0  0  0  0  0  0
   85.5559   38.6870   39.7226 O   0  0  0  0  0  0  0  0  0  0  0  0
   85.4744   38.0707   38.5068 C   0  0  0  0  0  0  0  0  0  0  0  0
   86.7496   37.5912   37.9419 C   0  0  0  0  0  0  0  0  0  0  0  0
   81.5929   38.6954   38.5999 H   0  0  0  0  0  0  0  0  0  0  0  0
 10 11  1  0
 11  9  1  0
  9  6  1  0
  6  7  1  0
  6  8  1  0
  6  5  1  0
  5  1  1  0
  1  2  1  0
  1 12  1  0
 12 13  1  0
 13 14  1  0
 14 15  1  0
 14 16  2  0
 16 17  1  0
 17 18  1  0
 18 19  1  0
 18 13  2  0
  2  3  1  0
  2  4  1  0
 15 20  1  0
M  END
> <minimizedAffinity>
-5.44886

> <CNNscore>
0.2351090461

> <CNNaffinity>
4.2132411003

> <CNN_VS>
0.9905710816

> <CNNaffinity_variance>
0.2158297747

$$$$



 20 20  0  0  0  0  0  0  0  0999 V2000
   83.4440   36.4635   36.8993 C   0  0  0  0  0  0  0  0  0  0  0  0
   82.3132   36.1788   37.7951 N   0  0  0  0  0  0  0  0  0  0  0  0
   81.8323   37.0490   38.0227 H   0  0  0  0  0  0  0  0  0  0  0  0
   82.6588   35.7471   38.6522 H   0  0  0  0  0  0  0  0  0  0  0  0
   84.5099   37.3386   37.6046 C   0  0  0  0  0  0  0  0  0  0  0  0
   85.4970   36.7793   38.6856 C   0  0  0  0  0  0  0  0  0  0  0  0
   86.9446   36.7623   38.1538 C   0  0  0  0  0  0  0  0  0  0  0  0
   85.0856   35.3036   38.9202 C   0  0  0  0  0  0  0  0  0  0  0  0
   85.4150   37.5724   40.0160 C   0  0  0  0  0  0  0  0  0  0  0  0
   86.7241   36.7104   41.9917 C   0  0  0  0  0  0  0  0  0  0  0  0
   86.7193   37.6803   40.8179 C   0  0  0  0  0  0  0  0  0  0  0  0
   82.9994   36.9838   35.5184 C   0  0  0  0  0  0  0  0  0  0  0  0
   83.0211   35.9359   34.4587 C   0  0  0  0  0  0  0  0  0  0  0  0
   83.8585   35.8482   33.3398 C   0  0  0  0  0  0  0  0  0  0  0  0
   84.8228   36.6801   32.9450 O   0  0  0  0  0  0  0  0  0  0  0  0
   83.6400   34.7902   32.5710 N   0  0  0  0  0  0  0  0  0  0  0  0
   82.5983   34.1205   33.2045 O   0  0  0  0  0  0  0  0  0  0  0  0
   82.2333   34.8095   34.3255 C   0  0  0  0  0  0  0  0  0  0  0  0
   81.1315   34.2228   35.1110 C   0  0  0  0  0  0  0  0  0  0  0  0
   85.0192   37.4437   33.4512 H   0  0  0  0  0  0  0  0  0  0  0  0
 10 11  1  0
 11  9  1  0
  9  6  1  0
  6  7  1  0
  6  8  1  0
  6  5  1  0
  5  1  1  0
  1  2  1  0
  1 12  1  0
 12 13  1  0
 13 14  1  0
 14 15  1  0
 14 16  2  0
 16 17  1  0
 17 18  1  0
 18 19  1  0
 18 13  2  0
  2  3  1  0
  2  4  1  0
 15 20  1  0
M  END
> <minimizedAffinity>
-4.45674

> <CNNscore>
0.2147051990

> <CNNaffinity>
4.2857155800

> <CNN_VS>
0.9201654196

> <CNNaffinity_variance>
0.5969665647

$$$$



 20 20  0  0  0  0  0  0  0  0999 V2000
   78.1627   25.5378   39.6942 C   0  0  0  0  0  0  0  0  0  0  0  0
   79.0000   24.6911   38.8313 N   0  0  0  0  0  0  0  0  0  0  0  0
   79.6243   25.2798   38.2800 H   0  0  0  0  0  0  0  0  0  0  0  0
   78.4041   24.1484   38.2061 H   0  0  0  0  0  0  0  0  0  0  0  0
   77.2253   26.4395   38.8530 C   0  0  0  0  0  0  0  0  0  0  0  0
   77.5905   27.9077   38.4444 C   0  0  0  0  0  0  0  0  0  0  0  0
   76.4877   28.5240   37.5599 C   0  0  0  0  0  0  0  0  0  0  0  0
   78.8655   27.8052   37.5692 C   0  0  0  0  0  0  0  0  0  0  0  0
   77.8636   28.8057   39.6791 C   0  0  0  0  0  0  0  0  0  0  0  0
   75.9713   30.3563   40.2915 C   0  0  0  0  0  0  0  0  0  0  0  0
   76.6716   29.0438   40.6163 C   0  0  0  0  0  0  0  0  0  0  0  0
   78.9737   26.2846   40.7711 C   0  0  0  0  0  0  0  0  0  0  0  0
   78.5965   25.9048   42.1621 C   0  0  0  0  0  0  0  0  0  0  0  0
   77.3148   25.7800   42.7119 C   0  0  0  0  0  0  0  0  0  0  0  0
   76.1298   25.9818   42.1349 O   0  0  0  0  0  0  0  0  0  0  0  0
   77.2965   25.4217   43.9884 N   0  0  0  0  0  0  0  0  0  0  0  0
   78.6405   25.2931   44.3234 O   0  0  0  0  0  0  0  0  0  0  0  0
   79.4083   25.5849   43.2326 C   0  0  0  0  0  0  0  0  0  0  0  0
   80.8671   25.4943   43.4298 C   0  0  0  0  0  0  0  0  0  0  0  0
   76.0846   26.2365   41.2343 H   0  0  0  0  0  0  0  0  0  0  0  0
 10 11  1  0
 11  9  1  0
  9  6  1  0
  6  7  1  0
  6  8  1  0
  6  5  1  0
  5  1  1  0
  1  2  1  0
  1 12  1  0
 12 13  1  0
 13 14  1  0
 14 15  1  0
 14 16  2  0
 16 17  1  0
 17 18  1  0
 18 19  1  0
 18 13  2  0
  2  3  1  0
  2  4  1  0
 15 20  1  0
M  END
> <minimizedAffinity>
-6.37816

> <CNNscore>
0.2099228054

> <CNNaffinity>
5.2453761101

> <CNN_VS>
1.1011240482

> <CNNaffinity_variance>
0.3404622376

$$$$



 20 20  0  0  0  0  0  0  0  0999 V2000
   77.4614   26.0039   40.3136 C   0  0  0  0  0  0  0  0  0  0  0  0
   78.6301   25.1165   40.2171 N   0  0  0  0  0  0  0  0  0  0  0  0
   79.4452   25.6579   39.9290 H   0  0  0  0  0  0  0  0  0  0  0  0
   78.4466   24.3862   39.5291 H   0  0  0  0  0  0  0  0  0  0  0  0
   77.0866   26.5878   38.9288 C   0  0  0  0  0  0  0  0  0  0  0  0
   77.3221   28.0877   38.5405 C   0  0  0  0  0  0  0  0  0  0  0  0
   77.9337   28.2021   37.1294 C   0  0  0  0  0  0  0  0  0  0  0  0
   78.3806   28.6276   39.5356 C   0  0  0  0  0  0  0  0  0  0  0  0
   76.0216   28.9269   38.6401 C   0  0  0  0  0  0  0  0  0  0  0  0
   75.9319   29.8445   40.9874 C   0  0  0  0  0  0  0  0  0  0  0  0
   76.0976   30.1870   39.5131 C   0  0  0  0  0  0  0  0  0  0  0  0
   77.5945   27.0514   41.4362 C   0  0  0  0  0  0  0  0  0  0  0  0
   77.1828   26.5380   42.7735 C   0  0  0  0  0  0  0  0  0  0  0  0
   75.9669   26.7285   43.4411 C   0  0  0  0  0  0  0  0  0  0  0  0
   74.8951   27.4207   43.0537 O   0  0  0  0  0  0  0  0  0  0  0  0
   75.8931   26.1410   44.6276 N   0  0  0  0  0  0  0  0  0  0  0  0
   77.1264   25.5142   44.7725 O   0  0  0  0  0  0  0  0  0  0  0  0
   77.8897   25.7572   43.6666 C   0  0  0  0  0  0  0  0  0  0  0  0
   79.2366   25.1562   43.6699 C   0  0  0  0  0  0  0  0  0  0  0  0
   74.8933   27.8559   42.2239 H   0  0  0  0  0  0  0  0  0  0  0  0
 10 11  1  0
 11  9  1  0
  9  6  1  0
  6  7  1  0
  6  8  1  0
  6  5  1  0
  5  1  1  0
  1  2  1  0
  1 12  1  0
 12 13  1  0
 13 14  1  0
 14 15  1  0
 14 16  2  0
 16 17  1  0
 17 18  1  0
 18 19  1  0
 18 13  2  0
  2  3  1  0
  2  4  1  0
 15 20  1  0
M  END
> <minimizedAffinity>
-7.18233

> <CNNscore>
0.1844140589

> <CNNaffinity>
5.2667365074

> <CNN_VS>
0.9712602496

> <CNNaffinity_variance>
0.0026932445

$$$$



 20 20  0  0  0  0  0  0  0  0999 V2000
   83.0967   38.1089   34.3132 C   0  0  0  0  0  0  0  0  0  0  0  0
   84.1152   38.4428   33.3064 N   0  0  0  0  0  0  0  0  0  0  0  0
   84.4780   37.5842   32.8920 H   0  0  0  0  0  0  0  0  0  0  0  0
   84.8776   38.9545   33.7507 H   0  0  0  0  0  0  0  0  0  0  0  0
   83.7157   37.3228   35.4956 C   0  0  0  0  0  0  0  0  0  0  0  0
   84.4393   38.0178   36.6996 C   0  0  0  0  0  0  0  0  0  0  0  0
   84.3698   39.5532   36.5724 C   0  0  0  0  0  0  0  0  0  0  0  0
   85.9339   37.6234   36.5877 C   0  0  0  0  0  0  0  0  0  0  0  0
   83.8687   37.5582   38.0666 C   0  0  0  0  0  0  0  0  0  0  0  0
   84.0474   35.1263   38.7099 C   0  0  0  0  0  0  0  0  0  0  0  0
   83.1645   36.1945   38.0791 C   0  0  0  0  0  0  0  0  0  0  0  0
   81.8385   37.4617   33.7022 C   0  0  0  0  0  0  0  0  0  0  0  0
   82.0316   37.0114   32.2945 C   0  0  0  0  0  0  0  0  0  0  0  0
   81.5982   37.6315   31.1163 C   0  0  0  0  0  0  0  0  0  0  0  0
   80.9015   38.7586   30.9673 O   0  0  0  0  0  0  0  0  0  0  0  0
   81.9253   36.9882   30.0039 N   0  0  0  0  0  0  0  0  0  0  0  0
   82.6222   35.8706   30.4514 O   0  0  0  0  0  0  0  0  0  0  0  0
   82.6790   35.8895   31.8156 C   0  0  0  0  0  0  0  0  0  0  0  0
   83.3897   34.7612   32.4456 C   0  0  0  0  0  0  0  0  0  0  0  0
   80.6440   39.2532   31.7203 H   0  0  0  0  0  0  0  0  0  0  0  0
 10 11  1  0
 11  9  1  0
  9  6  1  0
  6  7  1  0
  6  8  1  0
  6  5  1  0
  5  1  1  0
  1  2  1  0
  1 12  1  0
 12 13  1  0
 13 14  1  0
 14 15  1  0
 14 16  2  0
 16 17  1  0
 17 18  1  0
 18 19  1  0
 18 13  2  0
  2  3  1  0
  2  4  1  0
 15 20  1  0
M  END
> <minimizedAffinity>
-4.58079

> <CNNscore>
0.1842613220

> <CNNaffinity>
3.9838860035

> <CNN_VS>
0.7340760827

> <CNNaffinity_variance>
0.3008869886

$$$$



 20 20  0  0  0  0  0  0  0  0999 V2000
   86.0329   36.0678   40.7878 C   0  0  0  0  0  0  0  0  0  0  0  0
   86.3178   37.5025   40.9391 N   0  0  0  0  0  0  0  0  0  0  0  0
   87.2770   37.6912   40.6480 H   0  0  0  0  0  0  0  0  0  0  0  0
   86.1998   37.7714   41.9159 H   0  0  0  0  0  0  0  0  0  0  0  0
   86.9148   35.2192   41.7372 C   0  0  0  0  0  0  0  0  0  0  0  0
   86.4264   34.7190   43.1398 C   0  0  0  0  0  0  0  0  0  0  0  0
   87.3789   33.6454   43.7043 C   0  0  0  0  0  0  0  0  0  0  0  0
   85.0608   34.0273   42.8972 C   0  0  0  0  0  0  0  0  0  0  0  0
   86.2603   35.8847   44.1492 C   0  0  0  0  0  0  0  0  0  0  0  0
   87.4025   37.5516   45.6582 C   0  0  0  0  0  0  0  0  0  0  0  0
   87.4860   36.7879   44.3435 C   0  0  0  0  0  0  0  0  0  0  0  0
   86.0449   35.6054   39.3177 C   0  0  0  0  0  0  0  0  0  0  0  0
   85.1349   36.3980   38.4430 C   0  0  0  0  0  0  0  0  0  0  0  0
   83.7467   36.2821   38.3010 C   0  0  0  0  0  0  0  0  0  0  0  0
   82.9091   35.4333   38.8976 O   0  0  0  0  0  0  0  0  0  0  0  0
   83.2088   37.1357   37.4407 N   0  0  0  0  0  0  0  0  0  0  0  0
   84.2915   37.8744   36.9746 O   0  0  0  0  0  0  0  0  0  0  0  0
   85.4347   37.4279   37.5733 C   0  0  0  0  0  0  0  0  0  0  0  0
   86.6783   38.1157   37.1788 C   0  0  0  0  0  0  0  0  0  0  0  0
   83.2360   34.8085   39.5146 H   0  0  0  0  0  0  0  0  0  0  0  0
 10 11  1  0
 11  9  1  0
  9  6  1  0
  6  7  1  0
  6  8  1  0
  6  5  1  0
  5  1  1  0
  1  2  1  0
  1 12  1  0
 12 13  1  0
 13 14  1  0
 14 15  1  0
 14 16  2  0
 16 17  1  0
 17 18  1  0
 18 19  1  0
 18 13  2  0
  2  3  1  0
  2  4  1  0
 15 20  1  0
M  END
> <minimizedAffinity>
-4.15881

> <CNNscore>
0.1758663952

> <CNNaffinity>
3.5714290142

> <CNN_VS>
0.6280943751

> <CNNaffinity_variance>
0.6991693974

$$$$



 20 20  0  0  0  0  0  0  0  0999 V2000
   86.6165   36.0835   40.1953 C   0  0  0  0  0  0  0  0  0  0  0  0
   88.0706   36.1676   39.9934 N   0  0  0  0  0  0  0  0  0  0  0  0
   88.3871   35.3582   39.4594 H   0  0  0  0  0  0  0  0  0  0  0  0
   88.5394   36.1817   40.8992 H   0  0  0  0  0  0  0  0  0  0  0  0
   86.2425   34.8575   41.0650 C   0  0  0  0  0  0  0  0  0  0  0  0
   86.5164   34.7863   42.6064 C   0  0  0  0  0  0  0  0  0  0  0  0
   85.3946   34.0144   43.3304 C   0  0  0  0  0  0  0  0  0  0  0  0
   86.4618   36.2476   43.1200 C   0  0  0  0  0  0  0  0  0  0  0  0
   87.9000   34.1620   42.9245 C   0  0  0  0  0  0  0  0  0  0  0  0
   88.9500   33.0489   44.9292 C   0  0  0  0  0  0  0  0  0  0  0  0
   87.8895   32.9321   43.8427 C   0  0  0  0  0  0  0  0  0  0  0  0
   85.8202   36.2039   38.8813 C   0  0  0  0  0  0  0  0  0  0  0  0
   84.6868   37.1682   38.9651 C   0  0  0  0  0  0  0  0  0  0  0  0
   84.6294   38.3843   39.6569 C   0  0  0  0  0  0  0  0  0  0  0  0
   85.5609   38.9649   40.4140 O   0  0  0  0  0  0  0  0  0  0  0  0
   83.4766   39.0289   39.5410 N   0  0  0  0  0  0  0  0  0  0  0  0
   82.7093   38.2064   38.7226 O   0  0  0  0  0  0  0  0  0  0  0  0
   83.4349   37.0997   38.3862 C   0  0  0  0  0  0  0  0  0  0  0  0
   82.7530   36.1234   37.5161 C   0  0  0  0  0  0  0  0  0  0  0  0
   86.3942   38.5525   40.5300 H   0  0  0  0  0  0  0  0  0  0  0  0
 10 11  1  0
 11  9  1  0
  9  6  1  0
  6  7  1  0
  6  8  1  0
  6  5  1  0
  5  1  1  0
  1  2  1  0
  1 12  1  0
 12 13  1  0
 13 14  1  0
 14 15  1  0
 14 16  2  0
 16 17  1  0
 17 18  1  0
 18 19  1  0
 18 13  2  0
  2  3  1  0
  2  4  1  0
 15 20  1  0
M  END
> <minimizedAffinity>
-4.31635

> <CNNscore>
0.1555998325

> <CNNaffinity>
3.2436149120

> <CNN_VS>
0.5047059655

> <CNNaffinity_variance>
0.7575165629

$$$$



 20 20  0  0  0  0  0  0  0  0999 V2000
   83.5492   38.2498   33.7468 C   0  0  0  0  0  0  0  0  0  0  0  0
   82.9634   39.3944   34.4604 N   0  0  0  0  0  0  0  0  0  0  0  0
   82.2188   39.0667   35.0755 H   0  0  0  0  0  0  0  0  0  0  0  0
   82.5802   40.0560   33.7852 H   0  0  0  0  0  0  0  0  0  0  0  0
   82.5128   37.5878   32.8051 C   0  0  0  0  0  0  0  0  0  0  0  0
   82.9059   36.8761   31.4654 C   0  0  0  0  0  0  0  0  0  0  0  0
   81.7631   36.9723   30.4343 C   0  0  0  0  0  0  0  0  0  0  0  0
   83.0762   35.3748   31.8108 C   0  0  0  0  0  0  0  0  0  0  0  0
   84.2238   37.4381   30.8715 C   0  0  0  0  0  0  0  0  0  0  0  0
   85.3758   38.4073   28.8482 C   0  0  0  0  0  0  0  0  0  0  0  0
   84.0767   38.3420   29.6399 C   0  0  0  0  0  0  0  0  0  0  0  0
   84.2816   37.2696   34.6838 C   0  0  0  0  0  0  0  0  0  0  0  0
   83.5518   37.0159   35.9584 C   0  0  0  0  0  0  0  0  0  0  0  0
   83.6218   37.7346   37.1581 C   0  0  0  0  0  0  0  0  0  0  0  0
   84.3616   38.8033   37.4552 O   0  0  0  0  0  0  0  0  0  0  0  0
   82.8461   37.2658   38.1259 N   0  0  0  0  0  0  0  0  0  0  0  0
   82.2118   36.1695   37.5507 O   0  0  0  0  0  0  0  0  0  0  0  0
   82.6387   36.0252   36.2617 C   0  0  0  0  0  0  0  0  0  0  0  0
   82.0541   34.8971   35.5129 C   0  0  0  0  0  0  0  0  0  0  0  0
   84.9278   39.1757   36.8082 H   0  0  0  0  0  0  0  0  0  0  0  0
 10 11  1  0
 11  9  1  0
  9  6  1  0
  6  7  1  0
  6  8  1  0
  6  5  1  0
  5  1  1  0
  1  2  1  0
  1 12  1  0
 12 13  1  0
 13 14  1  0
 14 15  1  0
 14 16  2  0
 16 17  1  0
 17 18  1  0
 18 19  1  0
 18 13  2  0
  2  3  1  0
  2  4  1  0
 15 20  1  0
M  END
> <minimizedAffinity>
-4.57574

> <CNNscore>
0.1544994712

> <CNNaffinity>
3.7242794037

> <CNN_VS>
0.5753992200

> <CNNaffinity_variance>
0.4920044839

$$$$
