


 40 47  0  0  0  0  0  0  0  0999 V2000
    3.3016    3.7640   14.5525 C   0  0  0  0  0  0  0  0  0  0  0  0
    2.4454    4.3142   15.6995 C   0  0  0  0  0  0  0  0  0  0  0  0
    3.2121    4.3714   17.0233 C   0  0  0  0  0  0  0  0  0  0  0  0
    4.4988    3.7612   16.9890 O   0  0  0  0  0  0  0  0  0  0  0  0
    5.3949    4.1268   15.9103 C   0  0  0  0  0  0  0  0  0  0  0  0
    6.1448    2.7854   15.7308 C   0  0  0  0  0  0  0  0  0  0  0  0
    4.6642    4.4910   14.5706 C   0  0  0  0  0  0  0  0  0  0  0  0
    6.2670    5.2155   16.3847 N   0  0  0  0  0  0  0  0  0  0  0  0
    7.5906    5.4900   16.0391 C   0  0  0  0  0  0  0  0  0  0  0  0
    8.5015    4.8608   15.1679 C   0  0  0  0  0  0  0  0  0  0  0  0
    9.7981    5.3726   15.0456 C   0  0  0  0  0  0  0  0  0  0  0  0
   10.1925    6.4954   15.7565 C   0  0  0  0  0  0  0  0  0  0  0  0
    9.2889    7.1426   16.5988 C   0  0  0  0  0  0  0  0  0  0  0  0
    7.9733    6.6485   16.7440 C   0  0  0  0  0  0  0  0  0  0  0  0
    6.8394    7.1162   17.4620 C   0  0  0  0  0  0  0  0  0  0  0  0
    6.5259    8.2083   18.2888 C   0  0  0  0  0  0  0  0  0  0  0  0
    5.2116    8.4019   18.8147 C   0  0  0  0  0  0  0  0  0  0  0  0
    4.1160    7.5575   18.5794 C   0  0  0  0  0  0  0  0  0  0  0  0
    2.7285    7.4697   18.9103 C   0  0  0  0  0  0  0  0  0  0  0  0
    1.8397    8.2718   19.6604 C   0  0  0  0  0  0  0  0  0  0  0  0
    0.5023    7.8888   19.7923 C   0  0  0  0  0  0  0  0  0  0  0  0
   -0.6809    8.9708   20.7987 Br  0  0  0  0  0  0  0  0  0  0  0  0
    0.0265    6.7272   19.1976 C   0  0  0  0  0  0  0  0  0  0  0  0
    0.8807    5.9117   18.4518 C   0  0  0  0  0  0  0  0  0  0  0  0
    2.2265    6.2985   18.3174 C   0  0  0  0  0  0  0  0  0  0  0  0
    3.2808    5.6863   17.6543 N   0  0  0  0  0  0  0  0  0  0  0  0
    4.3955    6.4546   17.7899 C   0  0  0  0  0  0  0  0  0  0  0  0
    5.8213    6.2237   17.2033 C   0  0  0  0  0  0  0  0  0  0  0  0
    5.2511    9.6332   19.6163 C   0  0  0  0  0  0  0  0  0  0  0  0
    4.3537   10.1250   20.2687 O   0  0  0  0  0  0  0  0  0  0  0  0
    6.5191   10.1545   19.5063 N   0  0  0  0  0  0  0  0  0  0  0  0
    7.4092    9.3195   18.7777 C   0  0  0  0  0  0  0  0  0  0  0  0
    7.9235   10.1050   17.7349 O   0  0  0  0  0  0  0  0  0  0  0  0
    6.7839   11.0200   19.8938 H   0  0  0  0  0  0  0  0  0  0  0  0
    7.1912   10.4811   17.2220 H   0  0  0  0  0  0  0  0  0  0  0  0
    3.0382    3.1703   12.1913 C   0  0  0  0  0  0  0  0  0  0  0  0
    2.5284    3.9512   13.3078 N   0  0  0  0  0  0  0  0  0  0  0  0
    1.5622    3.6746   13.4821 H   0  0  0  0  0  0  0  0  0  0  0  0
    4.3648    5.8993   14.4541 O   0  0  0  0  0  0  0  0  0  0  0  0
    5.1469    6.5635   13.4698 C   0  0  0  0  0  0  0  0  0  0  0  0
 36 37  1  0
  1 37  1  0
  1  2  1  0
  3  2  1  0
  3  4  1  0
  4  5  1  0
  5  6  1  0
  5  7  1  0
  7 39  1  0
 39 40  1  0
  5  8  1  0
  8  9  1  0
  9 10  2  0
 10 11  1  0
 11 12  2  0
 12 13  1  0
 13 14  2  0
 14 15  1  0
 15 16  2  0
 16 17  1  0
 17 18  2  0
 18 19  1  0
 19 20  2  0
 20 21  1  0
 21 22  1  0
 21 23  2  0
 23 24  1  0
 24 25  2  0
 25 26  1  0
 26 27  1  0
 27 28  2  0
 17 29  1  0
 29 30  2  0
 29 31  1  0
 31 32  1  0
 32 33  1  0
  7  1  1  0
 28  8  1  0
 26  3  1  0
 14  9  1  0
 28 15  1  0
 32 16  1  0
 27 18  1  0
 25 19  1  0
 37 38  1  0
 31 34  1  0
 33 35  1  0
M  END
> <minimizedAffinity>
-13.50236

> <CNNscore>
0.9968890548

> <CNNaffinity>
8.4634590149

> <CNN_VS>
8.4371299744

> <CNNaffinity_variance>
0.0606944561

$$$$



 40 47  0  0  0  0  0  0  0  0999 V2000
    3.0291    2.9604   13.3484 C   0  0  0  0  0  0  0  0  0  0  0  0
    2.9332    3.8528   14.5916 C   0  0  0  0  0  0  0  0  0  0  0  0
    3.9098    3.4273   15.6911 C   0  0  0  0  0  0  0  0  0  0  0  0
    4.5966    2.2063   15.4326 O   0  0  0  0  0  0  0  0  0  0  0  0
    5.2415    2.0498   14.1442 C   0  0  0  0  0  0  0  0  0  0  0  0
    5.0636    0.5253   13.9491 C   0  0  0  0  0  0  0  0  0  0  0  0
    4.5197    2.8059   12.9743 C   0  0  0  0  0  0  0  0  0  0  0  0
    6.6520    2.4522   14.2831 N   0  0  0  0  0  0  0  0  0  0  0  0
    7.7730    1.9565   13.6166 C   0  0  0  0  0  0  0  0  0  0  0  0
    7.9389    0.9584   12.6363 C   0  0  0  0  0  0  0  0  0  0  0  0
    9.2239    0.6667   12.1655 C   0  0  0  0  0  0  0  0  0  0  0  0
   10.3306    1.3548   12.6382 C   0  0  0  0  0  0  0  0  0  0  0  0
   10.1733    2.3649   13.5868 C   0  0  0  0  0  0  0  0  0  0  0  0
    8.8884    2.6809   14.0821 C   0  0  0  0  0  0  0  0  0  0  0  0
    8.4178    3.6744   14.9830 C   0  0  0  0  0  0  0  0  0  0  0  0
    8.9710    4.7263   15.7324 C   0  0  0  0  0  0  0  0  0  0  0  0
    8.1582    5.5992   16.5191 C   0  0  0  0  0  0  0  0  0  0  0  0
    6.7624    5.5155   16.6353 C   0  0  0  0  0  0  0  0  0  0  0  0
    5.6886    6.2023   17.2813 C   0  0  0  0  0  0  0  0  0  0  0  0
    5.6043    7.3361   18.1201 C   0  0  0  0  0  0  0  0  0  0  0  0
    4.3594    7.7569   18.5952 C   0  0  0  0  0  0  0  0  0  0  0  0
    4.2571    9.2778   19.7178 Br  0  0  0  0  0  0  0  0  0  0  0  0
    3.1957    7.0779   18.2578 C   0  0  0  0  0  0  0  0  0  0  0  0
    3.2459    5.9521   17.4326 C   0  0  0  0  0  0  0  0  0  0  0  0
    4.4990    5.5298   16.9528 C   0  0  0  0  0  0  0  0  0  0  0  0
    4.8410    4.4587   16.1393 N   0  0  0  0  0  0  0  0  0  0  0  0
    6.1854    4.4721   15.9308 C   0  0  0  0  0  0  0  0  0  0  0  0
    7.0518    3.5084   15.0641 C   0  0  0  0  0  0  0  0  0  0  0  0
    9.0632    6.5715   17.1483 C   0  0  0  0  0  0  0  0  0  0  0  0
    8.7782    7.4557   17.9291 O   0  0  0  0  0  0  0  0  0  0  0  0
   10.3338    6.3033   16.6949 N   0  0  0  0  0  0  0  0  0  0  0  0
   10.4064    5.1407   15.8803 C   0  0  0  0  0  0  0  0  0  0  0  0
   10.9843    5.5439   14.6669 O   0  0  0  0  0  0  0  0  0  0  0  0
   11.1152    6.8610   16.9128 H   0  0  0  0  0  0  0  0  0  0  0  0
   10.4754    6.2815   14.2957 H   0  0  0  0  0  0  0  0  0  0  0  0
    2.1193    2.8006   11.0803 C   0  0  0  0  0  0  0  0  0  0  0  0
    2.2006    3.5898   12.2998 N   0  0  0  0  0  0  0  0  0  0  0  0
    1.2573    3.7181   12.6659 H   0  0  0  0  0  0  0  0  0  0  0  0
    5.0198    4.1460   12.7730 O   0  0  0  0  0  0  0  0  0  0  0  0
    4.0423    5.1535   12.9990 C   0  0  0  0  0  0  0  0  0  0  0  0
 36 37  1  0
  1 37  1  0
  1  2  1  0
  3  2  1  0
  3  4  1  0
  4  5  1  0
  5  6  1  0
  5  7  1  0
  7 39  1  0
 39 40  1  0
  5  8  1  0
  8  9  1  0
  9 10  2  0
 10 11  1  0
 11 12  2  0
 12 13  1  0
 13 14  2  0
 14 15  1  0
 15 16  2  0
 16 17  1  0
 17 18  2  0
 18 19  1  0
 19 20  2  0
 20 21  1  0
 21 22  1  0
 21 23  2  0
 23 24  1  0
 24 25  2  0
 25 26  1  0
 26 27  1  0
 27 28  2  0
 17 29  1  0
 29 30  2  0
 29 31  1  0
 31 32  1  0
 32 33  1  0
  7  1  1  0
 28  8  1  0
 26  3  1  0
 14  9  1  0
 28 15  1  0
 32 16  1  0
 27 18  1  0
 25 19  1  0
 37 38  1  0
 31 34  1  0
 33 35  1  0
M  END
> <minimizedAffinity>
-10.95606

> <CNNscore>
0.4233304262

> <CNNaffinity>
7.0368113518

> <CNN_VS>
2.9788963795

> <CNNaffinity_variance>
0.1131184176

$$$$



 40 47  0  0  0  0  0  0  0  0999 V2000
    3.8824    3.1904   11.2342 C   0  0  0  0  0  0  0  0  0  0  0  0
    2.7287    2.3015   10.7543 C   0  0  0  0  0  0  0  0  0  0  0  0
    3.1521    1.3546    9.6284 C   0  0  0  0  0  0  0  0  0  0  0  0
    4.4661    1.5814    9.1271 O   0  0  0  0  0  0  0  0  0  0  0  0
    5.5489    1.6879   10.0843 C   0  0  0  0  0  0  0  0  0  0  0  0
    6.4527    2.7003    9.3413 C   0  0  0  0  0  0  0  0  0  0  0  0
    5.1210    2.2971   11.4653 C   0  0  0  0  0  0  0  0  0  0  0  0
    6.1692    0.3592   10.2282 N   0  0  0  0  0  0  0  0  0  0  0  0
    7.5018    0.0393   10.4895 C   0  0  0  0  0  0  0  0  0  0  0  0
    8.6515    0.8270   10.6955 C   0  0  0  0  0  0  0  0  0  0  0  0
    9.8814    0.1988   10.9212 C   0  0  0  0  0  0  0  0  0  0  0  0
    9.9807   -1.1833   10.9596 C   0  0  0  0  0  0  0  0  0  0  0  0
    8.8431   -1.9711   10.7863 C   0  0  0  0  0  0  0  0  0  0  0  0
    7.5877   -1.3656   10.5552 C   0  0  0  0  0  0  0  0  0  0  0  0
    6.2750   -1.8899   10.4064 C   0  0  0  0  0  0  0  0  0  0  0  0
    5.6661   -3.1560   10.4282 C   0  0  0  0  0  0  0  0  0  0  0  0
    4.2522   -3.3140   10.2961 C   0  0  0  0  0  0  0  0  0  0  0  0
    3.3347   -2.2649   10.1342 C   0  0  0  0  0  0  0  0  0  0  0  0
    1.9247   -2.0728   10.0026 C   0  0  0  0  0  0  0  0  0  0  0  0
    0.8073   -2.9372    9.9919 C   0  0  0  0  0  0  0  0  0  0  0  0
   -0.4774   -2.4089    9.8394 C   0  0  0  0  0  0  0  0  0  0  0  0
   -1.9682   -3.5754    9.8273 Br  0  0  0  0  0  0  0  0  0  0  0  0
   -0.6788   -1.0421    9.6963 C   0  0  0  0  0  0  0  0  0  0  0  0
    0.4055   -0.1617    9.7004 C   0  0  0  0  0  0  0  0  0  0  0  0
    1.6984   -0.6935    9.8559 C   0  0  0  0  0  0  0  0  0  0  0  0
    2.9360   -0.0661    9.8866 N   0  0  0  0  0  0  0  0  0  0  0  0
    3.9031   -1.0031   10.0809 C   0  0  0  0  0  0  0  0  0  0  0  0
    5.4429   -0.8060   10.2248 C   0  0  0  0  0  0  0  0  0  0  0  0
    3.9761   -4.7556   10.3728 C   0  0  0  0  0  0  0  0  0  0  0  0
    2.9050   -5.3147   10.2592 O   0  0  0  0  0  0  0  0  0  0  0  0
    5.1745   -5.3920   10.5981 N   0  0  0  0  0  0  0  0  0  0  0  0
    6.2914   -4.5133   10.5721 C   0  0  0  0  0  0  0  0  0  0  0  0
    6.9540   -4.6802   11.7977 O   0  0  0  0  0  0  0  0  0  0  0  0
    5.2510   -6.3599   10.7611 H   0  0  0  0  0  0  0  0  0  0  0  0
    6.3286   -4.5376   12.5254 H   0  0  0  0  0  0  0  0  0  0  0  0
    4.4524    4.6662   13.1036 C   0  0  0  0  0  0  0  0  0  0  0  0
    3.4091    3.8986   12.4411 N   0  0  0  0  0  0  0  0  0  0  0  0
    2.6607    4.5363   12.1698 H   0  0  0  0  0  0  0  0  0  0  0  0
    4.7155    1.2959   12.4242 O   0  0  0  0  0  0  0  0  0  0  0  0
    5.6060    1.1759   13.5262 C   0  0  0  0  0  0  0  0  0  0  0  0
 36 37  1  0
  1 37  1  0
  1  2  1  0
  3  2  1  0
  3  4  1  0
  4  5  1  0
  5  6  1  0
  5  7  1  0
  7 39  1  0
 39 40  1  0
  5  8  1  0
  8  9  1  0
  9 10  2  0
 10 11  1  0
 11 12  2  0
 12 13  1  0
 13 14  2  0
 14 15  1  0
 15 16  2  0
 16 17  1  0
 17 18  2  0
 18 19  1  0
 19 20  2  0
 20 21  1  0
 21 22  1  0
 21 23  2  0
 23 24  1  0
 24 25  2  0
 25 26  1  0
 26 27  1  0
 27 28  2  0
 17 29  1  0
 29 30  2  0
 29 31  1  0
 31 32  1  0
 32 33  1  0
  7  1  1  0
 28  8  1  0
 26  3  1  0
 14  9  1  0
 28 15  1  0
 32 16  1  0
 27 18  1  0
 25 19  1  0
 37 38  1  0
 31 34  1  0
 33 35  1  0
M  END
> <minimizedAffinity>
-6.12627

> <CNNscore>
0.3908217251

> <CNNaffinity>
5.6701807976

> <CNN_VS>
2.2160298824

> <CNNaffinity_variance>
0.3309966624

$$$$



 40 47  0  0  0  0  0  0  0  0999 V2000
    3.9869    3.5143   13.1984 C   0  0  0  0  0  0  0  0  0  0  0  0
    2.6497    3.3167   13.9226 C   0  0  0  0  0  0  0  0  0  0  0  0
    2.8246    3.1515   15.4344 C   0  0  0  0  0  0  0  0  0  0  0  0
    4.1782    3.0460   15.8656 O   0  0  0  0  0  0  0  0  0  0  0  0
    5.1219    4.0368   15.3883 C   0  0  0  0  0  0  0  0  0  0  0  0
    6.3986    3.1657   15.3178 C   0  0  0  0  0  0  0  0  0  0  0  0
    4.7963    4.5894   13.9566 C   0  0  0  0  0  0  0  0  0  0  0  0
    5.2114    5.1099   16.3940 N   0  0  0  0  0  0  0  0  0  0  0  0
    6.3086    5.9025   16.7326 C   0  0  0  0  0  0  0  0  0  0  0  0
    7.6348    5.9519   16.2598 C   0  0  0  0  0  0  0  0  0  0  0  0
    8.5307    6.8656   16.8258 C   0  0  0  0  0  0  0  0  0  0  0  0
    8.1283    7.7304   17.8317 C   0  0  0  0  0  0  0  0  0  0  0  0
    6.8099    7.7094   18.2859 C   0  0  0  0  0  0  0  0  0  0  0  0
    5.8828    6.7969   17.7347 C   0  0  0  0  0  0  0  0  0  0  0  0
    4.4927    6.5871   17.9441 C   0  0  0  0  0  0  0  0  0  0  0  0
    3.4753    7.1541   18.7300 C   0  0  0  0  0  0  0  0  0  0  0  0
    2.1195    6.7123   18.6400 C   0  0  0  0  0  0  0  0  0  0  0  0
    1.6565    5.6972   17.7892 C   0  0  0  0  0  0  0  0  0  0  0  0
    0.4286    5.0530   17.4436 C   0  0  0  0  0  0  0  0  0  0  0  0
   -0.9153    5.2052   17.8522 C   0  0  0  0  0  0  0  0  0  0  0  0
   -1.9053    4.3878   17.3003 C   0  0  0  0  0  0  0  0  0  0  0  0
   -3.7031    4.6002   17.8536 Br  0  0  0  0  0  0  0  0  0  0  0  0
   -1.5922    3.4218   16.3526 C   0  0  0  0  0  0  0  0  0  0  0  0
   -0.2728    3.2451   15.9299 C   0  0  0  0  0  0  0  0  0  0  0  0
    0.7233    4.0693   16.4841 C   0  0  0  0  0  0  0  0  0  0  0  0
    2.0925    4.1071   16.2606 N   0  0  0  0  0  0  0  0  0  0  0  0
    2.6380    5.0965   17.0186 C   0  0  0  0  0  0  0  0  0  0  0  0
    4.1234    5.5631   17.0984 C   0  0  0  0  0  0  0  0  0  0  0  0
    1.3432    7.5251   19.5870 C   0  0  0  0  0  0  0  0  0  0  0  0
    0.1616    7.4363   19.8489 O   0  0  0  0  0  0  0  0  0  0  0  0
    2.2071    8.4337   20.1528 N   0  0  0  0  0  0  0  0  0  0  0  0
    3.5594    8.2454   19.7576 C   0  0  0  0  0  0  0  0  0  0  0  0
    3.9875    9.4684   19.2191 O   0  0  0  0  0  0  0  0  0  0  0  0
    1.9175    9.1438   20.7702 H   0  0  0  0  0  0  0  0  0  0  0  0
    3.3811    9.7406   18.5126 H   0  0  0  0  0  0  0  0  0  0  0  0
    4.1644    2.8888   10.8374 C   0  0  0  0  0  0  0  0  0  0  0  0
    3.6724    3.8642   11.7982 N   0  0  0  0  0  0  0  0  0  0  0  0
    2.6593    3.9319   11.7010 H   0  0  0  0  0  0  0  0  0  0  0  0
    3.9639    5.7696   13.9812 O   0  0  0  0  0  0  0  0  0  0  0  0
    2.5976    5.4914   14.2599 C   0  0  0  0  0  0  0  0  0  0  0  0
 36 37  1  0
  1 37  1  0
  1  2  1  0
  3  2  1  0
  3  4  1  0
  4  5  1  0
  5  6  1  0
  5  7  1  0
  7 39  1  0
 39 40  1  0
  5  8  1  0
  8  9  1  0
  9 10  2  0
 10 11  1  0
 11 12  2  0
 12 13  1  0
 13 14  2  0
 14 15  1  0
 15 16  2  0
 16 17  1  0
 17 18  2  0
 18 19  1  0
 19 20  2  0
 20 21  1  0
 21 22  1  0
 21 23  2  0
 23 24  1  0
 24 25  2  0
 25 26  1  0
 26 27  1  0
 27 28  2  0
 17 29  1  0
 29 30  2  0
 29 31  1  0
 31 32  1  0
 32 33  1  0
  7  1  1  0
 28  8  1  0
 26  3  1  0
 14  9  1  0
 28 15  1  0
 32 16  1  0
 27 18  1  0
 25 19  1  0
 37 38  1  0
 31 34  1  0
 33 35  1  0
M  END
> <minimizedAffinity>
-9.57836

> <CNNscore>
0.2742003500

> <CNNaffinity>
7.1849646568

> <CNN_VS>
1.9701198339

> <CNNaffinity_variance>
0.0505279750

$$$$



 40 47  0  0  0  0  0  0  0  0999 V2000
    2.9715    3.2256   14.2632 C   0  0  0  0  0  0  0  0  0  0  0  0
    4.3877    2.7797   13.8797 C   0  0  0  0  0  0  0  0  0  0  0  0
    4.6620    1.3218   14.2578 C   0  0  0  0  0  0  0  0  0  0  0  0
    3.6348    0.7074   15.0302 O   0  0  0  0  0  0  0  0  0  0  0  0
    2.2696    0.8219   14.5578 C   0  0  0  0  0  0  0  0  0  0  0  0
    1.5279    0.8557   15.9152 C   0  0  0  0  0  0  0  0  0  0  0  0
    1.9748    2.1505   13.7772 C   0  0  0  0  0  0  0  0  0  0  0  0
    1.9561   -0.3762   13.7595 N   0  0  0  0  0  0  0  0  0  0  0  0
    0.7356   -1.0364   13.6147 C   0  0  0  0  0  0  0  0  0  0  0  0
   -0.5472   -0.8026   14.1481 C   0  0  0  0  0  0  0  0  0  0  0  0
   -1.5932   -1.6741   13.8250 C   0  0  0  0  0  0  0  0  0  0  0  0
   -1.3884   -2.7521   12.9780 C   0  0  0  0  0  0  0  0  0  0  0  0
   -0.1292   -2.9747   12.4214 C   0  0  0  0  0  0  0  0  0  0  0  0
    0.9468   -2.1128   12.7302 C   0  0  0  0  0  0  0  0  0  0  0  0
    2.2938   -2.0499   12.2811 C   0  0  0  0  0  0  0  0  0  0  0  0
    3.1115   -2.7575   11.3838 C   0  0  0  0  0  0  0  0  0  0  0  0
    4.4605   -2.3650   11.1243 C   0  0  0  0  0  0  0  0  0  0  0  0
    5.1088   -1.2679   11.7115 C   0  0  0  0  0  0  0  0  0  0  0  0
    6.3760   -0.6091   11.6640 C   0  0  0  0  0  0  0  0  0  0  0  0
    7.5707   -0.8175   10.9391 C   0  0  0  0  0  0  0  0  0  0  0  0
    8.6592    0.0366   11.1349 C   0  0  0  0  0  0  0  0  0  0  0  0
   10.2551   -0.2505   10.1580 Br  0  0  0  0  0  0  0  0  0  0  0  0
    8.5900    1.0927   12.0344 C   0  0  0  0  0  0  0  0  0  0  0  0
    7.4240    1.3236   12.7680 C   0  0  0  0  0  0  0  0  0  0  0  0
    6.3277    0.4649   12.5693 C   0  0  0  0  0  0  0  0  0  0  0  0
    5.0710    0.4529   13.1580 N   0  0  0  0  0  0  0  0  0  0  0  0
    4.3407   -0.5628   12.6229 C   0  0  0  0  0  0  0  0  0  0  0  0
    2.8658   -0.9711   12.9206 C   0  0  0  0  0  0  0  0  0  0  0  0
    4.9987   -3.3156   10.1410 C   0  0  0  0  0  0  0  0  0  0  0  0
    6.1241   -3.3609    9.6891 O   0  0  0  0  0  0  0  0  0  0  0  0
    3.9828   -4.1808    9.8073 N   0  0  0  0  0  0  0  0  0  0  0  0
    2.7998   -3.9795   10.5691 C   0  0  0  0  0  0  0  0  0  0  0  0
    1.7656   -3.7682    9.6446 O   0  0  0  0  0  0  0  0  0  0  0  0
    4.0667   -4.8708    9.1101 H   0  0  0  0  0  0  0  0  0  0  0  0
    2.0071   -3.0408    9.0501 H   0  0  0  0  0  0  0  0  0  0  0  0
    3.2753    5.6446   14.4944 C   0  0  0  0  0  0  0  0  0  0  0  0
    2.7633    4.5617   13.6687 N   0  0  0  0  0  0  0  0  0  0  0  0
    3.2365    4.5916   12.7655 H   0  0  0  0  0  0  0  0  0  0  0  0
    2.1846    2.0287   12.3533 O   0  0  0  0  0  0  0  0  0  0  0  0
    0.9850    2.1215   11.5956 C   0  0  0  0  0  0  0  0  0  0  0  0
 36 37  1  0
  1 37  1  0
  1  2  1  0
  3  2  1  0
  3  4  1  0
  4  5  1  0
  5  6  1  0
  5  7  1  0
  7 39  1  0
 39 40  1  0
  5  8  1  0
  8  9  1  0
  9 10  2  0
 10 11  1  0
 11 12  2  0
 12 13  1  0
 13 14  2  0
 14 15  1  0
 15 16  2  0
 16 17  1  0
 17 18  2  0
 18 19  1  0
 19 20  2  0
 20 21  1  0
 21 22  1  0
 21 23  2  0
 23 24  1  0
 24 25  2  0
 25 26  1  0
 26 27  1  0
 27 28  2  0
 17 29  1  0
 29 30  2  0
 29 31  1  0
 31 32  1  0
 32 33  1  0
  7  1  1  0
 28  8  1  0
 26  3  1  0
 14  9  1  0
 28 15  1  0
 32 16  1  0
 27 18  1  0
 25 19  1  0
 37 38  1  0
 31 34  1  0
 33 35  1  0
M  END
> <minimizedAffinity>
-6.00094

> <CNNscore>
0.1716102213

> <CNNaffinity>
5.2200360298

> <CNN_VS>
0.8958115578

> <CNNaffinity_variance>
0.4699763358

$$$$



 40 47  0  0  0  0  0  0  0  0999 V2000
    4.7393    2.9454   12.8351 C   0  0  0  0  0  0  0  0  0  0  0  0
    3.8329    1.7688   13.2162 C   0  0  0  0  0  0  0  0  0  0  0  0
    3.6026    0.8080   12.0468 C   0  0  0  0  0  0  0  0  0  0  0  0
    4.1227    1.2585   10.7995 O   0  0  0  0  0  0  0  0  0  0  0  0
    5.4952    1.7222   10.7640 C   0  0  0  0  0  0  0  0  0  0  0  0
    5.3726    2.8106    9.6711 C   0  0  0  0  0  0  0  0  0  0  0  0
    5.9780    2.3871   12.1005 C   0  0  0  0  0  0  0  0  0  0  0  0
    6.3525    0.5940   10.3600 N   0  0  0  0  0  0  0  0  0  0  0  0
    7.5351    0.6149    9.6200 C   0  0  0  0  0  0  0  0  0  0  0  0
    8.2791    1.6588    9.0358 C   0  0  0  0  0  0  0  0  0  0  0  0
    9.4424    1.3542    8.3202 C   0  0  0  0  0  0  0  0  0  0  0  0
    9.8793    0.0450    8.1916 C   0  0  0  0  0  0  0  0  0  0  0  0
    9.1658   -0.9923    8.7914 C   0  0  0  0  0  0  0  0  0  0  0  0
    7.9867   -0.7160    9.5190 C   0  0  0  0  0  0  0  0  0  0  0  0
    7.1027   -1.5345   10.2732 C   0  0  0  0  0  0  0  0  0  0  0  0
    7.0068   -2.8919   10.6234 C   0  0  0  0  0  0  0  0  0  0  0  0
    5.9731   -3.3769   11.4822 C   0  0  0  0  0  0  0  0  0  0  0  0
    4.9660   -2.5877   12.0580 C   0  0  0  0  0  0  0  0  0  0  0  0
    3.8487   -2.7332   12.9370 C   0  0  0  0  0  0  0  0  0  0  0  0
    3.2778   -3.8199   13.6366 C   0  0  0  0  0  0  0  0  0  0  0  0
    2.1504   -3.6150   14.4364 C   0  0  0  0  0  0  0  0  0  0  0  0
    1.3934   -5.0773   15.3703 Br  0  0  0  0  0  0  0  0  0  0  0  0
    1.5756   -2.3563   14.5574 C   0  0  0  0  0  0  0  0  0  0  0  0
    2.1150   -1.2624   13.8767 C   0  0  0  0  0  0  0  0  0  0  0  0
    3.2511   -1.4685   13.0732 C   0  0  0  0  0  0  0  0  0  0  0  0
    3.9777   -0.5817   12.2911 N   0  0  0  0  0  0  0  0  0  0  0  0
    5.0134   -1.2475   11.7121 C   0  0  0  0  0  0  0  0  0  0  0  0
    6.1331   -0.6951   10.7785 C   0  0  0  0  0  0  0  0  0  0  0  0
    6.1893   -4.8227   11.6340 C   0  0  0  0  0  0  0  0  0  0  0  0
    5.5057   -5.6167   12.2465 O   0  0  0  0  0  0  0  0  0  0  0  0
    7.3324   -5.1424   10.9391 N   0  0  0  0  0  0  0  0  0  0  0  0
    7.8748   -4.0466   10.2142 C   0  0  0  0  0  0  0  0  0  0  0  0
    9.2035   -3.9078   10.6433 O   0  0  0  0  0  0  0  0  0  0  0  0
    7.7350   -6.0408   10.9434 H   0  0  0  0  0  0  0  0  0  0  0  0
    9.2238   -3.8193   11.6091 H   0  0  0  0  0  0  0  0  0  0  0  0
    5.9383    4.8074   13.8803 C   0  0  0  0  0  0  0  0  0  0  0  0
    5.0486    3.6742   14.0822 N   0  0  0  0  0  0  0  0  0  0  0  0
    4.1750    4.0158   14.4828 H   0  0  0  0  0  0  0  0  0  0  0  0
    6.5901    1.4477   13.0110 O   0  0  0  0  0  0  0  0  0  0  0  0
    7.9727    1.6948   13.2324 C   0  0  0  0  0  0  0  0  0  0  0  0
 36 37  1  0
  1 37  1  0
  1  2  1  0
  3  2  1  0
  3  4  1  0
  4  5  1  0
  5  6  1  0
  5  7  1  0
  7 39  1  0
 39 40  1  0
  5  8  1  0
  8  9  1  0
  9 10  2  0
 10 11  1  0
 11 12  2  0
 12 13  1  0
 13 14  2  0
 14 15  1  0
 15 16  2  0
 16 17  1  0
 17 18  2  0
 18 19  1  0
 19 20  2  0
 20 21  1  0
 21 22  1  0
 21 23  2  0
 23 24  1  0
 24 25  2  0
 25 26  1  0
 26 27  1  0
 27 28  2  0
 17 29  1  0
 29 30  2  0
 29 31  1  0
 31 32  1  0
 32 33  1  0
  7  1  1  0
 28  8  1  0
 26  3  1  0
 14  9  1  0
 28 15  1  0
 32 16  1  0
 27 18  1  0
 25 19  1  0
 37 38  1  0
 31 34  1  0
 33 35  1  0
M  END
> <minimizedAffinity>
-6.73354

> <CNNscore>
0.1533528119

> <CNNaffinity>
5.1111655235

> <CNN_VS>
0.7838116288

> <CNNaffinity_variance>
0.4795449674

$$$$



 40 47  0  0  0  0  0  0  0  0999 V2000
    4.0993    3.8600   13.3021 C   0  0  0  0  0  0  0  0  0  0  0  0
    3.1106    3.1091   14.2020 C   0  0  0  0  0  0  0  0  0  0  0  0
    2.2706    2.0929   13.4240 C   0  0  0  0  0  0  0  0  0  0  0  0
    2.4375    2.1456   12.0102 O   0  0  0  0  0  0  0  0  0  0  0  0
    3.7884    2.1395   11.4855 C   0  0  0  0  0  0  0  0  0  0  0  0
    3.5817    3.0167   10.2279 C   0  0  0  0  0  0  0  0  0  0  0  0
    4.8402    2.8267   12.4251 C   0  0  0  0  0  0  0  0  0  0  0  0
    4.1516    0.7481   11.1642 N   0  0  0  0  0  0  0  0  0  0  0  0
    4.9837    0.2730   10.1501 C   0  0  0  0  0  0  0  0  0  0  0  0
    5.7239    0.9179    9.1397 C   0  0  0  0  0  0  0  0  0  0  0  0
    6.4657    0.1487    8.2364 C   0  0  0  0  0  0  0  0  0  0  0  0
    6.4941   -1.2340    8.3311 C   0  0  0  0  0  0  0  0  0  0  0  0
    5.7885   -1.8799    9.3460 C   0  0  0  0  0  0  0  0  0  0  0  0
    5.0293   -1.1301   10.2720 C   0  0  0  0  0  0  0  0  0  0  0  0
    4.2749   -1.4924   11.4208 C   0  0  0  0  0  0  0  0  0  0  0  0
    3.9674   -2.6735   12.1172 C   0  0  0  0  0  0  0  0  0  0  0  0
    3.1950   -2.6597   13.3191 C   0  0  0  0  0  0  0  0  0  0  0  0
    2.6688   -1.5097   13.9269 C   0  0  0  0  0  0  0  0  0  0  0  0
    1.9116   -1.1490   15.0839 C   0  0  0  0  0  0  0  0  0  0  0  0
    1.3567   -1.8697   16.1650 C   0  0  0  0  0  0  0  0  0  0  0  0
    0.6510   -1.1913   17.1621 C   0  0  0  0  0  0  0  0  0  0  0  0
   -0.0879   -2.1660   18.6069 Br  0  0  0  0  0  0  0  0  0  0  0  0
    0.4823    0.1865   17.1108 C   0  0  0  0  0  0  0  0  0  0  0  0
    1.0166    0.9271   16.0539 C   0  0  0  0  0  0  0  0  0  0  0  0
    1.7287    0.2441   15.0513 C   0  0  0  0  0  0  0  0  0  0  0  0
    2.3476    0.7154   13.9020 N   0  0  0  0  0  0  0  0  0  0  0  0
    2.9295   -0.3287   13.2521 C   0  0  0  0  0  0  0  0  0  0  0  0
    3.7717   -0.3189   11.9402 C   0  0  0  0  0  0  0  0  0  0  0  0
    3.0826   -4.0544   13.7688 C   0  0  0  0  0  0  0  0  0  0  0  0
    2.4691   -4.4803   14.7254 O   0  0  0  0  0  0  0  0  0  0  0  0
    3.8093   -4.8280   12.8939 N   0  0  0  0  0  0  0  0  0  0  0  0
    4.3320   -4.0937   11.7948 C   0  0  0  0  0  0  0  0  0  0  0  0
    5.7178   -4.3138   11.7959 O   0  0  0  0  0  0  0  0  0  0  0  0
    3.9532   -5.7941   13.0168 H   0  0  0  0  0  0  0  0  0  0  0  0
    6.0817   -4.0796   12.6640 H   0  0  0  0  0  0  0  0  0  0  0  0
    4.8816    6.0822   13.9709 C   0  0  0  0  0  0  0  0  0  0  0  0
    4.9794    4.6473   14.1898 N   0  0  0  0  0  0  0  0  0  0  0  0
    4.7243    4.4492   15.1573 H   0  0  0  0  0  0  0  0  0  0  0  0
    5.4678    1.9041   13.3424 O   0  0  0  0  0  0  0  0  0  0  0  0
    6.8730    1.7914   13.1569 C   0  0  0  0  0  0  0  0  0  0  0  0
 36 37  1  0
  1 37  1  0
  1  2  1  0
  3  2  1  0
  3  4  1  0
  4  5  1  0
  5  6  1  0
  5  7  1  0
  7 39  1  0
 39 40  1  0
  5  8  1  0
  8  9  1  0
  9 10  2  0
 10 11  1  0
 11 12  2  0
 12 13  1  0
 13 14  2  0
 14 15  1  0
 15 16  2  0
 16 17  1  0
 17 18  2  0
 18 19  1  0
 19 20  2  0
 20 21  1  0
 21 22  1  0
 21 23  2  0
 23 24  1  0
 24 25  2  0
 25 26  1  0
 26 27  1  0
 27 28  2  0
 17 29  1  0
 29 30  2  0
 29 31  1  0
 31 32  1  0
 32 33  1  0
  7  1  1  0
 28  8  1  0
 26  3  1  0
 14  9  1  0
 28 15  1  0
 32 16  1  0
 27 18  1  0
 25 19  1  0
 37 38  1  0
 31 34  1  0
 33 35  1  0
M  END
> <minimizedAffinity>
-6.38504

> <CNNscore>
0.1511694491

> <CNNaffinity>
4.8664350510

> <CNN_VS>
0.7356563210

> <CNNaffinity_variance>
0.7114763260

$$$$



 40 47  0  0  0  0  0  0  0  0999 V2000
    4.3032    1.3477   14.1746 C   0  0  0  0  0  0  0  0  0  0  0  0
    5.2285    0.4552   13.3388 C   0  0  0  0  0  0  0  0  0  0  0  0
    4.4834   -0.7190   12.6987 C   0  0  0  0  0  0  0  0  0  0  0  0
    3.1305   -0.8624   13.1211 O   0  0  0  0  0  0  0  0  0  0  0  0
    2.2801    0.3105   13.0847 C   0  0  0  0  0  0  0  0  0  0  0  0
    1.3679    0.0066   14.2969 C   0  0  0  0  0  0  0  0  0  0  0  0
    3.0419    1.6582   13.3390 C   0  0  0  0  0  0  0  0  0  0  0  0
    1.5533    0.3131   11.8030 N   0  0  0  0  0  0  0  0  0  0  0  0
    0.2720    0.7900   11.5246 C   0  0  0  0  0  0  0  0  0  0  0  0
   -0.7156    1.3998   12.3229 C   0  0  0  0  0  0  0  0  0  0  0  0
   -1.9392    1.7572   11.7458 C   0  0  0  0  0  0  0  0  0  0  0  0
   -2.1862    1.5338   10.4002 C   0  0  0  0  0  0  0  0  0  0  0  0
   -1.2038    0.9579    9.5951 C   0  0  0  0  0  0  0  0  0  0  0  0
    0.0410    0.5851   10.1498 C   0  0  0  0  0  0  0  0  0  0  0  0
    1.2289    0.0479    9.5836 C   0  0  0  0  0  0  0  0  0  0  0  0
    1.6811   -0.3233    8.3061 C   0  0  0  0  0  0  0  0  0  0  0  0
    3.0126   -0.7922    8.0854 C   0  0  0  0  0  0  0  0  0  0  0  0
    3.9930   -0.9343    9.0789 C   0  0  0  0  0  0  0  0  0  0  0  0
    5.3609   -1.3305    9.1987 C   0  0  0  0  0  0  0  0  0  0  0  0
    6.3474   -1.7625    8.2843 C   0  0  0  0  0  0  0  0  0  0  0  0
    7.6275   -2.0825    8.7443 C   0  0  0  0  0  0  0  0  0  0  0  0
    8.9426   -2.6595    7.5110 Br  0  0  0  0  0  0  0  0  0  0  0  0
    7.9512   -1.9846   10.0915 C   0  0  0  0  0  0  0  0  0  0  0  0
    6.9974   -1.5630   11.0207 C   0  0  0  0  0  0  0  0  0  0  0  0
    5.7095   -1.2390   10.5572 C   0  0  0  0  0  0  0  0  0  0  0  0
    4.5829   -0.8099   11.2449 N   0  0  0  0  0  0  0  0  0  0  0  0
    3.5734   -0.6031   10.3565 C   0  0  0  0  0  0  0  0  0  0  0  0
    2.1262   -0.0873   10.6212 C   0  0  0  0  0  0  0  0  0  0  0  0
    3.1318   -1.0737    6.6477 C   0  0  0  0  0  0  0  0  0  0  0  0
    4.0876   -1.5313    6.0563 O   0  0  0  0  0  0  0  0  0  0  0  0
    1.9378   -0.7252    6.0605 N   0  0  0  0  0  0  0  0  0  0  0  0
    0.9461   -0.3254    6.9970 C   0  0  0  0  0  0  0  0  0  0  0  0
    0.5270    0.9554    6.6060 O   0  0  0  0  0  0  0  0  0  0  0  0
    1.7853   -0.7502    5.0882 H   0  0  0  0  0  0  0  0  0  0  0  0
    1.2972    1.5413    6.5392 H   0  0  0  0  0  0  0  0  0  0  0  0
    4.8590    2.9550   15.9367 C   0  0  0  0  0  0  0  0  0  0  0  0
    5.0858    2.5395   14.5611 N   0  0  0  0  0  0  0  0  0  0  0  0
    6.0769    2.3274   14.4460 H   0  0  0  0  0  0  0  0  0  0  0  0
    3.5135    2.2798   12.1235 O   0  0  0  0  0  0  0  0  0  0  0  0
    2.9893    3.5852   11.9164 C   0  0  0  0  0  0  0  0  0  0  0  0
 36 37  1  0
  1 37  1  0
  1  2  1  0
  3  2  1  0
  3  4  1  0
  4  5  1  0
  5  6  1  0
  5  7  1  0
  7 39  1  0
 39 40  1  0
  5  8  1  0
  8  9  1  0
  9 10  2  0
 10 11  1  0
 11 12  2  0
 12 13  1  0
 13 14  2  0
 14 15  1  0
 15 16  2  0
 16 17  1  0
 17 18  2  0
 18 19  1  0
 19 20  2  0
 20 21  1  0
 21 22  1  0
 21 23  2  0
 23 24  1  0
 24 25  2  0
 25 26  1  0
 26 27  1  0
 27 28  2  0
 17 29  1  0
 29 30  2  0
 29 31  1  0
 31 32  1  0
 32 33  1  0
  7  1  1  0
 28  8  1  0
 26  3  1  0
 14  9  1  0
 28 15  1  0
 32 16  1  0
 27 18  1  0
 25 19  1  0
 37 38  1  0
 31 34  1  0
 33 35  1  0
M  END
> <minimizedAffinity>
-6.18038

> <CNNscore>
0.1480013579

> <CNNaffinity>
4.9360613823

> <CNN_VS>
0.7305437922

> <CNNaffinity_variance>
0.7504246831

$$$$



 40 47  0  0  0  0  0  0  0  0999 V2000
    5.9756    3.2741   13.2315 C   0  0  0  0  0  0  0  0  0  0  0  0
    4.6432    2.6846   13.7095 C   0  0  0  0  0  0  0  0  0  0  0  0
    4.5628    2.5877   15.2352 C   0  0  0  0  0  0  0  0  0  0  0  0
    5.7765    2.8991   15.9128 O   0  0  0  0  0  0  0  0  0  0  0  0
    6.4582    4.1268   15.5547 C   0  0  0  0  0  0  0  0  0  0  0  0
    7.9239    3.6827   15.7745 C   0  0  0  0  0  0  0  0  0  0  0  0
    6.2674    4.5476   14.0554 C   0  0  0  0  0  0  0  0  0  0  0  0
    6.0293    5.1817   16.4897 N   0  0  0  0  0  0  0  0  0  0  0  0
    6.7553    6.2709   16.9726 C   0  0  0  0  0  0  0  0  0  0  0  0
    8.0726    6.7171   16.7485 C   0  0  0  0  0  0  0  0  0  0  0  0
    8.5303    7.8621   17.4099 C   0  0  0  0  0  0  0  0  0  0  0  0
    7.7031    8.5695   18.2683 C   0  0  0  0  0  0  0  0  0  0  0  0
    6.3882    8.1526   18.4737 C   0  0  0  0  0  0  0  0  0  0  0  0
    5.8980    6.9995   17.8210 C   0  0  0  0  0  0  0  0  0  0  0  0
    4.6194    6.3797   17.7851 C   0  0  0  0  0  0  0  0  0  0  0  0
    3.3476    6.6159   18.3339 C   0  0  0  0  0  0  0  0  0  0  0  0
    2.2279    5.7839   18.0252 C   0  0  0  0  0  0  0  0  0  0  0  0
    2.2602    4.6720   17.1701 C   0  0  0  0  0  0  0  0  0  0  0  0
    1.3694    3.6845   16.6470 C   0  0  0  0  0  0  0  0  0  0  0  0
   -0.0117    3.4248   16.7920 C   0  0  0  0  0  0  0  0  0  0  0  0
   -0.5887    2.3433   16.1211 C   0  0  0  0  0  0  0  0  0  0  0  0
   -2.4403    2.0041   16.3212 Br  0  0  0  0  0  0  0  0  0  0  0  0
    0.1738    1.5126   15.3099 C   0  0  0  0  0  0  0  0  0  0  0  0
    1.5421    1.7415   15.1481 C   0  0  0  0  0  0  0  0  0  0  0  0
    2.1223    2.8315   15.8219 C   0  0  0  0  0  0  0  0  0  0  0  0
    3.4350    3.2809   15.8511 N   0  0  0  0  0  0  0  0  0  0  0  0
    3.5054    4.3929   16.6320 C   0  0  0  0  0  0  0  0  0  0  0  0
    4.7411    5.2877   16.9527 C   0  0  0  0  0  0  0  0  0  0  0  0
    1.0777    6.3283   18.7607 C   0  0  0  0  0  0  0  0  0  0  0  0
   -0.0520    5.8872   18.8068 O   0  0  0  0  0  0  0  0  0  0  0  0
    1.5069    7.4587   19.4164 N   0  0  0  0  0  0  0  0  0  0  0  0
    2.9041    7.6867   19.2882 C   0  0  0  0  0  0  0  0  0  0  0  0
    3.0467    8.9791   18.7609 O   0  0  0  0  0  0  0  0  0  0  0  0
    0.9062    8.0509   19.9240 H   0  0  0  0  0  0  0  0  0  0  0  0
    2.5358    9.0514   17.9395 H   0  0  0  0  0  0  0  0  0  0  0  0
    5.9780    2.2898   10.9891 C   0  0  0  0  0  0  0  0  0  0  0  0
    5.8491    3.5053   11.7780 N   0  0  0  0  0  0  0  0  0  0  0  0
    4.9335    3.9154   11.5938 H   0  0  0  0  0  0  0  0  0  0  0  0
    5.1346    5.4205   13.8524 O   0  0  0  0  0  0  0  0  0  0  0  0
    5.4997    6.7377   13.4604 C   0  0  0  0  0  0  0  0  0  0  0  0
 36 37  1  0
  1 37  1  0
  1  2  1  0
  3  2  1  0
  3  4  1  0
  4  5  1  0
  5  6  1  0
  5  7  1  0
  7 39  1  0
 39 40  1  0
  5  8  1  0
  8  9  1  0
  9 10  2  0
 10 11  1  0
 11 12  2  0
 12 13  1  0
 13 14  2  0
 14 15  1  0
 15 16  2  0
 16 17  1  0
 17 18  2  0
 18 19  1  0
 19 20  2  0
 20 21  1  0
 21 22  1  0
 21 23  2  0
 23 24  1  0
 24 25  2  0
 25 26  1  0
 26 27  1  0
 27 28  2  0
 17 29  1  0
 29 30  2  0
 29 31  1  0
 31 32  1  0
 32 33  1  0
  7  1  1  0
 28  8  1  0
 26  3  1  0
 14  9  1  0
 28 15  1  0
 32 16  1  0
 27 18  1  0
 25 19  1  0
 37 38  1  0
 31 34  1  0
 33 35  1  0
M  END
> <minimizedAffinity>
-11.01829

> <CNNscore>
0.1377902329

> <CNNaffinity>
6.4016823769

> <CNN_VS>
0.8820893168

> <CNNaffinity_variance>
0.3730560243

$$$$
