


 33 36  0  0  0  0  0  0  0  0999 V2000
    8.2980   38.2437   59.7544 C   0  0  0  0  0  0  0  0  0  0  0  0
    7.3431   37.9394   58.8609 N   0  0  0  0  0  0  0  0  0  0  0  0
    6.3012   37.2084   59.2833 C   0  0  0  0  0  0  0  0  0  0  0  0
    6.1358   36.7406   60.5146 N   0  0  0  0  0  0  0  0  0  0  0  0
    7.1153   37.0505   61.3717 C   0  0  0  0  0  0  0  0  0  0  0  0
    6.8071   36.4451   62.9577 Cl  0  0  0  0  0  0  0  0  0  0  0  0
    8.2480   37.7849   61.0635 C   0  0  0  0  0  0  0  0  0  0  0  0
    9.3034   38.0961   62.0776 C   0  0  0  0  0  0  0  0  0  0  0  0
    9.3945   39.0116   59.3325 N   0  0  0  0  0  0  0  0  0  0  0  0
   10.1968   38.6054   58.9316 H   0  0  0  0  0  0  0  0  0  0  0  0
    9.2663   40.4542   59.5277 C   0  0  0  0  0  0  0  0  0  0  0  0
   13.0383   43.2581   57.0368 C   0  0  0  0  0  0  0  0  0  0  0  0
   12.2343   42.4720   58.0118 C   0  0  0  0  0  0  0  0  0  0  0  0
   12.6457   42.1382   59.2149 N   0  0  0  0  0  0  0  0  0  0  0  0
   11.6661   41.4105   59.8734 C   0  0  0  0  0  0  0  0  0  0  0  0
   11.9405   40.9457   61.2588 C   0  0  0  0  0  0  0  0  0  0  0  0
   10.5087   41.1998   59.1411 C   0  0  0  0  0  0  0  0  0  0  0  0
   10.6538   41.9432   57.6011 S   0  0  0  0  0  0  0  0  0  0  0  0
    5.3176   36.8533   58.3900 O   0  0  0  0  0  0  0  0  0  0  0  0
    5.8107   36.4138   57.1262 C   0  0  0  0  0  0  0  0  0  0  0  0
    5.0248   35.2118   56.5960 C   0  0  0  0  0  0  0  0  0  0  0  0
    5.0491   35.0809   55.0697 C   0  0  0  0  0  0  0  0  0  0  0  0
    6.0838   34.1004   54.5783 C   0  0  0  0  0  0  0  0  0  0  0  0
    5.8003   32.7416   54.5131 C   0  0  0  0  0  0  0  0  0  0  0  0
    6.7945   31.8744   54.0729 C   0  0  0  0  0  0  0  0  0  0  0  0
    8.0479   32.3808   53.7073 C   0  0  0  0  0  0  0  0  0  0  0  0
    9.0808   31.5438   53.2496 C   0  0  0  0  0  0  0  0  0  0  0  0
   10.3116   32.0917   52.8946 C   0  0  0  0  0  0  0  0  0  0  0  0
   11.6973   30.9694   52.2707 Br  0  0  0  0  0  0  0  0  0  0  0  0
   10.5245   33.4613   52.9979 C   0  0  0  0  0  0  0  0  0  0  0  0
    9.4920   34.2850   53.4570 C   0  0  0  0  0  0  0  0  0  0  0  0
    8.2518   33.7721   53.8118 C   0  0  0  0  0  0  0  0  0  0  0  0
    7.2930   34.6077   54.2428 N   0  0  0  0  0  0  0  0  0  0  0  0
 12 13  1  0
 13 14  2  0
 14 15  1  0
 15 16  1  0
 15 17  2  0
 17 11  1  0
 11  9  1  0
  9  1  1  0
  1  2  2  0
  2  3  1  0
  3 19  1  0
 19 20  1  0
 20 21  1  0
 21 22  1  0
 22 23  1  0
 23 24  2  0
 24 25  1  0
 25 26  2  0
 26 27  1  0
 27 28  2  0
 28 29  1  0
 28 30  1  0
 30 31  2  0
 31 32  1  0
 32 33  2  0
  3  4  2  0
  4  5  1  0
  5  6  1  0
  5  7  2  0
  7  8  1  0
 17 18  1  0
 18 13  1  0
  7  1  1  0
 33 23  1  0
 32 26  1  0
  9 10  1  0
M  END
> <minimizedAffinity>
-8.70940

> <CNNscore>
0.9785044193

> <CNNaffinity>
8.9465551376

> <CNN_VS>
8.7542438507

> <CNNaffinity_variance>
0.1453472525

$$$$



 33 36  0  0  0  0  0  0  0  0999 V2000
    8.1195   38.4776   59.7764 C   0  0  0  0  0  0  0  0  0  0  0  0
    7.2088   38.2984   58.8063 N   0  0  0  0  0  0  0  0  0  0  0  0
    6.2198   37.4211   59.0312 C   0  0  0  0  0  0  0  0  0  0  0  0
    6.0681   36.6950   60.1320 N   0  0  0  0  0  0  0  0  0  0  0  0
    7.0037   36.8892   61.0686 C   0  0  0  0  0  0  0  0  0  0  0  0
    6.7138   35.9442   62.4828 Cl  0  0  0  0  0  0  0  0  0  0  0  0
    8.0808   37.7525   60.9594 C   0  0  0  0  0  0  0  0  0  0  0  0
    9.0889   37.9205   62.0524 C   0  0  0  0  0  0  0  0  0  0  0  0
    9.1602   39.3948   59.5616 N   0  0  0  0  0  0  0  0  0  0  0  0
    9.6081   39.8635   60.3025 H   0  0  0  0  0  0  0  0  0  0  0  0
    9.5345   39.6078   58.1652 C   0  0  0  0  0  0  0  0  0  0  0  0
   14.3597   41.8422   58.0287 C   0  0  0  0  0  0  0  0  0  0  0  0
   12.9004   41.5588   57.9584 C   0  0  0  0  0  0  0  0  0  0  0  0
   11.9876   42.4440   57.6246 N   0  0  0  0  0  0  0  0  0  0  0  0
   10.7264   41.8683   57.6531 C   0  0  0  0  0  0  0  0  0  0  0  0
    9.5551   42.7114   57.2957 C   0  0  0  0  0  0  0  0  0  0  0  0
   10.7066   40.5317   58.0182 C   0  0  0  0  0  0  0  0  0  0  0  0
   12.3068   39.9889   58.3179 S   0  0  0  0  0  0  0  0  0  0  0  0
    5.2844   37.1902   58.0497 O   0  0  0  0  0  0  0  0  0  0  0  0
    5.8365   37.0406   56.7435 C   0  0  0  0  0  0  0  0  0  0  0  0
    5.9074   35.5709   56.3211 C   0  0  0  0  0  0  0  0  0  0  0  0
    6.8174   35.3166   55.1150 C   0  0  0  0  0  0  0  0  0  0  0  0
    6.7839   33.8853   54.6423 C   0  0  0  0  0  0  0  0  0  0  0  0
    7.9616   33.1752   54.4431 C   0  0  0  0  0  0  0  0  0  0  0  0
    7.8796   31.8642   53.9863 C   0  0  0  0  0  0  0  0  0  0  0  0
    6.6263   31.2905   53.7390 C   0  0  0  0  0  0  0  0  0  0  0  0
    6.4937   29.9669   53.2837 C   0  0  0  0  0  0  0  0  0  0  0  0
    5.2262   29.4365   53.0527 C   0  0  0  0  0  0  0  0  0  0  0  0
    5.0462   27.6552   52.4499 Br  0  0  0  0  0  0  0  0  0  0  0  0
    4.0930   30.2130   53.2639 C   0  0  0  0  0  0  0  0  0  0  0  0
    4.2354   31.5292   53.7139 C   0  0  0  0  0  0  0  0  0  0  0  0
    5.4831   32.0856   53.9606 C   0  0  0  0  0  0  0  0  0  0  0  0
    5.5638   33.3534   54.3958 N   0  0  0  0  0  0  0  0  0  0  0  0
 12 13  1  0
 13 14  2  0
 14 15  1  0
 15 16  1  0
 15 17  2  0
 17 11  1  0
 11  9  1  0
  9  1  1  0
  1  2  2  0
  2  3  1  0
  3 19  1  0
 19 20  1  0
 20 21  1  0
 21 22  1  0
 22 23  1  0
 23 24  2  0
 24 25  1  0
 25 26  2  0
 26 27  1  0
 27 28  2  0
 28 29  1  0
 28 30  1  0
 30 31  2  0
 31 32  1  0
 32 33  2  0
  3  4  2  0
  4  5  1  0
  5  6  1  0
  5  7  2  0
  7  8  1  0
 17 18  1  0
 18 13  1  0
  7  1  1  0
 33 23  1  0
 32 26  1  0
  9 10  1  0
M  END
> <minimizedAffinity>
-8.43533

> <CNNscore>
0.9379189610

> <CNNaffinity>
8.5445632935

> <CNN_VS>
8.0141077042

> <CNNaffinity_variance>
0.0524366610

$$$$



 33 36  0  0  0  0  0  0  0  0999 V2000
    8.2953   38.3323   59.9776 C   0  0  0  0  0  0  0  0  0  0  0  0
    7.3177   38.1928   59.0680 N   0  0  0  0  0  0  0  0  0  0  0  0
    6.2467   37.4610   59.4079 C   0  0  0  0  0  0  0  0  0  0  0  0
    6.0720   36.8427   60.5696 N   0  0  0  0  0  0  0  0  0  0  0  0
    7.0741   36.9915   61.4436 C   0  0  0  0  0  0  0  0  0  0  0  0
    6.7540   36.1967   62.9411 Cl  0  0  0  0  0  0  0  0  0  0  0  0
    8.2372   37.7075   61.2158 C   0  0  0  0  0  0  0  0  0  0  0  0
    9.3168   37.8333   62.2443 C   0  0  0  0  0  0  0  0  0  0  0  0
    9.4228   39.0982   59.6421 N   0  0  0  0  0  0  0  0  0  0  0  0
    9.9511   39.5792   60.3194 H   0  0  0  0  0  0  0  0  0  0  0  0
    9.7602   39.1340   58.2207 C   0  0  0  0  0  0  0  0  0  0  0  0
   10.3192   43.4936   55.2247 C   0  0  0  0  0  0  0  0  0  0  0  0
   10.0236   42.5190   56.3100 C   0  0  0  0  0  0  0  0  0  0  0  0
    9.5080   42.8402   57.4758 N   0  0  0  0  0  0  0  0  0  0  0  0
    9.3545   41.7083   58.2619 C   0  0  0  0  0  0  0  0  0  0  0  0
    8.7753   41.8643   59.6223 C   0  0  0  0  0  0  0  0  0  0  0  0
    9.7676   40.5273   57.6661 C   0  0  0  0  0  0  0  0  0  0  0  0
   10.3473   40.8487   56.0831 S   0  0  0  0  0  0  0  0  0  0  0  0
    5.2380   37.2724   58.4922 O   0  0  0  0  0  0  0  0  0  0  0  0
    5.6944   36.9142   57.1896 C   0  0  0  0  0  0  0  0  0  0  0  0
    5.2480   35.5029   56.7989 C   0  0  0  0  0  0  0  0  0  0  0  0
    4.1638   35.4739   55.7168 C   0  0  0  0  0  0  0  0  0  0  0  0
    4.3904   34.3993   54.6837 C   0  0  0  0  0  0  0  0  0  0  0  0
    3.4758   34.1965   53.6573 C   0  0  0  0  0  0  0  0  0  0  0  0
    3.7183   33.1791   52.7407 C   0  0  0  0  0  0  0  0  0  0  0  0
    4.8665   32.3874   52.8672 C   0  0  0  0  0  0  0  0  0  0  0  0
    5.1572   31.3527   51.9607 C   0  0  0  0  0  0  0  0  0  0  0  0
    6.3127   30.5916   52.1243 C   0  0  0  0  0  0  0  0  0  0  0  0
    6.7092   29.2071   50.9016 Br  0  0  0  0  0  0  0  0  0  0  0  0
    7.1752   30.8466   53.1838 C   0  0  0  0  0  0  0  0  0  0  0  0
    6.8759   31.8759   54.0817 C   0  0  0  0  0  0  0  0  0  0  0  0
    5.7370   32.6575   53.9432 C   0  0  0  0  0  0  0  0  0  0  0  0
    5.4986   33.6362   54.8311 N   0  0  0  0  0  0  0  0  0  0  0  0
 12 13  1  0
 13 14  2  0
 14 15  1  0
 15 16  1  0
 15 17  2  0
 17 11  1  0
 11  9  1  0
  9  1  1  0
  1  2  2  0
  2  3  1  0
  3 19  1  0
 19 20  1  0
 20 21  1  0
 21 22  1  0
 22 23  1  0
 23 24  2  0
 24 25  1  0
 25 26  2  0
 26 27  1  0
 27 28  2  0
 28 29  1  0
 28 30  1  0
 30 31  2  0
 31 32  1  0
 32 33  2  0
  3  4  2  0
  4  5  1  0
  5  6  1  0
  5  7  2  0
  7  8  1  0
 17 18  1  0
 18 13  1  0
  7  1  1  0
 33 23  1  0
 32 26  1  0
  9 10  1  0
M  END
> <minimizedAffinity>
-8.51923

> <CNNscore>
0.8967487216

> <CNNaffinity>
8.4342145920

> <CNN_VS>
7.5633711815

> <CNNaffinity_variance>
0.0447386689

$$$$



 33 36  0  0  0  0  0  0  0  0999 V2000
    8.1646   38.3152   59.4791 C   0  0  0  0  0  0  0  0  0  0  0  0
    7.1698   37.9743   58.6442 N   0  0  0  0  0  0  0  0  0  0  0  0
    6.1901   37.1945   59.1241 C   0  0  0  0  0  0  0  0  0  0  0  0
    6.1233   36.7115   60.3588 N   0  0  0  0  0  0  0  0  0  0  0  0
    7.1402   37.0594   61.1558 C   0  0  0  0  0  0  0  0  0  0  0  0
    6.9596   36.4302   62.7522 Cl  0  0  0  0  0  0  0  0  0  0  0  0
    8.2175   37.8460   60.7844 C   0  0  0  0  0  0  0  0  0  0  0  0
    9.3198   38.1975   61.7334 C   0  0  0  0  0  0  0  0  0  0  0  0
    9.1973   39.1344   58.9966 N   0  0  0  0  0  0  0  0  0  0  0  0
    9.4040   40.0095   59.3977 H   0  0  0  0  0  0  0  0  0  0  0  0
    9.9451   38.6021   57.8596 C   0  0  0  0  0  0  0  0  0  0  0  0
    9.7991   42.4919   54.2342 C   0  0  0  0  0  0  0  0  0  0  0  0
    9.7032   41.1992   54.9656 C   0  0  0  0  0  0  0  0  0  0  0  0
    9.2545   40.0808   54.4404 N   0  0  0  0  0  0  0  0  0  0  0  0
    9.2935   39.0598   55.3778 C   0  0  0  0  0  0  0  0  0  0  0  0
    8.8317   37.7065   54.9704 C   0  0  0  0  0  0  0  0  0  0  0  0
    9.7780   39.4320   56.6217 C   0  0  0  0  0  0  0  0  0  0  0  0
   10.2034   41.0944   56.6042 S   0  0  0  0  0  0  0  0  0  0  0  0
    5.1690   36.8016   58.2907 O   0  0  0  0  0  0  0  0  0  0  0  0
    5.4614   35.6372   57.5213 C   0  0  0  0  0  0  0  0  0  0  0  0
    5.4096   35.9212   56.0180 C   0  0  0  0  0  0  0  0  0  0  0  0
    4.8641   34.7557   55.1863 C   0  0  0  0  0  0  0  0  0  0  0  0
    5.9487   33.8584   54.6461 C   0  0  0  0  0  0  0  0  0  0  0  0
    5.7321   32.4942   54.4945 C   0  0  0  0  0  0  0  0  0  0  0  0
    6.7703   31.7047   54.0119 C   0  0  0  0  0  0  0  0  0  0  0  0
    8.0002   32.2923   53.6908 C   0  0  0  0  0  0  0  0  0  0  0  0
    9.0757   31.5358   53.1930 C   0  0  0  0  0  0  0  0  0  0  0  0
   10.2810   32.1631   52.8849 C   0  0  0  0  0  0  0  0  0  0  0  0
   11.7240   31.1494   52.2072 Br  0  0  0  0  0  0  0  0  0  0  0  0
   10.4264   33.5323   53.0743 C   0  0  0  0  0  0  0  0  0  0  0  0
    9.3519   34.2755   53.5727 C   0  0  0  0  0  0  0  0  0  0  0  0
    8.1355   33.6827   53.8827 C   0  0  0  0  0  0  0  0  0  0  0  0
    7.1343   34.4430   54.3546 N   0  0  0  0  0  0  0  0  0  0  0  0
 12 13  1  0
 13 14  2  0
 14 15  1  0
 15 16  1  0
 15 17  2  0
 17 11  1  0
 11  9  1  0
  9  1  1  0
  1  2  2  0
  2  3  1  0
  3 19  1  0
 19 20  1  0
 20 21  1  0
 21 22  1  0
 22 23  1  0
 23 24  2  0
 24 25  1  0
 25 26  2  0
 26 27  1  0
 27 28  2  0
 28 29  1  0
 28 30  1  0
 30 31  2  0
 31 32  1  0
 32 33  2  0
  3  4  2  0
  4  5  1  0
  5  6  1  0
  5  7  2  0
  7  8  1  0
 17 18  1  0
 18 13  1  0
  7  1  1  0
 33 23  1  0
 32 26  1  0
  9 10  1  0
M  END
> <minimizedAffinity>
-8.14145

> <CNNscore>
0.8813329339

> <CNNaffinity>
8.4240140915

> <CNN_VS>
7.4243612289

> <CNNaffinity_variance>
0.0311375652

$$$$



 33 36  0  0  0  0  0  0  0  0999 V2000
    8.3314   38.0962   59.5841 C   0  0  0  0  0  0  0  0  0  0  0  0
    7.4739   37.7478   58.6114 N   0  0  0  0  0  0  0  0  0  0  0  0
    6.4036   37.0159   58.9537 C   0  0  0  0  0  0  0  0  0  0  0  0
    6.1216   36.5874   60.1780 N   0  0  0  0  0  0  0  0  0  0  0  0
    7.0072   36.9406   61.1167 C   0  0  0  0  0  0  0  0  0  0  0  0
    6.5493   36.3844   62.6845 Cl  0  0  0  0  0  0  0  0  0  0  0  0
    8.1564   37.6811   60.8970 C   0  0  0  0  0  0  0  0  0  0  0  0
    9.1018   38.0419   61.9994 C   0  0  0  0  0  0  0  0  0  0  0  0
    9.4557   38.8658   59.2465 N   0  0  0  0  0  0  0  0  0  0  0  0
   10.3741   38.5264   59.3489 H   0  0  0  0  0  0  0  0  0  0  0  0
    9.1723   40.2042   58.7327 C   0  0  0  0  0  0  0  0  0  0  0  0
   14.1561   42.0355   58.4125 C   0  0  0  0  0  0  0  0  0  0  0  0
   12.6858   41.8320   58.3037 C   0  0  0  0  0  0  0  0  0  0  0  0
   11.8657   42.6563   57.6905 N   0  0  0  0  0  0  0  0  0  0  0  0
   10.5642   42.1839   57.7652 C   0  0  0  0  0  0  0  0  0  0  0  0
    9.4849   42.9773   57.1199 C   0  0  0  0  0  0  0  0  0  0  0  0
   10.4191   40.9879   58.4499 C   0  0  0  0  0  0  0  0  0  0  0  0
   11.9520   40.4439   58.9973 S   0  0  0  0  0  0  0  0  0  0  0  0
    5.5181   36.6163   57.9801 O   0  0  0  0  0  0  0  0  0  0  0  0
    6.1202   36.3735   56.7104 C   0  0  0  0  0  0  0  0  0  0  0  0
    5.6731   35.0357   56.1157 C   0  0  0  0  0  0  0  0  0  0  0  0
    5.9131   34.9178   54.6071 C   0  0  0  0  0  0  0  0  0  0  0  0
    7.3631   35.0788   54.2263 C   0  0  0  0  0  0  0  0  0  0  0  0
    8.2374   34.0004   54.2871 C   0  0  0  0  0  0  0  0  0  0  0  0
    9.5702   34.2037   53.9458 C   0  0  0  0  0  0  0  0  0  0  0  0
   10.0013   35.4763   53.5514 C   0  0  0  0  0  0  0  0  0  0  0  0
   11.3367   35.7278   53.1904 C   0  0  0  0  0  0  0  0  0  0  0  0
   11.7206   37.0096   52.8023 C   0  0  0  0  0  0  0  0  0  0  0  0
   13.5126   37.3468   52.3081 Br  0  0  0  0  0  0  0  0  0  0  0  0
   10.7904   38.0419   52.7772 C   0  0  0  0  0  0  0  0  0  0  0  0
    9.4653   37.7825   53.1409 C   0  0  0  0  0  0  0  0  0  0  0  0
    9.0484   36.5154   53.5254 C   0  0  0  0  0  0  0  0  0  0  0  0
    7.7631   36.3192   53.8610 N   0  0  0  0  0  0  0  0  0  0  0  0
 12 13  1  0
 13 14  2  0
 14 15  1  0
 15 16  1  0
 15 17  2  0
 17 11  1  0
 11  9  1  0
  9  1  1  0
  1  2  2  0
  2  3  1  0
  3 19  1  0
 19 20  1  0
 20 21  1  0
 21 22  1  0
 22 23  1  0
 23 24  2  0
 24 25  1  0
 25 26  2  0
 26 27  1  0
 27 28  2  0
 28 29  1  0
 28 30  1  0
 30 31  2  0
 31 32  1  0
 32 33  2  0
  3  4  2  0
  4  5  1  0
  5  6  1  0
  5  7  2  0
  7  8  1  0
 17 18  1  0
 18 13  1  0
  7  1  1  0
 33 23  1  0
 32 26  1  0
  9 10  1  0
M  END
> <minimizedAffinity>
-8.11099

> <CNNscore>
0.8620683551

> <CNNaffinity>
8.4767751694

> <CNN_VS>
7.3075594902

> <CNNaffinity_variance>
0.0564810038

$$$$



 33 36  0  0  0  0  0  0  0  0999 V2000
    8.5724   38.1529   60.0151 C   0  0  0  0  0  0  0  0  0  0  0  0
    7.7996   37.9226   58.9416 N   0  0  0  0  0  0  0  0  0  0  0  0
    6.6890   37.1915   59.1155 C   0  0  0  0  0  0  0  0  0  0  0  0
    6.2896   36.6562   60.2628 N   0  0  0  0  0  0  0  0  0  0  0  0
    7.0936   36.8937   61.3056 C   0  0  0  0  0  0  0  0  0  0  0  0
    6.4857   36.2035   62.7654 Cl  0  0  0  0  0  0  0  0  0  0  0  0
    8.2719   37.6195   61.2609 C   0  0  0  0  0  0  0  0  0  0  0  0
    9.1207   37.8474   62.4720 C   0  0  0  0  0  0  0  0  0  0  0  0
    9.7370   38.9197   59.8542 N   0  0  0  0  0  0  0  0  0  0  0  0
   10.5826   38.6906   60.3033 H   0  0  0  0  0  0  0  0  0  0  0  0
    9.6109   40.0807   58.9757 C   0  0  0  0  0  0  0  0  0  0  0  0
   13.6436   43.3378   57.7826 C   0  0  0  0  0  0  0  0  0  0  0  0
   12.6763   42.4283   58.4550 C   0  0  0  0  0  0  0  0  0  0  0  0
   12.7594   42.0551   59.7127 N   0  0  0  0  0  0  0  0  0  0  0  0
   11.7088   41.2090   60.0337 C   0  0  0  0  0  0  0  0  0  0  0  0
   11.6221   40.6828   61.4215 C   0  0  0  0  0  0  0  0  0  0  0  0
   10.8332   40.9494   58.9913 C   0  0  0  0  0  0  0  0  0  0  0  0
   11.3368   41.7972   57.5868 S   0  0  0  0  0  0  0  0  0  0  0  0
    5.8874   36.9112   58.0336 O   0  0  0  0  0  0  0  0  0  0  0  0
    6.5879   36.8397   56.7936 C   0  0  0  0  0  0  0  0  0  0  0  0
    5.9949   35.7761   55.8661 C   0  0  0  0  0  0  0  0  0  0  0  0
    4.6482   35.2213   56.3416 C   0  0  0  0  0  0  0  0  0  0  0  0
    3.6597   35.0303   55.2192 C   0  0  0  0  0  0  0  0  0  0  0  0
    2.4232   35.6639   55.2463 C   0  0  0  0  0  0  0  0  0  0  0  0
    1.5372   35.4399   54.1980 C   0  0  0  0  0  0  0  0  0  0  0  0
    1.9034   34.5904   53.1466 C   0  0  0  0  0  0  0  0  0  0  0  0
    1.0442   34.3398   52.0623 C   0  0  0  0  0  0  0  0  0  0  0  0
    1.4513   33.4888   51.0370 C   0  0  0  0  0  0  0  0  0  0  0  0
    0.3014   33.1585   49.5749 Br  0  0  0  0  0  0  0  0  0  0  0  0
    2.7004   32.8814   51.0854 C   0  0  0  0  0  0  0  0  0  0  0  0
    3.5466   33.1346   52.1695 C   0  0  0  0  0  0  0  0  0  0  0  0
    3.1746   33.9827   53.2036 C   0  0  0  0  0  0  0  0  0  0  0  0
    4.0268   34.1950   54.2194 N   0  0  0  0  0  0  0  0  0  0  0  0
 12 13  1  0
 13 14  2  0
 14 15  1  0
 15 16  1  0
 15 17  2  0
 17 11  1  0
 11  9  1  0
  9  1  1  0
  1  2  2  0
  2  3  1  0
  3 19  1  0
 19 20  1  0
 20 21  1  0
 21 22  1  0
 22 23  1  0
 23 24  2  0
 24 25  1  0
 25 26  2  0
 26 27  1  0
 27 28  2  0
 28 29  1  0
 28 30  1  0
 30 31  2  0
 31 32  1  0
 32 33  2  0
  3  4  2  0
  4  5  1  0
  5  6  1  0
  5  7  2  0
  7  8  1  0
 17 18  1  0
 18 13  1  0
  7  1  1  0
 33 23  1  0
 32 26  1  0
  9 10  1  0
M  END
> <minimizedAffinity>
-8.76274

> <CNNscore>
0.8468809128

> <CNNaffinity>
8.4931039810

> <CNN_VS>
7.1926474571

> <CNNaffinity_variance>
0.0512680225

$$$$



 33 36  0  0  0  0  0  0  0  0999 V2000
    9.1065   38.9659   59.5032 C   0  0  0  0  0  0  0  0  0  0  0  0
    8.5000   38.6399   58.3506 N   0  0  0  0  0  0  0  0  0  0  0  0
    7.5066   37.7405   58.3991 C   0  0  0  0  0  0  0  0  0  0  0  0
    7.0754   37.1256   59.4937 N   0  0  0  0  0  0  0  0  0  0  0  0
    7.7147   37.4642   60.6193 C   0  0  0  0  0  0  0  0  0  0  0  0
    7.0697   36.6572   62.0012 Cl  0  0  0  0  0  0  0  0  0  0  0  0
    8.7615   38.3664   60.7067 C   0  0  0  0  0  0  0  0  0  0  0  0
    9.4283   38.6990   62.0043 C   0  0  0  0  0  0  0  0  0  0  0  0
   10.1460   39.9087   59.4737 N   0  0  0  0  0  0  0  0  0  0  0  0
   10.1422   40.7123   60.0424 H   0  0  0  0  0  0  0  0  0  0  0  0
   11.2343   39.6181   58.5428 C   0  0  0  0  0  0  0  0  0  0  0  0
   13.1681   44.3696   57.1361 C   0  0  0  0  0  0  0  0  0  0  0  0
   12.9836   42.9767   57.6267 C   0  0  0  0  0  0  0  0  0  0  0  0
   13.9507   42.2216   58.0986 N   0  0  0  0  0  0  0  0  0  0  0  0
   13.4543   40.9820   58.4722 C   0  0  0  0  0  0  0  0  0  0  0  0
   14.3978   39.9835   59.0406 C   0  0  0  0  0  0  0  0  0  0  0  0
   12.0933   40.8167   58.2697 C   0  0  0  0  0  0  0  0  0  0  0  0
   11.4270   42.2535   57.6090 S   0  0  0  0  0  0  0  0  0  0  0  0
    6.8806   37.3607   57.2349 O   0  0  0  0  0  0  0  0  0  0  0  0
    5.5203   36.9691   57.4068 C   0  0  0  0  0  0  0  0  0  0  0  0
    5.2670   35.5511   56.8887 C   0  0  0  0  0  0  0  0  0  0  0  0
    4.2294   35.4793   55.7637 C   0  0  0  0  0  0  0  0  0  0  0  0
    4.5439   34.4197   54.7381 C   0  0  0  0  0  0  0  0  0  0  0  0
    3.6592   34.1500   53.7011 C   0  0  0  0  0  0  0  0  0  0  0  0
    3.9841   33.1489   52.7920 C   0  0  0  0  0  0  0  0  0  0  0  0
    5.1831   32.4400   52.9365 C   0  0  0  0  0  0  0  0  0  0  0  0
    5.5571   31.4251   52.0382 C   0  0  0  0  0  0  0  0  0  0  0  0
    6.7607   30.7472   52.2197 C   0  0  0  0  0  0  0  0  0  0  0  0
    7.2689   29.3897   51.0081 Br  0  0  0  0  0  0  0  0  0  0  0  0
    7.5895   31.0654   53.2890 C   0  0  0  0  0  0  0  0  0  0  0  0
    7.2073   32.0742   54.1787 C   0  0  0  0  0  0  0  0  0  0  0  0
    6.0185   32.7738   54.0223 C   0  0  0  0  0  0  0  0  0  0  0  0
    5.7007   33.7364   54.9030 N   0  0  0  0  0  0  0  0  0  0  0  0
 12 13  1  0
 13 14  2  0
 14 15  1  0
 15 16  1  0
 15 17  2  0
 17 11  1  0
 11  9  1  0
  9  1  1  0
  1  2  2  0
  2  3  1  0
  3 19  1  0
 19 20  1  0
 20 21  1  0
 21 22  1  0
 22 23  1  0
 23 24  2  0
 24 25  1  0
 25 26  2  0
 26 27  1  0
 27 28  2  0
 28 29  1  0
 28 30  1  0
 30 31  2  0
 31 32  1  0
 32 33  2  0
  3  4  2  0
  4  5  1  0
  5  6  1  0
  5  7  2  0
  7  8  1  0
 17 18  1  0
 18 13  1  0
  7  1  1  0
 33 23  1  0
 32 26  1  0
  9 10  1  0
M  END
> <minimizedAffinity>
-8.26838

> <CNNscore>
0.8000679612

> <CNNaffinity>
8.2358045578

> <CNN_VS>
6.5892033577

> <CNNaffinity_variance>
0.1343322992

$$$$



 33 36  0  0  0  0  0  0  0  0999 V2000
    4.8662   35.0168   55.3067 C   0  0  0  0  0  0  0  0  0  0  0  0
    4.5091   35.4957   56.5091 N   0  0  0  0  0  0  0  0  0  0  0  0
    5.3819   36.2846   57.1525 C   0  0  0  0  0  0  0  0  0  0  0  0
    6.5861   36.6251   56.7095 N   0  0  0  0  0  0  0  0  0  0  0  0
    6.9124   36.1156   55.5161 C   0  0  0  0  0  0  0  0  0  0  0  0
    8.4707   36.6375   54.9906 Cl  0  0  0  0  0  0  0  0  0  0  0  0
    6.1122   35.2805   54.7547 C   0  0  0  0  0  0  0  0  0  0  0  0
    6.5435   34.7500   53.4236 C   0  0  0  0  0  0  0  0  0  0  0  0
    3.9645   34.1925   54.6155 N   0  0  0  0  0  0  0  0  0  0  0  0
    3.6747   33.3201   54.9679 H   0  0  0  0  0  0  0  0  0  0  0  0
    3.4845   34.7153   53.3381 C   0  0  0  0  0  0  0  0  0  0  0  0
   -1.3566   36.3973   54.7629 C   0  0  0  0  0  0  0  0  0  0  0  0
   -0.1674   35.8828   54.0307 C   0  0  0  0  0  0  0  0  0  0  0  0
   -0.1694   35.5351   52.7629 N   0  0  0  0  0  0  0  0  0  0  0  0
    1.0905   35.0995   52.3817 C   0  0  0  0  0  0  0  0  0  0  0  0
    1.2945   34.6680   50.9736 C   0  0  0  0  0  0  0  0  0  0  0  0
    2.0422   35.1230   53.3888 C   0  0  0  0  0  0  0  0  0  0  0  0
    1.3387   35.7168   54.8371 S   0  0  0  0  0  0  0  0  0  0  0  0
    5.0626   36.7711   58.3987 O   0  0  0  0  0  0  0  0  0  0  0  0
    6.0318   37.6663   58.9396 C   0  0  0  0  0  0  0  0  0  0  0  0
    6.8416   37.0159   60.0642 C   0  0  0  0  0  0  0  0  0  0  0  0
    7.7993   37.9785   60.7739 C   0  0  0  0  0  0  0  0  0  0  0  0
    8.8231   38.5824   59.8463 C   0  0  0  0  0  0  0  0  0  0  0  0
    8.8019   38.3016   58.4855 C   0  0  0  0  0  0  0  0  0  0  0  0
    9.7801   38.8661   57.6739 C   0  0  0  0  0  0  0  0  0  0  0  0
   10.7564   39.6976   58.2362 C   0  0  0  0  0  0  0  0  0  0  0  0
   11.7602   40.2962   57.4546 C   0  0  0  0  0  0  0  0  0  0  0  0
   12.7103   41.1184   58.0567 C   0  0  0  0  0  0  0  0  0  0  0  0
   14.0540   41.9308   57.0061 Br  0  0  0  0  0  0  0  0  0  0  0  0
   12.6738   41.3435   59.4277 C   0  0  0  0  0  0  0  0  0  0  0  0
   11.6734   40.7413   60.1969 C   0  0  0  0  0  0  0  0  0  0  0  0
   10.7076   39.9227   59.6274 C   0  0  0  0  0  0  0  0  0  0  0  0
    9.7662   39.3722   60.4110 N   0  0  0  0  0  0  0  0  0  0  0  0
 12 13  1  0
 13 14  2  0
 14 15  1  0
 15 16  1  0
 15 17  2  0
 17 11  1  0
 11  9  1  0
  9  1  1  0
  1  2  2  0
  2  3  1  0
  3 19  1  0
 19 20  1  0
 20 21  1  0
 21 22  1  0
 22 23  1  0
 23 24  2  0
 24 25  1  0
 25 26  2  0
 26 27  1  0
 27 28  2  0
 28 29  1  0
 28 30  1  0
 30 31  2  0
 31 32  1  0
 32 33  2  0
  3  4  2  0
  4  5  1  0
  5  6  1  0
  5  7  2  0
  7  8  1  0
 17 18  1  0
 18 13  1  0
  7  1  1  0
 33 23  1  0
 32 26  1  0
  9 10  1  0
M  END
> <minimizedAffinity>
-9.31949

> <CNNscore>
0.6916107535

> <CNNaffinity>
7.9282708168

> <CNN_VS>
5.4832773209

> <CNNaffinity_variance>
0.4048850238

$$$$



 33 36  0  0  0  0  0  0  0  0999 V2000
   -0.0192   35.1030   53.3346 C   0  0  0  0  0  0  0  0  0  0  0  0
    1.1583   34.9699   53.9658 N   0  0  0  0  0  0  0  0  0  0  0  0
    1.4101   35.7870   54.9988 C   0  0  0  0  0  0  0  0  0  0  0  0
    0.5977   36.7361   55.4476 N   0  0  0  0  0  0  0  0  0  0  0  0
   -0.5582   36.8490   54.7833 C   0  0  0  0  0  0  0  0  0  0  0  0
   -1.5754   38.0719   55.4518 Cl  0  0  0  0  0  0  0  0  0  0  0  0
   -0.9366   36.0802   53.6956 C   0  0  0  0  0  0  0  0  0  0  0  0
   -2.2503   36.2615   53.0025 C   0  0  0  0  0  0  0  0  0  0  0  0
   -0.3031   34.2540   52.2534 N   0  0  0  0  0  0  0  0  0  0  0  0
   -1.2213   34.1021   51.9323 H   0  0  0  0  0  0  0  0  0  0  0  0
    0.8547   33.6106   51.6362 C   0  0  0  0  0  0  0  0  0  0  0  0
    0.5713   28.6184   53.4507 C   0  0  0  0  0  0  0  0  0  0  0  0
    1.0103   29.9806   53.0426 C   0  0  0  0  0  0  0  0  0  0  0  0
    2.2356   30.4373   53.1780 N   0  0  0  0  0  0  0  0  0  0  0  0
    2.3195   31.7372   52.7030 C   0  0  0  0  0  0  0  0  0  0  0  0
    3.6342   32.4291   52.7620 C   0  0  0  0  0  0  0  0  0  0  0  0
    1.1317   32.2527   52.2092 C   0  0  0  0  0  0  0  0  0  0  0  0
   -0.1084   31.0731   52.3346 S   0  0  0  0  0  0  0  0  0  0  0  0
    2.6172   35.6991   55.6521 O   0  0  0  0  0  0  0  0  0  0  0  0
    3.6937   35.2565   54.8282 C   0  0  0  0  0  0  0  0  0  0  0  0
    4.9742   35.0335   55.6369 C   0  0  0  0  0  0  0  0  0  0  0  0
    4.7996   35.2472   57.1440 C   0  0  0  0  0  0  0  0  0  0  0  0
    5.8434   36.1608   57.7349 C   0  0  0  0  0  0  0  0  0  0  0  0
    6.6412   36.9511   56.9163 C   0  0  0  0  0  0  0  0  0  0  0  0
    7.6042   37.7619   57.5072 C   0  0  0  0  0  0  0  0  0  0  0  0
    7.7501   37.7673   58.9000 C   0  0  0  0  0  0  0  0  0  0  0  0
    8.7045   38.5757   59.5423 C   0  0  0  0  0  0  0  0  0  0  0  0
    8.8130   38.5504   60.9311 C   0  0  0  0  0  0  0  0  0  0  0  0
   10.0886   39.6430   61.7960 Br  0  0  0  0  0  0  0  0  0  0  0  0
    7.9865   37.7242   61.6833 C   0  0  0  0  0  0  0  0  0  0  0  0
    7.0425   36.9217   61.0350 C   0  0  0  0  0  0  0  0  0  0  0  0
    6.9036   36.9285   59.6538 C   0  0  0  0  0  0  0  0  0  0  0  0
    5.9782   36.1415   59.0816 N   0  0  0  0  0  0  0  0  0  0  0  0
 12 13  1  0
 13 14  2  0
 14 15  1  0
 15 16  1  0
 15 17  2  0
 17 11  1  0
 11  9  1  0
  9  1  1  0
  1  2  2  0
  2  3  1  0
  3 19  1  0
 19 20  1  0
 20 21  1  0
 21 22  1  0
 22 23  1  0
 23 24  2  0
 24 25  1  0
 25 26  2  0
 26 27  1  0
 27 28  2  0
 28 29  1  0
 28 30  1  0
 30 31  2  0
 31 32  1  0
 32 33  2  0
  3  4  2  0
  4  5  1  0
  5  6  1  0
  5  7  2  0
  7  8  1  0
 17 18  1  0
 18 13  1  0
  7  1  1  0
 33 23  1  0
 32 26  1  0
  9 10  1  0
M  END
> <minimizedAffinity>
-9.97374

> <CNNscore>
0.6224150658

> <CNNaffinity>
7.6152534485

> <CNN_VS>
4.7398486137

> <CNNaffinity_variance>
0.0355601311

$$$$
