


 40 43  0  0  0  0  0  0  0  0999 V2000
   22.8005    7.7758   15.8240 C   0  0  0  0  0  0  0  0  0  0  0  0
   22.5514    6.9138   14.6690 N   0  0  0  0  0  0  0  0  0  0  0  0
   23.5195    6.1205   14.1065 C   0  0  0  0  0  0  0  0  0  0  0  0
   24.7063    6.0466   14.3655 O   0  0  0  0  0  0  0  0  0  0  0  0
   22.8646    5.3354   13.0632 C   0  0  0  0  0  0  0  0  0  0  0  0
   23.3855    4.4194   12.1698 C   0  0  0  0  0  0  0  0  0  0  0  0
   22.4950    3.8341   11.2603 C   0  0  0  0  0  0  0  0  0  0  0  0
   21.1185    4.1735   11.2674 C   0  0  0  0  0  0  0  0  0  0  0  0
   20.6199    5.1044   12.1915 C   0  0  0  0  0  0  0  0  0  0  0  0
   21.5227    5.6674   13.0722 C   0  0  0  0  0  0  0  0  0  0  0  0
   21.3209    6.6630   14.1221 C   0  0  0  0  0  0  0  0  0  0  0  0
   20.2337    7.1314   14.4057 O   0  0  0  0  0  0  0  0  0  0  0  0
   20.1607    3.5704   10.3083 C   0  0  0  0  0  0  0  0  0  0  0  0
   19.2957    2.7626   10.5846 O   0  0  0  0  0  0  0  0  0  0  0  0
   20.3293    4.0175    9.0533 O   0  0  0  0  0  0  0  0  0  0  0  0
   21.0033    4.6405    8.8644 H   0  0  0  0  0  0  0  0  0  0  0  0
   23.1091    9.2518   15.4388 C   0  0  0  0  0  0  0  0  0  0  0  0
   21.9197   10.2733   15.3570 C   0  0  0  0  0  0  0  0  0  0  0  0
   21.5007   10.3861   13.8780 C   0  0  0  0  0  0  0  0  0  0  0  0
   20.6914    9.6761   16.0974 C   0  0  0  0  0  0  0  0  0  0  0  0
   22.2059   11.6654   16.0119 C   0  0  0  0  0  0  0  0  0  0  0  0
   21.3021   12.9515   15.8391 C   0  0  0  0  0  0  0  0  0  0  0  0
   21.2463   13.4185   14.3793 C   0  0  0  0  0  0  0  0  0  0  0  0
   22.0180   14.0549   16.6503 C   0  0  0  0  0  0  0  0  0  0  0  0
   19.8606   12.6638   16.3866 C   0  0  0  0  0  0  0  0  0  0  0  0
   18.2269   11.8058   18.1884 C   0  0  0  0  0  0  0  0  0  0  0  0
   19.4838   12.6480   17.9054 C   0  0  0  0  0  0  0  0  0  0  0  0
   20.6284   12.1974   18.8210 C   0  0  0  0  0  0  0  0  0  0  0  0
   19.1353   14.1089   18.2932 C   0  0  0  0  0  0  0  0  0  0  0  0
   21.6133    7.7233   16.8304 C   0  0  0  0  0  0  0  0  0  0  0  0
   21.9124    6.9339   18.0990 C   0  0  0  0  0  0  0  0  0  0  0  0
   20.8199    6.6228   18.9328 C   0  0  0  0  0  0  0  0  0  0  0  0
   21.0007    5.9341   20.1258 C   0  0  0  0  0  0  0  0  0  0  0  0
   22.2769    5.5337   20.5053 C   0  0  0  0  0  0  0  0  0  0  0  0
   23.3896    5.8118   19.6986 C   0  0  0  0  0  0  0  0  0  0  0  0
   24.6654    5.3822   20.1096 C   0  0  0  0  0  0  0  0  0  0  0  0
   25.7954    5.6363   19.3358 C   0  0  0  0  0  0  0  0  0  0  0  0
   25.6626    6.3310   18.1431 C   0  0  0  0  0  0  0  0  0  0  0  0
   24.3997    6.7632   17.7205 C   0  0  0  0  0  0  0  0  0  0  0  0
   23.2270    6.5197   18.4775 C   0  0  0  0  0  0  0  0  0  0  0  0
 26 27  1  0
 27 28  1  0
 27 29  1  0
 27 25  1  0
 25 22  1  0
 22 23  1  0
 22 24  1  0
 22 21  1  0
 21 18  1  0
 18 19  1  0
 18 20  1  0
 18 17  1  0
  1 17  1  0
  1 30  1  0
 30 31  1  0
 31 32  2  0
 32 33  1  0
 33 34  2  0
 34 35  1  0
 35 36  2  0
 36 37  1  0
 37 38  2  0
 38 39  1  0
 39 40  2  0
  1  2  1  0
  2  3  1  0
  3  4  2  0
  3  5  1  0
  5  6  2  0
  6  7  1  0
  7  8  2  0
  8 13  1  0
 13 14  2  0
 13 15  1  0
  8  9  1  0
  9 10  2  0
 10 11  1  0
 11 12  2  0
 40 31  1  0
 11  2  1  0
 40 35  1  0
 10  5  1  0
 15 16  1  0
M  END
> <minimizedAffinity>
-7.48130

> <CNNscore>
0.5504685640

> <CNNaffinity>
5.8778381348

> <CNN_VS>
3.2355651855

> <CNNaffinity_variance>
0.3287835419

$$$$



 40 43  0  0  0  0  0  0  0  0999 V2000
   23.6211    6.9679   13.3592 C   0  0  0  0  0  0  0  0  0  0  0  0
   23.8172    6.8196   14.8009 N   0  0  0  0  0  0  0  0  0  0  0  0
   22.7976    6.5099   15.6655 C   0  0  0  0  0  0  0  0  0  0  0  0
   21.6054    6.3992   15.4479 O   0  0  0  0  0  0  0  0  0  0  0  0
   23.4029    6.3389   16.9839 C   0  0  0  0  0  0  0  0  0  0  0  0
   22.8238    6.0648   18.2078 C   0  0  0  0  0  0  0  0  0  0  0  0
   23.6777    5.9764   19.3149 C   0  0  0  0  0  0  0  0  0  0  0  0
   25.0763    6.1600   19.1727 C   0  0  0  0  0  0  0  0  0  0  0  0
   25.6339    6.4325   17.9142 C   0  0  0  0  0  0  0  0  0  0  0  0
   24.7664    6.5177   16.8428 C   0  0  0  0  0  0  0  0  0  0  0  0
   25.0315    6.8013   15.4345 C   0  0  0  0  0  0  0  0  0  0  0  0
   26.1481    6.9716   14.9806 O   0  0  0  0  0  0  0  0  0  0  0  0
   25.9966    6.0775   20.3335 C   0  0  0  0  0  0  0  0  0  0  0  0
   25.8012    6.5678   21.4283 O   0  0  0  0  0  0  0  0  0  0  0  0
   27.1104    5.3766   20.0662 O   0  0  0  0  0  0  0  0  0  0  0  0
   27.2389    5.0080   19.2144 H   0  0  0  0  0  0  0  0  0  0  0  0
   22.3143    6.3000   12.8410 C   0  0  0  0  0  0  0  0  0  0  0  0
   22.3638    5.4913   11.4963 C   0  0  0  0  0  0  0  0  0  0  0  0
   23.7829    5.6392   10.9132 C   0  0  0  0  0  0  0  0  0  0  0  0
   22.1944    3.9795   11.8115 C   0  0  0  0  0  0  0  0  0  0  0  0
   21.2456    5.8636   10.4668 C   0  0  0  0  0  0  0  0  0  0  0  0
   19.6925    5.7060   10.7187 C   0  0  0  0  0  0  0  0  0  0  0  0
   18.8776    6.7333    9.9232 C   0  0  0  0  0  0  0  0  0  0  0  0
   19.4969    6.0225   12.2186 C   0  0  0  0  0  0  0  0  0  0  0  0
   19.2435    4.2453   10.3649 C   0  0  0  0  0  0  0  0  0  0  0  0
   16.7281    4.6458    9.9604 C   0  0  0  0  0  0  0  0  0  0  0  0
   17.9898    3.8969    9.4955 C   0  0  0  0  0  0  0  0  0  0  0  0
   18.2004    4.1162    7.9924 C   0  0  0  0  0  0  0  0  0  0  0  0
   17.7101    2.3853    9.7029 C   0  0  0  0  0  0  0  0  0  0  0  0
   23.6581    8.4668   12.9385 C   0  0  0  0  0  0  0  0  0  0  0  0
   22.6425    9.3387   13.6667 C   0  0  0  0  0  0  0  0  0  0  0  0
   22.9786    9.7640   14.9674 C   0  0  0  0  0  0  0  0  0  0  0  0
   22.1012   10.5351   15.7195 C   0  0  0  0  0  0  0  0  0  0  0  0
   20.8731   10.9051   15.1830 C   0  0  0  0  0  0  0  0  0  0  0  0
   20.5047   10.5139   13.8878 C   0  0  0  0  0  0  0  0  0  0  0  0
   19.2577   10.9156   13.3734 C   0  0  0  0  0  0  0  0  0  0  0  0
   18.8557   10.5501   12.0908 C   0  0  0  0  0  0  0  0  0  0  0  0
   19.6952    9.7709   11.3094 C   0  0  0  0  0  0  0  0  0  0  0  0
   20.9395    9.3651   11.8071 C   0  0  0  0  0  0  0  0  0  0  0  0
   21.3852    9.7206   13.1041 C   0  0  0  0  0  0  0  0  0  0  0  0
 26 27  1  0
 27 28  1  0
 27 29  1  0
 27 25  1  0
 25 22  1  0
 22 23  1  0
 22 24  1  0
 22 21  1  0
 21 18  1  0
 18 19  1  0
 18 20  1  0
 18 17  1  0
  1 17  1  0
  1 30  1  0
 30 31  1  0
 31 32  2  0
 32 33  1  0
 33 34  2  0
 34 35  1  0
 35 36  2  0
 36 37  1  0
 37 38  2  0
 38 39  1  0
 39 40  2  0
  1  2  1  0
  2  3  1  0
  3  4  2  0
  3  5  1  0
  5  6  2  0
  6  7  1  0
  7  8  2  0
  8 13  1  0
 13 14  2  0
 13 15  1  0
  8  9  1  0
  9 10  2  0
 10 11  1  0
 11 12  2  0
 40 31  1  0
 11  2  1  0
 40 35  1  0
 10  5  1  0
 15 16  1  0
M  END
> <minimizedAffinity>
-8.17130

> <CNNscore>
0.5258675218

> <CNNaffinity>
6.1927666664

> <CNN_VS>
3.2565748692

> <CNNaffinity_variance>
0.1566047668

$$$$



 40 43  0  0  0  0  0  0  0  0999 V2000
   23.7050    7.0490   13.2970 C   0  0  0  0  0  0  0  0  0  0  0  0
   23.8791    6.8781   14.7391 N   0  0  0  0  0  0  0  0  0  0  0  0
   22.8453    6.5612   15.5839 C   0  0  0  0  0  0  0  0  0  0  0  0
   21.6558    6.4604   15.3473 O   0  0  0  0  0  0  0  0  0  0  0  0
   23.4302    6.3671   16.9083 C   0  0  0  0  0  0  0  0  0  0  0  0
   22.8317    6.0779   18.1194 C   0  0  0  0  0  0  0  0  0  0  0  0
   23.6688    5.9683   19.2374 C   0  0  0  0  0  0  0  0  0  0  0  0
   25.0703    6.1462   19.1184 C   0  0  0  0  0  0  0  0  0  0  0  0
   25.6478    6.4343   17.8724 C   0  0  0  0  0  0  0  0  0  0  0  0
   24.7966    6.5405   16.7899 C   0  0  0  0  0  0  0  0  0  0  0  0
   25.0838    6.8436   15.3900 C   0  0  0  0  0  0  0  0  0  0  0  0
   26.2079    7.0144   14.9551 O   0  0  0  0  0  0  0  0  0  0  0  0
   25.9729    6.0412   20.2911 C   0  0  0  0  0  0  0  0  0  0  0  0
   25.7490    6.4874   21.3992 O   0  0  0  0  0  0  0  0  0  0  0  0
   27.1060    5.3741   20.0181 O   0  0  0  0  0  0  0  0  0  0  0  0
   27.2564    5.0392   19.1560 H   0  0  0  0  0  0  0  0  0  0  0  0
   22.4442    6.3290   12.7368 C   0  0  0  0  0  0  0  0  0  0  0  0
   22.6406    5.0616   11.8312 C   0  0  0  0  0  0  0  0  0  0  0  0
   23.5813    4.0949   12.5770 C   0  0  0  0  0  0  0  0  0  0  0  0
   21.2833    4.3159   11.7078 C   0  0  0  0  0  0  0  0  0  0  0  0
   23.1199    5.3666   10.3731 C   0  0  0  0  0  0  0  0  0  0  0  0
   22.4224    6.3841    9.3838 C   0  0  0  0  0  0  0  0  0  0  0  0
   23.1128    7.7535    9.3927 C   0  0  0  0  0  0  0  0  0  0  0  0
   20.9985    6.5807    9.9511 C   0  0  0  0  0  0  0  0  0  0  0  0
   22.3980    5.7828    7.9352 C   0  0  0  0  0  0  0  0  0  0  0  0
   20.8955    7.4479    6.6619 C   0  0  0  0  0  0  0  0  0  0  0  0
   22.1991    6.6300    6.6346 C   0  0  0  0  0  0  0  0  0  0  0  0
   23.3828    7.5492    6.3094 C   0  0  0  0  0  0  0  0  0  0  0  0
   22.0662    5.6225    5.4626 C   0  0  0  0  0  0  0  0  0  0  0  0
   23.6753    8.5571   12.9097 C   0  0  0  0  0  0  0  0  0  0  0  0
   22.6616    9.3780   13.6974 C   0  0  0  0  0  0  0  0  0  0  0  0
   23.0334    9.7816   14.9953 C   0  0  0  0  0  0  0  0  0  0  0  0
   22.1618   10.5056   15.7992 C   0  0  0  0  0  0  0  0  0  0  0  0
   20.9034   10.8494   15.3184 C   0  0  0  0  0  0  0  0  0  0  0  0
   20.4984   10.4787   14.0281 C   0  0  0  0  0  0  0  0  0  0  0  0
   19.2209   10.8530   13.5709 C   0  0  0  0  0  0  0  0  0  0  0  0
   18.7820   10.5066   12.2952 C   0  0  0  0  0  0  0  0  0  0  0  0
   19.6150    9.7740   11.4632 C   0  0  0  0  0  0  0  0  0  0  0  0
   20.8892    9.3959   11.9037 C   0  0  0  0  0  0  0  0  0  0  0  0
   21.3726    9.7334   13.1920 C   0  0  0  0  0  0  0  0  0  0  0  0
 26 27  1  0
 27 28  1  0
 27 29  1  0
 27 25  1  0
 25 22  1  0
 22 23  1  0
 22 24  1  0
 22 21  1  0
 21 18  1  0
 18 19  1  0
 18 20  1  0
 18 17  1  0
  1 17  1  0
  1 30  1  0
 30 31  1  0
 31 32  2  0
 32 33  1  0
 33 34  2  0
 34 35  1  0
 35 36  2  0
 36 37  1  0
 37 38  2  0
 38 39  1  0
 39 40  2  0
  1  2  1  0
  2  3  1  0
  3  4  2  0
  3  5  1  0
  5  6  2  0
  6  7  1  0
  7  8  2  0
  8 13  1  0
 13 14  2  0
 13 15  1  0
  8  9  1  0
  9 10  2  0
 10 11  1  0
 11 12  2  0
 40 31  1  0
 11  2  1  0
 40 35  1  0
 10  5  1  0
 15 16  1  0
M  END
> <minimizedAffinity>
-8.52494

> <CNNscore>
0.5107000470

> <CNNaffinity>
5.9864654541

> <CNN_VS>
3.0572881699

> <CNNaffinity_variance>
0.5740186572

$$$$



 40 43  0  0  0  0  0  0  0  0999 V2000
   23.7147    6.8050   13.3023 C   0  0  0  0  0  0  0  0  0  0  0  0
   23.8919    6.7232   14.7518 N   0  0  0  0  0  0  0  0  0  0  0  0
   22.8470    6.5438   15.6230 C   0  0  0  0  0  0  0  0  0  0  0  0
   21.6508    6.5150   15.4013 O   0  0  0  0  0  0  0  0  0  0  0  0
   23.4308    6.4003   16.9543 C   0  0  0  0  0  0  0  0  0  0  0  0
   22.8263    6.2419   18.1864 C   0  0  0  0  0  0  0  0  0  0  0  0
   23.6655    6.1492   19.3043 C   0  0  0  0  0  0  0  0  0  0  0  0
   25.0748    6.2140   19.1647 C   0  0  0  0  0  0  0  0  0  0  0  0
   25.6580    6.3705   17.8981 C   0  0  0  0  0  0  0  0  0  0  0  0
   24.8048    6.4632   16.8158 C   0  0  0  0  0  0  0  0  0  0  0  0
   25.0980    6.6453   15.3963 C   0  0  0  0  0  0  0  0  0  0  0  0
   26.2266    6.7014   14.9437 O   0  0  0  0  0  0  0  0  0  0  0  0
   25.9804    6.1250   20.3365 C   0  0  0  0  0  0  0  0  0  0  0  0
   25.7701    6.6071   21.4322 O   0  0  0  0  0  0  0  0  0  0  0  0
   27.0990    5.4282   20.0785 O   0  0  0  0  0  0  0  0  0  0  0  0
   27.2391    5.0659   19.2258 H   0  0  0  0  0  0  0  0  0  0  0  0
   22.4166    6.1102   12.7979 C   0  0  0  0  0  0  0  0  0  0  0  0
   22.5034    5.1733   11.5412 C   0  0  0  0  0  0  0  0  0  0  0  0
   23.8212    5.4937   10.8087 C   0  0  0  0  0  0  0  0  0  0  0  0
   22.6355    3.7009   12.0191 C   0  0  0  0  0  0  0  0  0  0  0  0
   21.2577    5.2287   10.5957 C   0  0  0  0  0  0  0  0  0  0  0  0
   21.3149    5.4709    9.0341 C   0  0  0  0  0  0  0  0  0  0  0  0
   20.0728    6.2126    8.5252 C   0  0  0  0  0  0  0  0  0  0  0  0
   21.2973    4.0574    8.4096 C   0  0  0  0  0  0  0  0  0  0  0  0
   22.6217    6.2571    8.6671 C   0  0  0  0  0  0  0  0  0  0  0  0
   21.3975    8.2906    7.6583 C   0  0  0  0  0  0  0  0  0  0  0  0
   22.6788    7.4380    7.6419 C   0  0  0  0  0  0  0  0  0  0  0  0
   23.9066    8.3416    7.8084 C   0  0  0  0  0  0  0  0  0  0  0  0
   22.7684    6.7991    6.2312 C   0  0  0  0  0  0  0  0  0  0  0  0
   23.7536    8.2833   12.8142 C   0  0  0  0  0  0  0  0  0  0  0  0
   22.3775    8.9174   12.6520 C   0  0  0  0  0  0  0  0  0  0  0  0
   21.7168    8.7099   11.4247 C   0  0  0  0  0  0  0  0  0  0  0  0
   20.4729    9.2758   11.1745 C   0  0  0  0  0  0  0  0  0  0  0  0
   19.8593   10.0534   12.1501 C   0  0  0  0  0  0  0  0  0  0  0  0
   20.4763   10.2744   13.3897 C   0  0  0  0  0  0  0  0  0  0  0  0
   19.8210   11.0586   14.3575 C   0  0  0  0  0  0  0  0  0  0  0  0
   20.3989   11.2996   15.6018 C   0  0  0  0  0  0  0  0  0  0  0  0
   21.6449   10.7638   15.8899 C   0  0  0  0  0  0  0  0  0  0  0  0
   22.3082    9.9803   14.9376 C   0  0  0  0  0  0  0  0  0  0  0  0
   21.7508    9.7092   13.6636 C   0  0  0  0  0  0  0  0  0  0  0  0
 26 27  1  0
 27 28  1  0
 27 29  1  0
 27 25  1  0
 25 22  1  0
 22 23  1  0
 22 24  1  0
 22 21  1  0
 21 18  1  0
 18 19  1  0
 18 20  1  0
 18 17  1  0
  1 17  1  0
  1 30  1  0
 30 31  1  0
 31 32  2  0
 32 33  1  0
 33 34  2  0
 34 35  1  0
 35 36  2  0
 36 37  1  0
 37 38  2  0
 38 39  1  0
 39 40  2  0
  1  2  1  0
  2  3  1  0
  3  4  2  0
  3  5  1  0
  5  6  2  0
  6  7  1  0
  7  8  2  0
  8 13  1  0
 13 14  2  0
 13 15  1  0
  8  9  1  0
  9 10  2  0
 10 11  1  0
 11 12  2  0
 40 31  1  0
 11  2  1  0
 40 35  1  0
 10  5  1  0
 15 16  1  0
M  END
> <minimizedAffinity>
-8.56935

> <CNNscore>
0.5006263852

> <CNNaffinity>
5.9811072350

> <CNN_VS>
2.9943001270

> <CNNaffinity_variance>
0.5472815037

$$$$



 40 43  0  0  0  0  0  0  0  0999 V2000
   21.1589    7.6190   14.2202 C   0  0  0  0  0  0  0  0  0  0  0  0
   22.1796    7.3071   15.2203 N   0  0  0  0  0  0  0  0  0  0  0  0
   23.3735    7.9783   15.3033 C   0  0  0  0  0  0  0  0  0  0  0  0
   23.8343    8.8318   14.5683 O   0  0  0  0  0  0  0  0  0  0  0  0
   24.0636    7.4623   16.4829 C   0  0  0  0  0  0  0  0  0  0  0  0
   25.3109    7.7629   16.9954 C   0  0  0  0  0  0  0  0  0  0  0  0
   25.7110    7.0778   18.1500 C   0  0  0  0  0  0  0  0  0  0  0  0
   24.8620    6.1201   18.7598 C   0  0  0  0  0  0  0  0  0  0  0  0
   23.5985    5.8411   18.2170 C   0  0  0  0  0  0  0  0  0  0  0  0
   23.2340    6.5292   17.0762 C   0  0  0  0  0  0  0  0  0  0  0  0
   22.0140    6.4508   16.2764 C   0  0  0  0  0  0  0  0  0  0  0  0
   21.0673    5.7403   16.5605 O   0  0  0  0  0  0  0  0  0  0  0  0
   25.2698    5.3789   19.9786 C   0  0  0  0  0  0  0  0  0  0  0  0
   24.5199    4.9727   20.8445 O   0  0  0  0  0  0  0  0  0  0  0  0
   26.5956    5.1759   20.0454 O   0  0  0  0  0  0  0  0  0  0  0  0
   27.1538    5.4985   19.3655 H   0  0  0  0  0  0  0  0  0  0  0  0
   20.4787    9.0012   14.4412 C   0  0  0  0  0  0  0  0  0  0  0  0
   18.9698    9.0375   14.8732 C   0  0  0  0  0  0  0  0  0  0  0  0
   18.2274    9.9761   13.9017 C   0  0  0  0  0  0  0  0  0  0  0  0
   18.3494    7.6301   14.6544 C   0  0  0  0  0  0  0  0  0  0  0  0
   18.7271    9.4071   16.3743 C   0  0  0  0  0  0  0  0  0  0  0  0
   19.5539   10.4813   17.1885 C   0  0  0  0  0  0  0  0  0  0  0  0
   19.8623   11.7243   16.3447 C   0  0  0  0  0  0  0  0  0  0  0  0
   20.9003    9.7925   17.5061 C   0  0  0  0  0  0  0  0  0  0  0  0
   18.7746   10.8733   18.4922 C   0  0  0  0  0  0  0  0  0  0  0  0
   18.9995   11.5333   20.9752 C   0  0  0  0  0  0  0  0  0  0  0  0
   19.2614   11.9511   19.5171 C   0  0  0  0  0  0  0  0  0  0  0  0
   20.7332   12.3459   19.3459 C   0  0  0  0  0  0  0  0  0  0  0  0
   18.4130   13.2243   19.2614 C   0  0  0  0  0  0  0  0  0  0  0  0
   21.7411    7.5345   12.7783 C   0  0  0  0  0  0  0  0  0  0  0  0
   21.8395    6.1150   12.2332 C   0  0  0  0  0  0  0  0  0  0  0  0
   23.0489    5.4262   12.4534 C   0  0  0  0  0  0  0  0  0  0  0  0
   23.2414    4.1398   11.9653 C   0  0  0  0  0  0  0  0  0  0  0  0
   22.2248    3.5114   11.2550 C   0  0  0  0  0  0  0  0  0  0  0  0
   21.0011    4.1562   11.0245 C   0  0  0  0  0  0  0  0  0  0  0  0
   19.9907    3.4856   10.3102 C   0  0  0  0  0  0  0  0  0  0  0  0
   18.7606    4.0902   10.0625 C   0  0  0  0  0  0  0  0  0  0  0  0
   18.5294    5.3782   10.5213 C   0  0  0  0  0  0  0  0  0  0  0  0
   19.5245    6.0572   11.2348 C   0  0  0  0  0  0  0  0  0  0  0  0
   20.7860    5.4740   11.5104 C   0  0  0  0  0  0  0  0  0  0  0  0
 26 27  1  0
 27 28  1  0
 27 29  1  0
 27 25  1  0
 25 22  1  0
 22 23  1  0
 22 24  1  0
 22 21  1  0
 21 18  1  0
 18 19  1  0
 18 20  1  0
 18 17  1  0
  1 17  1  0
  1 30  1  0
 30 31  1  0
 31 32  2  0
 32 33  1  0
 33 34  2  0
 34 35  1  0
 35 36  2  0
 36 37  1  0
 37 38  2  0
 38 39  1  0
 39 40  2  0
  1  2  1  0
  2  3  1  0
  3  4  2  0
  3  5  1  0
  5  6  2  0
  6  7  1  0
  7  8  2  0
  8 13  1  0
 13 14  2  0
 13 15  1  0
  8  9  1  0
  9 10  2  0
 10 11  1  0
 11 12  2  0
 40 31  1  0
 11  2  1  0
 40 35  1  0
 10  5  1  0
 15 16  1  0
M  END
> <minimizedAffinity>
-7.59726

> <CNNscore>
0.4534852803

> <CNNaffinity>
5.9259257317

> <CNN_VS>
2.6873199940

> <CNNaffinity_variance>
0.1506596655

$$$$



 40 43  0  0  0  0  0  0  0  0999 V2000
   23.7514    6.7894   13.3603 C   0  0  0  0  0  0  0  0  0  0  0  0
   23.9525    6.7119   14.8069 N   0  0  0  0  0  0  0  0  0  0  0  0
   22.9379    6.4344   15.6882 C   0  0  0  0  0  0  0  0  0  0  0  0
   21.7462    6.3023   15.4796 O   0  0  0  0  0  0  0  0  0  0  0  0
   23.5480    6.3322   17.0115 C   0  0  0  0  0  0  0  0  0  0  0  0
   22.9745    6.1113   18.2488 C   0  0  0  0  0  0  0  0  0  0  0  0
   23.8319    6.0839   19.3564 C   0  0  0  0  0  0  0  0  0  0  0  0
   25.2283    6.2735   19.2016 C   0  0  0  0  0  0  0  0  0  0  0  0
   25.7803    6.4908   17.9299 C   0  0  0  0  0  0  0  0  0  0  0  0
   24.9094    6.5168   16.8582 C   0  0  0  0  0  0  0  0  0  0  0  0
   25.1684    6.7353   15.4371 C   0  0  0  0  0  0  0  0  0  0  0  0
   26.2822    6.8941   14.9725 O   0  0  0  0  0  0  0  0  0  0  0  0
   26.1522    6.2551   20.3623 C   0  0  0  0  0  0  0  0  0  0  0  0
   27.2906    5.8295   20.3546 O   0  0  0  0  0  0  0  0  0  0  0  0
   25.6058    6.7798   21.4711 O   0  0  0  0  0  0  0  0  0  0  0  0
   24.7260    7.1017   21.4527 H   0  0  0  0  0  0  0  0  0  0  0  0
   22.4476    6.0893   12.8789 C   0  0  0  0  0  0  0  0  0  0  0  0
   22.5532    4.9761   11.7768 C   0  0  0  0  0  0  0  0  0  0  0  0
   23.3826    5.5492   10.6109 C   0  0  0  0  0  0  0  0  0  0  0  0
   23.3824    3.7885   12.3387 C   0  0  0  0  0  0  0  0  0  0  0  0
   21.1817    4.3851   11.3094 C   0  0  0  0  0  0  0  0  0  0  0  0
   20.5231    4.6332    9.8933 C   0  0  0  0  0  0  0  0  0  0  0  0
   21.5111    4.3709    8.7501 C   0  0  0  0  0  0  0  0  0  0  0  0
   20.1795    6.1397    9.8708 C   0  0  0  0  0  0  0  0  0  0  0  0
   19.2440    3.7383    9.7395 C   0  0  0  0  0  0  0  0  0  0  0  0
   18.4393    4.9237    7.5950 C   0  0  0  0  0  0  0  0  0  0  0  0
   18.0256    4.0957    8.8248 C   0  0  0  0  0  0  0  0  0  0  0  0
   17.2089    2.8764    8.3797 C   0  0  0  0  0  0  0  0  0  0  0  0
   17.0838    4.9945    9.6683 C   0  0  0  0  0  0  0  0  0  0  0  0
   23.7777    8.2665   12.8679 C   0  0  0  0  0  0  0  0  0  0  0  0
   22.4205    8.9578   12.9133 C   0  0  0  0  0  0  0  0  0  0  0  0
   21.6175    8.8700   11.7586 C   0  0  0  0  0  0  0  0  0  0  0  0
   20.3787    9.4957   11.6965 C   0  0  0  0  0  0  0  0  0  0  0  0
   19.9125   10.2145   12.7916 C   0  0  0  0  0  0  0  0  0  0  0  0
   20.6741   10.3163   13.9645 C   0  0  0  0  0  0  0  0  0  0  0  0
   20.1660   11.0437   15.0571 C   0  0  0  0  0  0  0  0  0  0  0  0
   20.8901   11.1663   16.2407 C   0  0  0  0  0  0  0  0  0  0  0  0
   22.1366   10.5676   16.3423 C   0  0  0  0  0  0  0  0  0  0  0  0
   22.6544    9.8394   15.2642 C   0  0  0  0  0  0  0  0  0  0  0  0
   21.9460    9.6884   14.0466 C   0  0  0  0  0  0  0  0  0  0  0  0
 26 27  1  0
 27 28  1  0
 27 29  1  0
 27 25  1  0
 25 22  1  0
 22 23  1  0
 22 24  1  0
 22 21  1  0
 21 18  1  0
 18 19  1  0
 18 20  1  0
 18 17  1  0
  1 17  1  0
  1 30  1  0
 30 31  1  0
 31 32  2  0
 32 33  1  0
 33 34  2  0
 34 35  1  0
 35 36  2  0
 36 37  1  0
 37 38  2  0
 38 39  1  0
 39 40  2  0
  1  2  1  0
  2  3  1  0
  3  4  2  0
  3  5  1  0
  5  6  2  0
  6  7  1  0
  7  8  2  0
  8 13  1  0
 13 14  2  0
 13 15  1  0
  8  9  1  0
  9 10  2  0
 10 11  1  0
 11 12  2  0
 40 31  1  0
 11  2  1  0
 40 35  1  0
 10  5  1  0
 15 16  1  0
M  END
> <minimizedAffinity>
-8.64855

> <CNNscore>
0.4521348774

> <CNNaffinity>
6.1647143364

> <CNN_VS>
2.7872824669

> <CNNaffinity_variance>
0.3206530511

$$$$



 40 43  0  0  0  0  0  0  0  0999 V2000
   23.1097    6.7172   13.2986 C   0  0  0  0  0  0  0  0  0  0  0  0
   23.6841    6.5810   14.6368 N   0  0  0  0  0  0  0  0  0  0  0  0
   24.8659    7.1726   15.0060 C   0  0  0  0  0  0  0  0  0  0  0  0
   25.6621    7.7983   14.3311 O   0  0  0  0  0  0  0  0  0  0  0  0
   25.0432    6.9021   16.4305 C   0  0  0  0  0  0  0  0  0  0  0  0
   26.0788    7.2310   17.2837 C   0  0  0  0  0  0  0  0  0  0  0  0
   25.9698    6.8099   18.6154 C   0  0  0  0  0  0  0  0  0  0  0  0
   24.8383    6.0794   19.0582 C   0  0  0  0  0  0  0  0  0  0  0  0
   23.8007    5.7655   18.1672 C   0  0  0  0  0  0  0  0  0  0  0  0
   23.9388    6.1904   16.8603 C   0  0  0  0  0  0  0  0  0  0  0  0
   23.0559    6.0081   15.7107 C   0  0  0  0  0  0  0  0  0  0  0  0
   21.9770    5.4478   15.7726 O   0  0  0  0  0  0  0  0  0  0  0  0
   24.7071    5.6183   20.4622 C   0  0  0  0  0  0  0  0  0  0  0  0
   24.1538    4.5984   20.8238 O   0  0  0  0  0  0  0  0  0  0  0  0
   25.2845    6.4538   21.3408 O   0  0  0  0  0  0  0  0  0  0  0  0
   25.7053    7.2344   21.0381 H   0  0  0  0  0  0  0  0  0  0  0  0
   22.9943    8.1945   12.8227 C   0  0  0  0  0  0  0  0  0  0  0  0
   21.5946    8.9019   12.8949 C   0  0  0  0  0  0  0  0  0  0  0  0
   21.0474    9.0042   11.4575 C   0  0  0  0  0  0  0  0  0  0  0  0
   20.6033    7.9801   13.6573 C   0  0  0  0  0  0  0  0  0  0  0  0
   21.5936   10.2773   13.6411 C   0  0  0  0  0  0  0  0  0  0  0  0
   21.4110   10.4622   15.2009 C   0  0  0  0  0  0  0  0  0  0  0  0
   21.3091   11.9415   15.5927 C   0  0  0  0  0  0  0  0  0  0  0  0
   22.7119    9.9077   15.8240 C   0  0  0  0  0  0  0  0  0  0  0  0
   20.1461    9.6703   15.6842 C   0  0  0  0  0  0  0  0  0  0  0  0
   20.2949   10.5206   18.1145 C   0  0  0  0  0  0  0  0  0  0  0  0
   19.8001    9.3974   17.1857 C   0  0  0  0  0  0  0  0  0  0  0  0
   18.3109    9.1324   17.4380 C   0  0  0  0  0  0  0  0  0  0  0  0
   20.5692    8.1135   17.5938 C   0  0  0  0  0  0  0  0  0  0  0  0
   23.9094    5.8812   12.2563 C   0  0  0  0  0  0  0  0  0  0  0  0
   23.1125    5.5236   11.0077 C   0  0  0  0  0  0  0  0  0  0  0  0
   22.2094    4.4468   11.1103 C   0  0  0  0  0  0  0  0  0  0  0  0
   21.4634    4.0287   10.0154 C   0  0  0  0  0  0  0  0  0  0  0  0
   21.5981    4.6849    8.7970 C   0  0  0  0  0  0  0  0  0  0  0  0
   22.4760    5.7690    8.6551 C   0  0  0  0  0  0  0  0  0  0  0  0
   22.5790    6.4160    7.4093 C   0  0  0  0  0  0  0  0  0  0  0  0
   23.4372    7.4979    7.2278 C   0  0  0  0  0  0  0  0  0  0  0  0
   24.2093    7.9413    8.2908 C   0  0  0  0  0  0  0  0  0  0  0  0
   24.1164    7.3087    9.5365 C   0  0  0  0  0  0  0  0  0  0  0  0
   23.2520    6.2088    9.7611 C   0  0  0  0  0  0  0  0  0  0  0  0
 26 27  1  0
 27 28  1  0
 27 29  1  0
 27 25  1  0
 25 22  1  0
 22 23  1  0
 22 24  1  0
 22 21  1  0
 21 18  1  0
 18 19  1  0
 18 20  1  0
 18 17  1  0
  1 17  1  0
  1 30  1  0
 30 31  1  0
 31 32  2  0
 32 33  1  0
 33 34  2  0
 34 35  1  0
 35 36  2  0
 36 37  1  0
 37 38  2  0
 38 39  1  0
 39 40  2  0
  1  2  1  0
  2  3  1  0
  3  4  2  0
  3  5  1  0
  5  6  2  0
  6  7  1  0
  7  8  2  0
  8 13  1  0
 13 14  2  0
 13 15  1  0
  8  9  1  0
  9 10  2  0
 10 11  1  0
 11 12  2  0
 40 31  1  0
 11  2  1  0
 40 35  1  0
 10  5  1  0
 15 16  1  0
M  END
> <minimizedAffinity>
-8.83560

> <CNNscore>
0.3932228088

> <CNNaffinity>
6.0065178871

> <CNN_VS>
2.3618998528

> <CNNaffinity_variance>
0.3420650065

$$$$



 40 43  0  0  0  0  0  0  0  0999 V2000
   22.8612    6.4894   13.0097 C   0  0  0  0  0  0  0  0  0  0  0  0
   23.3695    6.4363   14.3801 N   0  0  0  0  0  0  0  0  0  0  0  0
   24.5568    7.0104   14.7591 C   0  0  0  0  0  0  0  0  0  0  0  0
   25.4070    7.5518   14.0772 O   0  0  0  0  0  0  0  0  0  0  0  0
   24.6594    6.8449   16.2068 C   0  0  0  0  0  0  0  0  0  0  0  0
   25.6685    7.2004   17.0808 C   0  0  0  0  0  0  0  0  0  0  0  0
   25.4834    6.8882   18.4339 C   0  0  0  0  0  0  0  0  0  0  0  0
   24.3045    6.2369   18.8766 C   0  0  0  0  0  0  0  0  0  0  0  0
   23.2957    5.8934   17.9637 C   0  0  0  0  0  0  0  0  0  0  0  0
   23.5089    6.2102   16.6363 C   0  0  0  0  0  0  0  0  0  0  0  0
   22.6714    5.9721   15.4633 C   0  0  0  0  0  0  0  0  0  0  0  0
   21.5689    5.4588   15.5162 O   0  0  0  0  0  0  0  0  0  0  0  0
   24.0924    5.8913   20.3037 C   0  0  0  0  0  0  0  0  0  0  0  0
   24.9284    5.9675   21.1826 O   0  0  0  0  0  0  0  0  0  0  0  0
   22.8407    5.4771   20.5588 O   0  0  0  0  0  0  0  0  0  0  0  0
   22.2133    5.4265   19.8646 H   0  0  0  0  0  0  0  0  0  0  0  0
   22.4457    7.9200   12.5594 C   0  0  0  0  0  0  0  0  0  0  0  0
   20.9486    8.1805   12.1653 C   0  0  0  0  0  0  0  0  0  0  0  0
   20.9217    8.6047   10.6837 C   0  0  0  0  0  0  0  0  0  0  0  0
   20.1694    6.8381   12.2323 C   0  0  0  0  0  0  0  0  0  0  0  0
   20.1920    9.1861   13.0955 C   0  0  0  0  0  0  0  0  0  0  0  0
   19.7043    8.8695   14.5660 C   0  0  0  0  0  0  0  0  0  0  0  0
   19.0118    7.5041   14.6567 C   0  0  0  0  0  0  0  0  0  0  0  0
   18.6418    9.9481   14.8756 C   0  0  0  0  0  0  0  0  0  0  0  0
   20.9197    8.9436   15.5550 C   0  0  0  0  0  0  0  0  0  0  0  0
   21.6198   11.3414   14.9133 C   0  0  0  0  0  0  0  0  0  0  0  0
   21.5912   10.2768   16.0246 C   0  0  0  0  0  0  0  0  0  0  0  0
   20.9683   10.8680   17.2950 C   0  0  0  0  0  0  0  0  0  0  0  0
   23.0691    9.9393   16.3536 C   0  0  0  0  0  0  0  0  0  0  0  0
   23.8900    5.8909   12.0054 C   0  0  0  0  0  0  0  0  0  0  0  0
   23.6009    6.2300   10.5482 C   0  0  0  0  0  0  0  0  0  0  0  0
   24.3262    7.2974    9.9824 C   0  0  0  0  0  0  0  0  0  0  0  0
   24.1068    7.6986    8.6705 C   0  0  0  0  0  0  0  0  0  0  0  0
   23.1641    7.0345    7.8938 C   0  0  0  0  0  0  0  0  0  0  0  0
   22.4297    5.9592    8.4139 C   0  0  0  0  0  0  0  0  0  0  0  0
   21.4909    5.3037    7.5953 C   0  0  0  0  0  0  0  0  0  0  0  0
   20.7433    4.2300    8.0732 C   0  0  0  0  0  0  0  0  0  0  0  0
   20.9216    3.8035    9.3805 C   0  0  0  0  0  0  0  0  0  0  0  0
   21.8531    4.4447   10.2062 C   0  0  0  0  0  0  0  0  0  0  0  0
   22.6350    5.5366    9.7548 C   0  0  0  0  0  0  0  0  0  0  0  0
 26 27  1  0
 27 28  1  0
 27 29  1  0
 27 25  1  0
 25 22  1  0
 22 23  1  0
 22 24  1  0
 22 21  1  0
 21 18  1  0
 18 19  1  0
 18 20  1  0
 18 17  1  0
  1 17  1  0
  1 30  1  0
 30 31  1  0
 31 32  2  0
 32 33  1  0
 33 34  2  0
 34 35  1  0
 35 36  2  0
 36 37  1  0
 37 38  2  0
 38 39  1  0
 39 40  2  0
  1  2  1  0
  2  3  1  0
  3  4  2  0
  3  5  1  0
  5  6  2  0
  6  7  1  0
  7  8  2  0
  8 13  1  0
 13 14  2  0
 13 15  1  0
  8  9  1  0
  9 10  2  0
 10 11  1  0
 11 12  2  0
 40 31  1  0
 11  2  1  0
 40 35  1  0
 10  5  1  0
 15 16  1  0
M  END
> <minimizedAffinity>
-8.46851

> <CNNscore>
0.3677103221

> <CNNaffinity>
5.8555150032

> <CNN_VS>
2.1531333923

> <CNNaffinity_variance>
0.5237590671

$$$$



 40 43  0  0  0  0  0  0  0  0999 V2000
   23.0576    6.7129   14.0782 C   0  0  0  0  0  0  0  0  0  0  0  0
   23.4809    6.6529   15.4769 N   0  0  0  0  0  0  0  0  0  0  0  0
   22.6320    6.3135   16.5002 C   0  0  0  0  0  0  0  0  0  0  0  0
   21.4334    6.1046   16.4743 O   0  0  0  0  0  0  0  0  0  0  0  0
   23.4416    6.2546   17.7147 C   0  0  0  0  0  0  0  0  0  0  0  0
   23.0783    6.0012   19.0233 C   0  0  0  0  0  0  0  0  0  0  0  0
   24.0942    6.0322   19.9874 C   0  0  0  0  0  0  0  0  0  0  0  0
   25.4359    6.3106   19.6234 C   0  0  0  0  0  0  0  0  0  0  0  0
   25.7729    6.5589   18.2841 C   0  0  0  0  0  0  0  0  0  0  0  0
   24.7492    6.5257   17.3574 C   0  0  0  0  0  0  0  0  0  0  0  0
   24.7745    6.7560   15.9150 C   0  0  0  0  0  0  0  0  0  0  0  0
   25.7923    6.9846   15.2875 O   0  0  0  0  0  0  0  0  0  0  0  0
   26.5248    6.3550   20.6300 C   0  0  0  0  0  0  0  0  0  0  0  0
   27.6289    5.8634   20.5010 O   0  0  0  0  0  0  0  0  0  0  0  0
   26.1782    7.0214   21.7432 O   0  0  0  0  0  0  0  0  0  0  0  0
   25.3209    7.3917   21.8197 H   0  0  0  0  0  0  0  0  0  0  0  0
   23.0541    8.1556   13.4946 C   0  0  0  0  0  0  0  0  0  0  0  0
   21.6767    8.8769   13.2770 C   0  0  0  0  0  0  0  0  0  0  0  0
   21.4379    8.9811   11.7579 C   0  0  0  0  0  0  0  0  0  0  0  0
   20.5406    7.9666   13.8196 C   0  0  0  0  0  0  0  0  0  0  0  0
   21.5362   10.2541   14.0067 C   0  0  0  0  0  0  0  0  0  0  0  0
   21.5845   10.4587   15.5740 C   0  0  0  0  0  0  0  0  0  0  0  0
   22.8803    9.9081   16.1821 C   0  0  0  0  0  0  0  0  0  0  0  0
   20.4178    9.6077   16.1242 C   0  0  0  0  0  0  0  0  0  0  0  0
   21.4121   11.9799   15.9156 C   0  0  0  0  0  0  0  0  0  0  0  0
   20.7605   11.6412   18.3879 C   0  0  0  0  0  0  0  0  0  0  0  0
   20.5938   12.5200   17.1352 C   0  0  0  0  0  0  0  0  0  0  0  0
   20.8958   13.9828   17.4825 C   0  0  0  0  0  0  0  0  0  0  0  0
   19.0967   12.4438   16.7361 C   0  0  0  0  0  0  0  0  0  0  0  0
   23.9281    5.7783   13.1872 C   0  0  0  0  0  0  0  0  0  0  0  0
   23.2040    5.2467   11.9564 C   0  0  0  0  0  0  0  0  0  0  0  0
   22.4494    4.0674   12.1161 C   0  0  0  0  0  0  0  0  0  0  0  0
   21.7816    3.4916   11.0426 C   0  0  0  0  0  0  0  0  0  0  0  0
   21.8466    4.0885    9.7885 C   0  0  0  0  0  0  0  0  0  0  0  0
   22.5757    5.2694    9.5889 C   0  0  0  0  0  0  0  0  0  0  0  0
   22.6109    5.8513    8.3078 C   0  0  0  0  0  0  0  0  0  0  0  0
   23.3215    7.0252    8.0686 C   0  0  0  0  0  0  0  0  0  0  0  0
   24.0125    7.6277    9.1090 C   0  0  0  0  0  0  0  0  0  0  0  0
   23.9853    7.0613   10.3892 C   0  0  0  0  0  0  0  0  0  0  0  0
   23.2703    5.8713   10.6724 C   0  0  0  0  0  0  0  0  0  0  0  0
 26 27  1  0
 27 28  1  0
 27 29  1  0
 27 25  1  0
 25 22  1  0
 22 23  1  0
 22 24  1  0
 22 21  1  0
 21 18  1  0
 18 19  1  0
 18 20  1  0
 18 17  1  0
  1 17  1  0
  1 30  1  0
 30 31  1  0
 31 32  2  0
 32 33  1  0
 33 34  2  0
 34 35  1  0
 35 36  2  0
 36 37  1  0
 37 38  2  0
 38 39  1  0
 39 40  2  0
  1  2  1  0
  2  3  1  0
  3  4  2  0
  3  5  1  0
  5  6  2  0
  6  7  1  0
  7  8  2  0
  8 13  1  0
 13 14  2  0
 13 15  1  0
  8  9  1  0
  9 10  2  0
 10 11  1  0
 11 12  2  0
 40 31  1  0
 11  2  1  0
 40 35  1  0
 10  5  1  0
 15 16  1  0
M  END
> <minimizedAffinity>
-9.23711

> <CNNscore>
0.3561303914

> <CNNaffinity>
5.8202748299

> <CNN_VS>
2.0727767944

> <CNNaffinity_variance>
0.6800642014

$$$$
