


 17 17  0  0  0  0  0  0  0  0999 V2000
   64.6294   34.5248   25.3604 C   0  0  0  0  0  0  0  0  0  0  0  0
   63.4648   34.5714   26.1361 C   0  0  0  0  0  0  0  0  0  0  0  0
   63.3627   33.7648   27.2666 C   0  0  0  0  0  0  0  0  0  0  0  0
   64.4143   32.9135   27.5892 C   0  0  0  0  0  0  0  0  0  0  0  0
   64.2885   32.1322   28.7060 O   0  0  0  0  0  0  0  0  0  0  0  0
   65.5721   32.8337   26.8024 C   0  0  0  0  0  0  0  0  0  0  0  0
   65.6753   33.6452   25.6750 C   0  0  0  0  0  0  0  0  0  0  0  0
   63.5142   32.1865   29.2309 H   0  0  0  0  0  0  0  0  0  0  0  0
   65.5734   36.4887   24.1745 N   0  0  0  0  0  0  0  0  0  0  0  0
   64.7522   35.3592   24.1481 C   0  0  0  0  0  0  0  0  0  0  0  0
   64.1154   35.0020   23.1593 O   0  0  0  0  0  0  0  0  0  0  0  0
   65.9034   37.5340   26.4099 C   0  0  0  0  0  0  0  0  0  0  0  0
   66.5354   36.8008   25.2379 C   0  0  0  0  0  0  0  0  0  0  0  0
   65.5860   37.3380   22.9827 C   0  0  0  0  0  0  0  0  0  0  0  0
   64.8583   38.6553   23.2076 C   0  0  0  0  0  0  0  0  0  0  0  0
   66.5108   31.9362   27.2427 O   0  0  0  0  0  0  0  0  0  0  0  0
   66.9228   30.9410   26.3115 C   0  0  0  0  0  0  0  0  0  0  0  0
 12 13  1  0
 13  9  1  0
  9 14  1  0
 14 15  1  0
  9 10  1  0
 10 11  2  0
 10  1  1  0
  1  2  2  0
  2  3  1  0
  3  4  2  0
  4  5  1  0
  4  6  1  0
  6 16  1  0
 16 17  1  0
  6  7  2  0
  7  1  1  0
  5  8  1  0
M  END
> <minimizedAffinity>
-6.58448

> <CNNscore>
0.9332639575

> <CNNaffinity>
5.1581816673

> <CNN_VS>
4.8139448166

> <CNNaffinity_variance>
0.3395033181

$$$$



 17 17  0  0  0  0  0  0  0  0999 V2000
   65.6938   35.2592   25.7840 C   0  0  0  0  0  0  0  0  0  0  0  0
   64.3246   35.5152   25.9246 C   0  0  0  0  0  0  0  0  0  0  0  0
   63.5064   34.5565   26.5166 C   0  0  0  0  0  0  0  0  0  0  0  0
   64.0655   33.3544   26.9375 C   0  0  0  0  0  0  0  0  0  0  0  0
   63.2392   32.4299   27.5169 O   0  0  0  0  0  0  0  0  0  0  0  0
   65.4292   33.0728   26.7726 C   0  0  0  0  0  0  0  0  0  0  0  0
   66.2475   34.0350   26.1854 C   0  0  0  0  0  0  0  0  0  0  0  0
   62.3281   32.6193   27.6264 H   0  0  0  0  0  0  0  0  0  0  0  0
   67.4602   36.9947   25.9335 N   0  0  0  0  0  0  0  0  0  0  0  0
   66.5770   36.2549   25.1439 C   0  0  0  0  0  0  0  0  0  0  0  0
   66.4879   36.3757   23.9239 O   0  0  0  0  0  0  0  0  0  0  0  0
   68.5199   37.8371   28.0229 C   0  0  0  0  0  0  0  0  0  0  0  0
   67.7743   36.7038   27.3372 C   0  0  0  0  0  0  0  0  0  0  0  0
   68.2434   38.0371   25.2688 C   0  0  0  0  0  0  0  0  0  0  0  0
   67.4687   39.3397   25.1327 C   0  0  0  0  0  0  0  0  0  0  0  0
   65.8245   31.8397   27.2236 O   0  0  0  0  0  0  0  0  0  0  0  0
   66.7083   31.1090   26.3797 C   0  0  0  0  0  0  0  0  0  0  0  0
 12 13  1  0
 13  9  1  0
  9 14  1  0
 14 15  1  0
  9 10  1  0
 10 11  2  0
 10  1  1  0
  1  2  2  0
  2  3  1  0
  3  4  2  0
  4  5  1  0
  4  6  1  0
  6 16  1  0
 16 17  1  0
  6  7  2  0
  7  1  1  0
  5  8  1  0
M  END
> <minimizedAffinity>
-5.81316

> <CNNscore>
0.8936142325

> <CNNaffinity>
5.4628815651

> <CNN_VS>
4.8817086220

> <CNNaffinity_variance>
0.0797376260

$$$$



 17 17  0  0  0  0  0  0  0  0999 V2000
   65.9308   35.3621   26.1252 C   0  0  0  0  0  0  0  0  0  0  0  0
   64.5593   35.6429   26.1107 C   0  0  0  0  0  0  0  0  0  0  0  0
   63.6545   34.6560   26.4932 C   0  0  0  0  0  0  0  0  0  0  0  0
   64.1335   33.4034   26.8623 C   0  0  0  0  0  0  0  0  0  0  0  0
   63.2228   32.4518   27.2346 O   0  0  0  0  0  0  0  0  0  0  0  0
   65.5022   33.0994   26.8496 C   0  0  0  0  0  0  0  0  0  0  0  0
   66.4066   34.0894   26.4723 C   0  0  0  0  0  0  0  0  0  0  0  0
   62.3084   32.6562   27.2427 H   0  0  0  0  0  0  0  0  0  0  0  0
   66.8117   36.9443   24.4296 N   0  0  0  0  0  0  0  0  0  0  0  0
   66.9070   36.3886   25.7074 C   0  0  0  0  0  0  0  0  0  0  0  0
   67.7646   36.7082   26.5279 O   0  0  0  0  0  0  0  0  0  0  0  0
   64.9652   38.0913   23.2158 C   0  0  0  0  0  0  0  0  0  0  0  0
   65.6663   36.7790   23.5271 C   0  0  0  0  0  0  0  0  0  0  0  0
   67.8587   37.8838   24.0260 C   0  0  0  0  0  0  0  0  0  0  0  0
   67.8209   39.1703   24.8377 C   0  0  0  0  0  0  0  0  0  0  0  0
   65.8144   31.8178   27.2240 O   0  0  0  0  0  0  0  0  0  0  0  0
   66.7486   31.1263   26.4016 C   0  0  0  0  0  0  0  0  0  0  0  0
 12 13  1  0
 13  9  1  0
  9 14  1  0
 14 15  1  0
  9 10  1  0
 10 11  2  0
 10  1  1  0
  1  2  2  0
  2  3  1  0
  3  4  2  0
  4  5  1  0
  4  6  1  0
  6 16  1  0
 16 17  1  0
  6  7  2  0
  7  1  1  0
  5  8  1  0
M  END
> <minimizedAffinity>
-5.83634

> <CNNscore>
0.8198356628

> <CNNaffinity>
4.9106488228

> <CNN_VS>
4.0259251595

> <CNNaffinity_variance>
0.3642583191

$$$$



 17 17  0  0  0  0  0  0  0  0999 V2000
   64.9058   34.4715   25.3208 C   0  0  0  0  0  0  0  0  0  0  0  0
   66.1923   34.0622   25.6918 C   0  0  0  0  0  0  0  0  0  0  0  0
   66.3674   33.3374   26.8679 C   0  0  0  0  0  0  0  0  0  0  0  0
   65.2601   33.0533   27.6603 C   0  0  0  0  0  0  0  0  0  0  0  0
   65.4601   32.3387   28.8105 O   0  0  0  0  0  0  0  0  0  0  0  0
   63.9714   33.4856   27.3165 C   0  0  0  0  0  0  0  0  0  0  0  0
   63.7969   34.2057   26.1369 C   0  0  0  0  0  0  0  0  0  0  0  0
   66.3218   32.0504   29.0391 H   0  0  0  0  0  0  0  0  0  0  0  0
   65.1210   36.5863   24.0418 N   0  0  0  0  0  0  0  0  0  0  0  0
   64.6993   35.2555   24.0864 C   0  0  0  0  0  0  0  0  0  0  0  0
   64.1612   34.6787   23.1437 O   0  0  0  0  0  0  0  0  0  0  0  0
   65.2464   38.2409   25.8980 C   0  0  0  0  0  0  0  0  0  0  0  0
   65.9850   37.2256   25.0411 C   0  0  0  0  0  0  0  0  0  0  0  0
   64.8064   37.3504   22.8340 C   0  0  0  0  0  0  0  0  0  0  0  0
   66.0314   38.0452   22.2577 C   0  0  0  0  0  0  0  0  0  0  0  0
   62.9879   33.1405   28.2075 O   0  0  0  0  0  0  0  0  0  0  0  0
   62.5449   31.7878   28.1708 C   0  0  0  0  0  0  0  0  0  0  0  0
 12 13  1  0
 13  9  1  0
  9 14  1  0
 14 15  1  0
  9 10  1  0
 10 11  2  0
 10  1  1  0
  1  2  2  0
  2  3  1  0
  3  4  2  0
  4  5  1  0
  4  6  1  0
  6 16  1  0
 16 17  1  0
  6  7  2  0
  7  1  1  0
  5  8  1  0
M  END
> <minimizedAffinity>
-6.67427

> <CNNscore>
0.8004961610

> <CNNaffinity>
5.0677857399

> <CNN_VS>
4.0567431450

> <CNNaffinity_variance>
0.0090132868

$$$$



 17 17  0  0  0  0  0  0  0  0999 V2000
   65.9951   35.1480   26.0585 C   0  0  0  0  0  0  0  0  0  0  0  0
   65.6052   35.4966   24.7599 C   0  0  0  0  0  0  0  0  0  0  0  0
   64.3030   35.2336   24.3425 C   0  0  0  0  0  0  0  0  0  0  0  0
   63.4225   34.6103   25.2204 C   0  0  0  0  0  0  0  0  0  0  0  0
   62.1484   34.3642   24.7852 O   0  0  0  0  0  0  0  0  0  0  0  0
   63.8103   34.2267   26.5121 C   0  0  0  0  0  0  0  0  0  0  0  0
   65.1116   34.4955   26.9303 C   0  0  0  0  0  0  0  0  0  0  0  0
   61.8904   34.6210   23.9217 H   0  0  0  0  0  0  0  0  0  0  0  0
   68.0524   34.4136   27.2345 N   0  0  0  0  0  0  0  0  0  0  0  0
   67.3760   35.4024   26.5165 C   0  0  0  0  0  0  0  0  0  0  0  0
   67.8663   36.4923   26.2287 O   0  0  0  0  0  0  0  0  0  0  0  0
   67.8117   32.2046   26.1116 C   0  0  0  0  0  0  0  0  0  0  0  0
   67.6024   33.0238   27.3748 C   0  0  0  0  0  0  0  0  0  0  0  0
   69.3800   34.7485   27.7514 C   0  0  0  0  0  0  0  0  0  0  0  0
   70.4376   33.7464   27.3124 C   0  0  0  0  0  0  0  0  0  0  0  0
   62.8339   33.6088   27.2504 O   0  0  0  0  0  0  0  0  0  0  0  0
   63.2381   32.4802   28.0186 C   0  0  0  0  0  0  0  0  0  0  0  0
 12 13  1  0
 13  9  1  0
  9 14  1  0
 14 15  1  0
  9 10  1  0
 10 11  2  0
 10  1  1  0
  1  2  2  0
  2  3  1  0
  3  4  2  0
  4  5  1  0
  4  6  1  0
  6 16  1  0
 16 17  1  0
  6  7  2  0
  7  1  1  0
  5  8  1  0
M  END
> <minimizedAffinity>
-4.92415

> <CNNscore>
0.7415236831

> <CNNaffinity>
5.1273212433

> <CNN_VS>
3.8020300865

> <CNNaffinity_variance>
0.1901639849

$$$$



 17 17  0  0  0  0  0  0  0  0999 V2000
   65.8732   34.8482   25.4673 C   0  0  0  0  0  0  0  0  0  0  0  0
   67.1518   34.3723   25.7818 C   0  0  0  0  0  0  0  0  0  0  0  0
   67.2834   33.2547   26.6021 C   0  0  0  0  0  0  0  0  0  0  0  0
   66.1394   32.6470   27.1086 C   0  0  0  0  0  0  0  0  0  0  0  0
   66.2971   31.5497   27.9115 O   0  0  0  0  0  0  0  0  0  0  0  0
   64.8548   33.1335   26.8276 C   0  0  0  0  0  0  0  0  0  0  0  0
   64.7243   34.2481   26.0023 C   0  0  0  0  0  0  0  0  0  0  0  0
   67.1561   31.2256   28.0985 H   0  0  0  0  0  0  0  0  0  0  0  0
   66.3057   37.2455   24.9978 N   0  0  0  0  0  0  0  0  0  0  0  0
   65.7108   36.0418   24.6129 C   0  0  0  0  0  0  0  0  0  0  0  0
   65.0514   35.9052   23.5846 O   0  0  0  0  0  0  0  0  0  0  0  0
   66.6945   37.8732   27.3755 C   0  0  0  0  0  0  0  0  0  0  0  0
   67.2989   37.3845   26.0692 C   0  0  0  0  0  0  0  0  0  0  0  0
   66.0350   38.4228   24.1717 C   0  0  0  0  0  0  0  0  0  0  0  0
   64.9448   39.3032   24.7649 C   0  0  0  0  0  0  0  0  0  0  0  0
   63.8302   32.4357   27.4137 O   0  0  0  0  0  0  0  0  0  0  0  0
   63.5633   32.7293   28.7811 C   0  0  0  0  0  0  0  0  0  0  0  0
 12 13  1  0
 13  9  1  0
  9 14  1  0
 14 15  1  0
  9 10  1  0
 10 11  2  0
 10  1  1  0
  1  2  2  0
  2  3  1  0
  3  4  2  0
  4  5  1  0
  4  6  1  0
  6 16  1  0
 16 17  1  0
  6  7  2  0
  7  1  1  0
  5  8  1  0
M  END
> <minimizedAffinity>
-5.50693

> <CNNscore>
0.7194076777

> <CNNaffinity>
5.0763893127

> <CNN_VS>
3.6519935131

> <CNNaffinity_variance>
0.0381130539

$$$$



 17 17  0  0  0  0  0  0  0  0999 V2000
   66.5078   36.1002   24.9499 C   0  0  0  0  0  0  0  0  0  0  0  0
   67.4812   36.6728   25.7775 C   0  0  0  0  0  0  0  0  0  0  0  0
   68.0651   37.8828   25.4113 C   0  0  0  0  0  0  0  0  0  0  0  0
   67.6821   38.4868   24.2184 C   0  0  0  0  0  0  0  0  0  0  0  0
   68.2710   39.6760   23.8827 O   0  0  0  0  0  0  0  0  0  0  0  0
   66.7324   37.9073   23.3650 C   0  0  0  0  0  0  0  0  0  0  0  0
   66.1450   36.6997   23.7353 C   0  0  0  0  0  0  0  0  0  0  0  0
   68.9055   40.0622   24.4538 H   0  0  0  0  0  0  0  0  0  0  0  0
   66.4698   34.0251   26.3090 N   0  0  0  0  0  0  0  0  0  0  0  0
   65.8877   34.8093   25.3105 C   0  0  0  0  0  0  0  0  0  0  0  0
   64.8676   34.4923   24.7023 O   0  0  0  0  0  0  0  0  0  0  0  0
   68.8118   33.6827   27.0812 C   0  0  0  0  0  0  0  0  0  0  0  0
   67.5248   34.4790   27.2227 C   0  0  0  0  0  0  0  0  0  0  0  0
   65.8771   32.7112   26.5622 C   0  0  0  0  0  0  0  0  0  0  0  0
   66.8006   31.5745   26.1494 C   0  0  0  0  0  0  0  0  0  0  0  0
   66.4739   38.6159   22.2199 O   0  0  0  0  0  0  0  0  0  0  0  0
   66.9469   38.0487   21.0025 C   0  0  0  0  0  0  0  0  0  0  0  0
 12 13  1  0
 13  9  1  0
  9 14  1  0
 14 15  1  0
  9 10  1  0
 10 11  2  0
 10  1  1  0
  1  2  2  0
  2  3  1  0
  3  4  2  0
  4  5  1  0
  4  6  1  0
  6 16  1  0
 16 17  1  0
  6  7  2  0
  7  1  1  0
  5  8  1  0
M  END
> <minimizedAffinity>
-5.66409

> <CNNscore>
0.5764268041

> <CNNaffinity>
4.2237877846

> <CNN_VS>
2.4347045422

> <CNNaffinity_variance>
0.4238817394

$$$$



 17 17  0  0  0  0  0  0  0  0999 V2000
   64.9870   35.2774   25.7755 C   0  0  0  0  0  0  0  0  0  0  0  0
   66.1786   35.7759   26.3154 C   0  0  0  0  0  0  0  0  0  0  0  0
   66.9608   36.6460   25.5603 C   0  0  0  0  0  0  0  0  0  0  0  0
   66.5501   36.9851   24.2755 C   0  0  0  0  0  0  0  0  0  0  0  0
   67.3369   37.8428   23.5552 O   0  0  0  0  0  0  0  0  0  0  0  0
   65.3757   36.4670   23.7112 C   0  0  0  0  0  0  0  0  0  0  0  0
   64.5913   35.6012   24.4698 C   0  0  0  0  0  0  0  0  0  0  0  0
   68.1214   38.1884   23.9334 H   0  0  0  0  0  0  0  0  0  0  0  0
   64.7497   33.2431   27.1755 N   0  0  0  0  0  0  0  0  0  0  0  0
   64.1507   34.3402   26.5523 C   0  0  0  0  0  0  0  0  0  0  0  0
   62.9479   34.5865   26.6134 O   0  0  0  0  0  0  0  0  0  0  0  0
   66.7272   31.8535   26.5782 C   0  0  0  0  0  0  0  0  0  0  0  0
   66.1965   33.0584   27.3379 C   0  0  0  0  0  0  0  0  0  0  0  0
   63.8678   32.2897   27.8501 C   0  0  0  0  0  0  0  0  0  0  0  0
   64.1732   32.1761   29.3364 C   0  0  0  0  0  0  0  0  0  0  0  0
   65.1158   36.8833   22.4308 O   0  0  0  0  0  0  0  0  0  0  0  0
   66.0213   37.8317   21.8759 C   0  0  0  0  0  0  0  0  0  0  0  0
 12 13  1  0
 13  9  1  0
  9 14  1  0
 14 15  1  0
  9 10  1  0
 10 11  2  0
 10  1  1  0
  1  2  2  0
  2  3  1  0
  3  4  2  0
  4  5  1  0
  4  6  1  0
  6 16  1  0
 16 17  1  0
  6  7  2  0
  7  1  1  0
  5  8  1  0
M  END
> <minimizedAffinity>
-6.40050

> <CNNscore>
0.5229129195

> <CNNaffinity>
4.8295302391

> <CNN_VS>
2.5254237652

> <CNNaffinity_variance>
0.0196264703

$$$$



 17 17  0  0  0  0  0  0  0  0999 V2000
   64.5773   35.1795   25.4181 C   0  0  0  0  0  0  0  0  0  0  0  0
   64.2152   34.8536   24.1055 C   0  0  0  0  0  0  0  0  0  0  0  0
   64.4796   35.7561   23.0785 C   0  0  0  0  0  0  0  0  0  0  0  0
   65.0805   36.9729   23.3833 C   0  0  0  0  0  0  0  0  0  0  0  0
   65.3300   37.8412   22.3551 O   0  0  0  0  0  0  0  0  0  0  0  0
   65.4182   37.3247   24.6979 C   0  0  0  0  0  0  0  0  0  0  0  0
   65.1583   36.4187   25.7235 C   0  0  0  0  0  0  0  0  0  0  0  0
   65.1039   37.6049   21.4770 H   0  0  0  0  0  0  0  0  0  0  0  0
   65.2975   33.3861   26.9736 N   0  0  0  0  0  0  0  0  0  0  0  0
   64.2912   34.2445   26.5249 C   0  0  0  0  0  0  0  0  0  0  0  0
   63.1598   34.2785   27.0043 O   0  0  0  0  0  0  0  0  0  0  0  0
   67.3644   32.1382   26.3662 C   0  0  0  0  0  0  0  0  0  0  0  0
   66.7143   33.4912   26.6059 C   0  0  0  0  0  0  0  0  0  0  0  0
   64.9383   32.4109   28.0040 C   0  0  0  0  0  0  0  0  0  0  0  0
   63.4940   32.5606   28.4590 C   0  0  0  0  0  0  0  0  0  0  0  0
   65.9886   38.5639   24.8375 O   0  0  0  0  0  0  0  0  0  0  0  0
   65.1795   39.5709   25.4363 C   0  0  0  0  0  0  0  0  0  0  0  0
 12 13  1  0
 13  9  1  0
  9 14  1  0
 14 15  1  0
  9 10  1  0
 10 11  2  0
 10  1  1  0
  1  2  2  0
  2  3  1  0
  3  4  2  0
  4  5  1  0
  4  6  1  0
  6 16  1  0
 16 17  1  0
  6  7  2  0
  7  1  1  0
  5  8  1  0
M  END
> <minimizedAffinity>
-6.75795

> <CNNscore>
0.4525313079

> <CNNaffinity>
4.4118628502

> <CNN_VS>
1.9965060949

> <CNNaffinity_variance>
0.4104940593

$$$$
