


 31 32  0  0  0  0  0  0  0  0999 V2000
   28.6495    0.5413    3.7616 C   0  0  0  0  0  0  0  0  0  0  0  0
   27.7122   -0.2491    3.7679 O   0  0  0  0  0  0  0  0  0  0  0  0
   28.5416    1.9234    3.7043 N   0  0  0  0  0  0  0  0  0  0  0  0
   29.3925    2.4148    3.6448 H   0  0  0  0  0  0  0  0  0  0  0  0
   27.3772    2.7194    3.7199 C   0  0  0  0  0  0  0  0  0  0  0  0
   27.4076    4.1168    3.6494 C   0  0  0  0  0  0  0  0  0  0  0  0
   26.2189    4.8786    3.6561 C   0  0  0  0  0  0  0  0  0  0  0  0
   24.9813    4.2158    3.7265 C   0  0  0  0  0  0  0  0  0  0  0  0
   24.9416    2.8178    3.7931 C   0  0  0  0  0  0  0  0  0  0  0  0
   26.1279    2.0800    3.7884 C   0  0  0  0  0  0  0  0  0  0  0  0
   25.9874    0.1839    3.8670 Br  0  0  0  0  0  0  0  0  0  0  0  0
   26.2842    6.3868    3.5737 C   0  0  0  0  0  0  0  0  0  0  0  0
   25.4560    7.0186    4.4479 F   0  0  0  0  0  0  0  0  0  0  0  0
   27.5320    6.8611    3.8348 F   0  0  0  0  0  0  0  0  0  0  0  0
   25.9454    6.8503    2.3414 F   0  0  0  0  0  0  0  0  0  0  0  0
   23.7371    4.9334    3.7225 C   0  0  0  0  0  0  0  0  0  0  0  0
   22.7258    5.4992    3.7484 N   0  0  0  0  0  0  0  0  0  0  0  0
   30.3091   -1.2890    3.1577 C   0  0  0  0  0  0  0  0  0  0  0  0
   30.1309    0.0852    3.8043 C   0  0  0  0  0  0  0  0  0  0  0  0
   30.9150    1.0458    3.0688 O   0  0  0  0  0  0  0  0  0  0  0  0
   31.8477    0.7800    3.0822 H   0  0  0  0  0  0  0  0  0  0  0  0
   30.6316    0.0937    5.2633 C   0  0  0  0  0  0  0  0  0  0  0  0
   30.1014    1.2144    5.9717 O   0  0  0  0  0  0  0  0  0  0  0  0
   29.8235    1.0443    7.2988 C   0  0  0  0  0  0  0  0  0  0  0  0
   29.2833    2.0092    8.1537 C   0  0  0  0  0  0  0  0  0  0  0  0
   29.0517    1.7052    9.5017 C   0  0  0  0  0  0  0  0  0  0  0  0
   29.3542    0.4359    9.9939 C   0  0  0  0  0  0  0  0  0  0  0  0
   29.0680    0.0791   11.6527 Cl  0  0  0  0  0  0  0  0  0  0  0  0
   29.8816   -0.5258    9.1357 C   0  0  0  0  0  0  0  0  0  0  0  0
   30.1793   -1.7539    9.5858 F   0  0  0  0  0  0  0  0  0  0  0  0
   30.1143   -0.2279    7.7961 C   0  0  0  0  0  0  0  0  0  0  0  0
 19 18  1  0
 19 20  1  0
 19 22  1  0
 22 23  1  0
 23 24  1  0
 24 25  2  0
 25 26  1  0
 26 27  2  0
 27 28  1  0
 27 29  1  0
 29 30  1  0
 29 31  2  0
 19  1  1  0
  1  2  2  0
  1  3  1  0
  3  5  1  0
  5  6  2  0
  6  7  1  0
  7 12  1  0
 12 13  1  0
 12 14  1  0
 12 15  1  0
  7  8  2  0
  8 16  1  0
 16 17  3  0
  8  9  1  0
  9 10  2  0
 10 11  1  0
 31 24  1  0
 10  5  1  0
 20 21  1  0
  3  4  1  0
M  END
> <minimizedAffinity>
-9.55145

> <CNNscore>
0.6287496090

> <CNNaffinity>
8.1995306015

> <CNN_VS>
5.1554517746

> <CNNaffinity_variance>
0.0492950231

$$$$



 31 32  0  0  0  0  0  0  0  0999 V2000
   28.7769    1.9876    5.2975 C   0  0  0  0  0  0  0  0  0  0  0  0
   29.1320    2.8565    6.0863 O   0  0  0  0  0  0  0  0  0  0  0  0
   27.7545    2.1087    4.3674 N   0  0  0  0  0  0  0  0  0  0  0  0
   27.5522    1.2966    3.8489 H   0  0  0  0  0  0  0  0  0  0  0  0
   26.9657    3.2381    4.0645 C   0  0  0  0  0  0  0  0  0  0  0  0
   25.5727    3.2537    4.1984 C   0  0  0  0  0  0  0  0  0  0  0  0
   24.8186    4.4084    3.8959 C   0  0  0  0  0  0  0  0  0  0  0  0
   25.4852    5.5666    3.4597 C   0  0  0  0  0  0  0  0  0  0  0  0
   26.8790    5.5610    3.3268 C   0  0  0  0  0  0  0  0  0  0  0  0
   27.6090    4.4085    3.6278 C   0  0  0  0  0  0  0  0  0  0  0  0
   29.5005    4.4873    3.4351 Br  0  0  0  0  0  0  0  0  0  0  0  0
   23.3153    4.3958    4.0555 C   0  0  0  0  0  0  0  0  0  0  0  0
   22.8527    3.3531    4.7958 F   0  0  0  0  0  0  0  0  0  0  0  0
   22.8553    5.5197    4.6682 F   0  0  0  0  0  0  0  0  0  0  0  0
   22.6713    4.3167    2.8609 F   0  0  0  0  0  0  0  0  0  0  0  0
   24.7761    6.7767    3.1503 C   0  0  0  0  0  0  0  0  0  0  0  0
   24.1901    7.7381    2.8749 N   0  0  0  0  0  0  0  0  0  0  0  0
   28.5810   -0.4012    4.4466 C   0  0  0  0  0  0  0  0  0  0  0  0
   29.4367    0.5855    5.2420 C   0  0  0  0  0  0  0  0  0  0  0  0
   30.7145    0.7190    4.5879 O   0  0  0  0  0  0  0  0  0  0  0  0
   31.1463   -0.1483    4.5419 H   0  0  0  0  0  0  0  0  0  0  0  0
   29.6974    0.0808    6.6761 C   0  0  0  0  0  0  0  0  0  0  0  0
   29.8917    1.1778    7.5692 O   0  0  0  0  0  0  0  0  0  0  0  0
   29.6025    0.9723    8.8888 C   0  0  0  0  0  0  0  0  0  0  0  0
   28.4760    1.4490    9.5652 C   0  0  0  0  0  0  0  0  0  0  0  0
   28.3021    1.1701   10.9272 C   0  0  0  0  0  0  0  0  0  0  0  0
   29.2503    0.4103   11.6117 C   0  0  0  0  0  0  0  0  0  0  0  0
   29.0248    0.0797   13.2853 Cl  0  0  0  0  0  0  0  0  0  0  0  0
   30.3653   -0.0721   10.9308 C   0  0  0  0  0  0  0  0  0  0  0  0
   31.2902   -0.8061   11.5675 F   0  0  0  0  0  0  0  0  0  0  0  0
   30.5427    0.2035    9.5780 C   0  0  0  0  0  0  0  0  0  0  0  0
 19 18  1  0
 19 20  1  0
 19 22  1  0
 22 23  1  0
 23 24  1  0
 24 25  2  0
 25 26  1  0
 26 27  2  0
 27 28  1  0
 27 29  1  0
 29 30  1  0
 29 31  2  0
 19  1  1  0
  1  2  2  0
  1  3  1  0
  3  5  1  0
  5  6  2  0
  6  7  1  0
  7 12  1  0
 12 13  1  0
 12 14  1  0
 12 15  1  0
  7  8  2  0
  8 16  1  0
 16 17  3  0
  8  9  1  0
  9 10  2  0
 10 11  1  0
 31 24  1  0
 10  5  1  0
 20 21  1  0
  3  4  1  0
M  END
> <minimizedAffinity>
-6.74248

> <CNNscore>
0.5788834095

> <CNNaffinity>
8.4278593063

> <CNN_VS>
4.8787479401

> <CNNaffinity_variance>
0.6635200381

$$$$



 31 32  0  0  0  0  0  0  0  0999 V2000
   28.6126    0.5678    3.9577 C   0  0  0  0  0  0  0  0  0  0  0  0
   27.6938   -0.1749    4.2855 O   0  0  0  0  0  0  0  0  0  0  0  0
   28.4885    1.9084    3.6220 N   0  0  0  0  0  0  0  0  0  0  0  0
   29.3152    2.3504    3.3212 H   0  0  0  0  0  0  0  0  0  0  0  0
   27.3377    2.7235    3.6534 C   0  0  0  0  0  0  0  0  0  0  0  0
   27.3929    4.1218    3.6410 C   0  0  0  0  0  0  0  0  0  0  0  0
   26.2174    4.9035    3.6618 C   0  0  0  0  0  0  0  0  0  0  0  0
   24.9678    4.2603    3.6869 C   0  0  0  0  0  0  0  0  0  0  0  0
   24.9033    2.8616    3.6953 C   0  0  0  0  0  0  0  0  0  0  0  0
   26.0768    2.1039    3.6774 C   0  0  0  0  0  0  0  0  0  0  0  0
   25.9029    0.2089    3.6758 Br  0  0  0  0  0  0  0  0  0  0  0  0
   26.3095    6.4125    3.6425 C   0  0  0  0  0  0  0  0  0  0  0  0
   25.9867    6.9647    2.4425 F   0  0  0  0  0  0  0  0  0  0  0  0
   25.4788    6.9886    4.5524 F   0  0  0  0  0  0  0  0  0  0  0  0
   27.5624    6.8555    3.9293 F   0  0  0  0  0  0  0  0  0  0  0  0
   23.7361    4.9992    3.6944 C   0  0  0  0  0  0  0  0  0  0  0  0
   22.7306    5.5755    3.6771 N   0  0  0  0  0  0  0  0  0  0  0  0
   30.1788   -1.2761    3.1729 C   0  0  0  0  0  0  0  0  0  0  0  0
   30.0836    0.0878    3.8578 C   0  0  0  0  0  0  0  0  0  0  0  0
   30.8149    1.0502    3.0720 O   0  0  0  0  0  0  0  0  0  0  0  0
   31.7403    0.7695    2.9961 H   0  0  0  0  0  0  0  0  0  0  0  0
   30.7139    0.0597    5.2654 C   0  0  0  0  0  0  0  0  0  0  0  0
   30.2176    1.1360    6.0617 O   0  0  0  0  0  0  0  0  0  0  0  0
   30.0054    0.8895    7.3889 C   0  0  0  0  0  0  0  0  0  0  0  0
   30.5798   -0.1450    8.1329 C   0  0  0  0  0  0  0  0  0  0  0  0
   30.2715   -0.2902    9.4919 C   0  0  0  0  0  0  0  0  0  0  0  0
   29.3943    0.6014   10.1087 C   0  0  0  0  0  0  0  0  0  0  0  0
   29.0223    0.4076   11.7776 Cl  0  0  0  0  0  0  0  0  0  0  0  0
   28.8333    1.6375    9.3661 C   0  0  0  0  0  0  0  0  0  0  0  0
   27.9879    2.5082    9.9377 F   0  0  0  0  0  0  0  0  0  0  0  0
   29.1359    1.7848    8.0155 C   0  0  0  0  0  0  0  0  0  0  0  0
 19 18  1  0
 19 20  1  0
 19 22  1  0
 22 23  1  0
 23 24  1  0
 24 25  2  0
 25 26  1  0
 26 27  2  0
 27 28  1  0
 27 29  1  0
 29 30  1  0
 29 31  2  0
 19  1  1  0
  1  2  2  0
  1  3  1  0
  3  5  1  0
  5  6  2  0
  6  7  1  0
  7 12  1  0
 12 13  1  0
 12 14  1  0
 12 15  1  0
  7  8  2  0
  8 16  1  0
 16 17  3  0
  8  9  1  0
  9 10  2  0
 10 11  1  0
 31 24  1  0
 10  5  1  0
 20 21  1  0
  3  4  1  0
M  END
> <minimizedAffinity>
-9.44635

> <CNNscore>
0.5435780883

> <CNNaffinity>
8.0572757721

> <CNN_VS>
4.3797583580

> <CNNaffinity_variance>
0.0878642425

$$$$



 31 32  0  0  0  0  0  0  0  0999 V2000
   29.1212   -0.2776    4.3910 C   0  0  0  0  0  0  0  0  0  0  0  0
   27.9977   -0.7144    4.6151 O   0  0  0  0  0  0  0  0  0  0  0  0
   30.0060    0.2058    5.3442 N   0  0  0  0  0  0  0  0  0  0  0  0
   30.8472    0.5787    4.9940 H   0  0  0  0  0  0  0  0  0  0  0  0
   29.8631    0.2351    6.7471 C   0  0  0  0  0  0  0  0  0  0  0  0
   29.8682   -0.9191    7.5386 C   0  0  0  0  0  0  0  0  0  0  0  0
   29.7338   -0.8477    8.9423 C   0  0  0  0  0  0  0  0  0  0  0  0
   29.6010    0.4108    9.5543 C   0  0  0  0  0  0  0  0  0  0  0  0
   29.5991    1.5709    8.7703 C   0  0  0  0  0  0  0  0  0  0  0  0
   29.7301    1.4814    7.3824 C   0  0  0  0  0  0  0  0  0  0  0  0
   29.7325    3.1053    6.3903 Br  0  0  0  0  0  0  0  0  0  0  0  0
   29.7482   -2.1123    9.7708 C   0  0  0  0  0  0  0  0  0  0  0  0
   28.5088   -2.5615   10.1044 F   0  0  0  0  0  0  0  0  0  0  0  0
   30.3552   -3.1428    9.1231 F   0  0  0  0  0  0  0  0  0  0  0  0
   30.4124   -1.9504   10.9458 F   0  0  0  0  0  0  0  0  0  0  0  0
   29.4752    0.5504   10.9782 C   0  0  0  0  0  0  0  0  0  0  0  0
   29.4065    0.6609   12.1300 N   0  0  0  0  0  0  0  0  0  0  0  0
   31.2252    0.0605    3.0026 C   0  0  0  0  0  0  0  0  0  0  0  0
   29.7175   -0.1915    2.9622 C   0  0  0  0  0  0  0  0  0  0  0  0
   29.4781   -1.4506    2.3021 O   0  0  0  0  0  0  0  0  0  0  0  0
   29.8437   -1.4196    1.4042 H   0  0  0  0  0  0  0  0  0  0  0  0
   28.9819    0.9023    2.1611 C   0  0  0  0  0  0  0  0  0  0  0  0
   28.7817    2.0663    2.9635 O   0  0  0  0  0  0  0  0  0  0  0  0
   27.4923    2.4532    3.1982 C   0  0  0  0  0  0  0  0  0  0  0  0
   27.0933    3.6162    3.8630 C   0  0  0  0  0  0  0  0  0  0  0  0
   25.7315    3.8925    4.0429 C   0  0  0  0  0  0  0  0  0  0  0  0
   24.7688    3.0100    3.5536 C   0  0  0  0  0  0  0  0  0  0  0  0
   23.1003    3.3611    3.7860 Cl  0  0  0  0  0  0  0  0  0  0  0  0
   25.1710    1.8583    2.8819 C   0  0  0  0  0  0  0  0  0  0  0  0
   24.2634    0.9952    2.4013 F   0  0  0  0  0  0  0  0  0  0  0  0
   26.5227    1.5793    2.7019 C   0  0  0  0  0  0  0  0  0  0  0  0
 19 18  1  0
 19 20  1  0
 19 22  1  0
 22 23  1  0
 23 24  1  0
 24 25  2  0
 25 26  1  0
 26 27  2  0
 27 28  1  0
 27 29  1  0
 29 30  1  0
 29 31  2  0
 19  1  1  0
  1  2  2  0
  1  3  1  0
  3  5  1  0
  5  6  2  0
  6  7  1  0
  7 12  1  0
 12 13  1  0
 12 14  1  0
 12 15  1  0
  7  8  2  0
  8 16  1  0
 16 17  3  0
  8  9  1  0
  9 10  2  0
 10 11  1  0
 31 24  1  0
 10  5  1  0
 20 21  1  0
  3  4  1  0
M  END
> <minimizedAffinity>
-5.34030

> <CNNscore>
0.5029059052

> <CNNaffinity>
7.9270057678

> <CNN_VS>
3.9865379333

> <CNNaffinity_variance>
0.0858490169

$$$$



 31 32  0  0  0  0  0  0  0  0999 V2000
   25.2567   10.7750    3.7136 C   0  0  0  0  0  0  0  0  0  0  0  0
   24.8407   10.7154    4.8654 O   0  0  0  0  0  0  0  0  0  0  0  0
   25.5526    9.6881    2.9033 N   0  0  0  0  0  0  0  0  0  0  0  0
   25.9367    9.9052    2.0232 H   0  0  0  0  0  0  0  0  0  0  0  0
   25.3773    8.3143    3.1703 C   0  0  0  0  0  0  0  0  0  0  0  0
   26.3161    7.3412    2.8092 C   0  0  0  0  0  0  0  0  0  0  0  0
   26.1097    5.9761    3.1044 C   0  0  0  0  0  0  0  0  0  0  0  0
   24.9401    5.5915    3.7826 C   0  0  0  0  0  0  0  0  0  0  0  0
   23.9975    6.5590    4.1514 C   0  0  0  0  0  0  0  0  0  0  0  0
   24.2166    7.9050    3.8485 C   0  0  0  0  0  0  0  0  0  0  0  0
   22.8944    9.1589    4.3966 Br  0  0  0  0  0  0  0  0  0  0  0  0
   27.1450    4.9490    2.7058 C   0  0  0  0  0  0  0  0  0  0  0  0
   26.6153    3.8230    2.1575 F   0  0  0  0  0  0  0  0  0  0  0  0
   28.0208    5.4342    1.7852 F   0  0  0  0  0  0  0  0  0  0  0  0
   27.8896    4.5310    3.7637 F   0  0  0  0  0  0  0  0  0  0  0  0
   24.6793    4.2210    4.1243 C   0  0  0  0  0  0  0  0  0  0  0  0
   24.4370    3.1227    4.4046 N   0  0  0  0  0  0  0  0  0  0  0  0
   27.0065   12.5074    3.0764 C   0  0  0  0  0  0  0  0  0  0  0  0
   25.5301   12.1186    2.9895 C   0  0  0  0  0  0  0  0  0  0  0  0
   25.1769   11.9573    1.6011 O   0  0  0  0  0  0  0  0  0  0  0  0
   25.3402   12.7878    1.1273 H   0  0  0  0  0  0  0  0  0  0  0  0
   24.6200   13.2163    3.5777 C   0  0  0  0  0  0  0  0  0  0  0  0
   25.3388   14.0182    4.5154 O   0  0  0  0  0  0  0  0  0  0  0  0
   25.2284   13.6899    5.8373 C   0  0  0  0  0  0  0  0  0  0  0  0
   26.2153   13.0780    6.6153 C   0  0  0  0  0  0  0  0  0  0  0  0
   25.9700   12.7891    7.9641 C   0  0  0  0  0  0  0  0  0  0  0  0
   24.7414   13.1166    8.5368 C   0  0  0  0  0  0  0  0  0  0  0  0
   24.4536   12.7516   10.1937 Cl  0  0  0  0  0  0  0  0  0  0  0  0
   23.7653   13.7366    7.7607 C   0  0  0  0  0  0  0  0  0  0  0  0
   22.5763   14.0623    8.2897 F   0  0  0  0  0  0  0  0  0  0  0  0
   24.0042   14.0246    6.4200 C   0  0  0  0  0  0  0  0  0  0  0  0
 19 18  1  0
 19 20  1  0
 19 22  1  0
 22 23  1  0
 23 24  1  0
 24 25  2  0
 25 26  1  0
 26 27  2  0
 27 28  1  0
 27 29  1  0
 29 30  1  0
 29 31  2  0
 19  1  1  0
  1  2  2  0
  1  3  1  0
  3  5  1  0
  5  6  2  0
  6  7  1  0
  7 12  1  0
 12 13  1  0
 12 14  1  0
 12 15  1  0
  7  8  2  0
  8 16  1  0
 16 17  3  0
  8  9  1  0
  9 10  2  0
 10 11  1  0
 31 24  1  0
 10  5  1  0
 20 21  1  0
  3  4  1  0
M  END
> <minimizedAffinity>
14.53606

> <CNNscore>
0.4535188675

> <CNNaffinity>
6.4061660767

> <CNN_VS>
2.9053170681

> <CNNaffinity_variance>
0.0380993783

$$$$



 31 32  0  0  0  0  0  0  0  0999 V2000
   28.1236    0.9785    3.3469 C   0  0  0  0  0  0  0  0  0  0  0  0
   28.4444    1.4276    2.2521 O   0  0  0  0  0  0  0  0  0  0  0  0
   27.3054    1.6106    4.2722 N   0  0  0  0  0  0  0  0  0  0  0  0
   27.1940    1.1432    5.1315 H   0  0  0  0  0  0  0  0  0  0  0  0
   26.6117    2.8325    4.1480 C   0  0  0  0  0  0  0  0  0  0  0  0
   25.2203    2.9099    4.0194 C   0  0  0  0  0  0  0  0  0  0  0  0
   24.5609    4.1534    3.9088 C   0  0  0  0  0  0  0  0  0  0  0  0
   25.3204    5.3360    3.9375 C   0  0  0  0  0  0  0  0  0  0  0  0
   26.7126    5.2678    4.0700 C   0  0  0  0  0  0  0  0  0  0  0  0
   27.3487    4.0285    4.1752 C   0  0  0  0  0  0  0  0  0  0  0  0
   29.2419    4.0225    4.3669 Br  0  0  0  0  0  0  0  0  0  0  0  0
   23.0558    4.2047    3.7762 C   0  0  0  0  0  0  0  0  0  0  0  0
   22.5013    5.3417    4.2754 F   0  0  0  0  0  0  0  0  0  0  0  0
   22.6525    4.1328    2.4792 F   0  0  0  0  0  0  0  0  0  0  0  0
   22.4463    3.1786    4.4272 F   0  0  0  0  0  0  0  0  0  0  0  0
   24.7074    6.6316    3.8440 C   0  0  0  0  0  0  0  0  0  0  0  0
   24.1913    7.6649    3.7468 N   0  0  0  0  0  0  0  0  0  0  0  0
   27.5160   -1.1312    4.6311 C   0  0  0  0  0  0  0  0  0  0  0  0
   28.6177   -0.3964    3.8665 C   0  0  0  0  0  0  0  0  0  0  0  0
   28.9983   -1.1936    2.7271 O   0  0  0  0  0  0  0  0  0  0  0  0
   29.3115   -2.0605    3.0291 H   0  0  0  0  0  0  0  0  0  0  0  0
   29.8752   -0.1974    4.7373 C   0  0  0  0  0  0  0  0  0  0  0  0
   29.7953    1.0281    5.4657 O   0  0  0  0  0  0  0  0  0  0  0  0
   29.6942    0.9449    6.8259 C   0  0  0  0  0  0  0  0  0  0  0  0
   29.3227    1.9826    7.6856 C   0  0  0  0  0  0  0  0  0  0  0  0
   29.2640    1.7645    9.0683 C   0  0  0  0  0  0  0  0  0  0  0  0
   29.5705    0.5086    9.5914 C   0  0  0  0  0  0  0  0  0  0  0  0
   29.4977    0.2574   11.2922 Cl  0  0  0  0  0  0  0  0  0  0  0  0
   29.9289   -0.5254    8.7301 C   0  0  0  0  0  0  0  0  0  0  0  0
   30.2269   -1.7422    9.2097 F   0  0  0  0  0  0  0  0  0  0  0  0
   29.9897   -0.3129    7.3558 C   0  0  0  0  0  0  0  0  0  0  0  0
 19 18  1  0
 19 20  1  0
 19 22  1  0
 22 23  1  0
 23 24  1  0
 24 25  2  0
 25 26  1  0
 26 27  2  0
 27 28  1  0
 27 29  1  0
 29 30  1  0
 29 31  2  0
 19  1  1  0
  1  2  2  0
  1  3  1  0
  3  5  1  0
  5  6  2  0
  6  7  1  0
  7 12  1  0
 12 13  1  0
 12 14  1  0
 12 15  1  0
  7  8  2  0
  8 16  1  0
 16 17  3  0
  8  9  1  0
  9 10  2  0
 10 11  1  0
 31 24  1  0
 10  5  1  0
 20 21  1  0
  3  4  1  0
M  END
> <minimizedAffinity>
-7.80772

> <CNNscore>
0.4421633780

> <CNNaffinity>
8.1448717117

> <CNN_VS>
3.6013638973

> <CNNaffinity_variance>
0.3568277657

$$$$



 31 32  0  0  0  0  0  0  0  0999 V2000
   30.8475   -0.6289    4.9894 C   0  0  0  0  0  0  0  0  0  0  0  0
   31.9799   -0.7190    5.4508 O   0  0  0  0  0  0  0  0  0  0  0  0
   29.6970   -0.3590    5.7165 N   0  0  0  0  0  0  0  0  0  0  0  0
   28.8556   -0.3811    5.2059 H   0  0  0  0  0  0  0  0  0  0  0  0
   29.5702   -0.0572    7.0885 C   0  0  0  0  0  0  0  0  0  0  0  0
   28.9607    1.1114    7.5593 C   0  0  0  0  0  0  0  0  0  0  0  0
   28.8425    1.3726    8.9417 C   0  0  0  0  0  0  0  0  0  0  0  0
   29.3409    0.4331    9.8610 C   0  0  0  0  0  0  0  0  0  0  0  0
   29.9484   -0.7407    9.3987 C   0  0  0  0  0  0  0  0  0  0  0  0
   30.0595   -0.9814    8.0271 C   0  0  0  0  0  0  0  0  0  0  0  0
   30.8851   -2.6065    7.4810 Br  0  0  0  0  0  0  0  0  0  0  0  0
   28.1743    2.6418    9.4194 C   0  0  0  0  0  0  0  0  0  0  0  0
   28.7747    3.7773    8.9730 F   0  0  0  0  0  0  0  0  0  0  0  0
   26.8783    2.7227    9.0144 F   0  0  0  0  0  0  0  0  0  0  0  0
   28.1613    2.7379   10.7754 F   0  0  0  0  0  0  0  0  0  0  0  0
   29.2380    0.6341   11.2795 C   0  0  0  0  0  0  0  0  0  0  0  0
   29.1282    0.8148   12.4191 N   0  0  0  0  0  0  0  0  0  0  0  0
   31.8055   -1.1538    2.6925 C   0  0  0  0  0  0  0  0  0  0  0  0
   30.5382   -0.8252    3.4827 C   0  0  0  0  0  0  0  0  0  0  0  0
   29.6173   -1.9271    3.3559 O   0  0  0  0  0  0  0  0  0  0  0  0
   29.4091   -2.0683    2.4191 H   0  0  0  0  0  0  0  0  0  0  0  0
   29.8378    0.4338    2.9315 C   0  0  0  0  0  0  0  0  0  0  0  0
   28.4192    0.3065    3.0324 O   0  0  0  0  0  0  0  0  0  0  0  0
   27.6873    1.4592    3.0860 C   0  0  0  0  0  0  0  0  0  0  0  0
   28.2021    2.7517    3.2208 C   0  0  0  0  0  0  0  0  0  0  0  0
   27.3368    3.8527    3.2689 C   0  0  0  0  0  0  0  0  0  0  0  0
   25.9584    3.6629    3.1765 C   0  0  0  0  0  0  0  0  0  0  0  0
   24.9084    5.0247    3.2414 Cl  0  0  0  0  0  0  0  0  0  0  0  0
   25.4508    2.3742    3.0308 C   0  0  0  0  0  0  0  0  0  0  0  0
   24.1287    2.1667    2.9387 F   0  0  0  0  0  0  0  0  0  0  0  0
   26.3065    1.2774    2.9837 C   0  0  0  0  0  0  0  0  0  0  0  0
 19 18  1  0
 19 20  1  0
 19 22  1  0
 22 23  1  0
 23 24  1  0
 24 25  2  0
 25 26  1  0
 26 27  2  0
 27 28  1  0
 27 29  1  0
 29 30  1  0
 29 31  2  0
 19  1  1  0
  1  2  2  0
  1  3  1  0
  3  5  1  0
  5  6  2  0
  6  7  1  0
  7 12  1  0
 12 13  1  0
 12 14  1  0
 12 15  1  0
  7  8  2  0
  8 16  1  0
 16 17  3  0
  8  9  1  0
  9 10  2  0
 10 11  1  0
 31 24  1  0
 10  5  1  0
 20 21  1  0
  3  4  1  0
M  END
> <minimizedAffinity>
7.25026

> <CNNscore>
0.3843702972

> <CNNaffinity>
7.6174163818

> <CNN_VS>
2.9279086590

> <CNNaffinity_variance>
0.4057792723

$$$$



 31 32  0  0  0  0  0  0  0  0999 V2000
   27.8480    2.6921    5.2997 C   0  0  0  0  0  0  0  0  0  0  0  0
   26.8155    2.7961    5.9527 O   0  0  0  0  0  0  0  0  0  0  0  0
   29.0412    2.1491    5.7542 N   0  0  0  0  0  0  0  0  0  0  0  0
   29.7971    2.1953    5.1251 H   0  0  0  0  0  0  0  0  0  0  0  0
   29.3175    1.5398    6.9960 C   0  0  0  0  0  0  0  0  0  0  0  0
   28.9878    0.2104    7.2834 C   0  0  0  0  0  0  0  0  0  0  0  0
   29.2915   -0.3675    8.5353 C   0  0  0  0  0  0  0  0  0  0  0  0
   29.9461    0.4091    9.5072 C   0  0  0  0  0  0  0  0  0  0  0  0
   30.2833    1.7387    9.2265 C   0  0  0  0  0  0  0  0  0  0  0  0
   29.9725    2.2952    7.9834 C   0  0  0  0  0  0  0  0  0  0  0  0
   30.4774    4.1039    7.6758 Br  0  0  0  0  0  0  0  0  0  0  0  0
   28.9271   -1.8081    8.8141 C   0  0  0  0  0  0  0  0  0  0  0  0
   28.3128   -2.4283    7.7714 F   0  0  0  0  0  0  0  0  0  0  0  0
   30.0183   -2.5656    9.1066 F   0  0  0  0  0  0  0  0  0  0  0  0
   28.0790   -1.9296    9.8695 F   0  0  0  0  0  0  0  0  0  0  0  0
   30.2950   -0.1253   10.7939 C   0  0  0  0  0  0  0  0  0  0  0  0
   30.6027   -0.5712   11.8186 N   0  0  0  0  0  0  0  0  0  0  0  0
   28.2820    4.6780    3.7709 C   0  0  0  0  0  0  0  0  0  0  0  0
   27.9657    3.1831    3.8336 C   0  0  0  0  0  0  0  0  0  0  0  0
   29.0413    2.4577    3.2049 O   0  0  0  0  0  0  0  0  0  0  0  0
   29.1333    2.7494    2.2844 H   0  0  0  0  0  0  0  0  0  0  0  0
   26.6678    2.8466    3.0710 C   0  0  0  0  0  0  0  0  0  0  0  0
   26.9358    1.9541    1.9891 O   0  0  0  0  0  0  0  0  0  0  0  0
   25.8648    1.3490    1.3940 C   0  0  0  0  0  0  0  0  0  0  0  0
   25.7871    0.9499    0.0567 C   0  0  0  0  0  0  0  0  0  0  0  0
   24.6222    0.3426   -0.4304 C   0  0  0  0  0  0  0  0  0  0  0  0
   23.5376    0.1289    0.4197 C   0  0  0  0  0  0  0  0  0  0  0  0
   22.1122   -0.6144   -0.1943 Cl  0  0  0  0  0  0  0  0  0  0  0  0
   23.6238    0.5178    1.7542 C   0  0  0  0  0  0  0  0  0  0  0  0
   22.5941    0.3215    2.5912 F   0  0  0  0  0  0  0  0  0  0  0  0
   24.7787    1.1225    2.2421 C   0  0  0  0  0  0  0  0  0  0  0  0
 19 18  1  0
 19 20  1  0
 19 22  1  0
 22 23  1  0
 23 24  1  0
 24 25  2  0
 25 26  1  0
 26 27  2  0
 27 28  1  0
 27 29  1  0
 29 30  1  0
 29 31  2  0
 19  1  1  0
  1  2  2  0
  1  3  1  0
  3  5  1  0
  5  6  2  0
  6  7  1  0
  7 12  1  0
 12 13  1  0
 12 14  1  0
 12 15  1  0
  7  8  2  0
  8 16  1  0
 16 17  3  0
  8  9  1  0
  9 10  2  0
 10 11  1  0
 31 24  1  0
 10  5  1  0
 20 21  1  0
  3  4  1  0
M  END
> <minimizedAffinity>
7.85525

> <CNNscore>
0.3111777008

> <CNNaffinity>
6.4639973640

> <CNN_VS>
2.0114517212

> <CNNaffinity_variance>
0.0018102614

$$$$



 31 32  0  0  0  0  0  0  0  0999 V2000
   38.3615    6.7668   -2.9783 C   0  0  0  0  0  0  0  0  0  0  0  0
   37.2491    6.4554   -3.3890 O   0  0  0  0  0  0  0  0  0  0  0  0
   39.4378    5.9045   -2.8253 N   0  0  0  0  0  0  0  0  0  0  0  0
   40.2459    6.2991   -2.4246 H   0  0  0  0  0  0  0  0  0  0  0  0
   39.5304    4.5390   -3.1664 C   0  0  0  0  0  0  0  0  0  0  0  0
   39.3424    4.0639   -4.4693 C   0  0  0  0  0  0  0  0  0  0  0  0
   39.4549    2.6897   -4.7734 C   0  0  0  0  0  0  0  0  0  0  0  0
   39.7706    1.7846   -3.7452 C   0  0  0  0  0  0  0  0  0  0  0  0
   39.9644    2.2519   -2.4396 C   0  0  0  0  0  0  0  0  0  0  0  0
   39.8462    3.6148   -2.1562 C   0  0  0  0  0  0  0  0  0  0  0  0
   40.1389    4.1706   -0.3600 Br  0  0  0  0  0  0  0  0  0  0  0  0
   39.2512    2.2076   -6.1918 C   0  0  0  0  0  0  0  0  0  0  0  0
   40.1317    1.2442   -6.5735 F   0  0  0  0  0  0  0  0  0  0  0  0
   38.0136    1.6758   -6.3799 F   0  0  0  0  0  0  0  0  0  0  0  0
   39.3823    3.2104   -7.1002 F   0  0  0  0  0  0  0  0  0  0  0  0
   39.9131    0.3771   -3.9933 C   0  0  0  0  0  0  0  0  0  0  0  0
   40.0020   -0.7574   -4.2136 N   0  0  0  0  0  0  0  0  0  0  0  0
   38.6121    8.3848   -1.0319 C   0  0  0  0  0  0  0  0  0  0  0  0
   38.7217    8.2121   -2.5474 C   0  0  0  0  0  0  0  0  0  0  0  0
   40.0839    8.4695   -2.9432 O   0  0  0  0  0  0  0  0  0  0  0  0
   40.3315    9.3705   -2.6829 H   0  0  0  0  0  0  0  0  0  0  0  0
   37.8207    9.2141   -3.2980 C   0  0  0  0  0  0  0  0  0  0  0  0
   37.9424   10.5210   -2.7357 O   0  0  0  0  0  0  0  0  0  0  0  0
   38.4109   11.5138   -3.5494 C   0  0  0  0  0  0  0  0  0  0  0  0
   38.3091   11.5482   -4.9430 C   0  0  0  0  0  0  0  0  0  0  0  0
   38.8399   12.6277   -5.6613 C   0  0  0  0  0  0  0  0  0  0  0  0
   39.4668   13.6752   -4.9871 C   0  0  0  0  0  0  0  0  0  0  0  0
   40.1174   14.9921   -5.8836 Cl  0  0  0  0  0  0  0  0  0  0  0  0
   39.5557   13.6421   -3.5977 C   0  0  0  0  0  0  0  0  0  0  0  0
   40.1530   14.6386   -2.9271 F   0  0  0  0  0  0  0  0  0  0  0  0
   39.0308   12.5711   -2.8801 C   0  0  0  0  0  0  0  0  0  0  0  0
 19 18  1  0
 19 20  1  0
 19 22  1  0
 22 23  1  0
 23 24  1  0
 24 25  2  0
 25 26  1  0
 26 27  2  0
 27 28  1  0
 27 29  1  0
 29 30  1  0
 29 31  2  0
 19  1  1  0
  1  2  2  0
  1  3  1  0
  3  5  1  0
  5  6  2  0
  6  7  1  0
  7 12  1  0
 12 13  1  0
 12 14  1  0
 12 15  1  0
  7  8  2  0
  8 16  1  0
 16 17  3  0
  8  9  1  0
  9 10  2  0
 10 11  1  0
 31 24  1  0
 10  5  1  0
 20 21  1  0
  3  4  1  0
M  END
> <minimizedAffinity>
7.33444

> <CNNscore>
0.2920680046

> <CNNaffinity>
4.7693209648

> <CNN_VS>
1.3929660320

> <CNNaffinity_variance>
0.9072504044

$$$$
