


 23 25  0  0  0  0  0  0  0  0999 V2000
    2.7942   43.1020   27.1215 N   0  0  0  0  0  0  0  0  0  0  0  0
    2.4242   42.4068   28.2447 C   0  0  0  0  0  0  0  0  0  0  0  0
    1.5165   41.5954   28.3483 O   0  0  0  0  0  0  0  0  0  0  0  0
    3.3018   42.8279   29.3892 C   0  0  0  0  0  0  0  0  0  0  0  0
    2.6016   43.5033   30.5835 C   0  0  0  0  0  0  0  0  0  0  0  0
    1.5644   44.5462   30.1251 C   0  0  0  0  0  0  0  0  0  0  0  0
    2.4351   45.6723   29.5507 C   0  0  0  0  0  0  0  0  0  0  0  0
    3.8672   45.1396   29.7470 C   0  0  0  0  0  0  0  0  0  0  0  0
    3.7240   44.4167   31.0922 C   0  0  0  0  0  0  0  0  0  0  0  0
    4.1700   43.9517   28.8144 C   0  0  0  0  0  0  0  0  0  0  0  0
    3.7178   44.0815   27.3881 C   0  0  0  0  0  0  0  0  0  0  0  0
    4.1093   44.9506   26.6233 O   0  0  0  0  0  0  0  0  0  0  0  0
    2.7897   42.0477   24.8914 C   0  0  0  0  0  0  0  0  0  0  0  0
    2.0873   43.0255   25.8310 C   0  0  0  0  0  0  0  0  0  0  0  0
    0.5850   42.7348   26.0835 C   0  0  0  0  0  0  0  0  0  0  0  0
   -0.5121   43.2245   25.0645 C   0  0  0  0  0  0  0  0  0  0  0  0
   -0.8110   42.0921   24.0608 C   0  0  0  0  0  0  0  0  0  0  0  0
   -0.0270   44.4637   24.3067 C   0  0  0  0  0  0  0  0  0  0  0  0
   -1.7979   43.5109   25.9314 C   0  0  0  0  0  0  0  0  0  0  0  0
   -2.7061   42.4046   26.5605 C   0  0  0  0  0  0  0  0  0  0  0  0
   -1.8960   41.7678   27.7194 C   0  0  0  0  0  0  0  0  0  0  0  0
   -3.0862   41.2768   25.5960 C   0  0  0  0  0  0  0  0  0  0  0  0
   -3.9837   42.9955   27.1874 C   0  0  0  0  0  0  0  0  0  0  0  0
 14 13  1  0
 14 15  1  0
 15 16  1  0
 16 17  1  0
 16 18  1  0
 16 19  1  0
 19 20  1  0
 20 21  1  0
 20 22  1  0
 20 23  1  0
 14  1  1  0
  1  2  1  0
  2  3  2  0
  4  2  1  0
  4  5  1  0
  5  6  1  0
  6  7  1  0
  8  7  1  0
  8  9  1  0
  8 10  1  0
 10 11  1  0
 11 12  2  0
 11  1  1  0
 10  4  1  0
  9  5  1  0
M  END
> <minimizedAffinity>
-5.26889

> <CNNscore>
0.5986518860

> <CNNaffinity>
5.3989982605

> <CNN_VS>
3.2321205139

> <CNNaffinity_variance>
0.0627062544

$$$$



 23 25  0  0  0  0  0  0  0  0999 V2000
    3.7121   42.9601   28.0889 N   0  0  0  0  0  0  0  0  0  0  0  0
    3.8734   42.4066   29.3337 C   0  0  0  0  0  0  0  0  0  0  0  0
    3.3705   41.3769   29.7574 O   0  0  0  0  0  0  0  0  0  0  0  0
    4.7609   43.3004   30.1528 C   0  0  0  0  0  0  0  0  0  0  0  0
    4.1376   43.9201   31.4177 C   0  0  0  0  0  0  0  0  0  0  0  0
    2.7184   44.4580   31.1531 C   0  0  0  0  0  0  0  0  0  0  0  0
    2.9712   45.6782   30.2568 C   0  0  0  0  0  0  0  0  0  0  0  0
    4.5050   45.6931   30.1136 C   0  0  0  0  0  0  0  0  0  0  0  0
    4.9296   45.2302   31.5129 C   0  0  0  0  0  0  0  0  0  0  0  0
    5.0123   44.5176   29.2571 C   0  0  0  0  0  0  0  0  0  0  0  0
    4.2478   44.2205   27.9989 C   0  0  0  0  0  0  0  0  0  0  0  0
    4.1196   45.0095   27.0745 O   0  0  0  0  0  0  0  0  0  0  0  0
    3.5716   41.4148   26.1714 C   0  0  0  0  0  0  0  0  0  0  0  0
    2.8217   42.4139   27.0498 C   0  0  0  0  0  0  0  0  0  0  0  0
    1.5295   41.8701   27.7130 C   0  0  0  0  0  0  0  0  0  0  0  0
    0.1811   42.6806   27.6328 C   0  0  0  0  0  0  0  0  0  0  0  0
    0.3450   44.0110   28.3960 C   0  0  0  0  0  0  0  0  0  0  0  0
   -0.9671   41.8764   28.2493 C   0  0  0  0  0  0  0  0  0  0  0  0
   -0.0439   42.9784   26.1006 C   0  0  0  0  0  0  0  0  0  0  0  0
   -1.4332   43.2869   25.4533 C   0  0  0  0  0  0  0  0  0  0  0  0
   -1.1779   44.3066   24.3132 C   0  0  0  0  0  0  0  0  0  0  0  0
   -2.4490   43.9180   26.4107 C   0  0  0  0  0  0  0  0  0  0  0  0
   -2.0537   42.0380   24.7978 C   0  0  0  0  0  0  0  0  0  0  0  0
 14 13  1  0
 14 15  1  0
 15 16  1  0
 16 17  1  0
 16 18  1  0
 16 19  1  0
 19 20  1  0
 20 21  1  0
 20 22  1  0
 20 23  1  0
 14  1  1  0
  1  2  1  0
  2  3  2  0
  4  2  1  0
  4  5  1  0
  5  6  1  0
  6  7  1  0
  8  7  1  0
  8  9  1  0
  8 10  1  0
 10 11  1  0
 11 12  2  0
 11  1  1  0
 10  4  1  0
  9  5  1  0
M  END
> <minimizedAffinity>
-5.00195

> <CNNscore>
0.5262695551

> <CNNaffinity>
5.3320436478

> <CNN_VS>
2.8060922623

> <CNNaffinity_variance>
0.0399873294

$$$$



 23 25  0  0  0  0  0  0  0  0999 V2000
    3.0506   43.4143   29.2917 N   0  0  0  0  0  0  0  0  0  0  0  0
    3.8168   42.5751   30.0600 C   0  0  0  0  0  0  0  0  0  0  0  0
    3.4257   41.6911   30.8074 O   0  0  0  0  0  0  0  0  0  0  0  0
    5.2645   42.9340   29.8778 C   0  0  0  0  0  0  0  0  0  0  0  0
    6.0176   43.4207   31.1303 C   0  0  0  0  0  0  0  0  0  0  0  0
    5.1832   44.4261   31.9466 C   0  0  0  0  0  0  0  0  0  0  0  0
    5.1628   45.6704   31.0480 C   0  0  0  0  0  0  0  0  0  0  0  0
    5.9866   45.2291   29.8234 C   0  0  0  0  0  0  0  0  0  0  0  0
    7.0541   44.3553   30.4940 C   0  0  0  0  0  0  0  0  0  0  0  0
    5.2424   44.1759   28.9811 C   0  0  0  0  0  0  0  0  0  0  0  0
    3.7839   44.4257   28.7238 C   0  0  0  0  0  0  0  0  0  0  0  0
    3.3525   45.4000   28.1252 O   0  0  0  0  0  0  0  0  0  0  0  0
    1.0519   44.4477   30.3025 C   0  0  0  0  0  0  0  0  0  0  0  0
    1.5772   43.4257   29.2967 C   0  0  0  0  0  0  0  0  0  0  0  0
    1.0589   43.6008   27.8455 C   0  0  0  0  0  0  0  0  0  0  0  0
    0.5601   42.3596   27.0136 C   0  0  0  0  0  0  0  0  0  0  0  0
   -0.5998   41.6785   27.7684 C   0  0  0  0  0  0  0  0  0  0  0  0
    1.6981   41.3549   26.8122 C   0  0  0  0  0  0  0  0  0  0  0  0
    0.0261   42.9491   25.6518 C   0  0  0  0  0  0  0  0  0  0  0  0
   -1.4793   43.2333   25.3398 C   0  0  0  0  0  0  0  0  0  0  0  0
   -1.5083   44.3069   24.2211 C   0  0  0  0  0  0  0  0  0  0  0  0
   -2.2754   43.7881   26.5252 C   0  0  0  0  0  0  0  0  0  0  0  0
   -2.1960   41.9904   24.7777 C   0  0  0  0  0  0  0  0  0  0  0  0
 14 13  1  0
 14 15  1  0
 15 16  1  0
 16 17  1  0
 16 18  1  0
 16 19  1  0
 19 20  1  0
 20 21  1  0
 20 22  1  0
 20 23  1  0
 14  1  1  0
  1  2  1  0
  2  3  2  0
  4  2  1  0
  4  5  1  0
  5  6  1  0
  6  7  1  0
  8  7  1  0
  8  9  1  0
  8 10  1  0
 10 11  1  0
 11 12  2  0
 11  1  1  0
 10  4  1  0
  9  5  1  0
M  END
> <minimizedAffinity>
-4.77110

> <CNNscore>
0.4717467129

> <CNNaffinity>
5.2424626350

> <CNN_VS>
2.4731144905

> <CNNaffinity_variance>
0.2568739653

$$$$



 23 25  0  0  0  0  0  0  0  0999 V2000
    3.5457   42.9810   26.9831 N   0  0  0  0  0  0  0  0  0  0  0  0
    4.2038   42.2484   26.0283 C   0  0  0  0  0  0  0  0  0  0  0  0
    4.0723   41.0580   25.7866 O   0  0  0  0  0  0  0  0  0  0  0  0
    5.1794   43.1418   25.3157 C   0  0  0  0  0  0  0  0  0  0  0  0
    6.6701   42.7743   25.4408 C   0  0  0  0  0  0  0  0  0  0  0  0
    7.0488   42.3990   26.8862 C   0  0  0  0  0  0  0  0  0  0  0  0
    6.9581   43.7397   27.6280 C   0  0  0  0  0  0  0  0  0  0  0  0
    6.5368   44.7230   26.5195 C   0  0  0  0  0  0  0  0  0  0  0  0
    7.3159   44.1606   25.3239 C   0  0  0  0  0  0  0  0  0  0  0  0
    5.0879   44.4793   26.0572 C   0  0  0  0  0  0  0  0  0  0  0  0
    4.0674   44.2414   27.1332 C   0  0  0  0  0  0  0  0  0  0  0  0
    3.7914   45.0524   28.0049 O   0  0  0  0  0  0  0  0  0  0  0  0
    3.1030   42.5770   29.3760 C   0  0  0  0  0  0  0  0  0  0  0  0
    2.5880   42.4122   27.9477 C   0  0  0  0  0  0  0  0  0  0  0  0
    1.1783   43.0018   27.6821 C   0  0  0  0  0  0  0  0  0  0  0  0
   -0.0219   42.0661   27.2752 C   0  0  0  0  0  0  0  0  0  0  0  0
   -0.8446   41.7232   28.5340 C   0  0  0  0  0  0  0  0  0  0  0  0
    0.4960   40.7744   26.6362 C   0  0  0  0  0  0  0  0  0  0  0  0
   -0.9065   42.9177   26.2856 C   0  0  0  0  0  0  0  0  0  0  0  0
   -0.5796   43.1388   24.7727 C   0  0  0  0  0  0  0  0  0  0  0  0
   -1.4230   44.3539   24.3068 C   0  0  0  0  0  0  0  0  0  0  0  0
   -0.9447   41.9568   23.8692 C   0  0  0  0  0  0  0  0  0  0  0  0
    0.8980   43.5160   24.5515 C   0  0  0  0  0  0  0  0  0  0  0  0
 14 13  1  0
 14 15  1  0
 15 16  1  0
 16 17  1  0
 16 18  1  0
 16 19  1  0
 19 20  1  0
 20 21  1  0
 20 22  1  0
 20 23  1  0
 14  1  1  0
  1  2  1  0
  2  3  2  0
  4  2  1  0
  4  5  1  0
  5  6  1  0
  6  7  1  0
  8  7  1  0
  8  9  1  0
  8 10  1  0
 10 11  1  0
 11 12  2  0
 11  1  1  0
 10  4  1  0
  9  5  1  0
M  END
> <minimizedAffinity>
-4.92120

> <CNNscore>
0.4568949938

> <CNNaffinity>
5.3794064522

> <CNN_VS>
2.4578239918

> <CNNaffinity_variance>
0.0062900740

$$$$



 23 25  0  0  0  0  0  0  0  0999 V2000
    4.6546   44.4734   31.6560 N   0  0  0  0  0  0  0  0  0  0  0  0
    3.4895   43.8077   31.9407 C   0  0  0  0  0  0  0  0  0  0  0  0
    3.3558   42.8129   32.6374 O   0  0  0  0  0  0  0  0  0  0  0  0
    2.3567   44.4764   31.2147 C   0  0  0  0  0  0  0  0  0  0  0  0
    1.6138   43.6285   30.1648 C   0  0  0  0  0  0  0  0  0  0  0  0
    2.5887   42.8293   29.2792 C   0  0  0  0  0  0  0  0  0  0  0  0
    3.2615   43.9190   28.4329 C   0  0  0  0  0  0  0  0  0  0  0  0
    2.5931   45.2126   28.9357 C   0  0  0  0  0  0  0  0  0  0  0  0
    1.1624   44.7194   29.1856 C   0  0  0  0  0  0  0  0  0  0  0  0
    3.0297   45.5634   30.3705 C   0  0  0  0  0  0  0  0  0  0  0  0
    4.4925   45.4274   30.6828 C   0  0  0  0  0  0  0  0  0  0  0  0
    5.3734   46.0606   30.1201 O   0  0  0  0  0  0  0  0  0  0  0  0
    6.7942   43.4749   30.9418 C   0  0  0  0  0  0  0  0  0  0  0  0
    5.9876   44.0389   32.1094 C   0  0  0  0  0  0  0  0  0  0  0  0
    6.6696   45.1957   32.8853 C   0  0  0  0  0  0  0  0  0  0  0  0
    6.8441   45.1231   34.4492 C   0  0  0  0  0  0  0  0  0  0  0  0
    7.9765   46.0794   34.8763 C   0  0  0  0  0  0  0  0  0  0  0  0
    7.1886   43.6965   34.8861 C   0  0  0  0  0  0  0  0  0  0  0  0
    5.4765   45.6264   35.0520 C   0  0  0  0  0  0  0  0  0  0  0  0
    4.9445   47.0921   34.9377 C   0  0  0  0  0  0  0  0  0  0  0  0
    3.6966   47.1867   35.8535 C   0  0  0  0  0  0  0  0  0  0  0  0
    4.5064   47.4960   33.5265 C   0  0  0  0  0  0  0  0  0  0  0  0
    5.9627   48.1181   35.4717 C   0  0  0  0  0  0  0  0  0  0  0  0
 14 13  1  0
 14 15  1  0
 15 16  1  0
 16 17  1  0
 16 18  1  0
 16 19  1  0
 19 20  1  0
 20 21  1  0
 20 22  1  0
 20 23  1  0
 14  1  1  0
  1  2  1  0
  2  3  2  0
  4  2  1  0
  4  5  1  0
  5  6  1  0
  6  7  1  0
  8  7  1  0
  8  9  1  0
  8 10  1  0
 10 11  1  0
 11 12  2  0
 11  1  1  0
 10  4  1  0
  9  5  1  0
M  END
> <minimizedAffinity>
-4.13167

> <CNNscore>
0.4287854731

> <CNNaffinity>
4.7386970520

> <CNN_VS>
2.0318844318

> <CNNaffinity_variance>
0.2809348404

$$$$



 23 25  0  0  0  0  0  0  0  0999 V2000
    1.3063   42.4261   27.8140 N   0  0  0  0  0  0  0  0  0  0  0  0
    0.6225   43.4989   28.3271 C   0  0  0  0  0  0  0  0  0  0  0  0
   -0.1623   44.2275   27.7388 O   0  0  0  0  0  0  0  0  0  0  0  0
    1.0186   43.6867   29.7643 C   0  0  0  0  0  0  0  0  0  0  0  0
    1.7144   45.0140   30.1206 C   0  0  0  0  0  0  0  0  0  0  0  0
    2.7866   45.3960   29.0824 C   0  0  0  0  0  0  0  0  0  0  0  0
    3.8869   44.3523   29.3196 C   0  0  0  0  0  0  0  0  0  0  0  0
    3.3132   43.4958   30.4644 C   0  0  0  0  0  0  0  0  0  0  0  0
    2.5953   44.5676   31.2943 C   0  0  0  0  0  0  0  0  0  0  0  0
    2.1167   42.6446   29.9995 C   0  0  0  0  0  0  0  0  0  0  0  0
    2.2589   41.9461   28.6775 C   0  0  0  0  0  0  0  0  0  0  0  0
    3.1161   41.1094   28.4352 O   0  0  0  0  0  0  0  0  0  0  0  0
    0.7706   40.5618   26.2902 C   0  0  0  0  0  0  0  0  0  0  0  0
    1.2497   42.0075   26.4024 C   0  0  0  0  0  0  0  0  0  0  0  0
    0.4253   43.0411   25.5917 C   0  0  0  0  0  0  0  0  0  0  0  0
   -0.9626   42.6461   24.9596 C   0  0  0  0  0  0  0  0  0  0  0  0
   -1.5812   43.8867   24.2833 C   0  0  0  0  0  0  0  0  0  0  0  0
   -1.9157   42.1242   26.0386 C   0  0  0  0  0  0  0  0  0  0  0  0
   -0.6356   41.5593   23.8647 C   0  0  0  0  0  0  0  0  0  0  0  0
   -1.6775   40.5518   23.2784 C   0  0  0  0  0  0  0  0  0  0  0  0
   -1.2694   39.1434   23.7832 C   0  0  0  0  0  0  0  0  0  0  0  0
   -1.7092   40.4963   21.7479 C   0  0  0  0  0  0  0  0  0  0  0  0
   -3.0988   40.8171   23.8113 C   0  0  0  0  0  0  0  0  0  0  0  0
 14 13  1  0
 14 15  1  0
 15 16  1  0
 16 17  1  0
 16 18  1  0
 16 19  1  0
 19 20  1  0
 20 21  1  0
 20 22  1  0
 20 23  1  0
 14  1  1  0
  1  2  1  0
  2  3  2  0
  4  2  1  0
  4  5  1  0
  5  6  1  0
  6  7  1  0
  8  7  1  0
  8  9  1  0
  8 10  1  0
 10 11  1  0
 11 12  2  0
 11  1  1  0
 10  4  1  0
  9  5  1  0
M  END
> <minimizedAffinity>
-4.89078

> <CNNscore>
0.3972695470

> <CNNaffinity>
5.2440514565

> <CNN_VS>
2.0833020210

> <CNNaffinity_variance>
0.0023828836

$$$$



 23 25  0  0  0  0  0  0  0  0999 V2000
   -1.8537   40.8854   26.8253 N   0  0  0  0  0  0  0  0  0  0  0  0
   -2.1668   40.7938   25.4929 C   0  0  0  0  0  0  0  0  0  0  0  0
   -2.2079   39.7820   24.8093 O   0  0  0  0  0  0  0  0  0  0  0  0
   -2.4254   42.1737   24.9575 C   0  0  0  0  0  0  0  0  0  0  0  0
   -1.4770   42.6737   23.8515 C   0  0  0  0  0  0  0  0  0  0  0  0
   -0.0045   42.3516   24.1700 C   0  0  0  0  0  0  0  0  0  0  0  0
    0.3090   43.2874   25.3456 C   0  0  0  0  0  0  0  0  0  0  0  0
   -1.0217   44.0329   25.5615 C   0  0  0  0  0  0  0  0  0  0  0  0
   -1.5052   44.1846   24.1138 C   0  0  0  0  0  0  0  0  0  0  0  0
   -2.1121   43.1064   26.1318 C   0  0  0  0  0  0  0  0  0  0  0  0
   -1.6998   42.1836   27.2428 C   0  0  0  0  0  0  0  0  0  0  0  0
   -1.2727   42.5627   28.3233 O   0  0  0  0  0  0  0  0  0  0  0  0
    0.0568   39.8152   27.9608 C   0  0  0  0  0  0  0  0  0  0  0  0
   -1.4382   39.7428   27.6578 C   0  0  0  0  0  0  0  0  0  0  0  0
   -2.3602   39.6499   28.9014 C   0  0  0  0  0  0  0  0  0  0  0  0
   -1.8271   39.0463   30.2553 C   0  0  0  0  0  0  0  0  0  0  0  0
   -0.8547   37.8899   29.9449 C   0  0  0  0  0  0  0  0  0  0  0  0
   -2.9886   38.5225   31.1047 C   0  0  0  0  0  0  0  0  0  0  0  0
   -1.0419   40.2175   30.9614 C   0  0  0  0  0  0  0  0  0  0  0  0
   -1.0789   40.5086   32.4971 C   0  0  0  0  0  0  0  0  0  0  0  0
   -0.3620   39.3229   33.1935 C   0  0  0  0  0  0  0  0  0  0  0  0
   -2.4892   40.5997   33.0881 C   0  0  0  0  0  0  0  0  0  0  0  0
   -0.2870   41.7792   32.8621 C   0  0  0  0  0  0  0  0  0  0  0  0
 14 13  1  0
 14 15  1  0
 15 16  1  0
 16 17  1  0
 16 18  1  0
 16 19  1  0
 19 20  1  0
 20 21  1  0
 20 22  1  0
 20 23  1  0
 14  1  1  0
  1  2  1  0
  2  3  2  0
  4  2  1  0
  4  5  1  0
  5  6  1  0
  6  7  1  0
  8  7  1  0
  8  9  1  0
  8 10  1  0
 10 11  1  0
 11 12  2  0
 11  1  1  0
 10  4  1  0
  9  5  1  0
M  END
> <minimizedAffinity>
-4.10020

> <CNNscore>
0.3859035671

> <CNNaffinity>
5.1546325684

> <CNN_VS>
1.9891910553

> <CNNaffinity_variance>
0.0313799046

$$$$



 23 25  0  0  0  0  0  0  0  0999 V2000
    1.1834   42.9530   27.1849 N   0  0  0  0  0  0  0  0  0  0  0  0
    0.3724   43.7072   27.9942 C   0  0  0  0  0  0  0  0  0  0  0  0
   -0.4801   44.5107   27.6470 O   0  0  0  0  0  0  0  0  0  0  0  0
    0.7189   43.4259   29.4290 C   0  0  0  0  0  0  0  0  0  0  0  0
    1.2518   44.6115   30.2554 C   0  0  0  0  0  0  0  0  0  0  0  0
    2.2915   45.4352   29.4719 C   0  0  0  0  0  0  0  0  0  0  0  0
    3.4996   44.4910   29.3998 C   0  0  0  0  0  0  0  0  0  0  0  0
    3.0075   43.2383   30.1493 C   0  0  0  0  0  0  0  0  0  0  0  0
    2.1571   43.8787   31.2535 C   0  0  0  0  0  0  0  0  0  0  0  0
    1.9246   42.4836   29.3554 C   0  0  0  0  0  0  0  0  0  0  0  0
    2.1692   42.3032   27.8845 C   0  0  0  0  0  0  0  0  0  0  0  0
    3.1206   41.6932   27.4195 O   0  0  0  0  0  0  0  0  0  0  0  0
    2.6292   42.9388   25.1863 C   0  0  0  0  0  0  0  0  0  0  0  0
    1.2001   43.0445   25.7143 C   0  0  0  0  0  0  0  0  0  0  0  0
    0.2002   42.0168   25.1233 C   0  0  0  0  0  0  0  0  0  0  0  0
   -1.1958   42.4832   24.5618 C   0  0  0  0  0  0  0  0  0  0  0  0
   -1.5028   41.7086   23.2638 C   0  0  0  0  0  0  0  0  0  0  0  0
   -1.1825   43.9861   24.2686 C   0  0  0  0  0  0  0  0  0  0  0  0
   -2.2495   42.0925   25.6683 C   0  0  0  0  0  0  0  0  0  0  0  0
   -2.3412   40.6867   26.3465 C   0  0  0  0  0  0  0  0  0  0  0  0
   -1.4692   39.7245   25.4988 C   0  0  0  0  0  0  0  0  0  0  0  0
   -3.7554   40.0997   26.3927 C   0  0  0  0  0  0  0  0  0  0  0  0
   -1.7414   40.6914   27.7659 C   0  0  0  0  0  0  0  0  0  0  0  0
 14 13  1  0
 14 15  1  0
 15 16  1  0
 16 17  1  0
 16 18  1  0
 16 19  1  0
 19 20  1  0
 20 21  1  0
 20 22  1  0
 20 23  1  0
 14  1  1  0
  1  2  1  0
  2  3  2  0
  4  2  1  0
  4  5  1  0
  5  6  1  0
  6  7  1  0
  8  7  1  0
  8  9  1  0
  8 10  1  0
 10 11  1  0
 11 12  2  0
 11  1  1  0
 10  4  1  0
  9  5  1  0
M  END
> <minimizedAffinity>
-4.97815

> <CNNscore>
0.3771814108

> <CNNaffinity>
5.1491189003

> <CNN_VS>
1.9421519041

> <CNNaffinity_variance>
0.0102522084

$$$$



 23 25  0  0  0  0  0  0  0  0999 V2000
    2.4361   42.6467   28.4584 N   0  0  0  0  0  0  0  0  0  0  0  0
    3.7963   42.7786   28.5766 C   0  0  0  0  0  0  0  0  0  0  0  0
    4.6341   41.8908   28.5245 O   0  0  0  0  0  0  0  0  0  0  0  0
    4.1255   44.2228   28.8290 C   0  0  0  0  0  0  0  0  0  0  0  0
    4.8085   44.5506   30.1702 C   0  0  0  0  0  0  0  0  0  0  0  0
    4.1493   43.8058   31.3466 C   0  0  0  0  0  0  0  0  0  0  0  0
    2.7845   44.4968   31.4738 C   0  0  0  0  0  0  0  0  0  0  0  0
    2.8240   45.5541   30.3541 C   0  0  0  0  0  0  0  0  0  0  0  0
    4.2973   45.9770   30.4089 C   0  0  0  0  0  0  0  0  0  0  0  0
    2.7626   44.9110   28.9558 C   0  0  0  0  0  0  0  0  0  0  0  0
    1.7654   43.8040   28.7656 C   0  0  0  0  0  0  0  0  0  0  0  0
    0.5584   43.9409   28.8992 O   0  0  0  0  0  0  0  0  0  0  0  0
    1.3823   40.7791   29.6775 C   0  0  0  0  0  0  0  0  0  0  0  0
    1.7399   41.3566   28.3098 C   0  0  0  0  0  0  0  0  0  0  0  0
    0.5480   41.5246   27.3319 C   0  0  0  0  0  0  0  0  0  0  0  0
    0.7227   41.2372   25.7929 C   0  0  0  0  0  0  0  0  0  0  0  0
   -0.1946   40.0642   25.3906 C   0  0  0  0  0  0  0  0  0  0  0  0
    2.1774   40.8803   25.4744 C   0  0  0  0  0  0  0  0  0  0  0  0
    0.2480   42.5504   25.0600 C   0  0  0  0  0  0  0  0  0  0  0  0
   -1.2314   42.8526   24.6545 C   0  0  0  0  0  0  0  0  0  0  0  0
   -1.5504   41.9567   23.4296 C   0  0  0  0  0  0  0  0  0  0  0  0
   -1.4870   44.3042   24.2369 C   0  0  0  0  0  0  0  0  0  0  0  0
   -2.2254   42.4554   25.7629 C   0  0  0  0  0  0  0  0  0  0  0  0
 14 13  1  0
 14 15  1  0
 15 16  1  0
 16 17  1  0
 16 18  1  0
 16 19  1  0
 19 20  1  0
 20 21  1  0
 20 22  1  0
 20 23  1  0
 14  1  1  0
  1  2  1  0
  2  3  2  0
  4  2  1  0
  4  5  1  0
  5  6  1  0
  6  7  1  0
  8  7  1  0
  8  9  1  0
  8 10  1  0
 10 11  1  0
 11 12  2  0
 11  1  1  0
 10  4  1  0
  9  5  1  0
M  END
> <minimizedAffinity>
-4.59558

> <CNNscore>
0.3673242331

> <CNNaffinity>
4.9710278511

> <CNN_VS>
1.8259789944

> <CNNaffinity_variance>
0.0373490825

$$$$
