


 20 20  0  0  0  0  0  0  0  0999 V2000
  -25.5366    3.4206   26.8041 C   0  0  0  0  0  0  0  0  0  0  0  0
  -26.8989    2.8973   26.4050 N   0  0  0  0  0  0  0  0  0  0  0  0
  -27.7886    2.4850   27.5437 C   0  0  0  0  0  0  0  0  0  0  0  0
  -27.1292    1.3029   28.2788 C   0  0  0  0  0  0  0  0  0  0  0  0
  -27.3957    0.0824   27.5733 O   0  0  0  0  0  0  0  0  0  0  0  0
  -25.5889    1.4528   28.3695 C   0  0  0  0  0  0  0  0  0  0  0  0
  -25.1264    0.9126   29.6096 O   0  0  0  0  0  0  0  0  0  0  0  0
  -25.1112    2.8987   28.1989 C   0  0  0  0  0  0  0  0  0  0  0  0
  -25.6815    3.6815   29.2553 O   0  0  0  0  0  0  0  0  0  0  0  0
  -26.7604    2.0852   25.8036 H   0  0  0  0  0  0  0  0  0  0  0  0
  -27.3740    3.6726   25.9430 H   0  0  0  0  0  0  0  0  0  0  0  0
  -27.0089    0.1312   26.6851 H   0  0  0  0  0  0  0  0  0  0  0  0
  -25.5107    1.4155   30.3447 H   0  0  0  0  0  0  0  0  0  0  0  0
  -26.6490    3.6277   29.2115 H   0  0  0  0  0  0  0  0  0  0  0  0
  -26.9216    5.3265   26.3735 O   0  0  0  0  0  0  0  0  0  0  0  0
  -25.5754    4.9524   26.6864 C   0  0  0  0  0  0  0  0  0  0  0  0
  -26.9785    6.2914   26.2924 H   0  0  0  0  0  0  0  0  0  0  0  0
  -29.1791    2.1944   26.9601 C   0  0  0  0  0  0  0  0  0  0  0  0
  -29.5011    3.2635   26.0626 O   0  0  0  0  0  0  0  0  0  0  0  0
  -29.4923    4.1047   26.5455 H   0  0  0  0  0  0  0  0  0  0  0  0
 15 16  1  0
  1 16  1  0
  1  2  1  0
  2  3  1  0
  3 18  1  0
 18 19  1  0
  3  4  1  0
  4  5  1  0
  4  6  1  0
  6  7  1  0
  6  8  1  0
  8  9  1  0
  8  1  1  0
 15 17  1  0
  2 10  1  0
  2 11  1  0
 19 20  1  0
  5 12  1  0
  7 13  1  0
  9 14  1  0
M  CHG 1   2   1
M  END
> <minimizedAffinity>
-6.59909

> <CNNscore>
0.9661747217

> <CNNaffinity>
5.8644118309

> <CNN_VS>
5.6660466194

> <CNNaffinity_variance>
0.5681976676

$$$$



 20 20  0  0  0  0  0  0  0  0999 V2000
  -28.3198    2.4147   27.6037 C   0  0  0  0  0  0  0  0  0  0  0  0
  -27.5540    3.6342   27.1398 N   0  0  0  0  0  0  0  0  0  0  0  0
  -26.1278    3.3839   26.7378 C   0  0  0  0  0  0  0  0  0  0  0  0
  -25.3484    2.8944   27.9729 C   0  0  0  0  0  0  0  0  0  0  0  0
  -24.9674    4.0157   28.7829 O   0  0  0  0  0  0  0  0  0  0  0  0
  -26.1942    1.9506   28.8656 C   0  0  0  0  0  0  0  0  0  0  0  0
  -25.3510    0.9482   29.4382 O   0  0  0  0  0  0  0  0  0  0  0  0
  -27.3691    1.3070   28.1216 C   0  0  0  0  0  0  0  0  0  0  0  0
  -26.8367    0.5200   27.0486 O   0  0  0  0  0  0  0  0  0  0  0  0
  -27.5521    4.3132   27.9009 H   0  0  0  0  0  0  0  0  0  0  0  0
  -28.0298    3.9625   26.2994 H   0  0  0  0  0  0  0  0  0  0  0  0
  -25.7632    4.4726   29.0973 H   0  0  0  0  0  0  0  0  0  0  0  0
  -24.9637    0.4090   28.7310 H   0  0  0  0  0  0  0  0  0  0  0  0
  -26.3197    1.0883   26.4564 H   0  0  0  0  0  0  0  0  0  0  0  0
  -29.7879    3.1582   25.8637 O   0  0  0  0  0  0  0  0  0  0  0  0
  -29.2348    1.9748   26.4499 C   0  0  0  0  0  0  0  0  0  0  0  0
  -30.3723    2.9126   25.1296 H   0  0  0  0  0  0  0  0  0  0  0  0
  -25.5947    4.6762   26.1019 C   0  0  0  0  0  0  0  0  0  0  0  0
  -25.9108    5.7549   26.9898 O   0  0  0  0  0  0  0  0  0  0  0  0
  -26.8714    5.7975   27.1178 H   0  0  0  0  0  0  0  0  0  0  0  0
 15 16  1  0
  1 16  1  0
  1  2  1  0
  2  3  1  0
  3 18  1  0
 18 19  1  0
  3  4  1  0
  4  5  1  0
  4  6  1  0
  6  7  1  0
  6  8  1  0
  8  9  1  0
  8  1  1  0
 15 17  1  0
  2 10  1  0
  2 11  1  0
 19 20  1  0
  5 12  1  0
  7 13  1  0
  9 14  1  0
M  CHG 1   2   1
M  END
> <minimizedAffinity>
-7.09653

> <CNNscore>
0.8753455877

> <CNNaffinity>
5.7314982414

> <CNN_VS>
5.0170416832

> <CNNaffinity_variance>
0.4311390817

$$$$



 20 20  0  0  0  0  0  0  0  0999 V2000
  -37.3232    7.7014   18.4703 C   0  0  0  0  0  0  0  0  0  0  0  0
  -36.4773    6.6192   19.1047 N   0  0  0  0  0  0  0  0  0  0  0  0
  -35.0627    7.0127   19.4241 C   0  0  0  0  0  0  0  0  0  0  0  0
  -34.3345    7.3392   18.1067 C   0  0  0  0  0  0  0  0  0  0  0  0
  -33.8993    6.1251   17.4782 O   0  0  0  0  0  0  0  0  0  0  0  0
  -35.2505    8.0756   17.0958 C   0  0  0  0  0  0  0  0  0  0  0  0
  -34.4791    9.0185   16.3477 O   0  0  0  0  0  0  0  0  0  0  0  0
  -36.4501    8.7630   17.7566 C   0  0  0  0  0  0  0  0  0  0  0  0
  -35.9491    9.7429   18.6747 O   0  0  0  0  0  0  0  0  0  0  0  0
  -36.4465    5.8269   18.4630 H   0  0  0  0  0  0  0  0  0  0  0  0
  -36.9187    6.4049   19.9989 H   0  0  0  0  0  0  0  0  0  0  0  0
  -34.6708    5.5783   17.2621 H   0  0  0  0  0  0  0  0  0  0  0  0
  -34.1138    9.6866   16.9486 H   0  0  0  0  0  0  0  0  0  0  0  0
  -35.3890    9.3088   19.3371 H   0  0  0  0  0  0  0  0  0  0  0  0
  -38.4833    7.2243   20.5106 O   0  0  0  0  0  0  0  0  0  0  0  0
  -38.2444    8.2694   19.5615 C   0  0  0  0  0  0  0  0  0  0  0  0
  -39.0639    7.5533   21.2145 H   0  0  0  0  0  0  0  0  0  0  0  0
  -34.4418    5.8734   20.2459 C   0  0  0  0  0  0  0  0  0  0  0  0
  -34.2725    6.3519   21.5854 O   0  0  0  0  0  0  0  0  0  0  0  0
  -33.6978    7.1333   21.5794 H   0  0  0  0  0  0  0  0  0  0  0  0
 15 16  1  0
  1 16  1  0
  1  2  1  0
  2  3  1  0
  3 18  1  0
 18 19  1  0
  3  4  1  0
  4  5  1  0
  4  6  1  0
  6  7  1  0
  6  8  1  0
  8  9  1  0
  8  1  1  0
 15 17  1  0
  2 10  1  0
  2 11  1  0
 19 20  1  0
  5 12  1  0
  7 13  1  0
  9 14  1  0
M  CHG 1   2   1
M  END
> <minimizedAffinity>
-4.21806

> <CNNscore>
0.6686578989

> <CNNaffinity>
2.9981021881

> <CNN_VS>
2.0047047138

> <CNNaffinity_variance>
0.1970871538

$$$$



 20 20  0  0  0  0  0  0  0  0999 V2000
  -34.7983    3.7226   21.2126 C   0  0  0  0  0  0  0  0  0  0  0  0
  -34.5501    4.3168   22.5816 N   0  0  0  0  0  0  0  0  0  0  0  0
  -33.5322    5.4213   22.6288 C   0  0  0  0  0  0  0  0  0  0  0  0
  -32.1652    4.8472   22.2115 C   0  0  0  0  0  0  0  0  0  0  0  0
  -31.5565    4.1817   23.3273 O   0  0  0  0  0  0  0  0  0  0  0  0
  -32.2887    3.8066   21.0690 C   0  0  0  0  0  0  0  0  0  0  0  0
  -31.1540    3.9053   20.2052 O   0  0  0  0  0  0  0  0  0  0  0  0
  -33.5890    3.9386   20.2691 C   0  0  0  0  0  0  0  0  0  0  0  0
  -33.6099    5.2398   19.6686 O   0  0  0  0  0  0  0  0  0  0  0  0
  -34.2311    3.5682   23.1966 H   0  0  0  0  0  0  0  0  0  0  0  0
  -35.4338    4.7358   22.8711 H   0  0  0  0  0  0  0  0  0  0  0  0
  -32.1161    3.4401   23.6060 H   0  0  0  0  0  0  0  0  0  0  0  0
  -31.1346    4.7846   19.7960 H   0  0  0  0  0  0  0  0  0  0  0  0
  -33.5579    5.9166   20.3616 H   0  0  0  0  0  0  0  0  0  0  0  0
  -36.1097    5.7097   20.9520 O   0  0  0  0  0  0  0  0  0  0  0  0
  -36.1215    4.3024   20.6882 C   0  0  0  0  0  0  0  0  0  0  0  0
  -36.9350    6.1057   20.6312 H   0  0  0  0  0  0  0  0  0  0  0  0
  -33.5793    6.0315   24.0373 C   0  0  0  0  0  0  0  0  0  0  0  0
  -34.9487    6.0384   24.4577 O   0  0  0  0  0  0  0  0  0  0  0  0
  -35.4763    6.5592   23.8322 H   0  0  0  0  0  0  0  0  0  0  0  0
 15 16  1  0
  1 16  1  0
  1  2  1  0
  2  3  1  0
  3 18  1  0
 18 19  1  0
  3  4  1  0
  4  5  1  0
  4  6  1  0
  6  7  1  0
  6  8  1  0
  8  9  1  0
  8  1  1  0
 15 17  1  0
  2 10  1  0
  2 11  1  0
 19 20  1  0
  5 12  1  0
  7 13  1  0
  9 14  1  0
M  CHG 1   2   1
M  END
> <minimizedAffinity>
-4.46128

> <CNNscore>
0.3845965564

> <CNNaffinity>
2.4591367245

> <CNN_VS>
0.9457755089

> <CNNaffinity_variance>
0.6874437332

$$$$



 20 20  0  0  0  0  0  0  0  0999 V2000
  -31.2938   -5.4395   36.0126 C   0  0  0  0  0  0  0  0  0  0  0  0
  -30.7676   -6.8576   36.0401 N   0  0  0  0  0  0  0  0  0  0  0  0
  -31.0024   -7.6063   37.3217 C   0  0  0  0  0  0  0  0  0  0  0  0
  -30.2357   -6.8957   38.4529 C   0  0  0  0  0  0  0  0  0  0  0  0
  -28.8562   -7.2892   38.4267 O   0  0  0  0  0  0  0  0  0  0  0  0
  -30.2747   -5.3525   38.3102 C   0  0  0  0  0  0  0  0  0  0  0  0
  -30.3244   -4.7518   39.6065 O   0  0  0  0  0  0  0  0  0  0  0  0
  -31.4338   -4.8551   37.4401 C   0  0  0  0  0  0  0  0  0  0  0  0
  -32.6602   -5.2598   38.0616 O   0  0  0  0  0  0  0  0  0  0  0  0
  -29.7616   -6.8235   35.8751 H   0  0  0  0  0  0  0  0  0  0  0  0
  -31.2835   -7.3634   35.3200 H   0  0  0  0  0  0  0  0  0  0  0  0
  -28.4587   -7.0184   37.5844 H   0  0  0  0  0  0  0  0  0  0  0  0
  -31.1396   -5.0224   40.0572 H   0  0  0  0  0  0  0  0  0  0  0  0
  -32.6773   -6.2262   38.1440 H   0  0  0  0  0  0  0  0  0  0  0  0
  -33.0849   -4.0985   35.1582 O   0  0  0  0  0  0  0  0  0  0  0  0
  -32.5984   -5.4445   35.2001 C   0  0  0  0  0  0  0  0  0  0  0  0
  -33.9107   -4.0689   34.6502 H   0  0  0  0  0  0  0  0  0  0  0  0
  -30.6000   -9.0688   37.0814 C   0  0  0  0  0  0  0  0  0  0  0  0
  -30.4706   -9.2526   35.6667 O   0  0  0  0  0  0  0  0  0  0  0  0
  -31.3144   -9.0457   35.2353 H   0  0  0  0  0  0  0  0  0  0  0  0
 15 16  1  0
  1 16  1  0
  1  2  1  0
  2  3  1  0
  3 18  1  0
 18 19  1  0
  3  4  1  0
  4  5  1  0
  4  6  1  0
  6  7  1  0
  6  8  1  0
  8  9  1  0
  8  1  1  0
 15 17  1  0
  2 10  1  0
  2 11  1  0
 19 20  1  0
  5 12  1  0
  7 13  1  0
  9 14  1  0
M  CHG 1   2   1
M  END
> <minimizedAffinity>
-4.82472

> <CNNscore>
0.3735743761

> <CNNaffinity>
2.4739742279

> <CNN_VS>
0.9242133498

> <CNNaffinity_variance>
0.7304514050

$$$$



 20 20  0  0  0  0  0  0  0  0999 V2000
  -32.3466    4.0777   22.5641 C   0  0  0  0  0  0  0  0  0  0  0  0
  -33.0588    3.9174   23.8893 N   0  0  0  0  0  0  0  0  0  0  0  0
  -34.5593    3.8868   23.8137 C   0  0  0  0  0  0  0  0  0  0  0  0
  -35.0518    5.2455   23.2808 C   0  0  0  0  0  0  0  0  0  0  0  0
  -35.0832    6.2036   24.3482 O   0  0  0  0  0  0  0  0  0  0  0  0
  -34.1223    5.8167   22.1795 C   0  0  0  0  0  0  0  0  0  0  0  0
  -34.9030    6.5185   21.2090 O   0  0  0  0  0  0  0  0  0  0  0  0
  -33.2565    4.7475   21.5048 C   0  0  0  0  0  0  0  0  0  0  0  0
  -34.1304    3.7991   20.8795 O   0  0  0  0  0  0  0  0  0  0  0  0
  -32.7895    4.6981   24.4879 H   0  0  0  0  0  0  0  0  0  0  0  0
  -32.7766    3.0069   24.2523 H   0  0  0  0  0  0  0  0  0  0  0  0
  -34.1865    6.3298   24.6960 H   0  0  0  0  0  0  0  0  0  0  0  0
  -35.5163    5.9015   20.7800 H   0  0  0  0  0  0  0  0  0  0  0  0
  -34.7113    3.4046   21.5487 H   0  0  0  0  0  0  0  0  0  0  0  0
  -30.5591    2.8996   21.4905 O   0  0  0  0  0  0  0  0  0  0  0  0
  -31.8106    2.6964   22.1556 C   0  0  0  0  0  0  0  0  0  0  0  0
  -30.1941    2.0427   21.2194 H   0  0  0  0  0  0  0  0  0  0  0  0
  -35.0831    3.5052   25.2060 C   0  0  0  0  0  0  0  0  0  0  0  0
  -34.6344    4.5086   26.1245 O   0  0  0  0  0  0  0  0  0  0  0  0
  -33.6653    4.5473   26.1131 H   0  0  0  0  0  0  0  0  0  0  0  0
 15 16  1  0
  1 16  1  0
  1  2  1  0
  2  3  1  0
  3 18  1  0
 18 19  1  0
  3  4  1  0
  4  5  1  0
  4  6  1  0
  6  7  1  0
  6  8  1  0
  8  9  1  0
  8  1  1  0
 15 17  1  0
  2 10  1  0
  2 11  1  0
 19 20  1  0
  5 12  1  0
  7 13  1  0
  9 14  1  0
M  CHG 1   2   1
M  END
> <minimizedAffinity>
-4.24515

> <CNNscore>
0.3327768445

> <CNNaffinity>
2.3647572994

> <CNN_VS>
0.7869364619

> <CNNaffinity_variance>
0.7065842748

$$$$



 20 20  0  0  0  0  0  0  0  0999 V2000
  -32.9898    5.3273   23.2742 C   0  0  0  0  0  0  0  0  0  0  0  0
  -33.8935    6.0663   22.3120 N   0  0  0  0  0  0  0  0  0  0  0  0
  -34.7075    5.1960   21.3965 C   0  0  0  0  0  0  0  0  0  0  0  0
  -33.7471    4.4086   20.4854 C   0  0  0  0  0  0  0  0  0  0  0  0
  -33.3259    5.2368   19.3922 O   0  0  0  0  0  0  0  0  0  0  0  0
  -32.4685    3.9524   21.2338 C   0  0  0  0  0  0  0  0  0  0  0  0
  -32.0516    2.6777   20.7388 O   0  0  0  0  0  0  0  0  0  0  0  0
  -32.6417    3.9099   22.7558 C   0  0  0  0  0  0  0  0  0  0  0  0
  -33.6761    2.9651   23.0580 O   0  0  0  0  0  0  0  0  0  0  0  0
  -33.3105    6.6721   21.7345 H   0  0  0  0  0  0  0  0  0  0  0  0
  -34.5648    6.5731   22.8890 H   0  0  0  0  0  0  0  0  0  0  0  0
  -32.8441    6.0054   19.7357 H   0  0  0  0  0  0  0  0  0  0  0  0
  -32.7422    2.0202   20.9166 H   0  0  0  0  0  0  0  0  0  0  0  0
  -34.4991    3.2362   22.6220 H   0  0  0  0  0  0  0  0  0  0  0  0
  -34.5785    6.4510   24.6704 O   0  0  0  0  0  0  0  0  0  0  0  0
  -33.6658    5.3480   24.6543 C   0  0  0  0  0  0  0  0  0  0  0  0
  -35.0225    6.4907   25.5319 H   0  0  0  0  0  0  0  0  0  0  0  0
  -35.7034    6.1050   20.6614 C   0  0  0  0  0  0  0  0  0  0  0  0
  -35.0765    7.3818   20.4919 O   0  0  0  0  0  0  0  0  0  0  0  0
  -34.8447    7.7460   21.3606 H   0  0  0  0  0  0  0  0  0  0  0  0
 15 16  1  0
  1 16  1  0
  1  2  1  0
  2  3  1  0
  3 18  1  0
 18 19  1  0
  3  4  1  0
  4  5  1  0
  4  6  1  0
  6  7  1  0
  6  8  1  0
  8  9  1  0
  8  1  1  0
 15 17  1  0
  2 10  1  0
  2 11  1  0
 19 20  1  0
  5 12  1  0
  7 13  1  0
  9 14  1  0
M  CHG 1   2   1
M  END
> <minimizedAffinity>
-4.58371

> <CNNscore>
0.3190163970

> <CNNaffinity>
2.5274975300

> <CNN_VS>
0.8063131571

> <CNNaffinity_variance>
0.5754003525

$$$$



 20 20  0  0  0  0  0  0  0  0999 V2000
  -34.0177    2.9201   24.0218 C   0  0  0  0  0  0  0  0  0  0  0  0
  -33.3557    3.2381   22.6991 N   0  0  0  0  0  0  0  0  0  0  0  0
  -32.4023    4.3994   22.7196 C   0  0  0  0  0  0  0  0  0  0  0  0
  -33.1913    5.6764   23.0650 C   0  0  0  0  0  0  0  0  0  0  0  0
  -33.8428    6.1780   21.8893 O   0  0  0  0  0  0  0  0  0  0  0  0
  -34.2931    5.4179   24.1245 C   0  0  0  0  0  0  0  0  0  0  0  0
  -34.4217    6.5619   24.9721 O   0  0  0  0  0  0  0  0  0  0  0  0
  -34.0472    4.1547   24.9565 C   0  0  0  0  0  0  0  0  0  0  0  0
  -32.8080    4.3198   25.6574 O   0  0  0  0  0  0  0  0  0  0  0  0
  -34.0894    3.4450   22.0214 H   0  0  0  0  0  0  0  0  0  0  0  0
  -32.7967    2.4191   22.4599 H   0  0  0  0  0  0  0  0  0  0  0  0
  -34.4753    5.5184   21.5639 H   0  0  0  0  0  0  0  0  0  0  0  0
  -33.5892    6.7066   25.4484 H   0  0  0  0  0  0  0  0  0  0  0  0
  -32.0916    4.4602   25.0187 H   0  0  0  0  0  0  0  0  0  0  0  0
  -33.8394    1.4769   25.9248 O   0  0  0  0  0  0  0  0  0  0  0  0
  -33.3046    1.6945   24.6146 C   0  0  0  0  0  0  0  0  0  0  0  0
  -33.4074    0.7069   26.3265 H   0  0  0  0  0  0  0  0  0  0  0  0
  -31.6804    4.4270   21.3644 C   0  0  0  0  0  0  0  0  0  0  0  0
  -32.6726    4.2591   20.3449 O   0  0  0  0  0  0  0  0  0  0  0  0
  -33.1346    3.4168   20.4789 H   0  0  0  0  0  0  0  0  0  0  0  0
 15 16  1  0
  1 16  1  0
  1  2  1  0
  2  3  1  0
  3 18  1  0
 18 19  1  0
  3  4  1  0
  4  5  1  0
  4  6  1  0
  6  7  1  0
  6  8  1  0
  8  9  1  0
  8  1  1  0
 15 17  1  0
  2 10  1  0
  2 11  1  0
 19 20  1  0
  5 12  1  0
  7 13  1  0
  9 14  1  0
M  CHG 1   2   1
M  END
> <minimizedAffinity>
-4.20471

> <CNNscore>
0.2752402425

> <CNNaffinity>
2.3436872959

> <CNN_VS>
0.6450770497

> <CNNaffinity_variance>
0.6851430535

$$$$



 20 20  0  0  0  0  0  0  0  0999 V2000
  -30.0977    1.0204   22.1939 C   0  0  0  0  0  0  0  0  0  0  0  0
  -30.8908    1.9786   23.0551 N   0  0  0  0  0  0  0  0  0  0  0  0
  -32.0283    2.6751   22.3629 C   0  0  0  0  0  0  0  0  0  0  0  0
  -31.4525    3.5609   21.2421 C   0  0  0  0  0  0  0  0  0  0  0  0
  -30.9772    4.7965   21.7951 O   0  0  0  0  0  0  0  0  0  0  0  0
  -30.2551    2.8912   20.5203 C   0  0  0  0  0  0  0  0  0  0  0  0
  -30.2719    3.2433   19.1349 O   0  0  0  0  0  0  0  0  0  0  0  0
  -30.2219    1.3686   20.6898 C   0  0  0  0  0  0  0  0  0  0  0  0
  -31.4219    0.8327   20.1181 O   0  0  0  0  0  0  0  0  0  0  0  0
  -30.2506    2.6918   23.4042 H   0  0  0  0  0  0  0  0  0  0  0  0
  -31.3132    1.4123   23.7908 H   0  0  0  0  0  0  0  0  0  0  0  0
  -30.2625    4.6150   22.4253 H   0  0  0  0  0  0  0  0  0  0  0  0
  -31.0836    2.9054   18.7253 H   0  0  0  0  0  0  0  0  0  0  0  0
  -32.1924    1.2155   20.5660 H   0  0  0  0  0  0  0  0  0  0  0  0
  -29.9986   -1.2893   21.5682 O   0  0  0  0  0  0  0  0  0  0  0  0
  -30.5460   -0.4053   22.5525 C   0  0  0  0  0  0  0  0  0  0  0  0
  -30.2650   -2.2004   21.7680 H   0  0  0  0  0  0  0  0  0  0  0  0
  -32.8317    3.4239   23.4364 C   0  0  0  0  0  0  0  0  0  0  0  0
  -31.8954    3.9623   24.3773 O   0  0  0  0  0  0  0  0  0  0  0  0
  -31.3773    3.2407   24.7669 H   0  0  0  0  0  0  0  0  0  0  0  0
 15 16  1  0
  1 16  1  0
  1  2  1  0
  2  3  1  0
  3 18  1  0
 18 19  1  0
  3  4  1  0
  4  5  1  0
  4  6  1  0
  6  7  1  0
  6  8  1  0
  8  9  1  0
  8  1  1  0
 15 17  1  0
  2 10  1  0
  2 11  1  0
 19 20  1  0
  5 12  1  0
  7 13  1  0
  9 14  1  0
M  CHG 1   2   1
M  END
> <minimizedAffinity>
-4.26827

> <CNNscore>
0.2579125762

> <CNNaffinity>
2.1898622513

> <CNN_VS>
0.5647929907

> <CNNaffinity_variance>
1.1381165981

$$$$
