


 38 38  0  0  0  0  0  0  0  0999 V2000
   35.7023   41.7036   -3.9082 N   0  0  0  0  0  0  0  0  0  0  0  0
   34.7468   41.8973   -3.6084 H   0  0  0  0  0  0  0  0  0  0  0  0
   35.8867   42.3775   -5.3897 P   0  0  0  0  0  0  0  0  0  0  0  0
   35.1302   43.6361   -5.6740 O   0  0  0  0  0  0  0  0  0  0  0  0
   37.4610   42.7083   -5.5209 O   0  0  0  0  0  0  0  0  0  0  0  0
   37.7055   43.3820   -4.8673 H   0  0  0  0  0  0  0  0  0  0  0  0
   35.6427   41.1169   -6.6792 C   0  0  0  0  0  0  0  0  0  0  0  0
   34.5626   40.2046   -6.3352 N   0  0  0  0  0  0  0  0  0  0  0  0
   34.3668   39.0521   -7.0275 C   0  0  0  0  0  0  0  0  0  0  0  0
   35.1529   38.5903   -7.8407 O   0  0  0  0  0  0  0  0  0  0  0  0
   33.9625   40.4266   -5.5870 H   0  0  0  0  0  0  0  0  0  0  0  0
   33.1627   38.5340   -6.7085 O   0  0  0  0  0  0  0  0  0  0  0  0
   32.9342   37.2338   -7.2566 C   0  0  0  0  0  0  0  0  0  0  0  0
   31.6839   37.2987   -8.0955 C   0  0  0  0  0  0  0  0  0  0  0  0
   31.5707   38.2394   -9.1301 C   0  0  0  0  0  0  0  0  0  0  0  0
   30.4202   38.2888   -9.9200 C   0  0  0  0  0  0  0  0  0  0  0  0
   29.3817   37.3900   -9.6853 C   0  0  0  0  0  0  0  0  0  0  0  0
   27.8267   37.4511  -10.7600 Br  0  0  0  0  0  0  0  0  0  0  0  0
   29.4831   36.4422   -8.6691 C   0  0  0  0  0  0  0  0  0  0  0  0
   30.6336   36.3947   -7.8784 C   0  0  0  0  0  0  0  0  0  0  0  0
   36.5947   42.1308   -2.8128 C   0  0  0  0  0  0  0  0  0  0  0  0
   37.8972   40.0839   -3.2185 N   0  0  0  0  0  0  0  0  0  0  0  0
   37.9662   41.4426   -2.9764 C   0  0  0  0  0  0  0  0  0  0  0  0
   39.0218   42.0631   -2.8859 O   0  0  0  0  0  0  0  0  0  0  0  0
   37.0616   39.5976   -3.0324 H   0  0  0  0  0  0  0  0  0  0  0  0
   39.0536   39.3605   -3.7489 C   0  0  0  0  0  0  0  0  0  0  0  0
   38.6482   38.4998   -4.9475 C   0  0  0  0  0  0  0  0  0  0  0  0
   37.5103   38.2592   -5.3183 O   0  0  0  0  0  0  0  0  0  0  0  0
   39.7084   38.0301   -5.6449 O   0  0  0  0  0  0  0  0  0  0  0  0
   40.5797   38.2178   -5.3558 H   0  0  0  0  0  0  0  0  0  0  0  0
   39.8140   38.5733   -2.6701 C   0  0  0  0  0  0  0  0  0  0  0  0
   37.8514   37.6972   -1.2475 C   0  0  0  0  0  0  0  0  0  0  0  0
   39.1653   37.3664   -1.9544 C   0  0  0  0  0  0  0  0  0  0  0  0
   40.1031   36.6202   -1.0117 C   0  0  0  0  0  0  0  0  0  0  0  0
   36.0474   41.9549   -1.3834 C   0  0  0  0  0  0  0  0  0  0  0  0
   36.4365   42.9855   -0.3015 C   0  0  0  0  0  0  0  0  0  0  0  0
   37.2407   42.2833    0.8010 C   0  0  0  0  0  0  0  0  0  0  0  0
   37.2538   44.1595   -0.8352 C   0  0  0  0  0  0  0  0  0  0  0  0
 32 33  1  0
 33 34  1  0
 33 31  1  0
 26 31  1  0
 26 22  1  0
 22 23  1  0
 23 24  2  0
 23 21  1  0
 21 35  1  0
 35 36  1  0
 36 37  1  0
 36 38  1  0
 21  1  1  0
  1  3  1  0
  3  4  2  0
  3  5  1  0
  3  7  1  0
  7  8  1  0
  8  9  1  0
  9 10  2  0
  9 12  1  0
 12 13  1  0
 13 14  1  0
 14 15  2  0
 15 16  1  0
 16 17  2  0
 17 18  1  0
 17 19  1  0
 19 20  2  0
 26 27  1  0
 27 28  2  0
 27 29  1  0
 20 14  1  0
 22 25  1  0
  1  2  1  0
  5  6  1  0
  8 11  1  0
 29 30  1  0
M  END
> <minimizedAffinity>
-8.57167

> <CNNscore>
0.7736969590

> <CNNaffinity>
7.3934435844

> <CNN_VS>
5.7202849388

> <CNNaffinity_variance>
0.2670491040

$$$$



 38 38  0  0  0  0  0  0  0  0999 V2000
   35.6815   41.7688   -3.8438 N   0  0  0  0  0  0  0  0  0  0  0  0
   34.7674   42.1878   -3.6728 H   0  0  0  0  0  0  0  0  0  0  0  0
   36.1199   42.1783   -5.3679 P   0  0  0  0  0  0  0  0  0  0  0  0
   37.3447   43.0213   -5.5305 O   0  0  0  0  0  0  0  0  0  0  0  0
   36.3779   40.7811   -6.1335 O   0  0  0  0  0  0  0  0  0  0  0  0
   37.1339   40.3263   -5.7303 H   0  0  0  0  0  0  0  0  0  0  0  0
   34.6886   42.8570   -6.2637 C   0  0  0  0  0  0  0  0  0  0  0  0
   34.8747   42.7772   -7.7047 N   0  0  0  0  0  0  0  0  0  0  0  0
   33.8240   42.8937   -8.5580 C   0  0  0  0  0  0  0  0  0  0  0  0
   32.7031   43.2538   -8.2317 O   0  0  0  0  0  0  0  0  0  0  0  0
   35.7788   42.6360   -8.0680 H   0  0  0  0  0  0  0  0  0  0  0  0
   34.2033   42.5101   -9.7945 O   0  0  0  0  0  0  0  0  0  0  0  0
   33.1174   42.0870  -10.6222 C   0  0  0  0  0  0  0  0  0  0  0  0
   33.1565   42.9023  -11.8891 C   0  0  0  0  0  0  0  0  0  0  0  0
   33.6003   44.2329  -11.8641 C   0  0  0  0  0  0  0  0  0  0  0  0
   33.6543   44.9840  -13.0401 C   0  0  0  0  0  0  0  0  0  0  0  0
   33.2745   44.4037  -14.2487 C   0  0  0  0  0  0  0  0  0  0  0  0
   33.3552   45.4179  -15.8429 Br  0  0  0  0  0  0  0  0  0  0  0  0
   32.8422   43.0800  -14.2924 C   0  0  0  0  0  0  0  0  0  0  0  0
   32.7869   42.3300  -13.1152 C   0  0  0  0  0  0  0  0  0  0  0  0
   36.5543   42.1603   -2.7196 C   0  0  0  0  0  0  0  0  0  0  0  0
   37.4891   39.9283   -2.2779 N   0  0  0  0  0  0  0  0  0  0  0  0
   37.7773   41.2204   -2.6741 C   0  0  0  0  0  0  0  0  0  0  0  0
   38.9073   41.6067   -2.9592 O   0  0  0  0  0  0  0  0  0  0  0  0
   36.6364   39.7364   -1.8247 H   0  0  0  0  0  0  0  0  0  0  0  0
   38.4385   38.8423   -2.5252 C   0  0  0  0  0  0  0  0  0  0  0  0
   38.2777   38.2985   -3.9464 C   0  0  0  0  0  0  0  0  0  0  0  0
   37.9022   37.1797   -4.2589 O   0  0  0  0  0  0  0  0  0  0  0  0
   38.5526   39.2186   -4.8998 O   0  0  0  0  0  0  0  0  0  0  0  0
   38.8404   40.0758   -4.6545 H   0  0  0  0  0  0  0  0  0  0  0  0
   38.3877   37.7457   -1.4498 C   0  0  0  0  0  0  0  0  0  0  0  0
   40.8389   37.1046   -1.9227 C   0  0  0  0  0  0  0  0  0  0  0  0
   39.6801   37.0783   -0.9267 C   0  0  0  0  0  0  0  0  0  0  0  0
   39.4796   35.6685   -0.3815 C   0  0  0  0  0  0  0  0  0  0  0  0
   35.8777   42.2656   -1.3395 C   0  0  0  0  0  0  0  0  0  0  0  0
   36.5675   43.0875   -0.2292 C   0  0  0  0  0  0  0  0  0  0  0  0
   37.1692   42.1311    0.8094 C   0  0  0  0  0  0  0  0  0  0  0  0
   37.6683   44.0130   -0.7420 C   0  0  0  0  0  0  0  0  0  0  0  0
 32 33  1  0
 33 34  1  0
 33 31  1  0
 26 31  1  0
 26 22  1  0
 22 23  1  0
 23 24  2  0
 23 21  1  0
 21 35  1  0
 35 36  1  0
 36 37  1  0
 36 38  1  0
 21  1  1  0
  1  3  1  0
  3  4  2  0
  3  5  1  0
  3  7  1  0
  7  8  1  0
  8  9  1  0
  9 10  2  0
  9 12  1  0
 12 13  1  0
 13 14  1  0
 14 15  2  0
 15 16  1  0
 16 17  2  0
 17 18  1  0
 17 19  1  0
 19 20  2  0
 26 27  1  0
 27 28  2  0
 27 29  1  0
 20 14  1  0
 22 25  1  0
  1  2  1  0
  5  6  1  0
  8 11  1  0
 29 30  1  0
M  END
> <minimizedAffinity>
-9.43040

> <CNNscore>
0.6893273592

> <CNNaffinity>
7.2392868996

> <CNN_VS>
4.9902386665

> <CNNaffinity_variance>
0.1606258154

$$$$



 38 38  0  0  0  0  0  0  0  0999 V2000
   35.5859   41.7919   -4.2498 N   0  0  0  0  0  0  0  0  0  0  0  0
   34.6457   41.9887   -3.9067 H   0  0  0  0  0  0  0  0  0  0  0  0
   35.6969   42.4445   -5.7480 P   0  0  0  0  0  0  0  0  0  0  0  0
   34.8540   43.6446   -6.0419 O   0  0  0  0  0  0  0  0  0  0  0  0
   37.2432   42.8743   -5.9186 O   0  0  0  0  0  0  0  0  0  0  0  0
   37.4556   43.5764   -5.2838 H   0  0  0  0  0  0  0  0  0  0  0  0
   35.5112   41.1432   -7.0065 C   0  0  0  0  0  0  0  0  0  0  0  0
   34.9107   41.6626   -8.2259 N   0  0  0  0  0  0  0  0  0  0  0  0
   33.9765   40.9512   -8.9093 C   0  0  0  0  0  0  0  0  0  0  0  0
   33.4294   39.9429   -8.4891 O   0  0  0  0  0  0  0  0  0  0  0  0
   35.1864   42.5459   -8.5620 H   0  0  0  0  0  0  0  0  0  0  0  0
   33.7885   41.5055  -10.1247 O   0  0  0  0  0  0  0  0  0  0  0  0
   33.5604   42.9160  -10.0830 C   0  0  0  0  0  0  0  0  0  0  0  0
   33.4405   43.4074  -11.5026 C   0  0  0  0  0  0  0  0  0  0  0  0
   32.9995   42.5456  -12.5178 C   0  0  0  0  0  0  0  0  0  0  0  0
   32.8707   43.0044  -13.8304 C   0  0  0  0  0  0  0  0  0  0  0  0
   33.1724   44.3310  -14.1314 C   0  0  0  0  0  0  0  0  0  0  0  0
   32.9904   44.9550  -15.9074 Br  0  0  0  0  0  0  0  0  0  0  0  0
   33.6008   45.2028  -13.1326 C   0  0  0  0  0  0  0  0  0  0  0  0
   33.7311   44.7424  -11.8203 C   0  0  0  0  0  0  0  0  0  0  0  0
   36.5296   42.2359   -3.2052 C   0  0  0  0  0  0  0  0  0  0  0  0
   37.7365   40.0929   -3.1677 N   0  0  0  0  0  0  0  0  0  0  0  0
   37.8539   41.4573   -3.3520 C   0  0  0  0  0  0  0  0  0  0  0  0
   38.9164   42.0195   -3.6017 O   0  0  0  0  0  0  0  0  0  0  0  0
   36.9349   39.7277   -2.7281 H   0  0  0  0  0  0  0  0  0  0  0  0
   38.7919   39.1851   -3.6194 C   0  0  0  0  0  0  0  0  0  0  0  0
   38.2145   38.0942   -4.5238 C   0  0  0  0  0  0  0  0  0  0  0  0
   38.1950   36.8951   -4.2956 O   0  0  0  0  0  0  0  0  0  0  0  0
   37.6451   38.5854   -5.6489 O   0  0  0  0  0  0  0  0  0  0  0  0
   37.6629   39.5066   -5.8191 H   0  0  0  0  0  0  0  0  0  0  0  0
   39.6368   38.6265   -2.4637 C   0  0  0  0  0  0  0  0  0  0  0  0
   39.1964   36.6242   -0.9017 C   0  0  0  0  0  0  0  0  0  0  0  0
   38.9748   38.1132   -1.1645 C   0  0  0  0  0  0  0  0  0  0  0  0
   37.4958   38.4614   -1.0363 C   0  0  0  0  0  0  0  0  0  0  0  0
   36.0099   42.1878   -1.7557 C   0  0  0  0  0  0  0  0  0  0  0  0
   36.4871   43.2617   -0.7541 C   0  0  0  0  0  0  0  0  0  0  0  0
   37.3420   42.5963    0.3328 C   0  0  0  0  0  0  0  0  0  0  0  0
   37.2954   44.3867   -1.3963 C   0  0  0  0  0  0  0  0  0  0  0  0
 32 33  1  0
 33 34  1  0
 33 31  1  0
 26 31  1  0
 26 22  1  0
 22 23  1  0
 23 24  2  0
 23 21  1  0
 21 35  1  0
 35 36  1  0
 36 37  1  0
 36 38  1  0
 21  1  1  0
  1  3  1  0
  3  4  2  0
  3  5  1  0
  3  7  1  0
  7  8  1  0
  8  9  1  0
  9 10  2  0
  9 12  1  0
 12 13  1  0
 13 14  1  0
 14 15  2  0
 15 16  1  0
 16 17  2  0
 17 18  1  0
 17 19  1  0
 19 20  2  0
 26 27  1  0
 27 28  2  0
 27 29  1  0
 20 14  1  0
 22 25  1  0
  1  2  1  0
  5  6  1  0
  8 11  1  0
 29 30  1  0
M  END
> <minimizedAffinity>
-9.16692

> <CNNscore>
0.6142827272

> <CNNaffinity>
7.1604638100

> <CNN_VS>
4.3985490799

> <CNNaffinity_variance>
0.1665522903

$$$$



 38 38  0  0  0  0  0  0  0  0999 V2000
   35.8209   39.3228   -6.3194 N   0  0  0  0  0  0  0  0  0  0  0  0
   35.0874   39.0331   -5.6726 H   0  0  0  0  0  0  0  0  0  0  0  0
   36.1412   38.0412   -7.2878 P   0  0  0  0  0  0  0  0  0  0  0  0
   35.0390   37.0560   -7.5152 O   0  0  0  0  0  0  0  0  0  0  0  0
   36.5430   38.6706   -8.7187 O   0  0  0  0  0  0  0  0  0  0  0  0
   35.7769   39.1305   -9.0962 H   0  0  0  0  0  0  0  0  0  0  0  0
   37.6888   37.2398   -6.7641 C   0  0  0  0  0  0  0  0  0  0  0  0
   38.2608   37.8956   -5.5979 N   0  0  0  0  0  0  0  0  0  0  0  0
   39.5989   37.8758   -5.3643 C   0  0  0  0  0  0  0  0  0  0  0  0
   40.4368   37.4943   -6.1673 O   0  0  0  0  0  0  0  0  0  0  0  0
   37.6670   38.3625   -4.9664 H   0  0  0  0  0  0  0  0  0  0  0  0
   39.8428   38.2965   -4.1060 O   0  0  0  0  0  0  0  0  0  0  0  0
   41.2250   38.2529   -3.7442 C   0  0  0  0  0  0  0  0  0  0  0  0
   41.3535   37.3969   -2.5106 C   0  0  0  0  0  0  0  0  0  0  0  0
   40.2301   37.1218   -1.7167 C   0  0  0  0  0  0  0  0  0  0  0  0
   40.3440   36.3140   -0.5834 C   0  0  0  0  0  0  0  0  0  0  0  0
   41.5809   35.7688   -0.2449 C   0  0  0  0  0  0  0  0  0  0  0  0
   41.7342   34.6680    1.2853 Br  0  0  0  0  0  0  0  0  0  0  0  0
   42.7040   36.0230   -1.0292 C   0  0  0  0  0  0  0  0  0  0  0  0
   42.5894   36.8326   -2.1616 C   0  0  0  0  0  0  0  0  0  0  0  0
   35.3801   40.5903   -6.9342 C   0  0  0  0  0  0  0  0  0  0  0  0
   35.8531   41.4906   -4.6944 N   0  0  0  0  0  0  0  0  0  0  0  0
   35.8320   41.7698   -6.0475 C   0  0  0  0  0  0  0  0  0  0  0  0
   36.1344   42.8619   -6.5199 O   0  0  0  0  0  0  0  0  0  0  0  0
   35.3701   40.7042   -4.3515 H   0  0  0  0  0  0  0  0  0  0  0  0
   36.5863   42.3520   -3.7658 C   0  0  0  0  0  0  0  0  0  0  0  0
   38.0957   42.1989   -3.9653 C   0  0  0  0  0  0  0  0  0  0  0  0
   38.7991   41.3001   -3.5322 O   0  0  0  0  0  0  0  0  0  0  0  0
   38.6274   43.1667   -4.7476 O   0  0  0  0  0  0  0  0  0  0  0  0
   38.0829   43.8542   -5.0774 H   0  0  0  0  0  0  0  0  0  0  0  0
   36.1487   42.1667   -2.3044 C   0  0  0  0  0  0  0  0  0  0  0  0
   36.5601   42.3336    0.2345 C   0  0  0  0  0  0  0  0  0  0  0  0
   36.8836   42.8890   -1.1520 C   0  0  0  0  0  0  0  0  0  0  0  0
   36.7306   44.4060   -1.1661 C   0  0  0  0  0  0  0  0  0  0  0  0
   33.8822   40.6923   -7.2802 C   0  0  0  0  0  0  0  0  0  0  0  0
   33.4714   41.0808   -8.7170 C   0  0  0  0  0  0  0  0  0  0  0  0
   34.0061   42.4837   -9.0349 C   0  0  0  0  0  0  0  0  0  0  0  0
   33.9714   40.1099   -9.7841 C   0  0  0  0  0  0  0  0  0  0  0  0
 32 33  1  0
 33 34  1  0
 33 31  1  0
 26 31  1  0
 26 22  1  0
 22 23  1  0
 23 24  2  0
 23 21  1  0
 21 35  1  0
 35 36  1  0
 36 37  1  0
 36 38  1  0
 21  1  1  0
  1  3  1  0
  3  4  2  0
  3  5  1  0
  3  7  1  0
  7  8  1  0
  8  9  1  0
  9 10  2  0
  9 12  1  0
 12 13  1  0
 13 14  1  0
 14 15  2  0
 15 16  1  0
 16 17  2  0
 17 18  1  0
 17 19  1  0
 19 20  2  0
 26 27  1  0
 27 28  2  0
 27 29  1  0
 20 14  1  0
 22 25  1  0
  1  2  1  0
  5  6  1  0
  8 11  1  0
 29 30  1  0
M  END
> <minimizedAffinity>
-7.36278

> <CNNscore>
0.6042834520

> <CNNaffinity>
7.4844193459

> <CNN_VS>
4.5227108002

> <CNNaffinity_variance>
0.1354186684

$$$$



 38 38  0  0  0  0  0  0  0  0999 V2000
   35.4283   41.7233   -4.3652 N   0  0  0  0  0  0  0  0  0  0  0  0
   34.5111   42.1154   -4.1520 H   0  0  0  0  0  0  0  0  0  0  0  0
   35.7748   42.1272   -5.9143 P   0  0  0  0  0  0  0  0  0  0  0  0
   36.7688   43.2226   -6.1357 O   0  0  0  0  0  0  0  0  0  0  0  0
   36.3625   40.7842   -6.5897 O   0  0  0  0  0  0  0  0  0  0  0  0
   37.1998   40.5466   -6.1614 H   0  0  0  0  0  0  0  0  0  0  0  0
   34.2341   42.3919   -6.8457 C   0  0  0  0  0  0  0  0  0  0  0  0
   34.5031   42.7872   -8.2200 N   0  0  0  0  0  0  0  0  0  0  0  0
   33.5028   43.1939   -9.0445 C   0  0  0  0  0  0  0  0  0  0  0  0
   32.3637   43.4440   -8.6807 O   0  0  0  0  0  0  0  0  0  0  0  0
   35.4270   42.7593   -8.5587 H   0  0  0  0  0  0  0  0  0  0  0  0
   33.9540   43.2321  -10.3153 O   0  0  0  0  0  0  0  0  0  0  0  0
   33.1680   42.4607  -11.2265 C   0  0  0  0  0  0  0  0  0  0  0  0
   33.1462   43.1861  -12.5473 C   0  0  0  0  0  0  0  0  0  0  0  0
   32.7440   42.5220  -13.7158 C   0  0  0  0  0  0  0  0  0  0  0  0
   32.7059   43.1976  -14.9373 C   0  0  0  0  0  0  0  0  0  0  0  0
   33.0600   44.5442  -14.9935 C   0  0  0  0  0  0  0  0  0  0  0  0
   33.0008   45.4618  -16.6462 Br  0  0  0  0  0  0  0  0  0  0  0  0
   33.4508   45.2212  -13.8403 C   0  0  0  0  0  0  0  0  0  0  0  0
   33.4902   44.5440  -12.6192 C   0  0  0  0  0  0  0  0  0  0  0  0
   36.3443   42.1563   -3.2918 C   0  0  0  0  0  0  0  0  0  0  0  0
   37.7150   40.1176   -3.4161 N   0  0  0  0  0  0  0  0  0  0  0  0
   37.7233   41.4966   -3.5031 C   0  0  0  0  0  0  0  0  0  0  0  0
   38.7355   42.1570   -3.7194 O   0  0  0  0  0  0  0  0  0  0  0  0
   36.9499   39.6603   -2.9981 H   0  0  0  0  0  0  0  0  0  0  0  0
   38.8322   39.3299   -3.9389 C   0  0  0  0  0  0  0  0  0  0  0  0
   38.3565   38.3896   -5.0486 C   0  0  0  0  0  0  0  0  0  0  0  0
   37.2756   38.4212   -5.6149 O   0  0  0  0  0  0  0  0  0  0  0  0
   39.2963   37.4891   -5.4187 O   0  0  0  0  0  0  0  0  0  0  0  0
   40.1244   37.4692   -4.9806 H   0  0  0  0  0  0  0  0  0  0  0  0
   39.6255   38.6105   -2.8369 C   0  0  0  0  0  0  0  0  0  0  0  0
   37.7717   38.2845   -1.0760 C   0  0  0  0  0  0  0  0  0  0  0  0
   38.9280   37.6492   -1.8473 C   0  0  0  0  0  0  0  0  0  0  0  0
   39.8788   36.9388   -0.8901 C   0  0  0  0  0  0  0  0  0  0  0  0
   35.8429   41.9550   -1.8490 C   0  0  0  0  0  0  0  0  0  0  0  0
   36.1493   43.0388   -0.7927 C   0  0  0  0  0  0  0  0  0  0  0  0
   36.9272   42.4075    0.3698 C   0  0  0  0  0  0  0  0  0  0  0  0
   36.9495   44.2199   -1.3367 C   0  0  0  0  0  0  0  0  0  0  0  0
 32 33  1  0
 33 34  1  0
 33 31  1  0
 26 31  1  0
 26 22  1  0
 22 23  1  0
 23 24  2  0
 23 21  1  0
 21 35  1  0
 35 36  1  0
 36 37  1  0
 36 38  1  0
 21  1  1  0
  1  3  1  0
  3  4  2  0
  3  5  1  0
  3  7  1  0
  7  8  1  0
  8  9  1  0
  9 10  2  0
  9 12  1  0
 12 13  1  0
 13 14  1  0
 14 15  2  0
 15 16  1  0
 16 17  2  0
 17 18  1  0
 17 19  1  0
 19 20  2  0
 26 27  1  0
 27 28  2  0
 27 29  1  0
 20 14  1  0
 22 25  1  0
  1  2  1  0
  5  6  1  0
  8 11  1  0
 29 30  1  0
M  END
> <minimizedAffinity>
-9.36880

> <CNNscore>
0.5396929383

> <CNNaffinity>
6.8810133934

> <CNN_VS>
3.7136342525

> <CNNaffinity_variance>
0.3652063906

$$$$



 38 38  0  0  0  0  0  0  0  0999 V2000
   35.5175   39.7367   -6.5486 N   0  0  0  0  0  0  0  0  0  0  0  0
   34.8672   39.5672   -5.7813 H   0  0  0  0  0  0  0  0  0  0  0  0
   35.3270   38.5116   -7.6189 P   0  0  0  0  0  0  0  0  0  0  0  0
   33.9287   38.1097   -7.9658 O   0  0  0  0  0  0  0  0  0  0  0  0
   36.0485   39.0067   -8.9752 O   0  0  0  0  0  0  0  0  0  0  0  0
   35.5750   39.7746   -9.3315 H   0  0  0  0  0  0  0  0  0  0  0  0
   36.3530   37.0919   -7.1255 C   0  0  0  0  0  0  0  0  0  0  0  0
   37.6855   37.5126   -6.7195 N   0  0  0  0  0  0  0  0  0  0  0  0
   38.7913   36.8318   -7.1189 C   0  0  0  0  0  0  0  0  0  0  0  0
   38.7964   35.9591   -7.9738 O   0  0  0  0  0  0  0  0  0  0  0  0
   37.7876   38.3053   -6.1446 H   0  0  0  0  0  0  0  0  0  0  0  0
   39.8560   37.2389   -6.3974 O   0  0  0  0  0  0  0  0  0  0  0  0
   41.0521   36.5081   -6.6775 C   0  0  0  0  0  0  0  0  0  0  0  0
   42.1825   37.1668   -5.9294 C   0  0  0  0  0  0  0  0  0  0  0  0
   41.9268   37.9146   -4.7703 C   0  0  0  0  0  0  0  0  0  0  0  0
   42.9749   38.5104   -4.0659 C   0  0  0  0  0  0  0  0  0  0  0  0
   44.2854   38.3519   -4.5121 C   0  0  0  0  0  0  0  0  0  0  0  0
   45.7062   39.1519   -3.5539 Br  0  0  0  0  0  0  0  0  0  0  0  0
   44.5574   37.6030   -5.6550 C   0  0  0  0  0  0  0  0  0  0  0  0
   43.5081   37.0088   -6.3599 C   0  0  0  0  0  0  0  0  0  0  0  0
   35.2982   41.1237   -7.0036 C   0  0  0  0  0  0  0  0  0  0  0  0
   36.0037   41.4787   -4.6740 N   0  0  0  0  0  0  0  0  0  0  0  0
   35.6535   42.0964   -5.8595 C   0  0  0  0  0  0  0  0  0  0  0  0
   35.6133   43.3149   -6.0038 O   0  0  0  0  0  0  0  0  0  0  0  0
   35.7795   40.5304   -4.5339 H   0  0  0  0  0  0  0  0  0  0  0  0
   36.7046   42.2201   -3.6247 C   0  0  0  0  0  0  0  0  0  0  0  0
   38.2105   42.2449   -3.8958 C   0  0  0  0  0  0  0  0  0  0  0  0
   39.0556   41.5371   -3.3714 O   0  0  0  0  0  0  0  0  0  0  0  0
   38.5612   43.1316   -4.8560 O   0  0  0  0  0  0  0  0  0  0  0  0
   37.9085   43.6724   -5.2552 H   0  0  0  0  0  0  0  0  0  0  0  0
   36.3538   41.7324   -2.2103 C   0  0  0  0  0  0  0  0  0  0  0  0
   36.1473   42.0508    0.3390 C   0  0  0  0  0  0  0  0  0  0  0  0
   36.8054   42.5188   -0.9584 C   0  0  0  0  0  0  0  0  0  0  0  0
   36.6916   44.0331   -1.0961 C   0  0  0  0  0  0  0  0  0  0  0  0
   33.9079   41.4340   -7.5904 C   0  0  0  0  0  0  0  0  0  0  0  0
   33.8150   42.1400   -8.9605 C   0  0  0  0  0  0  0  0  0  0  0  0
   33.4587   41.1079  -10.0389 C   0  0  0  0  0  0  0  0  0  0  0  0
   32.7891   43.2700   -9.0024 C   0  0  0  0  0  0  0  0  0  0  0  0
 32 33  1  0
 33 34  1  0
 33 31  1  0
 26 31  1  0
 26 22  1  0
 22 23  1  0
 23 24  2  0
 23 21  1  0
 21 35  1  0
 35 36  1  0
 36 37  1  0
 36 38  1  0
 21  1  1  0
  1  3  1  0
  3  4  2  0
  3  5  1  0
  3  7  1  0
  7  8  1  0
  8  9  1  0
  9 10  2  0
  9 12  1  0
 12 13  1  0
 13 14  1  0
 14 15  2  0
 15 16  1  0
 16 17  2  0
 17 18  1  0
 17 19  1  0
 19 20  2  0
 26 27  1  0
 27 28  2  0
 27 29  1  0
 20 14  1  0
 22 25  1  0
  1  2  1  0
  5  6  1  0
  8 11  1  0
 29 30  1  0
M  END
> <minimizedAffinity>
-7.44015

> <CNNscore>
0.4746195972

> <CNNaffinity>
7.0711288452

> <CNN_VS>
3.3560962677

> <CNNaffinity_variance>
0.1902788430

$$$$



 38 38  0  0  0  0  0  0  0  0999 V2000
   37.3864   42.6104   -4.6709 N   0  0  0  0  0  0  0  0  0  0  0  0
   38.2406   42.2784   -5.1189 H   0  0  0  0  0  0  0  0  0  0  0  0
   36.1287   41.9455   -5.4827 P   0  0  0  0  0  0  0  0  0  0  0  0
   35.9579   40.4622   -5.3951 O   0  0  0  0  0  0  0  0  0  0  0  0
   34.8048   42.6317   -4.8652 O   0  0  0  0  0  0  0  0  0  0  0  0
   34.7122   42.3758   -3.9342 H   0  0  0  0  0  0  0  0  0  0  0  0
   36.1143   42.5435   -7.2014 C   0  0  0  0  0  0  0  0  0  0  0  0
   34.7591   42.6322   -7.7237 N   0  0  0  0  0  0  0  0  0  0  0  0
   34.2717   41.6966   -8.5798 C   0  0  0  0  0  0  0  0  0  0  0  0
   34.8221   40.6359   -8.8335 O   0  0  0  0  0  0  0  0  0  0  0  0
   34.1847   43.3840   -7.4516 H   0  0  0  0  0  0  0  0  0  0  0  0
   33.1230   42.1432   -9.1286 O   0  0  0  0  0  0  0  0  0  0  0  0
   33.1735   42.2563  -10.5526 C   0  0  0  0  0  0  0  0  0  0  0  0
   32.1896   41.2715  -11.1300 C   0  0  0  0  0  0  0  0  0  0  0  0
   31.3107   40.5705  -10.2909 C   0  0  0  0  0  0  0  0  0  0  0  0
   30.3862   39.6711  -10.8260 C   0  0  0  0  0  0  0  0  0  0  0  0
   30.3296   39.4767  -12.2047 C   0  0  0  0  0  0  0  0  0  0  0  0
   29.0722   38.2648  -12.9306 Br  0  0  0  0  0  0  0  0  0  0  0  0
   31.1877   40.1735  -13.0527 C   0  0  0  0  0  0  0  0  0  0  0  0
   32.1133   41.0716  -12.5163 C   0  0  0  0  0  0  0  0  0  0  0  0
   37.5244   42.3449   -3.2255 C   0  0  0  0  0  0  0  0  0  0  0  0
   37.7792   39.9607   -2.6766 N   0  0  0  0  0  0  0  0  0  0  0  0
   38.4438   41.1229   -3.0184 C   0  0  0  0  0  0  0  0  0  0  0  0
   39.6632   41.1965   -3.1408 O   0  0  0  0  0  0  0  0  0  0  0  0
   36.8525   40.0080   -2.3476 H   0  0  0  0  0  0  0  0  0  0  0  0
   38.4389   38.6600   -2.7986 C   0  0  0  0  0  0  0  0  0  0  0  0
   38.2958   38.1139   -4.2209 C   0  0  0  0  0  0  0  0  0  0  0  0
   38.6521   38.6644   -5.2505 O   0  0  0  0  0  0  0  0  0  0  0  0
   37.7541   36.8744   -4.2603 O   0  0  0  0  0  0  0  0  0  0  0  0
   37.4823   36.4565   -3.4669 H   0  0  0  0  0  0  0  0  0  0  0  0
   37.9946   37.6594   -1.7202 C   0  0  0  0  0  0  0  0  0  0  0  0
   40.4438   36.8856   -1.5064 C   0  0  0  0  0  0  0  0  0  0  0  0
   39.0272   36.8166   -0.9373 C   0  0  0  0  0  0  0  0  0  0  0  0
   38.6127   35.3658   -0.7172 C   0  0  0  0  0  0  0  0  0  0  0  0
   36.2110   42.1976   -2.4337 C   0  0  0  0  0  0  0  0  0  0  0  0
   36.0321   42.9990   -1.1262 C   0  0  0  0  0  0  0  0  0  0  0  0
   36.5731   42.1758    0.0506 C   0  0  0  0  0  0  0  0  0  0  0  0
   36.7277   44.3582   -1.1371 C   0  0  0  0  0  0  0  0  0  0  0  0
 32 33  1  0
 33 34  1  0
 33 31  1  0
 26 31  1  0
 26 22  1  0
 22 23  1  0
 23 24  2  0
 23 21  1  0
 21 35  1  0
 35 36  1  0
 36 37  1  0
 36 38  1  0
 21  1  1  0
  1  3  1  0
  3  4  2  0
  3  5  1  0
  3  7  1  0
  7  8  1  0
  8  9  1  0
  9 10  2  0
  9 12  1  0
 12 13  1  0
 13 14  1  0
 14 15  2  0
 15 16  1  0
 16 17  2  0
 17 18  1  0
 17 19  1  0
 19 20  2  0
 26 27  1  0
 27 28  2  0
 27 29  1  0
 20 14  1  0
 22 25  1  0
  1  2  1  0
  5  6  1  0
  8 11  1  0
 29 30  1  0
M  END
> <minimizedAffinity>
-6.92037

> <CNNscore>
0.4359229207

> <CNNaffinity>
6.9075984955

> <CNN_VS>
3.0111804008

> <CNNaffinity_variance>
0.2775158584

$$$$



 38 38  0  0  0  0  0  0  0  0999 V2000
   34.9895   42.1889   -8.1029 N   0  0  0  0  0  0  0  0  0  0  0  0
   35.5629   41.6757   -8.7723 H   0  0  0  0  0  0  0  0  0  0  0  0
   33.5738   42.5361   -8.8498 P   0  0  0  0  0  0  0  0  0  0  0  0
   32.6504   41.3964   -9.1422 O   0  0  0  0  0  0  0  0  0  0  0  0
   32.8030   43.5544   -7.8629 O   0  0  0  0  0  0  0  0  0  0  0  0
   32.5856   43.0993   -7.0343 H   0  0  0  0  0  0  0  0  0  0  0  0
   33.8830   43.5699  -10.3151 C   0  0  0  0  0  0  0  0  0  0  0  0
   32.9586   43.2556  -11.3941 N   0  0  0  0  0  0  0  0  0  0  0  0
   31.9891   44.1307  -11.7682 C   0  0  0  0  0  0  0  0  0  0  0  0
   31.9192   45.2904  -11.3905 O   0  0  0  0  0  0  0  0  0  0  0  0
   33.0373   42.3928  -11.8617 H   0  0  0  0  0  0  0  0  0  0  0  0
   31.1063   43.5068  -12.5753 O   0  0  0  0  0  0  0  0  0  0  0  0
   31.4571   42.1531  -12.8715 C   0  0  0  0  0  0  0  0  0  0  0  0
   30.2699   41.2850  -12.5426 C   0  0  0  0  0  0  0  0  0  0  0  0
   29.1580   41.2486  -13.3973 C   0  0  0  0  0  0  0  0  0  0  0  0
   28.0649   40.4310  -13.1033 C   0  0  0  0  0  0  0  0  0  0  0  0
   28.0835   39.6378  -11.9578 C   0  0  0  0  0  0  0  0  0  0  0  0
   26.6066   38.5242  -11.5634 Br  0  0  0  0  0  0  0  0  0  0  0  0
   29.1848   39.6539  -11.1046 C   0  0  0  0  0  0  0  0  0  0  0  0
   30.2771   40.4733  -11.3986 C   0  0  0  0  0  0  0  0  0  0  0  0
   34.9649   41.3970   -6.8574 C   0  0  0  0  0  0  0  0  0  0  0  0
   35.8329   41.6120   -4.5659 N   0  0  0  0  0  0  0  0  0  0  0  0
   35.3730   42.2986   -5.6734 C   0  0  0  0  0  0  0  0  0  0  0  0
   35.2809   43.5219   -5.7235 O   0  0  0  0  0  0  0  0  0  0  0  0
   35.6521   40.6480   -4.4805 H   0  0  0  0  0  0  0  0  0  0  0  0
   36.5860   42.3033   -3.5186 C   0  0  0  0  0  0  0  0  0  0  0  0
   38.0852   42.2753   -3.8244 C   0  0  0  0  0  0  0  0  0  0  0  0
   38.9315   41.6062   -3.2532 O   0  0  0  0  0  0  0  0  0  0  0  0
   38.4265   43.0594   -4.8731 O   0  0  0  0  0  0  0  0  0  0  0  0
   37.7729   43.5710   -5.3079 H   0  0  0  0  0  0  0  0  0  0  0  0
   36.2485   41.8000   -2.1064 C   0  0  0  0  0  0  0  0  0  0  0  0
   36.6350   44.1952   -1.2364 C   0  0  0  0  0  0  0  0  0  0  0  0
   36.2011   42.7684   -0.9024 C   0  0  0  0  0  0  0  0  0  0  0  0
   36.9366   42.2648    0.3347 C   0  0  0  0  0  0  0  0  0  0  0  0
   35.7765   40.0875   -6.8692 C   0  0  0  0  0  0  0  0  0  0  0  0
   35.1454   38.8222   -7.4896 C   0  0  0  0  0  0  0  0  0  0  0  0
   33.6354   38.8231   -7.2160 C   0  0  0  0  0  0  0  0  0  0  0  0
   35.3730   38.6950   -8.9940 C   0  0  0  0  0  0  0  0  0  0  0  0
 32 33  1  0
 33 34  1  0
 33 31  1  0
 26 31  1  0
 26 22  1  0
 22 23  1  0
 23 24  2  0
 23 21  1  0
 21 35  1  0
 35 36  1  0
 36 37  1  0
 36 38  1  0
 21  1  1  0
  1  3  1  0
  3  4  2  0
  3  5  1  0
  3  7  1  0
  7  8  1  0
  8  9  1  0
  9 10  2  0
  9 12  1  0
 12 13  1  0
 13 14  1  0
 14 15  2  0
 15 16  1  0
 16 17  2  0
 17 18  1  0
 17 19  1  0
 19 20  2  0
 26 27  1  0
 27 28  2  0
 27 29  1  0
 20 14  1  0
 22 25  1  0
  1  2  1  0
  5  6  1  0
  8 11  1  0
 29 30  1  0
M  END
> <minimizedAffinity>
-8.19963

> <CNNscore>
0.4276880622

> <CNNaffinity>
7.2220892906

> <CNN_VS>
3.0888013840

> <CNNaffinity_variance>
0.0326799601

$$$$



 38 38  0  0  0  0  0  0  0  0999 V2000
   34.6700   40.1892   -6.4109 N   0  0  0  0  0  0  0  0  0  0  0  0
   33.6672   40.0698   -6.5536 H   0  0  0  0  0  0  0  0  0  0  0  0
   35.4110   38.9089   -7.1142 P   0  0  0  0  0  0  0  0  0  0  0  0
   36.6167   38.3481   -6.4295 O   0  0  0  0  0  0  0  0  0  0  0  0
   34.2945   37.7452   -7.1784 O   0  0  0  0  0  0  0  0  0  0  0  0
   34.0541   37.4777   -6.2775 H   0  0  0  0  0  0  0  0  0  0  0  0
   35.7143   39.2580   -8.8742 C   0  0  0  0  0  0  0  0  0  0  0  0
   36.3760   38.1419   -9.5328 N   0  0  0  0  0  0  0  0  0  0  0  0
   35.8446   37.5624  -10.6408 C   0  0  0  0  0  0  0  0  0  0  0  0
   34.9084   38.0183  -11.2797 O   0  0  0  0  0  0  0  0  0  0  0  0
   37.2246   37.8003   -9.1688 H   0  0  0  0  0  0  0  0  0  0  0  0
   36.4797   36.3984  -10.8890 O   0  0  0  0  0  0  0  0  0  0  0  0
   37.7473   36.2864  -10.2379 C   0  0  0  0  0  0  0  0  0  0  0  0
   38.3564   34.9665  -10.6353 C   0  0  0  0  0  0  0  0  0  0  0  0
   38.2215   34.4881  -11.9471 C   0  0  0  0  0  0  0  0  0  0  0  0
   38.8007   33.2739  -12.3217 C   0  0  0  0  0  0  0  0  0  0  0  0
   39.5269   32.5376  -11.3879 C   0  0  0  0  0  0  0  0  0  0  0  0
   40.3184   30.8971  -11.8967 Br  0  0  0  0  0  0  0  0  0  0  0  0
   39.6799   33.0042  -10.0840 C   0  0  0  0  0  0  0  0  0  0  0  0
   39.0987   34.2180   -9.7099 C   0  0  0  0  0  0  0  0  0  0  0  0
   35.0128   41.5513   -6.8650 C   0  0  0  0  0  0  0  0  0  0  0  0
   35.5337   41.8081   -4.4747 N   0  0  0  0  0  0  0  0  0  0  0  0
   35.7903   42.2791   -5.7482 C   0  0  0  0  0  0  0  0  0  0  0  0
   36.5611   43.2044   -5.9872 O   0  0  0  0  0  0  0  0  0  0  0  0
   34.7376   41.2523   -4.3119 H   0  0  0  0  0  0  0  0  0  0  0  0
   36.4335   42.1273   -3.3654 C   0  0  0  0  0  0  0  0  0  0  0  0
   37.7312   41.3238   -3.4751 C   0  0  0  0  0  0  0  0  0  0  0  0
   38.8463   41.7697   -3.6938 O   0  0  0  0  0  0  0  0  0  0  0  0
   37.5555   40.0009   -3.2509 O   0  0  0  0  0  0  0  0  0  0  0  0
   36.6973   39.6640   -3.0836 H   0  0  0  0  0  0  0  0  0  0  0  0
   35.7585   41.9993   -1.9908 C   0  0  0  0  0  0  0  0  0  0  0  0
   36.9248   44.1656   -1.2225 C   0  0  0  0  0  0  0  0  0  0  0  0
   36.1816   42.8970   -0.8056 C   0  0  0  0  0  0  0  0  0  0  0  0
   36.9505   42.1659    0.2895 C   0  0  0  0  0  0  0  0  0  0  0  0
   33.8423   42.4092   -7.3824 C   0  0  0  0  0  0  0  0  0  0  0  0
   33.5792   42.4764   -8.9024 C   0  0  0  0  0  0  0  0  0  0  0  0
   32.8643   41.1943   -9.3498 C   0  0  0  0  0  0  0  0  0  0  0  0
   32.7435   43.6807   -9.3298 C   0  0  0  0  0  0  0  0  0  0  0  0
 32 33  1  0
 33 34  1  0
 33 31  1  0
 26 31  1  0
 26 22  1  0
 22 23  1  0
 23 24  2  0
 23 21  1  0
 21 35  1  0
 35 36  1  0
 36 37  1  0
 36 38  1  0
 21  1  1  0
  1  3  1  0
  3  4  2  0
  3  5  1  0
  3  7  1  0
  7  8  1  0
  8  9  1  0
  9 10  2  0
  9 12  1  0
 12 13  1  0
 13 14  1  0
 14 15  2  0
 15 16  1  0
 16 17  2  0
 17 18  1  0
 17 19  1  0
 19 20  2  0
 26 27  1  0
 27 28  2  0
 27 29  1  0
 20 14  1  0
 22 25  1  0
  1  2  1  0
  5  6  1  0
  8 11  1  0
 29 30  1  0
M  END
> <minimizedAffinity>
-7.59328

> <CNNscore>
0.3924961686

> <CNNaffinity>
7.1456084251

> <CNN_VS>
2.8046238422

> <CNNaffinity_variance>
0.0482437052

$$$$
