


 26 27  0  0  0  0  0  0  0  0999 V2000
   79.8918    4.5308   32.3363 N   0  0  0  0  0  0  0  0  0  0  0  0
   79.1889    3.9114   32.7395 H   0  0  0  0  0  0  0  0  0  0  0  0
   79.2810    5.1148   30.8972 S   0  0  0  0  0  0  0  0  0  0  0  0
   78.4901    4.0679   30.2898 O   0  0  0  0  0  0  0  0  0  0  0  0
   78.7505    6.4379   31.1225 O   0  0  0  0  0  0  0  0  0  0  0  0
   80.5989    5.3672   29.7999 C   0  0  0  0  0  0  0  0  0  0  0  0
   81.9304    5.6608   30.2378 C   0  0  0  0  0  0  0  0  0  0  0  0
   82.7819    5.7832   29.1733 C   0  0  0  0  0  0  0  0  0  0  0  0
   84.6434    6.1736   29.3537 Br  0  0  0  0  0  0  0  0  0  0  0  0
   82.0259    5.5517   27.6803 S   0  0  0  0  0  0  0  0  0  0  0  0
   80.4938    5.2757   28.4200 C   0  0  0  0  0  0  0  0  0  0  0  0
   79.3189    5.0189   27.6163 C   0  0  0  0  0  0  0  0  0  0  0  0
   78.4894    5.8222   27.2183 O   0  0  0  0  0  0  0  0  0  0  0  0
   79.1817    3.7145   27.2895 O   0  0  0  0  0  0  0  0  0  0  0  0
   79.8111    3.0879   27.5884 H   0  0  0  0  0  0  0  0  0  0  0  0
   80.2495    5.5153   33.3577 C   0  0  0  0  0  0  0  0  0  0  0  0
   83.8050    4.3559   35.5377 C   0  0  0  0  0  0  0  0  0  0  0  0
   83.4753    3.7132   34.3398 C   0  0  0  0  0  0  0  0  0  0  0  0
   82.3318    4.0911   33.6310 C   0  0  0  0  0  0  0  0  0  0  0  0
   81.5059    5.1235   34.1028 C   0  0  0  0  0  0  0  0  0  0  0  0
   81.8373    5.7550   35.3108 C   0  0  0  0  0  0  0  0  0  0  0  0
   82.9809    5.3779   36.0221 C   0  0  0  0  0  0  0  0  0  0  0  0
   85.4376    4.3775   37.3070 O   0  0  0  0  0  0  0  0  0  0  0  0
   85.0269    3.9209   36.2563 C   0  0  0  0  0  0  0  0  0  0  0  0
   85.6808    2.9309   35.6231 O   0  0  0  0  0  0  0  0  0  0  0  0
   85.3490    2.5922   34.8149 H   0  0  0  0  0  0  0  0  0  0  0  0
 23 24  2  0
 24 25  1  0
 24 17  1  0
 17 18  2  0
 18 19  1  0
 19 20  2  0
 20 16  1  0
 16  1  1  0
  1  3  1  0
  3  4  2  0
  3  5  2  0
  3  6  1  0
  6  7  1  0
  7  8  2  0
  8  9  1  0
  8 10  1  0
 10 11  1  0
 11 12  1  0
 12 13  2  0
 12 14  1  0
 20 21  1  0
 21 22  2  0
 22 17  1  0
 11  6  2  0
 25 26  1  0
  1  2  1  0
 14 15  1  0
M  END
> <minimizedAffinity>
-7.39041

> <CNNscore>
0.8354851007

> <CNNaffinity>
4.6862468719

> <CNN_VS>
3.9152894020

> <CNNaffinity_variance>
0.1239546314

$$$$



 26 27  0  0  0  0  0  0  0  0999 V2000
   80.4906    5.0803   30.8412 N   0  0  0  0  0  0  0  0  0  0  0  0
   79.8751    5.1745   30.0333 H   0  0  0  0  0  0  0  0  0  0  0  0
   81.8873    5.9319   30.5108 S   0  0  0  0  0  0  0  0  0  0  0  0
   81.9577    7.0477   31.4275 O   0  0  0  0  0  0  0  0  0  0  0  0
   82.9761    4.9962   30.3635 O   0  0  0  0  0  0  0  0  0  0  0  0
   81.7348    6.6558   28.9432 C   0  0  0  0  0  0  0  0  0  0  0  0
   82.6383    7.6546   28.4565 C   0  0  0  0  0  0  0  0  0  0  0  0
   82.3112    8.0341   27.1828 C   0  0  0  0  0  0  0  0  0  0  0  0
   83.2834    9.3479   26.1934 Br  0  0  0  0  0  0  0  0  0  0  0  0
   80.9628    7.2234   26.5673 S   0  0  0  0  0  0  0  0  0  0  0  0
   80.7594    6.3152   28.0179 C   0  0  0  0  0  0  0  0  0  0  0  0
   79.6709    5.3725   28.1549 C   0  0  0  0  0  0  0  0  0  0  0  0
   78.4972    5.6085   28.3969 O   0  0  0  0  0  0  0  0  0  0  0  0
   80.0607    4.0910   27.9726 O   0  0  0  0  0  0  0  0  0  0  0  0
   80.9581    3.8963   27.7863 H   0  0  0  0  0  0  0  0  0  0  0  0
   79.7290    5.4808   32.0243 C   0  0  0  0  0  0  0  0  0  0  0  0
   82.1178    5.0945   35.6136 C   0  0  0  0  0  0  0  0  0  0  0  0
   81.4195    6.2796   35.3593 C   0  0  0  0  0  0  0  0  0  0  0  0
   80.6421    6.4034   34.2048 C   0  0  0  0  0  0  0  0  0  0  0  0
   80.5423    5.3418   33.2918 C   0  0  0  0  0  0  0  0  0  0  0  0
   81.2550    4.1611   33.5485 C   0  0  0  0  0  0  0  0  0  0  0  0
   82.0342    4.0353   34.7030 C   0  0  0  0  0  0  0  0  0  0  0  0
   82.7582    5.6587   37.8649 O   0  0  0  0  0  0  0  0  0  0  0  0
   82.9309    5.0086   36.8506 C   0  0  0  0  0  0  0  0  0  0  0  0
   83.9271    4.1096   36.7596 O   0  0  0  0  0  0  0  0  0  0  0  0
   84.0443    3.6185   35.9703 H   0  0  0  0  0  0  0  0  0  0  0  0
 23 24  2  0
 24 25  1  0
 24 17  1  0
 17 18  2  0
 18 19  1  0
 19 20  2  0
 20 16  1  0
 16  1  1  0
  1  3  1  0
  3  4  2  0
  3  5  2  0
  3  6  1  0
  6  7  1  0
  7  8  2  0
  8  9  1  0
  8 10  1  0
 10 11  1  0
 11 12  1  0
 12 13  2  0
 12 14  1  0
 20 21  1  0
 21 22  2  0
 22 17  1  0
 11  6  2  0
 25 26  1  0
  1  2  1  0
 14 15  1  0
M  END
> <minimizedAffinity>
-7.13361

> <CNNscore>
0.7221098542

> <CNNaffinity>
4.7369046211

> <CNN_VS>
3.4205656052

> <CNNaffinity_variance>
0.0172496531

$$$$



 26 27  0  0  0  0  0  0  0  0999 V2000
   82.8622    6.2109   33.3856 N   0  0  0  0  0  0  0  0  0  0  0  0
   83.1001    7.1628   33.6646 H   0  0  0  0  0  0  0  0  0  0  0  0
   83.5822    5.1729   34.4761 S   0  0  0  0  0  0  0  0  0  0  0  0
   83.1534    5.5518   35.8039 O   0  0  0  0  0  0  0  0  0  0  0  0
   83.4467    3.8216   33.9876 O   0  0  0  0  0  0  0  0  0  0  0  0
   85.2918    5.4589   34.4646 C   0  0  0  0  0  0  0  0  0  0  0  0
   85.8943    6.5428   33.7486 C   0  0  0  0  0  0  0  0  0  0  0  0
   87.2507    6.5584   33.9310 C   0  0  0  0  0  0  0  0  0  0  0  0
   88.4052    7.8559   33.1348 Br  0  0  0  0  0  0  0  0  0  0  0  0
   87.8063    5.3176   34.9340 S   0  0  0  0  0  0  0  0  0  0  0  0
   86.2152    4.6964   35.1644 C   0  0  0  0  0  0  0  0  0  0  0  0
   85.9897    3.5199   35.9750 C   0  0  0  0  0  0  0  0  0  0  0  0
   85.9881    3.4349   37.1935 O   0  0  0  0  0  0  0  0  0  0  0  0
   85.7473    2.4133   35.2376 O   0  0  0  0  0  0  0  0  0  0  0  0
   85.7457    2.4648   34.3020 H   0  0  0  0  0  0  0  0  0  0  0  0
   81.4065    6.1401   33.2582 C   0  0  0  0  0  0  0  0  0  0  0  0
   80.1606    5.0695   29.2532 C   0  0  0  0  0  0  0  0  0  0  0  0
   81.4929    5.4132   29.5056 C   0  0  0  0  0  0  0  0  0  0  0  0
   81.8984    5.7520   30.7992 C   0  0  0  0  0  0  0  0  0  0  0  0
   80.9816    5.7429   31.8621 C   0  0  0  0  0  0  0  0  0  0  0  0
   79.6450    5.4083   31.5984 C   0  0  0  0  0  0  0  0  0  0  0  0
   79.2368    5.0696   30.3043 C   0  0  0  0  0  0  0  0  0  0  0  0
   79.1932    3.7067   27.5201 O   0  0  0  0  0  0  0  0  0  0  0  0
   79.7755    4.7182   27.8651 C   0  0  0  0  0  0  0  0  0  0  0  0
   80.1394    5.6532   26.9694 O   0  0  0  0  0  0  0  0  0  0  0  0
   80.5870    6.4256   27.2541 H   0  0  0  0  0  0  0  0  0  0  0  0
 23 24  2  0
 24 25  1  0
 24 17  1  0
 17 18  2  0
 18 19  1  0
 19 20  2  0
 20 16  1  0
 16  1  1  0
  1  3  1  0
  3  4  2  0
  3  5  2  0
  3  6  1  0
  6  7  1  0
  7  8  2  0
  8  9  1  0
  8 10  1  0
 10 11  1  0
 11 12  1  0
 12 13  2  0
 12 14  1  0
 20 21  1  0
 21 22  2  0
 22 17  1  0
 11  6  2  0
 25 26  1  0
  1  2  1  0
 14 15  1  0
M  END
> <minimizedAffinity>
-5.95221

> <CNNscore>
0.6115146279

> <CNNaffinity>
4.2390084267

> <CNN_VS>
2.5922157764

> <CNNaffinity_variance>
0.0493747182

$$$$



 26 27  0  0  0  0  0  0  0  0999 V2000
   79.0210    6.3750   31.4684 N   0  0  0  0  0  0  0  0  0  0  0  0
   79.6009    7.0999   31.8911 H   0  0  0  0  0  0  0  0  0  0  0  0
   78.6973    6.8418   29.8993 S   0  0  0  0  0  0  0  0  0  0  0  0
   77.7487    5.9045   29.3407 O   0  0  0  0  0  0  0  0  0  0  0  0
   78.4643    8.2659   29.8787 O   0  0  0  0  0  0  0  0  0  0  0  0
   80.1349    6.6333   28.9535 C   0  0  0  0  0  0  0  0  0  0  0  0
   81.2730    7.4949   29.0677 C   0  0  0  0  0  0  0  0  0  0  0  0
   82.2801    7.0919   28.2331 C   0  0  0  0  0  0  0  0  0  0  0  0
   83.9607    7.9908   28.1007 Br  0  0  0  0  0  0  0  0  0  0  0  0
   81.8931    5.7167   27.3312 S   0  0  0  0  0  0  0  0  0  0  0  0
   80.3250    5.6086   28.0382 C   0  0  0  0  0  0  0  0  0  0  0  0
   79.4032    4.5677   27.6398 C   0  0  0  0  0  0  0  0  0  0  0  0
   78.7286    4.5088   26.6233 O   0  0  0  0  0  0  0  0  0  0  0  0
   79.3298    3.5600   28.5378 O   0  0  0  0  0  0  0  0  0  0  0  0
   79.8421    3.5928   29.3217 H   0  0  0  0  0  0  0  0  0  0  0  0
   79.7073    5.0966   31.6561 C   0  0  0  0  0  0  0  0  0  0  0  0
   81.9001    4.9563   35.3858 C   0  0  0  0  0  0  0  0  0  0  0  0
   81.2110    6.1174   35.0199 C   0  0  0  0  0  0  0  0  0  0  0  0
   80.4966    6.1620   33.8197 C   0  0  0  0  0  0  0  0  0  0  0  0
   80.4514    5.0442   32.9717 C   0  0  0  0  0  0  0  0  0  0  0  0
   81.1547    3.8878   33.3404 C   0  0  0  0  0  0  0  0  0  0  0  0
   81.8709    3.8412   34.5408 C   0  0  0  0  0  0  0  0  0  0  0  0
   83.7686    4.5190   36.8396 O   0  0  0  0  0  0  0  0  0  0  0  0
   82.6455    4.9550   36.6676 C   0  0  0  0  0  0  0  0  0  0  0  0
   81.9469    5.5012   37.6787 O   0  0  0  0  0  0  0  0  0  0  0  0
   81.0834    5.8316   37.5268 H   0  0  0  0  0  0  0  0  0  0  0  0
 23 24  2  0
 24 25  1  0
 24 17  1  0
 17 18  2  0
 18 19  1  0
 19 20  2  0
 20 16  1  0
 16  1  1  0
  1  3  1  0
  3  4  2  0
  3  5  2  0
  3  6  1  0
  6  7  1  0
  7  8  2  0
  8  9  1  0
  8 10  1  0
 10 11  1  0
 11 12  1  0
 12 13  2  0
 12 14  1  0
 20 21  1  0
 21 22  2  0
 22 17  1  0
 11  6  2  0
 25 26  1  0
  1  2  1  0
 14 15  1  0
M  END
> <minimizedAffinity>
-8.33973

> <CNNscore>
0.6053589582

> <CNNaffinity>
4.3941764832

> <CNN_VS>
2.6600542068

> <CNNaffinity_variance>
0.3766853809

$$$$



 26 27  0  0  0  0  0  0  0  0999 V2000
   79.2535    4.0908   29.9783 N   0  0  0  0  0  0  0  0  0  0  0  0
   78.5595    3.3489   29.8876 H   0  0  0  0  0  0  0  0  0  0  0  0
   79.4536    4.7788   28.4711 S   0  0  0  0  0  0  0  0  0  0  0  0
   79.2145    3.7559   27.4776 O   0  0  0  0  0  0  0  0  0  0  0  0
   78.7608    6.0446   28.4443 O   0  0  0  0  0  0  0  0  0  0  0  0
   81.1226    5.2043   28.2755 C   0  0  0  0  0  0  0  0  0  0  0  0
   82.0800    5.1050   29.3358 C   0  0  0  0  0  0  0  0  0  0  0  0
   83.3270    5.4724   28.9076 C   0  0  0  0  0  0  0  0  0  0  0  0
   84.8694    5.4728   30.0351 Br  0  0  0  0  0  0  0  0  0  0  0  0
   83.3709    5.9236   27.2801 S   0  0  0  0  0  0  0  0  0  0  0  0
   81.6821    5.6406   27.0838 C   0  0  0  0  0  0  0  0  0  0  0  0
   81.0335    5.8827   25.8138 C   0  0  0  0  0  0  0  0  0  0  0  0
   81.0616    5.1874   24.8101 O   0  0  0  0  0  0  0  0  0  0  0  0
   80.3159    7.0282   25.8012 O   0  0  0  0  0  0  0  0  0  0  0  0
   80.2859    7.5707   26.5646 H   0  0  0  0  0  0  0  0  0  0  0  0
   78.8171    4.9723   31.0614 C   0  0  0  0  0  0  0  0  0  0  0  0
   81.5448    4.9458   34.4226 C   0  0  0  0  0  0  0  0  0  0  0  0
   81.4046    3.8064   33.6234 C   0  0  0  0  0  0  0  0  0  0  0  0
   80.5300    3.8155   32.5336 C   0  0  0  0  0  0  0  0  0  0  0  0
   79.7897    4.9661   32.2196 C   0  0  0  0  0  0  0  0  0  0  0  0
   79.9274    6.1007   33.0330 C   0  0  0  0  0  0  0  0  0  0  0  0
   80.8017    6.0935   34.1246 C   0  0  0  0  0  0  0  0  0  0  0  0
   83.6333    4.4928   35.5313 O   0  0  0  0  0  0  0  0  0  0  0  0
   82.4835    4.8899   35.5690 C   0  0  0  0  0  0  0  0  0  0  0  0
   81.9367    5.3351   36.7142 O   0  0  0  0  0  0  0  0  0  0  0  0
   81.0497    5.6370   36.7236 H   0  0  0  0  0  0  0  0  0  0  0  0
 23 24  2  0
 24 25  1  0
 24 17  1  0
 17 18  2  0
 18 19  1  0
 19 20  2  0
 20 16  1  0
 16  1  1  0
  1  3  1  0
  3  4  2  0
  3  5  2  0
  3  6  1  0
  6  7  1  0
  7  8  2  0
  8  9  1  0
  8 10  1  0
 10 11  1  0
 11 12  1  0
 12 13  2  0
 12 14  1  0
 20 21  1  0
 21 22  2  0
 22 17  1  0
 11  6  2  0
 25 26  1  0
  1  2  1  0
 14 15  1  0
M  END
> <minimizedAffinity>
-8.00902

> <CNNscore>
0.5864670277

> <CNNaffinity>
5.0602359772

> <CNN_VS>
2.9676616192

> <CNNaffinity_variance>
0.0927690864

$$$$



 26 27  0  0  0  0  0  0  0  0999 V2000
   79.0936    6.2774   30.9886 N   0  0  0  0  0  0  0  0  0  0  0  0
   79.8973    6.8766   31.1768 H   0  0  0  0  0  0  0  0  0  0  0  0
   78.9901    6.0804   29.3347 S   0  0  0  0  0  0  0  0  0  0  0  0
   79.2855    4.6982   29.0298 O   0  0  0  0  0  0  0  0  0  0  0  0
   77.7863    6.7241   28.8662 O   0  0  0  0  0  0  0  0  0  0  0  0
   80.2703    6.9812   28.5901 C   0  0  0  0  0  0  0  0  0  0  0  0
   81.1711    7.8111   29.3321 C   0  0  0  0  0  0  0  0  0  0  0  0
   82.1030    8.3833   28.5090 C   0  0  0  0  0  0  0  0  0  0  0  0
   83.4762    9.5576   29.1296 Br  0  0  0  0  0  0  0  0  0  0  0  0
   81.9226    7.9466   26.8869 S   0  0  0  0  0  0  0  0  0  0  0  0
   80.5564    6.9547   27.2332 C   0  0  0  0  0  0  0  0  0  0  0  0
   79.8616    6.2554   26.1747 C   0  0  0  0  0  0  0  0  0  0  0  0
   79.0484    6.7060   25.3827 O   0  0  0  0  0  0  0  0  0  0  0  0
   80.2030    4.9498   26.0963 O   0  0  0  0  0  0  0  0  0  0  0  0
   80.8257    4.5914   26.6978 H   0  0  0  0  0  0  0  0  0  0  0  0
   79.2475    5.0673   31.7963 C   0  0  0  0  0  0  0  0  0  0  0  0
   83.1922    4.8819   33.5692 C   0  0  0  0  0  0  0  0  0  0  0  0
   82.0606    4.9885   34.3845 C   0  0  0  0  0  0  0  0  0  0  0  0
   80.7859    5.0412   33.8142 C   0  0  0  0  0  0  0  0  0  0  0  0
   80.6217    4.9780   32.4215 C   0  0  0  0  0  0  0  0  0  0  0  0
   81.7624    4.8828   31.6105 C   0  0  0  0  0  0  0  0  0  0  0  0
   83.0391    4.8306   32.1792 C   0  0  0  0  0  0  0  0  0  0  0  0
   85.0169    3.8588   34.7610 O   0  0  0  0  0  0  0  0  0  0  0  0
   84.5245    4.8304   34.2181 C   0  0  0  0  0  0  0  0  0  0  0  0
   85.1807    6.0028   34.1576 O   0  0  0  0  0  0  0  0  0  0  0  0
   84.7852    6.7398   33.7354 H   0  0  0  0  0  0  0  0  0  0  0  0
 23 24  2  0
 24 25  1  0
 24 17  1  0
 17 18  2  0
 18 19  1  0
 19 20  2  0
 20 16  1  0
 16  1  1  0
  1  3  1  0
  3  4  2  0
  3  5  2  0
  3  6  1  0
  6  7  1  0
  7  8  2  0
  8  9  1  0
  8 10  1  0
 10 11  1  0
 11 12  1  0
 12 13  2  0
 12 14  1  0
 20 21  1  0
 21 22  2  0
 22 17  1  0
 11  6  2  0
 25 26  1  0
  1  2  1  0
 14 15  1  0
M  END
> <minimizedAffinity>
-6.14654

> <CNNscore>
0.5587376356

> <CNNaffinity>
4.2424468994

> <CNN_VS>
2.3704147339

> <CNNaffinity_variance>
0.1393920034

$$$$



 26 27  0  0  0  0  0  0  0  0999 V2000
   80.3365    4.9522   31.4396 N   0  0  0  0  0  0  0  0  0  0  0  0
   80.6281    3.9782   31.5210 H   0  0  0  0  0  0  0  0  0  0  0  0
   79.0743    5.0094   30.3493 S   0  0  0  0  0  0  0  0  0  0  0  0
   78.4761    3.6945   30.2887 O   0  0  0  0  0  0  0  0  0  0  0  0
   78.2902    6.1925   30.6105 O   0  0  0  0  0  0  0  0  0  0  0  0
   79.7252    5.2730   28.7645 C   0  0  0  0  0  0  0  0  0  0  0  0
   79.6034    4.3175   27.7048 C   0  0  0  0  0  0  0  0  0  0  0  0
   80.1762    4.7854   26.5532 C   0  0  0  0  0  0  0  0  0  0  0  0
   80.2156    3.7956   24.9195 Br  0  0  0  0  0  0  0  0  0  0  0  0
   80.8441    6.3287   26.7159 S   0  0  0  0  0  0  0  0  0  0  0  0
   80.3836    6.4295   28.3737 C   0  0  0  0  0  0  0  0  0  0  0  0
   80.7121    7.5955   29.1640 C   0  0  0  0  0  0  0  0  0  0  0  0
   81.7412    7.8196   29.7825 O   0  0  0  0  0  0  0  0  0  0  0  0
   79.7245    8.5184   29.1730 O   0  0  0  0  0  0  0  0  0  0  0  0
   78.9299    8.3590   28.7026 H   0  0  0  0  0  0  0  0  0  0  0  0
   80.0739    5.4479   32.7908 C   0  0  0  0  0  0  0  0  0  0  0  0
   83.3450    4.5261   35.4719 C   0  0  0  0  0  0  0  0  0  0  0  0
   82.4452    5.5494   35.7882 C   0  0  0  0  0  0  0  0  0  0  0  0
   81.3844    5.8434   34.9274 C   0  0  0  0  0  0  0  0  0  0  0  0
   81.2005    5.1133   33.7427 C   0  0  0  0  0  0  0  0  0  0  0  0
   82.1140    4.0965   33.4272 C   0  0  0  0  0  0  0  0  0  0  0  0
   83.1768    3.8010   34.2870 C   0  0  0  0  0  0  0  0  0  0  0  0
   84.7927    4.9555   37.3471 O   0  0  0  0  0  0  0  0  0  0  0  0
   84.4560    4.2500   36.4142 C   0  0  0  0  0  0  0  0  0  0  0  0
   85.0971    3.0991   36.1434 O   0  0  0  0  0  0  0  0  0  0  0  0
   84.8233    2.5693   35.4207 H   0  0  0  0  0  0  0  0  0  0  0  0
 23 24  2  0
 24 25  1  0
 24 17  1  0
 17 18  2  0
 18 19  1  0
 19 20  2  0
 20 16  1  0
 16  1  1  0
  1  3  1  0
  3  4  2  0
  3  5  2  0
  3  6  1  0
  6  7  1  0
  7  8  2  0
  8  9  1  0
  8 10  1  0
 10 11  1  0
 11 12  1  0
 12 13  2  0
 12 14  1  0
 20 21  1  0
 21 22  2  0
 22 17  1  0
 11  6  2  0
 25 26  1  0
  1  2  1  0
 14 15  1  0
M  END
> <minimizedAffinity>
-7.39981

> <CNNscore>
0.5426551700

> <CNNaffinity>
4.5422368050

> <CNN_VS>
2.4648683071

> <CNNaffinity_variance>
0.2638264596

$$$$



 26 27  0  0  0  0  0  0  0  0999 V2000
   80.9092    4.7516   31.3910 N   0  0  0  0  0  0  0  0  0  0  0  0
   81.1860    3.9251   30.8612 H   0  0  0  0  0  0  0  0  0  0  0  0
   79.8532    5.6273   30.4408 S   0  0  0  0  0  0  0  0  0  0  0  0
   79.3089    4.7368   29.4402 O   0  0  0  0  0  0  0  0  0  0  0  0
   79.0053    6.4188   31.2995 O   0  0  0  0  0  0  0  0  0  0  0  0
   80.7609    6.7998   29.5430 C   0  0  0  0  0  0  0  0  0  0  0  0
   82.1158    7.1411   29.8568 C   0  0  0  0  0  0  0  0  0  0  0  0
   82.6055    8.0678   28.9766 C   0  0  0  0  0  0  0  0  0  0  0  0
   84.3787    8.7732   29.0687 Br  0  0  0  0  0  0  0  0  0  0  0  0
   81.4879    8.5263   27.7954 S   0  0  0  0  0  0  0  0  0  0  0  0
   80.2772    7.4795   28.4350 C   0  0  0  0  0  0  0  0  0  0  0  0
   78.9619    7.4158   27.8365 C   0  0  0  0  0  0  0  0  0  0  0  0
   78.6776    7.2403   26.6617 O   0  0  0  0  0  0  0  0  0  0  0  0
   77.9670    7.5661   28.7392 O   0  0  0  0  0  0  0  0  0  0  0  0
   78.1714    7.7014   29.6436 H   0  0  0  0  0  0  0  0  0  0  0  0
   80.4163    4.2967   32.6913 C   0  0  0  0  0  0  0  0  0  0  0  0
   83.3708    4.9640   35.7839 C   0  0  0  0  0  0  0  0  0  0  0  0
   82.2082    5.7410   35.7444 C   0  0  0  0  0  0  0  0  0  0  0  0
   81.2500    5.5221   34.7511 C   0  0  0  0  0  0  0  0  0  0  0  0
   81.4338    4.5172   33.7883 C   0  0  0  0  0  0  0  0  0  0  0  0
   82.6078    3.7502   33.8281 C   0  0  0  0  0  0  0  0  0  0  0  0
   83.5684    3.9681   34.8210 C   0  0  0  0  0  0  0  0  0  0  0  0
   84.4966    6.2833   37.4538 O   0  0  0  0  0  0  0  0  0  0  0  0
   84.3602    5.2325   36.8551 C   0  0  0  0  0  0  0  0  0  0  0  0
   85.1367    4.1687   37.1277 O   0  0  0  0  0  0  0  0  0  0  0  0
   85.0167    3.3680   36.6561 H   0  0  0  0  0  0  0  0  0  0  0  0
 23 24  2  0
 24 25  1  0
 24 17  1  0
 17 18  2  0
 18 19  1  0
 19 20  2  0
 20 16  1  0
 16  1  1  0
  1  3  1  0
  3  4  2  0
  3  5  2  0
  3  6  1  0
  6  7  1  0
  7  8  2  0
  8  9  1  0
  8 10  1  0
 10 11  1  0
 11 12  1  0
 12 13  2  0
 12 14  1  0
 20 21  1  0
 21 22  2  0
 22 17  1  0
 11  6  2  0
 25 26  1  0
  1  2  1  0
 14 15  1  0
M  END
> <minimizedAffinity>
-6.41602

> <CNNscore>
0.5044452548

> <CNNaffinity>
4.4425253868

> <CNN_VS>
2.2410109043

> <CNNaffinity_variance>
0.0834973454

$$$$



 26 27  0  0  0  0  0  0  0  0999 V2000
   81.5797    6.3814   29.9176 N   0  0  0  0  0  0  0  0  0  0  0  0
   81.8355    5.6936   29.2092 H   0  0  0  0  0  0  0  0  0  0  0  0
   82.8700    7.4250   30.0937 S   0  0  0  0  0  0  0  0  0  0  0  0
   82.5568    8.3467   31.1628 O   0  0  0  0  0  0  0  0  0  0  0  0
   84.0917    6.6567   30.0828 O   0  0  0  0  0  0  0  0  0  0  0  0
   82.9780    8.4140   28.6742 C   0  0  0  0  0  0  0  0  0  0  0  0
   82.8107    9.8360   28.7023 C   0  0  0  0  0  0  0  0  0  0  0  0
   82.9750   10.3747   27.4549 C   0  0  0  0  0  0  0  0  0  0  0  0
   82.8274   12.2438   27.0877 Br  0  0  0  0  0  0  0  0  0  0  0  0
   83.3254    9.2239   26.2687 S   0  0  0  0  0  0  0  0  0  0  0  0
   83.2655    7.9306   27.4064 C   0  0  0  0  0  0  0  0  0  0  0  0
   83.4752    6.5630   26.9847 C   0  0  0  0  0  0  0  0  0  0  0  0
   82.6706    5.8034   26.4676 O   0  0  0  0  0  0  0  0  0  0  0  0
   84.7374    6.1332   27.2070 O   0  0  0  0  0  0  0  0  0  0  0  0
   85.3644    6.7059   27.6030 H   0  0  0  0  0  0  0  0  0  0  0  0
   80.2982    6.9658   29.5217 C   0  0  0  0  0  0  0  0  0  0  0  0
   78.7720    5.2649   25.8453 C   0  0  0  0  0  0  0  0  0  0  0  0
   78.7880    6.6523   26.0233 C   0  0  0  0  0  0  0  0  0  0  0  0
   79.2870    7.2034   27.2065 C   0  0  0  0  0  0  0  0  0  0  0  0
   79.7869    6.3776   28.2256 C   0  0  0  0  0  0  0  0  0  0  0  0
   79.7566    4.9869   28.0439 C   0  0  0  0  0  0  0  0  0  0  0  0
   79.2570    4.4332   26.8608 C   0  0  0  0  0  0  0  0  0  0  0  0
   78.7903    4.7525   23.4929 O   0  0  0  0  0  0  0  0  0  0  0  0
   78.2323    4.7249   24.5742 C   0  0  0  0  0  0  0  0  0  0  0  0
   77.0138    4.1737   24.7163 O   0  0  0  0  0  0  0  0  0  0  0  0
   76.6001    4.1619   25.5569 H   0  0  0  0  0  0  0  0  0  0  0  0
 23 24  2  0
 24 25  1  0
 24 17  1  0
 17 18  2  0
 18 19  1  0
 19 20  2  0
 20 16  1  0
 16  1  1  0
  1  3  1  0
  3  4  2  0
  3  5  2  0
  3  6  1  0
  6  7  1  0
  7  8  2  0
  8  9  1  0
  8 10  1  0
 10 11  1  0
 11 12  1  0
 12 13  2  0
 12 14  1  0
 20 21  1  0
 21 22  2  0
 22 17  1  0
 11  6  2  0
 25 26  1  0
  1  2  1  0
 14 15  1  0
M  END
> <minimizedAffinity>
-6.16346

> <CNNscore>
0.4929761589

> <CNNaffinity>
4.5734272003

> <CNN_VS>
2.2545905113

> <CNNaffinity_variance>
0.0823571086

$$$$
