


 21 24  0  0  0  0  0  0  0  0999 V2000
  104.3028   23.6907   34.5887 O   0  0  0  0  0  0  0  0  0  0  0  0
  103.3766   22.9868   35.3865 C   0  0  0  0  0  0  0  0  0  0  0  0
  102.6160   24.0053   36.2279 C   0  0  0  0  0  0  0  0  0  0  0  0
  101.8017   25.0541   35.8312 C   0  0  0  0  0  0  0  0  0  0  0  0
  101.1899   25.8276   36.8261 C   0  0  0  0  0  0  0  0  0  0  0  0
  101.3911   25.5498   38.1941 C   0  0  0  0  0  0  0  0  0  0  0  0
  102.2135   24.4966   38.5972 C   0  0  0  0  0  0  0  0  0  0  0  0
  102.8128   23.7615   37.5985 C   0  0  0  0  0  0  0  0  0  0  0  0
  103.6918   22.6141   37.6561 C   0  0  0  0  0  0  0  0  0  0  0  0
  104.0060   21.8426   38.6527 N   0  0  0  0  0  0  0  0  0  0  0  0
  104.8348   20.7867   37.9620 C   0  0  0  0  0  0  0  0  0  0  0  0
  104.5911   20.9413   36.4361 C   0  0  0  0  0  0  0  0  0  0  0  0
  104.1510   22.3065   36.4039 N   0  0  0  0  0  0  0  0  0  0  0  0
  103.8301   24.1663   33.8878 H   0  0  0  0  0  0  0  0  0  0  0  0
  102.4881   22.0660   34.5583 C   0  0  0  0  0  0  0  0  0  0  0  0
  102.7216   21.8665   33.1817 C   0  0  0  0  0  0  0  0  0  0  0  0
  101.8959   21.0324   32.4218 C   0  0  0  0  0  0  0  0  0  0  0  0
  100.8211   20.3868   33.0251 C   0  0  0  0  0  0  0  0  0  0  0  0
   99.8038   19.3618   32.0908 Cl  0  0  0  0  0  0  0  0  0  0  0  0
  100.5637   20.5696   34.3802 C   0  0  0  0  0  0  0  0  0  0  0  0
  101.3896   21.4043   35.1395 C   0  0  0  0  0  0  0  0  0  0  0  0
  2  1  1  0
  2 15  1  0
 15 16  2  0
 16 17  1  0
 17 18  2  0
 18 19  1  0
 18 20  1  0
 20 21  2  0
  2  3  1  0
  3  4  2  0
  4  5  1  0
  5  6  2  0
  6  7  1  0
  7  8  2  0
  8  9  1  0
  9 10  2  0
 10 11  1  0
 11 12  1  0
 12 13  1  0
 13  2  1  0
 21 15  1  0
  8  3  1  0
 13  9  1  0
  1 14  1  0
M  END
> <minimizedAffinity>
-8.55383

> <CNNscore>
0.9251065850

> <CNNaffinity>
6.3682193756

> <CNN_VS>
5.8912816048

> <CNNaffinity_variance>
0.0373619646

$$$$



 21 24  0  0  0  0  0  0  0  0999 V2000
  103.1309   32.3406   36.1017 O   0  0  0  0  0  0  0  0  0  0  0  0
  103.2204   31.8160   34.7953 C   0  0  0  0  0  0  0  0  0  0  0  0
  104.6802   31.8874   34.3623 C   0  0  0  0  0  0  0  0  0  0  0  0
  105.7999   31.2833   34.9116 C   0  0  0  0  0  0  0  0  0  0  0  0
  107.0363   31.4933   34.2874 C   0  0  0  0  0  0  0  0  0  0  0  0
  107.1441   32.2935   33.1310 C   0  0  0  0  0  0  0  0  0  0  0  0
  106.0190   32.9064   32.5773 C   0  0  0  0  0  0  0  0  0  0  0  0
  104.8190   32.6940   33.2191 C   0  0  0  0  0  0  0  0  0  0  0  0
  103.4809   33.1509   32.9139 C   0  0  0  0  0  0  0  0  0  0  0  0
  103.0094   33.7262   31.8490 N   0  0  0  0  0  0  0  0  0  0  0  0
  101.5347   33.7789   32.1674 C   0  0  0  0  0  0  0  0  0  0  0  0
  101.2942   32.8311   33.3738 C   0  0  0  0  0  0  0  0  0  0  0  0
  102.6207   32.8017   33.9197 N   0  0  0  0  0  0  0  0  0  0  0  0
  103.5218   31.7130   36.7296 H   0  0  0  0  0  0  0  0  0  0  0  0
  102.6002   30.4277   34.6899 C   0  0  0  0  0  0  0  0  0  0  0  0
  102.6552   29.6902   33.4888 C   0  0  0  0  0  0  0  0  0  0  0  0
  102.0726   28.4229   33.3914 C   0  0  0  0  0  0  0  0  0  0  0  0
  101.4225   27.8736   34.4922 C   0  0  0  0  0  0  0  0  0  0  0  0
  100.7041   26.3154   34.3728 Cl  0  0  0  0  0  0  0  0  0  0  0  0
  101.3481   28.5810   35.6881 C   0  0  0  0  0  0  0  0  0  0  0  0
  101.9305   29.8486   35.7846 C   0  0  0  0  0  0  0  0  0  0  0  0
  2  1  1  0
  2 15  1  0
 15 16  2  0
 16 17  1  0
 17 18  2  0
 18 19  1  0
 18 20  1  0
 20 21  2  0
  2  3  1  0
  3  4  2  0
  4  5  1  0
  5  6  2  0
  6  7  1  0
  7  8  2  0
  8  9  1  0
  9 10  2  0
 10 11  1  0
 11 12  1  0
 12 13  1  0
 13  2  1  0
 21 15  1  0
  8  3  1  0
 13  9  1  0
  1 14  1  0
M  END
> <minimizedAffinity>
-6.78183

> <CNNscore>
0.7183420062

> <CNNaffinity>
4.9392161369

> <CNN_VS>
3.5480463505

> <CNNaffinity_variance>
0.0747539997

$$$$



 21 24  0  0  0  0  0  0  0  0999 V2000
  102.7894   32.5435   35.5974 O   0  0  0  0  0  0  0  0  0  0  0  0
  103.0747   31.8276   34.4159 C   0  0  0  0  0  0  0  0  0  0  0  0
  104.5847   31.8517   34.2083 C   0  0  0  0  0  0  0  0  0  0  0  0
  105.5994   31.3532   35.0097 C   0  0  0  0  0  0  0  0  0  0  0  0
  106.9197   31.4824   34.5598 C   0  0  0  0  0  0  0  0  0  0  0  0
  107.2138   32.0988   33.3258 C   0  0  0  0  0  0  0  0  0  0  0  0
  106.1945   32.6053   32.5178 C   0  0  0  0  0  0  0  0  0  0  0  0
  104.9074   32.4769   32.9910 C   0  0  0  0  0  0  0  0  0  0  0  0
  103.6376   32.8641   32.4164 C   0  0  0  0  0  0  0  0  0  0  0  0
  103.3429   33.2645   31.2164 N   0  0  0  0  0  0  0  0  0  0  0  0
  101.8373   33.3453   31.2909 C   0  0  0  0  0  0  0  0  0  0  0  0
  101.4029   32.5889   32.5757 C   0  0  0  0  0  0  0  0  0  0  0  0
  102.6284   32.6605   33.3183 N   0  0  0  0  0  0  0  0  0  0  0  0
  103.0717   32.0240   36.3664 H   0  0  0  0  0  0  0  0  0  0  0  0
  102.4638   30.4312   34.4285 C   0  0  0  0  0  0  0  0  0  0  0  0
  101.9589   29.8634   35.6169 C   0  0  0  0  0  0  0  0  0  0  0  0
  101.4123   28.5766   35.6278 C   0  0  0  0  0  0  0  0  0  0  0  0
  101.3645   27.8350   34.4514 C   0  0  0  0  0  0  0  0  0  0  0  0
  100.6938   26.2512   34.4642 Cl  0  0  0  0  0  0  0  0  0  0  0  0
  101.8603   28.3678   33.2655 C   0  0  0  0  0  0  0  0  0  0  0  0
  102.4073   29.6547   33.2555 C   0  0  0  0  0  0  0  0  0  0  0  0
  2  1  1  0
  2 15  1  0
 15 16  2  0
 16 17  1  0
 17 18  2  0
 18 19  1  0
 18 20  1  0
 20 21  2  0
  2  3  1  0
  3  4  2  0
  4  5  1  0
  5  6  2  0
  6  7  1  0
  7  8  2  0
  8  9  1  0
  9 10  2  0
 10 11  1  0
 11 12  1  0
 12 13  1  0
 13  2  1  0
 21 15  1  0
  8  3  1  0
 13  9  1  0
  1 14  1  0
M  END
> <minimizedAffinity>
-7.01302

> <CNNscore>
0.7017226219

> <CNNaffinity>
4.8330960274

> <CNN_VS>
3.3914928436

> <CNNaffinity_variance>
0.1846873015

$$$$



 21 24  0  0  0  0  0  0  0  0999 V2000
  102.8545   31.8823   37.6222 O   0  0  0  0  0  0  0  0  0  0  0  0
  103.0484   31.6404   36.2460 C   0  0  0  0  0  0  0  0  0  0  0  0
  104.5280   31.8429   35.9401 C   0  0  0  0  0  0  0  0  0  0  0  0
  105.6364   31.1727   36.4325 C   0  0  0  0  0  0  0  0  0  0  0  0
  106.8991   31.5434   35.9524 C   0  0  0  0  0  0  0  0  0  0  0  0
  107.0440   32.5670   34.9930 C   0  0  0  0  0  0  0  0  0  0  0  0
  105.9301   33.2467   34.4977 C   0  0  0  0  0  0  0  0  0  0  0  0
  104.7027   32.8710   34.9972 C   0  0  0  0  0  0  0  0  0  0  0  0
  103.3676   33.3406   34.6979 C   0  0  0  0  0  0  0  0  0  0  0  0
  102.9390   34.1081   33.7416 N   0  0  0  0  0  0  0  0  0  0  0  0
  101.4463   34.0500   33.9597 C   0  0  0  0  0  0  0  0  0  0  0  0
  101.1725   32.8677   34.9286 C   0  0  0  0  0  0  0  0  0  0  0  0
  102.4622   32.7665   35.5490 N   0  0  0  0  0  0  0  0  0  0  0  0
  103.2324   31.1511   38.1354 H   0  0  0  0  0  0  0  0  0  0  0  0
  102.4973   30.2854   35.8177 C   0  0  0  0  0  0  0  0  0  0  0  0
  101.6713   29.5270   36.6734 C   0  0  0  0  0  0  0  0  0  0  0  0
  101.1792   28.2779   36.2829 C   0  0  0  0  0  0  0  0  0  0  0  0
  101.5076   27.7650   35.0319 C   0  0  0  0  0  0  0  0  0  0  0  0
  100.9041   26.2277   34.5513 Cl  0  0  0  0  0  0  0  0  0  0  0  0
  102.3250   28.4888   34.1694 C   0  0  0  0  0  0  0  0  0  0  0  0
  102.8172   29.7378   34.5608 C   0  0  0  0  0  0  0  0  0  0  0  0
  2  1  1  0
  2 15  1  0
 15 16  2  0
 16 17  1  0
 17 18  2  0
 18 19  1  0
 18 20  1  0
 20 21  2  0
  2  3  1  0
  3  4  2  0
  4  5  1  0
  5  6  2  0
  6  7  1  0
  7  8  2  0
  8  9  1  0
  9 10  2  0
 10 11  1  0
 11 12  1  0
 12 13  1  0
 13  2  1  0
 21 15  1  0
  8  3  1  0
 13  9  1  0
  1 14  1  0
M  END
> <minimizedAffinity>
-6.47217

> <CNNscore>
0.6251741648

> <CNNaffinity>
5.0806822777

> <CNN_VS>
3.1763112545

> <CNNaffinity_variance>
0.2636049092

$$$$



 21 24  0  0  0  0  0  0  0  0999 V2000
  102.4645   28.9998   35.9517 O   0  0  0  0  0  0  0  0  0  0  0  0
  102.0659   28.1725   37.0226 C   0  0  0  0  0  0  0  0  0  0  0  0
  101.4142   26.9270   36.4332 C   0  0  0  0  0  0  0  0  0  0  0  0
  101.9466   25.9556   35.6004 C   0  0  0  0  0  0  0  0  0  0  0  0
  101.1259   24.8831   35.2284 C   0  0  0  0  0  0  0  0  0  0  0  0
   99.7958   24.7877   35.6875 C   0  0  0  0  0  0  0  0  0  0  0  0
   99.2552   25.7661   36.5233 C   0  0  0  0  0  0  0  0  0  0  0  0
  100.0798   26.8160   36.8620 C   0  0  0  0  0  0  0  0  0  0  0  0
   99.8568   27.9691   37.7065 C   0  0  0  0  0  0  0  0  0  0  0  0
   98.8882   28.2358   38.5298 N   0  0  0  0  0  0  0  0  0  0  0  0
   99.3797   29.5149   39.1633 C   0  0  0  0  0  0  0  0  0  0  0  0
  100.8838   29.6539   38.8029 C   0  0  0  0  0  0  0  0  0  0  0  0
  100.9252   28.8218   37.6348 N   0  0  0  0  0  0  0  0  0  0  0  0
  103.2308   28.6055   35.5064 H   0  0  0  0  0  0  0  0  0  0  0  0
  103.2126   27.8868   37.9853 C   0  0  0  0  0  0  0  0  0  0  0  0
  104.5355   28.2719   37.6835 C   0  0  0  0  0  0  0  0  0  0  0  0
  105.5872   27.9954   38.5623 C   0  0  0  0  0  0  0  0  0  0  0  0
  105.3341   27.3262   39.7558 C   0  0  0  0  0  0  0  0  0  0  0  0
  106.6275   26.9841   40.8367 Cl  0  0  0  0  0  0  0  0  0  0  0  0
  104.0396   26.9296   40.0768 C   0  0  0  0  0  0  0  0  0  0  0  0
  102.9883   27.2060   39.1971 C   0  0  0  0  0  0  0  0  0  0  0  0
  2  1  1  0
  2 15  1  0
 15 16  2  0
 16 17  1  0
 17 18  2  0
 18 19  1  0
 18 20  1  0
 20 21  2  0
  2  3  1  0
  3  4  2  0
  4  5  1  0
  5  6  2  0
  6  7  1  0
  7  8  2  0
  8  9  1  0
  9 10  2  0
 10 11  1  0
 11 12  1  0
 12 13  1  0
 13  2  1  0
 21 15  1  0
  8  3  1  0
 13  9  1  0
  1 14  1  0
M  END
> <minimizedAffinity>
-5.85084

> <CNNscore>
0.5712279677

> <CNNaffinity>
4.9552273750

> <CNN_VS>
2.8305644989

> <CNNaffinity_variance>
0.0304311756

$$$$



 21 24  0  0  0  0  0  0  0  0999 V2000
  102.7838   31.8199   37.5092 O   0  0  0  0  0  0  0  0  0  0  0  0
  103.0737   30.8121   36.5657 C   0  0  0  0  0  0  0  0  0  0  0  0
  104.4910   31.0445   36.0546 C   0  0  0  0  0  0  0  0  0  0  0  0
  105.6941   31.0449   36.7424 C   0  0  0  0  0  0  0  0  0  0  0  0
  106.8712   31.2568   36.0131 C   0  0  0  0  0  0  0  0  0  0  0  0
  106.8392   31.4615   34.6180 C   0  0  0  0  0  0  0  0  0  0  0  0
  105.6289   31.4654   33.9228 C   0  0  0  0  0  0  0  0  0  0  0  0
  104.4866   31.2684   34.6666 C   0  0  0  0  0  0  0  0  0  0  0  0
  103.0957   31.1949   34.2761 C   0  0  0  0  0  0  0  0  0  0  0  0
  102.5549   31.1026   33.0987 N   0  0  0  0  0  0  0  0  0  0  0  0
  101.0986   30.9227   33.4533 C   0  0  0  0  0  0  0  0  0  0  0  0
  101.0366   30.5799   34.9666 C   0  0  0  0  0  0  0  0  0  0  0  0
  102.2960   31.1253   35.3847 N   0  0  0  0  0  0  0  0  0  0  0  0
  103.2840   31.6539   38.3236 H   0  0  0  0  0  0  0  0  0  0  0  0
  102.8273   29.4151   37.1232 C   0  0  0  0  0  0  0  0  0  0  0  0
  103.4623   28.2834   36.5704 C   0  0  0  0  0  0  0  0  0  0  0  0
  103.2228   27.0016   37.0750 C   0  0  0  0  0  0  0  0  0  0  0  0
  102.3419   26.8298   38.1383 C   0  0  0  0  0  0  0  0  0  0  0  0
  102.0454   25.2533   38.7586 Cl  0  0  0  0  0  0  0  0  0  0  0  0
  101.6972   27.9277   38.6996 C   0  0  0  0  0  0  0  0  0  0  0  0
  101.9368   29.2094   38.1941 C   0  0  0  0  0  0  0  0  0  0  0  0
  2  1  1  0
  2 15  1  0
 15 16  2  0
 16 17  1  0
 17 18  2  0
 18 19  1  0
 18 20  1  0
 20 21  2  0
  2  3  1  0
  3  4  2  0
  4  5  1  0
  5  6  2  0
  6  7  1  0
  7  8  2  0
  8  9  1  0
  9 10  2  0
 10 11  1  0
 11 12  1  0
 12 13  1  0
 13  2  1  0
 21 15  1  0
  8  3  1  0
 13  9  1  0
  1 14  1  0
M  END
> <minimizedAffinity>
-6.80068

> <CNNscore>
0.4964861870

> <CNNaffinity>
5.0326404572

> <CNN_VS>
2.4986364841

> <CNNaffinity_variance>
0.0018235192

$$$$



 21 24  0  0  0  0  0  0  0  0999 V2000
  103.2174   28.9163   32.2538 O   0  0  0  0  0  0  0  0  0  0  0  0
  103.1655   29.8261   33.3306 C   0  0  0  0  0  0  0  0  0  0  0  0
  103.0451   29.0193   34.6183 C   0  0  0  0  0  0  0  0  0  0  0  0
  103.9125   28.0884   35.1675 C   0  0  0  0  0  0  0  0  0  0  0  0
  103.5690   27.5109   36.3966 C   0  0  0  0  0  0  0  0  0  0  0  0
  102.3770   27.8648   37.0623 C   0  0  0  0  0  0  0  0  0  0  0  0
  101.4993   28.7992   36.5102 C   0  0  0  0  0  0  0  0  0  0  0  0
  101.8553   29.3408   35.2949 C   0  0  0  0  0  0  0  0  0  0  0  0
  101.2034   30.3297   34.4645 C   0  0  0  0  0  0  0  0  0  0  0  0
  100.2048   31.1197   34.7214 N   0  0  0  0  0  0  0  0  0  0  0  0
  100.1644   31.9647   33.4711 C   0  0  0  0  0  0  0  0  0  0  0  0
  101.4999   31.7256   32.7155 C   0  0  0  0  0  0  0  0  0  0  0  0
  101.8612   30.4528   33.2705 N   0  0  0  0  0  0  0  0  0  0  0  0
  104.0775   28.4678   32.2506 H   0  0  0  0  0  0  0  0  0  0  0  0
  104.3314   30.8076   33.3100 C   0  0  0  0  0  0  0  0  0  0  0  0
  104.6791   31.5559   34.4540 C   0  0  0  0  0  0  0  0  0  0  0  0
  105.7401   32.4661   34.4275 C   0  0  0  0  0  0  0  0  0  0  0  0
  106.4689   32.6456   33.2558 C   0  0  0  0  0  0  0  0  0  0  0  0
  107.7732   33.7662   33.2217 Cl  0  0  0  0  0  0  0  0  0  0  0  0
  106.1446   31.9248   32.1106 C   0  0  0  0  0  0  0  0  0  0  0  0
  105.0830   31.0151   32.1377 C   0  0  0  0  0  0  0  0  0  0  0  0
  2  1  1  0
  2 15  1  0
 15 16  2  0
 16 17  1  0
 17 18  2  0
 18 19  1  0
 18 20  1  0
 20 21  2  0
  2  3  1  0
  3  4  2  0
  4  5  1  0
  5  6  2  0
  6  7  1  0
  7  8  2  0
  8  9  1  0
  9 10  2  0
 10 11  1  0
 11 12  1  0
 12 13  1  0
 13  2  1  0
 21 15  1  0
  8  3  1  0
 13  9  1  0
  1 14  1  0
M  END
> <minimizedAffinity>
-6.29858

> <CNNscore>
0.4719668627

> <CNNaffinity>
4.8627362251

> <CNN_VS>
2.2950503826

> <CNNaffinity_variance>
0.1346803159

$$$$



 21 24  0  0  0  0  0  0  0  0999 V2000
  103.7577   32.1341   36.3424 O   0  0  0  0  0  0  0  0  0  0  0  0
  103.3718   31.2786   35.2892 C   0  0  0  0  0  0  0  0  0  0  0  0
  104.3476   31.4870   34.1368 C   0  0  0  0  0  0  0  0  0  0  0  0
  105.7174   31.2837   34.0853 C   0  0  0  0  0  0  0  0  0  0  0  0
  106.3755   31.5261   32.8726 C   0  0  0  0  0  0  0  0  0  0  0  0
  105.6688   31.9618   31.7325 C   0  0  0  0  0  0  0  0  0  0  0  0
  104.2897   32.1710   31.7818 C   0  0  0  0  0  0  0  0  0  0  0  0
  103.6708   31.9382   32.9901 C   0  0  0  0  0  0  0  0  0  0  0  0
  102.2821   32.0341   33.3837 C   0  0  0  0  0  0  0  0  0  0  0  0
  101.2105   32.1793   32.6642 N   0  0  0  0  0  0  0  0  0  0  0  0
  100.1298   32.0514   33.7105 C   0  0  0  0  0  0  0  0  0  0  0  0
  100.7963   31.4672   34.9857 C   0  0  0  0  0  0  0  0  0  0  0  0
  102.1584   31.8407   34.7331 N   0  0  0  0  0  0  0  0  0  0  0  0
  104.5713   31.7983   36.7501 H   0  0  0  0  0  0  0  0  0  0  0  0
  103.2372   29.8305   35.7454 C   0  0  0  0  0  0  0  0  0  0  0  0
  103.1638   29.4976   37.1141 C   0  0  0  0  0  0  0  0  0  0  0  0
  103.0549   28.1670   37.5296 C   0  0  0  0  0  0  0  0  0  0  0  0
  103.0209   27.1472   36.5836 C   0  0  0  0  0  0  0  0  0  0  0  0
  102.8886   25.5100   37.0938 Cl  0  0  0  0  0  0  0  0  0  0  0  0
  103.0970   27.4460   35.2268 C   0  0  0  0  0  0  0  0  0  0  0  0
  103.2065   28.7770   34.8120 C   0  0  0  0  0  0  0  0  0  0  0  0
  2  1  1  0
  2 15  1  0
 15 16  2  0
 16 17  1  0
 17 18  2  0
 18 19  1  0
 18 20  1  0
 20 21  2  0
  2  3  1  0
  3  4  2  0
  4  5  1  0
  5  6  2  0
  6  7  1  0
  7  8  2  0
  8  9  1  0
  9 10  2  0
 10 11  1  0
 11 12  1  0
 12 13  1  0
 13  2  1  0
 21 15  1  0
  8  3  1  0
 13  9  1  0
  1 14  1  0
M  END
> <minimizedAffinity>
-6.32635

> <CNNscore>
0.4676504433

> <CNNaffinity>
4.9220232964

> <CNN_VS>
2.3017864227

> <CNNaffinity_variance>
0.0275042001

$$$$



 21 24  0  0  0  0  0  0  0  0999 V2000
  105.2021   30.3447   31.6786 O   0  0  0  0  0  0  0  0  0  0  0  0
  104.4300   31.0512   32.6244 C   0  0  0  0  0  0  0  0  0  0  0  0
  105.3875   31.7067   33.6130 C   0  0  0  0  0  0  0  0  0  0  0  0
  106.3772   32.6523   33.3968 C   0  0  0  0  0  0  0  0  0  0  0  0
  107.1003   33.1158   34.5034 C   0  0  0  0  0  0  0  0  0  0  0  0
  106.8312   32.6394   35.8033 C   0  0  0  0  0  0  0  0  0  0  0  0
  105.8376   31.6843   36.0242 C   0  0  0  0  0  0  0  0  0  0  0  0
  105.1519   31.2364   34.9168 C   0  0  0  0  0  0  0  0  0  0  0  0
  104.0701   30.2850   34.7861 C   0  0  0  0  0  0  0  0  0  0  0  0
  103.3184   29.7343   35.6909 N   0  0  0  0  0  0  0  0  0  0  0  0
  102.3277   28.9808   34.8367 C   0  0  0  0  0  0  0  0  0  0  0  0
  102.4716   29.5204   33.3876 C   0  0  0  0  0  0  0  0  0  0  0  0
  103.8020   30.0521   33.4641 N   0  0  0  0  0  0  0  0  0  0  0  0
  105.6458   30.9739   31.0886 H   0  0  0  0  0  0  0  0  0  0  0  0
  103.4519   32.0150   31.9628 C   0  0  0  0  0  0  0  0  0  0  0  0
  102.1796   32.2636   32.5187 C   0  0  0  0  0  0  0  0  0  0  0  0
  101.2793   33.1373   31.9014 C   0  0  0  0  0  0  0  0  0  0  0  0
  101.6348   33.7741   30.7165 C   0  0  0  0  0  0  0  0  0  0  0  0
  100.5274   34.8478   29.9555 Cl  0  0  0  0  0  0  0  0  0  0  0  0
  102.8813   33.5434   30.1427 C   0  0  0  0  0  0  0  0  0  0  0  0
  103.7810   32.6690   30.7603 C   0  0  0  0  0  0  0  0  0  0  0  0
  2  1  1  0
  2 15  1  0
 15 16  2  0
 16 17  1  0
 17 18  2  0
 18 19  1  0
 18 20  1  0
 20 21  2  0
  2  3  1  0
  3  4  2  0
  4  5  1  0
  5  6  2  0
  6  7  1  0
  7  8  2  0
  8  9  1  0
  9 10  2  0
 10 11  1  0
 11 12  1  0
 12 13  1  0
 13  2  1  0
 21 15  1  0
  8  3  1  0
 13  9  1  0
  1 14  1  0
M  END
> <minimizedAffinity>
-7.07376

> <CNNscore>
0.4317629635

> <CNNaffinity>
4.4933686256

> <CNN_VS>
1.9400701523

> <CNNaffinity_variance>
0.4234396517

$$$$
