


 19 20  0  0  0  0  0  0  0  0999 V2000
   33.0849  -13.2354    2.9536 N   0  0  0  0  0  0  0  0  0  0  0  0
   31.7729  -13.3138    3.3934 C   0  0  0  0  0  0  0  0  0  0  0  0
   30.9348  -12.4237    3.4129 O   0  0  0  0  0  0  0  0  0  0  0  0
   33.6126  -14.0643    3.0161 H   0  0  0  0  0  0  0  0  0  0  0  0
   31.3812  -14.6430    3.8887 C   0  0  0  0  0  0  0  0  0  0  0  0
   31.0592  -15.6588    2.9818 C   0  0  0  0  0  0  0  0  0  0  0  0
   31.0256  -15.3977    1.2749 Cl  0  0  0  0  0  0  0  0  0  0  0  0
   30.7188  -16.9305    3.4528 C   0  0  0  0  0  0  0  0  0  0  0  0
   30.7016  -17.1895    4.8237 C   0  0  0  0  0  0  0  0  0  0  0  0
   31.0201  -16.1758    5.7279 C   0  0  0  0  0  0  0  0  0  0  0  0
   31.3614  -14.9018    5.2638 C   0  0  0  0  0  0  0  0  0  0  0  0
   31.7235  -13.6879    6.4377 Cl  0  0  0  0  0  0  0  0  0  0  0  0
   33.7020   -8.5770    2.2550 O   0  0  0  0  0  0  0  0  0  0  0  0
   34.1044   -9.7144    2.0431 C   0  0  0  0  0  0  0  0  0  0  0  0
   33.3609  -10.8598    2.6201 C   0  0  0  0  0  0  0  0  0  0  0  0
   33.7449  -12.1294    2.4356 C   0  0  0  0  0  0  0  0  0  0  0  0
   34.9621  -12.4409    1.6235 C   0  0  0  0  0  0  0  0  0  0  0  0
   35.6133  -11.1960    1.0952 C   0  0  0  0  0  0  0  0  0  0  0  0
   35.2189   -9.9829    1.2909 N   0  0  0  0  0  0  0  0  0  0  0  0
 13 14  2  0
 14 15  1  0
 15 16  2  0
 16  1  1  0
  1  2  1  0
  2  3  2  0
  2  5  1  0
  5  6  2  0
  6  7  1  0
  6  8  1  0
  8  9  2  0
  9 10  1  0
 10 11  2  0
 11 12  1  0
 16 17  1  0
 17 18  1  0
 18 19  2  0
 19 14  1  0
 11  5  1  0
  1  4  1  0
M  END
> <minimizedAffinity>
-7.31301

> <CNNscore>
0.9680087566

> <CNNaffinity>
6.6634006500

> <CNN_VS>
6.4502301216

> <CNNaffinity_variance>
0.1098159924

$$$$



 19 20  0  0  0  0  0  0  0  0999 V2000
   33.0447  -13.1851    3.0316 N   0  0  0  0  0  0  0  0  0  0  0  0
   31.7140  -13.2968    3.4026 C   0  0  0  0  0  0  0  0  0  0  0  0
   30.8443  -12.4397    3.3401 O   0  0  0  0  0  0  0  0  0  0  0  0
   33.5979  -13.9899    3.1566 H   0  0  0  0  0  0  0  0  0  0  0  0
   31.3440  -14.6198    3.9302 C   0  0  0  0  0  0  0  0  0  0  0  0
   31.3080  -14.8350    5.3123 C   0  0  0  0  0  0  0  0  0  0  0  0
   31.7605  -13.6167    6.4497 Cl  0  0  0  0  0  0  0  0  0  0  0  0
   30.9247  -16.0831    5.8129 C   0  0  0  0  0  0  0  0  0  0  0  0
   30.5764  -17.1128    4.9383 C   0  0  0  0  0  0  0  0  0  0  0  0
   30.6150  -16.8989    3.5601 C   0  0  0  0  0  0  0  0  0  0  0  0
   30.9973  -15.6533    3.0528 C   0  0  0  0  0  0  0  0  0  0  0  0
   31.0442  -15.4634    1.3368 Cl  0  0  0  0  0  0  0  0  0  0  0  0
   33.5982   -8.5264    2.2833 O   0  0  0  0  0  0  0  0  0  0  0  0
   34.0185   -9.6602    2.0870 C   0  0  0  0  0  0  0  0  0  0  0  0
   33.2881  -10.8097    2.6725 C   0  0  0  0  0  0  0  0  0  0  0  0
   33.6918  -12.0756    2.5050 C   0  0  0  0  0  0  0  0  0  0  0  0
   34.9186  -12.3784    1.7041 C   0  0  0  0  0  0  0  0  0  0  0  0
   35.5550  -11.1302    1.1656 C   0  0  0  0  0  0  0  0  0  0  0  0
   35.1416   -9.9208    1.3449 N   0  0  0  0  0  0  0  0  0  0  0  0
 13 14  2  0
 14 15  1  0
 15 16  2  0
 16  1  1  0
  1  2  1  0
  2  3  2  0
  2  5  1  0
  5  6  2  0
  6  7  1  0
  6  8  1  0
  8  9  2  0
  9 10  1  0
 10 11  2  0
 11 12  1  0
 16 17  1  0
 17 18  1  0
 18 19  2  0
 19 14  1  0
 11  5  1  0
  1  4  1  0
M  END
> <minimizedAffinity>
-7.22005

> <CNNscore>
0.9646772146

> <CNNaffinity>
6.7016243935

> <CNN_VS>
6.4649043083

> <CNNaffinity_variance>
0.1523983926

$$$$



 19 20  0  0  0  0  0  0  0  0999 V2000
   32.2754  -12.4265    3.4503 N   0  0  0  0  0  0  0  0  0  0  0  0
   31.0701  -13.0868    3.6293 C   0  0  0  0  0  0  0  0  0  0  0  0
   29.9419  -12.6234    3.5434 O   0  0  0  0  0  0  0  0  0  0  0  0
   33.0880  -12.9710    3.5616 H   0  0  0  0  0  0  0  0  0  0  0  0
   31.2078  -14.5138    3.9617 C   0  0  0  0  0  0  0  0  0  0  0  0
   31.0978  -15.4788    2.9545 C   0  0  0  0  0  0  0  0  0  0  0  0
   30.7246  -15.0695    1.3187 Cl  0  0  0  0  0  0  0  0  0  0  0  0
   31.2613  -16.8321    3.2661 C   0  0  0  0  0  0  0  0  0  0  0  0
   31.5356  -17.2220    4.5773 C   0  0  0  0  0  0  0  0  0  0  0  0
   31.6426  -16.2597    5.5820 C   0  0  0  0  0  0  0  0  0  0  0  0
   31.4803  -14.9048    5.2774 C   0  0  0  0  0  0  0  0  0  0  0  0
   31.6041  -13.7685    6.5722 Cl  0  0  0  0  0  0  0  0  0  0  0  0
   34.6219   -8.8293    1.4194 O   0  0  0  0  0  0  0  0  0  0  0  0
   33.6646   -9.1861    2.0953 C   0  0  0  0  0  0  0  0  0  0  0  0
   33.4995  -10.6263    2.4053 C   0  0  0  0  0  0  0  0  0  0  0  0
   32.4753  -11.0899    3.1329 C   0  0  0  0  0  0  0  0  0  0  0  0
   31.4420  -10.1500    3.6689 C   0  0  0  0  0  0  0  0  0  0  0  0
   31.7318   -8.7272    3.2889 C   0  0  0  0  0  0  0  0  0  0  0  0
   32.7297   -8.3105    2.5844 N   0  0  0  0  0  0  0  0  0  0  0  0
 13 14  2  0
 14 15  1  0
 15 16  2  0
 16  1  1  0
  1  2  1  0
  2  3  2  0
  2  5  1  0
  5  6  2  0
  6  7  1  0
  6  8  1  0
  8  9  2  0
  9 10  1  0
 10 11  2  0
 11 12  1  0
 16 17  1  0
 17 18  1  0
 18 19  2  0
 19 14  1  0
 11  5  1  0
  1  4  1  0
M  END
> <minimizedAffinity>
-7.22904

> <CNNscore>
0.8575308323

> <CNNaffinity>
6.5930180550

> <CNN_VS>
5.6537160873

> <CNNaffinity_variance>
0.2996874154

$$$$



 19 20  0  0  0  0  0  0  0  0999 V2000
   32.4445  -12.5842    3.7139 N   0  0  0  0  0  0  0  0  0  0  0  0
   31.5093  -13.5259    3.3145 C   0  0  0  0  0  0  0  0  0  0  0  0
   31.3049  -13.9465    2.1849 O   0  0  0  0  0  0  0  0  0  0  0  0
   32.4608  -12.3710    4.6749 H   0  0  0  0  0  0  0  0  0  0  0  0
   30.6835  -14.0581    4.4103 C   0  0  0  0  0  0  0  0  0  0  0  0
   31.0340  -15.2648    5.0258 C   0  0  0  0  0  0  0  0  0  0  0  0
   32.3748  -16.2166    4.4979 Cl  0  0  0  0  0  0  0  0  0  0  0  0
   30.2672  -15.7528    6.0883 C   0  0  0  0  0  0  0  0  0  0  0  0
   29.1556  -15.0390    6.5372 C   0  0  0  0  0  0  0  0  0  0  0  0
   28.8047  -13.8371    5.9216 C   0  0  0  0  0  0  0  0  0  0  0  0
   29.5671  -13.3433    4.8586 C   0  0  0  0  0  0  0  0  0  0  0  0
   29.0644  -11.8612    4.1281 Cl  0  0  0  0  0  0  0  0  0  0  0  0
   34.2414   -8.7066    1.6391 O   0  0  0  0  0  0  0  0  0  0  0  0
   34.3302   -9.9147    1.8208 C   0  0  0  0  0  0  0  0  0  0  0  0
   33.3238  -10.5897    2.6748 C   0  0  0  0  0  0  0  0  0  0  0  0
   33.3609  -11.9053    2.9225 C   0  0  0  0  0  0  0  0  0  0  0  0
   34.4414  -12.7557    2.3328 C   0  0  0  0  0  0  0  0  0  0  0  0
   35.3853  -11.9510    1.4876 C   0  0  0  0  0  0  0  0  0  0  0  0
   35.3236  -10.6808    1.2675 N   0  0  0  0  0  0  0  0  0  0  0  0
 13 14  2  0
 14 15  1  0
 15 16  2  0
 16  1  1  0
  1  2  1  0
  2  3  2  0
  2  5  1  0
  5  6  2  0
  6  7  1  0
  6  8  1  0
  8  9  2  0
  9 10  1  0
 10 11  2  0
 11 12  1  0
 16 17  1  0
 17 18  1  0
 18 19  2  0
 19 14  1  0
 11  5  1  0
  1  4  1  0
M  END
> <minimizedAffinity>
-7.20069

> <CNNscore>
0.7502828836

> <CNNaffinity>
6.4035325050

> <CNN_VS>
4.8044610023

> <CNNaffinity_variance>
0.3399420977

$$$$



 19 20  0  0  0  0  0  0  0  0999 V2000
   32.4115  -12.6189    3.7112 N   0  0  0  0  0  0  0  0  0  0  0  0
   31.4722  -13.5567    3.3121 C   0  0  0  0  0  0  0  0  0  0  0  0
   31.2689  -13.9799    2.1832 O   0  0  0  0  0  0  0  0  0  0  0  0
   32.4260  -12.4026    4.6715 H   0  0  0  0  0  0  0  0  0  0  0  0
   30.6400  -14.0804    4.4070 C   0  0  0  0  0  0  0  0  0  0  0  0
   29.5081  -13.3713    4.8240 C   0  0  0  0  0  0  0  0  0  0  0  0
   29.0763  -11.8405    4.1511 Cl  0  0  0  0  0  0  0  0  0  0  0  0
   28.7000  -13.8863    5.8423 C   0  0  0  0  0  0  0  0  0  0  0  0
   29.0181  -15.1054    6.4415 C   0  0  0  0  0  0  0  0  0  0  0  0
   30.1482  -15.8111    6.0273 C   0  0  0  0  0  0  0  0  0  0  0  0
   30.9607  -15.3019    5.0096 C   0  0  0  0  0  0  0  0  0  0  0  0
   32.3558  -16.2157    4.5607 Cl  0  0  0  0  0  0  0  0  0  0  0  0
   34.2773   -8.7480    1.6852 O   0  0  0  0  0  0  0  0  0  0  0  0
   34.3384   -9.9613    1.8431 C   0  0  0  0  0  0  0  0  0  0  0  0
   33.3267  -10.6274    2.6977 C   0  0  0  0  0  0  0  0  0  0  0  0
   33.3342  -11.9479    2.9204 C   0  0  0  0  0  0  0  0  0  0  0  0
   34.3855  -12.8133    2.3005 C   0  0  0  0  0  0  0  0  0  0  0  0
   35.3382  -12.0162    1.4580 C   0  0  0  0  0  0  0  0  0  0  0  0
   35.3053  -10.7409    1.2624 N   0  0  0  0  0  0  0  0  0  0  0  0
 13 14  2  0
 14 15  1  0
 15 16  2  0
 16  1  1  0
  1  2  1  0
  2  3  2  0
  2  5  1  0
  5  6  2  0
  6  7  1  0
  6  8  1  0
  8  9  2  0
  9 10  1  0
 10 11  2  0
 11 12  1  0
 16 17  1  0
 17 18  1  0
 18 19  2  0
 19 14  1  0
 11  5  1  0
  1  4  1  0
M  END
> <minimizedAffinity>
-7.15113

> <CNNscore>
0.7398921847

> <CNNaffinity>
6.4050698280

> <CNN_VS>
4.7390608788

> <CNNaffinity_variance>
0.3558153212

$$$$



 19 20  0  0  0  0  0  0  0  0999 V2000
   31.8145  -12.2562    3.7594 N   0  0  0  0  0  0  0  0  0  0  0  0
   30.6102  -12.9369    3.6732 C   0  0  0  0  0  0  0  0  0  0  0  0
   29.5306  -12.5045    3.2960 O   0  0  0  0  0  0  0  0  0  0  0  0
   32.5829  -12.7761    4.0889 H   0  0  0  0  0  0  0  0  0  0  0  0
   30.6817  -14.3448    4.0954 C   0  0  0  0  0  0  0  0  0  0  0  0
   31.2524  -15.2999    3.2468 C   0  0  0  0  0  0  0  0  0  0  0  0
   31.8193  -14.9086    1.6632 Cl  0  0  0  0  0  0  0  0  0  0  0  0
   31.3492  -16.6314    3.6626 C   0  0  0  0  0  0  0  0  0  0  0  0
   30.8806  -17.0092    4.9213 C   0  0  0  0  0  0  0  0  0  0  0  0
   30.3092  -16.0572    5.7662 C   0  0  0  0  0  0  0  0  0  0  0  0
   30.2093  -14.7240    5.3569 C   0  0  0  0  0  0  0  0  0  0  0  0
   29.4718  -13.6019    6.4430 Cl  0  0  0  0  0  0  0  0  0  0  0  0
   30.8608   -7.6023    3.7890 O   0  0  0  0  0  0  0  0  0  0  0  0
   31.6106   -8.4997    3.4241 C   0  0  0  0  0  0  0  0  0  0  0  0
   31.2919   -9.8990    3.7955 C   0  0  0  0  0  0  0  0  0  0  0  0
   32.0680  -10.9299    3.4373 C   0  0  0  0  0  0  0  0  0  0  0  0
   33.3082  -10.6992    2.6330 C   0  0  0  0  0  0  0  0  0  0  0  0
   33.5078   -9.2446    2.3212 C   0  0  0  0  0  0  0  0  0  0  0  0
   32.7405   -8.2715    2.6816 N   0  0  0  0  0  0  0  0  0  0  0  0
 13 14  2  0
 14 15  1  0
 15 16  2  0
 16  1  1  0
  1  2  1  0
  2  3  2  0
  2  5  1  0
  5  6  2  0
  6  7  1  0
  6  8  1  0
  8  9  2  0
  9 10  1  0
 10 11  2  0
 11 12  1  0
 16 17  1  0
 17 18  1  0
 18 19  2  0
 19 14  1  0
 11  5  1  0
  1  4  1  0
M  END
> <minimizedAffinity>
-6.64875

> <CNNscore>
0.5577449203

> <CNNaffinity>
6.3585429192

> <CNN_VS>
3.5464451313

> <CNNaffinity_variance>
0.4655517638

$$$$



 19 20  0  0  0  0  0  0  0  0999 V2000
   31.2361  -12.3298    4.0187 N   0  0  0  0  0  0  0  0  0  0  0  0
   30.1694  -13.1543    3.6971 C   0  0  0  0  0  0  0  0  0  0  0  0
   29.0949  -12.8335    3.2099 O   0  0  0  0  0  0  0  0  0  0  0  0
   32.0248  -12.7738    4.4061 H   0  0  0  0  0  0  0  0  0  0  0  0
   30.3967  -14.5778    3.9933 C   0  0  0  0  0  0  0  0  0  0  0  0
   30.0113  -15.1033    5.2315 C   0  0  0  0  0  0  0  0  0  0  0  0
   29.3369  -14.1223    6.4827 Cl  0  0  0  0  0  0  0  0  0  0  0  0
   30.1981  -16.4629    5.4994 C   0  0  0  0  0  0  0  0  0  0  0  0
   30.7654  -17.2964    4.5350 C   0  0  0  0  0  0  0  0  0  0  0  0
   31.1520  -16.7717    3.3014 C   0  0  0  0  0  0  0  0  0  0  0  0
   30.9681  -15.4131    3.0269 C   0  0  0  0  0  0  0  0  0  0  0  0
   31.4888  -14.8253    1.4886 Cl  0  0  0  0  0  0  0  0  0  0  0  0
   33.1038   -8.3593    2.1977 O   0  0  0  0  0  0  0  0  0  0  0  0
   32.2683   -8.8603    2.9403 C   0  0  0  0  0  0  0  0  0  0  0  0
   32.2160  -10.3359    3.0727 C   0  0  0  0  0  0  0  0  0  0  0  0
   31.3266  -10.9536    3.8605 C   0  0  0  0  0  0  0  0  0  0  0  0
   30.3357  -10.1585    4.6507 C   0  0  0  0  0  0  0  0  0  0  0  0
   30.5024   -8.6832    4.4306 C   0  0  0  0  0  0  0  0  0  0  0  0
   31.3711   -8.1165    3.6626 N   0  0  0  0  0  0  0  0  0  0  0  0
 13 14  2  0
 14 15  1  0
 15 16  2  0
 16  1  1  0
  1  2  1  0
  2  3  2  0
  2  5  1  0
  5  6  2  0
  6  7  1  0
  6  8  1  0
  8  9  2  0
  9 10  1  0
 10 11  2  0
 11 12  1  0
 16 17  1  0
 17 18  1  0
 18 19  2  0
 19 14  1  0
 11  5  1  0
  1  4  1  0
M  END
> <minimizedAffinity>
-6.72788

> <CNNscore>
0.4544903934

> <CNNaffinity>
5.9656081200

> <CNN_VS>
2.7113115788

> <CNNaffinity_variance>
0.2666057646

$$$$



 19 20  0  0  0  0  0  0  0  0999 V2000
   31.6931  -13.3687    3.2570 N   0  0  0  0  0  0  0  0  0  0  0  0
   32.2476  -12.3631    4.0330 C   0  0  0  0  0  0  0  0  0  0  0  0
   32.3233  -12.3131    5.2523 O   0  0  0  0  0  0  0  0  0  0  0  0
   31.7249  -13.2309    2.2827 H   0  0  0  0  0  0  0  0  0  0  0  0
   32.7997  -11.2394    3.2595 C   0  0  0  0  0  0  0  0  0  0  0  0
   32.1289  -10.0116    3.2364 C   0  0  0  0  0  0  0  0  0  0  0  0
   30.6128   -9.7715    4.0277 Cl  0  0  0  0  0  0  0  0  0  0  0  0
   32.6713   -8.9352    2.5278 C   0  0  0  0  0  0  0  0  0  0  0  0
   33.8798   -9.0817    1.8460 C   0  0  0  0  0  0  0  0  0  0  0  0
   34.5471  -10.3068    1.8670 C   0  0  0  0  0  0  0  0  0  0  0  0
   34.0104  -11.3873    2.5736 C   0  0  0  0  0  0  0  0  0  0  0  0
   34.8769  -12.8809    2.5400 Cl  0  0  0  0  0  0  0  0  0  0  0  0
   31.5847  -18.0523    4.0452 O   0  0  0  0  0  0  0  0  0  0  0  0
   30.9954  -16.9805    4.1135 C   0  0  0  0  0  0  0  0  0  0  0  0
   31.6775  -15.7530    3.6386 C   0  0  0  0  0  0  0  0  0  0  0  0
   31.0981  -14.5467    3.6877 C   0  0  0  0  0  0  0  0  0  0  0  0
   29.7138  -14.3944    4.2342 C   0  0  0  0  0  0  0  0  0  0  0  0
   29.1391  -15.7103    4.6713 C   0  0  0  0  0  0  0  0  0  0  0  0
   29.7238  -16.8593    4.6116 N   0  0  0  0  0  0  0  0  0  0  0  0
 13 14  2  0
 14 15  1  0
 15 16  2  0
 16  1  1  0
  1  2  1  0
  2  3  2  0
  2  5  1  0
  5  6  2  0
  6  7  1  0
  6  8  1  0
  8  9  2  0
  9 10  1  0
 10 11  2  0
 11 12  1  0
 16 17  1  0
 17 18  1  0
 18 19  2  0
 19 14  1  0
 11  5  1  0
  1  4  1  0
M  END
> <minimizedAffinity>
-7.99105

> <CNNscore>
0.3355970085

> <CNNaffinity>
5.5550618172

> <CNN_VS>
1.8642621040

> <CNNaffinity_variance>
0.0447439700

$$$$



 19 20  0  0  0  0  0  0  0  0999 V2000
   31.4589  -13.4049    3.4597 N   0  0  0  0  0  0  0  0  0  0  0  0
   32.0812  -12.4509    4.2495 C   0  0  0  0  0  0  0  0  0  0  0  0
   32.3066  -12.5033    5.4500 O   0  0  0  0  0  0  0  0  0  0  0  0
   31.3660  -13.1828    2.5051 H   0  0  0  0  0  0  0  0  0  0  0  0
   32.5055  -11.2463    3.5184 C   0  0  0  0  0  0  0  0  0  0  0  0
   33.6630  -11.2781    2.7328 C   0  0  0  0  0  0  0  0  0  0  0  0
   34.6793  -12.6713    2.6400 Cl  0  0  0  0  0  0  0  0  0  0  0  0
   34.0472  -10.1427    2.0128 C   0  0  0  0  0  0  0  0  0  0  0  0
   33.2787   -8.9799    2.0740 C   0  0  0  0  0  0  0  0  0  0  0  0
   32.1260   -8.9475    2.8595 C   0  0  0  0  0  0  0  0  0  0  0  0
   31.7360  -10.0793    3.5820 C   0  0  0  0  0  0  0  0  0  0  0  0
   30.3110   -9.9638    4.5510 Cl  0  0  0  0  0  0  0  0  0  0  0  0
   28.0913  -16.2726    5.1933 O   0  0  0  0  0  0  0  0  0  0  0  0
   29.2290  -16.1660    4.7519 C   0  0  0  0  0  0  0  0  0  0  0  0
   29.7215  -14.8273    4.3481 C   0  0  0  0  0  0  0  0  0  0  0  0
   30.9507  -14.6356    3.8523 C   0  0  0  0  0  0  0  0  0  0  0  0
   31.8877  -15.7901    3.6865 C   0  0  0  0  0  0  0  0  0  0  0  0
   31.2680  -17.0804    4.1378 C   0  0  0  0  0  0  0  0  0  0  0  0
   30.0776  -17.2338    4.6122 N   0  0  0  0  0  0  0  0  0  0  0  0
 13 14  2  0
 14 15  1  0
 15 16  2  0
 16  1  1  0
  1  2  1  0
  2  3  2  0
  2  5  1  0
  5  6  2  0
  6  7  1  0
  6  8  1  0
  8  9  2  0
  9 10  1  0
 10 11  2  0
 11 12  1  0
 16 17  1  0
 17 18  1  0
 18 19  2  0
 19 14  1  0
 11  5  1  0
  1  4  1  0
M  END
> <minimizedAffinity>
-7.79227

> <CNNscore>
0.3244710863

> <CNNaffinity>
5.6173443794

> <CNN_VS>
1.8226658106

> <CNNaffinity_variance>
0.0148212491

$$$$
