


 26 28  0  0  0  0  0  0  0  0999 V2000
   37.4036   -1.5356   12.2159 C   0  0  0  0  0  0  0  0  0  0  0  0
   38.0364   -1.3070   13.4916 O   0  0  0  0  0  0  0  0  0  0  0  0
   37.6384   -0.0013   13.9486 C   0  0  0  0  0  0  0  0  0  0  0  0
   37.2574    0.7874   12.7016 C   0  0  0  0  0  0  0  0  0  0  0  0
   36.3925    1.8764   13.0016 O   0  0  0  0  0  0  0  0  0  0  0  0
   36.5776   -0.2800   11.8641 C   0  0  0  0  0  0  0  0  0  0  0  0
   36.6301    0.0463   10.4739 O   0  0  0  0  0  0  0  0  0  0  0  0
   35.6011    1.5455   13.4545 H   0  0  0  0  0  0  0  0  0  0  0  0
   37.5537    0.1748   10.2066 H   0  0  0  0  0  0  0  0  0  0  0  0
   34.2880   -6.0530   12.1837 O   0  0  0  0  0  0  0  0  0  0  0  0
   35.0199   -5.0695   12.2077 C   0  0  0  0  0  0  0  0  0  0  0  0
   34.6684   -3.9039   11.5790 N   0  0  0  0  0  0  0  0  0  0  0  0
   35.3851   -2.7375   11.5695 C   0  0  0  0  0  0  0  0  0  0  0  0
   34.9414   -1.7369   11.0092 O   0  0  0  0  0  0  0  0  0  0  0  0
   36.6027   -2.7667   12.2390 N   0  0  0  0  0  0  0  0  0  0  0  0
   37.0402   -3.9111   12.8861 C   0  0  0  0  0  0  0  0  0  0  0  0
   36.3268   -5.0413   12.9065 C   0  0  0  0  0  0  0  0  0  0  0  0
   36.8754   -6.4524   13.7131 Cl  0  0  0  0  0  0  0  0  0  0  0  0
   33.8165   -3.9053   11.0855 H   0  0  0  0  0  0  0  0  0  0  0  0
   38.7808    0.6550   14.7440 C   0  0  0  0  0  0  0  0  0  0  0  0
   38.8188    0.2671   16.1687 N   0  0  0  0  0  0  0  0  0  0  0  0
   37.4690   -0.0364   16.6820 C   0  0  0  0  0  0  0  0  0  0  0  0
   36.8363    1.1042   17.4753 C   0  0  0  0  0  0  0  0  0  0  0  0
   37.6859    1.4728   18.6901 C   0  0  0  0  0  0  0  0  0  0  0  0
   39.1702    1.1932   18.4626 C   0  0  0  0  0  0  0  0  0  0  0  0
   39.5278    1.2789   16.9803 C   0  0  0  0  0  0  0  0  0  0  0  0
 10 11  2  0
 11 12  1  0
 12 13  1  0
 13 14  2  0
 13 15  1  0
  1 15  1  0
  1  2  1  0
  2  3  1  0
  3 20  1  0
 20 21  1  0
 21 22  1  0
 22 23  1  0
 23 24  1  0
 24 25  1  0
 25 26  1  0
  3  4  1  0
  4  5  1  0
  4  6  1  0
  6  7  1  0
 15 16  1  0
 16 17  2  0
 17 18  1  0
 17 11  1  0
  6  1  1  0
 26 21  1  0
 12 19  1  0
  5  8  1  0
  7  9  1  0
M  END
> <minimizedAffinity>
-6.92990

> <CNNscore>
0.8678056002

> <CNNaffinity>
4.7065815926

> <CNN_VS>
4.0843977928

> <CNNaffinity_variance>
0.1951522976

$$$$



 26 28  0  0  0  0  0  0  0  0999 V2000
   38.3291   -1.2300   14.5393 C   0  0  0  0  0  0  0  0  0  0  0  0
   39.4315   -2.1342   14.7565 O   0  0  0  0  0  0  0  0  0  0  0  0
   39.4585   -2.4609   16.1581 C   0  0  0  0  0  0  0  0  0  0  0  0
   38.7621   -1.3112   16.8759 C   0  0  0  0  0  0  0  0  0  0  0  0
   38.2691   -1.6987   18.1530 O   0  0  0  0  0  0  0  0  0  0  0  0
   37.6483   -0.9760   15.9012 C   0  0  0  0  0  0  0  0  0  0  0  0
   37.2153    0.3764   16.0606 O   0  0  0  0  0  0  0  0  0  0  0  0
   37.6700   -2.4549   18.0524 H   0  0  0  0  0  0  0  0  0  0  0  0
   37.9729    0.9730   15.9553 H   0  0  0  0  0  0  0  0  0  0  0  0
   34.9720   -3.0821   10.6133 O   0  0  0  0  0  0  0  0  0  0  0  0
   35.7117   -2.7064   11.5162 C   0  0  0  0  0  0  0  0  0  0  0  0
   36.5998   -1.6799   11.3295 N   0  0  0  0  0  0  0  0  0  0  0  0
   37.4444   -1.1547   12.2703 C   0  0  0  0  0  0  0  0  0  0  0  0
   38.1643   -0.1961   11.9971 O   0  0  0  0  0  0  0  0  0  0  0  0
   37.4092   -1.7566   13.5225 N   0  0  0  0  0  0  0  0  0  0  0  0
   36.5519   -2.8121   13.7892 C   0  0  0  0  0  0  0  0  0  0  0  0
   35.7170   -3.3081   12.8708 C   0  0  0  0  0  0  0  0  0  0  0  0
   34.6569   -4.6132   13.2112 Cl  0  0  0  0  0  0  0  0  0  0  0  0
   36.6340   -1.2807   10.4302 H   0  0  0  0  0  0  0  0  0  0  0  0
   40.9094   -2.6667   16.6285 C   0  0  0  0  0  0  0  0  0  0  0  0
   41.0434   -2.8734   18.0849 N   0  0  0  0  0  0  0  0  0  0  0  0
   42.3637   -2.4314   18.5738 C   0  0  0  0  0  0  0  0  0  0  0  0
   43.3623   -3.5683   18.7763 C   0  0  0  0  0  0  0  0  0  0  0  0
   42.8458   -4.5858   19.7918 C   0  0  0  0  0  0  0  0  0  0  0  0
   41.3202   -4.6568   19.8128 C   0  0  0  0  0  0  0  0  0  0  0  0
   40.7303   -4.2689   18.4585 C   0  0  0  0  0  0  0  0  0  0  0  0
 10 11  2  0
 11 12  1  0
 12 13  1  0
 13 14  2  0
 13 15  1  0
  1 15  1  0
  1  2  1  0
  2  3  1  0
  3 20  1  0
 20 21  1  0
 21 22  1  0
 22 23  1  0
 23 24  1  0
 24 25  1  0
 25 26  1  0
  3  4  1  0
  4  5  1  0
  4  6  1  0
  6  7  1  0
 15 16  1  0
 16 17  2  0
 17 18  1  0
 17 11  1  0
  6  1  1  0
 26 21  1  0
 12 19  1  0
  5  8  1  0
  7  9  1  0
M  END
> <minimizedAffinity>
-5.60335

> <CNNscore>
0.6922181249

> <CNNaffinity>
4.4119601250

> <CNN_VS>
3.0540387630

> <CNNaffinity_variance>
0.3607934415

$$$$



 26 28  0  0  0  0  0  0  0  0999 V2000
   35.4655   -8.0221   13.4110 C   0  0  0  0  0  0  0  0  0  0  0  0
   36.2386   -8.8705   12.5378 O   0  0  0  0  0  0  0  0  0  0  0  0
   35.4202  -10.0033   12.1928 C   0  0  0  0  0  0  0  0  0  0  0  0
   34.3941  -10.1425   13.3108 C   0  0  0  0  0  0  0  0  0  0  0  0
   33.2403  -10.8611   12.8909 O   0  0  0  0  0  0  0  0  0  0  0  0
   34.0901   -8.6893   13.6254 C   0  0  0  0  0  0  0  0  0  0  0  0
   33.6055   -8.5430   14.9617 O   0  0  0  0  0  0  0  0  0  0  0  0
   32.8501  -10.4233   12.1183 H   0  0  0  0  0  0  0  0  0  0  0  0
   34.2516   -8.9147   15.5824 H   0  0  0  0  0  0  0  0  0  0  0  0
   34.9916   -2.9978   11.2556 O   0  0  0  0  0  0  0  0  0  0  0  0
   35.1127   -4.1007   11.7773 C   0  0  0  0  0  0  0  0  0  0  0  0
   34.5792   -5.2239   11.2018 N   0  0  0  0  0  0  0  0  0  0  0  0
   34.6822   -6.5054   11.6723 C   0  0  0  0  0  0  0  0  0  0  0  0
   34.2011   -7.4433   11.0392 O   0  0  0  0  0  0  0  0  0  0  0  0
   35.3689   -6.6596   12.8707 N   0  0  0  0  0  0  0  0  0  0  0  0
   35.9242   -5.5725   13.5263 C   0  0  0  0  0  0  0  0  0  0  0  0
   35.8352   -4.3261   13.0518 C   0  0  0  0  0  0  0  0  0  0  0  0
   36.5287   -2.9866   13.8690 Cl  0  0  0  0  0  0  0  0  0  0  0  0
   34.0718   -5.0969   10.3677 H   0  0  0  0  0  0  0  0  0  0  0  0
   36.2937  -11.2592   12.0248 C   0  0  0  0  0  0  0  0  0  0  0  0
   37.6193  -11.1574   12.6682 N   0  0  0  0  0  0  0  0  0  0  0  0
   38.6955  -11.6006   11.7610 C   0  0  0  0  0  0  0  0  0  0  0  0
   39.1790  -13.0250   12.0217 C   0  0  0  0  0  0  0  0  0  0  0  0
   39.7237  -13.1747   13.4409 C   0  0  0  0  0  0  0  0  0  0  0  0
   39.0542  -12.2127   14.4205 C   0  0  0  0  0  0  0  0  0  0  0  0
   37.6386  -11.8602   13.9685 C   0  0  0  0  0  0  0  0  0  0  0  0
 10 11  2  0
 11 12  1  0
 12 13  1  0
 13 14  2  0
 13 15  1  0
  1 15  1  0
  1  2  1  0
  2  3  1  0
  3 20  1  0
 20 21  1  0
 21 22  1  0
 22 23  1  0
 23 24  1  0
 24 25  1  0
 25 26  1  0
  3  4  1  0
  4  5  1  0
  4  6  1  0
  6  7  1  0
 15 16  1  0
 16 17  2  0
 17 18  1  0
 17 11  1  0
  6  1  1  0
 26 21  1  0
 12 19  1  0
  5  8  1  0
  7  9  1  0
M  END
> <minimizedAffinity>
-5.39575

> <CNNscore>
0.6659747362

> <CNNaffinity>
4.3896446228

> <CNN_VS>
2.9233925343

> <CNNaffinity_variance>
0.0939538106

$$$$



 26 28  0  0  0  0  0  0  0  0999 V2000
   35.4653   -7.8897   13.6652 C   0  0  0  0  0  0  0  0  0  0  0  0
   36.3908   -8.7012   12.9135 O   0  0  0  0  0  0  0  0  0  0  0  0
   35.6920   -9.8893   12.4984 C   0  0  0  0  0  0  0  0  0  0  0  0
   34.5463  -10.0753   13.4857 C   0  0  0  0  0  0  0  0  0  0  0  0
   33.4993  -10.8727   12.9453 O   0  0  0  0  0  0  0  0  0  0  0  0
   34.1174   -8.6396   13.7258 C   0  0  0  0  0  0  0  0  0  0  0  0
   33.4635   -8.5027   14.9890 O   0  0  0  0  0  0  0  0  0  0  0  0
   33.1814  -10.4732   12.1205 H   0  0  0  0  0  0  0  0  0  0  0  0
   34.0496   -8.8223   15.6928 H   0  0  0  0  0  0  0  0  0  0  0  0
   34.9259   -2.9357   11.3671 O   0  0  0  0  0  0  0  0  0  0  0  0
   35.0636   -4.0217   11.9192 C   0  0  0  0  0  0  0  0  0  0  0  0
   34.4958   -5.1588   11.4072 N   0  0  0  0  0  0  0  0  0  0  0  0
   34.6118   -6.4248   11.9151 C   0  0  0  0  0  0  0  0  0  0  0  0
   34.0950   -7.3790   11.3369 O   0  0  0  0  0  0  0  0  0  0  0  0
   35.3530   -6.5451   13.0846 N   0  0  0  0  0  0  0  0  0  0  0  0
   35.9460   -5.4416   13.6768 C   0  0  0  0  0  0  0  0  0  0  0  0
   35.8436   -4.2109   13.1655 C   0  0  0  0  0  0  0  0  0  0  0  0
   36.5839   -2.8511   13.9041 Cl  0  0  0  0  0  0  0  0  0  0  0  0
   33.9508   -5.0551   10.5940 H   0  0  0  0  0  0  0  0  0  0  0  0
   36.6548  -11.0896   12.4685 C   0  0  0  0  0  0  0  0  0  0  0  0
   36.1495  -12.2439   11.6978 N   0  0  0  0  0  0  0  0  0  0  0  0
   36.5863  -13.5224   12.2912 C   0  0  0  0  0  0  0  0  0  0  0  0
   37.7860  -14.1540   11.5894 C   0  0  0  0  0  0  0  0  0  0  0  0
   37.4805  -14.4432   10.1210 C   0  0  0  0  0  0  0  0  0  0  0  0
   36.4552  -13.4700    9.5423 C   0  0  0  0  0  0  0  0  0  0  0  0
   36.4990  -12.1260   10.2663 C   0  0  0  0  0  0  0  0  0  0  0  0
 10 11  2  0
 11 12  1  0
 12 13  1  0
 13 14  2  0
 13 15  1  0
  1 15  1  0
  1  2  1  0
  2  3  1  0
  3 20  1  0
 20 21  1  0
 21 22  1  0
 22 23  1  0
 23 24  1  0
 24 25  1  0
 25 26  1  0
  3  4  1  0
  4  5  1  0
  4  6  1  0
  6  7  1  0
 15 16  1  0
 16 17  2  0
 17 18  1  0
 17 11  1  0
  6  1  1  0
 26 21  1  0
 12 19  1  0
  5  8  1  0
  7  9  1  0
M  END
> <minimizedAffinity>
-5.17537

> <CNNscore>
0.6127982736

> <CNNaffinity>
4.3567252159

> <CNN_VS>
2.6697936058

> <CNNaffinity_variance>
0.1444739848

$$$$



 26 28  0  0  0  0  0  0  0  0999 V2000
   39.1814   -0.6497   13.4415 C   0  0  0  0  0  0  0  0  0  0  0  0
   39.1954   -0.9634   14.8491 O   0  0  0  0  0  0  0  0  0  0  0  0
   39.3820    0.2690   15.5692 C   0  0  0  0  0  0  0  0  0  0  0  0
   40.0685    1.2262   14.6024 C   0  0  0  0  0  0  0  0  0  0  0  0
   39.8714    2.5871   14.9676 O   0  0  0  0  0  0  0  0  0  0  0  0
   39.3888    0.8726   13.2925 C   0  0  0  0  0  0  0  0  0  0  0  0
   40.2142    1.2128   12.1767 O   0  0  0  0  0  0  0  0  0  0  0  0
   38.9209    2.7735   15.0197 H   0  0  0  0  0  0  0  0  0  0  0  0
   41.0733    0.7708   12.2635 H   0  0  0  0  0  0  0  0  0  0  0  0
   34.5477   -2.2733   10.9904 O   0  0  0  0  0  0  0  0  0  0  0  0
   35.5937   -1.9558   11.5459 C   0  0  0  0  0  0  0  0  0  0  0  0
   36.0834   -0.6786   11.4672 N   0  0  0  0  0  0  0  0  0  0  0  0
   37.2154   -0.2034   12.0731 C   0  0  0  0  0  0  0  0  0  0  0  0
   37.5286    0.9811   11.9692 O   0  0  0  0  0  0  0  0  0  0  0  0
   37.9461   -1.1295   12.8079 N   0  0  0  0  0  0  0  0  0  0  0  0
   37.5292   -2.4459   12.9234 C   0  0  0  0  0  0  0  0  0  0  0  0
   36.4132   -2.8987   12.3438 C   0  0  0  0  0  0  0  0  0  0  0  0
   35.9033   -4.5297   12.4950 Cl  0  0  0  0  0  0  0  0  0  0  0  0
   35.5708   -0.0396   10.9211 H   0  0  0  0  0  0  0  0  0  0  0  0
   40.2037    0.0196   16.8464 C   0  0  0  0  0  0  0  0  0  0  0  0
   39.5465    0.4898   18.0828 N   0  0  0  0  0  0  0  0  0  0  0  0
   38.0826    0.5744   17.9178 C   0  0  0  0  0  0  0  0  0  0  0  0
   37.5699    1.9864   17.6452 C   0  0  0  0  0  0  0  0  0  0  0  0
   37.9301    2.9369   18.7854 C   0  0  0  0  0  0  0  0  0  0  0  0
   39.2162    2.5225   19.4977 C   0  0  0  0  0  0  0  0  0  0  0  0
   40.1449    1.7548   18.5593 C   0  0  0  0  0  0  0  0  0  0  0  0
 10 11  2  0
 11 12  1  0
 12 13  1  0
 13 14  2  0
 13 15  1  0
  1 15  1  0
  1  2  1  0
  2  3  1  0
  3 20  1  0
 20 21  1  0
 21 22  1  0
 22 23  1  0
 23 24  1  0
 24 25  1  0
 25 26  1  0
  3  4  1  0
  4  5  1  0
  4  6  1  0
  6  7  1  0
 15 16  1  0
 16 17  2  0
 17 18  1  0
 17 11  1  0
  6  1  1  0
 26 21  1  0
 12 19  1  0
  5  8  1  0
  7  9  1  0
M  END
> <minimizedAffinity>
-5.42728

> <CNNscore>
0.5997780561

> <CNNaffinity>
4.6076378822

> <CNN_VS>
2.7635600567

> <CNNaffinity_variance>
0.1255996674

$$$$



 26 28  0  0  0  0  0  0  0  0999 V2000
   36.9293   -3.5817   13.5880 C   0  0  0  0  0  0  0  0  0  0  0  0
   37.7030   -3.1635   12.4449 O   0  0  0  0  0  0  0  0  0  0  0  0
   39.0808   -3.4867   12.7085 C   0  0  0  0  0  0  0  0  0  0  0  0
   39.2200   -3.5493   14.2247 C   0  0  0  0  0  0  0  0  0  0  0  0
   40.3424   -4.3256   14.6268 O   0  0  0  0  0  0  0  0  0  0  0  0
   37.9014   -4.1856   14.6239 C   0  0  0  0  0  0  0  0  0  0  0  0
   37.5554   -3.8510   15.9693 O   0  0  0  0  0  0  0  0  0  0  0  0
   40.2705   -5.2168   14.2508 H   0  0  0  0  0  0  0  0  0  0  0  0
   37.5295   -2.8862   16.0661 H   0  0  0  0  0  0  0  0  0  0  0  0
   32.8909   -6.9216   11.9599 O   0  0  0  0  0  0  0  0  0  0  0  0
   33.8121   -6.2113   12.3476 C   0  0  0  0  0  0  0  0  0  0  0  0
   34.0424   -4.9784   11.7961 N   0  0  0  0  0  0  0  0  0  0  0  0
   35.0128   -4.0886   12.1713 C   0  0  0  0  0  0  0  0  0  0  0  0
   35.0906   -2.9860   11.6325 O   0  0  0  0  0  0  0  0  0  0  0  0
   35.8607   -4.5074   13.1897 N   0  0  0  0  0  0  0  0  0  0  0  0
   35.7069   -5.7472   13.7892 C   0  0  0  0  0  0  0  0  0  0  0  0
   34.7457   -6.6038   13.4300 C   0  0  0  0  0  0  0  0  0  0  0  0
   34.5611   -8.1355   14.1802 Cl  0  0  0  0  0  0  0  0  0  0  0  0
   33.4518   -4.7054   11.0572 H   0  0  0  0  0  0  0  0  0  0  0  0
   40.0055   -2.4369   12.0672 C   0  0  0  0  0  0  0  0  0  0  0  0
   39.5210   -1.0483   12.2038 N   0  0  0  0  0  0  0  0  0  0  0  0
   39.9522   -0.4491   13.4816 C   0  0  0  0  0  0  0  0  0  0  0  0
   38.8749   -0.4535   14.5633 C   0  0  0  0  0  0  0  0  0  0  0  0
   37.6387    0.3256   14.1180 C   0  0  0  0  0  0  0  0  0  0  0  0
   37.4523    0.2950   12.6023 C   0  0  0  0  0  0  0  0  0  0  0  0
   38.0596   -0.9684   11.9962 C   0  0  0  0  0  0  0  0  0  0  0  0
 10 11  2  0
 11 12  1  0
 12 13  1  0
 13 14  2  0
 13 15  1  0
  1 15  1  0
  1  2  1  0
  2  3  1  0
  3 20  1  0
 20 21  1  0
 21 22  1  0
 22 23  1  0
 23 24  1  0
 24 25  1  0
 25 26  1  0
  3  4  1  0
  4  5  1  0
  4  6  1  0
  6  7  1  0
 15 16  1  0
 16 17  2  0
 17 18  1  0
 17 11  1  0
  6  1  1  0
 26 21  1  0
 12 19  1  0
  5  8  1  0
  7  9  1  0
M  END
> <minimizedAffinity>
-6.21396

> <CNNscore>
0.5868103504

> <CNNaffinity>
4.5780391693

> <CNN_VS>
2.6864407063

> <CNNaffinity_variance>
0.1660437435

$$$$



 26 28  0  0  0  0  0  0  0  0999 V2000
   38.1552   -2.4633   15.0335 C   0  0  0  0  0  0  0  0  0  0  0  0
   37.6196   -1.6578   16.1033 O   0  0  0  0  0  0  0  0  0  0  0  0
   38.5803   -0.6268   16.3966 C   0  0  0  0  0  0  0  0  0  0  0  0
   39.9297   -1.1578   15.9282 C   0  0  0  0  0  0  0  0  0  0  0  0
   40.8609   -0.1101   15.6844 O   0  0  0  0  0  0  0  0  0  0  0  0
   39.5413   -1.8956   14.6603 C   0  0  0  0  0  0  0  0  0  0  0  0
   40.4918   -2.9155   14.3472 O   0  0  0  0  0  0  0  0  0  0  0  0
   40.4899    0.5076   15.0350 H   0  0  0  0  0  0  0  0  0  0  0  0
   40.5764   -3.5209   15.1004 H   0  0  0  0  0  0  0  0  0  0  0  0
   34.7540   -2.4863   10.7271 O   0  0  0  0  0  0  0  0  0  0  0  0
   35.5062   -2.5274   11.6945 C   0  0  0  0  0  0  0  0  0  0  0  0
   36.3383   -1.4812   11.9954 N   0  0  0  0  0  0  0  0  0  0  0  0
   37.1895   -1.4014   13.0647 C   0  0  0  0  0  0  0  0  0  0  0  0
   37.8538   -0.3850   13.2590 O   0  0  0  0  0  0  0  0  0  0  0  0
   37.2261   -2.5138   13.8970 N   0  0  0  0  0  0  0  0  0  0  0  0
   36.4291   -3.6207   13.6533 C   0  0  0  0  0  0  0  0  0  0  0  0
   35.5869   -3.6846   12.6173 C   0  0  0  0  0  0  0  0  0  0  0  0
   34.6016   -5.0583   12.3254 Cl  0  0  0  0  0  0  0  0  0  0  0  0
   36.3224   -0.7111   11.3824 H   0  0  0  0  0  0  0  0  0  0  0  0
   38.5595   -0.2920   17.8986 C   0  0  0  0  0  0  0  0  0  0  0  0
   37.7984    0.9298   18.2295 N   0  0  0  0  0  0  0  0  0  0  0  0
   37.8773    1.9260   17.1437 C   0  0  0  0  0  0  0  0  0  0  0  0
   38.8955    3.0359   17.3932 C   0  0  0  0  0  0  0  0  0  0  0  0
   38.5681    3.8127   18.6670 C   0  0  0  0  0  0  0  0  0  0  0  0
   37.8420    2.9509   19.6981 C   0  0  0  0  0  0  0  0  0  0  0  0
   38.2069    1.4762   19.5410 C   0  0  0  0  0  0  0  0  0  0  0  0
 10 11  2  0
 11 12  1  0
 12 13  1  0
 13 14  2  0
 13 15  1  0
  1 15  1  0
  1  2  1  0
  2  3  1  0
  3 20  1  0
 20 21  1  0
 21 22  1  0
 22 23  1  0
 23 24  1  0
 24 25  1  0
 25 26  1  0
  3  4  1  0
  4  5  1  0
  4  6  1  0
  6  7  1  0
 15 16  1  0
 16 17  2  0
 17 18  1  0
 17 11  1  0
  6  1  1  0
 26 21  1  0
 12 19  1  0
  5  8  1  0
  7  9  1  0
M  END
> <minimizedAffinity>
-5.55110

> <CNNscore>
0.5613073707

> <CNNaffinity>
4.4641642570

> <CNN_VS>
2.5057682991

> <CNNaffinity_variance>
0.2090946585

$$$$



 26 28  0  0  0  0  0  0  0  0999 V2000
   37.3336   -1.7295   12.0635 C   0  0  0  0  0  0  0  0  0  0  0  0
   38.0972   -1.4973   13.2648 O   0  0  0  0  0  0  0  0  0  0  0  0
   37.7614   -0.1837   13.7484 C   0  0  0  0  0  0  0  0  0  0  0  0
   37.2612    0.5989   12.5404 C   0  0  0  0  0  0  0  0  0  0  0  0
   36.4426    1.6995   12.9182 O   0  0  0  0  0  0  0  0  0  0  0  0
   36.4879   -0.4680   11.7875 C   0  0  0  0  0  0  0  0  0  0  0  0
   36.3994   -0.1536   10.3964 O   0  0  0  0  0  0  0  0  0  0  0  0
   35.6992    1.3807   13.4536 H   0  0  0  0  0  0  0  0  0  0  0  0
   37.2915   -0.0372   10.0339 H   0  0  0  0  0  0  0  0  0  0  0  0
   34.1933   -6.2183   12.3849 O   0  0  0  0  0  0  0  0  0  0  0  0
   34.9313   -5.2407   12.3295 C   0  0  0  0  0  0  0  0  0  0  0  0
   34.5580   -4.1027   11.6639 N   0  0  0  0  0  0  0  0  0  0  0  0
   35.2803   -2.9438   11.5671 C   0  0  0  0  0  0  0  0  0  0  0  0
   34.8172   -1.9667   10.9817 O   0  0  0  0  0  0  0  0  0  0  0  0
   36.5273   -2.9516   12.1807 N   0  0  0  0  0  0  0  0  0  0  0  0
   36.9875   -4.0684   12.8598 C   0  0  0  0  0  0  0  0  0  0  0  0
   36.2692   -5.1906   12.9656 C   0  0  0  0  0  0  0  0  0  0  0  0
   36.8461   -6.5672   13.8112 Cl  0  0  0  0  0  0  0  0  0  0  0  0
   33.6842   -4.1201   11.2105 H   0  0  0  0  0  0  0  0  0  0  0  0
   38.9864    0.4668   14.4153 C   0  0  0  0  0  0  0  0  0  0  0  0
   40.2800   -0.0644   13.9399 N   0  0  0  0  0  0  0  0  0  0  0  0
   40.7427    0.6430   12.7303 C   0  0  0  0  0  0  0  0  0  0  0  0
   40.4692   -0.1085   11.4298 C   0  0  0  0  0  0  0  0  0  0  0  0
   41.1587   -1.4715   11.4214 C   0  0  0  0  0  0  0  0  0  0  0  0
   41.3157   -2.0475   12.8274 C   0  0  0  0  0  0  0  0  0  0  0  0
   40.2235   -1.5308   13.7614 C   0  0  0  0  0  0  0  0  0  0  0  0
 10 11  2  0
 11 12  1  0
 12 13  1  0
 13 14  2  0
 13 15  1  0
  1 15  1  0
  1  2  1  0
  2  3  1  0
  3 20  1  0
 20 21  1  0
 21 22  1  0
 22 23  1  0
 23 24  1  0
 24 25  1  0
 25 26  1  0
  3  4  1  0
  4  5  1  0
  4  6  1  0
  6  7  1  0
 15 16  1  0
 16 17  2  0
 17 18  1  0
 17 11  1  0
  6  1  1  0
 26 21  1  0
 12 19  1  0
  5  8  1  0
  7  9  1  0
M  END
> <minimizedAffinity>
-6.55536

> <CNNscore>
0.5538970828

> <CNNaffinity>
4.2627067566

> <CNN_VS>
2.3611009121

> <CNNaffinity_variance>
0.4472404420

$$$$



 26 28  0  0  0  0  0  0  0  0999 V2000
   38.5476   -1.8463   13.2292 C   0  0  0  0  0  0  0  0  0  0  0  0
   38.4665   -1.3176   14.5687 O   0  0  0  0  0  0  0  0  0  0  0  0
   38.5338    0.1173   14.4764 C   0  0  0  0  0  0  0  0  0  0  0  0
   39.2454    0.4259   13.1647 C   0  0  0  0  0  0  0  0  0  0  0  0
   38.9523    1.7357   12.6930 O   0  0  0  0  0  0  0  0  0  0  0  0
   38.6896   -0.6558   12.2570 C   0  0  0  0  0  0  0  0  0  0  0  0
   39.5822   -0.9277   11.1747 O   0  0  0  0  0  0  0  0  0  0  0  0
   37.9925    1.8371   12.5959 H   0  0  0  0  0  0  0  0  0  0  0  0
   40.4528   -1.1702   11.5269 H   0  0  0  0  0  0  0  0  0  0  0  0
   34.1437   -4.8940   12.0326 O   0  0  0  0  0  0  0  0  0  0  0  0
   35.1524   -4.2527   12.3060 C   0  0  0  0  0  0  0  0  0  0  0  0
   35.2220   -2.9030   12.0805 N   0  0  0  0  0  0  0  0  0  0  0  0
   36.2769   -2.0826   12.3779 C   0  0  0  0  0  0  0  0  0  0  0  0
   36.2032   -0.8724   12.1736 O   0  0  0  0  0  0  0  0  0  0  0  0
   37.3916   -2.7019   12.9305 N   0  0  0  0  0  0  0  0  0  0  0  0
   37.4095   -4.0658   13.1746 C   0  0  0  0  0  0  0  0  0  0  0  0
   36.3690   -4.8580   12.8982 C   0  0  0  0  0  0  0  0  0  0  0  0
   36.3993   -6.5452   13.2068 Cl  0  0  0  0  0  0  0  0  0  0  0  0
   34.4360   -2.4817   11.6634 H   0  0  0  0  0  0  0  0  0  0  0  0
   39.2639    0.6955   15.7017 C   0  0  0  0  0  0  0  0  0  0  0  0
   38.4164    1.5539   16.5541 N   0  0  0  0  0  0  0  0  0  0  0  0
   39.2236    2.3102   17.5308 C   0  0  0  0  0  0  0  0  0  0  0  0
   39.2328    1.7021   18.9311 C   0  0  0  0  0  0  0  0  0  0  0  0
   37.8214    1.6212   19.5098 C   0  0  0  0  0  0  0  0  0  0  0  0
   36.7597    1.4672   18.4225 C   0  0  0  0  0  0  0  0  0  0  0  0
   37.3308    0.7751   17.1867 C   0  0  0  0  0  0  0  0  0  0  0  0
 10 11  2  0
 11 12  1  0
 12 13  1  0
 13 14  2  0
 13 15  1  0
  1 15  1  0
  1  2  1  0
  2  3  1  0
  3 20  1  0
 20 21  1  0
 21 22  1  0
 22 23  1  0
 23 24  1  0
 24 25  1  0
 25 26  1  0
  3  4  1  0
  4  5  1  0
  4  6  1  0
  6  7  1  0
 15 16  1  0
 16 17  2  0
 17 18  1  0
 17 11  1  0
  6  1  1  0
 26 21  1  0
 12 19  1  0
  5  8  1  0
  7  9  1  0
M  END
> <minimizedAffinity>
-5.54808

> <CNNscore>
0.4760054052

> <CNNaffinity>
4.5951776505

> <CNN_VS>
2.1873292923

> <CNNaffinity_variance>
0.0163141564

$$$$
