


 19 20  0  0  0  0  0  0  0  0999 V2000
   -7.3642   10.0240   10.6507 C   0  0  0  0  0  0  0  0  0  0  0  0
   -7.3108   10.0706    9.2458 C   0  0  0  0  0  0  0  0  0  0  0  0
   -8.3511    9.5645    8.4713 C   0  0  0  0  0  0  0  0  0  0  0  0
   -8.2637    9.6268    7.1358 F   0  0  0  0  0  0  0  0  0  0  0  0
   -9.4713    8.9939    9.0563 C   0  0  0  0  0  0  0  0  0  0  0  0
   -9.5614    8.9206   10.4477 C   0  0  0  0  0  0  0  0  0  0  0  0
   -8.5089    9.4410   11.2296 C   0  0  0  0  0  0  0  0  0  0  0  0
  -10.7422    8.3066   11.0849 C   0  0  0  0  0  0  0  0  0  0  0  0
  -11.4759    8.9981   11.9801 C   0  0  0  0  0  0  0  0  0  0  0  0
  -12.6292    8.4184   12.6294 C   0  0  0  0  0  0  0  0  0  0  0  0
  -12.9858    7.1598   12.3541 C   0  0  0  0  0  0  0  0  0  0  0  0
  -12.2611    6.4216   11.4577 N   0  0  0  0  0  0  0  0  0  0  0  0
  -11.1511    6.8862   10.7873 C   0  0  0  0  0  0  0  0  0  0  0  0
  -10.5444    6.1704    9.9965 O   0  0  0  0  0  0  0  0  0  0  0  0
  -12.5523    5.4981   11.2805 H   0  0  0  0  0  0  0  0  0  0  0  0
   -6.6148   11.0131   12.9182 C   0  0  0  0  0  0  0  0  0  0  0  0
   -6.2074   10.5996   11.4860 C   0  0  0  0  0  0  0  0  0  0  0  0
   -5.0875    9.5448   11.6174 C   0  0  0  0  0  0  0  0  0  0  0  0
   -5.6418   11.8569   10.7910 C   0  0  0  0  0  0  0  0  0  0  0  0
 16 17  1  0
 17 18  1  0
 17 19  1  0
 17  1  1  0
  1  2  2  0
  2  3  1  0
  3  4  1  0
  3  5  2  0
  5  6  1  0
  6  8  1  0
  8  9  2  0
  9 10  1  0
 10 11  2  0
 11 12  1  0
 12 13  1  0
 13 14  2  0
  6  7  2  0
  7  1  1  0
 13  8  1  0
 12 15  1  0
M  END
> <minimizedAffinity>
-8.28715

> <CNNscore>
0.9781856537

> <CNNaffinity>
5.8956484795

> <CNN_VS>
5.7670388222

> <CNNaffinity_variance>
0.0213245880

$$$$



 19 20  0  0  0  0  0  0  0  0999 V2000
   -9.5700    9.0208    7.1903 C   0  0  0  0  0  0  0  0  0  0  0  0
   -8.3220    9.5442    7.5742 C   0  0  0  0  0  0  0  0  0  0  0  0
   -7.9691    9.6451    8.9171 C   0  0  0  0  0  0  0  0  0  0  0  0
   -6.7715   10.1493    9.2435 F   0  0  0  0  0  0  0  0  0  0  0  0
   -8.8351    9.2386    9.9208 C   0  0  0  0  0  0  0  0  0  0  0  0
  -10.0870    8.7202    9.5837 C   0  0  0  0  0  0  0  0  0  0  0  0
  -10.4386    8.6123    8.2218 C   0  0  0  0  0  0  0  0  0  0  0  0
  -11.0239    8.2932   10.6407 C   0  0  0  0  0  0  0  0  0  0  0  0
  -11.4364    9.1635   11.5843 C   0  0  0  0  0  0  0  0  0  0  0  0
  -12.3428    8.7704   12.6386 C   0  0  0  0  0  0  0  0  0  0  0  0
  -12.7858    7.5105   12.7006 C   0  0  0  0  0  0  0  0  0  0  0  0
  -12.3828    6.5947   11.7666 N   0  0  0  0  0  0  0  0  0  0  0  0
  -11.5257    6.8740   10.7250 C   0  0  0  0  0  0  0  0  0  0  0  0
  -11.2024    6.0045    9.9217 O   0  0  0  0  0  0  0  0  0  0  0  0
  -12.7283    5.6761   11.8443 H   0  0  0  0  0  0  0  0  0  0  0  0
  -11.2082    9.6889    5.3057 C   0  0  0  0  0  0  0  0  0  0  0  0
   -9.9337    8.9086    5.6995 C   0  0  0  0  0  0  0  0  0  0  0  0
   -8.7766    9.4625    4.8402 C   0  0  0  0  0  0  0  0  0  0  0  0
  -10.1736    7.4278    5.3345 C   0  0  0  0  0  0  0  0  0  0  0  0
 16 17  1  0
 17 18  1  0
 17 19  1  0
 17  1  1  0
  1  2  2  0
  2  3  1  0
  3  4  1  0
  3  5  2  0
  5  6  1  0
  6  8  1  0
  8  9  2  0
  9 10  1  0
 10 11  2  0
 11 12  1  0
 12 13  1  0
 13 14  2  0
  6  7  2  0
  7  1  1  0
 13  8  1  0
 12 15  1  0
M  END
> <minimizedAffinity>
-6.86387

> <CNNscore>
0.9187536836

> <CNNaffinity>
5.4538917542

> <CNN_VS>
5.0107831955

> <CNNaffinity_variance>
0.0857787132

$$$$



 19 20  0  0  0  0  0  0  0  0999 V2000
   -7.7297    9.8894   11.0366 C   0  0  0  0  0  0  0  0  0  0  0  0
   -7.5347    9.8185    9.6453 C   0  0  0  0  0  0  0  0  0  0  0  0
   -8.5746    9.4583    8.7927 C   0  0  0  0  0  0  0  0  0  0  0  0
   -8.3500    9.4015    7.4731 F   0  0  0  0  0  0  0  0  0  0  0  0
   -9.8347    9.1531    9.2844 C   0  0  0  0  0  0  0  0  0  0  0  0
  -10.0694    9.2037   10.6599 C   0  0  0  0  0  0  0  0  0  0  0  0
   -9.0155    9.5763   11.5204 C   0  0  0  0  0  0  0  0  0  0  0  0
  -11.4020    8.8713   11.1993 C   0  0  0  0  0  0  0  0  0  0  0  0
  -11.7195    7.5975   11.5068 C   0  0  0  0  0  0  0  0  0  0  0  0
  -13.0205    7.2407   12.0242 C   0  0  0  0  0  0  0  0  0  0  0  0
  -13.9497    8.1858   12.1989 C   0  0  0  0  0  0  0  0  0  0  0  0
  -13.6693    9.4893   11.8898 N   0  0  0  0  0  0  0  0  0  0  0  0
  -12.4605    9.9270   11.3952 C   0  0  0  0  0  0  0  0  0  0  0  0
  -12.2749   11.1121   11.1364 O   0  0  0  0  0  0  0  0  0  0  0  0
  -14.3781   10.1580   12.0301 H   0  0  0  0  0  0  0  0  0  0  0  0
   -5.3589    9.3400   11.9079 C   0  0  0  0  0  0  0  0  0  0  0  0
   -6.5684   10.3006   11.9583 C   0  0  0  0  0  0  0  0  0  0  0  0
   -6.0559   11.7000   11.5542 C   0  0  0  0  0  0  0  0  0  0  0  0
   -7.0581   10.3422   13.4218 C   0  0  0  0  0  0  0  0  0  0  0  0
 16 17  1  0
 17 18  1  0
 17 19  1  0
 17  1  1  0
  1  2  2  0
  2  3  1  0
  3  4  1  0
  3  5  2  0
  5  6  1  0
  6  8  1  0
  8  9  2  0
  9 10  1  0
 10 11  2  0
 11 12  1  0
 12 13  1  0
 13 14  2  0
  6  7  2  0
  7  1  1  0
 13  8  1  0
 12 15  1  0
M  END
> <minimizedAffinity>
-7.67284

> <CNNscore>
0.8738957047

> <CNNaffinity>
5.2236080170

> <CNN_VS>
4.5648884773

> <CNNaffinity_variance>
0.1630584151

$$$$



 19 20  0  0  0  0  0  0  0  0999 V2000
   -7.8462    9.8469   11.1917 C   0  0  0  0  0  0  0  0  0  0  0  0
   -8.9490    9.6995   12.0525 C   0  0  0  0  0  0  0  0  0  0  0  0
  -10.1811    9.2651   11.5717 C   0  0  0  0  0  0  0  0  0  0  0  0
  -11.2082    9.1373   12.4225 F   0  0  0  0  0  0  0  0  0  0  0  0
  -10.3652    8.9677   10.2299 C   0  0  0  0  0  0  0  0  0  0  0  0
   -9.2986    9.1077    9.3396 C   0  0  0  0  0  0  0  0  0  0  0  0
   -8.0495    9.5409    9.8314 C   0  0  0  0  0  0  0  0  0  0  0  0
   -9.4816    8.8054    7.9070 C   0  0  0  0  0  0  0  0  0  0  0  0
   -8.9242    9.5909    6.9635 C   0  0  0  0  0  0  0  0  0  0  0  0
   -9.0971    9.3269    5.5535 C   0  0  0  0  0  0  0  0  0  0  0  0
   -9.8356    8.2855    5.1566 C   0  0  0  0  0  0  0  0  0  0  0  0
  -10.4258    7.4698    6.0838 N   0  0  0  0  0  0  0  0  0  0  0  0
  -10.3170    7.6377    7.4467 C   0  0  0  0  0  0  0  0  0  0  0  0
  -10.8742    6.8697    8.2249 O   0  0  0  0  0  0  0  0  0  0  0  0
  -10.9633    6.7133    5.7551 H   0  0  0  0  0  0  0  0  0  0  0  0
   -5.3952    9.2287   11.7321 C   0  0  0  0  0  0  0  0  0  0  0  0
   -6.4912   10.3180   11.7478 C   0  0  0  0  0  0  0  0  0  0  0  0
   -5.9686   11.5024   10.9062 C   0  0  0  0  0  0  0  0  0  0  0  0
   -6.6623   10.7729   13.2133 C   0  0  0  0  0  0  0  0  0  0  0  0
 16 17  1  0
 17 18  1  0
 17 19  1  0
 17  1  1  0
  1  2  2  0
  2  3  1  0
  3  4  1  0
  3  5  2  0
  5  6  1  0
  6  8  1  0
  8  9  2  0
  9 10  1  0
 10 11  2  0
 11 12  1  0
 12 13  1  0
 13 14  2  0
  6  7  2  0
  7  1  1  0
 13  8  1  0
 12 15  1  0
M  END
> <minimizedAffinity>
-7.57238

> <CNNscore>
0.8427847624

> <CNNaffinity>
5.6342220306

> <CNN_VS>
4.7484364510

> <CNNaffinity_variance>
0.2799226642

$$$$



 19 20  0  0  0  0  0  0  0  0999 V2000
   -7.9152   10.1946   11.1205 C   0  0  0  0  0  0  0  0  0  0  0  0
   -8.9357    9.6166   11.8971 C   0  0  0  0  0  0  0  0  0  0  0  0
  -10.1726    9.3055   11.3391 C   0  0  0  0  0  0  0  0  0  0  0  0
  -11.1199    8.7560   12.1110 F   0  0  0  0  0  0  0  0  0  0  0  0
  -10.4427    9.5583   10.0027 C   0  0  0  0  0  0  0  0  0  0  0  0
   -9.4601   10.1382    9.1980 C   0  0  0  0  0  0  0  0  0  0  0  0
   -8.2053   10.4453    9.7647 C   0  0  0  0  0  0  0  0  0  0  0  0
   -9.7360   10.4232    7.7767 C   0  0  0  0  0  0  0  0  0  0  0  0
  -10.6350   11.3656    7.4279 C   0  0  0  0  0  0  0  0  0  0  0  0
  -10.9350   11.6569    6.0449 C   0  0  0  0  0  0  0  0  0  0  0  0
  -10.3209   10.9754    5.0725 C   0  0  0  0  0  0  0  0  0  0  0  0
   -9.4085   10.0043    5.3858 N   0  0  0  0  0  0  0  0  0  0  0  0
   -9.0546    9.6574    6.6710 C   0  0  0  0  0  0  0  0  0  0  0  0
   -8.2293    8.7744    6.8832 O   0  0  0  0  0  0  0  0  0  0  0  0
   -8.9769    9.5222    4.6439 H   0  0  0  0  0  0  0  0  0  0  0  0
   -6.6422   10.9794   13.2290 C   0  0  0  0  0  0  0  0  0  0  0  0
   -6.5523   10.5197   11.7564 C   0  0  0  0  0  0  0  0  0  0  0  0
   -5.6528    9.2650   11.7248 C   0  0  0  0  0  0  0  0  0  0  0  0
   -5.8684   11.6548   10.9643 C   0  0  0  0  0  0  0  0  0  0  0  0
 16 17  1  0
 17 18  1  0
 17 19  1  0
 17  1  1  0
  1  2  2  0
  2  3  1  0
  3  4  1  0
  3  5  2  0
  5  6  1  0
  6  8  1  0
  8  9  2  0
  9 10  1  0
 10 11  2  0
 11 12  1  0
 12 13  1  0
 13 14  2  0
  6  7  2  0
  7  1  1  0
 13  8  1  0
 12 15  1  0
M  END
> <minimizedAffinity>
-7.06049

> <CNNscore>
0.6802027822

> <CNNaffinity>
5.1276926994

> <CNN_VS>
3.4878709316

> <CNNaffinity_variance>
0.6133310199

$$$$



 19 20  0  0  0  0  0  0  0  0999 V2000
  -10.6637    8.7322    4.5831 C   0  0  0  0  0  0  0  0  0  0  0  0
   -9.7125    9.7684    4.5689 C   0  0  0  0  0  0  0  0  0  0  0  0
   -9.3150   10.3607    3.3734 C   0  0  0  0  0  0  0  0  0  0  0  0
   -8.4062   11.3448    3.4004 F   0  0  0  0  0  0  0  0  0  0  0  0
   -9.8380    9.9478    2.1574 C   0  0  0  0  0  0  0  0  0  0  0  0
  -10.7793    8.9170    2.1257 C   0  0  0  0  0  0  0  0  0  0  0  0
  -11.1855    8.3240    3.3395 C   0  0  0  0  0  0  0  0  0  0  0  0
  -11.3372    8.4591    0.8386 C   0  0  0  0  0  0  0  0  0  0  0  0
  -12.5260    8.9225    0.4026 C   0  0  0  0  0  0  0  0  0  0  0  0
  -13.1028    8.4823   -0.8469 C   0  0  0  0  0  0  0  0  0  0  0  0
  -12.4581    7.5837   -1.5980 C   0  0  0  0  0  0  0  0  0  0  0  0
  -11.2532    7.0824   -1.1854 N   0  0  0  0  0  0  0  0  0  0  0  0
  -10.6229    7.4417   -0.0144 C   0  0  0  0  0  0  0  0  0  0  0  0
   -9.5420    6.9518    0.2980 O   0  0  0  0  0  0  0  0  0  0  0  0
  -10.8077    6.4215   -1.7634 H   0  0  0  0  0  0  0  0  0  0  0  0
  -11.9079    9.0503    6.8264 C   0  0  0  0  0  0  0  0  0  0  0  0
  -11.0959    8.1002    5.9176 C   0  0  0  0  0  0  0  0  0  0  0  0
  -11.9808    6.8647    5.6439 C   0  0  0  0  0  0  0  0  0  0  0  0
   -9.8467    7.6639    6.7130 C   0  0  0  0  0  0  0  0  0  0  0  0
 16 17  1  0
 17 18  1  0
 17 19  1  0
 17  1  1  0
  1  2  2  0
  2  3  1  0
  3  4  1  0
  3  5  2  0
  5  6  1  0
  6  8  1  0
  8  9  2  0
  9 10  1  0
 10 11  2  0
 11 12  1  0
 12 13  1  0
 13 14  2  0
  6  7  2  0
  7  1  1  0
 13  8  1  0
 12 15  1  0
M  END
> <minimizedAffinity>
-6.12836

> <CNNscore>
0.5887545943

> <CNNaffinity>
4.6683335304

> <CNN_VS>
2.7485027313

> <CNNaffinity_variance>
0.3206407726

$$$$



 19 20  0  0  0  0  0  0  0  0999 V2000
  -10.0369    9.3174    6.9419 C   0  0  0  0  0  0  0  0  0  0  0  0
   -8.9210    9.4225    7.7919 C   0  0  0  0  0  0  0  0  0  0  0  0
   -8.9940    9.0239    9.1238 C   0  0  0  0  0  0  0  0  0  0  0  0
   -7.9098    9.1396    9.9025 F   0  0  0  0  0  0  0  0  0  0  0  0
  -10.1676    8.5150    9.6589 C   0  0  0  0  0  0  0  0  0  0  0  0
  -11.3012    8.4007    8.8518 C   0  0  0  0  0  0  0  0  0  0  0  0
  -11.2218    8.7985    7.5008 C   0  0  0  0  0  0  0  0  0  0  0  0
  -12.5605    7.8711    9.4095 C   0  0  0  0  0  0  0  0  0  0  0  0
  -13.2941    8.6079   10.2678 C   0  0  0  0  0  0  0  0  0  0  0  0
  -14.5242    8.1103   10.8397 C   0  0  0  0  0  0  0  0  0  0  0  0
  -14.9553    6.8839   10.5276 C   0  0  0  0  0  0  0  0  0  0  0  0
  -14.2340    6.1012    9.6670 N   0  0  0  0  0  0  0  0  0  0  0  0
  -13.0541    6.4875    9.0701 C   0  0  0  0  0  0  0  0  0  0  0  0
  -12.4551    5.7350    8.3080 O   0  0  0  0  0  0  0  0  0  0  0  0
  -14.5812    5.2033    9.4611 H   0  0  0  0  0  0  0  0  0  0  0  0
   -8.5275    9.5429    4.8556 C   0  0  0  0  0  0  0  0  0  0  0  0
   -9.9295    9.7539    5.4705 C   0  0  0  0  0  0  0  0  0  0  0  0
  -10.9286    8.9450    4.6152 C   0  0  0  0  0  0  0  0  0  0  0  0
  -10.2594   11.2574    5.3506 C   0  0  0  0  0  0  0  0  0  0  0  0
 16 17  1  0
 17 18  1  0
 17 19  1  0
 17  1  1  0
  1  2  2  0
  2  3  1  0
  3  4  1  0
  3  5  2  0
  5  6  1  0
  6  8  1  0
  8  9  2  0
  9 10  1  0
 10 11  2  0
 11 12  1  0
 12 13  1  0
 13 14  2  0
  6  7  2  0
  7  1  1  0
 13  8  1  0
 12 15  1  0
M  END
> <minimizedAffinity>
-5.67079

> <CNNscore>
0.5727245212

> <CNNaffinity>
5.1103987694

> <CNN_VS>
2.9268507957

> <CNNaffinity_variance>
0.0026754960

$$$$



 19 20  0  0  0  0  0  0  0  0999 V2000
   -9.1404    8.8902    9.5455 C   0  0  0  0  0  0  0  0  0  0  0  0
  -10.0211    7.9381   10.0902 C   0  0  0  0  0  0  0  0  0  0  0  0
  -10.8386    7.1655    9.2700 C   0  0  0  0  0  0  0  0  0  0  0  0
  -11.6646    6.2690    9.8260 F   0  0  0  0  0  0  0  0  0  0  0  0
  -10.8169    7.3104    7.8912 C   0  0  0  0  0  0  0  0  0  0  0  0
   -9.9628    8.2495    7.3096 C   0  0  0  0  0  0  0  0  0  0  0  0
   -9.1303    9.0256    8.1430 C   0  0  0  0  0  0  0  0  0  0  0  0
   -9.9360    8.4231    5.8445 C   0  0  0  0  0  0  0  0  0  0  0  0
   -9.2523    9.4427    5.2869 C   0  0  0  0  0  0  0  0  0  0  0  0
   -9.2190    9.6450    3.8566 C   0  0  0  0  0  0  0  0  0  0  0  0
   -9.8874    8.8136    3.0507 C   0  0  0  0  0  0  0  0  0  0  0  0
  -10.6009    7.7718    3.5789 N   0  0  0  0  0  0  0  0  0  0  0  0
  -10.6905    7.4960    4.9255 C   0  0  0  0  0  0  0  0  0  0  0  0
  -11.3502    6.5452    5.3338 O   0  0  0  0  0  0  0  0  0  0  0  0
  -11.0817    7.1808    2.9554 H   0  0  0  0  0  0  0  0  0  0  0  0
   -6.7755    9.2305   10.5320 C   0  0  0  0  0  0  0  0  0  0  0  0
   -8.2383    9.7249   10.4712 C   0  0  0  0  0  0  0  0  0  0  0  0
   -8.2046   11.1886    9.9805 C   0  0  0  0  0  0  0  0  0  0  0  0
   -8.7944    9.6846   11.9109 C   0  0  0  0  0  0  0  0  0  0  0  0
 16 17  1  0
 17 18  1  0
 17 19  1  0
 17  1  1  0
  1  2  2  0
  2  3  1  0
  3  4  1  0
  3  5  2  0
  5  6  1  0
  6  8  1  0
  8  9  2  0
  9 10  1  0
 10 11  2  0
 11 12  1  0
 12 13  1  0
 13 14  2  0
  6  7  2  0
  7  1  1  0
 13  8  1  0
 12 15  1  0
M  END
> <minimizedAffinity>
-6.68612

> <CNNscore>
0.5584706664

> <CNNaffinity>
5.3634490967

> <CNN_VS>
2.9953289032

> <CNNaffinity_variance>
0.0616342388

$$$$



 19 20  0  0  0  0  0  0  0  0999 V2000
   -7.6787   10.0102    9.4963 C   0  0  0  0  0  0  0  0  0  0  0  0
   -8.6648   10.1799   10.4850 C   0  0  0  0  0  0  0  0  0  0  0  0
  -10.0044    9.9143   10.2150 C   0  0  0  0  0  0  0  0  0  0  0  0
  -10.9146   10.0882   11.1826 F   0  0  0  0  0  0  0  0  0  0  0  0
  -10.4131    9.4787    8.9636 C   0  0  0  0  0  0  0  0  0  0  0  0
   -9.4676    9.3043    7.9511 C   0  0  0  0  0  0  0  0  0  0  0  0
   -8.1101    9.5672    8.2302 C   0  0  0  0  0  0  0  0  0  0  0  0
   -9.8883    8.8515    6.6111 C   0  0  0  0  0  0  0  0  0  0  0  0
  -10.0531    7.5388    6.3509 C   0  0  0  0  0  0  0  0  0  0  0  0
  -10.4515    7.0656    5.0452 C   0  0  0  0  0  0  0  0  0  0  0  0
  -10.6563    7.9393    4.0542 C   0  0  0  0  0  0  0  0  0  0  0  0
  -10.4904    9.2797    4.2759 N   0  0  0  0  0  0  0  0  0  0  0  0
  -10.1165    9.8263    5.4838 C   0  0  0  0  0  0  0  0  0  0  0  0
   -9.9835   11.0391    5.6150 O   0  0  0  0  0  0  0  0  0  0  0  0
  -10.6488    9.8936    3.5227 H   0  0  0  0  0  0  0  0  0  0  0  0
   -5.9123   11.7820   10.1460 C   0  0  0  0  0  0  0  0  0  0  0  0
   -6.2029   10.2994    9.8211 C   0  0  0  0  0  0  0  0  0  0  0  0
   -5.7701    9.4705   11.0498 C   0  0  0  0  0  0  0  0  0  0  0  0
   -5.3214    9.9151    8.6133 C   0  0  0  0  0  0  0  0  0  0  0  0
 16 17  1  0
 17 18  1  0
 17 19  1  0
 17  1  1  0
  1  2  2  0
  2  3  1  0
  3  4  1  0
  3  5  2  0
  5  6  1  0
  6  8  1  0
  8  9  2  0
  9 10  1  0
 10 11  2  0
 11 12  1  0
 12 13  1  0
 13 14  2  0
  6  7  2  0
  7  1  1  0
 13  8  1  0
 12 15  1  0
M  END
> <minimizedAffinity>
-6.92314

> <CNNscore>
0.5099155903

> <CNNaffinity>
4.9701676369

> <CNN_VS>
2.5343658924

> <CNNaffinity_variance>
0.2187245637

$$$$
