


 26 26  0  0  0  0  0  0  0  0999 V2000
   83.4037   36.7276   36.8337 C   0  0  0  0  0  0  0  0  0  0  0  0
   82.6170   35.8904   37.7630 N   0  0  0  0  0  0  0  0  0  0  0  0
   81.8033   36.4136   38.0863 H   0  0  0  0  0  0  0  0  0  0  0  0
   83.1960   35.6339   38.5626 H   0  0  0  0  0  0  0  0  0  0  0  0
   82.7099   37.0354   35.4863 C   0  0  0  0  0  0  0  0  0  0  0  0
   80.8568   34.2118   35.1246 C   0  0  0  0  0  0  0  0  0  0  0  0
   82.0132   34.7729   34.3986 C   0  0  0  0  0  0  0  0  0  0  0  0
   82.4600   34.0188   33.3501 O   0  0  0  0  0  0  0  0  0  0  0  0
   83.5474   34.6485   32.7585 N   0  0  0  0  0  0  0  0  0  0  0  0
   83.7141   35.7449   33.4756 C   0  0  0  0  0  0  0  0  0  0  0  0
   84.7006   36.5629   33.1038 O   0  0  0  0  0  0  0  0  0  0  0  0
   82.7888   35.9113   34.5154 C   0  0  0  0  0  0  0  0  0  0  0  0
   85.2545   36.3321   32.3842 H   0  0  0  0  0  0  0  0  0  0  0  0
   83.9423   37.9865   37.5870 C   0  0  0  0  0  0  0  0  0  0  0  0
   85.5026   38.0707   38.0319 N   0  0  0  0  0  0  0  0  0  0  0  0
   86.0191   39.5062   37.8307 C   0  0  0  0  0  0  0  0  0  0  0  0
   86.2658   37.1380   37.1049 C   0  0  0  0  0  0  0  0  0  0  0  0
   85.4940   37.6801   39.5101 C   0  0  0  0  0  0  0  0  0  0  0  0
   86.7372   37.5781   40.3708 N   0  0  0  0  0  0  0  0  0  0  0  0
   87.1281   38.9338   41.0064 C   0  0  0  0  0  0  0  0  0  0  0  0
   87.9715   37.0929   39.6100 C   0  0  0  0  0  0  0  0  0  0  0  0
   86.4899   36.6776   41.6161 C   0  0  0  0  0  0  0  0  0  0  0  0
   86.5621   35.1630   41.5689 N   0  0  0  0  0  0  0  0  0  0  0  0
   87.9637   34.5932   41.3162 C   0  0  0  0  0  0  0  0  0  0  0  0
   85.7461   34.7545   40.2737 C   0  0  0  0  0  0  0  0  0  0  0  0
   85.8915   34.3955   42.7010 C   0  0  0  0  0  0  0  0  0  0  0  0
  6  7  1  0
  7  8  1  0
  8  9  1  0
  9 10  2  0
 10 11  1  0
 10 12  1  0
 12  5  1  0
  5  1  1  0
  1  2  1  0
  1 14  1  0
 14 15  1  0
 15 16  1  0
 15 17  1  0
 15 18  1  0
 18 19  1  0
 19 20  1  0
 19 21  1  0
 19 22  1  0
 22 23  1  0
 23 24  1  0
 23 25  1  0
 23 26  1  0
 12  7  2  0
 11 13  1  0
  2  3  1  0
  2  4  1  0
M  CHG 1  15   1
M  CHG 1  19   1
M  CHG 1  23   1
M  END
> <minimizedAffinity>
-4.53703

> <CNNscore>
0.1251388192

> <CNNaffinity>
4.0396919250

> <CNN_VS>
0.5055222511

> <CNNaffinity_variance>
0.5364141464

$$$$



 26 26  0  0  0  0  0  0  0  0999 V2000
   71.2666   18.2322   43.7296 C   0  0  0  0  0  0  0  0  0  0  0  0
   70.8793   18.5299   42.3350 N   0  0  0  0  0  0  0  0  0  0  0  0
   71.0443   19.5173   42.1397 H   0  0  0  0  0  0  0  0  0  0  0  0
   69.8902   18.3181   42.2042 H   0  0  0  0  0  0  0  0  0  0  0  0
   72.7821   18.3302   44.0210 C   0  0  0  0  0  0  0  0  0  0  0  0
   72.6873   14.9471   43.7320 C   0  0  0  0  0  0  0  0  0  0  0  0
   73.2245   15.8691   44.7521 C   0  0  0  0  0  0  0  0  0  0  0  0
   73.8172   15.2642   45.8246 O   0  0  0  0  0  0  0  0  0  0  0  0
   74.2724   16.2338   46.7086 N   0  0  0  0  0  0  0  0  0  0  0  0
   73.9303   17.3751   46.1390 C   0  0  0  0  0  0  0  0  0  0  0  0
   74.2729   18.4942   46.7801 O   0  0  0  0  0  0  0  0  0  0  0  0
   73.2816   17.2421   44.9034 C   0  0  0  0  0  0  0  0  0  0  0  0
   74.7072   18.4450   47.6090 H   0  0  0  0  0  0  0  0  0  0  0  0
   70.3644   19.0471   44.7117 C   0  0  0  0  0  0  0  0  0  0  0  0
   68.9584   18.4272   45.2393 N   0  0  0  0  0  0  0  0  0  0  0  0
   69.1442   16.9355   45.5684 C   0  0  0  0  0  0  0  0  0  0  0  0
   67.9713   18.5590   44.0904 C   0  0  0  0  0  0  0  0  0  0  0  0
   68.6347   19.2415   46.4922 C   0  0  0  0  0  0  0  0  0  0  0  0
   67.2313   19.6134   46.9267 N   0  0  0  0  0  0  0  0  0  0  0  0
   66.3286   18.3732   47.1316 C   0  0  0  0  0  0  0  0  0  0  0  0
   66.4992   20.5129   45.9306 C   0  0  0  0  0  0  0  0  0  0  0  0
   67.2320   20.2700   48.3380 C   0  0  0  0  0  0  0  0  0  0  0  0
   66.3986   19.7484   49.4932 N   0  0  0  0  0  0  0  0  0  0  0  0
   64.8868   19.9609   49.3433 C   0  0  0  0  0  0  0  0  0  0  0  0
   66.7908   20.6626   50.7265 C   0  0  0  0  0  0  0  0  0  0  0  0
   66.6734   18.3273   49.9681 C   0  0  0  0  0  0  0  0  0  0  0  0
  6  7  1  0
  7  8  1  0
  8  9  1  0
  9 10  2  0
 10 11  1  0
 10 12  1  0
 12  5  1  0
  5  1  1  0
  1  2  1  0
  1 14  1  0
 14 15  1  0
 15 16  1  0
 15 17  1  0
 15 18  1  0
 18 19  1  0
 19 20  1  0
 19 21  1  0
 19 22  1  0
 22 23  1  0
 23 24  1  0
 23 25  1  0
 23 26  1  0
 12  7  2  0
 11 13  1  0
  2  3  1  0
  2  4  1  0
M  CHG 1  15   1
M  CHG 1  19   1
M  CHG 1  23   1
M  END
> <minimizedAffinity>
-5.34237

> <CNNscore>
0.1108606756

> <CNNaffinity>
3.9161555767

> <CNN_VS>
0.4341476560

> <CNNaffinity_variance>
0.5671669245

$$$$



 26 26  0  0  0  0  0  0  0  0999 V2000
   82.7871   35.9121   32.4325 C   0  0  0  0  0  0  0  0  0  0  0  0
   84.0022   35.4281   33.1199 N   0  0  0  0  0  0  0  0  0  0  0  0
   84.6294   36.2132   33.2950 H   0  0  0  0  0  0  0  0  0  0  0  0
   84.4741   34.7405   32.5325 H   0  0  0  0  0  0  0  0  0  0  0  0
   81.8729   36.8213   33.2863 C   0  0  0  0  0  0  0  0  0  0  0  0
   80.1894   34.4511   35.0431 C   0  0  0  0  0  0  0  0  0  0  0  0
   81.1721   35.4889   35.4126 C   0  0  0  0  0  0  0  0  0  0  0  0
   81.4960   35.5333   36.7395 O   0  0  0  0  0  0  0  0  0  0  0  0
   82.4181   36.5490   36.9562 N   0  0  0  0  0  0  0  0  0  0  0  0
   82.6044   37.0757   35.7595 C   0  0  0  0  0  0  0  0  0  0  0  0
   83.4781   38.0807   35.6737 O   0  0  0  0  0  0  0  0  0  0  0  0
   81.8745   36.4648   34.7303 C   0  0  0  0  0  0  0  0  0  0  0  0
   83.9024   38.3997   36.4458 H   0  0  0  0  0  0  0  0  0  0  0  0
   83.1721   36.5064   31.0392 C   0  0  0  0  0  0  0  0  0  0  0  0
   83.8472   37.9805   30.9348 N   0  0  0  0  0  0  0  0  0  0  0  0
   84.4507   38.3685   32.2961 C   0  0  0  0  0  0  0  0  0  0  0  0
   82.7219   38.9471   30.6013 C   0  0  0  0  0  0  0  0  0  0  0  0
   84.9293   37.8239   29.8661 C   0  0  0  0  0  0  0  0  0  0  0  0
   86.4142   37.9736   30.1298 N   0  0  0  0  0  0  0  0  0  0  0  0
   86.7958   39.4110   30.5575 C   0  0  0  0  0  0  0  0  0  0  0  0
   87.2881   37.6433   28.9196 C   0  0  0  0  0  0  0  0  0  0  0  0
   86.8585   37.1248   31.3565 C   0  0  0  0  0  0  0  0  0  0  0  0
   87.2963   35.6766   31.2451 N   0  0  0  0  0  0  0  0  0  0  0  0
   87.5729   34.9831   32.5852 C   0  0  0  0  0  0  0  0  0  0  0  0
   88.7164   35.7309   30.5446 C   0  0  0  0  0  0  0  0  0  0  0  0
   86.4656   34.7614   30.3546 C   0  0  0  0  0  0  0  0  0  0  0  0
  6  7  1  0
  7  8  1  0
  8  9  1  0
  9 10  2  0
 10 11  1  0
 10 12  1  0
 12  5  1  0
  5  1  1  0
  1  2  1  0
  1 14  1  0
 14 15  1  0
 15 16  1  0
 15 17  1  0
 15 18  1  0
 18 19  1  0
 19 20  1  0
 19 21  1  0
 19 22  1  0
 22 23  1  0
 23 24  1  0
 23 25  1  0
 23 26  1  0
 12  7  2  0
 11 13  1  0
  2  3  1  0
  2  4  1  0
M  CHG 1  15   1
M  CHG 1  19   1
M  CHG 1  23   1
M  END
> <minimizedAffinity>
-4.37304

> <CNNscore>
0.0850730091

> <CNNaffinity>
3.9844884872

> <CNN_VS>
0.3389724195

> <CNNaffinity_variance>
0.3956590593

$$$$



 26 26  0  0  0  0  0  0  0  0999 V2000
   69.7466   18.2633   45.4237 C   0  0  0  0  0  0  0  0  0  0  0  0
   69.6230   19.6883   45.7945 N   0  0  0  0  0  0  0  0  0  0  0  0
   69.0436   19.7733   46.6296 H   0  0  0  0  0  0  0  0  0  0  0  0
   69.1912   20.2031   45.0271 H   0  0  0  0  0  0  0  0  0  0  0  0
   70.5537   17.3977   46.4191 C   0  0  0  0  0  0  0  0  0  0  0  0
   72.6968   18.2511   43.9258 C   0  0  0  0  0  0  0  0  0  0  0  0
   72.8515   18.0522   45.3804 C   0  0  0  0  0  0  0  0  0  0  0  0
   74.1168   18.2442   45.8597 O   0  0  0  0  0  0  0  0  0  0  0  0
   74.1302   18.0221   47.2305 N   0  0  0  0  0  0  0  0  0  0  0  0
   72.8818   17.7001   47.5169 C   0  0  0  0  0  0  0  0  0  0  0  0
   72.6034   17.4504   48.7979 O   0  0  0  0  0  0  0  0  0  0  0  0
   72.0085   17.7073   46.4204 C   0  0  0  0  0  0  0  0  0  0  0  0
   73.2856   17.4780   49.4396 H   0  0  0  0  0  0  0  0  0  0  0  0
   68.3387   17.6899   45.0609 C   0  0  0  0  0  0  0  0  0  0  0  0
   67.1973   17.5326   46.2063 N   0  0  0  0  0  0  0  0  0  0  0  0
   67.4573   18.5454   47.3354 C   0  0  0  0  0  0  0  0  0  0  0  0
   67.3382   16.1254   46.7646 C   0  0  0  0  0  0  0  0  0  0  0  0
   65.8877   17.8313   45.4760 C   0  0  0  0  0  0  0  0  0  0  0  0
   65.7794   18.7148   44.2494 N   0  0  0  0  0  0  0  0  0  0  0  0
   64.3270   18.8232   43.7264 C   0  0  0  0  0  0  0  0  0  0  0  0
   66.6220   18.2310   43.0691 C   0  0  0  0  0  0  0  0  0  0  0  0
   66.1308   20.1935   44.5853 C   0  0  0  0  0  0  0  0  0  0  0  0
   65.2198   21.0966   45.3951 N   0  0  0  0  0  0  0  0  0  0  0  0
   65.9236   21.9001   46.4961 C   0  0  0  0  0  0  0  0  0  0  0  0
   64.2693   20.1108   46.1920 C   0  0  0  0  0  0  0  0  0  0  0  0
   64.2696   22.0039   44.6241 C   0  0  0  0  0  0  0  0  0  0  0  0
  6  7  1  0
  7  8  1  0
  8  9  1  0
  9 10  2  0
 10 11  1  0
 10 12  1  0
 12  5  1  0
  5  1  1  0
  1  2  1  0
  1 14  1  0
 14 15  1  0
 15 16  1  0
 15 17  1  0
 15 18  1  0
 18 19  1  0
 19 20  1  0
 19 21  1  0
 19 22  1  0
 22 23  1  0
 23 24  1  0
 23 25  1  0
 23 26  1  0
 12  7  2  0
 11 13  1  0
  2  3  1  0
  2  4  1  0
M  CHG 1  15   1
M  CHG 1  19   1
M  CHG 1  23   1
M  END
> <minimizedAffinity>
-4.47513

> <CNNscore>
0.0829047486

> <CNNaffinity>
3.6840114594

> <CNN_VS>
0.3054220378

> <CNNaffinity_variance>
0.6753310561

$$$$



 26 26  0  0  0  0  0  0  0  0999 V2000
   70.8378   17.0771   46.6825 C   0  0  0  0  0  0  0  0  0  0  0  0
   71.7496   17.2703   47.8290 N   0  0  0  0  0  0  0  0  0  0  0  0
   72.0066   16.3622   48.2159 H   0  0  0  0  0  0  0  0  0  0  0  0
   71.2818   17.8251   48.5458 H   0  0  0  0  0  0  0  0  0  0  0  0
   71.4799   16.4116   45.4431 C   0  0  0  0  0  0  0  0  0  0  0  0
   69.6974   17.1376   42.6442 C   0  0  0  0  0  0  0  0  0  0  0  0
   70.9730   17.6328   43.1983 C   0  0  0  0  0  0  0  0  0  0  0  0
   71.5974   18.5894   42.4483 O   0  0  0  0  0  0  0  0  0  0  0  0
   72.7810   18.9645   43.0705 N   0  0  0  0  0  0  0  0  0  0  0  0
   72.8238   18.2174   44.1587 C   0  0  0  0  0  0  0  0  0  0  0  0
   73.8697   18.3930   44.9685 O   0  0  0  0  0  0  0  0  0  0  0  0
   71.7249   17.3634   44.3267 C   0  0  0  0  0  0  0  0  0  0  0  0
   74.5442   19.0011   44.7376 H   0  0  0  0  0  0  0  0  0  0  0  0
   69.5163   16.3996   47.1694 C   0  0  0  0  0  0  0  0  0  0  0  0
   68.0898   17.1534   46.9783 N   0  0  0  0  0  0  0  0  0  0  0  0
   67.5349   16.8580   45.5737 C   0  0  0  0  0  0  0  0  0  0  0  0
   68.3708   18.6432   47.0937 C   0  0  0  0  0  0  0  0  0  0  0  0
   67.1999   16.5571   48.0693 C   0  0  0  0  0  0  0  0  0  0  0  0
   66.1051   17.3209   48.7868 N   0  0  0  0  0  0  0  0  0  0  0  0
   65.0126   16.3872   49.3607 C   0  0  0  0  0  0  0  0  0  0  0  0
   65.3785   18.3307   47.8981 C   0  0  0  0  0  0  0  0  0  0  0  0
   66.6516   18.0279   50.0613 C   0  0  0  0  0  0  0  0  0  0  0  0
   66.1860   19.4004   50.5095 N   0  0  0  0  0  0  0  0  0  0  0  0
   66.8196   20.5740   49.7517 C   0  0  0  0  0  0  0  0  0  0  0  0
   66.7387   19.5582   51.9860 C   0  0  0  0  0  0  0  0  0  0  0  0
   64.6843   19.6220   50.6377 C   0  0  0  0  0  0  0  0  0  0  0  0
  6  7  1  0
  7  8  1  0
  8  9  1  0
  9 10  2  0
 10 11  1  0
 10 12  1  0
 12  5  1  0
  5  1  1  0
  1  2  1  0
  1 14  1  0
 14 15  1  0
 15 16  1  0
 15 17  1  0
 15 18  1  0
 18 19  1  0
 19 20  1  0
 19 21  1  0
 19 22  1  0
 22 23  1  0
 23 24  1  0
 23 25  1  0
 23 26  1  0
 12  7  2  0
 11 13  1  0
  2  3  1  0
  2  4  1  0
M  CHG 1  15   1
M  CHG 1  19   1
M  CHG 1  23   1
M  END
> <minimizedAffinity>
-4.57669

> <CNNscore>
0.0673845485

> <CNNaffinity>
3.4978945255

> <CNN_VS>
0.2357040495

> <CNNaffinity_variance>
0.6559306979

$$$$



 26 26  0  0  0  0  0  0  0  0999 V2000
   83.6219   36.3937   37.3903 C   0  0  0  0  0  0  0  0  0  0  0  0
   82.3139   35.8604   37.8241 N   0  0  0  0  0  0  0  0  0  0  0  0
   81.7618   36.6107   38.2398 H   0  0  0  0  0  0  0  0  0  0  0  0
   82.4591   35.1230   38.5137 H   0  0  0  0  0  0  0  0  0  0  0  0
   83.5611   37.3898   36.2091 C   0  0  0  0  0  0  0  0  0  0  0  0
   80.9931   35.8887   34.5689 C   0  0  0  0  0  0  0  0  0  0  0  0
   82.4146   36.1196   34.2445 C   0  0  0  0  0  0  0  0  0  0  0  0
   82.8171   35.6378   33.0306 O   0  0  0  0  0  0  0  0  0  0  0  0
   84.1665   35.9116   32.8493 N   0  0  0  0  0  0  0  0  0  0  0  0
   84.5203   36.5362   33.9578 C   0  0  0  0  0  0  0  0  0  0  0  0
   85.7894   36.9397   34.0424 O   0  0  0  0  0  0  0  0  0  0  0  0
   83.4829   36.7225   34.8821 C   0  0  0  0  0  0  0  0  0  0  0  0
   86.3890   36.7488   33.3481 H   0  0  0  0  0  0  0  0  0  0  0  0
   84.4179   36.9098   38.6322 C   0  0  0  0  0  0  0  0  0  0  0  0
   85.6927   36.0740   39.1943 N   0  0  0  0  0  0  0  0  0  0  0  0
   86.8935   36.2701   38.2522 C   0  0  0  0  0  0  0  0  0  0  0  0
   85.2880   34.6085   39.1782 C   0  0  0  0  0  0  0  0  0  0  0  0
   85.9587   36.6763   40.5742 C   0  0  0  0  0  0  0  0  0  0  0  0
   87.1548   36.3298   41.4380 N   0  0  0  0  0  0  0  0  0  0  0  0
   88.2844   37.3822   41.3316 C   0  0  0  0  0  0  0  0  0  0  0  0
   87.7924   34.9842   41.0912 C   0  0  0  0  0  0  0  0  0  0  0  0
   86.7909   36.3737   42.9508 C   0  0  0  0  0  0  0  0  0  0  0  0
   86.2013   35.1901   43.6942 N   0  0  0  0  0  0  0  0  0  0  0  0
   85.3937   35.5543   44.9465 C   0  0  0  0  0  0  0  0  0  0  0  0
   87.4514   34.4007   44.2640 C   0  0  0  0  0  0  0  0  0  0  0  0
   85.4392   34.1578   42.8732 C   0  0  0  0  0  0  0  0  0  0  0  0
  6  7  1  0
  7  8  1  0
  8  9  1  0
  9 10  2  0
 10 11  1  0
 10 12  1  0
 12  5  1  0
  5  1  1  0
  1  2  1  0
  1 14  1  0
 14 15  1  0
 15 16  1  0
 15 17  1  0
 15 18  1  0
 18 19  1  0
 19 20  1  0
 19 21  1  0
 19 22  1  0
 22 23  1  0
 23 24  1  0
 23 25  1  0
 23 26  1  0
 12  7  2  0
 11 13  1  0
  2  3  1  0
  2  4  1  0
M  CHG 1  15   1
M  CHG 1  19   1
M  CHG 1  23   1
M  END
> <minimizedAffinity>
-4.43157

> <CNNscore>
0.0634329617

> <CNNaffinity>
3.6236612797

> <CNN_VS>
0.2298595607

> <CNNaffinity_variance>
0.9870912433

$$$$



 26 26  0  0  0  0  0  0  0  0999 V2000
   70.4066   17.4723   43.4316 C   0  0  0  0  0  0  0  0  0  0  0  0
   70.4424   18.4992   42.3697 N   0  0  0  0  0  0  0  0  0  0  0  0
   71.1110   19.2268   42.6228 H   0  0  0  0  0  0  0  0  0  0  0  0
   69.5154   18.9113   42.2637 H   0  0  0  0  0  0  0  0  0  0  0  0
   71.6986   16.6345   43.5728 C   0  0  0  0  0  0  0  0  0  0  0  0
   73.0487   15.3471   46.4114 C   0  0  0  0  0  0  0  0  0  0  0  0
   73.1865   16.6394   45.7114 C   0  0  0  0  0  0  0  0  0  0  0  0
   74.0310   17.5335   46.3073 O   0  0  0  0  0  0  0  0  0  0  0  0
   74.0680   18.7031   45.5593 N   0  0  0  0  0  0  0  0  0  0  0  0
   73.2435   18.4692   44.5545 C   0  0  0  0  0  0  0  0  0  0  0  0
   73.1035   19.4420   43.6519 O   0  0  0  0  0  0  0  0  0  0  0  0
   72.6570   17.1960   44.5620 C   0  0  0  0  0  0  0  0  0  0  0  0
   73.5555   20.2549   43.7653 H   0  0  0  0  0  0  0  0  0  0  0  0
   69.9004   18.1115   44.7649 C   0  0  0  0  0  0  0  0  0  0  0  0
   68.4406   17.7187   45.3601 N   0  0  0  0  0  0  0  0  0  0  0  0
   68.3765   16.2013   45.6082 C   0  0  0  0  0  0  0  0  0  0  0  0
   67.4256   18.0861   44.2892 C   0  0  0  0  0  0  0  0  0  0  0  0
   68.3433   18.5050   46.6677 C   0  0  0  0  0  0  0  0  0  0  0  0
   67.0406   18.8297   47.3708 N   0  0  0  0  0  0  0  0  0  0  0  0
   67.0858   18.4956   48.8811 C   0  0  0  0  0  0  0  0  0  0  0  0
   65.8348   18.0795   46.8047 C   0  0  0  0  0  0  0  0  0  0  0  0
   66.7645   20.3616   47.3698 C   0  0  0  0  0  0  0  0  0  0  0  0
   65.5390   20.9805   46.7245 N   0  0  0  0  0  0  0  0  0  0  0  0
   65.7111   22.4402   46.2852 C   0  0  0  0  0  0  0  0  0  0  0  0
   64.4607   21.0564   47.8829 C   0  0  0  0  0  0  0  0  0  0  0  0
   64.8558   20.1877   45.6176 C   0  0  0  0  0  0  0  0  0  0  0  0
  6  7  1  0
  7  8  1  0
  8  9  1  0
  9 10  2  0
 10 11  1  0
 10 12  1  0
 12  5  1  0
  5  1  1  0
  1  2  1  0
  1 14  1  0
 14 15  1  0
 15 16  1  0
 15 17  1  0
 15 18  1  0
 18 19  1  0
 19 20  1  0
 19 21  1  0
 19 22  1  0
 22 23  1  0
 23 24  1  0
 23 25  1  0
 23 26  1  0
 12  7  2  0
 11 13  1  0
  2  3  1  0
  2  4  1  0
M  CHG 1  15   1
M  CHG 1  19   1
M  CHG 1  23   1
M  END
> <minimizedAffinity>
-5.07128

> <CNNscore>
0.0578604043

> <CNNaffinity>
4.0273194313

> <CNN_VS>
0.2330223322

> <CNNaffinity_variance>
0.2589500248

$$$$



 26 26  0  0  0  0  0  0  0  0999 V2000
   69.9022   18.8954   45.1886 C   0  0  0  0  0  0  0  0  0  0  0  0
   70.1580   18.1903   46.4617 N   0  0  0  0  0  0  0  0  0  0  0  0
   70.3876   17.2152   46.2701 H   0  0  0  0  0  0  0  0  0  0  0  0
   69.3246   18.2344   47.0481 H   0  0  0  0  0  0  0  0  0  0  0  0
   71.1405   19.0686   44.2785 C   0  0  0  0  0  0  0  0  0  0  0  0
   70.9207   15.8150   43.3278 C   0  0  0  0  0  0  0  0  0  0  0  0
   71.9761   16.6198   43.9740 C   0  0  0  0  0  0  0  0  0  0  0  0
   73.1250   15.9401   44.2667 O   0  0  0  0  0  0  0  0  0  0  0  0
   74.0298   16.8019   44.8730 N   0  0  0  0  0  0  0  0  0  0  0  0
   73.3894   17.9556   44.9268 C   0  0  0  0  0  0  0  0  0  0  0  0
   74.0506   18.9868   45.4562 O   0  0  0  0  0  0  0  0  0  0  0  0
   72.1015   17.9373   44.3736 C   0  0  0  0  0  0  0  0  0  0  0  0
   74.9155   18.8644   45.7953 H   0  0  0  0  0  0  0  0  0  0  0  0
   68.6600   18.2664   44.4789 C   0  0  0  0  0  0  0  0  0  0  0  0
   67.1607   18.5776   45.0219 N   0  0  0  0  0  0  0  0  0  0  0  0
   66.5760   17.3123   45.6740 C   0  0  0  0  0  0  0  0  0  0  0  0
   66.3259   18.9339   43.8021 C   0  0  0  0  0  0  0  0  0  0  0  0
   67.3558   19.6966   46.0454 C   0  0  0  0  0  0  0  0  0  0  0  0
   66.2396   20.5823   46.5615 N   0  0  0  0  0  0  0  0  0  0  0  0
   64.8744   19.8542   46.5920 C   0  0  0  0  0  0  0  0  0  0  0  0
   66.0283   21.8486   45.7314 C   0  0  0  0  0  0  0  0  0  0  0  0
   66.4594   20.9549   48.0567 C   0  0  0  0  0  0  0  0  0  0  0  0
   66.2650   19.9679   49.1921 N   0  0  0  0  0  0  0  0  0  0  0  0
   64.8049   19.7390   49.6029 C   0  0  0  0  0  0  0  0  0  0  0  0
   66.9112   20.6679   50.4582 C   0  0  0  0  0  0  0  0  0  0  0  0
   66.9850   18.6296   49.0863 C   0  0  0  0  0  0  0  0  0  0  0  0
  6  7  1  0
  7  8  1  0
  8  9  1  0
  9 10  2  0
 10 11  1  0
 10 12  1  0
 12  5  1  0
  5  1  1  0
  1  2  1  0
  1 14  1  0
 14 15  1  0
 15 16  1  0
 15 17  1  0
 15 18  1  0
 18 19  1  0
 19 20  1  0
 19 21  1  0
 19 22  1  0
 22 23  1  0
 23 24  1  0
 23 25  1  0
 23 26  1  0
 12  7  2  0
 11 13  1  0
  2  3  1  0
  2  4  1  0
M  CHG 1  15   1
M  CHG 1  19   1
M  CHG 1  23   1
M  END
> <minimizedAffinity>
-4.72999

> <CNNscore>
0.0561318249

> <CNNaffinity>
3.3762786388

> <CNN_VS>
0.1895166785

> <CNNaffinity_variance>
1.0017788410

$$$$



 26 26  0  0  0  0  0  0  0  0999 V2000
   71.3814   17.5977   43.3768 C   0  0  0  0  0  0  0  0  0  0  0  0
   70.8517   18.5518   42.3805 N   0  0  0  0  0  0  0  0  0  0  0  0
   70.5296   19.3952   42.8552 H   0  0  0  0  0  0  0  0  0  0  0  0
   70.0720   18.1239   41.8811 H   0  0  0  0  0  0  0  0  0  0  0  0
   72.6849   18.0441   44.0789 C   0  0  0  0  0  0  0  0  0  0  0  0
   72.8912   14.6661   43.7889 C   0  0  0  0  0  0  0  0  0  0  0  0
   73.3223   15.6295   44.8209 C   0  0  0  0  0  0  0  0  0  0  0  0
   73.9403   15.0765   45.9072 O   0  0  0  0  0  0  0  0  0  0  0  0
   74.2888   16.0805   46.8012 N   0  0  0  0  0  0  0  0  0  0  0  0
   73.8621   17.1888   46.2234 C   0  0  0  0  0  0  0  0  0  0  0  0
   74.0913   18.3322   46.8720 O   0  0  0  0  0  0  0  0  0  0  0  0
   73.2564   17.0020   44.9731 C   0  0  0  0  0  0  0  0  0  0  0  0
   74.5088   18.3196   47.7107 H   0  0  0  0  0  0  0  0  0  0  0  0
   70.2380   17.1636   44.3497 C   0  0  0  0  0  0  0  0  0  0  0  0
   69.6169   18.2257   45.4108 N   0  0  0  0  0  0  0  0  0  0  0  0
   69.9501   19.6589   44.9603 C   0  0  0  0  0  0  0  0  0  0  0  0
   70.3016   17.9557   46.7413 C   0  0  0  0  0  0  0  0  0  0  0  0
   68.1116   17.9612   45.3707 C   0  0  0  0  0  0  0  0  0  0  0  0
   67.1100   18.8486   44.6593 N   0  0  0  0  0  0  0  0  0  0  0  0
   65.7165   18.1869   44.5380 C   0  0  0  0  0  0  0  0  0  0  0  0
   67.5270   19.2266   43.2378 C   0  0  0  0  0  0  0  0  0  0  0  0
   66.8059   20.1324   45.4852 C   0  0  0  0  0  0  0  0  0  0  0  0
   66.1612   20.0991   46.8580 N   0  0  0  0  0  0  0  0  0  0  0  0
   65.4304   21.3874   47.2571 C   0  0  0  0  0  0  0  0  0  0  0  0
   67.3717   20.0171   47.8769 C   0  0  0  0  0  0  0  0  0  0  0  0
   65.2955   18.8917   47.1949 C   0  0  0  0  0  0  0  0  0  0  0  0
  6  7  1  0
  7  8  1  0
  8  9  1  0
  9 10  2  0
 10 11  1  0
 10 12  1  0
 12  5  1  0
  5  1  1  0
  1  2  1  0
  1 14  1  0
 14 15  1  0
 15 16  1  0
 15 17  1  0
 15 18  1  0
 18 19  1  0
 19 20  1  0
 19 21  1  0
 19 22  1  0
 22 23  1  0
 23 24  1  0
 23 25  1  0
 23 26  1  0
 12  7  2  0
 11 13  1  0
  2  3  1  0
  2  4  1  0
M  CHG 1  15   1
M  CHG 1  19   1
M  CHG 1  23   1
M  END
> <minimizedAffinity>
-5.22595

> <CNNscore>
0.0543797128

> <CNNaffinity>
3.8718032837

> <CNN_VS>
0.2105475515

> <CNNaffinity_variance>
0.5022377372

$$$$
