


 28 30  0  0  0  0  0  0  0  0999 V2000
   30.0211   64.9692    9.2549 C   0  0  0  0  0  0  0  0  0  0  0  0
   28.7398   65.2531   10.1226 C   0  0  0  0  0  0  0  0  0  0  0  0
   29.0573   65.7309   11.5650 C   0  0  0  0  0  0  0  0  0  0  0  0
   29.3966   64.6137   12.3952 O   0  0  0  0  0  0  0  0  0  0  0  0
   27.8903   66.4613   12.2252 C   0  0  0  0  0  0  0  0  0  0  0  0
   27.3536   67.5408   11.3023 C   0  0  0  0  0  0  0  0  0  0  0  0
   26.8946   66.9662    9.9554 C   0  0  0  0  0  0  0  0  0  0  0  0
   27.9279   66.1724    9.2877 N   0  0  0  0  0  0  0  0  0  0  0  0
   28.8890   66.9441    8.5024 C   0  0  0  0  0  0  0  0  0  0  0  0
   29.7989   65.8342    7.9891 C   0  0  0  0  0  0  0  0  0  0  0  0
   28.6357   64.0155   12.4593 H   0  0  0  0  0  0  0  0  0  0  0  0
   31.7478   66.5957    9.4096 C   0  0  0  0  0  0  0  0  0  0  0  0
   31.2415   65.3584    9.8929 O   0  0  0  0  0  0  0  0  0  0  0  0
   30.9654   66.3811    7.3800 O   0  0  0  0  0  0  0  0  0  0  0  0
   30.7016   66.9708    6.1160 C   0  0  0  0  0  0  0  0  0  0  0  0
   25.6329   66.0881   10.0632 C   0  0  0  0  0  0  0  0  0  0  0  0
   24.4486   66.8568   10.6131 C   0  0  0  0  0  0  0  0  0  0  0  0
   24.1788   67.9767   10.1785 O   0  0  0  0  0  0  0  0  0  0  0  0
   23.5916   66.2540   11.6811 C   0  0  0  0  0  0  0  0  0  0  0  0
   24.0734   65.1310   12.3609 C   0  0  0  0  0  0  0  0  0  0  0  0
   23.3182   64.5253   13.3733 C   0  0  0  0  0  0  0  0  0  0  0  0
   22.0582   65.0226   13.7388 C   0  0  0  0  0  0  0  0  0  0  0  0
   21.5879   66.1533   13.0436 C   0  0  0  0  0  0  0  0  0  0  0  0
   22.3395   66.7623   12.0300 C   0  0  0  0  0  0  0  0  0  0  0  0
   21.2014   64.3842   14.8468 C   0  0  0  0  0  0  0  0  0  0  0  0
   22.1015   63.5482   15.7824 C   0  0  0  0  0  0  0  0  0  0  0  0
   20.5059   65.4917   15.6676 C   0  0  0  0  0  0  0  0  0  0  0  0
   20.0952   63.4435   14.3177 C   0  0  0  0  0  0  0  0  0  0  0  0
 12 13  1  0
  1 13  1  0
  1  2  1  0
  2  3  1  0
  3  4  1  0
  3  5  1  0
  5  6  1  0
  6  7  1  0
  7 16  1  0
 16 17  1  0
 17 18  2  0
 17 19  1  0
 19 20  2  0
 20 21  1  0
 21 22  2  0
 22 25  1  0
 25 26  1  0
 25 27  1  0
 25 28  1  0
 22 23  1  0
 23 24  2  0
  7  8  1  0
  8  9  1  0
  9 10  1  0
 10 14  1  0
 14 15  1  0
 10  1  1  0
  2  8  1  0
 24 19  1  0
  4 11  1  0
M  END
> <minimizedAffinity>
-6.96387

> <CNNscore>
0.3847275972

> <CNNaffinity>
5.7339382172

> <CNN_VS>
2.2060043812

> <CNNaffinity_variance>
0.0498960465

$$$$



 28 30  0  0  0  0  0  0  0  0999 V2000
   29.0926   66.5905    8.1345 C   0  0  0  0  0  0  0  0  0  0  0  0
   27.8660   66.8046    9.0962 C   0  0  0  0  0  0  0  0  0  0  0  0
   26.8503   65.6307    9.0817 C   0  0  0  0  0  0  0  0  0  0  0  0
   25.9950   65.7277    7.9364 O   0  0  0  0  0  0  0  0  0  0  0  0
   25.9611   65.5919   10.3222 C   0  0  0  0  0  0  0  0  0  0  0  0
   26.8060   65.6849   11.5802 C   0  0  0  0  0  0  0  0  0  0  0  0
   27.6556   66.9627   11.6059 C   0  0  0  0  0  0  0  0  0  0  0  0
   28.4803   67.1281   10.4075 N   0  0  0  0  0  0  0  0  0  0  0  0
   29.7558   66.4151   10.4318 C   0  0  0  0  0  0  0  0  0  0  0  0
   30.3174   66.7825    9.0633 C   0  0  0  0  0  0  0  0  0  0  0  0
   25.4768   66.5461    7.9883 H   0  0  0  0  0  0  0  0  0  0  0  0
   29.3348   65.3217    6.1390 C   0  0  0  0  0  0  0  0  0  0  0  0
   29.1372   65.2867    7.5463 O   0  0  0  0  0  0  0  0  0  0  0  0
   31.4701   65.9992    8.7655 O   0  0  0  0  0  0  0  0  0  0  0  0
   32.5410   66.2302    9.6682 C   0  0  0  0  0  0  0  0  0  0  0  0
   26.8223   68.2477   11.7761 C   0  0  0  0  0  0  0  0  0  0  0  0
   27.1001   68.9367   13.0967 C   0  0  0  0  0  0  0  0  0  0  0  0
   26.8697   68.3592   14.1593 O   0  0  0  0  0  0  0  0  0  0  0  0
   27.6678   70.3208   13.1176 C   0  0  0  0  0  0  0  0  0  0  0  0
   26.8509   71.3644   13.5636 C   0  0  0  0  0  0  0  0  0  0  0  0
   27.3278   72.6807   13.6096 C   0  0  0  0  0  0  0  0  0  0  0  0
   28.6359   72.9958   13.2119 C   0  0  0  0  0  0  0  0  0  0  0  0
   29.4446   71.9333   12.7646 C   0  0  0  0  0  0  0  0  0  0  0  0
   28.9718   70.6152   12.7165 C   0  0  0  0  0  0  0  0  0  0  0  0
   29.1944   74.4297   13.2503 C   0  0  0  0  0  0  0  0  0  0  0  0
   28.3573   75.3379   12.3235 C   0  0  0  0  0  0  0  0  0  0  0  0
   29.1248   74.9749   14.6932 C   0  0  0  0  0  0  0  0  0  0  0  0
   30.6654   74.5400   12.7896 C   0  0  0  0  0  0  0  0  0  0  0  0
 12 13  1  0
  1 13  1  0
  1  2  1  0
  2  3  1  0
  3  4  1  0
  3  5  1  0
  5  6  1  0
  6  7  1  0
  7 16  1  0
 16 17  1  0
 17 18  2  0
 17 19  1  0
 19 20  2  0
 20 21  1  0
 21 22  2  0
 22 25  1  0
 25 26  1  0
 25 27  1  0
 25 28  1  0
 22 23  1  0
 23 24  2  0
  7  8  1  0
  8  9  1  0
  9 10  1  0
 10 14  1  0
 14 15  1  0
 10  1  1  0
  2  8  1  0
 24 19  1  0
  4 11  1  0
M  END
> <minimizedAffinity>
-5.74227

> <CNNscore>
0.3514198661

> <CNNaffinity>
5.6475501060

> <CNN_VS>
1.9846613407

> <CNNaffinity_variance>
0.2340507656

$$$$



 28 30  0  0  0  0  0  0  0  0999 V2000
   29.2383   66.5004    7.9790 C   0  0  0  0  0  0  0  0  0  0  0  0
   28.3352   66.5642    9.2656 C   0  0  0  0  0  0  0  0  0  0  0  0
   27.5655   65.2470    9.5528 C   0  0  0  0  0  0  0  0  0  0  0  0
   26.4048   65.1575    8.7178 O   0  0  0  0  0  0  0  0  0  0  0  0
   27.1037   65.1265   11.0030 C   0  0  0  0  0  0  0  0  0  0  0  0
   28.2573   65.4070   11.9493 C   0  0  0  0  0  0  0  0  0  0  0  0
   28.8571   66.8014   11.7231 C   0  0  0  0  0  0  0  0  0  0  0  0
   29.2503   67.0387   10.3328 N   0  0  0  0  0  0  0  0  0  0  0  0
   30.5733   66.5349    9.9701 C   0  0  0  0  0  0  0  0  0  0  0  0
   30.6357   66.9229    8.4975 C   0  0  0  0  0  0  0  0  0  0  0  0
   25.7998   65.8866    8.9259 H   0  0  0  0  0  0  0  0  0  0  0  0
   29.3291   65.2194    5.9786 C   0  0  0  0  0  0  0  0  0  0  0  0
   29.3171   65.1941    7.3999 O   0  0  0  0  0  0  0  0  0  0  0  0
   31.7589   66.3160    7.8642 O   0  0  0  0  0  0  0  0  0  0  0  0
   32.9962   66.8583    8.3001 C   0  0  0  0  0  0  0  0  0  0  0  0
   27.9151   67.9472   12.1404 C   0  0  0  0  0  0  0  0  0  0  0  0
   28.6456   69.0398   12.8943 C   0  0  0  0  0  0  0  0  0  0  0  0
   28.6799   70.1867   12.4478 O   0  0  0  0  0  0  0  0  0  0  0  0
   29.3212   68.7339   14.1937 C   0  0  0  0  0  0  0  0  0  0  0  0
   28.5865   68.0705   15.1814 C   0  0  0  0  0  0  0  0  0  0  0  0
   29.1660   67.7534   16.4167 C   0  0  0  0  0  0  0  0  0  0  0  0
   30.4978   68.0887   16.7040 C   0  0  0  0  0  0  0  0  0  0  0  0
   31.2228   68.7572   15.6988 C   0  0  0  0  0  0  0  0  0  0  0  0
   30.6472   69.0767   14.4619 C   0  0  0  0  0  0  0  0  0  0  0  0
   31.1680   67.7551   18.0490 C   0  0  0  0  0  0  0  0  0  0  0  0
   30.3981   68.4429   19.1973 C   0  0  0  0  0  0  0  0  0  0  0  0
   31.1528   66.2273   18.2711 C   0  0  0  0  0  0  0  0  0  0  0  0
   32.6396   68.2171   18.1455 C   0  0  0  0  0  0  0  0  0  0  0  0
 12 13  1  0
  1 13  1  0
  1  2  1  0
  2  3  1  0
  3  4  1  0
  3  5  1  0
  5  6  1  0
  6  7  1  0
  7 16  1  0
 16 17  1  0
 17 18  2  0
 17 19  1  0
 19 20  2  0
 20 21  1  0
 21 22  2  0
 22 25  1  0
 25 26  1  0
 25 27  1  0
 25 28  1  0
 22 23  1  0
 23 24  2  0
  7  8  1  0
  8  9  1  0
  9 10  1  0
 10 14  1  0
 14 15  1  0
 10  1  1  0
  2  8  1  0
 24 19  1  0
  4 11  1  0
M  END
> <minimizedAffinity>
-6.30259

> <CNNscore>
0.2696682811

> <CNNaffinity>
5.5192427635

> <CNN_VS>
1.4883646965

> <CNNaffinity_variance>
0.1878772974

$$$$



 28 30  0  0  0  0  0  0  0  0999 V2000
   29.2271   67.0349    8.3395 C   0  0  0  0  0  0  0  0  0  0  0  0
   28.2845   66.7341    9.5626 C   0  0  0  0  0  0  0  0  0  0  0  0
   27.1356   65.7428    9.2352 C   0  0  0  0  0  0  0  0  0  0  0  0
   26.0720   66.4215    8.5566 O   0  0  0  0  0  0  0  0  0  0  0  0
   26.5444   65.0789   10.4765 C   0  0  0  0  0  0  0  0  0  0  0  0
   27.6496   64.5054   11.3451 C   0  0  0  0  0  0  0  0  0  0  0  0
   28.6552   65.5814   11.7767 C   0  0  0  0  0  0  0  0  0  0  0  0
   29.2112   66.3327   10.6496 N   0  0  0  0  0  0  0  0  0  0  0  0
   30.3475   65.6985    9.9846 C   0  0  0  0  0  0  0  0  0  0  0  0
   30.6406   66.7125    8.8851 C   0  0  0  0  0  0  0  0  0  0  0  0
   25.6982   67.1009    9.1393 H   0  0  0  0  0  0  0  0  0  0  0  0
   28.8669   66.9678    5.9908 C   0  0  0  0  0  0  0  0  0  0  0  0
   28.9575   66.2186    7.1955 O   0  0  0  0  0  0  0  0  0  0  0  0
   31.5777   66.1845    7.9502 O   0  0  0  0  0  0  0  0  0  0  0  0
   32.3881   67.1876    7.3567 C   0  0  0  0  0  0  0  0  0  0  0  0
   28.0689   66.6028   12.7705 C   0  0  0  0  0  0  0  0  0  0  0  0
   28.1367   66.1095   14.2014 C   0  0  0  0  0  0  0  0  0  0  0  0
   29.2258   65.8933   14.7333 O   0  0  0  0  0  0  0  0  0  0  0  0
   26.8789   65.8924   14.9820 C   0  0  0  0  0  0  0  0  0  0  0  0
   25.6591   66.1953   14.3690 C   0  0  0  0  0  0  0  0  0  0  0  0
   24.4481   66.0092   15.0480 C   0  0  0  0  0  0  0  0  0  0  0  0
   24.4174   65.5143   16.3605 C   0  0  0  0  0  0  0  0  0  0  0  0
   25.6546   65.2154   16.9630 C   0  0  0  0  0  0  0  0  0  0  0  0
   26.8684   65.4003   16.2880 C   0  0  0  0  0  0  0  0  0  0  0  0
   23.1062   65.2955   17.1367 C   0  0  0  0  0  0  0  0  0  0  0  0
   21.9039   65.4624   16.1822 C   0  0  0  0  0  0  0  0  0  0  0  0
   23.0876   63.8713   17.7325 C   0  0  0  0  0  0  0  0  0  0  0  0
   22.9003   66.2840   18.3067 C   0  0  0  0  0  0  0  0  0  0  0  0
 12 13  1  0
  1 13  1  0
  1  2  1  0
  2  3  1  0
  3  4  1  0
  3  5  1  0
  5  6  1  0
  6  7  1  0
  7 16  1  0
 16 17  1  0
 17 18  2  0
 17 19  1  0
 19 20  2  0
 20 21  1  0
 21 22  2  0
 22 25  1  0
 25 26  1  0
 25 27  1  0
 25 28  1  0
 22 23  1  0
 23 24  2  0
  7  8  1  0
  8  9  1  0
  9 10  1  0
 10 14  1  0
 14 15  1  0
 10  1  1  0
  2  8  1  0
 24 19  1  0
  4 11  1  0
M  END
> <minimizedAffinity>
-6.54064

> <CNNscore>
0.2661442459

> <CNNaffinity>
5.5653147697

> <CNN_VS>
1.4811764956

> <CNNaffinity_variance>
0.4119543135

$$$$



 28 30  0  0  0  0  0  0  0  0999 V2000
   34.1425   69.6294   16.3244 C   0  0  0  0  0  0  0  0  0  0  0  0
   33.3524   68.6092   17.2244 C   0  0  0  0  0  0  0  0  0  0  0  0
   33.6458   68.7591   18.7414 C   0  0  0  0  0  0  0  0  0  0  0  0
   34.8856   68.1224   19.0730 O   0  0  0  0  0  0  0  0  0  0  0  0
   32.5605   68.1490   19.6252 C   0  0  0  0  0  0  0  0  0  0  0  0
   31.1903   68.6386   19.1921 C   0  0  0  0  0  0  0  0  0  0  0  0
   30.8985   68.2987   17.7243 C   0  0  0  0  0  0  0  0  0  0  0  0
   31.9377   68.7719   16.8078 N   0  0  0  0  0  0  0  0  0  0  0  0
   31.8070   70.1670   16.3927 C   0  0  0  0  0  0  0  0  0  0  0  0
   33.0292   70.3160   15.4943 C   0  0  0  0  0  0  0  0  0  0  0  0
   34.8191   67.1716   18.8931 H   0  0  0  0  0  0  0  0  0  0  0  0
   36.2583   70.5926   16.8205 C   0  0  0  0  0  0  0  0  0  0  0  0
   34.8595   70.6161   17.0728 O   0  0  0  0  0  0  0  0  0  0  0  0
   33.2410   71.6839   15.1554 O   0  0  0  0  0  0  0  0  0  0  0  0
   33.1460   71.9265   13.7599 C   0  0  0  0  0  0  0  0  0  0  0  0
   30.7095   66.7903   17.4718 C   0  0  0  0  0  0  0  0  0  0  0  0
   29.7792   66.1549   18.4848 C   0  0  0  0  0  0  0  0  0  0  0  0
   30.2292   65.4318   19.3739 O   0  0  0  0  0  0  0  0  0  0  0  0
   28.3067   66.4117   18.4178 C   0  0  0  0  0  0  0  0  0  0  0  0
   27.6262   66.6762   19.6103 C   0  0  0  0  0  0  0  0  0  0  0  0
   26.2483   66.9282   19.6106 C   0  0  0  0  0  0  0  0  0  0  0  0
   25.5069   66.9242   18.4194 C   0  0  0  0  0  0  0  0  0  0  0  0
   26.2075   66.6551   17.2279 C   0  0  0  0  0  0  0  0  0  0  0  0
   27.5856   66.4021   17.2229 C   0  0  0  0  0  0  0  0  0  0  0  0
   23.9926   67.1981   18.3811 C   0  0  0  0  0  0  0  0  0  0  0  0
   23.5253   67.7238   19.7558 C   0  0  0  0  0  0  0  0  0  0  0  0
   23.6843   68.2574   17.3009 C   0  0  0  0  0  0  0  0  0  0  0  0
   23.1399   65.9509   18.0559 C   0  0  0  0  0  0  0  0  0  0  0  0
 12 13  1  0
  1 13  1  0
  1  2  1  0
  2  3  1  0
  3  4  1  0
  3  5  1  0
  5  6  1  0
  6  7  1  0
  7 16  1  0
 16 17  1  0
 17 18  2  0
 17 19  1  0
 19 20  2  0
 20 21  1  0
 21 22  2  0
 22 25  1  0
 25 26  1  0
 25 27  1  0
 25 28  1  0
 22 23  1  0
 23 24  2  0
  7  8  1  0
  8  9  1  0
  9 10  1  0
 10 14  1  0
 14 15  1  0
 10  1  1  0
  2  8  1  0
 24 19  1  0
  4 11  1  0
M  END
> <minimizedAffinity>
-5.95636

> <CNNscore>
0.2656817436

> <CNNaffinity>
3.8706123829

> <CNN_VS>
1.0283510685

> <CNNaffinity_variance>
1.2537385225

$$$$



 28 30  0  0  0  0  0  0  0  0999 V2000
   30.0974   65.5453    9.3762 C   0  0  0  0  0  0  0  0  0  0  0  0
   28.7324   65.8416   10.1000 C   0  0  0  0  0  0  0  0  0  0  0  0
   28.8138   66.9942   11.1366 C   0  0  0  0  0  0  0  0  0  0  0  0
   29.3842   66.5207   12.3625 O   0  0  0  0  0  0  0  0  0  0  0  0
   27.4527   67.6038   11.4636 C   0  0  0  0  0  0  0  0  0  0  0  0
   26.7090   67.9501   10.1862 C   0  0  0  0  0  0  0  0  0  0  0  0
   26.5110   66.7215    9.2881 C   0  0  0  0  0  0  0  0  0  0  0  0
   27.7611   66.0190    8.9924 N   0  0  0  0  0  0  0  0  0  0  0  0
   28.5302   66.5687    7.8780 C   0  0  0  0  0  0  0  0  0  0  0  0
   29.7361   65.6365    7.8725 C   0  0  0  0  0  0  0  0  0  0  0  0
   28.8088   65.8399   12.7451 H   0  0  0  0  0  0  0  0  0  0  0  0
   32.4018   65.8940    9.8440 C   0  0  0  0  0  0  0  0  0  0  0  0
   31.1239   66.4948    9.6806 O   0  0  0  0  0  0  0  0  0  0  0  0
   30.7513   66.1319    7.0037 O   0  0  0  0  0  0  0  0  0  0  0  0
   30.2439   67.0035    6.0047 C   0  0  0  0  0  0  0  0  0  0  0  0
   25.5263   65.6898    9.8717 C   0  0  0  0  0  0  0  0  0  0  0  0
   24.1860   65.7182    9.1657 C   0  0  0  0  0  0  0  0  0  0  0  0
   23.9627   64.9553    8.2255 O   0  0  0  0  0  0  0  0  0  0  0  0
   23.1198   66.6669    9.6148 C   0  0  0  0  0  0  0  0  0  0  0  0
   23.2863   67.3168   10.8417 C   0  0  0  0  0  0  0  0  0  0  0  0
   22.3242   68.2191   11.3131 C   0  0  0  0  0  0  0  0  0  0  0  0
   21.1656   68.5009   10.5736 C   0  0  0  0  0  0  0  0  0  0  0  0
   21.0134   67.8372    9.3410 C   0  0  0  0  0  0  0  0  0  0  0  0
   21.9729   66.9336    8.8656 C   0  0  0  0  0  0  0  0  0  0  0  0
   20.0882   69.4873   11.0591 C   0  0  0  0  0  0  0  0  0  0  0  0
   19.8499   69.2924   12.5723 C   0  0  0  0  0  0  0  0  0  0  0  0
   20.5572   70.9357   10.8015 C   0  0  0  0  0  0  0  0  0  0  0  0
   18.7224   69.3165   10.3565 C   0  0  0  0  0  0  0  0  0  0  0  0
 12 13  1  0
  1 13  1  0
  1  2  1  0
  2  3  1  0
  3  4  1  0
  3  5  1  0
  5  6  1  0
  6  7  1  0
  7 16  1  0
 16 17  1  0
 17 18  2  0
 17 19  1  0
 19 20  2  0
 20 21  1  0
 21 22  2  0
 22 25  1  0
 25 26  1  0
 25 27  1  0
 25 28  1  0
 22 23  1  0
 23 24  2  0
  7  8  1  0
  8  9  1  0
  9 10  1  0
 10 14  1  0
 14 15  1  0
 10  1  1  0
  2  8  1  0
 24 19  1  0
  4 11  1  0
M  END
> <minimizedAffinity>
-5.98219

> <CNNscore>
0.2601381242

> <CNNaffinity>
5.0873866081

> <CNN_VS>
1.3234232664

> <CNNaffinity_variance>
0.2567063272

$$$$



 28 30  0  0  0  0  0  0  0  0999 V2000
   29.1057   66.4277    8.7480 C   0  0  0  0  0  0  0  0  0  0  0  0
   27.7343   66.4862    9.5168 C   0  0  0  0  0  0  0  0  0  0  0  0
   26.7023   65.4329    9.0316 C   0  0  0  0  0  0  0  0  0  0  0  0
   26.0684   65.8770    7.8260 O   0  0  0  0  0  0  0  0  0  0  0  0
   25.6054   65.1522   10.0557 C   0  0  0  0  0  0  0  0  0  0  0  0
   26.2148   64.8642   11.4161 C   0  0  0  0  0  0  0  0  0  0  0  0
   27.0845   66.0275   11.9116 C   0  0  0  0  0  0  0  0  0  0  0  0
   28.1144   66.4247   10.9496 N   0  0  0  0  0  0  0  0  0  0  0  0
   29.3429   65.6346   10.9980 C   0  0  0  0  0  0  0  0  0  0  0  0
   30.1505   66.2890    9.8833 C   0  0  0  0  0  0  0  0  0  0  0  0
   25.5743   66.6929    8.0021 H   0  0  0  0  0  0  0  0  0  0  0  0
   29.5466   65.6963    6.5296 C   0  0  0  0  0  0  0  0  0  0  0  0
   29.2149   65.3127    7.8576 O   0  0  0  0  0  0  0  0  0  0  0  0
   31.3135   65.5207    9.5865 O   0  0  0  0  0  0  0  0  0  0  0  0
   32.4898   66.3112    9.5062 C   0  0  0  0  0  0  0  0  0  0  0  0
   26.2736   67.2881   12.2695 C   0  0  0  0  0  0  0  0  0  0  0  0
   27.1346   68.5347   12.2841 C   0  0  0  0  0  0  0  0  0  0  0  0
   26.9228   69.4456   11.4834 O   0  0  0  0  0  0  0  0  0  0  0  0
   28.2421   68.6717   13.2807 C   0  0  0  0  0  0  0  0  0  0  0  0
   27.9941   68.2883   14.6024 C   0  0  0  0  0  0  0  0  0  0  0  0
   28.9928   68.3896   15.5793 C   0  0  0  0  0  0  0  0  0  0  0  0
   30.2709   68.8767   15.2666 C   0  0  0  0  0  0  0  0  0  0  0  0
   30.5033   69.2591   13.9314 C   0  0  0  0  0  0  0  0  0  0  0  0
   29.5073   69.1599   12.9510 C   0  0  0  0  0  0  0  0  0  0  0  0
   31.3930   69.0006   16.3131 C   0  0  0  0  0  0  0  0  0  0  0  0
   31.1680   70.2665   17.1682 C   0  0  0  0  0  0  0  0  0  0  0  0
   31.3848   67.7595   17.2315 C   0  0  0  0  0  0  0  0  0  0  0  0
   32.8084   69.1086   15.7020 C   0  0  0  0  0  0  0  0  0  0  0  0
 12 13  1  0
  1 13  1  0
  1  2  1  0
  2  3  1  0
  3  4  1  0
  3  5  1  0
  5  6  1  0
  6  7  1  0
  7 16  1  0
 16 17  1  0
 17 18  2  0
 17 19  1  0
 19 20  2  0
 20 21  1  0
 21 22  2  0
 22 25  1  0
 25 26  1  0
 25 27  1  0
 25 28  1  0
 22 23  1  0
 23 24  2  0
  7  8  1  0
  8  9  1  0
  9 10  1  0
 10 14  1  0
 14 15  1  0
 10  1  1  0
  2  8  1  0
 24 19  1  0
  4 11  1  0
M  END
> <minimizedAffinity>
-6.23573

> <CNNscore>
0.2472905219

> <CNNaffinity>
5.1439318657

> <CNN_VS>
1.2720456123

> <CNNaffinity_variance>
0.5972647071

$$$$



 28 30  0  0  0  0  0  0  0  0999 V2000
   28.9303   66.4838    8.4445 C   0  0  0  0  0  0  0  0  0  0  0  0
   27.9308   66.3025    9.6458 C   0  0  0  0  0  0  0  0  0  0  0  0
   27.1991   64.9334    9.6466 C   0  0  0  0  0  0  0  0  0  0  0  0
   26.1096   64.9516    8.7165 O   0  0  0  0  0  0  0  0  0  0  0  0
   26.6348   64.5559   11.0142 C   0  0  0  0  0  0  0  0  0  0  0  0
   27.7007   64.7068   12.0847 C   0  0  0  0  0  0  0  0  0  0  0  0
   28.2553   66.1366   12.1428 C   0  0  0  0  0  0  0  0  0  0  0  0
   28.7416   66.6169   10.8480 N   0  0  0  0  0  0  0  0  0  0  0  0
   30.1087   66.2213   10.5158 C   0  0  0  0  0  0  0  0  0  0  0  0
   30.2651   66.8541    9.1381 C   0  0  0  0  0  0  0  0  0  0  0  0
   25.4598   65.6168    8.9928 H   0  0  0  0  0  0  0  0  0  0  0  0
   29.1902   65.5590    6.2701 C   0  0  0  0  0  0  0  0  0  0  0  0
   29.1087   65.2970    7.6649 O   0  0  0  0  0  0  0  0  0  0  0  0
   31.4579   66.3966    8.5066 O   0  0  0  0  0  0  0  0  0  0  0  0
   32.5796   66.4053    9.3766 C   0  0  0  0  0  0  0  0  0  0  0  0
   27.2361   67.1670   12.6664 C   0  0  0  0  0  0  0  0  0  0  0  0
   27.6502   67.7506   14.0019 C   0  0  0  0  0  0  0  0  0  0  0  0
   26.8616   67.7599   14.9473 O   0  0  0  0  0  0  0  0  0  0  0  0
   29.0260   68.3098   14.1837 C   0  0  0  0  0  0  0  0  0  0  0  0
   29.7659   67.8980   15.2965 C   0  0  0  0  0  0  0  0  0  0  0  0
   31.0609   68.3837   15.5179 C   0  0  0  0  0  0  0  0  0  0  0  0
   31.6578   69.2957   14.6344 C   0  0  0  0  0  0  0  0  0  0  0  0
   30.8986   69.7005   13.5197 C   0  0  0  0  0  0  0  0  0  0  0  0
   29.6027   69.2176   13.2943 C   0  0  0  0  0  0  0  0  0  0  0  0
   33.0787   69.8493   14.8447 C   0  0  0  0  0  0  0  0  0  0  0  0
   33.9736   69.4491   13.6516 C   0  0  0  0  0  0  0  0  0  0  0  0
   33.0257   71.3891   14.9456 C   0  0  0  0  0  0  0  0  0  0  0  0
   33.7683   69.3300   16.1265 C   0  0  0  0  0  0  0  0  0  0  0  0
 12 13  1  0
  1 13  1  0
  1  2  1  0
  2  3  1  0
  3  4  1  0
  3  5  1  0
  5  6  1  0
  6  7  1  0
  7 16  1  0
 16 17  1  0
 17 18  2  0
 17 19  1  0
 19 20  2  0
 20 21  1  0
 21 22  2  0
 22 25  1  0
 25 26  1  0
 25 27  1  0
 25 28  1  0
 22 23  1  0
 23 24  2  0
  7  8  1  0
  8  9  1  0
  9 10  1  0
 10 14  1  0
 14 15  1  0
 10  1  1  0
  2  8  1  0
 24 19  1  0
  4 11  1  0
M  END
> <minimizedAffinity>
-6.58183

> <CNNscore>
0.2404974699

> <CNNaffinity>
5.4819202423

> <CNN_VS>
1.3183879852

> <CNNaffinity_variance>
0.4983113706

$$$$



 28 30  0  0  0  0  0  0  0  0999 V2000
   35.6101   70.5620   19.3732 C   0  0  0  0  0  0  0  0  0  0  0  0
   34.8732   69.7080   18.2765 C   0  0  0  0  0  0  0  0  0  0  0  0
   33.8063   68.7393   18.8537 C   0  0  0  0  0  0  0  0  0  0  0  0
   34.4344   67.5626   19.3767 O   0  0  0  0  0  0  0  0  0  0  0  0
   32.7776   68.2938   17.8172 C   0  0  0  0  0  0  0  0  0  0  0  0
   32.2123   69.4969   17.0839 C   0  0  0  0  0  0  0  0  0  0  0  0
   33.3113   70.3120   16.3888 C   0  0  0  0  0  0  0  0  0  0  0  0
   34.3907   70.7101   17.2945 N   0  0  0  0  0  0  0  0  0  0  0  0
   34.1344   71.9252   18.0649 C   0  0  0  0  0  0  0  0  0  0  0  0
   35.4138   72.0199   18.8878 C   0  0  0  0  0  0  0  0  0  0  0  0
   34.8833   67.0895   18.6587 H   0  0  0  0  0  0  0  0  0  0  0  0
   35.9878   69.9090   21.6274 C   0  0  0  0  0  0  0  0  0  0  0  0
   35.0531   70.4140   20.6830 O   0  0  0  0  0  0  0  0  0  0  0  0
   35.2889   73.0155   19.8998 O   0  0  0  0  0  0  0  0  0  0  0  0
   35.8981   74.2460   19.5397 C   0  0  0  0  0  0  0  0  0  0  0  0
   33.9541   69.5789   15.1955 C   0  0  0  0  0  0  0  0  0  0  0  0
   34.0860   70.4742   13.9804 C   0  0  0  0  0  0  0  0  0  0  0  0
   34.7977   70.1366   13.0341 O   0  0  0  0  0  0  0  0  0  0  0  0
   33.3422   71.7708   13.9177 C   0  0  0  0  0  0  0  0  0  0  0  0
   32.0679   71.7755   13.3420 C   0  0  0  0  0  0  0  0  0  0  0  0
   31.3215   72.9579   13.2586 C   0  0  0  0  0  0  0  0  0  0  0  0
   31.8244   74.1728   13.7481 C   0  0  0  0  0  0  0  0  0  0  0  0
   33.1093   74.1504   14.3237 C   0  0  0  0  0  0  0  0  0  0  0  0
   33.8597   72.9702   14.4090 C   0  0  0  0  0  0  0  0  0  0  0  0
   31.0325   75.4907   13.6750 C   0  0  0  0  0  0  0  0  0  0  0  0
   31.9005   76.6485   14.2141 C   0  0  0  0  0  0  0  0  0  0  0  0
   30.6484   75.7843   12.2087 C   0  0  0  0  0  0  0  0  0  0  0  0
   29.7242   75.4802   14.4977 C   0  0  0  0  0  0  0  0  0  0  0  0
 12 13  1  0
  1 13  1  0
  1  2  1  0
  2  3  1  0
  3  4  1  0
  3  5  1  0
  5  6  1  0
  6  7  1  0
  7 16  1  0
 16 17  1  0
 17 18  2  0
 17 19  1  0
 19 20  2  0
 20 21  1  0
 21 22  2  0
 22 25  1  0
 25 26  1  0
 25 27  1  0
 25 28  1  0
 22 23  1  0
 23 24  2  0
  7  8  1  0
  8  9  1  0
  9 10  1  0
 10 14  1  0
 14 15  1  0
 10  1  1  0
  2  8  1  0
 24 19  1  0
  4 11  1  0
M  END
> <minimizedAffinity>
-6.14325

> <CNNscore>
0.2099746466

> <CNNaffinity>
3.9422085285

> <CNN_VS>
0.8277638555

> <CNNaffinity_variance>
1.3030360937

$$$$
