


 18 19  0  0  0  0  0  0  0  0999 V2000
   -3.5437    5.8457   14.2900 C   0  0  0  0  0  0  0  0  0  0  0  0
   -2.3974    5.1063   14.5818 C   0  0  0  0  0  0  0  0  0  0  0  0
   -2.4788    3.8479   15.1889 C   0  0  0  0  0  0  0  0  0  0  0  0
   -3.7392    3.3163   15.5167 C   0  0  0  0  0  0  0  0  0  0  0  0
   -3.9708    2.0912   16.1170 N   0  0  0  0  0  0  0  0  0  0  0  0
   -5.2700    1.9293   16.2737 C   0  0  0  0  0  0  0  0  0  0  0  0
   -6.2762    3.1946   15.7303 S   0  0  0  0  0  0  0  0  0  0  0  0
   -4.8788    4.0700   15.2240 C   0  0  0  0  0  0  0  0  0  0  0  0
   -4.8050    5.3368   14.6124 C   0  0  0  0  0  0  0  0  0  0  0  0
   -6.0642    0.5186   16.9977 S   0  0  0  0  0  0  0  0  0  0  0  0
   -5.7132   -0.8548   16.0836 N   0  0  0  0  0  0  0  0  0  0  0  0
   -7.4894    0.7223   16.8583 O   0  0  0  0  0  0  0  0  0  0  0  0
   -5.4377    0.2986   18.2825 O   0  0  0  0  0  0  0  0  0  0  0  0
   -6.1303   -0.7626   15.1574 H   0  0  0  0  0  0  0  0  0  0  0  0
   -6.0949   -1.6789   16.5479 H   0  0  0  0  0  0  0  0  0  0  0  0
   -3.2922    7.0548   13.7020 O   0  0  0  0  0  0  0  0  0  0  0  0
   -2.2779    8.5317   15.3364 C   0  0  0  0  0  0  0  0  0  0  0  0
   -2.0979    7.7577   14.0422 C   0  0  0  0  0  0  0  0  0  0  0  0
 17 18  1  0
 18 16  1  0
 16  1  1  0
  1  2  2  0
  2  3  1  0
  3  4  2  0
  4  5  1  0
  5  6  2  0
  6 10  1  0
 10 11  1  0
 10 12  2  0
 10 13  2  0
  6  7  1  0
  7  8  1  0
  8  9  2  0
  9  1  1  0
  8  4  1  0
 11 14  1  0
 11 15  1  0
M  END
> <minimizedAffinity>
-7.34940

> <CNNscore>
0.9855498075

> <CNNaffinity>
7.4612841606

> <CNN_VS>
7.3534669876

> <CNNaffinity_variance>
1.0892152786

$$$$



 18 19  0  0  0  0  0  0  0  0999 V2000
   -3.7954    5.4737   13.8279 C   0  0  0  0  0  0  0  0  0  0  0  0
   -5.1441    5.8224   13.9014 C   0  0  0  0  0  0  0  0  0  0  0  0
   -6.0712    5.0061   14.5593 C   0  0  0  0  0  0  0  0  0  0  0  0
   -5.6395    3.8077   15.1561 C   0  0  0  0  0  0  0  0  0  0  0  0
   -6.4400    2.9067   15.8360 N   0  0  0  0  0  0  0  0  0  0  0  0
   -5.6953    1.9019   16.2537 C   0  0  0  0  0  0  0  0  0  0  0  0
   -4.0339    1.9624   15.8729 S   0  0  0  0  0  0  0  0  0  0  0  0
   -4.2869    3.4679   15.0700 C   0  0  0  0  0  0  0  0  0  0  0  0
   -3.3477    4.2846   14.4102 C   0  0  0  0  0  0  0  0  0  0  0  0
   -6.2636    0.4956   17.1727 S   0  0  0  0  0  0  0  0  0  0  0  0
   -5.8447   -0.9180   16.3532 N   0  0  0  0  0  0  0  0  0  0  0  0
   -7.7092    0.5392   17.1548 O   0  0  0  0  0  0  0  0  0  0  0  0
   -5.5071    0.4668   18.4050 O   0  0  0  0  0  0  0  0  0  0  0  0
   -6.3485   -0.9595   15.4673 H   0  0  0  0  0  0  0  0  0  0  0  0
   -6.0916   -1.7272   16.9230 H   0  0  0  0  0  0  0  0  0  0  0  0
   -3.0233    6.3749   13.1476 O   0  0  0  0  0  0  0  0  0  0  0  0
   -3.2852    4.8459   11.2835 C   0  0  0  0  0  0  0  0  0  0  0  0
   -2.5214    6.0260   11.8582 C   0  0  0  0  0  0  0  0  0  0  0  0
 17 18  1  0
 18 16  1  0
 16  1  1  0
  1  2  2  0
  2  3  1  0
  3  4  2  0
  4  5  1  0
  5  6  2  0
  6 10  1  0
 10 11  1  0
 10 12  2  0
 10 13  2  0
  6  7  1  0
  7  8  1  0
  8  9  2  0
  9  1  1  0
  8  4  1  0
 11 14  1  0
 11 15  1  0
M  END
> <minimizedAffinity>
-6.65210

> <CNNscore>
0.9275263548

> <CNNaffinity>
7.0300011635

> <CNN_VS>
6.5205111504

> <CNNaffinity_variance>
0.8352903724

$$$$



 18 19  0  0  0  0  0  0  0  0999 V2000
   -9.7662   11.1875    7.5192 C   0  0  0  0  0  0  0  0  0  0  0  0
  -10.5145   12.3431    7.7443 C   0  0  0  0  0  0  0  0  0  0  0  0
  -10.0302   13.3769    8.5539 C   0  0  0  0  0  0  0  0  0  0  0  0
   -8.7660   13.2505    9.1577 C   0  0  0  0  0  0  0  0  0  0  0  0
   -8.1629   14.1869    9.9789 N   0  0  0  0  0  0  0  0  0  0  0  0
   -6.9877   13.7278   10.3617 C   0  0  0  0  0  0  0  0  0  0  0  0
   -6.5352   12.1883    9.7838 S   0  0  0  0  0  0  0  0  0  0  0  0
   -8.0295   12.0854    8.9284 C   0  0  0  0  0  0  0  0  0  0  0  0
   -8.5099   11.0410    8.1143 C   0  0  0  0  0  0  0  0  0  0  0  0
   -5.8377   14.5636   11.4220 S   0  0  0  0  0  0  0  0  0  0  0  0
   -4.8447   15.5645   10.4961 N   0  0  0  0  0  0  0  0  0  0  0  0
   -4.9624   13.5518   11.9717 O   0  0  0  0  0  0  0  0  0  0  0  0
   -6.6108   15.4538   12.2596 O   0  0  0  0  0  0  0  0  0  0  0  0
   -4.2681   14.9937    9.8779 H   0  0  0  0  0  0  0  0  0  0  0  0
   -4.2437   16.1115   11.1125 H   0  0  0  0  0  0  0  0  0  0  0  0
  -10.3825   10.2735    6.7096 O   0  0  0  0  0  0  0  0  0  0  0  0
  -11.0311   10.7257    4.4169 C   0  0  0  0  0  0  0  0  0  0  0  0
  -11.4581   10.6992    5.8741 C   0  0  0  0  0  0  0  0  0  0  0  0
 17 18  1  0
 18 16  1  0
 16  1  1  0
  1  2  2  0
  2  3  1  0
  3  4  2  0
  4  5  1  0
  5  6  2  0
  6 10  1  0
 10 11  1  0
 10 12  2  0
 10 13  2  0
  6  7  1  0
  7  8  1  0
  8  9  2  0
  9  1  1  0
  8  4  1  0
 11 14  1  0
 11 15  1  0
M  END
> <minimizedAffinity>
-4.37042

> <CNNscore>
0.6248525977

> <CNNaffinity>
3.9844973087

> <CNN_VS>
2.4897234440

> <CNNaffinity_variance>
0.3239344358

$$$$



 18 19  0  0  0  0  0  0  0  0999 V2000
   -2.7951    7.3696   13.1854 C   0  0  0  0  0  0  0  0  0  0  0  0
   -4.0460    7.1725   12.6001 C   0  0  0  0  0  0  0  0  0  0  0  0
   -4.7766    5.9999   12.8236 C   0  0  0  0  0  0  0  0  0  0  0  0
   -4.2410    4.9961   13.6507 C   0  0  0  0  0  0  0  0  0  0  0  0
   -4.8473    3.7910   13.9590 N   0  0  0  0  0  0  0  0  0  0  0  0
   -4.0532    3.1030   14.7556 C   0  0  0  0  0  0  0  0  0  0  0  0
   -2.5685    3.8279   15.1788 S   0  0  0  0  0  0  0  0  0  0  0  0
   -2.9847    5.2042   14.2259 C   0  0  0  0  0  0  0  0  0  0  0  0
   -2.2437    6.3819   14.0064 C   0  0  0  0  0  0  0  0  0  0  0  0
   -4.3877    1.4950   15.4247 S   0  0  0  0  0  0  0  0  0  0  0  0
   -5.9298    1.4801   16.1078 N   0  0  0  0  0  0  0  0  0  0  0  0
   -3.4735    1.3017   16.5287 O   0  0  0  0  0  0  0  0  0  0  0  0
   -4.4516    0.5807   14.3059 O   0  0  0  0  0  0  0  0  0  0  0  0
   -5.9527    2.1104   16.9095 H   0  0  0  0  0  0  0  0  0  0  0  0
   -6.1575    0.5338   16.4128 H   0  0  0  0  0  0  0  0  0  0  0  0
   -2.2114    8.5642   12.8637 O   0  0  0  0  0  0  0  0  0  0  0  0
   -2.1777    8.8716   15.2690 C   0  0  0  0  0  0  0  0  0  0  0  0
   -1.8249    9.4529   13.9111 C   0  0  0  0  0  0  0  0  0  0  0  0
 17 18  1  0
 18 16  1  0
 16  1  1  0
  1  2  2  0
  2  3  1  0
  3  4  2  0
  4  5  1  0
  5  6  2  0
  6 10  1  0
 10 11  1  0
 10 12  2  0
 10 13  2  0
  6  7  1  0
  7  8  1  0
  8  9  2  0
  9  1  1  0
  8  4  1  0
 11 14  1  0
 11 15  1  0
M  END
> <minimizedAffinity>
-5.14554

> <CNNscore>
0.5033753514

> <CNNaffinity>
5.9713973999

> <CNN_VS>
3.0058543682

> <CNNaffinity_variance>
0.4770971835

$$$$



 18 19  0  0  0  0  0  0  0  0999 V2000
   -9.6387    9.9719    7.6837 C   0  0  0  0  0  0  0  0  0  0  0  0
   -8.6274   10.9001    7.9324 C   0  0  0  0  0  0  0  0  0  0  0  0
   -7.3636   10.4966    8.3782 C   0  0  0  0  0  0  0  0  0  0  0  0
   -7.1050    9.1294    8.5846 C   0  0  0  0  0  0  0  0  0  0  0  0
   -5.9088    8.5878    9.0213 N   0  0  0  0  0  0  0  0  0  0  0  0
   -6.0353    7.2778    9.1014 C   0  0  0  0  0  0  0  0  0  0  0  0
   -7.5499    6.6212    8.6730 S   0  0  0  0  0  0  0  0  0  0  0  0
   -8.1286    8.2110    8.3371 C   0  0  0  0  0  0  0  0  0  0  0  0
   -9.4028    8.6094    7.8877 C   0  0  0  0  0  0  0  0  0  0  0  0
   -4.7761    6.1390    9.6140 S   0  0  0  0  0  0  0  0  0  0  0  0
   -4.2674    5.2291    8.2880 N   0  0  0  0  0  0  0  0  0  0  0  0
   -5.4044    5.1957   10.5125 O   0  0  0  0  0  0  0  0  0  0  0  0
   -3.6293    6.9298   10.0031 O   0  0  0  0  0  0  0  0  0  0  0  0
   -5.0366    4.6439    7.9619 H   0  0  0  0  0  0  0  0  0  0  0  0
   -3.4829    4.6376    8.5622 H   0  0  0  0  0  0  0  0  0  0  0  0
  -10.8135   10.5285    7.2582 O   0  0  0  0  0  0  0  0  0  0  0  0
  -11.7085   12.6910    6.6226 C   0  0  0  0  0  0  0  0  0  0  0  0
  -11.1913   11.8138    7.7493 C   0  0  0  0  0  0  0  0  0  0  0  0
 17 18  1  0
 18 16  1  0
 16  1  1  0
  1  2  2  0
  2  3  1  0
  3  4  2  0
  4  5  1  0
  5  6  2  0
  6 10  1  0
 10 11  1  0
 10 12  2  0
 10 13  2  0
  6  7  1  0
  7  8  1  0
  8  9  2  0
  9  1  1  0
  8  4  1  0
 11 14  1  0
 11 15  1  0
M  END
> <minimizedAffinity>
-4.20303

> <CNNscore>
0.4447218180

> <CNNaffinity>
3.3785345554

> <CNN_VS>
1.5025080442

> <CNNaffinity_variance>
0.9805037379

$$$$



 18 19  0  0  0  0  0  0  0  0999 V2000
  -10.4802   10.8730    6.6490 C   0  0  0  0  0  0  0  0  0  0  0  0
   -9.5041   11.8039    7.0052 C   0  0  0  0  0  0  0  0  0  0  0  0
   -8.4039   11.4397    7.7898 C   0  0  0  0  0  0  0  0  0  0  0  0
   -8.2781   10.1108    8.2335 C   0  0  0  0  0  0  0  0  0  0  0  0
   -7.2491    9.6103    9.0117 N   0  0  0  0  0  0  0  0  0  0  0  0
   -7.4643    8.3286    9.2341 C   0  0  0  0  0  0  0  0  0  0  0  0
   -8.8719    7.6522    8.5486 S   0  0  0  0  0  0  0  0  0  0  0  0
   -9.2658    9.1901    7.8741 C   0  0  0  0  0  0  0  0  0  0  0  0
  -10.3756    9.5489    7.0842 C   0  0  0  0  0  0  0  0  0  0  0  0
   -6.4256    7.2467   10.1806 S   0  0  0  0  0  0  0  0  0  0  0  0
   -7.0251    7.1247   11.7525 N   0  0  0  0  0  0  0  0  0  0  0  0
   -5.1419    7.9012   10.3057 O   0  0  0  0  0  0  0  0  0  0  0  0
   -6.5662    5.9254    9.6096 O   0  0  0  0  0  0  0  0  0  0  0  0
   -6.9541    8.0312   12.2147 H   0  0  0  0  0  0  0  0  0  0  0  0
   -6.4814    6.4350   12.2712 H   0  0  0  0  0  0  0  0  0  0  0  0
  -11.4901   11.3895    5.8846 O   0  0  0  0  0  0  0  0  0  0  0  0
  -11.5231   12.6944    3.8407 C   0  0  0  0  0  0  0  0  0  0  0  0
  -11.3533   12.7053    5.3498 C   0  0  0  0  0  0  0  0  0  0  0  0
 17 18  1  0
 18 16  1  0
 16  1  1  0
  1  2  2  0
  2  3  1  0
  3  4  2  0
  4  5  1  0
  5  6  2  0
  6 10  1  0
 10 11  1  0
 10 12  2  0
 10 13  2  0
  6  7  1  0
  7  8  1  0
  8  9  2  0
  9  1  1  0
  8  4  1  0
 11 14  1  0
 11 15  1  0
M  END
> <minimizedAffinity>
-4.37793

> <CNNscore>
0.4208492041

> <CNNaffinity>
3.3986847401

> <CNN_VS>
1.4303337336

> <CNNaffinity_variance>
1.1865850687

$$$$



 18 19  0  0  0  0  0  0  0  0999 V2000
   -5.3966    8.0354   10.5359 C   0  0  0  0  0  0  0  0  0  0  0  0
   -5.0896    9.3953   10.4872 C   0  0  0  0  0  0  0  0  0  0  0  0
   -5.9288   10.3072    9.8367 C   0  0  0  0  0  0  0  0  0  0  0  0
   -7.1038    9.8470    9.2152 C   0  0  0  0  0  0  0  0  0  0  0  0
   -8.0226   10.6298    8.5386 N   0  0  0  0  0  0  0  0  0  0  0  0
   -8.9923    9.8589    8.0869 C   0  0  0  0  0  0  0  0  0  0  0  0
   -8.8760    8.1922    8.4294 S   0  0  0  0  0  0  0  0  0  0  0  0
   -7.3961    8.4816    9.2669 C   0  0  0  0  0  0  0  0  0  0  0  0
   -6.5569    7.5578    9.9201 C   0  0  0  0  0  0  0  0  0  0  0  0
  -10.4031   10.3967    7.1564 S   0  0  0  0  0  0  0  0  0  0  0  0
  -11.7193    9.4013    7.5053 N   0  0  0  0  0  0  0  0  0  0  0  0
  -10.0997   10.1625    5.7618 O   0  0  0  0  0  0  0  0  0  0  0  0
  -10.7630   11.7041    7.6594 O   0  0  0  0  0  0  0  0  0  0  0  0
  -11.5280    8.4559    7.1734 H   0  0  0  0  0  0  0  0  0  0  0  0
  -12.5519    9.7630    7.0402 H   0  0  0  0  0  0  0  0  0  0  0  0
   -4.4733    7.2795   11.2046 O   0  0  0  0  0  0  0  0  0  0  0  0
   -4.9725    5.8096   13.0679 C   0  0  0  0  0  0  0  0  0  0  0  0
   -4.8025    5.9384   11.5642 C   0  0  0  0  0  0  0  0  0  0  0  0
 17 18  1  0
 18 16  1  0
 16  1  1  0
  1  2  2  0
  2  3  1  0
  3  4  2  0
  4  5  1  0
  5  6  2  0
  6 10  1  0
 10 11  1  0
 10 12  2  0
 10 13  2  0
  6  7  1  0
  7  8  1  0
  8  9  2  0
  9  1  1  0
  8  4  1  0
 11 14  1  0
 11 15  1  0
M  END
> <minimizedAffinity>
-4.32110

> <CNNscore>
0.3776296079

> <CNNaffinity>
3.8335704803

> <CNN_VS>
1.4476697445

> <CNNaffinity_variance>
0.6152346730

$$$$



 18 19  0  0  0  0  0  0  0  0999 V2000
   -6.0890    7.2224    8.7831 C   0  0  0  0  0  0  0  0  0  0  0  0
   -5.3744    8.2729    9.3593 C   0  0  0  0  0  0  0  0  0  0  0  0
   -5.8929    9.5724    9.3935 C   0  0  0  0  0  0  0  0  0  0  0  0
   -7.1574    9.8295    8.8335 C   0  0  0  0  0  0  0  0  0  0  0  0
   -7.7920   11.0586    8.7951 N   0  0  0  0  0  0  0  0  0  0  0  0
   -8.9568   10.9210    8.1928 C   0  0  0  0  0  0  0  0  0  0  0  0
   -9.3625    9.3574    7.6455 S   0  0  0  0  0  0  0  0  0  0  0  0
   -7.8598    8.7692    8.2547 C   0  0  0  0  0  0  0  0  0  0  0  0
   -7.3449    7.4586    8.2171 C   0  0  0  0  0  0  0  0  0  0  0  0
  -10.1370   12.2119    7.8997 S   0  0  0  0  0  0  0  0  0  0  0  0
  -11.6944   11.5640    7.9163 N   0  0  0  0  0  0  0  0  0  0  0  0
   -9.9249   12.6746    6.5459 O   0  0  0  0  0  0  0  0  0  0  0  0
  -10.0762   13.1016    9.0383 O   0  0  0  0  0  0  0  0  0  0  0  0
  -11.8039   10.9220    7.1313 H   0  0  0  0  0  0  0  0  0  0  0  0
  -12.3770   12.3178    7.8369 H   0  0  0  0  0  0  0  0  0  0  0  0
   -5.4418    6.0181    8.8272 O   0  0  0  0  0  0  0  0  0  0  0  0
   -4.1828    5.6368    6.7898 C   0  0  0  0  0  0  0  0  0  0  0  0
   -4.1273    5.9155    8.2817 C   0  0  0  0  0  0  0  0  0  0  0  0
 17 18  1  0
 18 16  1  0
 16  1  1  0
  1  2  2  0
  2  3  1  0
  3  4  2  0
  4  5  1  0
  5  6  2  0
  6 10  1  0
 10 11  1  0
 10 12  2  0
 10 13  2  0
  6  7  1  0
  7  8  1  0
  8  9  2  0
  9  1  1  0
  8  4  1  0
 11 14  1  0
 11 15  1  0
M  END
> <minimizedAffinity>
-4.30369

> <CNNscore>
0.3550960124

> <CNNaffinity>
3.9600436687

> <CNN_VS>
1.4061957598

> <CNNaffinity_variance>
0.8780348897

$$$$



 18 19  0  0  0  0  0  0  0  0999 V2000
   -6.8651    9.3476    7.9109 C   0  0  0  0  0  0  0  0  0  0  0  0
   -5.9843    9.3715    8.9925 C   0  0  0  0  0  0  0  0  0  0  0  0
   -6.0056   10.4154    9.9245 C   0  0  0  0  0  0  0  0  0  0  0  0
   -6.9290   11.4651    9.7691 C   0  0  0  0  0  0  0  0  0  0  0  0
   -7.0631   12.5573   10.6081 N   0  0  0  0  0  0  0  0  0  0  0  0
   -8.0249   13.3343   10.1500 C   0  0  0  0  0  0  0  0  0  0  0  0
   -8.8128   12.8280    8.7247 S   0  0  0  0  0  0  0  0  0  0  0  0
   -7.8015   11.4314    8.6782 C   0  0  0  0  0  0  0  0  0  0  0  0
   -7.7866   10.3839    7.7365 C   0  0  0  0  0  0  0  0  0  0  0  0
   -8.5716   14.8556   10.8794 S   0  0  0  0  0  0  0  0  0  0  0  0
   -7.3331   15.5031   11.8240 N   0  0  0  0  0  0  0  0  0  0  0  0
   -9.6299   14.5197   11.8064 O   0  0  0  0  0  0  0  0  0  0  0  0
   -8.7630   15.7946    9.7962 O   0  0  0  0  0  0  0  0  0  0  0  0
   -7.1473   14.8832   12.6124 H   0  0  0  0  0  0  0  0  0  0  0  0
   -7.6143   16.4200   12.1712 H   0  0  0  0  0  0  0  0  0  0  0  0
   -6.7122    8.2628    7.0919 O   0  0  0  0  0  0  0  0  0  0  0  0
   -5.2230    6.3688    6.8154 C   0  0  0  0  0  0  0  0  0  0  0  0
   -5.3987    7.8724    6.6939 C   0  0  0  0  0  0  0  0  0  0  0  0
 17 18  1  0
 18 16  1  0
 16  1  1  0
  1  2  2  0
  2  3  1  0
  3  4  2  0
  4  5  1  0
  5  6  2  0
  6 10  1  0
 10 11  1  0
 10 12  2  0
 10 13  2  0
  6  7  1  0
  7  8  1  0
  8  9  2  0
  9  1  1  0
  8  4  1  0
 11 14  1  0
 11 15  1  0
M  END
> <minimizedAffinity>
-3.99778

> <CNNscore>
0.3435540795

> <CNNaffinity>
3.5045082569

> <CNN_VS>
1.2039880753

> <CNNaffinity_variance>
0.5625579953

$$$$
