


 38 41  0  0  0  0  0  0  0  0999 V2000
    1.9807   62.1901   70.1320 C   0  0  0  0  0  0  0  0  0  0  0  0
    1.8648   62.9212   71.4716 C   0  0  0  0  0  0  0  0  0  0  0  0
    0.7540   62.3723   72.3728 C   0  0  0  0  0  0  0  0  0  0  0  0
    0.6769   62.9645   73.7852 C   0  0  0  0  0  0  0  0  0  0  0  0
    1.0010   61.9508   74.8871 C   0  0  0  0  0  0  0  0  0  0  0  0
    2.3068   61.3103   74.7237 N   0  0  0  0  0  0  0  0  0  0  0  0
    2.7456   61.7036   73.8912 H   0  0  0  0  0  0  0  0  0  0  0  0
    4.1534   58.4574   69.4973 O   0  0  0  0  0  0  0  0  0  0  0  0
    3.7519   58.7587   70.6151 C   0  0  0  0  0  0  0  0  0  0  0  0
    4.4408   59.7839   71.4312 C   0  0  0  0  0  0  0  0  0  0  0  0
    3.9661   60.0878   72.6471 C   0  0  0  0  0  0  0  0  0  0  0  0
    2.7757   59.4402   73.1857 C   0  0  0  0  0  0  0  0  0  0  0  0
    2.1678   58.4891   72.4456 C   0  0  0  0  0  0  0  0  0  0  0  0
    2.6532   58.1740   71.1943 N   0  0  0  0  0  0  0  0  0  0  0  0
    0.9752   57.7062   72.9216 C   0  0  0  0  0  0  0  0  0  0  0  0
    0.7583   57.8259   74.4286 C   0  0  0  0  0  0  0  0  0  0  0  0
    0.8887   59.2758   74.8840 C   0  0  0  0  0  0  0  0  0  0  0  0
    2.2917   59.8444   74.5761 C   0  0  0  0  0  0  0  0  0  0  0  0
    2.1786   57.4814   70.6801 H   0  0  0  0  0  0  0  0  0  0  0  0
    3.1639   62.7162   69.3145 C   0  0  0  0  0  0  0  0  0  0  0  0
    4.0025   63.7591   70.0614 C   0  0  0  0  0  0  0  0  0  0  0  0
    4.1529   65.0778   69.2988 C   0  0  0  0  0  0  0  0  0  0  0  0
    3.0175   66.0726   69.5714 C   0  0  0  0  0  0  0  0  0  0  0  0
    2.8617   67.1326   68.4757 C   0  0  0  0  0  0  0  0  0  0  0  0
    3.6803   66.8791   67.2893 N   0  0  0  0  0  0  0  0  0  0  0  0
    4.1379   65.9757   67.4119 H   0  0  0  0  0  0  0  0  0  0  0  0
    2.9569   66.8491   66.0065 C   0  0  0  0  0  0  0  0  0  0  0  0
    3.0567   68.1845   65.2367 C   0  0  0  0  0  0  0  0  0  0  0  0
    4.4606   68.4063   64.6761 C   0  0  0  0  0  0  0  0  0  0  0  0
    4.8429   67.2898   63.7020 C   0  0  0  0  0  0  0  0  0  0  0  0
    4.3601   65.9253   64.1208 C   0  0  0  0  0  0  0  0  0  0  0  0
    4.8136   64.8538   63.3804 N   0  0  0  0  0  0  0  0  0  0  0  0
    4.4751   63.5451   63.6172 C   0  0  0  0  0  0  0  0  0  0  0  0
    4.8996   62.6143   62.9431 O   0  0  0  0  0  0  0  0  0  0  0  0
    3.5466   63.3131   64.7497 C   0  0  0  0  0  0  0  0  0  0  0  0
    3.1055   64.3555   65.4674 C   0  0  0  0  0  0  0  0  0  0  0  0
    3.5248   65.7168   65.1601 C   0  0  0  0  0  0  0  0  0  0  0  0
    5.4227   65.0407   62.6298 H   0  0  0  0  0  0  0  0  0  0  0  0
  8  9  2  0
  9 10  1  0
 10 11  2  0
 11 12  1  0
 12 13  2  0
 13 14  1  0
 13 15  1  0
 15 16  1  0
 16 17  1  0
 17 18  1  0
 18  6  1  0
  6  5  1  0
  5  4  1  0
  4  3  1  0
  3  2  1  0
  2  1  1  0
  1 20  1  0
 20 21  1  0
 21 22  1  0
 22 23  1  0
 23 24  1  0
 24 25  1  0
 27 25  1  0
 27 28  1  0
 28 29  1  0
 29 30  1  0
 30 31  1  0
 31 32  1  0
 32 33  1  0
 33 34  2  0
 33 35  1  0
 35 36  2  0
 36 37  1  0
 14  9  1  0
 37 27  1  0
 18 12  1  0
 37 31  2  0
 14 19  1  0
  6  7  1  0
 25 26  1  0
 32 38  1  0
M  END
> <minimizedAffinity>
-9.89141

> <CNNscore>
0.9220526218

> <CNNaffinity>
8.4134454727

> <CNN_VS>
7.7576394081

> <CNNaffinity_variance>
0.1168024018

$$$$



 38 41  0  0  0  0  0  0  0  0999 V2000
    4.5911   64.6903   69.7595 C   0  0  0  0  0  0  0  0  0  0  0  0
    5.1230   65.0775   68.3776 C   0  0  0  0  0  0  0  0  0  0  0  0
    4.0805   65.7700   67.4939 C   0  0  0  0  0  0  0  0  0  0  0  0
    4.0359   65.3238   66.0275 C   0  0  0  0  0  0  0  0  0  0  0  0
    2.7940   65.8191   65.2797 C   0  0  0  0  0  0  0  0  0  0  0  0
    2.4475   67.2085   65.5819 N   0  0  0  0  0  0  0  0  0  0  0  0
    1.4342   67.3004   65.5100 H   0  0  0  0  0  0  0  0  0  0  0  0
    0.4138   68.3026   59.7912 O   0  0  0  0  0  0  0  0  0  0  0  0
    0.9902   68.2938   60.8725 C   0  0  0  0  0  0  0  0  0  0  0  0
    0.2385   68.2290   62.1462 C   0  0  0  0  0  0  0  0  0  0  0  0
    0.9076   68.2163   63.3074 C   0  0  0  0  0  0  0  0  0  0  0  0
    2.3648   68.2531   63.3492 C   0  0  0  0  0  0  0  0  0  0  0  0
    3.0419   68.3370   62.1846 C   0  0  0  0  0  0  0  0  0  0  0  0
    2.3569   68.3500   60.9882 N   0  0  0  0  0  0  0  0  0  0  0  0
    4.5395   68.4484   62.1039 C   0  0  0  0  0  0  0  0  0  0  0  0
    5.1725   68.8266   63.4413 C   0  0  0  0  0  0  0  0  0  0  0  0
    4.5782   68.0010   64.5778 C   0  0  0  0  0  0  0  0  0  0  0  0
    3.0560   68.2288   64.7103 C   0  0  0  0  0  0  0  0  0  0  0  0
    2.8848   68.4033   60.1589 H   0  0  0  0  0  0  0  0  0  0  0  0
    3.0690   64.8432   69.8297 C   0  0  0  0  0  0  0  0  0  0  0  0
    2.3892   63.7684   70.6849 C   0  0  0  0  0  0  0  0  0  0  0  0
    0.8743   63.9532   70.8027 C   0  0  0  0  0  0  0  0  0  0  0  0
    0.0945   62.6327   70.7677 C   0  0  0  0  0  0  0  0  0  0  0  0
   -0.4744   62.2262   72.1313 C   0  0  0  0  0  0  0  0  0  0  0  0
   -0.4396   60.7842   72.3787 N   0  0  0  0  0  0  0  0  0  0  0  0
   -0.3444   60.3143   71.4784 H   0  0  0  0  0  0  0  0  0  0  0  0
    0.6471   60.3104   73.2531 C   0  0  0  0  0  0  0  0  0  0  0  0
    0.1231   59.5938   74.5171 C   0  0  0  0  0  0  0  0  0  0  0  0
   -0.4797   58.2307   74.1811 C   0  0  0  0  0  0  0  0  0  0  0  0
    0.5642   57.3148   73.5385 C   0  0  0  0  0  0  0  0  0  0  0  0
    1.4986   58.0259   72.5942 C   0  0  0  0  0  0  0  0  0  0  0  0
    2.3511   57.2343   71.8535 N   0  0  0  0  0  0  0  0  0  0  0  0
    3.2677   57.7108   70.9501 C   0  0  0  0  0  0  0  0  0  0  0  0
    4.0082   56.9797   70.3033 O   0  0  0  0  0  0  0  0  0  0  0  0
    3.3194   59.1848   70.7990 C   0  0  0  0  0  0  0  0  0  0  0  0
    2.4914   59.9530   71.5207 C   0  0  0  0  0  0  0  0  0  0  0  0
    1.5342   59.3673   72.4502 C   0  0  0  0  0  0  0  0  0  0  0  0
    2.2984   56.2596   71.9818 H   0  0  0  0  0  0  0  0  0  0  0  0
  8  9  2  0
  9 10  1  0
 10 11  2  0
 11 12  1  0
 12 13  2  0
 13 14  1  0
 13 15  1  0
 15 16  1  0
 16 17  1  0
 17 18  1  0
 18  6  1  0
  6  5  1  0
  5  4  1  0
  4  3  1  0
  3  2  1  0
  2  1  1  0
  1 20  1  0
 20 21  1  0
 21 22  1  0
 22 23  1  0
 23 24  1  0
 24 25  1  0
 27 25  1  0
 27 28  1  0
 28 29  1  0
 29 30  1  0
 30 31  1  0
 31 32  1  0
 32 33  1  0
 33 34  2  0
 33 35  1  0
 35 36  2  0
 36 37  1  0
 14  9  1  0
 37 27  1  0
 18 12  1  0
 37 31  2  0
 14 19  1  0
  6  7  1  0
 25 26  1  0
 32 38  1  0
M  END
> <minimizedAffinity>
-10.70156

> <CNNscore>
0.8452932835

> <CNNaffinity>
8.4088621140

> <CNN_VS>
7.1079545021

> <CNNaffinity_variance>
0.1511252224

$$$$



 38 41  0  0  0  0  0  0  0  0999 V2000
    4.8229   64.4414   69.6847 C   0  0  0  0  0  0  0  0  0  0  0  0
    3.8654   65.6314   69.7820 C   0  0  0  0  0  0  0  0  0  0  0  0
    3.3514   66.1146   68.4220 C   0  0  0  0  0  0  0  0  0  0  0  0
    4.3411   66.0199   67.2545 C   0  0  0  0  0  0  0  0  0  0  0  0
    3.6654   66.0684   65.8804 C   0  0  0  0  0  0  0  0  0  0  0  0
    2.8456   67.2634   65.6762 N   0  0  0  0  0  0  0  0  0  0  0  0
    1.9505   66.9655   65.2881 H   0  0  0  0  0  0  0  0  0  0  0  0
    0.6382   68.2456   59.9292 O   0  0  0  0  0  0  0  0  0  0  0  0
    1.2428   68.2618   60.9949 C   0  0  0  0  0  0  0  0  0  0  0  0
    0.5262   68.1964   62.2887 C   0  0  0  0  0  0  0  0  0  0  0  0
    1.2256   68.2115   63.4319 C   0  0  0  0  0  0  0  0  0  0  0  0
    2.6823   68.2793   63.4347 C   0  0  0  0  0  0  0  0  0  0  0  0
    3.3267   68.3636   62.2518 C   0  0  0  0  0  0  0  0  0  0  0  0
    2.6105   68.3480   61.0738 N   0  0  0  0  0  0  0  0  0  0  0  0
    4.8190   68.5054   62.1302 C   0  0  0  0  0  0  0  0  0  0  0  0
    5.4786   68.9126   63.4461 C   0  0  0  0  0  0  0  0  0  0  0  0
    4.9319   68.0883   64.6072 C   0  0  0  0  0  0  0  0  0  0  0  0
    3.4092   68.2858   64.7772 C   0  0  0  0  0  0  0  0  0  0  0  0
    3.1153   68.4024   60.2303 H   0  0  0  0  0  0  0  0  0  0  0  0
    4.1108   63.1285   70.0227 C   0  0  0  0  0  0  0  0  0  0  0  0
    2.6131   63.3028   70.2969 C   0  0  0  0  0  0  0  0  0  0  0  0
    2.1516   62.6392   71.5968 C   0  0  0  0  0  0  0  0  0  0  0  0
    2.6268   61.1880   71.7426 C   0  0  0  0  0  0  0  0  0  0  0  0
    1.5099   60.2203   72.1480 C   0  0  0  0  0  0  0  0  0  0  0  0
    1.9936   58.9052   72.5705 N   0  0  0  0  0  0  0  0  0  0  0  0
    3.0043   58.8850   72.4349 H   0  0  0  0  0  0  0  0  0  0  0  0
    1.7178   58.5409   73.9709 C   0  0  0  0  0  0  0  0  0  0  0  0
    0.8004   59.5609   74.6806 C   0  0  0  0  0  0  0  0  0  0  0  0
   -0.6344   59.4827   74.1613 C   0  0  0  0  0  0  0  0  0  0  0  0
   -1.2276   58.0927   74.4016 C   0  0  0  0  0  0  0  0  0  0  0  0
   -0.2455   56.9685   74.1975 C   0  0  0  0  0  0  0  0  0  0  0  0
   -0.7550   55.6874   74.2308 N   0  0  0  0  0  0  0  0  0  0  0  0
   -0.0076   54.5480   74.0675 C   0  0  0  0  0  0  0  0  0  0  0  0
   -0.4920   53.4230   74.0977 O   0  0  0  0  0  0  0  0  0  0  0  0
    1.4452   54.7537   73.8543 C   0  0  0  0  0  0  0  0  0  0  0  0
    1.9392   55.9992   73.8237 C   0  0  0  0  0  0  0  0  0  0  0  0
    1.0745   57.1601   73.9911 C   0  0  0  0  0  0  0  0  0  0  0  0
   -1.7221   55.5829   74.3821 H   0  0  0  0  0  0  0  0  0  0  0  0
  8  9  2  0
  9 10  1  0
 10 11  2  0
 11 12  1  0
 12 13  2  0
 13 14  1  0
 13 15  1  0
 15 16  1  0
 16 17  1  0
 17 18  1  0
 18  6  1  0
  6  5  1  0
  5  4  1  0
  4  3  1  0
  3  2  1  0
  2  1  1  0
  1 20  1  0
 20 21  1  0
 21 22  1  0
 22 23  1  0
 23 24  1  0
 24 25  1  0
 27 25  1  0
 27 28  1  0
 28 29  1  0
 29 30  1  0
 30 31  1  0
 31 32  1  0
 32 33  1  0
 33 34  2  0
 33 35  1  0
 35 36  2  0
 36 37  1  0
 14  9  1  0
 37 27  1  0
 18 12  1  0
 37 31  2  0
 14 19  1  0
  6  7  1  0
 25 26  1  0
 32 38  1  0
M  END
> <minimizedAffinity>
-9.85193

> <CNNscore>
0.7642809749

> <CNNaffinity>
8.1812191010

> <CNN_VS>
6.2527499199

> <CNNaffinity_variance>
0.0230771061

$$$$



 38 41  0  0  0  0  0  0  0  0999 V2000
    3.2142   62.9960   70.0041 C   0  0  0  0  0  0  0  0  0  0  0  0
    2.0333   63.9692   69.9751 C   0  0  0  0  0  0  0  0  0  0  0  0
    0.8756   63.5521   70.8879 C   0  0  0  0  0  0  0  0  0  0  0  0
    1.2679   62.9156   72.2267 C   0  0  0  0  0  0  0  0  0  0  0  0
    0.1050   62.2023   72.9237 C   0  0  0  0  0  0  0  0  0  0  0  0
   -0.1078   60.8343   72.4491 N   0  0  0  0  0  0  0  0  0  0  0  0
   -1.1139   60.6744   72.3978 H   0  0  0  0  0  0  0  0  0  0  0  0
    4.1498   56.8462   70.2506 O   0  0  0  0  0  0  0  0  0  0  0  0
    3.3501   57.4902   70.9195 C   0  0  0  0  0  0  0  0  0  0  0  0
    3.3227   58.9697   70.8744 C   0  0  0  0  0  0  0  0  0  0  0  0
    2.4286   59.6360   71.6179 C   0  0  0  0  0  0  0  0  0  0  0  0
    1.4692   58.9380   72.4658 C   0  0  0  0  0  0  0  0  0  0  0  0
    1.5170   57.5903   72.5202 C   0  0  0  0  0  0  0  0  0  0  0  0
    2.4352   56.9015   71.7565 N   0  0  0  0  0  0  0  0  0  0  0  0
    0.6254   56.7655   73.4071 C   0  0  0  0  0  0  0  0  0  0  0  0
   -0.0600   57.5989   74.4878 C   0  0  0  0  0  0  0  0  0  0  0  0
   -0.6296   58.8871   73.9025 C   0  0  0  0  0  0  0  0  0  0  0  0
    0.4770   59.7661   73.2786 C   0  0  0  0  0  0  0  0  0  0  0  0
    2.4346   55.9187   71.8156 H   0  0  0  0  0  0  0  0  0  0  0  0
    4.5475   63.7453   70.0804 C   0  0  0  0  0  0  0  0  0  0  0  0
    4.4459   65.2119   69.6476 C   0  0  0  0  0  0  0  0  0  0  0  0
    4.4308   65.3980   68.1283 C   0  0  0  0  0  0  0  0  0  0  0  0
    3.6446   66.6341   67.6733 C   0  0  0  0  0  0  0  0  0  0  0  0
    2.8134   66.3943   66.4083 C   0  0  0  0  0  0  0  0  0  0  0  0
    3.5240   66.7074   65.1677 N   0  0  0  0  0  0  0  0  0  0  0  0
    3.1313   66.1265   64.4269 H   0  0  0  0  0  0  0  0  0  0  0  0
    3.4545   68.1110   64.7265 C   0  0  0  0  0  0  0  0  0  0  0  0
    4.8504   68.7479   64.5487 C   0  0  0  0  0  0  0  0  0  0  0  0
    5.5739   68.1838   63.3270 C   0  0  0  0  0  0  0  0  0  0  0  0
    4.7817   68.4592   62.0471 C   0  0  0  0  0  0  0  0  0  0  0  0
    3.2898   68.3336   62.2162 C   0  0  0  0  0  0  0  0  0  0  0  0
    2.5286   68.4007   61.0681 N   0  0  0  0  0  0  0  0  0  0  0  0
    1.1597   68.3086   61.0353 C   0  0  0  0  0  0  0  0  0  0  0  0
    0.5124   68.3672   59.9967 O   0  0  0  0  0  0  0  0  0  0  0  0
    0.4924   68.1367   62.3481 C   0  0  0  0  0  0  0  0  0  0  0  0
    1.2333   68.0731   63.4632 C   0  0  0  0  0  0  0  0  0  0  0  0
    2.6867   68.1646   63.4117 C   0  0  0  0  0  0  0  0  0  0  0  0
    3.0000   68.5233   60.2126 H   0  0  0  0  0  0  0  0  0  0  0  0
  8  9  2  0
  9 10  1  0
 10 11  2  0
 11 12  1  0
 12 13  2  0
 13 14  1  0
 13 15  1  0
 15 16  1  0
 16 17  1  0
 17 18  1  0
 18  6  1  0
  6  5  1  0
  5  4  1  0
  4  3  1  0
  3  2  1  0
  2  1  1  0
  1 20  1  0
 20 21  1  0
 21 22  1  0
 22 23  1  0
 23 24  1  0
 24 25  1  0
 27 25  1  0
 27 28  1  0
 28 29  1  0
 29 30  1  0
 30 31  1  0
 31 32  1  0
 32 33  1  0
 33 34  2  0
 33 35  1  0
 35 36  2  0
 36 37  1  0
 14  9  1  0
 37 27  1  0
 18 12  1  0
 37 31  2  0
 14 19  1  0
  6  7  1  0
 25 26  1  0
 32 38  1  0
M  END
> <minimizedAffinity>
-10.52828

> <CNNscore>
0.7630258799

> <CNNaffinity>
8.0778760910

> <CNN_VS>
6.1636285782

> <CNNaffinity_variance>
0.2930727005

$$$$



 38 41  0  0  0  0  0  0  0  0999 V2000
    3.1049   63.2006   70.1068 C   0  0  0  0  0  0  0  0  0  0  0  0
    2.7263   62.0871   71.0862 C   0  0  0  0  0  0  0  0  0  0  0  0
    2.9770   60.6791   70.5367 C   0  0  0  0  0  0  0  0  0  0  0  0
    2.6941   59.5192   71.4990 C   0  0  0  0  0  0  0  0  0  0  0  0
    2.8828   58.1400   70.8595 C   0  0  0  0  0  0  0  0  0  0  0  0
    2.8459   57.0403   71.8245 N   0  0  0  0  0  0  0  0  0  0  0  0
    2.4543   56.2246   71.3537 H   0  0  0  0  0  0  0  0  0  0  0  0
   -0.4431   52.5387   74.6144 O   0  0  0  0  0  0  0  0  0  0  0  0
    0.1102   53.5785   74.2765 C   0  0  0  0  0  0  0  0  0  0  0  0
    1.5288   53.5945   73.8535 C   0  0  0  0  0  0  0  0  0  0  0  0
    2.0950   54.7526   73.4866 C   0  0  0  0  0  0  0  0  0  0  0  0
    1.3432   56.0021   73.4819 C   0  0  0  0  0  0  0  0  0  0  0  0
    0.0575   55.9832   73.8924 C   0  0  0  0  0  0  0  0  0  0  0  0
   -0.5283   54.7937   74.2702 N   0  0  0  0  0  0  0  0  0  0  0  0
   -0.7971   57.2164   73.9943 C   0  0  0  0  0  0  0  0  0  0  0  0
    0.0231   58.5039   73.9496 C   0  0  0  0  0  0  0  0  0  0  0  0
    1.0651   58.4473   72.8372 C   0  0  0  0  0  0  0  0  0  0  0  0
    2.0553   57.2798   73.0446 C   0  0  0  0  0  0  0  0  0  0  0  0
   -1.4702   54.8175   74.5555 H   0  0  0  0  0  0  0  0  0  0  0  0
    4.5594   63.6383   70.3012 C   0  0  0  0  0  0  0  0  0  0  0  0
    5.0227   64.6794   69.2765 C   0  0  0  0  0  0  0  0  0  0  0  0
    3.9145   65.6433   68.8452 C   0  0  0  0  0  0  0  0  0  0  0  0
    4.0924   66.1773   67.4182 C   0  0  0  0  0  0  0  0  0  0  0  0
    2.7674   66.5127   66.7250 C   0  0  0  0  0  0  0  0  0  0  0  0
    2.8876   66.6895   65.2772 N   0  0  0  0  0  0  0  0  0  0  0  0
    2.0813   66.2439   64.8394 H   0  0  0  0  0  0  0  0  0  0  0  0
    2.9457   68.0835   64.8048 C   0  0  0  0  0  0  0  0  0  0  0  0
    4.3887   68.6311   64.7452 C   0  0  0  0  0  0  0  0  0  0  0  0
    5.1847   67.9948   63.6069 C   0  0  0  0  0  0  0  0  0  0  0  0
    4.5315   68.2855   62.2540 C   0  0  0  0  0  0  0  0  0  0  0  0
    3.0254   68.2536   62.2862 C   0  0  0  0  0  0  0  0  0  0  0  0
    2.3781   68.3378   61.0714 N   0  0  0  0  0  0  0  0  0  0  0  0
    1.0149   68.3269   60.9134 C   0  0  0  0  0  0  0  0  0  0  0  0
    0.4702   68.3985   59.8183 O   0  0  0  0  0  0  0  0  0  0  0  0
    0.2209   68.2277   62.1616 C   0  0  0  0  0  0  0  0  0  0  0  0
    0.8513   68.1474   63.3417 C   0  0  0  0  0  0  0  0  0  0  0  0
    2.3062   68.1505   63.4236 C   0  0  0  0  0  0  0  0  0  0  0  0
    2.9325   68.4107   60.2611 H   0  0  0  0  0  0  0  0  0  0  0  0
  8  9  2  0
  9 10  1  0
 10 11  2  0
 11 12  1  0
 12 13  2  0
 13 14  1  0
 13 15  1  0
 15 16  1  0
 16 17  1  0
 17 18  1  0
 18  6  1  0
  6  5  1  0
  5  4  1  0
  4  3  1  0
  3  2  1  0
  2  1  1  0
  1 20  1  0
 20 21  1  0
 21 22  1  0
 22 23  1  0
 23 24  1  0
 24 25  1  0
 27 25  1  0
 27 28  1  0
 28 29  1  0
 29 30  1  0
 30 31  1  0
 31 32  1  0
 32 33  1  0
 33 34  2  0
 33 35  1  0
 35 36  2  0
 36 37  1  0
 14  9  1  0
 37 27  1  0
 18 12  1  0
 37 31  2  0
 14 19  1  0
  6  7  1  0
 25 26  1  0
 32 38  1  0
M  END
> <minimizedAffinity>
-10.36765

> <CNNscore>
0.6482328176

> <CNNaffinity>
7.8469691277

> <CNN_VS>
5.0866627693

> <CNNaffinity_variance>
0.0443721749

$$$$



 38 41  0  0  0  0  0  0  0  0999 V2000
    3.6107   63.6104   69.2225 C   0  0  0  0  0  0  0  0  0  0  0  0
    3.6552   65.0334   69.7842 C   0  0  0  0  0  0  0  0  0  0  0  0
    2.3415   65.8015   69.6065 C   0  0  0  0  0  0  0  0  0  0  0  0
    2.4689   67.2582   69.1446 C   0  0  0  0  0  0  0  0  0  0  0  0
    2.7818   67.3964   67.6514 C   0  0  0  0  0  0  0  0  0  0  0  0
    2.1001   66.4043   66.8189 N   0  0  0  0  0  0  0  0  0  0  0  0
    2.4941   65.4893   67.0376 H   0  0  0  0  0  0  0  0  0  0  0  0
    5.2555   62.4973   63.1252 O   0  0  0  0  0  0  0  0  0  0  0  0
    4.5790   63.3953   63.6126 C   0  0  0  0  0  0  0  0  0  0  0  0
    3.5330   63.1117   64.6212 C   0  0  0  0  0  0  0  0  0  0  0  0
    2.8186   64.1235   65.1334 C   0  0  0  0  0  0  0  0  0  0  0  0
    3.0537   65.5049   64.7298 C   0  0  0  0  0  0  0  0  0  0  0  0
    3.9921   65.7524   63.7918 C   0  0  0  0  0  0  0  0  0  0  0  0
    4.7291   64.7142   63.2629 N   0  0  0  0  0  0  0  0  0  0  0  0
    4.2772   67.1254   63.2481 C   0  0  0  0  0  0  0  0  0  0  0  0
    3.1732   68.1278   63.5779 C   0  0  0  0  0  0  0  0  0  0  0  0
    2.7512   68.0119   65.0391 C   0  0  0  0  0  0  0  0  0  0  0  0
    2.2039   66.6040   65.3628 C   0  0  0  0  0  0  0  0  0  0  0  0
    5.4106   64.9341   62.5874 H   0  0  0  0  0  0  0  0  0  0  0  0
    3.4404   62.5786   70.3411 C   0  0  0  0  0  0  0  0  0  0  0  0
    4.7671   62.1414   70.9716 C   0  0  0  0  0  0  0  0  0  0  0  0
    4.6237   60.9560   71.9295 C   0  0  0  0  0  0  0  0  0  0  0  0
    3.3346   60.9957   72.7599 C   0  0  0  0  0  0  0  0  0  0  0  0
    2.2649   60.0142   72.2693 C   0  0  0  0  0  0  0  0  0  0  0  0
    2.4306   58.6548   72.7856 N   0  0  0  0  0  0  0  0  0  0  0  0
    3.3607   58.5882   73.1990 H   0  0  0  0  0  0  0  0  0  0  0  0
    1.4525   58.2324   73.8028 C   0  0  0  0  0  0  0  0  0  0  0  0
    0.7656   56.8953   73.4475 C   0  0  0  0  0  0  0  0  0  0  0  0
    1.7271   55.7159   73.5843 C   0  0  0  0  0  0  0  0  0  0  0  0
    2.2432   55.5950   75.0198 C   0  0  0  0  0  0  0  0  0  0  0  0
    2.5112   56.9208   75.6836 C   0  0  0  0  0  0  0  0  0  0  0  0
    3.1368   56.8831   76.9121 N   0  0  0  0  0  0  0  0  0  0  0  0
    3.4545   57.9903   77.6581 C   0  0  0  0  0  0  0  0  0  0  0  0
    4.0154   57.9230   78.7453 O   0  0  0  0  0  0  0  0  0  0  0  0
    3.0709   59.2965   77.0707 C   0  0  0  0  0  0  0  0  0  0  0  0
    2.4617   59.3316   75.8774 C   0  0  0  0  0  0  0  0  0  0  0  0
    2.1719   58.1087   75.1400 C   0  0  0  0  0  0  0  0  0  0  0  0
    3.3718   56.0004   77.2795 H   0  0  0  0  0  0  0  0  0  0  0  0
  8  9  2  0
  9 10  1  0
 10 11  2  0
 11 12  1  0
 12 13  2  0
 13 14  1  0
 13 15  1  0
 15 16  1  0
 16 17  1  0
 17 18  1  0
 18  6  1  0
  6  5  1  0
  5  4  1  0
  4  3  1  0
  3  2  1  0
  2  1  1  0
  1 20  1  0
 20 21  1  0
 21 22  1  0
 22 23  1  0
 23 24  1  0
 24 25  1  0
 27 25  1  0
 27 28  1  0
 28 29  1  0
 29 30  1  0
 30 31  1  0
 31 32  1  0
 32 33  1  0
 33 34  2  0
 33 35  1  0
 35 36  2  0
 36 37  1  0
 14  9  1  0
 37 27  1  0
 18 12  1  0
 37 31  2  0
 14 19  1  0
  6  7  1  0
 25 26  1  0
 32 38  1  0
M  END
> <minimizedAffinity>
-9.04174

> <CNNscore>
0.6338576674

> <CNNaffinity>
7.8534064293

> <CNN_VS>
4.9779419899

> <CNNaffinity_variance>
0.0121885389

$$$$



 38 41  0  0  0  0  0  0  0  0999 V2000
    2.9999   63.6614   70.3682 C   0  0  0  0  0  0  0  0  0  0  0  0
    2.4749   62.3198   70.8848 C   0  0  0  0  0  0  0  0  0  0  0  0
    2.2317   62.3006   72.3974 C   0  0  0  0  0  0  0  0  0  0  0  0
    1.0033   61.5158   72.8732 C   0  0  0  0  0  0  0  0  0  0  0  0
   -0.2558   62.3789   73.0026 C   0  0  0  0  0  0  0  0  0  0  0  0
   -0.6333   62.6545   74.3895 N   0  0  0  0  0  0  0  0  0  0  0  0
    0.2204   62.8484   74.9129 H   0  0  0  0  0  0  0  0  0  0  0  0
    2.2506   58.5508   78.0919 O   0  0  0  0  0  0  0  0  0  0  0  0
    1.4561   59.2178   77.4396 C   0  0  0  0  0  0  0  0  0  0  0  0
    1.5095   60.6973   77.4395 C   0  0  0  0  0  0  0  0  0  0  0  0
    0.6250   61.3894   76.7082 C   0  0  0  0  0  0  0  0  0  0  0  0
   -0.3867   60.7198   75.8991 C   0  0  0  0  0  0  0  0  0  0  0  0
   -0.4444   59.3715   75.9240 C   0  0  0  0  0  0  0  0  0  0  0  0
    0.4641   58.6562   76.6749 N   0  0  0  0  0  0  0  0  0  0  0  0
   -1.4835   58.5736   75.1855 C   0  0  0  0  0  0  0  0  0  0  0  0
   -2.6611   59.4293   74.7235 C   0  0  0  0  0  0  0  0  0  0  0  0
   -2.1746   60.7283   74.0892 C   0  0  0  0  0  0  0  0  0  0  0  0
   -1.3554   61.5763   75.0874 C   0  0  0  0  0  0  0  0  0  0  0  0
    0.3966   57.6741   76.6617 H   0  0  0  0  0  0  0  0  0  0  0  0
    4.5121   63.6106   70.1326 C   0  0  0  0  0  0  0  0  0  0  0  0
    5.0595   64.8569   69.4284 C   0  0  0  0  0  0  0  0  0  0  0  0
    3.9648   65.7757   68.8802 C   0  0  0  0  0  0  0  0  0  0  0  0
    4.2176   66.2318   67.4376 C   0  0  0  0  0  0  0  0  0  0  0  0
    2.9312   66.5304   66.6601 C   0  0  0  0  0  0  0  0  0  0  0  0
    3.1390   66.7080   65.2223 N   0  0  0  0  0  0  0  0  0  0  0  0
    2.3833   66.2266   64.7350 H   0  0  0  0  0  0  0  0  0  0  0  0
    3.1679   68.1019   64.7468 C   0  0  0  0  0  0  0  0  0  0  0  0
    4.6042   68.6536   64.6107 C   0  0  0  0  0  0  0  0  0  0  0  0
    5.3406   68.0188   63.4321 C   0  0  0  0  0  0  0  0  0  0  0  0
    4.6158   68.3068   62.1156 C   0  0  0  0  0  0  0  0  0  0  0  0
    3.1137   68.2706   62.2275 C   0  0  0  0  0  0  0  0  0  0  0  0
    2.4027   68.3521   61.0486 N   0  0  0  0  0  0  0  0  0  0  0  0
    1.0331   68.3373   60.9630 C   0  0  0  0  0  0  0  0  0  0  0  0
    0.4309   68.4066   59.8983 O   0  0  0  0  0  0  0  0  0  0  0  0
    0.3066   68.2366   62.2516 C   0  0  0  0  0  0  0  0  0  0  0  0
    0.9989   68.1589   63.3967 C   0  0  0  0  0  0  0  0  0  0  0  0
    2.4560   68.1662   63.4014 C   0  0  0  0  0  0  0  0  0  0  0  0
    2.9132   68.4262   60.2100 H   0  0  0  0  0  0  0  0  0  0  0  0
  8  9  2  0
  9 10  1  0
 10 11  2  0
 11 12  1  0
 12 13  2  0
 13 14  1  0
 13 15  1  0
 15 16  1  0
 16 17  1  0
 17 18  1  0
 18  6  1  0
  6  5  1  0
  5  4  1  0
  4  3  1  0
  3  2  1  0
  2  1  1  0
  1 20  1  0
 20 21  1  0
 21 22  1  0
 22 23  1  0
 23 24  1  0
 24 25  1  0
 27 25  1  0
 27 28  1  0
 28 29  1  0
 29 30  1  0
 30 31  1  0
 31 32  1  0
 32 33  1  0
 33 34  2  0
 33 35  1  0
 35 36  2  0
 36 37  1  0
 14  9  1  0
 37 27  1  0
 18 12  1  0
 37 31  2  0
 14 19  1  0
  6  7  1  0
 25 26  1  0
 32 38  1  0
M  END
> <minimizedAffinity>
-9.05214

> <CNNscore>
0.6012086868

> <CNNaffinity>
7.8676810265

> <CNN_VS>
4.7301182747

> <CNNaffinity_variance>
0.0603377037

$$$$



 38 41  0  0  0  0  0  0  0  0999 V2000
    3.0233   63.2716   70.4765 C   0  0  0  0  0  0  0  0  0  0  0  0
    2.9153   61.9384   71.2203 C   0  0  0  0  0  0  0  0  0  0  0  0
    1.9445   61.9768   72.4050 C   0  0  0  0  0  0  0  0  0  0  0  0
    2.0320   60.8025   73.3872 C   0  0  0  0  0  0  0  0  0  0  0  0
    0.8353   60.7174   74.3399 C   0  0  0  0  0  0  0  0  0  0  0  0
    0.7813   59.4662   75.0971 N   0  0  0  0  0  0  0  0  0  0  0  0
    0.2360   59.6359   75.9422 H   0  0  0  0  0  0  0  0  0  0  0  0
    2.2380   53.4656   74.2389 O   0  0  0  0  0  0  0  0  0  0  0  0
    2.2089   54.6602   74.5104 C   0  0  0  0  0  0  0  0  0  0  0  0
    1.6847   55.6567   73.5492 C   0  0  0  0  0  0  0  0  0  0  0  0
    1.6659   56.9534   73.8874 C   0  0  0  0  0  0  0  0  0  0  0  0
    2.1398   57.4097   75.1888 C   0  0  0  0  0  0  0  0  0  0  0  0
    2.6390   56.4981   76.0499 C   0  0  0  0  0  0  0  0  0  0  0  0
    2.6597   55.1633   75.7055 N   0  0  0  0  0  0  0  0  0  0  0  0
    3.2174   56.8560   77.3912 C   0  0  0  0  0  0  0  0  0  0  0  0
    3.5203   58.3473   77.5203 C   0  0  0  0  0  0  0  0  0  0  0  0
    2.3590   59.1861   76.9967 C   0  0  0  0  0  0  0  0  0  0  0  0
    2.0804   58.9024   75.5039 C   0  0  0  0  0  0  0  0  0  0  0  0
    3.0231   54.5265   76.3625 H   0  0  0  0  0  0  0  0  0  0  0  0
    4.4697   63.5605   70.0648 C   0  0  0  0  0  0  0  0  0  0  0  0
    4.6929   65.0043   69.6021 C   0  0  0  0  0  0  0  0  0  0  0  0
    3.4858   65.6039   68.8765 C   0  0  0  0  0  0  0  0  0  0  0  0
    3.8608   66.3795   67.6074 C   0  0  0  0  0  0  0  0  0  0  0  0
    2.6689   66.6419   66.6806 C   0  0  0  0  0  0  0  0  0  0  0  0
    3.0378   66.7851   65.2716 N   0  0  0  0  0  0  0  0  0  0  0  0
    2.3560   66.2692   64.7155 H   0  0  0  0  0  0  0  0  0  0  0  0
    3.0873   68.1655   64.7597 C   0  0  0  0  0  0  0  0  0  0  0  0
    4.5301   68.7043   64.6423 C   0  0  0  0  0  0  0  0  0  0  0  0
    5.2893   68.0333   63.4987 C   0  0  0  0  0  0  0  0  0  0  0  0
    4.5972   68.2901   62.1583 C   0  0  0  0  0  0  0  0  0  0  0  0
    3.0927   68.2664   62.2361 C   0  0  0  0  0  0  0  0  0  0  0  0
    2.4098   68.3205   61.0392 N   0  0  0  0  0  0  0  0  0  0  0  0
    1.0424   68.3119   60.9221 C   0  0  0  0  0  0  0  0  0  0  0  0
    0.4656   68.3563   59.8421 O   0  0  0  0  0  0  0  0  0  0  0  0
    0.2856   68.2506   62.1956 C   0  0  0  0  0  0  0  0  0  0  0  0
    0.9506   68.1995   63.3582 C   0  0  0  0  0  0  0  0  0  0  0  0
    2.4073   68.1978   63.3967 C   0  0  0  0  0  0  0  0  0  0  0  0
    2.9400   68.3687   60.2111 H   0  0  0  0  0  0  0  0  0  0  0  0
  8  9  2  0
  9 10  1  0
 10 11  2  0
 11 12  1  0
 12 13  2  0
 13 14  1  0
 13 15  1  0
 15 16  1  0
 16 17  1  0
 17 18  1  0
 18  6  1  0
  6  5  1  0
  5  4  1  0
  4  3  1  0
  3  2  1  0
  2  1  1  0
  1 20  1  0
 20 21  1  0
 21 22  1  0
 22 23  1  0
 23 24  1  0
 24 25  1  0
 27 25  1  0
 27 28  1  0
 28 29  1  0
 29 30  1  0
 30 31  1  0
 31 32  1  0
 32 33  1  0
 33 34  2  0
 33 35  1  0
 35 36  2  0
 36 37  1  0
 14  9  1  0
 37 27  1  0
 18 12  1  0
 37 31  2  0
 14 19  1  0
  6  7  1  0
 25 26  1  0
 32 38  1  0
M  END
> <minimizedAffinity>
-9.33292

> <CNNscore>
0.5930362344

> <CNNaffinity>
7.8040785789

> <CNN_VS>
4.6281013489

> <CNNaffinity_variance>
0.0117335357

$$$$



 38 41  0  0  0  0  0  0  0  0999 V2000
    2.3602   63.7243   70.4959 C   0  0  0  0  0  0  0  0  0  0  0  0
    0.8306   63.7779   70.4885 C   0  0  0  0  0  0  0  0  0  0  0  0
    0.2047   63.5475   71.8678 C   0  0  0  0  0  0  0  0  0  0  0  0
   -0.5468   62.2241   72.0550 C   0  0  0  0  0  0  0  0  0  0  0  0
   -0.3417   61.6000   73.4390 C   0  0  0  0  0  0  0  0  0  0  0  0
    1.0328   61.1602   73.6820 N   0  0  0  0  0  0  0  0  0  0  0  0
    1.6573   61.9132   73.3932 H   0  0  0  0  0  0  0  0  0  0  0  0
    4.2712   56.6375   76.4968 O   0  0  0  0  0  0  0  0  0  0  0  0
    3.6459   57.3554   75.7253 C   0  0  0  0  0  0  0  0  0  0  0  0
    2.3912   58.0233   76.1394 C   0  0  0  0  0  0  0  0  0  0  0  0
    1.7404   58.8046   75.2664 C   0  0  0  0  0  0  0  0  0  0  0  0
    2.2443   59.0247   73.9158 C   0  0  0  0  0  0  0  0  0  0  0  0
    3.3755   58.3926   73.5382 C   0  0  0  0  0  0  0  0  0  0  0  0
    4.0479   57.5884   74.4336 N   0  0  0  0  0  0  0  0  0  0  0  0
    3.9546   58.4886   72.1535 C   0  0  0  0  0  0  0  0  0  0  0  0
    2.9608   59.0516   71.1398 C   0  0  0  0  0  0  0  0  0  0  0  0
    2.2454   60.2762   71.7010 C   0  0  0  0  0  0  0  0  0  0  0  0
    1.4506   59.9336   72.9806 C   0  0  0  0  0  0  0  0  0  0  0  0
    4.8740   57.1506   74.1252 H   0  0  0  0  0  0  0  0  0  0  0  0
    2.9359   64.1524   69.1431 C   0  0  0  0  0  0  0  0  0  0  0  0
    3.8487   65.3801   69.2323 C   0  0  0  0  0  0  0  0  0  0  0  0
    5.0767   65.2923   68.3227 C   0  0  0  0  0  0  0  0  0  0  0  0
    4.7915   65.7017   66.8721 C   0  0  0  0  0  0  0  0  0  0  0  0
    3.6241   66.6852   66.7363 C   0  0  0  0  0  0  0  0  0  0  0  0
    3.1471   66.8481   65.3623 N   0  0  0  0  0  0  0  0  0  0  0  0
    2.1740   66.5438   65.3306 H   0  0  0  0  0  0  0  0  0  0  0  0
    3.2109   68.2162   64.8202 C   0  0  0  0  0  0  0  0  0  0  0  0
    4.6591   68.7380   64.6929 C   0  0  0  0  0  0  0  0  0  0  0  0
    5.4128   68.0345   63.5654 C   0  0  0  0  0  0  0  0  0  0  0  0
    4.7248   68.2686   62.2187 C   0  0  0  0  0  0  0  0  0  0  0  0
    3.2200   68.2615   62.2950 C   0  0  0  0  0  0  0  0  0  0  0  0
    2.5390   68.2960   61.0963 N   0  0  0  0  0  0  0  0  0  0  0  0
    1.1717   68.2984   60.9776 C   0  0  0  0  0  0  0  0  0  0  0  0
    0.5966   68.3246   59.8962 O   0  0  0  0  0  0  0  0  0  0  0  0
    0.4130   68.2726   62.2512 C   0  0  0  0  0  0  0  0  0  0  0  0
    1.0762   68.2406   63.4155 C   0  0  0  0  0  0  0  0  0  0  0  0
    2.5327   68.2253   63.4560 C   0  0  0  0  0  0  0  0  0  0  0  0
    3.0706   68.3206   60.2681 H   0  0  0  0  0  0  0  0  0  0  0  0
  8  9  2  0
  9 10  1  0
 10 11  2  0
 11 12  1  0
 12 13  2  0
 13 14  1  0
 13 15  1  0
 15 16  1  0
 16 17  1  0
 17 18  1  0
 18  6  1  0
  6  5  1  0
  5  4  1  0
  4  3  1  0
  3  2  1  0
  2  1  1  0
  1 20  1  0
 20 21  1  0
 21 22  1  0
 22 23  1  0
 23 24  1  0
 24 25  1  0
 27 25  1  0
 27 28  1  0
 28 29  1  0
 29 30  1  0
 30 31  1  0
 31 32  1  0
 32 33  1  0
 33 34  2  0
 33 35  1  0
 35 36  2  0
 36 37  1  0
 14  9  1  0
 37 27  1  0
 18 12  1  0
 37 31  2  0
 14 19  1  0
  6  7  1  0
 25 26  1  0
 32 38  1  0
M  END
> <minimizedAffinity>
-9.72806

> <CNNscore>
0.5641630888

> <CNNaffinity>
8.0582895279

> <CNN_VS>
4.5461893082

> <CNNaffinity_variance>
0.0735713020

$$$$
