


 22 22  0  0  0  0  0  0  0  0999 V2000
   15.9194    1.5048   16.2684 C   0  0  0  0  0  0  0  0  0  0  0  0
   17.3065    1.4883   16.1210 C   0  0  0  0  0  0  0  0  0  0  0  0
   17.9354    2.5466   15.4632 C   0  0  0  0  0  0  0  0  0  0  0  0
   17.1889    3.6235   14.9492 C   0  0  0  0  0  0  0  0  0  0  0  0
   15.7909    3.6099   15.0762 C   0  0  0  0  0  0  0  0  0  0  0  0
   14.6516    4.9357   14.3305 Br  0  0  0  0  0  0  0  0  0  0  0  0
   15.1570    2.5504   15.7401 C   0  0  0  0  0  0  0  0  0  0  0  0
   15.5492   -1.1441   16.0971 N   0  0  0  0  0  0  0  0  0  0  0  0
   15.1179    0.1476   17.0835 S   0  0  0  0  0  0  0  0  0  0  0  0
   13.6921    0.3381   16.9791 O   0  0  0  0  0  0  0  0  0  0  0  0
   15.7866   -0.0835   18.3426 O   0  0  0  0  0  0  0  0  0  0  0  0
   15.1419   -2.0038   16.4652 H   0  0  0  0  0  0  0  0  0  0  0  0
   16.5652   -1.2311   16.0758 H   0  0  0  0  0  0  0  0  0  0  0  0
   17.9780    4.6939   14.2824 C   0  0  0  0  0  0  0  0  0  0  0  0
   18.6915    4.4183   13.3247 O   0  0  0  0  0  0  0  0  0  0  0  0
   17.9125    5.9552   14.8264 N   0  0  0  0  0  0  0  0  0  0  0  0
   17.4239    6.0984   15.6691 H   0  0  0  0  0  0  0  0  0  0  0  0
   18.5638    7.0880   14.1628 C   0  0  0  0  0  0  0  0  0  0  0  0
   19.2486    8.0697   15.1086 C   0  0  0  0  0  0  0  0  0  0  0  0
   20.5921    8.0409   14.9657 F   0  0  0  0  0  0  0  0  0  0  0  0
   18.9697    7.7642   16.3980 F   0  0  0  0  0  0  0  0  0  0  0  0
   18.8348    9.3356   14.8869 F   0  0  0  0  0  0  0  0  0  0  0  0
  8  9  1  0
  9 10  2  0
  9 11  2  0
  9  1  1  0
  1  2  2  0
  2  3  1  0
  3  4  2  0
  4 14  1  0
 14 15  2  0
 14 16  1  0
 16 18  1  0
 18 19  1  0
 19 20  1  0
 19 21  1  0
 19 22  1  0
  4  5  1  0
  5  6  1  0
  5  7  2  0
  7  1  1  0
  8 12  1  0
  8 13  1  0
 16 17  1  0
M  END
> <minimizedAffinity>
-7.34912

> <CNNscore>
0.9707655907

> <CNNaffinity>
7.5511021614

> <CNN_VS>
7.3303499222

> <CNNaffinity_variance>
0.9802481532

$$$$



 22 22  0  0  0  0  0  0  0  0999 V2000
   15.6737    1.2017   15.7772 C   0  0  0  0  0  0  0  0  0  0  0  0
   16.4073    0.7702   14.6719 C   0  0  0  0  0  0  0  0  0  0  0  0
   16.8496    1.7084   13.7380 C   0  0  0  0  0  0  0  0  0  0  0  0
   16.5642    3.0774   13.8985 C   0  0  0  0  0  0  0  0  0  0  0  0
   15.7968    3.4924   14.9983 C   0  0  0  0  0  0  0  0  0  0  0  0
   15.2391    5.2877   15.2775 Br  0  0  0  0  0  0  0  0  0  0  0  0
   15.3548    2.5528   15.9400 C   0  0  0  0  0  0  0  0  0  0  0  0
   15.5024   -1.4397   16.1975 N   0  0  0  0  0  0  0  0  0  0  0  0
   15.0910    0.0059   16.9516 S   0  0  0  0  0  0  0  0  0  0  0  0
   13.6524    0.0923   17.0063 O   0  0  0  0  0  0  0  0  0  0  0  0
   15.9251    0.0826   18.1282 O   0  0  0  0  0  0  0  0  0  0  0  0
   15.2146   -2.2231   16.7840 H   0  0  0  0  0  0  0  0  0  0  0  0
   16.5119   -1.4740   16.0559 H   0  0  0  0  0  0  0  0  0  0  0  0
   17.1029    3.9757   12.8421 C   0  0  0  0  0  0  0  0  0  0  0  0
   16.5245    4.0656   11.7653 O   0  0  0  0  0  0  0  0  0  0  0  0
   18.2838    4.6265   13.1122 N   0  0  0  0  0  0  0  0  0  0  0  0
   18.7734    4.4248   13.9421 H   0  0  0  0  0  0  0  0  0  0  0  0
   18.8198    5.6178   12.1752 C   0  0  0  0  0  0  0  0  0  0  0  0
   18.3522    7.0477   12.4275 C   0  0  0  0  0  0  0  0  0  0  0  0
   18.2986    7.3262   13.7488 F   0  0  0  0  0  0  0  0  0  0  0  0
   17.1118    7.2412   11.9200 F   0  0  0  0  0  0  0  0  0  0  0  0
   19.1784    7.9445   11.8478 F   0  0  0  0  0  0  0  0  0  0  0  0
  8  9  1  0
  9 10  2  0
  9 11  2  0
  9  1  1  0
  1  2  2  0
  2  3  1  0
  3  4  2  0
  4 14  1  0
 14 15  2  0
 14 16  1  0
 16 18  1  0
 18 19  1  0
 19 20  1  0
 19 21  1  0
 19 22  1  0
  4  5  1  0
  5  6  1  0
  5  7  2  0
  7  1  1  0
  8 12  1  0
  8 13  1  0
 16 17  1  0
M  END
> <minimizedAffinity>
-6.78069

> <CNNscore>
0.9475053549

> <CNNaffinity>
7.4064431190

> <CNN_VS>
7.0176444054

> <CNNaffinity_variance>
0.8333568573

$$$$



 22 22  0  0  0  0  0  0  0  0999 V2000
   15.4389    1.4949   15.9998 C   0  0  0  0  0  0  0  0  0  0  0  0
   14.9806    2.7562   16.3804 C   0  0  0  0  0  0  0  0  0  0  0  0
   15.3244    3.8683   15.6101 C   0  0  0  0  0  0  0  0  0  0  0  0
   16.1247    3.7311   14.4603 C   0  0  0  0  0  0  0  0  0  0  0  0
   16.6055    2.4599   14.1086 C   0  0  0  0  0  0  0  0  0  0  0  0
   17.7868    2.1451   12.6534 Br  0  0  0  0  0  0  0  0  0  0  0  0
   16.2585    1.3408   14.8781 C   0  0  0  0  0  0  0  0  0  0  0  0
   15.5141   -1.1841   16.0053 N   0  0  0  0  0  0  0  0  0  0  0  0
   15.0217    0.0847   16.9929 S   0  0  0  0  0  0  0  0  0  0  0  0
   13.5858    0.0293   17.1156 O   0  0  0  0  0  0  0  0  0  0  0  0
   15.9066    0.0562   18.1339 O   0  0  0  0  0  0  0  0  0  0  0  0
   15.3246   -2.0713   16.4717 H   0  0  0  0  0  0  0  0  0  0  0  0
   16.5141   -1.1035   15.8214 H   0  0  0  0  0  0  0  0  0  0  0  0
   16.4085    4.9894   13.7193 C   0  0  0  0  0  0  0  0  0  0  0  0
   15.5571    5.4647   12.9768 O   0  0  0  0  0  0  0  0  0  0  0  0
   17.6635    5.5333   13.8612 N   0  0  0  0  0  0  0  0  0  0  0  0
   18.3515    5.0468   14.3702 H   0  0  0  0  0  0  0  0  0  0  0  0
   17.9857    6.8310   13.2612 C   0  0  0  0  0  0  0  0  0  0  0  0
   18.8933    7.7154   14.1105 C   0  0  0  0  0  0  0  0  0  0  0  0
   18.4679    7.7771   15.3917 F   0  0  0  0  0  0  0  0  0  0  0  0
   18.9155    8.9803   13.6276 F   0  0  0  0  0  0  0  0  0  0  0  0
   20.1625    7.2549   14.1165 F   0  0  0  0  0  0  0  0  0  0  0  0
  8  9  1  0
  9 10  2  0
  9 11  2  0
  9  1  1  0
  1  2  2  0
  2  3  1  0
  3  4  2  0
  4 14  1  0
 14 15  2  0
 14 16  1  0
 16 18  1  0
 18 19  1  0
 19 20  1  0
 19 21  1  0
 19 22  1  0
  4  5  1  0
  5  6  1  0
  5  7  2  0
  7  1  1  0
  8 12  1  0
  8 13  1  0
 16 17  1  0
M  END
> <minimizedAffinity>
-7.44864

> <CNNscore>
0.9274277091

> <CNNaffinity>
7.3402552605

> <CNN_VS>
6.8075561523

> <CNNaffinity_variance>
0.9031330943

$$$$



 22 22  0  0  0  0  0  0  0  0999 V2000
   18.9310    5.6608   13.8057 C   0  0  0  0  0  0  0  0  0  0  0  0
   19.7415    4.5648   14.1019 C   0  0  0  0  0  0  0  0  0  0  0  0
   19.1818    3.4533   14.7340 C   0  0  0  0  0  0  0  0  0  0  0  0
   17.8163    3.4273   15.0745 C   0  0  0  0  0  0  0  0  0  0  0  0
   17.0208    4.5509   14.7998 C   0  0  0  0  0  0  0  0  0  0  0  0
   15.1953    4.6997   15.3072 Br  0  0  0  0  0  0  0  0  0  0  0  0
   17.5793    5.6669   14.1613 C   0  0  0  0  0  0  0  0  0  0  0  0
   20.6712    6.3712   11.8952 N   0  0  0  0  0  0  0  0  0  0  0  0
   19.6480    7.0833   13.0238 S   0  0  0  0  0  0  0  0  0  0  0  0
   20.4598    7.7711   13.9974 O   0  0  0  0  0  0  0  0  0  0  0  0
   18.6196    7.7441   12.2547 O   0  0  0  0  0  0  0  0  0  0  0  0
   21.1541    7.0984   11.3676 H   0  0  0  0  0  0  0  0  0  0  0  0
   20.1240    5.7942   11.2565 H   0  0  0  0  0  0  0  0  0  0  0  0
   17.3400    2.1806   15.7317 C   0  0  0  0  0  0  0  0  0  0  0  0
   18.1168    1.5099   16.4016 O   0  0  0  0  0  0  0  0  0  0  0  0
   16.0385    1.8037   15.4972 N   0  0  0  0  0  0  0  0  0  0  0  0
   15.4928    2.3093   14.8523 H   0  0  0  0  0  0  0  0  0  0  0  0
   15.4568    0.6561   16.1988 C   0  0  0  0  0  0  0  0  0  0  0  0
   14.3752    1.0138   17.2132 C   0  0  0  0  0  0  0  0  0  0  0  0
   14.8855    1.1424   18.4579 F   0  0  0  0  0  0  0  0  0  0  0  0
   13.4262    0.0489   17.2600 F   0  0  0  0  0  0  0  0  0  0  0  0
   13.7656    2.1752   16.8929 F   0  0  0  0  0  0  0  0  0  0  0  0
  8  9  1  0
  9 10  2  0
  9 11  2  0
  9  1  1  0
  1  2  2  0
  2  3  1  0
  3  4  2  0
  4 14  1  0
 14 15  2  0
 14 16  1  0
 16 18  1  0
 18 19  1  0
 19 20  1  0
 19 21  1  0
 19 22  1  0
  4  5  1  0
  5  6  1  0
  5  7  2  0
  7  1  1  0
  8 12  1  0
  8 13  1  0
 16 17  1  0
M  END
> <minimizedAffinity>
-6.76848

> <CNNscore>
0.9038741589

> <CNNaffinity>
5.6145825386

> <CNN_VS>
5.0748758316

> <CNNaffinity_variance>
0.0343595333

$$$$



 22 22  0  0  0  0  0  0  0  0999 V2000
   15.8001    1.1521   15.7319 C   0  0  0  0  0  0  0  0  0  0  0  0
   16.5202    0.6392   14.6528 C   0  0  0  0  0  0  0  0  0  0  0  0
   17.0383    1.5169   13.6992 C   0  0  0  0  0  0  0  0  0  0  0  0
   16.8421    2.9060   13.8139 C   0  0  0  0  0  0  0  0  0  0  0  0
   16.0873    3.4045   14.8874 C   0  0  0  0  0  0  0  0  0  0  0  0
   15.6461    5.2405   15.1033 Br  0  0  0  0  0  0  0  0  0  0  0  0
   15.5693    2.5256   15.8489 C   0  0  0  0  0  0  0  0  0  0  0  0
   15.4790   -1.4588   16.2450 N   0  0  0  0  0  0  0  0  0  0  0  0
   15.1211    0.0341   16.9311 S   0  0  0  0  0  0  0  0  0  0  0  0
   13.6880    0.1957   16.9367 O   0  0  0  0  0  0  0  0  0  0  0  0
   15.9226    0.1141   18.1299 O   0  0  0  0  0  0  0  0  0  0  0  0
   15.1334   -2.2030   16.8509 H   0  0  0  0  0  0  0  0  0  0  0  0
   16.4892   -1.5499   16.1369 H   0  0  0  0  0  0  0  0  0  0  0  0
   17.4556    3.7337   12.7408 C   0  0  0  0  0  0  0  0  0  0  0  0
   16.8082    4.6356   12.2216 O   0  0  0  0  0  0  0  0  0  0  0  0
   18.7252    3.3961   12.3343 N   0  0  0  0  0  0  0  0  0  0  0  0
   19.1541    2.5869   12.6953 H   0  0  0  0  0  0  0  0  0  0  0  0
   19.4452    4.2306   11.3684 C   0  0  0  0  0  0  0  0  0  0  0  0
   20.9475    3.9738   11.3032 C   0  0  0  0  0  0  0  0  0  0  0  0
   21.6338    4.8463   12.0739 F   0  0  0  0  0  0  0  0  0  0  0  0
   21.4004    4.1080   10.0341 F   0  0  0  0  0  0  0  0  0  0  0  0
   21.2513    2.7255   11.7185 F   0  0  0  0  0  0  0  0  0  0  0  0
  8  9  1  0
  9 10  2  0
  9 11  2  0
  9  1  1  0
  1  2  2  0
  2  3  1  0
  3  4  2  0
  4 14  1  0
 14 15  2  0
 14 16  1  0
 16 18  1  0
 18 19  1  0
 19 20  1  0
 19 21  1  0
 19 22  1  0
  4  5  1  0
  5  6  1  0
  5  7  2  0
  7  1  1  0
  8 12  1  0
  8 13  1  0
 16 17  1  0
M  END
> <minimizedAffinity>
-6.76674

> <CNNscore>
0.8985872269

> <CNNaffinity>
7.1625652313

> <CNN_VS>
6.4361896515

> <CNNaffinity_variance>
0.9736137986

$$$$



 22 22  0  0  0  0  0  0  0  0999 V2000
   15.4034    1.5533   16.0064 C   0  0  0  0  0  0  0  0  0  0  0  0
   14.8600    2.7846   16.3731 C   0  0  0  0  0  0  0  0  0  0  0  0
   15.1624    3.9169   15.6150 C   0  0  0  0  0  0  0  0  0  0  0  0
   16.0056    3.8298   14.4914 C   0  0  0  0  0  0  0  0  0  0  0  0
   16.5712    2.5900   14.1542 C   0  0  0  0  0  0  0  0  0  0  0  0
   17.8148    2.3488   12.7374 Br  0  0  0  0  0  0  0  0  0  0  0  0
   16.2659    1.4504   14.9114 C   0  0  0  0  0  0  0  0  0  0  0  0
   15.5737   -1.1213   15.9826 N   0  0  0  0  0  0  0  0  0  0  0  0
   15.0380    0.1184   16.9844 S   0  0  0  0  0  0  0  0  0  0  0  0
   13.6052    0.0106   17.1082 O   0  0  0  0  0  0  0  0  0  0  0  0
   15.9251    0.1090   18.1241 O   0  0  0  0  0  0  0  0  0  0  0  0
   15.4166   -2.0196   16.4395 H   0  0  0  0  0  0  0  0  0  0  0  0
   16.5699   -1.0031   15.7984 H   0  0  0  0  0  0  0  0  0  0  0  0
   16.2387    5.1046   13.7608 C   0  0  0  0  0  0  0  0  0  0  0  0
   17.0611    5.9084   14.1848 O   0  0  0  0  0  0  0  0  0  0  0  0
   15.4566    5.3486   12.6564 N   0  0  0  0  0  0  0  0  0  0  0  0
   14.7256    4.7294   12.4297 H   0  0  0  0  0  0  0  0  0  0  0  0
   15.7019    6.5223   11.8138 C   0  0  0  0  0  0  0  0  0  0  0  0
   14.4435    7.1680   11.2425 C   0  0  0  0  0  0  0  0  0  0  0  0
   14.0866    6.6043   10.0672 F   0  0  0  0  0  0  0  0  0  0  0  0
   14.6442    8.4880   11.0166 F   0  0  0  0  0  0  0  0  0  0  0  0
   13.4012    7.0499   12.0925 F   0  0  0  0  0  0  0  0  0  0  0  0
  8  9  1  0
  9 10  2  0
  9 11  2  0
  9  1  1  0
  1  2  2  0
  2  3  1  0
  3  4  2  0
  4 14  1  0
 14 15  2  0
 14 16  1  0
 16 18  1  0
 18 19  1  0
 19 20  1  0
 19 21  1  0
 19 22  1  0
  4  5  1  0
  5  6  1  0
  5  7  2  0
  7  1  1  0
  8 12  1  0
  8 13  1  0
 16 17  1  0
M  END
> <minimizedAffinity>
-7.82007

> <CNNscore>
0.8716198206

> <CNNaffinity>
7.2417888641

> <CNN_VS>
6.3120865822

> <CNNaffinity_variance>
0.8891986012

$$$$



 22 22  0  0  0  0  0  0  0  0999 V2000
   15.1388    7.4769    9.0519 C   0  0  0  0  0  0  0  0  0  0  0  0
   16.0154    6.5952    9.6842 C   0  0  0  0  0  0  0  0  0  0  0  0
   16.9788    7.1006   10.5587 C   0  0  0  0  0  0  0  0  0  0  0  0
   17.0749    8.4828   10.8070 C   0  0  0  0  0  0  0  0  0  0  0  0
   16.2073    9.3605   10.1379 C   0  0  0  0  0  0  0  0  0  0  0  0
   16.3002   11.2528   10.2878 Br  0  0  0  0  0  0  0  0  0  0  0  0
   15.2361    8.8553    9.2623 C   0  0  0  0  0  0  0  0  0  0  0  0
   12.6001    7.8087    8.2593 N   0  0  0  0  0  0  0  0  0  0  0  0
   13.9298    6.8363    7.9218 S   0  0  0  0  0  0  0  0  0  0  0  0
   13.6133    5.4863    8.3186 O   0  0  0  0  0  0  0  0  0  0  0  0
   14.3354    7.1831    6.5798 O   0  0  0  0  0  0  0  0  0  0  0  0
   11.8192    7.5360    7.6624 H   0  0  0  0  0  0  0  0  0  0  0  0
   12.8388    8.7845    8.0823 H   0  0  0  0  0  0  0  0  0  0  0  0
   18.1337    8.8923   11.7683 C   0  0  0  0  0  0  0  0  0  0  0  0
   18.3763   10.0817   11.9375 O   0  0  0  0  0  0  0  0  0  0  0  0
   18.8445    7.8899   12.3856 N   0  0  0  0  0  0  0  0  0  0  0  0
   18.6957    6.9530   12.1226 H   0  0  0  0  0  0  0  0  0  0  0  0
   19.8216    8.2043   13.4317 C   0  0  0  0  0  0  0  0  0  0  0  0
   19.5401    7.5502   14.7807 C   0  0  0  0  0  0  0  0  0  0  0  0
   18.2272    7.6081   15.0957 F   0  0  0  0  0  0  0  0  0  0  0  0
   20.2235    8.1771   15.7674 F   0  0  0  0  0  0  0  0  0  0  0  0
   19.9107    6.2519   14.7843 F   0  0  0  0  0  0  0  0  0  0  0  0
  8  9  1  0
  9 10  2  0
  9 11  2  0
  9  1  1  0
  1  2  2  0
  2  3  1  0
  3  4  2  0
  4 14  1  0
 14 15  2  0
 14 16  1  0
 16 18  1  0
 18 19  1  0
 19 20  1  0
 19 21  1  0
 19 22  1  0
  4  5  1  0
  5  6  1  0
  5  7  2  0
  7  1  1  0
  8 12  1  0
  8 13  1  0
 16 17  1  0
M  END
> <minimizedAffinity>
-4.49801

> <CNNscore>
0.7964049578

> <CNNaffinity>
3.9440383911

> <CNN_VS>
3.1410517693

> <CNNaffinity_variance>
0.4766675532

$$$$



 22 22  0  0  0  0  0  0  0  0999 V2000
   16.5050    1.8387   14.8006 C   0  0  0  0  0  0  0  0  0  0  0  0
   16.2542    3.0381   15.4671 C   0  0  0  0  0  0  0  0  0  0  0  0
   16.3038    4.2377   14.7552 C   0  0  0  0  0  0  0  0  0  0  0  0
   16.6032    4.2496   13.3799 C   0  0  0  0  0  0  0  0  0  0  0  0
   16.8857    3.0376   12.7302 C   0  0  0  0  0  0  0  0  0  0  0  0
   17.4173    2.9163   10.9096 Br  0  0  0  0  0  0  0  0  0  0  0  0
   16.8326    1.8310   13.4418 C   0  0  0  0  0  0  0  0  0  0  0  0
   16.5300   -0.8214   14.4743 N   0  0  0  0  0  0  0  0  0  0  0  0
   16.4655    0.3160   15.7111 S   0  0  0  0  0  0  0  0  0  0  0  0
   15.1794    0.2095   16.3549 O   0  0  0  0  0  0  0  0  0  0  0  0
   17.7127    0.1839   16.4273 O   0  0  0  0  0  0  0  0  0  0  0  0
   16.5136   -1.7597   14.8741 H   0  0  0  0  0  0  0  0  0  0  0  0
   17.3896   -0.6944   13.9401 H   0  0  0  0  0  0  0  0  0  0  0  0
   16.6119    5.5898   12.7343 C   0  0  0  0  0  0  0  0  0  0  0  0
   17.3046    6.4867   13.2011 O   0  0  0  0  0  0  0  0  0  0  0  0
   15.7751    5.7752   11.6589 N   0  0  0  0  0  0  0  0  0  0  0  0
   15.1476    5.0621   11.4002 H   0  0  0  0  0  0  0  0  0  0  0  0
   15.8094    7.0251   10.8945 C   0  0  0  0  0  0  0  0  0  0  0  0
   14.4873    7.7854   10.8612 C   0  0  0  0  0  0  0  0  0  0  0  0
   13.6766    7.4154   11.8772 F   0  0  0  0  0  0  0  0  0  0  0  0
   13.8263    7.5437    9.7043 F   0  0  0  0  0  0  0  0  0  0  0  0
   14.6842    9.1180   10.9519 F   0  0  0  0  0  0  0  0  0  0  0  0
  8  9  1  0
  9 10  2  0
  9 11  2  0
  9  1  1  0
  1  2  2  0
  2  3  1  0
  3  4  2  0
  4 14  1  0
 14 15  2  0
 14 16  1  0
 16 18  1  0
 18 19  1  0
 19 20  1  0
 19 21  1  0
 19 22  1  0
  4  5  1  0
  5  6  1  0
  5  7  2  0
  7  1  1  0
  8 12  1  0
  8 13  1  0
 16 17  1  0
M  END
> <minimizedAffinity>
-6.86767

> <CNNscore>
0.7178168297

> <CNNaffinity>
6.1640028954

> <CNN_VS>
4.4246249199

> <CNNaffinity_variance>
0.2332745343

$$$$



 22 22  0  0  0  0  0  0  0  0999 V2000
   16.8489    1.9861   14.7678 C   0  0  0  0  0  0  0  0  0  0  0  0
   17.0163    3.1146   15.5705 C   0  0  0  0  0  0  0  0  0  0  0  0
   17.2125    4.3580   14.9674 C   0  0  0  0  0  0  0  0  0  0  0  0
   17.2440    4.4841   13.5659 C   0  0  0  0  0  0  0  0  0  0  0  0
   17.1070    3.3345   12.7718 C   0  0  0  0  0  0  0  0  0  0  0  0
   17.2453    3.3399   10.8763 Br  0  0  0  0  0  0  0  0  0  0  0  0
   16.9056    2.0852   13.3748 C   0  0  0  0  0  0  0  0  0  0  0  0
   16.8157   -0.6390   14.2285 N   0  0  0  0  0  0  0  0  0  0  0  0
   16.6234    0.4020   15.5350 S   0  0  0  0  0  0  0  0  0  0  0  0
   15.2567    0.3107   15.9866 O   0  0  0  0  0  0  0  0  0  0  0  0
   17.7522    0.1531   16.4008 O   0  0  0  0  0  0  0  0  0  0  0  0
   16.7071   -1.6032   14.5431 H   0  0  0  0  0  0  0  0  0  0  0  0
   17.7458   -0.5145   13.8287 H   0  0  0  0  0  0  0  0  0  0  0  0
   17.4467    5.8638   13.0478 C   0  0  0  0  0  0  0  0  0  0  0  0
   16.5842    6.3859   12.3509 O   0  0  0  0  0  0  0  0  0  0  0  0
   18.6463    6.4726   13.3328 N   0  0  0  0  0  0  0  0  0  0  0  0
   19.3549    5.9646   13.7900 H   0  0  0  0  0  0  0  0  0  0  0  0
   18.8791    7.8712   12.9619 C   0  0  0  0  0  0  0  0  0  0  0  0
   19.3156    8.7696   14.1149 C   0  0  0  0  0  0  0  0  0  0  0  0
   20.6615    8.8671   14.1857 F   0  0  0  0  0  0  0  0  0  0  0  0
   18.8805    8.2741   15.2976 F   0  0  0  0  0  0  0  0  0  0  0  0
   18.8157   10.0168   13.9825 F   0  0  0  0  0  0  0  0  0  0  0  0
  8  9  1  0
  9 10  2  0
  9 11  2  0
  9  1  1  0
  1  2  2  0
  2  3  1  0
  3  4  2  0
  4 14  1  0
 14 15  2  0
 14 16  1  0
 16 18  1  0
 18 19  1  0
 19 20  1  0
 19 21  1  0
 19 22  1  0
  4  5  1  0
  5  6  1  0
  5  7  2  0
  7  1  1  0
  8 12  1  0
  8 13  1  0
 16 17  1  0
M  END
> <minimizedAffinity>
-6.29517

> <CNNscore>
0.7053747773

> <CNNaffinity>
6.5535240173

> <CNN_VS>
4.6226906776

> <CNNaffinity_variance>
0.6049348712

$$$$
