


 20 20  0  0  0  0  0  0  0  0999 V2000
  -31.4156   -5.1978   35.7748 C   0  0  0  0  0  0  0  0  0  0  0  0
  -30.8259   -5.2349   37.2014 C   0  0  0  0  0  0  0  0  0  0  0  0
  -31.9584   -5.4335   38.2364 C   0  0  0  0  0  0  0  0  0  0  0  0
  -32.7198   -6.7058   37.9092 N   0  0  0  0  0  0  0  0  0  0  0  0
  -33.2083   -6.8908   36.5010 C   0  0  0  0  0  0  0  0  0  0  0  0
  -32.1056   -6.5491   35.4725 C   0  0  0  0  0  0  0  0  0  0  0  0
  -33.5360   -6.7368   38.5203 H   0  0  0  0  0  0  0  0  0  0  0  0
  -32.0386   -7.4529   38.0436 H   0  0  0  0  0  0  0  0  0  0  0  0
  -31.4240   -5.6163   39.6747 C   0  0  0  0  0  0  0  0  0  0  0  0
  -30.3110   -4.7341   39.8788 O   0  0  0  0  0  0  0  0  0  0  0  0
  -29.6115   -4.9430   39.2401 H   0  0  0  0  0  0  0  0  0  0  0  0
  -34.5634   -6.1715   36.3112 C   0  0  0  0  0  0  0  0  0  0  0  0
  -35.6669   -7.0700   36.3462 O   0  0  0  0  0  0  0  0  0  0  0  0
  -35.5860   -7.7098   35.6216 H   0  0  0  0  0  0  0  0  0  0  0  0
  -32.3376   -3.4575   34.4174 C   0  0  0  0  0  0  0  0  0  0  0  0
  -32.3349   -4.0958   35.6954 O   0  0  0  0  0  0  0  0  0  0  0  0
  -29.8895   -6.3167   37.3226 O   0  0  0  0  0  0  0  0  0  0  0  0
  -30.4907   -7.6021   37.1814 C   0  0  0  0  0  0  0  0  0  0  0  0
  -32.6731   -6.5883   34.1571 O   0  0  0  0  0  0  0  0  0  0  0  0
  -32.6985   -7.8921   33.5816 C   0  0  0  0  0  0  0  0  0  0  0  0
 15 16  1  0
 16  1  1  0
  1  2  1  0
  2 17  1  0
 17 18  1  0
  2  3  1  0
  3  9  1  0
  9 10  1  0
  3  4  1  0
  4  5  1  0
  5 12  1  0
 12 13  1  0
  5  6  1  0
  6 19  1  0
 19 20  1  0
  6  1  1  0
 10 11  1  0
  4  7  1  0
  4  8  1  0
 13 14  1  0
M  CHG 1   4   1
M  END
> <minimizedAffinity>
-3.75678

> <CNNscore>
0.4311275184

> <CNNaffinity>
3.1314535141

> <CNN_VS>
1.3500558138

> <CNNaffinity_variance>
0.7542221546

$$$$



 20 20  0  0  0  0  0  0  0  0999 V2000
  -33.4768    1.7719   21.2688 C   0  0  0  0  0  0  0  0  0  0  0  0
  -33.2896    1.7592   22.8016 C   0  0  0  0  0  0  0  0  0  0  0  0
  -31.7899    1.9062   23.1520 C   0  0  0  0  0  0  0  0  0  0  0  0
  -31.2521    3.1827   22.5302 N   0  0  0  0  0  0  0  0  0  0  0  0
  -31.5123    3.4176   21.0697 C   0  0  0  0  0  0  0  0  0  0  0  0
  -32.9867    3.1271   20.7061 C   0  0  0  0  0  0  0  0  0  0  0  0
  -30.2406    3.1820   22.6621 H   0  0  0  0  0  0  0  0  0  0  0  0
  -31.7588    3.9308   23.0036 H   0  0  0  0  0  0  0  0  0  0  0  0
  -31.5447    2.0381   24.6720 C   0  0  0  0  0  0  0  0  0  0  0  0
  -31.3582    3.4225   25.0000 O   0  0  0  0  0  0  0  0  0  0  0  0
  -30.5945    3.7701   24.5132 H   0  0  0  0  0  0  0  0  0  0  0  0
  -30.4450    2.6930   20.2179 C   0  0  0  0  0  0  0  0  0  0  0  0
  -30.0232    3.4662   19.0997 O   0  0  0  0  0  0  0  0  0  0  0  0
  -30.7808    3.6320   18.5170 H   0  0  0  0  0  0  0  0  0  0  0  0
  -33.5789   -0.2754   20.0362 C   0  0  0  0  0  0  0  0  0  0  0  0
  -32.7456    0.6648   20.7161 O   0  0  0  0  0  0  0  0  0  0  0  0
  -34.0157    2.8446   23.3985 O   0  0  0  0  0  0  0  0  0  0  0  0
  -35.2867    2.4564   23.9160 C   0  0  0  0  0  0  0  0  0  0  0  0
  -33.1366    3.2119   19.2833 O   0  0  0  0  0  0  0  0  0  0  0  0
  -34.1670    4.1044   18.8670 C   0  0  0  0  0  0  0  0  0  0  0  0
 15 16  1  0
 16  1  1  0
  1  2  1  0
  2 17  1  0
 17 18  1  0
  2  3  1  0
  3  9  1  0
  9 10  1  0
  3  4  1  0
  4  5  1  0
  5 12  1  0
 12 13  1  0
  5  6  1  0
  6 19  1  0
 19 20  1  0
  6  1  1  0
 10 11  1  0
  4  7  1  0
  4  8  1  0
 13 14  1  0
M  CHG 1   4   1
M  END
> <minimizedAffinity>
-3.71816

> <CNNscore>
0.2307558358

> <CNNaffinity>
2.5211966038

> <CNN_VS>
0.5817808509

> <CNNaffinity_variance>
1.0800038576

$$$$



 20 20  0  0  0  0  0  0  0  0999 V2000
  -32.3358    1.0279   20.0159 C   0  0  0  0  0  0  0  0  0  0  0  0
  -32.8140    2.3698   20.6118 C   0  0  0  0  0  0  0  0  0  0  0  0
  -31.8717    2.8043   21.7592 C   0  0  0  0  0  0  0  0  0  0  0  0
  -30.4503    2.8970   21.2333 N   0  0  0  0  0  0  0  0  0  0  0  0
  -29.9036    1.7228   20.4729 C   0  0  0  0  0  0  0  0  0  0  0  0
  -30.9175    1.2085   19.4250 C   0  0  0  0  0  0  0  0  0  0  0  0
  -29.8392    3.0504   22.0355 H   0  0  0  0  0  0  0  0  0  0  0  0
  -30.4797    3.6531   20.5494 H   0  0  0  0  0  0  0  0  0  0  0  0
  -32.2130    4.2071   22.3100 C   0  0  0  0  0  0  0  0  0  0  0  0
  -31.2554    5.1533   21.8136 O   0  0  0  0  0  0  0  0  0  0  0  0
  -30.3661    4.8951   22.1023 H   0  0  0  0  0  0  0  0  0  0  0  0
  -29.3454    0.6682   21.4556 C   0  0  0  0  0  0  0  0  0  0  0  0
  -27.9246    0.6967   21.5365 O   0  0  0  0  0  0  0  0  0  0  0  0
  -27.5471    0.4952   20.6660 H   0  0  0  0  0  0  0  0  0  0  0  0
  -33.3865   -0.9411   20.8763 C   0  0  0  0  0  0  0  0  0  0  0  0
  -32.3617    0.0375   21.0572 O   0  0  0  0  0  0  0  0  0  0  0  0
  -32.8160    3.3887   19.6000 O   0  0  0  0  0  0  0  0  0  0  0  0
  -34.1247    3.7417   19.1570 C   0  0  0  0  0  0  0  0  0  0  0  0
  -30.4105   -0.0010   18.8470 O   0  0  0  0  0  0  0  0  0  0  0  0
  -31.2315   -0.5287   17.8082 C   0  0  0  0  0  0  0  0  0  0  0  0
 15 16  1  0
 16  1  1  0
  1  2  1  0
  2 17  1  0
 17 18  1  0
  2  3  1  0
  3  9  1  0
  9 10  1  0
  3  4  1  0
  4  5  1  0
  5 12  1  0
 12 13  1  0
  5  6  1  0
  6 19  1  0
 19 20  1  0
  6  1  1  0
 10 11  1  0
  4  7  1  0
  4  8  1  0
 13 14  1  0
M  CHG 1   4   1
M  END
> <minimizedAffinity>
-3.81686

> <CNNscore>
0.2117258012

> <CNNaffinity>
2.3204281330

> <CNN_VS>
0.4912945032

> <CNNaffinity_variance>
1.2394376993

$$$$



 20 20  0  0  0  0  0  0  0  0999 V2000
  -32.1963   -7.6547   36.0623 C   0  0  0  0  0  0  0  0  0  0  0  0
  -30.9923   -7.3874   36.9915 C   0  0  0  0  0  0  0  0  0  0  0  0
  -30.4676   -5.9481   36.7759 C   0  0  0  0  0  0  0  0  0  0  0  0
  -31.5956   -4.9611   37.0187 N   0  0  0  0  0  0  0  0  0  0  0  0
  -32.8993   -5.1947   36.3105 C   0  0  0  0  0  0  0  0  0  0  0  0
  -33.3395   -6.6733   36.4133 C   0  0  0  0  0  0  0  0  0  0  0  0
  -31.2587   -4.0400   36.7386 H   0  0  0  0  0  0  0  0  0  0  0  0
  -31.8197   -5.0675   38.0081 H   0  0  0  0  0  0  0  0  0  0  0  0
  -29.3488   -5.5677   37.7715 C   0  0  0  0  0  0  0  0  0  0  0  0
  -28.6563   -6.7569   38.1779 O   0  0  0  0  0  0  0  0  0  0  0  0
  -29.2808   -7.3653   38.6031 H   0  0  0  0  0  0  0  0  0  0  0  0
  -32.8427   -4.5983   34.8854 C   0  0  0  0  0  0  0  0  0  0  0  0
  -32.4597   -3.2274   34.8832 O   0  0  0  0  0  0  0  0  0  0  0  0
  -33.1131   -2.7083   35.3778 H   0  0  0  0  0  0  0  0  0  0  0  0
  -32.2015   -8.5605   33.8485 C   0  0  0  0  0  0  0  0  0  0  0  0
  -31.7580   -7.5041   34.7018 O   0  0  0  0  0  0  0  0  0  0  0  0
  -31.3828   -7.5396   38.3649 O   0  0  0  0  0  0  0  0  0  0  0  0
  -31.4399   -8.9003   38.7880 C   0  0  0  0  0  0  0  0  0  0  0  0
  -34.4966   -6.8688   35.5904 O   0  0  0  0  0  0  0  0  0  0  0  0
  -35.7179   -6.4850   36.2170 C   0  0  0  0  0  0  0  0  0  0  0  0
 15 16  1  0
 16  1  1  0
  1  2  1  0
  2 17  1  0
 17 18  1  0
  2  3  1  0
  3  9  1  0
  9 10  1  0
  3  4  1  0
  4  5  1  0
  5 12  1  0
 12 13  1  0
  5  6  1  0
  6 19  1  0
 19 20  1  0
  6  1  1  0
 10 11  1  0
  4  7  1  0
  4  8  1  0
 13 14  1  0
M  CHG 1   4   1
M  END
> <minimizedAffinity>
-3.92205

> <CNNscore>
0.2109693736

> <CNNaffinity>
2.7755854130

> <CNN_VS>
0.5855635405

> <CNNaffinity_variance>
0.9075978398

$$$$



 20 20  0  0  0  0  0  0  0  0999 V2000
  -28.3817   -0.8015   26.0997 C   0  0  0  0  0  0  0  0  0  0  0  0
  -29.4603   -0.1168   25.2323 C   0  0  0  0  0  0  0  0  0  0  0  0
  -30.0490    1.1003   25.9843 C   0  0  0  0  0  0  0  0  0  0  0  0
  -28.9271    2.0573   26.3461 N   0  0  0  0  0  0  0  0  0  0  0  0
  -27.7216    1.4961   27.0445 C   0  0  0  0  0  0  0  0  0  0  0  0
  -27.2303    0.1972   26.3648 C   0  0  0  0  0  0  0  0  0  0  0  0
  -29.3236    2.7742   26.9537 H   0  0  0  0  0  0  0  0  0  0  0  0
  -28.5721    2.3861   25.4481 H   0  0  0  0  0  0  0  0  0  0  0  0
  -31.0376    1.9129   25.1182 C   0  0  0  0  0  0  0  0  0  0  0  0
  -30.8034    3.3133   25.3255 O   0  0  0  0  0  0  0  0  0  0  0  0
  -30.9351    3.5279   26.2623 H   0  0  0  0  0  0  0  0  0  0  0  0
  -27.9816    1.4125   28.5661 C   0  0  0  0  0  0  0  0  0  0  0  0
  -26.7796    1.4529   29.3274 O   0  0  0  0  0  0  0  0  0  0  0  0
  -26.2247    0.6916   29.0963 H   0  0  0  0  0  0  0  0  0  0  0  0
  -29.3266   -2.6360   27.3094 C   0  0  0  0  0  0  0  0  0  0  0  0
  -28.9990   -1.2455   27.3194 O   0  0  0  0  0  0  0  0  0  0  0  0
  -28.8886    0.3329   23.9943 O   0  0  0  0  0  0  0  0  0  0  0  0
  -29.2559   -0.4737   22.8770 C   0  0  0  0  0  0  0  0  0  0  0  0
  -26.1864   -0.3750   27.1628 O   0  0  0  0  0  0  0  0  0  0  0  0
  -25.6354   -1.5703   26.6157 C   0  0  0  0  0  0  0  0  0  0  0  0
 15 16  1  0
 16  1  1  0
  1  2  1  0
  2 17  1  0
 17 18  1  0
  2  3  1  0
  3  9  1  0
  9 10  1  0
  3  4  1  0
  4  5  1  0
  5 12  1  0
 12 13  1  0
  5  6  1  0
  6 19  1  0
 19 20  1  0
  6  1  1  0
 10 11  1  0
  4  7  1  0
  4  8  1  0
 13 14  1  0
M  CHG 1   4   1
M  END
> <minimizedAffinity>
-5.33821

> <CNNscore>
0.2103406936

> <CNNaffinity>
2.9323794842

> <CNN_VS>
0.6167987585

> <CNNaffinity_variance>
1.2546952963

$$$$



 20 20  0  0  0  0  0  0  0  0999 V2000
  -28.1600    0.3143   26.1995 C   0  0  0  0  0  0  0  0  0  0  0  0
  -27.6020    1.3506   27.1991 C   0  0  0  0  0  0  0  0  0  0  0  0
  -26.6050    0.6687   28.1658 C   0  0  0  0  0  0  0  0  0  0  0  0
  -25.4981    0.0095   27.3622 N   0  0  0  0  0  0  0  0  0  0  0  0
  -25.8936   -0.8979   26.2326 C   0  0  0  0  0  0  0  0  0  0  0  0
  -26.9965   -0.2598   25.3569 C   0  0  0  0  0  0  0  0  0  0  0  0
  -24.9377   -0.5416   28.0124 H   0  0  0  0  0  0  0  0  0  0  0  0
  -25.0143    0.7851   26.9096 H   0  0  0  0  0  0  0  0  0  0  0  0
  -25.9053    1.6757   29.1060 C   0  0  0  0  0  0  0  0  0  0  0  0
  -24.5887    1.9501   28.6056 O   0  0  0  0  0  0  0  0  0  0  0  0
  -24.0784    1.1260   28.5695 H   0  0  0  0  0  0  0  0  0  0  0  0
  -26.1867   -2.3172   26.7705 C   0  0  0  0  0  0  0  0  0  0  0  0
  -26.0773   -3.3156   25.7620 O   0  0  0  0  0  0  0  0  0  0  0  0
  -26.7271   -3.1417   25.0631 H   0  0  0  0  0  0  0  0  0  0  0  0
  -30.1925   -0.3725   27.2572 C   0  0  0  0  0  0  0  0  0  0  0  0
  -28.8401   -0.7098   26.9443 O   0  0  0  0  0  0  0  0  0  0  0  0
  -26.9230    2.4021   26.4956 O   0  0  0  0  0  0  0  0  0  0  0  0
  -27.4211    3.7019   26.8057 C   0  0  0  0  0  0  0  0  0  0  0  0
  -27.4438   -1.2281   24.3997 O   0  0  0  0  0  0  0  0  0  0  0  0
  -28.5236   -0.7754   23.5869 C   0  0  0  0  0  0  0  0  0  0  0  0
 15 16  1  0
 16  1  1  0
  1  2  1  0
  2 17  1  0
 17 18  1  0
  2  3  1  0
  3  9  1  0
  9 10  1  0
  3  4  1  0
  4  5  1  0
  5 12  1  0
 12 13  1  0
  5  6  1  0
  6 19  1  0
 19 20  1  0
  6  1  1  0
 10 11  1  0
  4  7  1  0
  4  8  1  0
 13 14  1  0
M  CHG 1   4   1
M  END
> <minimizedAffinity>
-4.55280

> <CNNscore>
0.1957185268

> <CNNaffinity>
3.4620590210

> <CNN_VS>
0.6775891185

> <CNNaffinity_variance>
0.6516986489

$$$$



 20 20  0  0  0  0  0  0  0  0999 V2000
  -33.1172    2.5538   22.8681 C   0  0  0  0  0  0  0  0  0  0  0  0
  -31.9187    1.9763   22.0842 C   0  0  0  0  0  0  0  0  0  0  0  0
  -31.5957    2.8804   20.8711 C   0  0  0  0  0  0  0  0  0  0  0  0
  -31.3223    4.2929   21.3567 N   0  0  0  0  0  0  0  0  0  0  0  0
  -32.3257    4.9268   22.2772 C   0  0  0  0  0  0  0  0  0  0  0  0
  -32.7477    3.9569   23.4048 C   0  0  0  0  0  0  0  0  0  0  0  0
  -31.2481    4.8885   20.5320 H   0  0  0  0  0  0  0  0  0  0  0  0
  -30.4757    4.2102   21.9196 H   0  0  0  0  0  0  0  0  0  0  0  0
  -30.3205    2.4352   20.1206 C   0  0  0  0  0  0  0  0  0  0  0  0
  -30.0098    3.4016   19.1065 O   0  0  0  0  0  0  0  0  0  0  0  0
  -30.7508    3.4667   18.4840 H   0  0  0  0  0  0  0  0  0  0  0  0
  -33.4736    5.5578   21.4563 C   0  0  0  0  0  0  0  0  0  0  0  0
  -34.3107    6.3964   22.2451 O   0  0  0  0  0  0  0  0  0  0  0  0
  -34.7251    5.8710   22.9473 H   0  0  0  0  0  0  0  0  0  0  0  0
  -35.3578    1.8237   22.4582 C   0  0  0  0  0  0  0  0  0  0  0  0
  -34.2528    2.5974   21.9881 O   0  0  0  0  0  0  0  0  0  0  0  0
  -30.7616    1.9028   22.9312 O   0  0  0  0  0  0  0  0  0  0  0  0
  -30.5130    0.5919   23.4348 C   0  0  0  0  0  0  0  0  0  0  0  0
  -33.8162    4.5532   24.1508 O   0  0  0  0  0  0  0  0  0  0  0  0
  -33.4389    4.9704   25.4605 C   0  0  0  0  0  0  0  0  0  0  0  0
 15 16  1  0
 16  1  1  0
  1  2  1  0
  2 17  1  0
 17 18  1  0
  2  3  1  0
  3  9  1  0
  9 10  1  0
  3  4  1  0
  4  5  1  0
  5 12  1  0
 12 13  1  0
  5  6  1  0
  6 19  1  0
 19 20  1  0
  6  1  1  0
 10 11  1  0
  4  7  1  0
  4  8  1  0
 13 14  1  0
M  CHG 1   4   1
M  END
> <minimizedAffinity>
-4.36042

> <CNNscore>
0.1763473153

> <CNNaffinity>
2.9731595516

> <CNN_VS>
0.5243086815

> <CNNaffinity_variance>
0.4481011927

$$$$



 20 20  0  0  0  0  0  0  0  0999 V2000
  -28.8531   -1.9333   26.7674 C   0  0  0  0  0  0  0  0  0  0  0  0
  -29.1703   -0.6169   27.5096 C   0  0  0  0  0  0  0  0  0  0  0  0
  -28.1524    0.4759   27.1059 C   0  0  0  0  0  0  0  0  0  0  0  0
  -28.1833    0.6583   25.5988 N   0  0  0  0  0  0  0  0  0  0  0  0
  -28.0609   -0.5673   24.7392 C   0  0  0  0  0  0  0  0  0  0  0  0
  -28.9809   -1.7032   25.2429 C   0  0  0  0  0  0  0  0  0  0  0  0
  -27.4133    1.2802   25.3523 H   0  0  0  0  0  0  0  0  0  0  0  0
  -29.1189    1.0147   25.4037 H   0  0  0  0  0  0  0  0  0  0  0  0
  -28.4932    1.8576   27.7079 C   0  0  0  0  0  0  0  0  0  0  0  0
  -28.6972    2.7975   26.6430 O   0  0  0  0  0  0  0  0  0  0  0  0
  -27.8895    2.8623   26.1099 H   0  0  0  0  0  0  0  0  0  0  0  0
  -26.5712   -0.9324   24.5458 C   0  0  0  0  0  0  0  0  0  0  0  0
  -25.9314   -0.1139   23.5727 O   0  0  0  0  0  0  0  0  0  0  0  0
  -26.3633   -0.2364   22.7128 H   0  0  0  0  0  0  0  0  0  0  0  0
  -27.4430   -3.7478   27.4312 C   0  0  0  0  0  0  0  0  0  0  0  0
  -27.5292   -2.3522   27.1382 O   0  0  0  0  0  0  0  0  0  0  0  0
  -30.4927   -0.1668   27.1774 O   0  0  0  0  0  0  0  0  0  0  0  0
  -31.5225   -0.9855   27.7279 C   0  0  0  0  0  0  0  0  0  0  0  0
  -28.7048   -2.8898   24.4883 O   0  0  0  0  0  0  0  0  0  0  0  0
  -29.8560   -3.6924   24.2390 C   0  0  0  0  0  0  0  0  0  0  0  0
 15 16  1  0
 16  1  1  0
  1  2  1  0
  2 17  1  0
 17 18  1  0
  2  3  1  0
  3  9  1  0
  9 10  1  0
  3  4  1  0
  4  5  1  0
  5 12  1  0
 12 13  1  0
  5  6  1  0
  6 19  1  0
 19 20  1  0
  6  1  1  0
 10 11  1  0
  4  7  1  0
  4  8  1  0
 13 14  1  0
M  CHG 1   4   1
M  END
> <minimizedAffinity>
-4.66373

> <CNNscore>
0.1702351272

> <CNNaffinity>
3.1059591770

> <CNN_VS>
0.5287433267

> <CNNaffinity_variance>
0.6974969506

$$$$



 20 20  0  0  0  0  0  0  0  0999 V2000
  -29.0005   -0.6296   26.9935 C   0  0  0  0  0  0  0  0  0  0  0  0
  -30.2827    0.1766   26.6926 C   0  0  0  0  0  0  0  0  0  0  0  0
  -30.1019    0.9899   25.3890 C   0  0  0  0  0  0  0  0  0  0  0  0
  -29.7515    0.0455   24.2529 N   0  0  0  0  0  0  0  0  0  0  0  0
  -28.6272   -0.9269   24.4678 C   0  0  0  0  0  0  0  0  0  0  0  0
  -28.7435   -1.6286   25.8406 C   0  0  0  0  0  0  0  0  0  0  0  0
  -29.5068    0.6191   23.4457 H   0  0  0  0  0  0  0  0  0  0  0  0
  -30.5790   -0.5409   24.1436 H   0  0  0  0  0  0  0  0  0  0  0  0
  -31.3963    1.7139   24.9556 C   0  0  0  0  0  0  0  0  0  0  0  0
  -31.1055    2.5715   23.8425 O   0  0  0  0  0  0  0  0  0  0  0  0
  -30.4365    3.2238   24.1031 H   0  0  0  0  0  0  0  0  0  0  0  0
  -27.2728   -0.2469   24.1628 C   0  0  0  0  0  0  0  0  0  0  0  0
  -26.3274   -1.1461   23.5937 O   0  0  0  0  0  0  0  0  0  0  0  0
  -26.1453   -1.8633   24.2208 H   0  0  0  0  0  0  0  0  0  0  0  0
  -28.0754    1.1638   28.2776 C   0  0  0  0  0  0  0  0  0  0  0  0
  -27.9131    0.2964   27.1543 O   0  0  0  0  0  0  0  0  0  0  0  0
  -31.4008   -0.7107   26.5364 O   0  0  0  0  0  0  0  0  0  0  0  0
  -32.0360   -1.0409   27.7697 C   0  0  0  0  0  0  0  0  0  0  0  0
  -27.5671   -2.4181   26.0566 O   0  0  0  0  0  0  0  0  0  0  0  0
  -27.6605   -3.2921   27.1786 C   0  0  0  0  0  0  0  0  0  0  0  0
 15 16  1  0
 16  1  1  0
  1  2  1  0
  2 17  1  0
 17 18  1  0
  2  3  1  0
  3  9  1  0
  9 10  1  0
  3  4  1  0
  4  5  1  0
  5 12  1  0
 12 13  1  0
  5  6  1  0
  6 19  1  0
 19 20  1  0
  6  1  1  0
 10 11  1  0
  4  7  1  0
  4  8  1  0
 13 14  1  0
M  CHG 1   4   1
M  END
> <minimizedAffinity>
-3.77149

> <CNNscore>
0.1696534008

> <CNNaffinity>
2.9746901989

> <CNN_VS>
0.5046663284

> <CNNaffinity_variance>
0.8029583097

$$$$
