


 17 17  0  0  0  0  0  0  0  0999 V2000
   27.1388   30.8573   20.8289 C   0  0  0  0  0  0  0  0  0  0  0  0
   27.7786   31.7418   21.8761 C   0  0  0  0  0  0  0  0  0  0  0  0
   28.7051   31.2085   22.7852 C   0  0  0  0  0  0  0  0  0  0  0  0
   29.3067   32.0277   23.7421 C   0  0  0  0  0  0  0  0  0  0  0  0
   28.9868   33.3805   23.7940 C   0  0  0  0  0  0  0  0  0  0  0  0
   29.5789   34.1458   24.7226 F   0  0  0  0  0  0  0  0  0  0  0  0
   28.0711   33.9245   22.8978 C   0  0  0  0  0  0  0  0  0  0  0  0
   27.6345   35.7632   22.9636 Br  0  0  0  0  0  0  0  0  0  0  0  0
   27.4663   33.1095   21.9383 C   0  0  0  0  0  0  0  0  0  0  0  0
   25.9502   32.2259   19.1211 N   0  0  0  0  0  0  0  0  0  0  0  0
   27.1835   31.4576   19.4136 C   0  0  0  0  0  0  0  0  0  0  0  0
   25.8493   32.9788   19.8018 H   0  0  0  0  0  0  0  0  0  0  0  0
   25.1421   31.6060   19.1774 H   0  0  0  0  0  0  0  0  0  0  0  0
   27.3184   30.3341   18.3841 C   0  0  0  0  0  0  0  0  0  0  0  0
   28.1866   29.4730   18.3691 O   0  0  0  0  0  0  0  0  0  0  0  0
   26.3654   30.3656   17.4319 O   0  0  0  0  0  0  0  0  0  0  0  0
   25.7045   31.0295   17.4522 H   0  0  0  0  0  0  0  0  0  0  0  0
 11 10  1  0
 11  1  1  0
  1  2  1  0
  2  3  2  0
  3  4  1  0
  4  5  2  0
  5  6  1  0
  5  7  1  0
  7  8  1  0
  7  9  2  0
 11 14  1  0
 14 15  2  0
 14 16  1  0
  9  2  1  0
 10 12  1  0
 10 13  1  0
 16 17  1  0
M  END
> <minimizedAffinity>
-8.01826

> <CNNscore>
0.9719206691

> <CNNaffinity>
6.2679619789

> <CNN_VS>
6.0919618607

> <CNNaffinity_variance>
0.0222875997

$$$$



 17 17  0  0  0  0  0  0  0  0999 V2000
   28.3835   32.0626   18.8138 C   0  0  0  0  0  0  0  0  0  0  0  0
   28.4839   32.4853   20.2628 C   0  0  0  0  0  0  0  0  0  0  0  0
   28.3787   33.8395   20.6156 C   0  0  0  0  0  0  0  0  0  0  0  0
   28.4566   34.2282   21.9541 C   0  0  0  0  0  0  0  0  0  0  0  0
   28.6385   33.2677   22.9438 C   0  0  0  0  0  0  0  0  0  0  0  0
   28.7098   33.6673   24.2220 F   0  0  0  0  0  0  0  0  0  0  0  0
   28.7428   31.9204   22.6096 C   0  0  0  0  0  0  0  0  0  0  0  0
   28.9885   30.6111   23.9517 Br  0  0  0  0  0  0  0  0  0  0  0  0
   28.6654   31.5259   21.2720 C   0  0  0  0  0  0  0  0  0  0  0  0
   25.9543   32.2718   19.3209 N   0  0  0  0  0  0  0  0  0  0  0  0
   26.9511   31.7087   18.3797 C   0  0  0  0  0  0  0  0  0  0  0  0
   26.0537   33.2864   19.3546 H   0  0  0  0  0  0  0  0  0  0  0  0
   26.1085   31.8840   20.2516 H   0  0  0  0  0  0  0  0  0  0  0  0
   26.7875   30.1882   18.3421 C   0  0  0  0  0  0  0  0  0  0  0  0
   25.7316   29.5811   18.2322 O   0  0  0  0  0  0  0  0  0  0  0  0
   27.9539   29.5230   18.4558 O   0  0  0  0  0  0  0  0  0  0  0  0
   28.7576   29.9973   18.5395 H   0  0  0  0  0  0  0  0  0  0  0  0
 11 10  1  0
 11  1  1  0
  1  2  1  0
  2  3  2  0
  3  4  1  0
  4  5  2  0
  5  6  1  0
  5  7  1  0
  7  8  1  0
  7  9  2  0
 11 14  1  0
 14 15  2  0
 14 16  1  0
  9  2  1  0
 10 12  1  0
 10 13  1  0
 16 17  1  0
M  END
> <minimizedAffinity>
-5.22570

> <CNNscore>
0.9366903901

> <CNNaffinity>
5.9458250999

> <CNN_VS>
5.5693974495

> <CNNaffinity_variance>
0.0078185285

$$$$



 17 17  0  0  0  0  0  0  0  0999 V2000
   26.5778   31.7651   19.8540 C   0  0  0  0  0  0  0  0  0  0  0  0
   27.3821   32.0489   21.1034 C   0  0  0  0  0  0  0  0  0  0  0  0
   28.0558   31.0103   21.7645 C   0  0  0  0  0  0  0  0  0  0  0  0
   28.8100   31.2745   22.9090 C   0  0  0  0  0  0  0  0  0  0  0  0
   28.8954   32.5746   23.3962 C   0  0  0  0  0  0  0  0  0  0  0  0
   29.6267   32.8018   24.4973 F   0  0  0  0  0  0  0  0  0  0  0  0
   28.2343   33.6156   22.7504 C   0  0  0  0  0  0  0  0  0  0  0  0
   28.3488   35.3848   23.4082 Br  0  0  0  0  0  0  0  0  0  0  0  0
   27.4783   33.3570   21.6048 C   0  0  0  0  0  0  0  0  0  0  0  0
   28.1414   31.3939   17.9516 N   0  0  0  0  0  0  0  0  0  0  0  0
   27.2389   30.7337   18.9243 C   0  0  0  0  0  0  0  0  0  0  0  0
   28.8665   31.9060   18.4540 H   0  0  0  0  0  0  0  0  0  0  0  0
   27.6046   32.0421   17.3754 H   0  0  0  0  0  0  0  0  0  0  0  0
   26.1592   29.9714   18.1539 C   0  0  0  0  0  0  0  0  0  0  0  0
   25.1472   29.4785   18.6321 O   0  0  0  0  0  0  0  0  0  0  0  0
   26.4192   29.8640   16.8361 O   0  0  0  0  0  0  0  0  0  0  0  0
   27.1973   30.2452   16.4794 H   0  0  0  0  0  0  0  0  0  0  0  0
 11 10  1  0
 11  1  1  0
  1  2  1  0
  2  3  2  0
  3  4  1  0
  4  5  2  0
  5  6  1  0
  5  7  1  0
  7  8  1  0
  7  9  2  0
 11 14  1  0
 14 15  2  0
 14 16  1  0
  9  2  1  0
 10 12  1  0
 10 13  1  0
 16 17  1  0
M  END
> <minimizedAffinity>
-7.04150

> <CNNscore>
0.9259677529

> <CNNaffinity>
5.8313612938

> <CNN_VS>
5.3996524811

> <CNNaffinity_variance>
0.0134976963

$$$$



 17 17  0  0  0  0  0  0  0  0999 V2000
   27.7574   31.3324   21.1953 C   0  0  0  0  0  0  0  0  0  0  0  0
   28.0957   32.5294   22.0560 C   0  0  0  0  0  0  0  0  0  0  0  0
   27.5995   33.8009   21.7296 C   0  0  0  0  0  0  0  0  0  0  0  0
   27.8996   34.9030   22.5321 C   0  0  0  0  0  0  0  0  0  0  0  0
   28.6939   34.7397   23.6623 C   0  0  0  0  0  0  0  0  0  0  0  0
   28.9672   35.8144   24.4166 F   0  0  0  0  0  0  0  0  0  0  0  0
   29.1920   33.4845   24.0001 C   0  0  0  0  0  0  0  0  0  0  0  0
   30.2708   33.2576   25.5365 Br  0  0  0  0  0  0  0  0  0  0  0  0
   28.8948   32.3784   23.2008 C   0  0  0  0  0  0  0  0  0  0  0  0
   27.1236   32.7864   19.2753 N   0  0  0  0  0  0  0  0  0  0  0  0
   27.9117   31.6013   19.6889 C   0  0  0  0  0  0  0  0  0  0  0  0
   27.4404   33.6041   19.7963 H   0  0  0  0  0  0  0  0  0  0  0  0
   26.1356   32.6219   19.4685 H   0  0  0  0  0  0  0  0  0  0  0  0
   27.4235   30.3861   18.8983 C   0  0  0  0  0  0  0  0  0  0  0  0
   28.1223   29.4773   18.4723 O   0  0  0  0  0  0  0  0  0  0  0  0
   26.0937   30.3901   18.6806 O   0  0  0  0  0  0  0  0  0  0  0  0
   25.5670   31.0910   19.0112 H   0  0  0  0  0  0  0  0  0  0  0  0
 11 10  1  0
 11  1  1  0
  1  2  1  0
  2  3  2  0
  3  4  1  0
  4  5  2  0
  5  6  1  0
  5  7  1  0
  7  8  1  0
  7  9  2  0
 11 14  1  0
 14 15  2  0
 14 16  1  0
  9  2  1  0
 10 12  1  0
 10 13  1  0
 16 17  1  0
M  END
> <minimizedAffinity>
-6.73682

> <CNNscore>
0.9010847211

> <CNNaffinity>
5.3781638145

> <CNN_VS>
4.8461813927

> <CNNaffinity_variance>
0.2797361612

$$$$



 17 17  0  0  0  0  0  0  0  0999 V2000
   27.5243   23.4329   23.4694 C   0  0  0  0  0  0  0  0  0  0  0  0
   28.6285   23.3935   22.4362 C   0  0  0  0  0  0  0  0  0  0  0  0
   29.6337   24.3728   22.4344 C   0  0  0  0  0  0  0  0  0  0  0  0
   30.6608   24.3282   21.4902 C   0  0  0  0  0  0  0  0  0  0  0  0
   30.6888   23.3066   20.5465 C   0  0  0  0  0  0  0  0  0  0  0  0
   31.6865   23.2863   19.6505 F   0  0  0  0  0  0  0  0  0  0  0  0
   29.6998   22.3270   20.5366 C   0  0  0  0  0  0  0  0  0  0  0  0
   29.7348   20.9355   19.2566 Br  0  0  0  0  0  0  0  0  0  0  0  0
   28.6698   22.3668   21.4792 C   0  0  0  0  0  0  0  0  0  0  0  0
   28.2396   21.0567   23.6788 N   0  0  0  0  0  0  0  0  0  0  0  0
   27.3619   22.1114   24.2391 C   0  0  0  0  0  0  0  0  0  0  0  0
   29.2122   21.3594   23.7333 H   0  0  0  0  0  0  0  0  0  0  0  0
   27.9899   20.8889   22.7042 H   0  0  0  0  0  0  0  0  0  0  0  0
   25.9091   21.6407   24.1491 C   0  0  0  0  0  0  0  0  0  0  0  0
   25.4037   21.0431   23.2094 O   0  0  0  0  0  0  0  0  0  0  0  0
   25.1773   21.9574   25.2354 O   0  0  0  0  0  0  0  0  0  0  0  0
   25.5738   22.4154   25.9502 H   0  0  0  0  0  0  0  0  0  0  0  0
 11 10  1  0
 11  1  1  0
  1  2  1  0
  2  3  2  0
  3  4  1  0
  4  5  2  0
  5  6  1  0
  5  7  1  0
  7  8  1  0
  7  9  2  0
 11 14  1  0
 14 15  2  0
 14 16  1  0
  9  2  1  0
 10 12  1  0
 10 13  1  0
 16 17  1  0
M  END
> <minimizedAffinity>
-5.85421

> <CNNscore>
0.8997952938

> <CNNaffinity>
4.9043192863

> <CNN_VS>
4.4128832817

> <CNNaffinity_variance>
0.1306024045

$$$$



 17 17  0  0  0  0  0  0  0  0999 V2000
   26.9594   30.8069   20.8034 C   0  0  0  0  0  0  0  0  0  0  0  0
   27.6446   31.6666   21.8425 C   0  0  0  0  0  0  0  0  0  0  0  0
   28.6118   31.1131   22.6955 C   0  0  0  0  0  0  0  0  0  0  0  0
   29.2547   31.9097   23.6445 C   0  0  0  0  0  0  0  0  0  0  0  0
   28.9359   33.2600   23.7444 C   0  0  0  0  0  0  0  0  0  0  0  0
   29.5681   34.0035   24.6643 F   0  0  0  0  0  0  0  0  0  0  0  0
   27.9800   33.8239   22.9041 C   0  0  0  0  0  0  0  0  0  0  0  0
   27.5445   35.6594   23.0353 Br  0  0  0  0  0  0  0  0  0  0  0  0
   27.3337   33.0315   21.9527 C   0  0  0  0  0  0  0  0  0  0  0  0
   25.7390   30.7731   18.6328 N   0  0  0  0  0  0  0  0  0  0  0  0
   26.6527   31.5577   19.4966 C   0  0  0  0  0  0  0  0  0  0  0  0
   24.8668   30.5975   19.1315 H   0  0  0  0  0  0  0  0  0  0  0  0
   26.1780   29.8843   18.3924 H   0  0  0  0  0  0  0  0  0  0  0  0
   27.9540   31.8112   18.7333 C   0  0  0  0  0  0  0  0  0  0  0  0
   28.4058   31.1184   17.8325 O   0  0  0  0  0  0  0  0  0  0  0  0
   28.6136   32.9088   19.1528 O   0  0  0  0  0  0  0  0  0  0  0  0
   28.2590   33.4331   19.8437 H   0  0  0  0  0  0  0  0  0  0  0  0
 11 10  1  0
 11  1  1  0
  1  2  1  0
  2  3  2  0
  3  4  1  0
  4  5  2  0
  5  6  1  0
  5  7  1  0
  7  8  1  0
  7  9  2  0
 11 14  1  0
 14 15  2  0
 14 16  1  0
  9  2  1  0
 10 12  1  0
 10 13  1  0
 16 17  1  0
M  END
> <minimizedAffinity>
-6.40955

> <CNNscore>
0.8573066592

> <CNNaffinity>
5.9212379456

> <CNN_VS>
5.0763168335

> <CNNaffinity_variance>
0.1394572258

$$$$



 17 17  0  0  0  0  0  0  0  0999 V2000
   26.6294   31.1198   20.9005 C   0  0  0  0  0  0  0  0  0  0  0  0
   27.8909   31.3373   21.7064 C   0  0  0  0  0  0  0  0  0  0  0  0
   27.9419   30.9656   23.0587 C   0  0  0  0  0  0  0  0  0  0  0  0
   29.1107   31.1528   23.7985 C   0  0  0  0  0  0  0  0  0  0  0  0
   30.2316   31.7099   23.1916 C   0  0  0  0  0  0  0  0  0  0  0  0
   31.3421   31.8789   23.9244 F   0  0  0  0  0  0  0  0  0  0  0  0
   30.1971   32.0819   21.8507 C   0  0  0  0  0  0  0  0  0  0  0  0
   31.7190   32.8380   21.0212 Br  0  0  0  0  0  0  0  0  0  0  0  0
   29.0303   31.8968   21.1057 C   0  0  0  0  0  0  0  0  0  0  0  0
   25.6404   32.4465   19.0394 N   0  0  0  0  0  0  0  0  0  0  0  0
   26.7603   31.5588   19.4323 C   0  0  0  0  0  0  0  0  0  0  0  0
   25.6356   33.2728   19.6375 H   0  0  0  0  0  0  0  0  0  0  0  0
   24.7575   31.9464   19.1433 H   0  0  0  0  0  0  0  0  0  0  0  0
   26.7519   30.3265   18.5259 C   0  0  0  0  0  0  0  0  0  0  0  0
   25.7683   29.8326   17.9929 O   0  0  0  0  0  0  0  0  0  0  0  0
   27.9729   29.7831   18.3526 O   0  0  0  0  0  0  0  0  0  0  0  0
   28.7203   30.1691   18.7653 H   0  0  0  0  0  0  0  0  0  0  0  0
 11 10  1  0
 11  1  1  0
  1  2  1  0
  2  3  2  0
  3  4  1  0
  4  5  2  0
  5  6  1  0
  5  7  1  0
  7  8  1  0
  7  9  2  0
 11 14  1  0
 14 15  2  0
 14 16  1  0
  9  2  1  0
 10 12  1  0
 10 13  1  0
 16 17  1  0
M  END
> <minimizedAffinity>
-0.62338

> <CNNscore>
0.8112431765

> <CNNaffinity>
5.6540160179

> <CNN_VS>
4.5867819786

> <CNNaffinity_variance>
0.1252608746

$$$$



 17 17  0  0  0  0  0  0  0  0999 V2000
   26.9137   22.3598   23.6183 C   0  0  0  0  0  0  0  0  0  0  0  0
   28.0802   22.4777   22.6625 C   0  0  0  0  0  0  0  0  0  0  0  0
   28.4328   21.3989   21.8370 C   0  0  0  0  0  0  0  0  0  0  0  0
   29.5000   21.5127   20.9444 C   0  0  0  0  0  0  0  0  0  0  0  0
   30.2172   22.7024   20.8719 C   0  0  0  0  0  0  0  0  0  0  0  0
   31.2379   22.7859   20.0059 F   0  0  0  0  0  0  0  0  0  0  0  0
   29.8783   23.7818   21.6829 C   0  0  0  0  0  0  0  0  0  0  0  0
   30.8494   25.4016   21.5866 Br  0  0  0  0  0  0  0  0  0  0  0  0
   28.8113   23.6735   22.5777 C   0  0  0  0  0  0  0  0  0  0  0  0
   25.6239   20.5162   22.5507 N   0  0  0  0  0  0  0  0  0  0  0  0
   26.3820   20.9233   23.7574 C   0  0  0  0  0  0  0  0  0  0  0  0
   26.2312   20.5715   21.7330 H   0  0  0  0  0  0  0  0  0  0  0  0
   24.8260   21.1389   22.4243 H   0  0  0  0  0  0  0  0  0  0  0  0
   25.4567   20.8344   24.9724 C   0  0  0  0  0  0  0  0  0  0  0  0
   24.2579   21.0758   24.9823 O   0  0  0  0  0  0  0  0  0  0  0  0
   26.0916   20.4602   26.1005 O   0  0  0  0  0  0  0  0  0  0  0  0
   27.0105   20.2775   26.0824 H   0  0  0  0  0  0  0  0  0  0  0  0
 11 10  1  0
 11  1  1  0
  1  2  1  0
  2  3  2  0
  3  4  1  0
  4  5  2  0
  5  6  1  0
  5  7  1  0
  7  8  1  0
  7  9  2  0
 11 14  1  0
 14 15  2  0
 14 16  1  0
  9  2  1  0
 10 12  1  0
 10 13  1  0
 16 17  1  0
M  END
> <minimizedAffinity>
-6.12301

> <CNNscore>
0.7774093151

> <CNNaffinity>
4.8265967369

> <CNN_VS>
3.7522413731

> <CNNaffinity_variance>
0.0476979129

$$$$



 17 17  0  0  0  0  0  0  0  0999 V2000
   31.6267   38.0380   26.5025 C   0  0  0  0  0  0  0  0  0  0  0  0
   32.6413   38.0971   27.6229 C   0  0  0  0  0  0  0  0  0  0  0  0
   32.2892   38.6329   28.8713 C   0  0  0  0  0  0  0  0  0  0  0  0
   33.2211   38.6740   29.9099 C   0  0  0  0  0  0  0  0  0  0  0  0
   34.5054   38.1798   29.7066 C   0  0  0  0  0  0  0  0  0  0  0  0
   35.3817   38.2308   30.7206 F   0  0  0  0  0  0  0  0  0  0  0  0
   34.8690   37.6437   28.4745 C   0  0  0  0  0  0  0  0  0  0  0  0
   36.6134   36.9694   28.1942 Br  0  0  0  0  0  0  0  0  0  0  0  0
   33.9406   37.6000   27.4319 C   0  0  0  0  0  0  0  0  0  0  0  0
   31.8031   35.5748   26.1811 N   0  0  0  0  0  0  0  0  0  0  0  0
   30.8718   36.6999   26.4332 C   0  0  0  0  0  0  0  0  0  0  0  0
   32.4946   35.5316   26.9298 H   0  0  0  0  0  0  0  0  0  0  0  0
   32.2764   35.7185   25.2891 H   0  0  0  0  0  0  0  0  0  0  0  0
   29.8432   36.7493   25.3019 C   0  0  0  0  0  0  0  0  0  0  0  0
   29.7275   37.6417   24.4737 O   0  0  0  0  0  0  0  0  0  0  0  0
   29.0170   35.6849   25.2849 O   0  0  0  0  0  0  0  0  0  0  0  0
   29.1138   35.0064   25.9239 H   0  0  0  0  0  0  0  0  0  0  0  0
 11 10  1  0
 11  1  1  0
  1  2  1  0
  2  3  2  0
  3  4  1  0
  4  5  2  0
  5  6  1  0
  5  7  1  0
  7  8  1  0
  7  9  2  0
 11 14  1  0
 14 15  2  0
 14 16  1  0
  9  2  1  0
 10 12  1  0
 10 13  1  0
 16 17  1  0
M  END
> <minimizedAffinity>
29.65748

> <CNNscore>
0.7219337821

> <CNNaffinity>
4.7359576225

> <CNN_VS>
3.4190478325

> <CNNaffinity_variance>
0.4534436464

$$$$
