


 26 28  0  0  0  0  0  0  0  0999 V2000
   37.5894   -0.7011   12.2449 C   0  0  0  0  0  0  0  0  0  0  0  0
   38.7924   -1.0667   12.9379 O   0  0  0  0  0  0  0  0  0  0  0  0
   39.1663    0.0450   13.7816 C   0  0  0  0  0  0  0  0  0  0  0  0
   37.8606    0.7422   14.1668 C   0  0  0  0  0  0  0  0  0  0  0  0
   37.3190    0.1692   15.3641 O   0  0  0  0  0  0  0  0  0  0  0  0
   36.9275    0.4771   12.9908 C   0  0  0  0  0  0  0  0  0  0  0  0
   36.8537    1.6211   12.1270 O   0  0  0  0  0  0  0  0  0  0  0  0
   37.1781   -0.7814   15.2326 H   0  0  0  0  0  0  0  0  0  0  0  0
   37.7434    1.8480   11.8142 H   0  0  0  0  0  0  0  0  0  0  0  0
   34.4312   -5.1539   11.7679 O   0  0  0  0  0  0  0  0  0  0  0  0
   35.1613   -4.1763   11.8934 C   0  0  0  0  0  0  0  0  0  0  0  0
   34.9033   -3.0100   11.2250 N   0  0  0  0  0  0  0  0  0  0  0  0
   35.6409   -1.8576   11.2818 C   0  0  0  0  0  0  0  0  0  0  0  0
   35.2978   -0.8765   10.6251 O   0  0  0  0  0  0  0  0  0  0  0  0
   36.7635   -1.9020   12.0947 N   0  0  0  0  0  0  0  0  0  0  0  0
   37.0909   -3.0408   12.8121 C   0  0  0  0  0  0  0  0  0  0  0  0
   36.3684   -4.1666   12.7611 C   0  0  0  0  0  0  0  0  0  0  0  0
   36.8136   -5.6933   13.7263 Br  0  0  0  0  0  0  0  0  0  0  0  0
   34.1077   -2.9985   10.6452 H   0  0  0  0  0  0  0  0  0  0  0  0
   40.1444    0.9510   12.9937 C   0  0  0  0  0  0  0  0  0  0  0  0
   40.0126    2.3957   13.2450 N   0  0  0  0  0  0  0  0  0  0  0  0
   40.1784    3.1816   12.0105 C   0  0  0  0  0  0  0  0  0  0  0  0
   41.5533    3.8312   11.8750 C   0  0  0  0  0  0  0  0  0  0  0  0
   41.8392    4.7777   13.0396 C   0  0  0  0  0  0  0  0  0  0  0  0
   41.1198    4.3549   14.3192 C   0  0  0  0  0  0  0  0  0  0  0  0
   40.8790    2.8470   14.3479 C   0  0  0  0  0  0  0  0  0  0  0  0
 10 11  2  0
 11 12  1  0
 12 13  1  0
 13 14  2  0
 13 15  1  0
  1 15  1  0
  1  2  1  0
  2  3  1  0
  3 20  1  0
 20 21  1  0
 21 22  1  0
 22 23  1  0
 23 24  1  0
 24 25  1  0
 25 26  1  0
  3  4  1  0
  4  5  1  0
  4  6  1  0
  6  7  1  0
 15 16  1  0
 16 17  2  0
 17 18  1  0
 17 11  1  0
  6  1  1  0
 26 21  1  0
 12 19  1  0
  5  8  1  0
  7  9  1  0
M  END
> <minimizedAffinity>
-5.72818

> <CNNscore>
0.8112999797

> <CNNaffinity>
4.0446076393

> <CNN_VS>
3.2813901901

> <CNNaffinity_variance>
0.5133797526

$$$$



 26 28  0  0  0  0  0  0  0  0999 V2000
   37.3901   -1.0527   12.0185 C   0  0  0  0  0  0  0  0  0  0  0  0
   38.7048   -1.3485   12.5139 O   0  0  0  0  0  0  0  0  0  0  0  0
   39.1598   -0.1985   13.2609 C   0  0  0  0  0  0  0  0  0  0  0  0
   37.9036    0.4553   13.8385 C   0  0  0  0  0  0  0  0  0  0  0  0
   37.5895   -0.1045   15.1203 O   0  0  0  0  0  0  0  0  0  0  0  0
   36.8053    0.1184   12.8365 C   0  0  0  0  0  0  0  0  0  0  0  0
   36.5410    1.2330   11.9715 O   0  0  0  0  0  0  0  0  0  0  0  0
   37.4722   -1.0636   15.0343 H   0  0  0  0  0  0  0  0  0  0  0  0
   37.3571    1.4871   11.5130 H   0  0  0  0  0  0  0  0  0  0  0  0
   34.4017   -5.6439   12.1610 O   0  0  0  0  0  0  0  0  0  0  0  0
   35.0976   -4.6338   12.1438 C   0  0  0  0  0  0  0  0  0  0  0  0
   34.6753   -3.4943   11.5140 N   0  0  0  0  0  0  0  0  0  0  0  0
   35.3587   -2.3109   11.4254 C   0  0  0  0  0  0  0  0  0  0  0  0
   34.8631   -1.3596   10.8247 O   0  0  0  0  0  0  0  0  0  0  0  0
   36.6059   -2.2903   12.0313 N   0  0  0  0  0  0  0  0  0  0  0  0
   37.1037   -3.3984   12.6968 C   0  0  0  0  0  0  0  0  0  0  0  0
   36.4350   -4.5545   12.7881 C   0  0  0  0  0  0  0  0  0  0  0  0
   37.1092   -6.0398   13.6826 Br  0  0  0  0  0  0  0  0  0  0  0  0
   33.7917   -3.5289   11.0814 H   0  0  0  0  0  0  0  0  0  0  0  0
   39.9555    0.7236   12.3044 C   0  0  0  0  0  0  0  0  0  0  0  0
   41.3256    0.2833   11.9931 N   0  0  0  0  0  0  0  0  0  0  0  0
   41.4277   -0.2567   10.6266 C   0  0  0  0  0  0  0  0  0  0  0  0
   41.4521   -1.7821   10.5685 C   0  0  0  0  0  0  0  0  0  0  0  0
   42.6324   -2.3505   11.3545 C   0  0  0  0  0  0  0  0  0  0  0  0
   43.0448   -1.4461   12.5145 C   0  0  0  0  0  0  0  0  0  0  0  0
   41.8633   -0.6226   13.0231 C   0  0  0  0  0  0  0  0  0  0  0  0
 10 11  2  0
 11 12  1  0
 12 13  1  0
 13 14  2  0
 13 15  1  0
  1 15  1  0
  1  2  1  0
  2  3  1  0
  3 20  1  0
 20 21  1  0
 21 22  1  0
 22 23  1  0
 23 24  1  0
 24 25  1  0
 25 26  1  0
  3  4  1  0
  4  5  1  0
  4  6  1  0
  6  7  1  0
 15 16  1  0
 16 17  2  0
 17 18  1  0
 17 11  1  0
  6  1  1  0
 26 21  1  0
 12 19  1  0
  5  8  1  0
  7  9  1  0
M  END
> <minimizedAffinity>
-6.36578

> <CNNscore>
0.8008244634

> <CNNaffinity>
4.2904253006

> <CNN_VS>
3.4358775616

> <CNNaffinity_variance>
0.4583952725

$$$$



 26 28  0  0  0  0  0  0  0  0999 V2000
   38.5665   -1.1562   14.4344 C   0  0  0  0  0  0  0  0  0  0  0  0
   39.2863   -2.2844   14.9544 O   0  0  0  0  0  0  0  0  0  0  0  0
   39.5294   -2.0392   16.3574 C   0  0  0  0  0  0  0  0  0  0  0  0
   38.3646   -1.1761   16.8445 C   0  0  0  0  0  0  0  0  0  0  0  0
   37.2830   -2.0006   17.2978 O   0  0  0  0  0  0  0  0  0  0  0  0
   37.9387   -0.3836   15.6139 C   0  0  0  0  0  0  0  0  0  0  0  0
   38.4642    0.9515   15.6569 O   0  0  0  0  0  0  0  0  0  0  0  0
   37.0015   -2.5885   16.5794 H   0  0  0  0  0  0  0  0  0  0  0  0
   39.4312    0.9164   15.7242 H   0  0  0  0  0  0  0  0  0  0  0  0
   34.9706   -2.8922   10.6813 O   0  0  0  0  0  0  0  0  0  0  0  0
   35.7686   -2.5325   11.5406 C   0  0  0  0  0  0  0  0  0  0  0  0
   36.5764   -1.4449   11.3453 N   0  0  0  0  0  0  0  0  0  0  0  0
   37.5027   -0.9492   12.2238 C   0  0  0  0  0  0  0  0  0  0  0  0
   38.1680    0.0392   11.9208 O   0  0  0  0  0  0  0  0  0  0  0  0
   37.6265   -1.6398   13.4198 N   0  0  0  0  0  0  0  0  0  0  0  0
   36.8408   -2.7458   13.6997 C   0  0  0  0  0  0  0  0  0  0  0  0
   35.9318   -3.2288   12.8439 C   0  0  0  0  0  0  0  0  0  0  0  0
   34.8800   -4.7152   13.2250 Br  0  0  0  0  0  0  0  0  0  0  0  0
   36.4820   -0.9716   10.4872 H   0  0  0  0  0  0  0  0  0  0  0  0
   40.9114   -1.3558   16.5031 C   0  0  0  0  0  0  0  0  0  0  0  0
   41.9201   -2.1195   17.2563 N   0  0  0  0  0  0  0  0  0  0  0  0
   43.2544   -2.0155   16.6413 C   0  0  0  0  0  0  0  0  0  0  0  0
   43.6523   -3.2424   15.8245 C   0  0  0  0  0  0  0  0  0  0  0  0
   43.6628   -4.5047   16.6849 C   0  0  0  0  0  0  0  0  0  0  0  0
   42.6668   -4.4258   17.8406 C   0  0  0  0  0  0  0  0  0  0  0  0
   41.4940   -3.5085   17.5006 C   0  0  0  0  0  0  0  0  0  0  0  0
 10 11  2  0
 11 12  1  0
 12 13  1  0
 13 14  2  0
 13 15  1  0
  1 15  1  0
  1  2  1  0
  2  3  1  0
  3 20  1  0
 20 21  1  0
 21 22  1  0
 22 23  1  0
 23 24  1  0
 24 25  1  0
 25 26  1  0
  3  4  1  0
  4  5  1  0
  4  6  1  0
  6  7  1  0
 15 16  1  0
 16 17  2  0
 17 18  1  0
 17 11  1  0
  6  1  1  0
 26 21  1  0
 12 19  1  0
  5  8  1  0
  7  9  1  0
M  END
> <minimizedAffinity>
-5.32225

> <CNNscore>
0.7534782887

> <CNNaffinity>
4.2915029526

> <CNN_VS>
3.2335543633

> <CNNaffinity_variance>
0.2885251343

$$$$



 26 28  0  0  0  0  0  0  0  0999 V2000
   38.0951   -0.1709   14.0149 C   0  0  0  0  0  0  0  0  0  0  0  0
   37.8705   -0.6391   15.3534 O   0  0  0  0  0  0  0  0  0  0  0  0
   37.9244    0.5063   16.2324 C   0  0  0  0  0  0  0  0  0  0  0  0
   37.4431    1.6986   15.4041 C   0  0  0  0  0  0  0  0  0  0  0  0
   36.0198    1.8382   15.5037 O   0  0  0  0  0  0  0  0  0  0  0  0
   37.8362    1.3503   13.9731 C   0  0  0  0  0  0  0  0  0  0  0  0
   39.0360    2.0385   13.5891 O   0  0  0  0  0  0  0  0  0  0  0  0
   35.5931    1.0181   15.2102 H   0  0  0  0  0  0  0  0  0  0  0  0
   39.7499    1.8121   14.2055 H   0  0  0  0  0  0  0  0  0  0  0  0
   34.9543   -3.1387   10.6449 O   0  0  0  0  0  0  0  0  0  0  0  0
   35.6585   -2.5019   11.4215 C   0  0  0  0  0  0  0  0  0  0  0  0
   36.1570   -1.2737   11.0800 N   0  0  0  0  0  0  0  0  0  0  0  0
   36.9511   -0.4718   11.8557 C   0  0  0  0  0  0  0  0  0  0  0  0
   37.3340    0.6140   11.4245 O   0  0  0  0  0  0  0  0  0  0  0  0
   37.2807   -0.9789   13.1036 N   0  0  0  0  0  0  0  0  0  0  0  0
   36.8107   -2.2103   13.5296 C   0  0  0  0  0  0  0  0  0  0  0  0
   36.0307   -2.9933   12.7743 C   0  0  0  0  0  0  0  0  0  0  0  0
   35.4032   -4.6467   13.3517 Br  0  0  0  0  0  0  0  0  0  0  0  0
   35.9209   -0.9325   10.1872 H   0  0  0  0  0  0  0  0  0  0  0  0
   39.3753    0.6572   16.7523 C   0  0  0  0  0  0  0  0  0  0  0  0
   39.5059    1.1569   18.1312 N   0  0  0  0  0  0  0  0  0  0  0  0
   38.4154    0.6706   18.9933 C   0  0  0  0  0  0  0  0  0  0  0  0
   37.3226    1.7063   19.2460 C   0  0  0  0  0  0  0  0  0  0  0  0
   37.8863    2.9584   19.9156 C   0  0  0  0  0  0  0  0  0  0  0  0
   39.3485    3.2035   19.5472 C   0  0  0  0  0  0  0  0  0  0  0  0
   39.6805    2.6192   18.1757 C   0  0  0  0  0  0  0  0  0  0  0  0
 10 11  2  0
 11 12  1  0
 12 13  1  0
 13 14  2  0
 13 15  1  0
  1 15  1  0
  1  2  1  0
  2  3  1  0
  3 20  1  0
 20 21  1  0
 21 22  1  0
 22 23  1  0
 23 24  1  0
 24 25  1  0
 25 26  1  0
  3  4  1  0
  4  5  1  0
  4  6  1  0
  6  7  1  0
 15 16  1  0
 16 17  2  0
 17 18  1  0
 17 11  1  0
  6  1  1  0
 26 21  1  0
 12 19  1  0
  5  8  1  0
  7  9  1  0
M  END
> <minimizedAffinity>
-6.66404

> <CNNscore>
0.7449001670

> <CNNaffinity>
4.8517613411

> <CNN_VS>
3.6140778065

> <CNNaffinity_variance>
0.1720111370

$$$$



 26 28  0  0  0  0  0  0  0  0999 V2000
   38.5079   -0.9615   14.3855 C   0  0  0  0  0  0  0  0  0  0  0  0
   38.7775   -1.9917   15.3484 O   0  0  0  0  0  0  0  0  0  0  0  0
   38.9333   -1.3564   16.6367 C   0  0  0  0  0  0  0  0  0  0  0  0
   38.0524   -0.1066   16.6018 C   0  0  0  0  0  0  0  0  0  0  0  0
   36.7248   -0.4144   17.0466 O   0  0  0  0  0  0  0  0  0  0  0  0
   38.0312    0.3019   15.1333 C   0  0  0  0  0  0  0  0  0  0  0  0
   38.9408    1.3851   14.8892 O   0  0  0  0  0  0  0  0  0  0  0  0
   36.3521   -1.1163   16.4904 H   0  0  0  0  0  0  0  0  0  0  0  0
   39.8350    1.1236   15.1593 H   0  0  0  0  0  0  0  0  0  0  0  0
   34.9487   -2.8964   10.6953 O   0  0  0  0  0  0  0  0  0  0  0  0
   35.7396   -2.4920   11.5412 C   0  0  0  0  0  0  0  0  0  0  0  0
   36.5089   -1.3823   11.3174 N   0  0  0  0  0  0  0  0  0  0  0  0
   37.4235   -0.8372   12.1787 C   0  0  0  0  0  0  0  0  0  0  0  0
   38.0531    0.1665   11.8504 O   0  0  0  0  0  0  0  0  0  0  0  0
   37.5783   -1.4978   13.3880 N   0  0  0  0  0  0  0  0  0  0  0  0
   36.8322   -2.6234   13.6966 C   0  0  0  0  0  0  0  0  0  0  0  0
   35.9346   -3.1548   12.8575 C   0  0  0  0  0  0  0  0  0  0  0  0
   34.9361   -4.6673   13.2772 Br  0  0  0  0  0  0  0  0  0  0  0  0
   36.3931   -0.9306   10.4503 H   0  0  0  0  0  0  0  0  0  0  0  0
   40.4358   -1.0508   16.8540 C   0  0  0  0  0  0  0  0  0  0  0  0
   41.1320   -1.9355   17.8030 N   0  0  0  0  0  0  0  0  0  0  0  0
   40.2022   -2.5269   18.7801 C   0  0  0  0  0  0  0  0  0  0  0  0
   40.2356   -1.8504   20.1483 C   0  0  0  0  0  0  0  0  0  0  0  0
   41.6292   -1.9206   20.7703 C   0  0  0  0  0  0  0  0  0  0  0  0
   42.7327   -1.9647   19.7148 C   0  0  0  0  0  0  0  0  0  0  0  0
   42.2938   -1.2759   18.4242 C   0  0  0  0  0  0  0  0  0  0  0  0
 10 11  2  0
 11 12  1  0
 12 13  1  0
 13 14  2  0
 13 15  1  0
  1 15  1  0
  1  2  1  0
  2  3  1  0
  3 20  1  0
 20 21  1  0
 21 22  1  0
 22 23  1  0
 23 24  1  0
 24 25  1  0
 25 26  1  0
  3  4  1  0
  4  5  1  0
  4  6  1  0
  6  7  1  0
 15 16  1  0
 16 17  2  0
 17 18  1  0
 17 11  1  0
  6  1  1  0
 26 21  1  0
 12 19  1  0
  5  8  1  0
  7  9  1  0
M  END
> <minimizedAffinity>
-6.13819

> <CNNscore>
0.7350037694

> <CNNaffinity>
4.4532890320

> <CNN_VS>
3.2731842995

> <CNNaffinity_variance>
0.1872560233

$$$$



 26 28  0  0  0  0  0  0  0  0999 V2000
   36.3799   -3.9451   13.6940 C   0  0  0  0  0  0  0  0  0  0  0  0
   36.7902   -3.0716   12.6310 O   0  0  0  0  0  0  0  0  0  0  0  0
   38.1610   -2.6904   12.8825 C   0  0  0  0  0  0  0  0  0  0  0  0
   38.7964   -3.8638   13.6300 C   0  0  0  0  0  0  0  0  0  0  0  0
   39.3530   -4.8071   12.7050 O   0  0  0  0  0  0  0  0  0  0  0  0
   37.6397   -4.4988   14.3932 C   0  0  0  0  0  0  0  0  0  0  0  0
   37.6505   -4.0939   15.7704 O   0  0  0  0  0  0  0  0  0  0  0  0
   38.6593   -5.1160   12.1016 H   0  0  0  0  0  0  0  0  0  0  0  0
   37.6059   -3.1264   15.8233 H   0  0  0  0  0  0  0  0  0  0  0  0
   32.8883   -7.6526   11.6710 O   0  0  0  0  0  0  0  0  0  0  0  0
   33.6812   -6.8469   12.1470 C   0  0  0  0  0  0  0  0  0  0  0  0
   33.8806   -5.6232   11.5671 N   0  0  0  0  0  0  0  0  0  0  0  0
   34.7346   -4.6447   12.0014 C   0  0  0  0  0  0  0  0  0  0  0  0
   34.8200   -3.5859   11.3825 O   0  0  0  0  0  0  0  0  0  0  0  0
   35.4697   -4.9492   13.1371 N   0  0  0  0  0  0  0  0  0  0  0  0
   35.3214   -6.1621   13.7895 C   0  0  0  0  0  0  0  0  0  0  0  0
   34.4837   -7.1178   13.3688 C   0  0  0  0  0  0  0  0  0  0  0  0
   34.2896   -8.7453   14.2487 Br  0  0  0  0  0  0  0  0  0  0  0  0
   33.3575   -5.4268   10.7565 H   0  0  0  0  0  0  0  0  0  0  0  0
   38.1620   -1.3678   13.6881 C   0  0  0  0  0  0  0  0  0  0  0  0
   38.0396   -0.1380   12.8879 N   0  0  0  0  0  0  0  0  0  0  0  0
   39.1823    0.0350   11.9750 C   0  0  0  0  0  0  0  0  0  0  0  0
   40.2150    1.0459   12.4671 C   0  0  0  0  0  0  0  0  0  0  0  0
   39.5935    2.4282   12.6590 C   0  0  0  0  0  0  0  0  0  0  0  0
   38.1090    2.3516   13.0113 C   0  0  0  0  0  0  0  0  0  0  0  0
   37.7754    1.0441   13.7267 C   0  0  0  0  0  0  0  0  0  0  0  0
 10 11  2  0
 11 12  1  0
 12 13  1  0
 13 14  2  0
 13 15  1  0
  1 15  1  0
  1  2  1  0
  2  3  1  0
  3 20  1  0
 20 21  1  0
 21 22  1  0
 22 23  1  0
 23 24  1  0
 24 25  1  0
 25 26  1  0
  3  4  1  0
  4  5  1  0
  4  6  1  0
  6  7  1  0
 15 16  1  0
 16 17  2  0
 17 18  1  0
 17 11  1  0
  6  1  1  0
 26 21  1  0
 12 19  1  0
  5  8  1  0
  7  9  1  0
M  END
> <minimizedAffinity>
-6.70471

> <CNNscore>
0.5835818648

> <CNNaffinity>
4.6558833122

> <CNN_VS>
2.7170891762

> <CNNaffinity_variance>
0.0553301089

$$$$



 26 28  0  0  0  0  0  0  0  0999 V2000
   38.0465    0.1410   13.4835 C   0  0  0  0  0  0  0  0  0  0  0  0
   37.2231    0.7485   14.4906 O   0  0  0  0  0  0  0  0  0  0  0  0
   37.5822    2.1460   14.5648 C   0  0  0  0  0  0  0  0  0  0  0  0
   38.0492    2.5383   13.1622 C   0  0  0  0  0  0  0  0  0  0  0  0
   36.9415    2.9871   12.3706 O   0  0  0  0  0  0  0  0  0  0  0  0
   38.6222    1.2516   12.5792 C   0  0  0  0  0  0  0  0  0  0  0  0
   40.0556    1.2480   12.6554 O   0  0  0  0  0  0  0  0  0  0  0  0
   36.2697    2.2886   12.3290 H   0  0  0  0  0  0  0  0  0  0  0  0
   40.3306    1.3580   13.5791 H   0  0  0  0  0  0  0  0  0  0  0  0
   34.9904   -3.6617   10.9877 O   0  0  0  0  0  0  0  0  0  0  0  0
   35.6852   -2.8351   11.5694 C   0  0  0  0  0  0  0  0  0  0  0  0
   35.8563   -1.5741   11.0653 N   0  0  0  0  0  0  0  0  0  0  0  0
   36.6046   -0.5695   11.6187 C   0  0  0  0  0  0  0  0  0  0  0  0
   36.6763    0.5223   11.0581 O   0  0  0  0  0  0  0  0  0  0  0  0
   37.2547   -0.8862   12.8018 N   0  0  0  0  0  0  0  0  0  0  0  0
   37.1274   -2.1371   13.3832 C   0  0  0  0  0  0  0  0  0  0  0  0
   36.3927   -3.1186   12.8458 C   0  0  0  0  0  0  0  0  0  0  0  0
   36.2261   -4.7970   13.6308 Br  0  0  0  0  0  0  0  0  0  0  0  0
   35.3952   -1.3687   10.2200 H   0  0  0  0  0  0  0  0  0  0  0  0
   38.6723    2.3148   15.6517 C   0  0  0  0  0  0  0  0  0  0  0  0
   39.7772    3.2245   15.3056 N   0  0  0  0  0  0  0  0  0  0  0  0
   41.0856    2.6600   15.6778 C   0  0  0  0  0  0  0  0  0  0  0  0
   41.6632    3.2431   16.9650 C   0  0  0  0  0  0  0  0  0  0  0  0
   41.8527    4.7551   16.8555 C   0  0  0  0  0  0  0  0  0  0  0  0
   40.8490    5.3965   15.8989 C   0  0  0  0  0  0  0  0  0  0  0  0
   39.5569    4.5855   15.8250 C   0  0  0  0  0  0  0  0  0  0  0  0
 10 11  2  0
 11 12  1  0
 12 13  1  0
 13 14  2  0
 13 15  1  0
  1 15  1  0
  1  2  1  0
  2  3  1  0
  3 20  1  0
 20 21  1  0
 21 22  1  0
 22 23  1  0
 23 24  1  0
 24 25  1  0
 25 26  1  0
  3  4  1  0
  4  5  1  0
  4  6  1  0
  6  7  1  0
 15 16  1  0
 16 17  2  0
 17 18  1  0
 17 11  1  0
  6  1  1  0
 26 21  1  0
 12 19  1  0
  5  8  1  0
  7  9  1  0
M  END
> <minimizedAffinity>
-5.50565

> <CNNscore>
0.5620352030

> <CNNaffinity>
4.2306118011

> <CNN_VS>
2.3777527809

> <CNNaffinity_variance>
0.3255404234

$$$$



 26 28  0  0  0  0  0  0  0  0999 V2000
   36.8917   -4.1185   13.8902 C   0  0  0  0  0  0  0  0  0  0  0  0
   36.3903   -2.7961   14.1377 O   0  0  0  0  0  0  0  0  0  0  0  0
   37.4747   -1.8681   13.9132 C   0  0  0  0  0  0  0  0  0  0  0  0
   38.3675   -2.5093   12.8497 C   0  0  0  0  0  0  0  0  0  0  0  0
   37.9327   -2.1351   11.5359 O   0  0  0  0  0  0  0  0  0  0  0  0
   38.1848   -4.0088   13.0545 C   0  0  0  0  0  0  0  0  0  0  0  0
   39.2872   -4.5642   13.7872 O   0  0  0  0  0  0  0  0  0  0  0  0
   37.0068   -2.3977   11.4148 H   0  0  0  0  0  0  0  0  0  0  0  0
   39.3706   -4.1094   14.6399 H   0  0  0  0  0  0  0  0  0  0  0  0
   32.7894   -7.0376   11.7269 O   0  0  0  0  0  0  0  0  0  0  0  0
   33.7166   -6.4123   12.2308 C   0  0  0  0  0  0  0  0  0  0  0  0
   34.0618   -5.1688   11.7747 N   0  0  0  0  0  0  0  0  0  0  0  0
   35.0725   -4.3772   12.2516 C   0  0  0  0  0  0  0  0  0  0  0  0
   35.2788   -3.2752   11.7470 O   0  0  0  0  0  0  0  0  0  0  0  0
   35.8151   -4.9129   13.2929 N   0  0  0  0  0  0  0  0  0  0  0  0
   35.5258   -6.1615   13.8184 C   0  0  0  0  0  0  0  0  0  0  0  0
   34.5354   -6.9345   13.3563 C   0  0  0  0  0  0  0  0  0  0  0  0
   34.1522   -8.6111   14.0655 Br  0  0  0  0  0  0  0  0  0  0  0  0
   33.5303   -4.8072   11.0291 H   0  0  0  0  0  0  0  0  0  0  0  0
   38.1953   -1.6208   15.2615 C   0  0  0  0  0  0  0  0  0  0  0  0
   38.5865   -0.2260   15.5248 N   0  0  0  0  0  0  0  0  0  0  0  0
   38.3658    0.1460   16.9327 C   0  0  0  0  0  0  0  0  0  0  0  0
   37.1044    0.9755   17.1591 C   0  0  0  0  0  0  0  0  0  0  0  0
   37.1441    2.2782   16.3620 C   0  0  0  0  0  0  0  0  0  0  0  0
   37.9688    2.1490   15.0826 C   0  0  0  0  0  0  0  0  0  0  0  0
   37.9728    0.7111   14.5679 C   0  0  0  0  0  0  0  0  0  0  0  0
 10 11  2  0
 11 12  1  0
 12 13  1  0
 13 14  2  0
 13 15  1  0
  1 15  1  0
  1  2  1  0
  2  3  1  0
  3 20  1  0
 20 21  1  0
 21 22  1  0
 22 23  1  0
 23 24  1  0
 24 25  1  0
 25 26  1  0
  3  4  1  0
  4  5  1  0
  4  6  1  0
  6  7  1  0
 15 16  1  0
 16 17  2  0
 17 18  1  0
 17 11  1  0
  6  1  1  0
 26 21  1  0
 12 19  1  0
  5  8  1  0
  7  9  1  0
M  END
> <minimizedAffinity>
-6.51552

> <CNNscore>
0.5573891401

> <CNNaffinity>
4.5391755104

> <CNN_VS>
2.5300872326

> <CNNaffinity_variance>
0.0417401977

$$$$



 26 28  0  0  0  0  0  0  0  0999 V2000
   35.5615   -7.9599   13.5293 C   0  0  0  0  0  0  0  0  0  0  0  0
   35.7243   -8.8612   12.4236 O   0  0  0  0  0  0  0  0  0  0  0  0
   35.1065  -10.1156   12.7873 C   0  0  0  0  0  0  0  0  0  0  0  0
   33.9650   -9.7643   13.7426 C   0  0  0  0  0  0  0  0  0  0  0  0
   32.7564   -9.5169   13.0124 O   0  0  0  0  0  0  0  0  0  0  0  0
   34.4289   -8.4881   14.4353 C   0  0  0  0  0  0  0  0  0  0  0  0
   34.9447   -8.7736   15.7440 O   0  0  0  0  0  0  0  0  0  0  0  0
   32.9052   -8.8025   12.3733 H   0  0  0  0  0  0  0  0  0  0  0  0
   35.6739   -9.4092   15.6726 H   0  0  0  0  0  0  0  0  0  0  0  0
   34.9272   -2.9280   11.4538 O   0  0  0  0  0  0  0  0  0  0  0  0
   35.0886   -4.0405   11.9446 C   0  0  0  0  0  0  0  0  0  0  0  0
   34.4217   -5.1322   11.4577 N   0  0  0  0  0  0  0  0  0  0  0  0
   34.5163   -6.4180   11.9194 C   0  0  0  0  0  0  0  0  0  0  0  0
   33.8563   -7.3100   11.3901 O   0  0  0  0  0  0  0  0  0  0  0  0
   35.3699   -6.6089   12.9954 N   0  0  0  0  0  0  0  0  0  0  0  0
   36.0886   -5.5585   13.5422 C   0  0  0  0  0  0  0  0  0  0  0  0
   36.0005   -4.3019   13.0892 C   0  0  0  0  0  0  0  0  0  0  0  0
   36.9677   -2.8951   13.8282 Br  0  0  0  0  0  0  0  0  0  0  0  0
   33.8130   -4.9775   10.6996 H   0  0  0  0  0  0  0  0  0  0  0  0
   36.1861  -11.0284   13.4195 C   0  0  0  0  0  0  0  0  0  0  0  0
   36.7266  -10.5707   14.7103 N   0  0  0  0  0  0  0  0  0  0  0  0
   38.1212  -10.1136   14.5865 C   0  0  0  0  0  0  0  0  0  0  0  0
   39.1478  -11.1311   15.0776 C   0  0  0  0  0  0  0  0  0  0  0  0
   38.9285  -11.4776   16.5493 C   0  0  0  0  0  0  0  0  0  0  0  0
   37.4644  -11.3424   16.9638 C   0  0  0  0  0  0  0  0  0  0  0  0
   36.5290  -11.5670   15.7776 C   0  0  0  0  0  0  0  0  0  0  0  0
 10 11  2  0
 11 12  1  0
 12 13  1  0
 13 14  2  0
 13 15  1  0
  1 15  1  0
  1  2  1  0
  2  3  1  0
  3 20  1  0
 20 21  1  0
 21 22  1  0
 22 23  1  0
 23 24  1  0
 24 25  1  0
 25 26  1  0
  3  4  1  0
  4  5  1  0
  4  6  1  0
  6  7  1  0
 15 16  1  0
 16 17  2  0
 17 18  1  0
 17 11  1  0
  6  1  1  0
 26 21  1  0
 12 19  1  0
  5  8  1  0
  7  9  1  0
M  END
> <minimizedAffinity>
-5.61407

> <CNNscore>
0.5520433784

> <CNNaffinity>
4.4512171745

> <CNN_VS>
2.4572649002

> <CNNaffinity_variance>
0.1329046041

$$$$
