


 37 39  0  0  0  0  0  0  0  0999 V2000
   11.7331   53.9304   92.6623 C   0  0  0  0  0  0  0  0  0  0  0  0
   10.5174   53.7148   92.5407 O   0  0  0  0  0  0  0  0  0  0  0  0
   12.4750   54.2062   91.5349 N   0  0  0  0  0  0  0  0  0  0  0  0
   13.9121   54.4016   91.4017 C   0  0  0  0  0  0  0  0  0  0  0  0
   14.1639   54.7079   89.9191 C   0  0  0  0  0  0  0  0  0  0  0  0
   15.1007   55.7607   89.7481 O   0  0  0  0  0  0  0  0  0  0  0  0
   12.7952   55.1412   89.4056 C   0  0  0  0  0  0  0  0  0  0  0  0
   11.8347   54.2798   90.2152 C   0  0  0  0  0  0  0  0  0  0  0  0
   14.7794   56.5561   90.2009 H   0  0  0  0  0  0  0  0  0  0  0  0
   11.6579   52.8648   89.6133 C   0  0  0  0  0  0  0  0  0  0  0  0
   12.1956   51.8646   90.0830 O   0  0  0  0  0  0  0  0  0  0  0  0
   10.8535   52.8382   88.4999 N   0  0  0  0  0  0  0  0  0  0  0  0
   10.4834   53.6903   88.1741 H   0  0  0  0  0  0  0  0  0  0  0  0
   10.5207   51.6342   87.7818 C   0  0  0  0  0  0  0  0  0  0  0  0
   11.3564   51.5131   86.5341 C   0  0  0  0  0  0  0  0  0  0  0  0
   11.4806   50.2823   85.8758 C   0  0  0  0  0  0  0  0  0  0  0  0
   12.2418   50.1752   84.7085 C   0  0  0  0  0  0  0  0  0  0  0  0
   12.8944   51.2952   84.1771 C   0  0  0  0  0  0  0  0  0  0  0  0
   12.7624   52.5263   84.8318 C   0  0  0  0  0  0  0  0  0  0  0  0
   11.9970   52.6357   85.9963 C   0  0  0  0  0  0  0  0  0  0  0  0
   13.6864   51.1944   82.9509 C   0  0  0  0  0  0  0  0  0  0  0  0
   13.1437   50.2076   81.6457 S   0  0  0  0  0  0  0  0  0  0  0  0
   14.5370   50.6268   80.7788 C   0  0  0  0  0  0  0  0  0  0  0  0
   14.7942   49.9912   79.2063 Cl  0  0  0  0  0  0  0  0  0  0  0  0
   15.3890   51.4355   81.3555 N   0  0  0  0  0  0  0  0  0  0  0  0
   14.9050   51.7753   82.6129 C   0  0  0  0  0  0  0  0  0  0  0  0
   15.7146   52.7088   83.4427 C   0  0  0  0  0  0  0  0  0  0  0  0
   12.3450   54.0216   94.0957 C   0  0  0  0  0  0  0  0  0  0  0  0
   10.5817   57.0255   95.6211 C   0  0  0  0  0  0  0  0  0  0  0  0
   10.7305   55.7107   94.9042 C   0  0  0  0  0  0  0  0  0  0  0  0
    9.7671   55.1024   94.4530 O   0  0  0  0  0  0  0  0  0  0  0  0
   12.0251   55.2560   94.8138 N   0  0  0  0  0  0  0  0  0  0  0  0
   12.7492   55.7697   95.2393 H   0  0  0  0  0  0  0  0  0  0  0  0
   12.0757   52.7426   94.9636 C   0  0  0  0  0  0  0  0  0  0  0  0
   13.2333   51.7309   94.9172 C   0  0  0  0  0  0  0  0  0  0  0  0
   10.7929   52.0388   94.4628 C   0  0  0  0  0  0  0  0  0  0  0  0
   11.8355   53.1294   96.4393 C   0  0  0  0  0  0  0  0  0  0  0  0
 29 30  1  0
 30 31  2  0
 30 32  1  0
 28 32  1  0
 28  1  1  0
  1  2  2  0
  1  3  1  0
  3  4  1  0
  4  5  1  0
  5  6  1  0
  5  7  1  0
  7  8  1  0
  8 10  1  0
 10 11  2  0
 10 12  1  0
 12 14  1  0
 14 15  1  0
 15 16  2  0
 16 17  1  0
 17 18  2  0
 18 21  1  0
 21 22  1  0
 22 23  1  0
 23 24  1  0
 23 25  2  0
 25 26  1  0
 26 27  1  0
 18 19  1  0
 19 20  2  0
 28 34  1  0
 34 35  1  0
 34 36  1  0
 34 37  1  0
  8  3  1  0
 20 15  1  0
 26 21  2  0
 32 33  1  0
  6  9  1  0
 12 13  1  0
M  END
> <minimizedAffinity>
-9.51280

> <CNNscore>
0.9049413204

> <CNNaffinity>
6.8570156097

> <CNN_VS>
6.2051968575

> <CNNaffinity_variance>
0.3981095254

$$$$



 37 39  0  0  0  0  0  0  0  0999 V2000
   11.7484   53.6622   92.5928 C   0  0  0  0  0  0  0  0  0  0  0  0
   10.5375   53.4664   92.4069 O   0  0  0  0  0  0  0  0  0  0  0  0
   12.5179   54.1102   91.5419 N   0  0  0  0  0  0  0  0  0  0  0  0
   13.9570   54.3259   91.4790 C   0  0  0  0  0  0  0  0  0  0  0  0
   14.2458   54.8584   90.0689 C   0  0  0  0  0  0  0  0  0  0  0  0
   15.1810   55.9263   90.0880 O   0  0  0  0  0  0  0  0  0  0  0  0
   12.8886   55.3642   89.5923 C   0  0  0  0  0  0  0  0  0  0  0  0
   11.9120   54.3866   90.2329 C   0  0  0  0  0  0  0  0  0  0  0  0
   14.8436   56.6416   90.6497 H   0  0  0  0  0  0  0  0  0  0  0  0
   11.7588   53.0816   89.4147 C   0  0  0  0  0  0  0  0  0  0  0  0
   12.4788   52.8010   88.4593 O   0  0  0  0  0  0  0  0  0  0  0  0
   10.7353   52.2762   89.8521 N   0  0  0  0  0  0  0  0  0  0  0  0
   10.1893   52.5892   90.6092 H   0  0  0  0  0  0  0  0  0  0  0  0
   10.4154   50.9994   89.2659 C   0  0  0  0  0  0  0  0  0  0  0  0
    9.1162   51.0752   88.5070 C   0  0  0  0  0  0  0  0  0  0  0  0
    7.8912   51.0610   89.1874 C   0  0  0  0  0  0  0  0  0  0  0  0
    6.6871   51.1492   88.4833 C   0  0  0  0  0  0  0  0  0  0  0  0
    6.6835   51.2523   87.0862 C   0  0  0  0  0  0  0  0  0  0  0  0
    7.9089   51.2747   86.4085 C   0  0  0  0  0  0  0  0  0  0  0  0
    9.1140   51.1919   87.1120 C   0  0  0  0  0  0  0  0  0  0  0  0
    5.4281   51.3539   86.3414 C   0  0  0  0  0  0  0  0  0  0  0  0
    4.9476   52.8587   85.6512 S   0  0  0  0  0  0  0  0  0  0  0  0
    3.5329   52.1209   85.0830 C   0  0  0  0  0  0  0  0  0  0  0  0
    2.3834   53.0354   84.1969 Cl  0  0  0  0  0  0  0  0  0  0  0  0
    3.3620   50.8514   85.3508 N   0  0  0  0  0  0  0  0  0  0  0  0
    4.4558   50.3943   86.0758 C   0  0  0  0  0  0  0  0  0  0  0  0
    4.4780   48.9604   86.4743 C   0  0  0  0  0  0  0  0  0  0  0  0
   12.3221   53.5310   94.0389 C   0  0  0  0  0  0  0  0  0  0  0  0
   10.5896   55.9394   96.4175 C   0  0  0  0  0  0  0  0  0  0  0  0
   11.4500   55.4920   95.2667 C   0  0  0  0  0  0  0  0  0  0  0  0
   12.0547   56.2879   94.5579 O   0  0  0  0  0  0  0  0  0  0  0  0
   11.4853   54.1301   95.0794 N   0  0  0  0  0  0  0  0  0  0  0  0
   10.9383   53.5482   95.6550 H   0  0  0  0  0  0  0  0  0  0  0  0
   12.7604   52.0681   94.3980 C   0  0  0  0  0  0  0  0  0  0  0  0
   13.4491   51.3436   93.2290 C   0  0  0  0  0  0  0  0  0  0  0  0
   11.5202   51.2453   94.8184 C   0  0  0  0  0  0  0  0  0  0  0  0
   13.7316   52.0723   95.5987 C   0  0  0  0  0  0  0  0  0  0  0  0
 29 30  1  0
 30 31  2  0
 30 32  1  0
 28 32  1  0
 28  1  1  0
  1  2  2  0
  1  3  1  0
  3  4  1  0
  4  5  1  0
  5  6  1  0
  5  7  1  0
  7  8  1  0
  8 10  1  0
 10 11  2  0
 10 12  1  0
 12 14  1  0
 14 15  1  0
 15 16  2  0
 16 17  1  0
 17 18  2  0
 18 21  1  0
 21 22  1  0
 22 23  1  0
 23 24  1  0
 23 25  2  0
 25 26  1  0
 26 27  1  0
 18 19  1  0
 19 20  2  0
 28 34  1  0
 34 35  1  0
 34 36  1  0
 34 37  1  0
  8  3  1  0
 20 15  1  0
 26 21  2  0
 32 33  1  0
  6  9  1  0
 12 13  1  0
M  END
> <minimizedAffinity>
-6.88180

> <CNNscore>
0.6496862173

> <CNNaffinity>
6.1848883629

> <CNN_VS>
4.0182366371

> <CNNaffinity_variance>
0.1791871786

$$$$



 37 39  0  0  0  0  0  0  0  0999 V2000
   11.8354   53.8361   92.9710 C   0  0  0  0  0  0  0  0  0  0  0  0
   10.6595   53.4471   92.8991 O   0  0  0  0  0  0  0  0  0  0  0  0
   12.5312   54.0669   91.8048 N   0  0  0  0  0  0  0  0  0  0  0  0
   13.9288   54.4342   91.6222 C   0  0  0  0  0  0  0  0  0  0  0  0
   14.1343   54.5858   90.1089 C   0  0  0  0  0  0  0  0  0  0  0  0
   14.9206   55.7249   89.7933 O   0  0  0  0  0  0  0  0  0  0  0  0
   12.7187   54.7660   89.5717 C   0  0  0  0  0  0  0  0  0  0  0  0
   11.8844   53.8910   90.4981 C   0  0  0  0  0  0  0  0  0  0  0  0
   14.4960   56.5201   90.1514 H   0  0  0  0  0  0  0  0  0  0  0  0
   11.8985   52.4016   90.0770 C   0  0  0  0  0  0  0  0  0  0  0  0
   12.4619   51.5258   90.7293 O   0  0  0  0  0  0  0  0  0  0  0  0
   11.2319   52.1572   88.9007 N   0  0  0  0  0  0  0  0  0  0  0  0
   10.8305   52.9213   88.4272 H   0  0  0  0  0  0  0  0  0  0  0  0
   11.0870   50.8462   88.3207 C   0  0  0  0  0  0  0  0  0  0  0  0
   11.1089   50.9268   86.8165 C   0  0  0  0  0  0  0  0  0  0  0  0
   11.5522   52.0890   86.1711 C   0  0  0  0  0  0  0  0  0  0  0  0
   11.5887   52.1562   84.7756 C   0  0  0  0  0  0  0  0  0  0  0  0
   11.1821   51.0642   83.9979 C   0  0  0  0  0  0  0  0  0  0  0  0
   10.7472   49.9005   84.6446 C   0  0  0  0  0  0  0  0  0  0  0  0
   10.7153   49.8303   86.0403 C   0  0  0  0  0  0  0  0  0  0  0  0
   11.2250   51.1223   82.5364 C   0  0  0  0  0  0  0  0  0  0  0  0
    9.8147   51.5522   81.6431 S   0  0  0  0  0  0  0  0  0  0  0  0
   10.6897   51.3493   80.2071 C   0  0  0  0  0  0  0  0  0  0  0  0
    9.9277   51.6108   78.6926 Cl  0  0  0  0  0  0  0  0  0  0  0  0
   11.9433   50.9875   80.3074 N   0  0  0  0  0  0  0  0  0  0  0  0
   12.2667   50.8572   81.6526 C   0  0  0  0  0  0  0  0  0  0  0  0
   13.6605   50.4670   81.9998 C   0  0  0  0  0  0  0  0  0  0  0  0
   12.4322   54.1844   94.3710 C   0  0  0  0  0  0  0  0  0  0  0  0
   10.6589   57.3914   95.3860 C   0  0  0  0  0  0  0  0  0  0  0  0
   10.8106   55.9625   94.9388 C   0  0  0  0  0  0  0  0  0  0  0  0
    9.8437   55.2519   94.6900 O   0  0  0  0  0  0  0  0  0  0  0  0
   12.1130   55.5307   94.8478 N   0  0  0  0  0  0  0  0  0  0  0  0
   12.8433   56.1376   95.1079 H   0  0  0  0  0  0  0  0  0  0  0  0
   12.1445   53.0867   95.4543 C   0  0  0  0  0  0  0  0  0  0  0  0
   11.7142   53.6771   96.8078 C   0  0  0  0  0  0  0  0  0  0  0  0
   13.4154   52.2340   95.6764 C   0  0  0  0  0  0  0  0  0  0  0  0
   11.0326   52.1288   94.9736 C   0  0  0  0  0  0  0  0  0  0  0  0
 29 30  1  0
 30 31  2  0
 30 32  1  0
 28 32  1  0
 28  1  1  0
  1  2  2  0
  1  3  1  0
  3  4  1  0
  4  5  1  0
  5  6  1  0
  5  7  1  0
  7  8  1  0
  8 10  1  0
 10 11  2  0
 10 12  1  0
 12 14  1  0
 14 15  1  0
 15 16  2  0
 16 17  1  0
 17 18  2  0
 18 21  1  0
 21 22  1  0
 22 23  1  0
 23 24  1  0
 23 25  2  0
 25 26  1  0
 26 27  1  0
 18 19  1  0
 19 20  2  0
 28 34  1  0
 34 35  1  0
 34 36  1  0
 34 37  1  0
  8  3  1  0
 20 15  1  0
 26 21  2  0
 32 33  1  0
  6  9  1  0
 12 13  1  0
M  END
> <minimizedAffinity>
-8.80540

> <CNNscore>
0.6274671555

> <CNNaffinity>
6.0794372559

> <CNN_VS>
3.8146471977

> <CNNaffinity_variance>
0.7087340355

$$$$



 37 39  0  0  0  0  0  0  0  0999 V2000
   11.8628   53.2205   92.6676 C   0  0  0  0  0  0  0  0  0  0  0  0
   10.6682   52.9139   92.5325 O   0  0  0  0  0  0  0  0  0  0  0  0
   12.5277   53.7872   91.6027 N   0  0  0  0  0  0  0  0  0  0  0  0
   13.9337   54.1468   91.4791 C   0  0  0  0  0  0  0  0  0  0  0  0
   14.0933   54.7653   90.0837 C   0  0  0  0  0  0  0  0  0  0  0  0
   14.9206   55.9188   90.1078 O   0  0  0  0  0  0  0  0  0  0  0  0
   12.6698   55.1542   89.6996 C   0  0  0  0  0  0  0  0  0  0  0  0
   11.8283   54.0581   90.3400 C   0  0  0  0  0  0  0  0  0  0  0  0
   14.5464   56.5723   90.7191 H   0  0  0  0  0  0  0  0  0  0  0  0
   11.7580   52.7807   89.4687 C   0  0  0  0  0  0  0  0  0  0  0  0
   12.4731   52.5994   88.4859 O   0  0  0  0  0  0  0  0  0  0  0  0
   10.8133   51.8778   89.8930 N   0  0  0  0  0  0  0  0  0  0  0  0
   10.2640   52.1137   90.6752 H   0  0  0  0  0  0  0  0  0  0  0  0
   10.5808   50.6053   89.2584 C   0  0  0  0  0  0  0  0  0  0  0  0
   11.3977   49.5261   89.9199 C   0  0  0  0  0  0  0  0  0  0  0  0
   11.1248   49.1312   91.2365 C   0  0  0  0  0  0  0  0  0  0  0  0
   11.8720   48.1176   91.8430 C   0  0  0  0  0  0  0  0  0  0  0  0
   12.9066   47.4797   91.1464 C   0  0  0  0  0  0  0  0  0  0  0  0
   13.1725   47.8699   89.8278 C   0  0  0  0  0  0  0  0  0  0  0  0
   12.4224   48.8799   89.2184 C   0  0  0  0  0  0  0  0  0  0  0  0
   13.6883   46.4116   91.7702 C   0  0  0  0  0  0  0  0  0  0  0  0
   13.6943   46.2280   93.4842 S   0  0  0  0  0  0  0  0  0  0  0  0
   14.7617   44.9234   93.3184 C   0  0  0  0  0  0  0  0  0  0  0  0
   15.3234   44.0908   94.7091 Cl  0  0  0  0  0  0  0  0  0  0  0  0
   15.1314   44.5932   92.1072 N   0  0  0  0  0  0  0  0  0  0  0  0
   14.5124   45.4455   91.2008 C   0  0  0  0  0  0  0  0  0  0  0  0
   14.7804   45.2358   89.7518 C   0  0  0  0  0  0  0  0  0  0  0  0
   12.5235   53.0848   94.0756 C   0  0  0  0  0  0  0  0  0  0  0  0
   10.8673   55.5126   96.4886 C   0  0  0  0  0  0  0  0  0  0  0  0
   11.6345   55.0541   95.2778 C   0  0  0  0  0  0  0  0  0  0  0  0
   12.0972   55.8434   94.4627 O   0  0  0  0  0  0  0  0  0  0  0  0
   11.7563   53.6889   95.1657 N   0  0  0  0  0  0  0  0  0  0  0  0
   11.3200   53.1080   95.8301 H   0  0  0  0  0  0  0  0  0  0  0  0
   12.9734   51.6188   94.4069 C   0  0  0  0  0  0  0  0  0  0  0  0
   11.7918   50.6822   94.7104 C   0  0  0  0  0  0  0  0  0  0  0  0
   13.9132   51.6316   95.6351 C   0  0  0  0  0  0  0  0  0  0  0  0
   13.7720   51.0176   93.2298 C   0  0  0  0  0  0  0  0  0  0  0  0
 29 30  1  0
 30 31  2  0
 30 32  1  0
 28 32  1  0
 28  1  1  0
  1  2  2  0
  1  3  1  0
  3  4  1  0
  4  5  1  0
  5  6  1  0
  5  7  1  0
  7  8  1  0
  8 10  1  0
 10 11  2  0
 10 12  1  0
 12 14  1  0
 14 15  1  0
 15 16  2  0
 16 17  1  0
 17 18  2  0
 18 21  1  0
 21 22  1  0
 22 23  1  0
 23 24  1  0
 23 25  2  0
 25 26  1  0
 26 27  1  0
 18 19  1  0
 19 20  2  0
 28 34  1  0
 34 35  1  0
 34 36  1  0
 34 37  1  0
  8  3  1  0
 20 15  1  0
 26 21  2  0
 32 33  1  0
  6  9  1  0
 12 13  1  0
M  END
> <minimizedAffinity>
-5.86786

> <CNNscore>
0.5300948620

> <CNNaffinity>
5.5332202911

> <CNN_VS>
2.9331316948

> <CNNaffinity_variance>
0.5666758418

$$$$



 37 39  0  0  0  0  0  0  0  0999 V2000
   11.3358   52.9365   92.0503 C   0  0  0  0  0  0  0  0  0  0  0  0
   10.1491   52.7932   91.7181 O   0  0  0  0  0  0  0  0  0  0  0  0
   12.1959   53.5738   91.1835 N   0  0  0  0  0  0  0  0  0  0  0  0
   13.6328   53.7831   91.2977 C   0  0  0  0  0  0  0  0  0  0  0  0
   14.0470   54.5783   90.0523 C   0  0  0  0  0  0  0  0  0  0  0  0
   14.9675   55.6124   90.3668 O   0  0  0  0  0  0  0  0  0  0  0  0
   12.7358   55.1813   89.5601 C   0  0  0  0  0  0  0  0  0  0  0  0
   11.7120   54.1071   89.9035 C   0  0  0  0  0  0  0  0  0  0  0  0
   14.5734   56.2072   91.0239 H   0  0  0  0  0  0  0  0  0  0  0  0
   11.6463   52.9892   88.8350 C   0  0  0  0  0  0  0  0  0  0  0  0
   12.5011   52.8428   87.9644 O   0  0  0  0  0  0  0  0  0  0  0  0
   10.5369   52.1866   88.9474 N   0  0  0  0  0  0  0  0  0  0  0  0
    9.8871   52.3898   89.6586 H   0  0  0  0  0  0  0  0  0  0  0  0
   10.2703   51.0644   88.0839 C   0  0  0  0  0  0  0  0  0  0  0  0
   11.2434   49.9461   88.3524 C   0  0  0  0  0  0  0  0  0  0  0  0
   11.7814   49.7612   89.6331 C   0  0  0  0  0  0  0  0  0  0  0  0
   12.6705   48.7127   89.8851 C   0  0  0  0  0  0  0  0  0  0  0  0
   13.0398   47.8292   88.8625 C   0  0  0  0  0  0  0  0  0  0  0  0
   12.4947   48.0105   87.5852 C   0  0  0  0  0  0  0  0  0  0  0  0
   11.6014   49.0557   87.3332 C   0  0  0  0  0  0  0  0  0  0  0  0
   13.9632   46.7235   89.1190 C   0  0  0  0  0  0  0  0  0  0  0  0
   13.7238   45.6903   90.4781 S   0  0  0  0  0  0  0  0  0  0  0  0
   15.1177   44.8322   90.0430 C   0  0  0  0  0  0  0  0  0  0  0  0
   15.6367   43.4994   90.9901 Cl  0  0  0  0  0  0  0  0  0  0  0  0
   15.7659   45.2293   88.9778 N   0  0  0  0  0  0  0  0  0  0  0  0
   15.1041   46.3218   88.4308 C   0  0  0  0  0  0  0  0  0  0  0  0
   15.6642   46.9276   87.1919 C   0  0  0  0  0  0  0  0  0  0  0  0
   11.7736   52.5191   93.4896 C   0  0  0  0  0  0  0  0  0  0  0  0
   14.4212   49.7929   93.6210 C   0  0  0  0  0  0  0  0  0  0  0  0
   13.0525   50.4030   93.4831 C   0  0  0  0  0  0  0  0  0  0  0  0
   12.0488   49.7199   93.3165 O   0  0  0  0  0  0  0  0  0  0  0  0
   13.0333   51.7765   93.5483 N   0  0  0  0  0  0  0  0  0  0  0  0
   13.8815   52.2686   93.6360 H   0  0  0  0  0  0  0  0  0  0  0  0
   11.7356   53.7065   94.5143 C   0  0  0  0  0  0  0  0  0  0  0  0
   12.8687   54.7236   94.2971 C   0  0  0  0  0  0  0  0  0  0  0  0
   11.8483   53.1512   95.9533 C   0  0  0  0  0  0  0  0  0  0  0  0
   10.3906   54.4598   94.4217 C   0  0  0  0  0  0  0  0  0  0  0  0
 29 30  1  0
 30 31  2  0
 30 32  1  0
 28 32  1  0
 28  1  1  0
  1  2  2  0
  1  3  1  0
  3  4  1  0
  4  5  1  0
  5  6  1  0
  5  7  1  0
  7  8  1  0
  8 10  1  0
 10 11  2  0
 10 12  1  0
 12 14  1  0
 14 15  1  0
 15 16  2  0
 16 17  1  0
 17 18  2  0
 18 21  1  0
 21 22  1  0
 22 23  1  0
 23 24  1  0
 23 25  2  0
 25 26  1  0
 26 27  1  0
 18 19  1  0
 19 20  2  0
 28 34  1  0
 34 35  1  0
 34 36  1  0
 34 37  1  0
  8  3  1  0
 20 15  1  0
 26 21  2  0
 32 33  1  0
  6  9  1  0
 12 13  1  0
M  END
> <minimizedAffinity>
-6.45107

> <CNNscore>
0.4307385683

> <CNNaffinity>
5.5769896507

> <CNN_VS>
2.4022245407

> <CNNaffinity_variance>
0.4670414627

$$$$



 37 39  0  0  0  0  0  0  0  0999 V2000
    9.7348   52.3066   84.9494 C   0  0  0  0  0  0  0  0  0  0  0  0
   10.4661   53.3033   84.8445 O   0  0  0  0  0  0  0  0  0  0  0  0
    9.1583   52.0311   86.1696 N   0  0  0  0  0  0  0  0  0  0  0  0
    8.3467   50.8896   86.5694 C   0  0  0  0  0  0  0  0  0  0  0  0
    7.9596   51.1353   88.0340 C   0  0  0  0  0  0  0  0  0  0  0  0
    6.6006   50.8093   88.2838 O   0  0  0  0  0  0  0  0  0  0  0  0
    8.1766   52.6337   88.2151 C   0  0  0  0  0  0  0  0  0  0  0  0
    9.3747   52.9193   87.3191 C   0  0  0  0  0  0  0  0  0  0  0  0
    6.0300   51.3311   87.6982 H   0  0  0  0  0  0  0  0  0  0  0  0
   10.7214   52.5990   88.0118 C   0  0  0  0  0  0  0  0  0  0  0  0
   11.2668   51.5001   87.9413 O   0  0  0  0  0  0  0  0  0  0  0  0
   11.2397   53.6561   88.7201 N   0  0  0  0  0  0  0  0  0  0  0  0
   10.7244   54.4946   88.7462 H   0  0  0  0  0  0  0  0  0  0  0  0
   12.4943   53.6073   89.4268 C   0  0  0  0  0  0  0  0  0  0  0  0
   12.2749   53.7720   90.9082 C   0  0  0  0  0  0  0  0  0  0  0  0
   13.2882   54.2898   91.7259 C   0  0  0  0  0  0  0  0  0  0  0  0
   13.0772   54.4586   93.0971 C   0  0  0  0  0  0  0  0  0  0  0  0
   11.8504   54.1124   93.6781 C   0  0  0  0  0  0  0  0  0  0  0  0
   10.8358   53.6027   92.8580 C   0  0  0  0  0  0  0  0  0  0  0  0
   11.0439   53.4384   91.4855 C   0  0  0  0  0  0  0  0  0  0  0  0
   11.6174   54.2936   95.1112 C   0  0  0  0  0  0  0  0  0  0  0  0
   11.8833   52.9885   96.2057 S   0  0  0  0  0  0  0  0  0  0  0  0
   11.3870   53.9863   97.4811 C   0  0  0  0  0  0  0  0  0  0  0  0
   11.3550   53.3786   99.0850 Cl  0  0  0  0  0  0  0  0  0  0  0  0
   11.0333   55.2120   97.1892 N   0  0  0  0  0  0  0  0  0  0  0  0
   11.1668   55.4037   95.8194 C   0  0  0  0  0  0  0  0  0  0  0  0
   10.8321   56.7447   95.2672 C   0  0  0  0  0  0  0  0  0  0  0  0
    9.3831   51.4888   83.6668 C   0  0  0  0  0  0  0  0  0  0  0  0
    7.0172   53.6191   81.5876 C   0  0  0  0  0  0  0  0  0  0  0  0
    7.5547   52.9106   82.8016 C   0  0  0  0  0  0  0  0  0  0  0  0
    6.9644   52.9196   83.8754 O   0  0  0  0  0  0  0  0  0  0  0  0
    8.7561   52.2721   82.6015 N   0  0  0  0  0  0  0  0  0  0  0  0
    9.2020   52.3432   81.7267 H   0  0  0  0  0  0  0  0  0  0  0  0
   10.5803   50.6218   83.1409 C   0  0  0  0  0  0  0  0  0  0  0  0
   10.3498   49.1112   83.3157 C   0  0  0  0  0  0  0  0  0  0  0  0
   11.8712   51.0089   83.8994 C   0  0  0  0  0  0  0  0  0  0  0  0
   10.8329   50.8983   81.6427 C   0  0  0  0  0  0  0  0  0  0  0  0
 29 30  1  0
 30 31  2  0
 30 32  1  0
 28 32  1  0
 28  1  1  0
  1  2  2  0
  1  3  1  0
  3  4  1  0
  4  5  1  0
  5  6  1  0
  5  7  1  0
  7  8  1  0
  8 10  1  0
 10 11  2  0
 10 12  1  0
 12 14  1  0
 14 15  1  0
 15 16  2  0
 16 17  1  0
 17 18  2  0
 18 21  1  0
 21 22  1  0
 22 23  1  0
 23 24  1  0
 23 25  2  0
 25 26  1  0
 26 27  1  0
 18 19  1  0
 19 20  2  0
 28 34  1  0
 34 35  1  0
 34 36  1  0
 34 37  1  0
  8  3  1  0
 20 15  1  0
 26 21  2  0
 32 33  1  0
  6  9  1  0
 12 13  1  0
M  END
> <minimizedAffinity>
-8.01370

> <CNNscore>
0.4003037214

> <CNNaffinity>
6.4817700386

> <CNN_VS>
2.5946767330

> <CNNaffinity_variance>
0.0123158293

$$$$



 37 39  0  0  0  0  0  0  0  0999 V2000
   11.6546   51.9305   91.3335 C   0  0  0  0  0  0  0  0  0  0  0  0
   12.4057   51.0463   90.8939 O   0  0  0  0  0  0  0  0  0  0  0  0
   10.8885   52.6532   90.4457 N   0  0  0  0  0  0  0  0  0  0  0  0
   10.0097   53.7873   90.6965 C   0  0  0  0  0  0  0  0  0  0  0  0
    9.3982   54.1597   89.3391 C   0  0  0  0  0  0  0  0  0  0  0  0
    8.0129   54.4515   89.4450 O   0  0  0  0  0  0  0  0  0  0  0  0
    9.6024   52.9043   88.4980 C   0  0  0  0  0  0  0  0  0  0  0  0
   10.9309   52.3605   89.0071 C   0  0  0  0  0  0  0  0  0  0  0  0
    7.5489   53.6860   89.8186 H   0  0  0  0  0  0  0  0  0  0  0  0
   12.1465   53.0520   88.3439 C   0  0  0  0  0  0  0  0  0  0  0  0
   13.0638   53.5569   88.9872 O   0  0  0  0  0  0  0  0  0  0  0  0
   12.0943   53.0564   86.9710 N   0  0  0  0  0  0  0  0  0  0  0  0
   11.3094   52.6526   86.5350 H   0  0  0  0  0  0  0  0  0  0  0  0
   13.1229   53.6183   86.1330 C   0  0  0  0  0  0  0  0  0  0  0  0
   13.2845   52.8053   84.8750 C   0  0  0  0  0  0  0  0  0  0  0  0
   12.2736   51.9292   84.4575 C   0  0  0  0  0  0  0  0  0  0  0  0
   12.4172   51.1886   83.2809 C   0  0  0  0  0  0  0  0  0  0  0  0
   13.5737   51.3083   82.4993 C   0  0  0  0  0  0  0  0  0  0  0  0
   14.5794   52.1905   82.9138 C   0  0  0  0  0  0  0  0  0  0  0  0
   14.4346   52.9356   84.0876 C   0  0  0  0  0  0  0  0  0  0  0  0
   13.7291   50.5435   81.2616 C   0  0  0  0  0  0  0  0  0  0  0  0
   12.6828   49.2155   80.9246 S   0  0  0  0  0  0  0  0  0  0  0  0
   13.5226   48.9499   79.4779 C   0  0  0  0  0  0  0  0  0  0  0  0
   13.0593   47.6658   78.4390 Cl  0  0  0  0  0  0  0  0  0  0  0  0
   14.5207   49.7497   79.2010 N   0  0  0  0  0  0  0  0  0  0  0  0
   14.6475   50.6805   80.2250 C   0  0  0  0  0  0  0  0  0  0  0  0
   15.7186   51.7071   80.1052 C   0  0  0  0  0  0  0  0  0  0  0  0
   11.5007   52.0923   92.8787 C   0  0  0  0  0  0  0  0  0  0  0  0
   11.6694   55.4853   94.5870 C   0  0  0  0  0  0  0  0  0  0  0  0
   12.1089   54.1048   94.1800 C   0  0  0  0  0  0  0  0  0  0  0  0
   13.1565   53.6105   94.5801 O   0  0  0  0  0  0  0  0  0  0  0  0
   11.2464   53.4636   93.3221 N   0  0  0  0  0  0  0  0  0  0  0  0
   10.4442   53.9351   93.0006 H   0  0  0  0  0  0  0  0  0  0  0  0
   10.4933   51.0677   93.5086 C   0  0  0  0  0  0  0  0  0  0  0  0
   11.1681   49.7600   93.9561 C   0  0  0  0  0  0  0  0  0  0  0  0
    9.3952   50.7211   92.4762 C   0  0  0  0  0  0  0  0  0  0  0  0
    9.7860   51.6863   94.7342 C   0  0  0  0  0  0  0  0  0  0  0  0
 29 30  1  0
 30 31  2  0
 30 32  1  0
 28 32  1  0
 28  1  1  0
  1  2  2  0
  1  3  1  0
  3  4  1  0
  4  5  1  0
  5  6  1  0
  5  7  1  0
  7  8  1  0
  8 10  1  0
 10 11  2  0
 10 12  1  0
 12 14  1  0
 14 15  1  0
 15 16  2  0
 16 17  1  0
 17 18  2  0
 18 21  1  0
 21 22  1  0
 22 23  1  0
 23 24  1  0
 23 25  2  0
 25 26  1  0
 26 27  1  0
 18 19  1  0
 19 20  2  0
 28 34  1  0
 34 35  1  0
 34 36  1  0
 34 37  1  0
  8  3  1  0
 20 15  1  0
 26 21  2  0
 32 33  1  0
  6  9  1  0
 12 13  1  0
M  END
> <minimizedAffinity>
-8.36013

> <CNNscore>
0.3573259711

> <CNNaffinity>
6.1945571899

> <CNN_VS>
2.2134761810

> <CNNaffinity_variance>
0.2782127857

$$$$



 37 39  0  0  0  0  0  0  0  0999 V2000
   10.4463   51.4407   85.2028 C   0  0  0  0  0  0  0  0  0  0  0  0
   11.2663   52.3225   84.9038 O   0  0  0  0  0  0  0  0  0  0  0  0
    9.7764   51.5358   86.4026 N   0  0  0  0  0  0  0  0  0  0  0  0
    8.8466   50.5977   87.0164 C   0  0  0  0  0  0  0  0  0  0  0  0
    8.3956   51.2457   88.3325 C   0  0  0  0  0  0  0  0  0  0  0  0
    7.0011   51.0903   88.5481 O   0  0  0  0  0  0  0  0  0  0  0  0
    8.7306   52.7206   88.1385 C   0  0  0  0  0  0  0  0  0  0  0  0
   10.0002   52.6781   87.2982 C   0  0  0  0  0  0  0  0  0  0  0  0
    6.5138   51.4774   87.8041 H   0  0  0  0  0  0  0  0  0  0  0  0
   11.2704   52.4603   88.1555 C   0  0  0  0  0  0  0  0  0  0  0  0
   11.8084   51.3637   88.2900 O   0  0  0  0  0  0  0  0  0  0  0  0
   11.7290   53.6063   88.7587 N   0  0  0  0  0  0  0  0  0  0  0  0
   11.2225   54.4389   88.6193 H   0  0  0  0  0  0  0  0  0  0  0  0
   12.9091   53.6591   89.5838 C   0  0  0  0  0  0  0  0  0  0  0  0
   12.5368   53.8705   91.0282 C   0  0  0  0  0  0  0  0  0  0  0  0
   11.2621   53.5220   91.4944 C   0  0  0  0  0  0  0  0  0  0  0  0
   10.9239   53.7023   92.8385 C   0  0  0  0  0  0  0  0  0  0  0  0
   11.8522   54.2350   93.7424 C   0  0  0  0  0  0  0  0  0  0  0  0
   13.1284   54.5751   93.2765 C   0  0  0  0  0  0  0  0  0  0  0  0
   13.4695   54.3903   91.9336 C   0  0  0  0  0  0  0  0  0  0  0  0
   11.5099   54.4192   95.1531 C   0  0  0  0  0  0  0  0  0  0  0  0
   11.5177   53.0740   96.2310 S   0  0  0  0  0  0  0  0  0  0  0  0
   11.0258   54.1029   97.4832 C   0  0  0  0  0  0  0  0  0  0  0  0
   10.7737   53.4771   99.0604 Cl  0  0  0  0  0  0  0  0  0  0  0  0
   10.8472   55.3667   97.1941 N   0  0  0  0  0  0  0  0  0  0  0  0
   11.1291   55.5634   95.8477 C   0  0  0  0  0  0  0  0  0  0  0  0
   11.0070   56.9438   95.3044 C   0  0  0  0  0  0  0  0  0  0  0  0
   10.1021   50.3403   84.1502 C   0  0  0  0  0  0  0  0  0  0  0  0
    9.5780   51.8851   80.7153 C   0  0  0  0  0  0  0  0  0  0  0  0
    9.3165   51.5925   82.1682 C   0  0  0  0  0  0  0  0  0  0  0  0
    8.3569   52.0658   82.7653 O   0  0  0  0  0  0  0  0  0  0  0  0
   10.2455   50.7676   82.7579 N   0  0  0  0  0  0  0  0  0  0  0  0
   11.0201   50.4592   82.2344 H   0  0  0  0  0  0  0  0  0  0  0  0
   10.8206   48.9738   84.4293 C   0  0  0  0  0  0  0  0  0  0  0  0
   11.4538   48.3600   83.1692 C   0  0  0  0  0  0  0  0  0  0  0  0
    9.8020   47.9624   85.0051 C   0  0  0  0  0  0  0  0  0  0  0  0
   11.9320   49.1516   85.4867 C   0  0  0  0  0  0  0  0  0  0  0  0
 29 30  1  0
 30 31  2  0
 30 32  1  0
 28 32  1  0
 28  1  1  0
  1  2  2  0
  1  3  1  0
  3  4  1  0
  4  5  1  0
  5  6  1  0
  5  7  1  0
  7  8  1  0
  8 10  1  0
 10 11  2  0
 10 12  1  0
 12 14  1  0
 14 15  1  0
 15 16  2  0
 16 17  1  0
 17 18  2  0
 18 21  1  0
 21 22  1  0
 22 23  1  0
 23 24  1  0
 23 25  2  0
 25 26  1  0
 26 27  1  0
 18 19  1  0
 19 20  2  0
 28 34  1  0
 34 35  1  0
 34 36  1  0
 34 37  1  0
  8  3  1  0
 20 15  1  0
 26 21  2  0
 32 33  1  0
  6  9  1  0
 12 13  1  0
M  END
> <minimizedAffinity>
-7.46054

> <CNNscore>
0.2554219961

> <CNNaffinity>
6.1988558769

> <CNN_VS>
1.5833241940

> <CNNaffinity_variance>
0.0513883941

$$$$



 37 39  0  0  0  0  0  0  0  0999 V2000
   10.4137   53.4865   93.2759 C   0  0  0  0  0  0  0  0  0  0  0  0
    9.1995   53.4482   93.0240 O   0  0  0  0  0  0  0  0  0  0  0  0
   11.3059   53.5891   92.2316 N   0  0  0  0  0  0  0  0  0  0  0  0
   12.7620   53.5611   92.2566 C   0  0  0  0  0  0  0  0  0  0  0  0
   13.2158   53.7481   90.8025 C   0  0  0  0  0  0  0  0  0  0  0  0
   14.3163   54.6393   90.7023 O   0  0  0  0  0  0  0  0  0  0  0  0
   11.9932   54.3528   90.1209 C   0  0  0  0  0  0  0  0  0  0  0  0
   10.8303   53.6878   90.8456 C   0  0  0  0  0  0  0  0  0  0  0  0
   14.0743   55.4964   91.0867 H   0  0  0  0  0  0  0  0  0  0  0  0
   10.5037   52.2852   90.2783 C   0  0  0  0  0  0  0  0  0  0  0  0
   10.3069   51.3033   90.9904 O   0  0  0  0  0  0  0  0  0  0  0  0
   10.4669   52.2430   88.9055 N   0  0  0  0  0  0  0  0  0  0  0  0
   10.6627   53.0710   88.4102 H   0  0  0  0  0  0  0  0  0  0  0  0
   10.1583   51.0559   88.1495 C   0  0  0  0  0  0  0  0  0  0  0  0
   10.9558   51.0190   86.8719 C   0  0  0  0  0  0  0  0  0  0  0  0
   11.3712   49.7971   86.3257 C   0  0  0  0  0  0  0  0  0  0  0  0
   12.0958   49.7633   85.1311 C   0  0  0  0  0  0  0  0  0  0  0  0
   12.4202   50.9492   84.4596 C   0  0  0  0  0  0  0  0  0  0  0  0
   11.9971   52.1690   85.0025 C   0  0  0  0  0  0  0  0  0  0  0  0
   11.2678   52.2037   86.1945 C   0  0  0  0  0  0  0  0  0  0  0  0
   13.1710   50.9230   83.2039 C   0  0  0  0  0  0  0  0  0  0  0  0
   12.6913   49.8681   81.9277 S   0  0  0  0  0  0  0  0  0  0  0  0
   13.9955   50.4289   81.0039 C   0  0  0  0  0  0  0  0  0  0  0  0
   14.2610   49.8084   79.4269 Cl  0  0  0  0  0  0  0  0  0  0  0  0
   14.7741   51.3331   81.5413 N   0  0  0  0  0  0  0  0  0  0  0  0
   14.3040   51.6311   82.8145 C   0  0  0  0  0  0  0  0  0  0  0  0
   15.0364   52.6573   83.6056 C   0  0  0  0  0  0  0  0  0  0  0  0
   10.8746   53.5608   94.7658 C   0  0  0  0  0  0  0  0  0  0  0  0
   13.7874   51.4838   96.0547 C   0  0  0  0  0  0  0  0  0  0  0  0
   12.3574   51.9062   95.8507 C   0  0  0  0  0  0  0  0  0  0  0  0
   11.4224   51.3166   96.3797 O   0  0  0  0  0  0  0  0  0  0  0  0
   12.1981   52.9903   95.0198 N   0  0  0  0  0  0  0  0  0  0  0  0
   12.9880   53.3894   94.5884 H   0  0  0  0  0  0  0  0  0  0  0  0
   10.7143   54.9911   95.3902 C   0  0  0  0  0  0  0  0  0  0  0  0
   11.0476   55.0317   96.8911 C   0  0  0  0  0  0  0  0  0  0  0  0
    9.2585   55.4776   95.2008 C   0  0  0  0  0  0  0  0  0  0  0  0
   11.6296   56.0037   94.6679 C   0  0  0  0  0  0  0  0  0  0  0  0
 29 30  1  0
 30 31  2  0
 30 32  1  0
 28 32  1  0
 28  1  1  0
  1  2  2  0
  1  3  1  0
  3  4  1  0
  4  5  1  0
  5  6  1  0
  5  7  1  0
  7  8  1  0
  8 10  1  0
 10 11  2  0
 10 12  1  0
 12 14  1  0
 14 15  1  0
 15 16  2  0
 16 17  1  0
 17 18  2  0
 18 21  1  0
 21 22  1  0
 22 23  1  0
 23 24  1  0
 23 25  2  0
 25 26  1  0
 26 27  1  0
 18 19  1  0
 19 20  2  0
 28 34  1  0
 34 35  1  0
 34 36  1  0
 34 37  1  0
  8  3  1  0
 20 15  1  0
 26 21  2  0
 32 33  1  0
  6  9  1  0
 12 13  1  0
M  END
> <minimizedAffinity>
-7.83081

> <CNNscore>
0.2544681430

> <CNNaffinity>
5.7450065613

> <CNN_VS>
1.4619210958

> <CNNaffinity_variance>
0.6787366867

$$$$
