


 43 47  0  0  0  0  0  0  0  0999 V2000
  -51.3470  -11.6343  -24.3085 C   0  0  0  0  0  0  0  0  0  0  0  0
  -49.7440   -9.3111  -24.2981 O   0  0  0  0  0  0  0  0  0  0  0  0
  -49.6614  -10.1142  -23.3793 C   0  0  0  0  0  0  0  0  0  0  0  0
  -50.2970  -11.3312  -23.3395 N   0  0  0  0  0  0  0  0  0  0  0  0
  -50.0456  -11.9973  -22.6596 H   0  0  0  0  0  0  0  0  0  0  0  0
  -48.9202   -9.7849  -22.1434 C   0  0  0  0  0  0  0  0  0  0  0  0
  -48.4598  -10.7576  -21.3424 C   0  0  0  0  0  0  0  0  0  0  0  0
  -47.8418  -10.4764  -20.0419 C   0  0  0  0  0  0  0  0  0  0  0  0
  -46.4360  -10.4068  -20.0147 C   0  0  0  0  0  0  0  0  0  0  0  0
  -45.7578  -10.1439  -18.8277 C   0  0  0  0  0  0  0  0  0  0  0  0
  -44.0403  -10.0588  -18.8202 Cl  0  0  0  0  0  0  0  0  0  0  0  0
  -46.4638   -9.9513  -17.6474 C   0  0  0  0  0  0  0  0  0  0  0  0
  -47.8607  -10.0212  -17.6505 C   0  0  0  0  0  0  0  0  0  0  0  0
  -48.5701  -10.2832  -18.8414 C   0  0  0  0  0  0  0  0  0  0  0  0
  -49.9969  -10.3354  -18.7923 N   0  0  0  0  0  0  0  0  0  0  0  0
  -50.8099  -11.2182  -18.1169 C   0  0  0  0  0  0  0  0  0  0  0  0
  -52.0693  -10.9286  -18.3491 N   0  0  0  0  0  0  0  0  0  0  0  0
  -52.0527   -9.8453  -19.1794 N   0  0  0  0  0  0  0  0  0  0  0  0
  -50.8107   -9.4777  -19.4530 N   0  0  0  0  0  0  0  0  0  0  0  0
  -52.3994  -10.4997  -24.2408 C   0  0  0  0  0  0  0  0  0  0  0  0
  -53.0051  -10.2587  -23.1988 O   0  0  0  0  0  0  0  0  0  0  0  0
  -52.6007   -9.8752  -25.4618 N   0  0  0  0  0  0  0  0  0  0  0  0
  -52.0377  -10.1886  -26.2062 H   0  0  0  0  0  0  0  0  0  0  0  0
  -53.5130   -8.8468  -25.7663 C   0  0  0  0  0  0  0  0  0  0  0  0
  -54.3682   -8.2561  -24.8399 C   0  0  0  0  0  0  0  0  0  0  0  0
  -55.2407   -7.2310  -25.2304 C   0  0  0  0  0  0  0  0  0  0  0  0
  -55.2855   -6.7865  -26.5573 C   0  0  0  0  0  0  0  0  0  0  0  0
  -54.4235   -7.3815  -27.4864 C   0  0  0  0  0  0  0  0  0  0  0  0
  -53.5443   -8.3981  -27.0919 C   0  0  0  0  0  0  0  0  0  0  0  0
  -56.2047   -5.7188  -26.9299 C   0  0  0  0  0  0  0  0  0  0  0  0
  -56.9551   -4.9804  -26.1333 N   0  0  0  0  0  0  0  0  0  0  0  0
  -57.6446   -4.1076  -26.9377 N   0  0  0  0  0  0  0  0  0  0  0  0
  -57.3509   -4.3092  -28.2124 N   0  0  0  0  0  0  0  0  0  0  0  0
  -56.4622   -5.3095  -28.2095 N   0  0  0  0  0  0  0  0  0  0  0  0
  -56.0509   -5.6968  -29.0157 H   0  0  0  0  0  0  0  0  0  0  0  0
  -51.9975  -12.9879  -23.9845 C   0  0  0  0  0  0  0  0  0  0  0  0
  -51.6455  -13.5081  -22.6092 C   0  0  0  0  0  0  0  0  0  0  0  0
  -50.4792  -14.2604  -22.4110 C   0  0  0  0  0  0  0  0  0  0  0  0
  -50.1802  -14.7812  -21.1505 C   0  0  0  0  0  0  0  0  0  0  0  0
  -51.0462  -14.5487  -20.0831 C   0  0  0  0  0  0  0  0  0  0  0  0
  -50.6519  -15.2653  -18.3786 Br  0  0  0  0  0  0  0  0  0  0  0  0
  -52.2034  -13.7954  -20.2627 C   0  0  0  0  0  0  0  0  0  0  0  0
  -52.5011  -13.2745  -21.5229 C   0  0  0  0  0  0  0  0  0  0  0  0
  2  3  2  0
  3  6  1  0
  6  7  2  0
  7  8  1  0
  8  9  2  0
  9 10  1  0
 10 11  1  0
 10 12  2  0
 12 13  1  0
 13 14  2  0
 14 15  1  0
 15 16  1  0
 16 17  2  0
 17 18  1  0
 18 19  2  0
  3  4  1  0
  4  1  1  0
  1 36  1  0
 36 37  1  0
 37 38  2  0
 38 39  1  0
 39 40  2  0
 40 41  1  0
 40 42  1  0
 42 43  2  0
  1 20  1  0
 20 21  2  0
 20 22  1  0
 22 24  1  0
 24 25  2  0
 25 26  1  0
 26 27  2  0
 27 30  1  0
 30 31  2  0
 31 32  1  0
 32 33  2  0
 33 34  1  0
 27 28  1  0
 28 29  2  0
 14  8  1  0
 19 15  1  0
 43 37  1  0
 29 24  1  0
 34 30  1  0
  4  5  1  0
 22 23  1  0
 34 35  1  0
M  END
> <minimizedAffinity>
-9.89430

> <CNNscore>
0.9492416382

> <CNNaffinity>
8.7538881302

> <CNN_VS>
8.3095550537

> <CNNaffinity_variance>
0.0479359291

$$$$



 43 47  0  0  0  0  0  0  0  0999 V2000
  -51.6964  -12.1025  -23.8041 C   0  0  0  0  0  0  0  0  0  0  0  0
  -50.1267   -9.7784  -24.1230 O   0  0  0  0  0  0  0  0  0  0  0  0
  -49.9461  -10.5100  -23.1596 C   0  0  0  0  0  0  0  0  0  0  0  0
  -50.5609  -11.7232  -22.9676 N   0  0  0  0  0  0  0  0  0  0  0  0
  -50.2370  -12.3354  -22.2679 H   0  0  0  0  0  0  0  0  0  0  0  0
  -49.0922  -10.0859  -22.0299 C   0  0  0  0  0  0  0  0  0  0  0  0
  -48.6476  -10.9810  -21.1350 C   0  0  0  0  0  0  0  0  0  0  0  0
  -47.9151  -10.5856  -19.9270 C   0  0  0  0  0  0  0  0  0  0  0  0
  -46.5116  -10.5413  -20.0280 C   0  0  0  0  0  0  0  0  0  0  0  0
  -45.7291  -10.1763  -18.9359 C   0  0  0  0  0  0  0  0  0  0  0  0
  -44.0167  -10.1246  -19.0847 Cl  0  0  0  0  0  0  0  0  0  0  0  0
  -46.3268   -9.8548  -17.7242 C   0  0  0  0  0  0  0  0  0  0  0  0
  -47.7193   -9.8972  -17.6002 C   0  0  0  0  0  0  0  0  0  0  0  0
  -48.5332  -10.2611  -18.6935 C   0  0  0  0  0  0  0  0  0  0  0  0
  -49.9507  -10.2801  -18.5168 N   0  0  0  0  0  0  0  0  0  0  0  0
  -50.7157  -11.1123  -17.7303 C   0  0  0  0  0  0  0  0  0  0  0  0
  -51.9856  -10.8070  -17.8649 N   0  0  0  0  0  0  0  0  0  0  0  0
  -52.0240   -9.7647  -18.7454 N   0  0  0  0  0  0  0  0  0  0  0  0
  -50.8050   -9.4372  -19.1447 N   0  0  0  0  0  0  0  0  0  0  0  0
  -52.6684  -10.8976  -23.8626 C   0  0  0  0  0  0  0  0  0  0  0  0
  -53.3050  -10.5486  -22.8708 O   0  0  0  0  0  0  0  0  0  0  0  0
  -52.7661  -10.3425  -25.1289 N   0  0  0  0  0  0  0  0  0  0  0  0
  -52.1914  -10.7412  -25.8217 H   0  0  0  0  0  0  0  0  0  0  0  0
  -53.5879   -9.2773  -25.5443 C   0  0  0  0  0  0  0  0  0  0  0  0
  -54.4791   -8.6031  -24.7137 C   0  0  0  0  0  0  0  0  0  0  0  0
  -55.2546   -7.5468  -25.2113 C   0  0  0  0  0  0  0  0  0  0  0  0
  -55.1648   -7.1535  -26.5519 C   0  0  0  0  0  0  0  0  0  0  0  0
  -54.2670   -7.8325  -27.3845 C   0  0  0  0  0  0  0  0  0  0  0  0
  -53.4846   -8.8805  -26.8827 C   0  0  0  0  0  0  0  0  0  0  0  0
  -55.9857   -6.0514  -27.0370 C   0  0  0  0  0  0  0  0  0  0  0  0
  -56.8407   -5.3148  -26.3521 N   0  0  0  0  0  0  0  0  0  0  0  0
  -57.3681   -4.4019  -27.2312 N   0  0  0  0  0  0  0  0  0  0  0  0
  -56.8721   -4.5766  -28.4459 N   0  0  0  0  0  0  0  0  0  0  0  0
  -56.0187   -5.6004  -28.3281 N   0  0  0  0  0  0  0  0  0  0  0  0
  -55.4886   -5.9767  -29.0674 H   0  0  0  0  0  0  0  0  0  0  0  0
  -52.4043  -13.3332  -23.2171 C   0  0  0  0  0  0  0  0  0  0  0  0
  -52.3337  -14.5491  -24.1131 C   0  0  0  0  0  0  0  0  0  0  0  0
  -53.0199  -14.5720  -25.3354 C   0  0  0  0  0  0  0  0  0  0  0  0
  -52.9933  -15.7135  -26.1390 C   0  0  0  0  0  0  0  0  0  0  0  0
  -52.2779  -16.8354  -25.7233 C   0  0  0  0  0  0  0  0  0  0  0  0
  -52.2525  -18.3878  -26.8020 Br  0  0  0  0  0  0  0  0  0  0  0  0
  -51.5838  -16.8240  -24.5163 C   0  0  0  0  0  0  0  0  0  0  0  0
  -51.6102  -15.6822  -23.7139 C   0  0  0  0  0  0  0  0  0  0  0  0
  2  3  2  0
  3  6  1  0
  6  7  2  0
  7  8  1  0
  8  9  2  0
  9 10  1  0
 10 11  1  0
 10 12  2  0
 12 13  1  0
 13 14  2  0
 14 15  1  0
 15 16  1  0
 16 17  2  0
 17 18  1  0
 18 19  2  0
  3  4  1  0
  4  1  1  0
  1 36  1  0
 36 37  1  0
 37 38  2  0
 38 39  1  0
 39 40  2  0
 40 41  1  0
 40 42  1  0
 42 43  2  0
  1 20  1  0
 20 21  2  0
 20 22  1  0
 22 24  1  0
 24 25  2  0
 25 26  1  0
 26 27  2  0
 27 30  1  0
 30 31  2  0
 31 32  1  0
 32 33  2  0
 33 34  1  0
 27 28  1  0
 28 29  2  0
 14  8  1  0
 19 15  1  0
 43 37  1  0
 29 24  1  0
 34 30  1  0
  4  5  1  0
 22 23  1  0
 34 35  1  0
M  END
> <minimizedAffinity>
-9.92312

> <CNNscore>
0.9047337174

> <CNNaffinity>
8.3717699051

> <CNN_VS>
7.5742225647

> <CNNaffinity_variance>
0.0160381179

$$$$



 43 47  0  0  0  0  0  0  0  0999 V2000
  -51.8923  -11.5591  -25.3214 C   0  0  0  0  0  0  0  0  0  0  0  0
  -50.1069   -9.4185  -24.8773 O   0  0  0  0  0  0  0  0  0  0  0  0
  -50.3501  -10.2081  -23.9755 C   0  0  0  0  0  0  0  0  0  0  0  0
  -51.1011  -11.3501  -24.1117 N   0  0  0  0  0  0  0  0  0  0  0  0
  -51.1059  -12.0259  -23.3958 H   0  0  0  0  0  0  0  0  0  0  0  0
  -49.9212   -9.9353  -22.5873 C   0  0  0  0  0  0  0  0  0  0  0  0
  -49.4138  -10.9145  -21.8235 C   0  0  0  0  0  0  0  0  0  0  0  0
  -49.1047  -10.7209  -20.4025 C   0  0  0  0  0  0  0  0  0  0  0  0
  -47.7947  -10.3081  -20.0937 C   0  0  0  0  0  0  0  0  0  0  0  0
  -47.4060  -10.0969  -18.7737 C   0  0  0  0  0  0  0  0  0  0  0  0
  -45.8016   -9.5880  -18.4214 Cl  0  0  0  0  0  0  0  0  0  0  0  0
  -48.3097  -10.2974  -17.7384 C   0  0  0  0  0  0  0  0  0  0  0  0
  -49.6149  -10.7124  -18.0221 C   0  0  0  0  0  0  0  0  0  0  0  0
  -50.0329  -10.9299  -19.3519 C   0  0  0  0  0  0  0  0  0  0  0  0
  -51.3793  -11.3448  -19.5883 N   0  0  0  0  0  0  0  0  0  0  0  0
  -52.3125  -11.8144  -18.6911 C   0  0  0  0  0  0  0  0  0  0  0  0
  -53.4284  -12.1015  -19.3207 N   0  0  0  0  0  0  0  0  0  0  0  0
  -53.1992  -11.8056  -20.6333 N   0  0  0  0  0  0  0  0  0  0  0  0
  -51.9692  -11.3480  -20.8076 N   0  0  0  0  0  0  0  0  0  0  0  0
  -53.1227  -10.6204  -25.2538 C   0  0  0  0  0  0  0  0  0  0  0  0
  -54.0497  -10.8458  -24.4787 O   0  0  0  0  0  0  0  0  0  0  0  0
  -53.0688   -9.5904  -26.1798 N   0  0  0  0  0  0  0  0  0  0  0  0
  -52.2567   -9.5495  -26.7348 H   0  0  0  0  0  0  0  0  0  0  0  0
  -54.0351   -8.5954  -26.4227 C   0  0  0  0  0  0  0  0  0  0  0  0
  -54.8303   -8.5352  -27.5640 C   0  0  0  0  0  0  0  0  0  0  0  0
  -55.7742   -7.5108  -27.7196 C   0  0  0  0  0  0  0  0  0  0  0  0
  -55.9314   -6.5187  -26.7443 C   0  0  0  0  0  0  0  0  0  0  0  0
  -55.1312   -6.5825  -25.5972 C   0  0  0  0  0  0  0  0  0  0  0  0
  -54.1963   -7.6134  -25.4383 C   0  0  0  0  0  0  0  0  0  0  0  0
  -56.9220   -5.4674  -26.9376 C   0  0  0  0  0  0  0  0  0  0  0  0
  -57.1434   -4.4122  -26.1759 N   0  0  0  0  0  0  0  0  0  0  0  0
  -58.1666   -3.7097  -26.7622 N   0  0  0  0  0  0  0  0  0  0  0  0
  -58.5935   -4.3227  -27.8549 N   0  0  0  0  0  0  0  0  0  0  0  0
  -57.8262   -5.4136  -27.9627 N   0  0  0  0  0  0  0  0  0  0  0  0
  -57.9018   -6.0840  -28.6797 H   0  0  0  0  0  0  0  0  0  0  0  0
  -52.3420  -13.0249  -25.4184 C   0  0  0  0  0  0  0  0  0  0  0  0
  -52.9446  -13.3793  -26.7591 C   0  0  0  0  0  0  0  0  0  0  0  0
  -52.2085  -13.2001  -27.9387 C   0  0  0  0  0  0  0  0  0  0  0  0
  -52.7832  -13.4820  -29.1796 C   0  0  0  0  0  0  0  0  0  0  0  0
  -54.0959  -13.9466  -29.2441 C   0  0  0  0  0  0  0  0  0  0  0  0
  -54.8820  -14.3147  -30.9237 Br  0  0  0  0  0  0  0  0  0  0  0  0
  -54.8360  -14.1385  -28.0804 C   0  0  0  0  0  0  0  0  0  0  0  0
  -54.2605  -13.8572  -26.8403 C   0  0  0  0  0  0  0  0  0  0  0  0
  2  3  2  0
  3  6  1  0
  6  7  2  0
  7  8  1  0
  8  9  2  0
  9 10  1  0
 10 11  1  0
 10 12  2  0
 12 13  1  0
 13 14  2  0
 14 15  1  0
 15 16  1  0
 16 17  2  0
 17 18  1  0
 18 19  2  0
  3  4  1  0
  4  1  1  0
  1 36  1  0
 36 37  1  0
 37 38  2  0
 38 39  1  0
 39 40  2  0
 40 41  1  0
 40 42  1  0
 42 43  2  0
  1 20  1  0
 20 21  2  0
 20 22  1  0
 22 24  1  0
 24 25  2  0
 25 26  1  0
 26 27  2  0
 27 30  1  0
 30 31  2  0
 31 32  1  0
 32 33  2  0
 33 34  1  0
 27 28  1  0
 28 29  2  0
 14  8  1  0
 19 15  1  0
 43 37  1  0
 29 24  1  0
 34 30  1  0
  4  5  1  0
 22 23  1  0
 34 35  1  0
M  END
> <minimizedAffinity>
-8.90472

> <CNNscore>
0.8860613108

> <CNNaffinity>
8.4367723465

> <CNN_VS>
7.4754977226

> <CNNaffinity_variance>
0.0917369649

$$$$



 43 47  0  0  0  0  0  0  0  0999 V2000
  -52.2128  -11.3086  -23.6341 C   0  0  0  0  0  0  0  0  0  0  0  0
  -49.9631   -9.6893  -24.1670 O   0  0  0  0  0  0  0  0  0  0  0  0
  -50.0747  -10.2416  -23.0814 C   0  0  0  0  0  0  0  0  0  0  0  0
  -51.0569  -11.1451  -22.7563 N   0  0  0  0  0  0  0  0  0  0  0  0
  -50.9819  -11.6810  -21.9339 H   0  0  0  0  0  0  0  0  0  0  0  0
  -49.1846   -9.8931  -21.9538 C   0  0  0  0  0  0  0  0  0  0  0  0
  -48.7183  -10.8448  -21.1313 C   0  0  0  0  0  0  0  0  0  0  0  0
  -47.9472  -10.5294  -19.9237 C   0  0  0  0  0  0  0  0  0  0  0  0
  -46.5460  -10.5094  -20.0587 C   0  0  0  0  0  0  0  0  0  0  0  0
  -45.7286  -10.2194  -18.9698 C   0  0  0  0  0  0  0  0  0  0  0  0
  -44.0198  -10.1960  -19.1602 Cl  0  0  0  0  0  0  0  0  0  0  0  0
  -46.2886   -9.9501  -17.7277 C   0  0  0  0  0  0  0  0  0  0  0  0
  -47.6782   -9.9696  -17.5699 C   0  0  0  0  0  0  0  0  0  0  0  0
  -48.5270  -10.2578  -18.6592 C   0  0  0  0  0  0  0  0  0  0  0  0
  -49.9398  -10.2563  -18.4469 N   0  0  0  0  0  0  0  0  0  0  0  0
  -50.6998  -11.0943  -17.6617 C   0  0  0  0  0  0  0  0  0  0  0  0
  -51.9669  -10.7633  -17.7564 N   0  0  0  0  0  0  0  0  0  0  0  0
  -52.0083   -9.6989  -18.6097 N   0  0  0  0  0  0  0  0  0  0  0  0
  -50.7940   -9.3830  -19.0319 N   0  0  0  0  0  0  0  0  0  0  0  0
  -51.9272  -12.5014  -24.5803 C   0  0  0  0  0  0  0  0  0  0  0  0
  -51.4666  -12.3212  -25.7055 O   0  0  0  0  0  0  0  0  0  0  0  0
  -52.3032  -13.7216  -24.0410 N   0  0  0  0  0  0  0  0  0  0  0  0
  -52.6634  -13.6974  -23.1251 H   0  0  0  0  0  0  0  0  0  0  0  0
  -52.2324  -14.9917  -24.6447 C   0  0  0  0  0  0  0  0  0  0  0  0
  -52.8381  -15.3210  -25.8544 C   0  0  0  0  0  0  0  0  0  0  0  0
  -52.7088  -16.6114  -26.3862 C   0  0  0  0  0  0  0  0  0  0  0  0
  -51.9837  -17.6014  -25.7123 C   0  0  0  0  0  0  0  0  0  0  0  0
  -51.3747  -17.2671  -24.4968 C   0  0  0  0  0  0  0  0  0  0  0  0
  -51.4957  -15.9739  -23.9723 C   0  0  0  0  0  0  0  0  0  0  0  0
  -51.8692  -18.9332  -26.2931 C   0  0  0  0  0  0  0  0  0  0  0  0
  -51.8032  -20.0903  -25.6611 N   0  0  0  0  0  0  0  0  0  0  0  0
  -51.7093  -21.0623  -26.6258 N   0  0  0  0  0  0  0  0  0  0  0  0
  -51.6932  -20.5254  -27.8356 N   0  0  0  0  0  0  0  0  0  0  0  0
  -51.7882  -19.2066  -27.6310 N   0  0  0  0  0  0  0  0  0  0  0  0
  -51.7985  -18.5276  -28.3439 H   0  0  0  0  0  0  0  0  0  0  0  0
  -52.4519  -10.0265  -24.4461 C   0  0  0  0  0  0  0  0  0  0  0  0
  -53.8913   -9.5639  -24.4255 C   0  0  0  0  0  0  0  0  0  0  0  0
  -54.8866  -10.3640  -23.8470 C   0  0  0  0  0  0  0  0  0  0  0  0
  -56.2223   -9.9579  -23.8718 C   0  0  0  0  0  0  0  0  0  0  0  0
  -56.5662   -8.7483  -24.4735 C   0  0  0  0  0  0  0  0  0  0  0  0
  -58.3758   -8.2029  -24.5221 Br  0  0  0  0  0  0  0  0  0  0  0  0
  -55.5873   -7.9387  -25.0436 C   0  0  0  0  0  0  0  0  0  0  0  0
  -54.2522   -8.3451  -25.0177 C   0  0  0  0  0  0  0  0  0  0  0  0
  2  3  2  0
  3  6  1  0
  6  7  2  0
  7  8  1  0
  8  9  2  0
  9 10  1  0
 10 11  1  0
 10 12  2  0
 12 13  1  0
 13 14  2  0
 14 15  1  0
 15 16  1  0
 16 17  2  0
 17 18  1  0
 18 19  2  0
  3  4  1  0
  4  1  1  0
  1 36  1  0
 36 37  1  0
 37 38  2  0
 38 39  1  0
 39 40  2  0
 40 41  1  0
 40 42  1  0
 42 43  2  0
  1 20  1  0
 20 21  2  0
 20 22  1  0
 22 24  1  0
 24 25  2  0
 25 26  1  0
 26 27  2  0
 27 30  1  0
 30 31  2  0
 31 32  1  0
 32 33  2  0
 33 34  1  0
 27 28  1  0
 28 29  2  0
 14  8  1  0
 19 15  1  0
 43 37  1  0
 29 24  1  0
 34 30  1  0
  4  5  1  0
 22 23  1  0
 34 35  1  0
M  END
> <minimizedAffinity>
-10.57548

> <CNNscore>
0.8002536893

> <CNNaffinity>
7.8639960289

> <CNN_VS>
6.2931919098

> <CNNaffinity_variance>
0.2601308525

$$$$



 43 47  0  0  0  0  0  0  0  0999 V2000
  -51.5418  -12.1178  -25.3983 C   0  0  0  0  0  0  0  0  0  0  0  0
  -51.7340   -9.8823  -23.6858 O   0  0  0  0  0  0  0  0  0  0  0  0
  -50.7981  -10.6613  -23.5706 C   0  0  0  0  0  0  0  0  0  0  0  0
  -50.5364  -11.7071  -24.4216 N   0  0  0  0  0  0  0  0  0  0  0  0
  -49.6736  -12.1787  -24.3735 H   0  0  0  0  0  0  0  0  0  0  0  0
  -49.8932  -10.5982  -22.4033 C   0  0  0  0  0  0  0  0  0  0  0  0
  -50.3648  -10.7862  -21.1616 C   0  0  0  0  0  0  0  0  0  0  0  0
  -49.5317  -10.5971  -19.9688 C   0  0  0  0  0  0  0  0  0  0  0  0
  -48.1712  -10.3105  -20.1901 C   0  0  0  0  0  0  0  0  0  0  0  0
  -47.3009  -10.1137  -19.1216 C   0  0  0  0  0  0  0  0  0  0  0  0
  -45.6441   -9.7599  -19.4167 Cl  0  0  0  0  0  0  0  0  0  0  0  0
  -47.7657  -10.2037  -17.8159 C   0  0  0  0  0  0  0  0  0  0  0  0
  -49.1125  -10.4926  -17.5731 C   0  0  0  0  0  0  0  0  0  0  0  0
  -50.0140  -10.6929  -18.6395 C   0  0  0  0  0  0  0  0  0  0  0  0
  -51.3812  -10.9766  -18.3376 N   0  0  0  0  0  0  0  0  0  0  0  0
  -52.2523  -11.8290  -18.9786 C   0  0  0  0  0  0  0  0  0  0  0  0
  -53.4265  -11.7871  -18.3926 N   0  0  0  0  0  0  0  0  0  0  0  0
  -53.2951  -10.8992  -17.3643 N   0  0  0  0  0  0  0  0  0  0  0  0
  -52.0679  -10.4047  -17.3197 N   0  0  0  0  0  0  0  0  0  0  0  0
  -51.9372  -10.8707  -26.2278 C   0  0  0  0  0  0  0  0  0  0  0  0
  -51.1226  -10.3119  -26.9591 O   0  0  0  0  0  0  0  0  0  0  0  0
  -53.2392  -10.4565  -25.9943 N   0  0  0  0  0  0  0  0  0  0  0  0
  -53.7650  -11.0109  -25.3735 H   0  0  0  0  0  0  0  0  0  0  0  0
  -53.9008   -9.3385  -26.5376 C   0  0  0  0  0  0  0  0  0  0  0  0
  -53.2609   -8.1769  -26.9615 C   0  0  0  0  0  0  0  0  0  0  0  0
  -53.9998   -7.1135  -27.4981 C   0  0  0  0  0  0  0  0  0  0  0  0
  -55.3937   -7.1849  -27.6080 C   0  0  0  0  0  0  0  0  0  0  0  0
  -56.0343   -8.3547  -27.1820 C   0  0  0  0  0  0  0  0  0  0  0  0
  -55.2932   -9.4209  -26.6564 C   0  0  0  0  0  0  0  0  0  0  0  0
  -56.1316   -6.0610  -28.1703 C   0  0  0  0  0  0  0  0  0  0  0  0
  -56.0974   -5.6075  -29.4096 N   0  0  0  0  0  0  0  0  0  0  0  0
  -56.9613   -4.5421  -29.4641 N   0  0  0  0  0  0  0  0  0  0  0  0
  -57.5080   -4.3177  -28.2797 N   0  0  0  0  0  0  0  0  0  0  0  0
  -56.9921   -5.2552  -27.4764 N   0  0  0  0  0  0  0  0  0  0  0  0
  -57.2024   -5.3516  -26.5195 H   0  0  0  0  0  0  0  0  0  0  0  0
  -52.7725  -12.6987  -24.6853 C   0  0  0  0  0  0  0  0  0  0  0  0
  -53.1084  -14.1069  -25.1214 C   0  0  0  0  0  0  0  0  0  0  0  0
  -53.3121  -15.1161  -24.1698 C   0  0  0  0  0  0  0  0  0  0  0  0
  -53.5743  -16.4263  -24.5747 C   0  0  0  0  0  0  0  0  0  0  0  0
  -53.6361  -16.7308  -25.9337 C   0  0  0  0  0  0  0  0  0  0  0  0
  -53.9759  -18.5070  -26.4853 Br  0  0  0  0  0  0  0  0  0  0  0  0
  -53.4453  -15.7371  -26.8903 C   0  0  0  0  0  0  0  0  0  0  0  0
  -53.1840  -14.4274  -26.4846 C   0  0  0  0  0  0  0  0  0  0  0  0
  2  3  2  0
  3  6  1  0
  6  7  2  0
  7  8  1  0
  8  9  2  0
  9 10  1  0
 10 11  1  0
 10 12  2  0
 12 13  1  0
 13 14  2  0
 14 15  1  0
 15 16  1  0
 16 17  2  0
 17 18  1  0
 18 19  2  0
  3  4  1  0
  4  1  1  0
  1 36  1  0
 36 37  1  0
 37 38  2  0
 38 39  1  0
 39 40  2  0
 40 41  1  0
 40 42  1  0
 42 43  2  0
  1 20  1  0
 20 21  2  0
 20 22  1  0
 22 24  1  0
 24 25  2  0
 25 26  1  0
 26 27  2  0
 27 30  1  0
 30 31  2  0
 31 32  1  0
 32 33  2  0
 33 34  1  0
 27 28  1  0
 28 29  2  0
 14  8  1  0
 19 15  1  0
 43 37  1  0
 29 24  1  0
 34 30  1  0
  4  5  1  0
 22 23  1  0
 34 35  1  0
M  END
> <minimizedAffinity>
-8.39587

> <CNNscore>
0.6912485361

> <CNNaffinity>
7.8882675171

> <CNN_VS>
5.4527535439

> <CNNaffinity_variance>
0.0093742115

$$$$



 43 47  0  0  0  0  0  0  0  0999 V2000
  -51.6470  -10.8879  -26.8404 C   0  0  0  0  0  0  0  0  0  0  0  0
  -50.5322   -9.8533  -24.4626 O   0  0  0  0  0  0  0  0  0  0  0  0
  -50.9541  -11.0010  -24.4905 C   0  0  0  0  0  0  0  0  0  0  0  0
  -51.4012  -11.6470  -25.6171 N   0  0  0  0  0  0  0  0  0  0  0  0
  -51.5557  -12.6192  -25.6001 H   0  0  0  0  0  0  0  0  0  0  0  0
  -51.1161  -11.7840  -23.2471 C   0  0  0  0  0  0  0  0  0  0  0  0
  -50.1109  -12.5387  -22.7784 C   0  0  0  0  0  0  0  0  0  0  0  0
  -50.2731  -13.4354  -21.6285 C   0  0  0  0  0  0  0  0  0  0  0  0
  -50.4128  -14.8068  -21.9144 C   0  0  0  0  0  0  0  0  0  0  0  0
  -50.5710  -15.7363  -20.8901 C   0  0  0  0  0  0  0  0  0  0  0  0
  -50.7348  -17.4068  -21.2636 Cl  0  0  0  0  0  0  0  0  0  0  0  0
  -50.5987  -15.3189  -19.5658 C   0  0  0  0  0  0  0  0  0  0  0  0
  -50.4668  -13.9606  -19.2594 C   0  0  0  0  0  0  0  0  0  0  0  0
  -50.3024  -13.0005  -20.2798 C   0  0  0  0  0  0  0  0  0  0  0  0
  -50.1632  -11.6268  -19.9130 N   0  0  0  0  0  0  0  0  0  0  0  0
  -51.1350  -10.6587  -19.7918 C   0  0  0  0  0  0  0  0  0  0  0  0
  -50.5842   -9.5173  -19.4484 N   0  0  0  0  0  0  0  0  0  0  0  0
  -49.2463   -9.7681  -19.3470 N   0  0  0  0  0  0  0  0  0  0  0  0
  -48.9798  -11.0350  -19.6234 N   0  0  0  0  0  0  0  0  0  0  0  0
  -52.9798  -10.1183  -26.6637 C   0  0  0  0  0  0  0  0  0  0  0  0
  -53.9895  -10.6862  -26.2529 O   0  0  0  0  0  0  0  0  0  0  0  0
  -52.8992   -8.7962  -27.0721 N   0  0  0  0  0  0  0  0  0  0  0  0
  -52.0159   -8.4925  -27.3832 H   0  0  0  0  0  0  0  0  0  0  0  0
  -53.9278   -7.8350  -27.0959 C   0  0  0  0  0  0  0  0  0  0  0  0
  -54.4440   -7.2658  -28.2570 C   0  0  0  0  0  0  0  0  0  0  0  0
  -55.4754   -6.3194  -28.1872 C   0  0  0  0  0  0  0  0  0  0  0  0
  -56.0009   -5.9129  -26.9548 C   0  0  0  0  0  0  0  0  0  0  0  0
  -55.4808   -6.4878  -25.7889 C   0  0  0  0  0  0  0  0  0  0  0  0
  -54.4577   -7.4418  -25.8613 C   0  0  0  0  0  0  0  0  0  0  0  0
  -57.0730   -4.9264  -26.9176 C   0  0  0  0  0  0  0  0  0  0  0  0
  -57.2748   -3.9820  -26.0175 N   0  0  0  0  0  0  0  0  0  0  0  0
  -58.4010   -3.3002  -26.4063 N   0  0  0  0  0  0  0  0  0  0  0  0
  -58.9078   -3.8199  -27.5132 N   0  0  0  0  0  0  0  0  0  0  0  0
  -58.0886   -4.8296  -27.8289 N   0  0  0  0  0  0  0  0  0  0  0  0
  -58.2010   -5.4204  -28.6083 H   0  0  0  0  0  0  0  0  0  0  0  0
  -51.7312  -11.8340  -28.0479 C   0  0  0  0  0  0  0  0  0  0  0  0
  -52.6958  -12.9804  -27.8446 C   0  0  0  0  0  0  0  0  0  0  0  0
  -53.8043  -13.1347  -28.6890 C   0  0  0  0  0  0  0  0  0  0  0  0
  -54.7208  -14.1652  -28.4705 C   0  0  0  0  0  0  0  0  0  0  0  0
  -54.5297  -15.0465  -27.4074 C   0  0  0  0  0  0  0  0  0  0  0  0
  -55.7770  -16.4336  -27.0997 Br  0  0  0  0  0  0  0  0  0  0  0  0
  -53.4284  -14.9115  -26.5662 C   0  0  0  0  0  0  0  0  0  0  0  0
  -52.5123  -13.8815  -26.7859 C   0  0  0  0  0  0  0  0  0  0  0  0
  2  3  2  0
  3  6  1  0
  6  7  2  0
  7  8  1  0
  8  9  2  0
  9 10  1  0
 10 11  1  0
 10 12  2  0
 12 13  1  0
 13 14  2  0
 14 15  1  0
 15 16  1  0
 16 17  2  0
 17 18  1  0
 18 19  2  0
  3  4  1  0
  4  1  1  0
  1 36  1  0
 36 37  1  0
 37 38  2  0
 38 39  1  0
 39 40  2  0
 40 41  1  0
 40 42  1  0
 42 43  2  0
  1 20  1  0
 20 21  2  0
 20 22  1  0
 22 24  1  0
 24 25  2  0
 25 26  1  0
 26 27  2  0
 27 30  1  0
 30 31  2  0
 31 32  1  0
 32 33  2  0
 33 34  1  0
 27 28  1  0
 28 29  2  0
 14  8  1  0
 19 15  1  0
 43 37  1  0
 29 24  1  0
 34 30  1  0
  4  5  1  0
 22 23  1  0
 34 35  1  0
M  END
> <minimizedAffinity>
-9.12288

> <CNNscore>
0.4270524383

> <CNNaffinity>
7.2956314087

> <CNN_VS>
3.1156172752

> <CNNaffinity_variance>
0.2348812819

$$$$



 43 47  0  0  0  0  0  0  0  0999 V2000
  -52.0115  -11.9090  -25.4423 C   0  0  0  0  0  0  0  0  0  0  0  0
  -50.4597   -9.7674  -24.4560 O   0  0  0  0  0  0  0  0  0  0  0  0
  -50.9008  -10.6080  -23.6848 C   0  0  0  0  0  0  0  0  0  0  0  0
  -51.5593  -11.7527  -24.0623 N   0  0  0  0  0  0  0  0  0  0  0  0
  -51.7260  -12.4660  -23.4045 H   0  0  0  0  0  0  0  0  0  0  0  0
  -50.8461  -10.4034  -22.2217 C   0  0  0  0  0  0  0  0  0  0  0  0
  -51.2074  -11.3837  -21.3802 C   0  0  0  0  0  0  0  0  0  0  0  0
  -51.2994  -11.1790  -19.9304 C   0  0  0  0  0  0  0  0  0  0  0  0
  -52.5586  -11.4022  -19.3417 C   0  0  0  0  0  0  0  0  0  0  0  0
  -52.7454  -11.2350  -17.9723 C   0  0  0  0  0  0  0  0  0  0  0  0
  -54.2916  -11.5182  -17.2750 Cl  0  0  0  0  0  0  0  0  0  0  0  0
  -51.6866  -10.8381  -17.1658 C   0  0  0  0  0  0  0  0  0  0  0  0
  -50.4283  -10.6059  -17.7306 C   0  0  0  0  0  0  0  0  0  0  0  0
  -50.2139  -10.7717  -19.1150 C   0  0  0  0  0  0  0  0  0  0  0  0
  -48.9076  -10.5303  -19.6405 N   0  0  0  0  0  0  0  0  0  0  0  0
  -48.1072  -11.3623  -20.3911 C   0  0  0  0  0  0  0  0  0  0  0  0
  -46.9701  -10.7625  -20.6581 N   0  0  0  0  0  0  0  0  0  0  0  0
  -47.0542   -9.5327  -20.0719 N   0  0  0  0  0  0  0  0  0  0  0  0
  -48.2165   -9.3800  -19.4567 N   0  0  0  0  0  0  0  0  0  0  0  0
  -53.2636  -11.0179  -25.6369 C   0  0  0  0  0  0  0  0  0  0  0  0
  -54.3946  -11.4695  -25.4703 O   0  0  0  0  0  0  0  0  0  0  0  0
  -52.9542   -9.7363  -26.0647 N   0  0  0  0  0  0  0  0  0  0  0  0
  -51.9958   -9.5301  -26.1559 H   0  0  0  0  0  0  0  0  0  0  0  0
  -53.8447   -8.6936  -26.3845 C   0  0  0  0  0  0  0  0  0  0  0  0
  -54.3912   -8.4877  -27.6484 C   0  0  0  0  0  0  0  0  0  0  0  0
  -55.2773   -7.4257  -27.8755 C   0  0  0  0  0  0  0  0  0  0  0  0
  -55.6231   -6.5406  -26.8473 C   0  0  0  0  0  0  0  0  0  0  0  0
  -55.0729   -6.7509  -25.5771 C   0  0  0  0  0  0  0  0  0  0  0  0
  -54.1963   -7.8193  -25.3493 C   0  0  0  0  0  0  0  0  0  0  0  0
  -56.5472   -5.4466  -27.1175 C   0  0  0  0  0  0  0  0  0  0  0  0
  -57.2536   -4.7486  -26.2476 N   0  0  0  0  0  0  0  0  0  0  0  0
  -57.9696   -3.8266  -26.9697 N   0  0  0  0  0  0  0  0  0  0  0  0
  -57.7354   -3.9583  -28.2658 N   0  0  0  0  0  0  0  0  0  0  0  0
  -56.8577   -4.9639  -28.3592 N   0  0  0  0  0  0  0  0  0  0  0  0
  -56.4870   -5.3083  -29.2037 H   0  0  0  0  0  0  0  0  0  0  0  0
  -52.3511  -13.3796  -25.7293 C   0  0  0  0  0  0  0  0  0  0  0  0
  -52.9150  -13.6050  -27.1140 C   0  0  0  0  0  0  0  0  0  0  0  0
  -52.2539  -13.0982  -28.2417 C   0  0  0  0  0  0  0  0  0  0  0  0
  -52.8008  -13.2653  -29.5155 C   0  0  0  0  0  0  0  0  0  0  0  0
  -54.0102  -13.9423  -29.6654 C   0  0  0  0  0  0  0  0  0  0  0  0
  -54.7609  -14.1568  -31.3873 Br  0  0  0  0  0  0  0  0  0  0  0  0
  -54.6733  -14.4593  -28.5556 C   0  0  0  0  0  0  0  0  0  0  0  0
  -54.1255  -14.2926  -27.2827 C   0  0  0  0  0  0  0  0  0  0  0  0
  2  3  2  0
  3  6  1  0
  6  7  2  0
  7  8  1  0
  8  9  2  0
  9 10  1  0
 10 11  1  0
 10 12  2  0
 12 13  1  0
 13 14  2  0
 14 15  1  0
 15 16  1  0
 16 17  2  0
 17 18  1  0
 18 19  2  0
  3  4  1  0
  4  1  1  0
  1 36  1  0
 36 37  1  0
 37 38  2  0
 38 39  1  0
 39 40  2  0
 40 41  1  0
 40 42  1  0
 42 43  2  0
  1 20  1  0
 20 21  2  0
 20 22  1  0
 22 24  1  0
 24 25  2  0
 25 26  1  0
 26 27  2  0
 27 30  1  0
 30 31  2  0
 31 32  1  0
 32 33  2  0
 33 34  1  0
 27 28  1  0
 28 29  2  0
 14  8  1  0
 19 15  1  0
 43 37  1  0
 29 24  1  0
 34 30  1  0
  4  5  1  0
 22 23  1  0
 34 35  1  0
M  END
> <minimizedAffinity>
-8.87378

> <CNNscore>
0.3401755393

> <CNNaffinity>
7.2031378746

> <CNN_VS>
2.4503312111

> <CNNaffinity_variance>
0.3325051963

$$$$



 43 47  0  0  0  0  0  0  0  0999 V2000
  -52.0927  -10.5871  -24.9484 C   0  0  0  0  0  0  0  0  0  0  0  0
  -53.5943  -12.1743  -23.1615 O   0  0  0  0  0  0  0  0  0  0  0  0
  -52.9931  -12.6999  -24.0879 C   0  0  0  0  0  0  0  0  0  0  0  0
  -52.1367  -12.0470  -24.9405 N   0  0  0  0  0  0  0  0  0  0  0  0
  -51.5541  -12.5616  -25.5446 H   0  0  0  0  0  0  0  0  0  0  0  0
  -53.2248  -14.1166  -24.4408 C   0  0  0  0  0  0  0  0  0  0  0  0
  -52.3618  -14.7749  -25.2294 C   0  0  0  0  0  0  0  0  0  0  0  0
  -52.6226  -16.1345  -25.7148 C   0  0  0  0  0  0  0  0  0  0  0  0
  -51.9722  -17.1815  -25.0346 C   0  0  0  0  0  0  0  0  0  0  0  0
  -52.1573  -18.5062  -25.4205 C   0  0  0  0  0  0  0  0  0  0  0  0
  -51.3560  -19.7686  -24.5712 Cl  0  0  0  0  0  0  0  0  0  0  0  0
  -52.9868  -18.8128  -26.4915 C   0  0  0  0  0  0  0  0  0  0  0  0
  -53.6388  -17.7878  -27.1847 C   0  0  0  0  0  0  0  0  0  0  0  0
  -53.4692  -16.4383  -26.8103 C   0  0  0  0  0  0  0  0  0  0  0  0
  -54.1648  -15.4300  -27.5455 N   0  0  0  0  0  0  0  0  0  0  0  0
  -53.6541  -14.3653  -28.2540 C   0  0  0  0  0  0  0  0  0  0  0  0
  -54.6363  -13.6646  -28.7720 N   0  0  0  0  0  0  0  0  0  0  0  0
  -55.7836  -14.2972  -28.3893 N   0  0  0  0  0  0  0  0  0  0  0  0
  -55.5134  -15.3623  -27.6511 N   0  0  0  0  0  0  0  0  0  0  0  0
  -50.9795  -10.1389  -23.9687 C   0  0  0  0  0  0  0  0  0  0  0  0
  -50.0462   -9.4354  -24.3492 O   0  0  0  0  0  0  0  0  0  0  0  0
  -51.1355  -10.6647  -22.6957 N   0  0  0  0  0  0  0  0  0  0  0  0
  -51.9373  -11.2173  -22.5510 H   0  0  0  0  0  0  0  0  0  0  0  0
  -50.2859  -10.5040  -21.5844 C   0  0  0  0  0  0  0  0  0  0  0  0
  -50.6770   -9.9433  -20.3715 C   0  0  0  0  0  0  0  0  0  0  0  0
  -49.7644   -9.8290  -19.3139 C   0  0  0  0  0  0  0  0  0  0  0  0
  -48.4395  -10.2596  -19.4529 C   0  0  0  0  0  0  0  0  0  0  0  0
  -48.0493  -10.8241  -20.6733 C   0  0  0  0  0  0  0  0  0  0  0  0
  -48.9657  -10.9478  -21.7254 C   0  0  0  0  0  0  0  0  0  0  0  0
  -47.5161  -10.1259  -18.3333 C   0  0  0  0  0  0  0  0  0  0  0  0
  -46.1964  -10.1230  -18.3668 N   0  0  0  0  0  0  0  0  0  0  0  0
  -45.7690   -9.9660  -17.0719 N   0  0  0  0  0  0  0  0  0  0  0  0
  -46.7973   -9.8952  -16.2416 N   0  0  0  0  0  0  0  0  0  0  0  0
  -47.8800   -9.9980  -17.0209 N   0  0  0  0  0  0  0  0  0  0  0  0
  -48.8090   -9.9836  -16.6953 H   0  0  0  0  0  0  0  0  0  0  0  0
  -53.4495  -10.0099  -24.5170 C   0  0  0  0  0  0  0  0  0  0  0  0
  -53.9686   -8.9386  -25.4493 C   0  0  0  0  0  0  0  0  0  0  0  0
  -54.9096   -8.0012  -25.0006 C   0  0  0  0  0  0  0  0  0  0  0  0
  -55.4244   -7.0428  -25.8758 C   0  0  0  0  0  0  0  0  0  0  0  0
  -54.9974   -7.0176  -27.2026 C   0  0  0  0  0  0  0  0  0  0  0  0
  -55.7038   -5.7307  -28.3939 Br  0  0  0  0  0  0  0  0  0  0  0  0
  -54.0563   -7.9362  -27.6600 C   0  0  0  0  0  0  0  0  0  0  0  0
  -53.5416   -8.8935  -26.7843 C   0  0  0  0  0  0  0  0  0  0  0  0
  2  3  2  0
  3  6  1  0
  6  7  2  0
  7  8  1  0
  8  9  2  0
  9 10  1  0
 10 11  1  0
 10 12  2  0
 12 13  1  0
 13 14  2  0
 14 15  1  0
 15 16  1  0
 16 17  2  0
 17 18  1  0
 18 19  2  0
  3  4  1  0
  4  1  1  0
  1 36  1  0
 36 37  1  0
 37 38  2  0
 38 39  1  0
 39 40  2  0
 40 41  1  0
 40 42  1  0
 42 43  2  0
  1 20  1  0
 20 21  2  0
 20 22  1  0
 22 24  1  0
 24 25  2  0
 25 26  1  0
 26 27  2  0
 27 30  1  0
 30 31  2  0
 31 32  1  0
 32 33  2  0
 33 34  1  0
 27 28  1  0
 28 29  2  0
 14  8  1  0
 19 15  1  0
 43 37  1  0
 29 24  1  0
 34 30  1  0
  4  5  1  0
 22 23  1  0
 34 35  1  0
M  END
> <minimizedAffinity>
-9.20721

> <CNNscore>
0.3057993948

> <CNNaffinity>
6.8900489807

> <CNN_VS>
2.1069726944

> <CNNaffinity_variance>
1.5085767508

$$$$



 43 47  0  0  0  0  0  0  0  0999 V2000
  -52.3816  -10.1811  -25.1705 C   0  0  0  0  0  0  0  0  0  0  0  0
  -52.9189  -11.7842  -27.4307 O   0  0  0  0  0  0  0  0  0  0  0  0
  -52.7663  -12.3052  -26.3346 C   0  0  0  0  0  0  0  0  0  0  0  0
  -52.6242  -11.6213  -25.1520 N   0  0  0  0  0  0  0  0  0  0  0  0
  -52.6858  -12.1005  -24.2942 H   0  0  0  0  0  0  0  0  0  0  0  0
  -52.6173  -13.7699  -26.2011 C   0  0  0  0  0  0  0  0  0  0  0  0
  -52.3480  -14.3239  -25.0093 C   0  0  0  0  0  0  0  0  0  0  0  0
  -52.0572  -15.7538  -24.8565 C   0  0  0  0  0  0  0  0  0  0  0  0
  -52.4639  -16.5950  -25.9095 C   0  0  0  0  0  0  0  0  0  0  0  0
  -52.2314  -17.9666  -25.8571 C   0  0  0  0  0  0  0  0  0  0  0  0
  -52.7329  -18.9735  -27.1577 Cl  0  0  0  0  0  0  0  0  0  0  0  0
  -51.5963  -18.5262  -24.7560 C   0  0  0  0  0  0  0  0  0  0  0  0
  -51.1884  -17.7096  -23.6962 C   0  0  0  0  0  0  0  0  0  0  0  0
  -51.4103  -16.3168  -23.7280 C   0  0  0  0  0  0  0  0  0  0  0  0
  -50.9663  -15.5262  -22.6240 N   0  0  0  0  0  0  0  0  0  0  0  0
  -50.1302  -14.4321  -22.6213 C   0  0  0  0  0  0  0  0  0  0  0  0
  -49.9615  -14.0052  -21.3912 N   0  0  0  0  0  0  0  0  0  0  0  0
  -50.7045  -14.8381  -20.6056 N   0  0  0  0  0  0  0  0  0  0  0  0
  -51.3153  -15.7579  -21.3360 N   0  0  0  0  0  0  0  0  0  0  0  0
  -51.1278   -9.8983  -24.3058 C   0  0  0  0  0  0  0  0  0  0  0  0
  -50.1124   -9.4146  -24.8015 O   0  0  0  0  0  0  0  0  0  0  0  0
  -51.2764  -10.3039  -22.9887 N   0  0  0  0  0  0  0  0  0  0  0  0
  -52.1538  -10.6800  -22.7481 H   0  0  0  0  0  0  0  0  0  0  0  0
  -50.3241  -10.2431  -21.9533 C   0  0  0  0  0  0  0  0  0  0  0  0
  -48.9500  -10.1456  -22.1550 C   0  0  0  0  0  0  0  0  0  0  0  0
  -48.0737  -10.0830  -21.0629 C   0  0  0  0  0  0  0  0  0  0  0  0
  -48.5528  -10.1313  -19.7482 C   0  0  0  0  0  0  0  0  0  0  0  0
  -49.9352  -10.2282  -19.5484 C   0  0  0  0  0  0  0  0  0  0  0  0
  -50.8102  -10.2793  -20.6410 C   0  0  0  0  0  0  0  0  0  0  0  0
  -47.6143  -10.0642  -18.6353 C   0  0  0  0  0  0  0  0  0  0  0  0
  -46.2965  -10.1271  -18.6813 N   0  0  0  0  0  0  0  0  0  0  0  0
  -45.8505  -10.0150  -17.3879 N   0  0  0  0  0  0  0  0  0  0  0  0
  -46.8668   -9.9073  -16.5467 N   0  0  0  0  0  0  0  0  0  0  0  0
  -47.9600   -9.9416  -17.3175 N   0  0  0  0  0  0  0  0  0  0  0  0
  -48.8842   -9.8863  -16.9828 H   0  0  0  0  0  0  0  0  0  0  0  0
  -53.5983   -9.4277  -24.6116 C   0  0  0  0  0  0  0  0  0  0  0  0
  -54.1704   -8.4139  -25.5765 C   0  0  0  0  0  0  0  0  0  0  0  0
  -55.1320   -7.4883  -25.1474 C   0  0  0  0  0  0  0  0  0  0  0  0
  -55.6950   -6.5846  -26.0507 C   0  0  0  0  0  0  0  0  0  0  0  0
  -55.2957   -6.6025  -27.3862 C   0  0  0  0  0  0  0  0  0  0  0  0
  -56.0672   -5.3902  -28.6149 Br  0  0  0  0  0  0  0  0  0  0  0  0
  -54.3348   -7.5097  -27.8249 C   0  0  0  0  0  0  0  0  0  0  0  0
  -53.7720   -8.4122  -26.9210 C   0  0  0  0  0  0  0  0  0  0  0  0
  2  3  2  0
  3  6  1  0
  6  7  2  0
  7  8  1  0
  8  9  2  0
  9 10  1  0
 10 11  1  0
 10 12  2  0
 12 13  1  0
 13 14  2  0
 14 15  1  0
 15 16  1  0
 16 17  2  0
 17 18  1  0
 18 19  2  0
  3  4  1  0
  4  1  1  0
  1 36  1  0
 36 37  1  0
 37 38  2  0
 38 39  1  0
 39 40  2  0
 40 41  1  0
 40 42  1  0
 42 43  2  0
  1 20  1  0
 20 21  2  0
 20 22  1  0
 22 24  1  0
 24 25  2  0
 25 26  1  0
 26 27  2  0
 27 30  1  0
 30 31  2  0
 31 32  1  0
 32 33  2  0
 33 34  1  0
 27 28  1  0
 28 29  2  0
 14  8  1  0
 19 15  1  0
 43 37  1  0
 29 24  1  0
 34 30  1  0
  4  5  1  0
 22 23  1  0
 34 35  1  0
M  END
> <minimizedAffinity>
-10.29863

> <CNNscore>
0.2907851934

> <CNNaffinity>
6.9336776733

> <CNN_VS>
2.0162107944

> <CNNaffinity_variance>
1.1885071993

$$$$
