


 41 44  0  0  0  0  0  0  0  0999 V2000
   23.6952   36.7665   17.1912 C   0  0  0  0  0  0  0  0  0  0  0  0
   23.0383   37.9121   17.8874 C   0  0  0  0  0  0  0  0  0  0  0  0
   23.4256   39.2069   17.6260 C   0  0  0  0  0  0  0  0  0  0  0  0
   22.9004   40.2863   18.2295 N   0  0  0  0  0  0  0  0  0  0  0  0
   21.9464   40.0748   19.1410 C   0  0  0  0  0  0  0  0  0  0  0  0
   21.4867   38.8521   19.4495 N   0  0  0  0  0  0  0  0  0  0  0  0
   22.0144   37.7915   18.8101 C   0  0  0  0  0  0  0  0  0  0  0  0
   21.3504   41.1175   19.8450 N   0  0  0  0  0  0  0  0  0  0  0  0
   21.6388   42.0056   19.5332 H   0  0  0  0  0  0  0  0  0  0  0  0
   20.4324   41.1805   20.8976 C   0  0  0  0  0  0  0  0  0  0  0  0
   20.9161   41.3775   22.1986 C   0  0  0  0  0  0  0  0  0  0  0  0
   20.0479   41.4519   23.2935 C   0  0  0  0  0  0  0  0  0  0  0  0
   18.6711   41.3245   23.1199 C   0  0  0  0  0  0  0  0  0  0  0  0
   18.1766   41.1119   21.8376 C   0  0  0  0  0  0  0  0  0  0  0  0
   19.0511   41.0409   20.7416 C   0  0  0  0  0  0  0  0  0  0  0  0
   17.9418   41.4323   24.2684 O   0  0  0  0  0  0  0  0  0  0  0  0
   18.0165   40.3852   25.2389 C   0  0  0  0  0  0  0  0  0  0  0  0
   17.0119   39.2466   24.9716 C   0  0  0  0  0  0  0  0  0  0  0  0
   15.7927   39.3035   25.7960 N   0  0  0  0  0  0  0  0  0  0  0  0
   14.7512   40.1206   25.1665 C   0  0  0  0  0  0  0  0  0  0  0  0
   13.7813   40.4101   26.3034 C   0  0  0  0  0  0  0  0  0  0  0  0
   14.5872   40.1994   27.5792 C   0  0  0  0  0  0  0  0  0  0  0  0
   16.0059   39.9165   27.1094 C   0  0  0  0  0  0  0  0  0  0  0  0
   21.4685   36.5471   19.1831 N   0  0  0  0  0  0  0  0  0  0  0  0
   21.4503   35.8445   18.4937 H   0  0  0  0  0  0  0  0  0  0  0  0
   20.9433   36.2099   20.4555 C   0  0  0  0  0  0  0  0  0  0  0  0
   21.0551   37.0479   21.5732 C   0  0  0  0  0  0  0  0  0  0  0  0
   20.5616   36.6408   22.8153 C   0  0  0  0  0  0  0  0  0  0  0  0
   20.6955   37.8042   24.3001 Br  0  0  0  0  0  0  0  0  0  0  0  0
   19.9812   35.3869   22.9759 C   0  0  0  0  0  0  0  0  0  0  0  0
   19.9195   34.5298   21.8773 C   0  0  0  0  0  0  0  0  0  0  0  0
   20.3888   34.9359   20.6225 C   0  0  0  0  0  0  0  0  0  0  0  0
   19.1977   32.9223   22.0449 S   0  0  0  0  0  0  0  0  0  0  0  0
   17.9903   33.0363   22.8301 O   0  0  0  0  0  0  0  0  0  0  0  0
   19.1769   32.3337   20.7224 O   0  0  0  0  0  0  0  0  0  0  0  0
   20.3374   32.0570   22.9020 N   0  0  0  0  0  0  0  0  0  0  0  0
   20.8308   32.7587   23.4538 H   0  0  0  0  0  0  0  0  0  0  0  0
   20.1223   30.9358   23.8342 C   0  0  0  0  0  0  0  0  0  0  0  0
   19.4543   31.3488   25.1457 C   0  0  0  0  0  0  0  0  0  0  0  0
   21.4617   30.2442   24.1078 C   0  0  0  0  0  0  0  0  0  0  0  0
   19.1950   29.9409   23.1108 C   0  0  0  0  0  0  0  0  0  0  0  0
  1  2  1  0
  2  3  2  0
  3  4  1  0
  4  5  2  0
  5  8  1  0
  8 10  1  0
 10 11  2  0
 11 12  1  0
 12 13  2  0
 13 16  1  0
 16 17  1  0
 17 18  1  0
 18 19  1  0
 19 20  1  0
 20 21  1  0
 21 22  1  0
 22 23  1  0
 13 14  1  0
 14 15  2  0
  5  6  1  0
  6  7  2  0
  7 24  1  0
 24 26  1  0
 26 27  2  0
 27 28  1  0
 28 29  1  0
 28 30  2  0
 30 31  1  0
 31 33  1  0
 33 34  2  0
 33 35  2  0
 33 36  1  0
 36 38  1  0
 38 39  1  0
 38 40  1  0
 38 41  1  0
 31 32  2  0
  7  2  1  0
 32 26  1  0
 15 10  1  0
 23 19  1  0
  8  9  1  0
 24 25  1  0
 36 37  1  0
M  END
> <minimizedAffinity>
-9.47096

> <CNNscore>
0.9258133769

> <CNNaffinity>
8.1110115051

> <CNN_VS>
7.5092830658

> <CNNaffinity_variance>
0.3252171278

$$$$



 41 44  0  0  0  0  0  0  0  0999 V2000
   23.5989   36.9578   17.2381 C   0  0  0  0  0  0  0  0  0  0  0  0
   22.9627   38.0890   17.9757 C   0  0  0  0  0  0  0  0  0  0  0  0
   23.2683   39.3931   17.6586 C   0  0  0  0  0  0  0  0  0  0  0  0
   22.7572   40.4618   18.2925 N   0  0  0  0  0  0  0  0  0  0  0  0
   21.9034   40.2295   19.2938 C   0  0  0  0  0  0  0  0  0  0  0  0
   21.5271   38.9953   19.6636 N   0  0  0  0  0  0  0  0  0  0  0  0
   22.0365   37.9448   18.9935 C   0  0  0  0  0  0  0  0  0  0  0  0
   21.3329   41.2605   20.0351 N   0  0  0  0  0  0  0  0  0  0  0  0
   21.6376   42.1524   19.7504 H   0  0  0  0  0  0  0  0  0  0  0  0
   20.4223   41.3079   21.0950 C   0  0  0  0  0  0  0  0  0  0  0  0
   19.0785   41.0011   20.8390 C   0  0  0  0  0  0  0  0  0  0  0  0
   18.1198   41.0283   21.8578 C   0  0  0  0  0  0  0  0  0  0  0  0
   18.4759   41.3700   23.1611 C   0  0  0  0  0  0  0  0  0  0  0  0
   19.8019   41.6935   23.4280 C   0  0  0  0  0  0  0  0  0  0  0  0
   20.7610   41.6619   22.4033 C   0  0  0  0  0  0  0  0  0  0  0  0
   17.4465   41.3415   24.0567 O   0  0  0  0  0  0  0  0  0  0  0  0
   16.1850   41.9002   23.6823 C   0  0  0  0  0  0  0  0  0  0  0  0
   15.3355   42.3301   24.8949 C   0  0  0  0  0  0  0  0  0  0  0  0
   14.7990   41.2125   25.6902 N   0  0  0  0  0  0  0  0  0  0  0  0
   13.4278   41.4749   26.1368 C   0  0  0  0  0  0  0  0  0  0  0  0
   13.2095   40.4613   27.2513 C   0  0  0  0  0  0  0  0  0  0  0  0
   14.6073   40.0670   27.7118 C   0  0  0  0  0  0  0  0  0  0  0  0
   15.5514   40.9602   26.9217 C   0  0  0  0  0  0  0  0  0  0  0  0
   21.5816   36.6867   19.4360 N   0  0  0  0  0  0  0  0  0  0  0  0
   21.6792   35.9329   18.8104 H   0  0  0  0  0  0  0  0  0  0  0  0
   20.9970   36.4025   20.6954 C   0  0  0  0  0  0  0  0  0  0  0  0
   21.0250   37.3019   21.7697 C   0  0  0  0  0  0  0  0  0  0  0  0
   20.4756   36.9473   23.0044 C   0  0  0  0  0  0  0  0  0  0  0  0
   20.4968   38.1918   24.4280 Br  0  0  0  0  0  0  0  0  0  0  0  0
   19.9212   35.6870   23.2026 C   0  0  0  0  0  0  0  0  0  0  0  0
   19.9426   34.7709   22.1510 C   0  0  0  0  0  0  0  0  0  0  0  0
   20.4686   35.1233   20.9024 C   0  0  0  0  0  0  0  0  0  0  0  0
   19.2562   33.1539   22.3681 S   0  0  0  0  0  0  0  0  0  0  0  0
   18.3834   32.8676   21.2529 O   0  0  0  0  0  0  0  0  0  0  0  0
   20.3566   32.2743   22.7016 O   0  0  0  0  0  0  0  0  0  0  0  0
   18.3501   33.2855   23.7624 N   0  0  0  0  0  0  0  0  0  0  0  0
   17.4765   33.7172   23.4611 H   0  0  0  0  0  0  0  0  0  0  0  0
   17.9353   32.2151   24.6870 C   0  0  0  0  0  0  0  0  0  0  0  0
   17.7271   30.8629   24.0050 C   0  0  0  0  0  0  0  0  0  0  0  0
   16.6623   32.6486   25.4207 C   0  0  0  0  0  0  0  0  0  0  0  0
   19.0702   32.0677   25.7182 C   0  0  0  0  0  0  0  0  0  0  0  0
  1  2  1  0
  2  3  2  0
  3  4  1  0
  4  5  2  0
  5  8  1  0
  8 10  1  0
 10 11  2  0
 11 12  1  0
 12 13  2  0
 13 16  1  0
 16 17  1  0
 17 18  1  0
 18 19  1  0
 19 20  1  0
 20 21  1  0
 21 22  1  0
 22 23  1  0
 13 14  1  0
 14 15  2  0
  5  6  1  0
  6  7  2  0
  7 24  1  0
 24 26  1  0
 26 27  2  0
 27 28  1  0
 28 29  1  0
 28 30  2  0
 30 31  1  0
 31 33  1  0
 33 34  2  0
 33 35  2  0
 33 36  1  0
 36 38  1  0
 38 39  1  0
 38 40  1  0
 38 41  1  0
 31 32  2  0
  7  2  1  0
 32 26  1  0
 15 10  1  0
 23 19  1  0
  8  9  1  0
 24 25  1  0
 36 37  1  0
M  END
> <minimizedAffinity>
-9.17230

> <CNNscore>
0.9156696796

> <CNNaffinity>
8.0587396622

> <CNN_VS>
7.3791437149

> <CNNaffinity_variance>
0.2110069394

$$$$



 41 44  0  0  0  0  0  0  0  0999 V2000
   22.2689   37.2128   18.2865 C   0  0  0  0  0  0  0  0  0  0  0  0
   21.8634   37.9890   19.4955 C   0  0  0  0  0  0  0  0  0  0  0  0
   21.9791   39.3604   19.5199 C   0  0  0  0  0  0  0  0  0  0  0  0
   21.6593   40.1244   20.5777 N   0  0  0  0  0  0  0  0  0  0  0  0
   21.2055   39.5006   21.6689 C   0  0  0  0  0  0  0  0  0  0  0  0
   21.0376   38.1705   21.7352 N   0  0  0  0  0  0  0  0  0  0  0  0
   21.3427   37.4336   20.6508 C   0  0  0  0  0  0  0  0  0  0  0  0
   20.8679   40.1903   22.8300 N   0  0  0  0  0  0  0  0  0  0  0  0
   20.3432   41.0046   22.6542 H   0  0  0  0  0  0  0  0  0  0  0  0
   21.1102   39.9809   24.1909 C   0  0  0  0  0  0  0  0  0  0  0  0
   20.0461   40.1271   25.0919 C   0  0  0  0  0  0  0  0  0  0  0  0
   20.2242   39.9287   26.4656 C   0  0  0  0  0  0  0  0  0  0  0  0
   21.4734   39.5851   26.9789 C   0  0  0  0  0  0  0  0  0  0  0  0
   22.5431   39.4527   26.1000 C   0  0  0  0  0  0  0  0  0  0  0  0
   22.3592   39.6498   24.7222 C   0  0  0  0  0  0  0  0  0  0  0  0
   21.5017   39.4069   28.3317 O   0  0  0  0  0  0  0  0  0  0  0  0
   22.5784   38.6667   28.9119 C   0  0  0  0  0  0  0  0  0  0  0  0
   23.6984   39.5704   29.4650 C   0  0  0  0  0  0  0  0  0  0  0  0
   25.0623   39.1175   29.1423 N   0  0  0  0  0  0  0  0  0  0  0  0
   25.3156   37.7633   29.6429 C   0  0  0  0  0  0  0  0  0  0  0  0
   26.8324   37.6409   29.6051 C   0  0  0  0  0  0  0  0  0  0  0  0
   27.3486   39.0745   29.5971 C   0  0  0  0  0  0  0  0  0  0  0  0
   26.1091   39.9426   29.7502 C   0  0  0  0  0  0  0  0  0  0  0  0
   21.1265   36.0491   20.7993 N   0  0  0  0  0  0  0  0  0  0  0  0
   21.6112   35.4543   20.1825 H   0  0  0  0  0  0  0  0  0  0  0  0
   20.2783   35.4307   21.7516 C   0  0  0  0  0  0  0  0  0  0  0  0
   19.8274   36.0817   22.9078 C   0  0  0  0  0  0  0  0  0  0  0  0
   19.0329   35.4052   23.8368 C   0  0  0  0  0  0  0  0  0  0  0  0
   18.4102   36.3166   25.3723 Br  0  0  0  0  0  0  0  0  0  0  0  0
   18.7015   34.0670   23.6514 C   0  0  0  0  0  0  0  0  0  0  0  0
   19.1956   33.4021   22.5293 C   0  0  0  0  0  0  0  0  0  0  0  0
   19.9725   34.0760   21.5795 C   0  0  0  0  0  0  0  0  0  0  0  0
   18.8043   31.6963   22.2643 S   0  0  0  0  0  0  0  0  0  0  0  0
   17.6724   31.3468   23.0914 O   0  0  0  0  0  0  0  0  0  0  0  0
   18.7747   31.4922   20.8313 O   0  0  0  0  0  0  0  0  0  0  0  0
   20.1578   30.8845   22.8040 N   0  0  0  0  0  0  0  0  0  0  0  0
   20.7746   31.6179   23.1534 H   0  0  0  0  0  0  0  0  0  0  0  0
   20.2396   29.8170   23.8171 C   0  0  0  0  0  0  0  0  0  0  0  0
   21.6442   29.2377   23.9846 C   0  0  0  0  0  0  0  0  0  0  0  0
   19.2403   28.7105   23.4646 C   0  0  0  0  0  0  0  0  0  0  0  0
   19.8156   30.4535   25.1543 C   0  0  0  0  0  0  0  0  0  0  0  0
  1  2  1  0
  2  3  2  0
  3  4  1  0
  4  5  2  0
  5  8  1  0
  8 10  1  0
 10 11  2  0
 11 12  1  0
 12 13  2  0
 13 16  1  0
 16 17  1  0
 17 18  1  0
 18 19  1  0
 19 20  1  0
 20 21  1  0
 21 22  1  0
 22 23  1  0
 13 14  1  0
 14 15  2  0
  5  6  1  0
  6  7  2  0
  7 24  1  0
 24 26  1  0
 26 27  2  0
 27 28  1  0
 28 29  1  0
 28 30  2  0
 30 31  1  0
 31 33  1  0
 33 34  2  0
 33 35  2  0
 33 36  1  0
 36 38  1  0
 38 39  1  0
 38 40  1  0
 38 41  1  0
 31 32  2  0
  7  2  1  0
 32 26  1  0
 15 10  1  0
 23 19  1  0
  8  9  1  0
 24 25  1  0
 36 37  1  0
M  END
> <minimizedAffinity>
-8.64054

> <CNNscore>
0.6794243455

> <CNNaffinity>
7.6164665222

> <CNN_VS>
5.1748127937

> <CNNaffinity_variance>
0.2126323432

$$$$



 41 44  0  0  0  0  0  0  0  0999 V2000
   19.7787   33.5505   21.0548 C   0  0  0  0  0  0  0  0  0  0  0  0
   19.8287   34.7096   21.9943 C   0  0  0  0  0  0  0  0  0  0  0  0
   19.2110   34.6439   23.2226 C   0  0  0  0  0  0  0  0  0  0  0  0
   19.1907   35.6523   24.1101 N   0  0  0  0  0  0  0  0  0  0  0  0
   19.8094   36.7852   23.7642 C   0  0  0  0  0  0  0  0  0  0  0  0
   20.4573   36.9391   22.5988 N   0  0  0  0  0  0  0  0  0  0  0  0
   20.4820   35.9025   21.7403 C   0  0  0  0  0  0  0  0  0  0  0  0
   19.8300   37.9016   24.5956 N   0  0  0  0  0  0  0  0  0  0  0  0
   18.9391   38.3000   24.7256 H   0  0  0  0  0  0  0  0  0  0  0  0
   20.8376   38.5813   25.2865 C   0  0  0  0  0  0  0  0  0  0  0  0
   20.5212   39.1845   26.5118 C   0  0  0  0  0  0  0  0  0  0  0  0
   21.4861   39.8769   27.2518 C   0  0  0  0  0  0  0  0  0  0  0  0
   22.7938   39.9922   26.7844 C   0  0  0  0  0  0  0  0  0  0  0  0
   23.1196   39.4138   25.5624 C   0  0  0  0  0  0  0  0  0  0  0  0
   22.1491   38.7175   24.8247 C   0  0  0  0  0  0  0  0  0  0  0  0
   23.6339   40.6792   27.6120 O   0  0  0  0  0  0  0  0  0  0  0  0
   23.8490   40.1952   28.9400 C   0  0  0  0  0  0  0  0  0  0  0  0
   24.6874   38.9019   28.9788 C   0  0  0  0  0  0  0  0  0  0  0  0
   25.7594   38.9007   29.9888 N   0  0  0  0  0  0  0  0  0  0  0  0
   26.8940   39.7314   29.5749 C   0  0  0  0  0  0  0  0  0  0  0  0
   28.0249   39.2816   30.4892 C   0  0  0  0  0  0  0  0  0  0  0  0
   27.6173   37.8968   30.9769 C   0  0  0  0  0  0  0  0  0  0  0  0
   26.3343   37.5742   30.2263 C   0  0  0  0  0  0  0  0  0  0  0  0
   21.1923   36.1423   20.5472 N   0  0  0  0  0  0  0  0  0  0  0  0
   21.5952   35.3608   20.1043 H   0  0  0  0  0  0  0  0  0  0  0  0
   21.3824   37.4008   19.9235 C   0  0  0  0  0  0  0  0  0  0  0  0
   20.7184   38.5641   20.3354 C   0  0  0  0  0  0  0  0  0  0  0  0
   20.9075   39.7672   19.6505 C   0  0  0  0  0  0  0  0  0  0  0  0
   20.0252   41.3298   20.2470 Br  0  0  0  0  0  0  0  0  0  0  0  0
   21.7293   39.8283   18.5299 C   0  0  0  0  0  0  0  0  0  0  0  0
   22.3470   38.6593   18.0856 C   0  0  0  0  0  0  0  0  0  0  0  0
   22.1842   37.4534   18.7777 C   0  0  0  0  0  0  0  0  0  0  0  0
   23.3917   38.6950   16.6571 S   0  0  0  0  0  0  0  0  0  0  0  0
   23.0345   39.8391   15.8505 O   0  0  0  0  0  0  0  0  0  0  0  0
   24.7480   38.5051   17.1266 O   0  0  0  0  0  0  0  0  0  0  0  0
   23.0015   37.2951   15.8384 N   0  0  0  0  0  0  0  0  0  0  0  0
   22.2739   37.5765   15.1812 H   0  0  0  0  0  0  0  0  0  0  0  0
   23.8893   36.4169   15.0553 C   0  0  0  0  0  0  0  0  0  0  0  0
   25.0739   37.1486   14.4245 C   0  0  0  0  0  0  0  0  0  0  0  0
   23.0671   35.6986   13.9806 C   0  0  0  0  0  0  0  0  0  0  0  0
   24.4375   35.3653   16.0384 C   0  0  0  0  0  0  0  0  0  0  0  0
  1  2  1  0
  2  3  2  0
  3  4  1  0
  4  5  2  0
  5  8  1  0
  8 10  1  0
 10 11  2  0
 11 12  1  0
 12 13  2  0
 13 16  1  0
 16 17  1  0
 17 18  1  0
 18 19  1  0
 19 20  1  0
 20 21  1  0
 21 22  1  0
 22 23  1  0
 13 14  1  0
 14 15  2  0
  5  6  1  0
  6  7  2  0
  7 24  1  0
 24 26  1  0
 26 27  2  0
 27 28  1  0
 28 29  1  0
 28 30  2  0
 30 31  1  0
 31 33  1  0
 33 34  2  0
 33 35  2  0
 33 36  1  0
 36 38  1  0
 38 39  1  0
 38 40  1  0
 38 41  1  0
 31 32  2  0
  7  2  1  0
 32 26  1  0
 15 10  1  0
 23 19  1  0
  8  9  1  0
 24 25  1  0
 36 37  1  0
M  END
> <minimizedAffinity>
-8.81086

> <CNNscore>
0.5183973312

> <CNNaffinity>
7.4080128670

> <CNN_VS>
3.8402941227

> <CNNaffinity_variance>
0.9395295978

$$$$



 41 44  0  0  0  0  0  0  0  0999 V2000
   20.9795   38.4546   18.5211 C   0  0  0  0  0  0  0  0  0  0  0  0
   21.0722   39.0652   19.8801 C   0  0  0  0  0  0  0  0  0  0  0  0
   21.0967   40.4328   20.0344 C   0  0  0  0  0  0  0  0  0  0  0  0
   21.2038   41.0550   21.2203 N   0  0  0  0  0  0  0  0  0  0  0  0
   21.2956   40.2860   22.3093 C   0  0  0  0  0  0  0  0  0  0  0  0
   21.2597   38.9450   22.2638 N   0  0  0  0  0  0  0  0  0  0  0  0
   21.1262   38.3503   21.0635 C   0  0  0  0  0  0  0  0  0  0  0  0
   21.4353   40.8233   23.5859 N   0  0  0  0  0  0  0  0  0  0  0  0
   21.4874   41.8065   23.5852 H   0  0  0  0  0  0  0  0  0  0  0  0
   21.5178   40.2737   24.8688 C   0  0  0  0  0  0  0  0  0  0  0  0
   22.7728   39.8706   25.3463 C   0  0  0  0  0  0  0  0  0  0  0  0
   22.9212   39.3158   26.6224 C   0  0  0  0  0  0  0  0  0  0  0  0
   21.8176   39.1416   27.4553 C   0  0  0  0  0  0  0  0  0  0  0  0
   20.5632   39.5209   26.9899 C   0  0  0  0  0  0  0  0  0  0  0  0
   20.4194   40.0799   25.7101 C   0  0  0  0  0  0  0  0  0  0  0  0
   22.1071   38.6049   28.6762 O   0  0  0  0  0  0  0  0  0  0  0  0
   23.4207   38.7736   29.2147 C   0  0  0  0  0  0  0  0  0  0  0  0
   23.4233   39.5019   30.5736 C   0  0  0  0  0  0  0  0  0  0  0  0
   23.4941   38.6095   31.7432 N   0  0  0  0  0  0  0  0  0  0  0  0
   24.8689   38.1786   32.0129 C   0  0  0  0  0  0  0  0  0  0  0  0
   24.6984   36.9793   32.9347 C   0  0  0  0  0  0  0  0  0  0  0  0
   23.2728   36.4952   32.7006 C   0  0  0  0  0  0  0  0  0  0  0  0
   22.7390   37.3656   31.5733 C   0  0  0  0  0  0  0  0  0  0  0  0
   21.0849   36.9424   21.1048 N   0  0  0  0  0  0  0  0  0  0  0  0
   21.6787   36.4613   20.4842 H   0  0  0  0  0  0  0  0  0  0  0  0
   20.2704   36.1524   21.9542 C   0  0  0  0  0  0  0  0  0  0  0  0
   19.8212   36.5934   23.2062 C   0  0  0  0  0  0  0  0  0  0  0  0
   19.0617   35.7514   24.0225 C   0  0  0  0  0  0  0  0  0  0  0  0
   18.4399   36.3826   25.6932 Br  0  0  0  0  0  0  0  0  0  0  0  0
   18.7647   34.4516   23.6261 C   0  0  0  0  0  0  0  0  0  0  0  0
   19.2582   33.9926   22.4049 C   0  0  0  0  0  0  0  0  0  0  0  0
   19.9998   34.8349   21.5679 C   0  0  0  0  0  0  0  0  0  0  0  0
   18.9102   32.3413   21.8709 S   0  0  0  0  0  0  0  0  0  0  0  0
   17.6130   31.9548   22.3762 O   0  0  0  0  0  0  0  0  0  0  0  0
   19.2073   32.2888   20.4550 O   0  0  0  0  0  0  0  0  0  0  0  0
   20.0899   31.4226   22.6101 N   0  0  0  0  0  0  0  0  0  0  0  0
   20.7550   32.1043   22.9753 H   0  0  0  0  0  0  0  0  0  0  0  0
   19.9346   30.4375   23.6956 C   0  0  0  0  0  0  0  0  0  0  0  0
   18.9671   29.3028   23.3593 C   0  0  0  0  0  0  0  0  0  0  0  0
   19.4925   31.1602   24.9721 C   0  0  0  0  0  0  0  0  0  0  0  0
   21.3299   29.8297   23.9338 C   0  0  0  0  0  0  0  0  0  0  0  0
  1  2  1  0
  2  3  2  0
  3  4  1  0
  4  5  2  0
  5  8  1  0
  8 10  1  0
 10 11  2  0
 11 12  1  0
 12 13  2  0
 13 16  1  0
 16 17  1  0
 17 18  1  0
 18 19  1  0
 19 20  1  0
 20 21  1  0
 21 22  1  0
 22 23  1  0
 13 14  1  0
 14 15  2  0
  5  6  1  0
  6  7  2  0
  7 24  1  0
 24 26  1  0
 26 27  2  0
 27 28  1  0
 28 29  1  0
 28 30  2  0
 30 31  1  0
 31 33  1  0
 33 34  2  0
 33 35  2  0
 33 36  1  0
 36 38  1  0
 38 39  1  0
 38 40  1  0
 38 41  1  0
 31 32  2  0
  7  2  1  0
 32 26  1  0
 15 10  1  0
 23 19  1  0
  8  9  1  0
 24 25  1  0
 36 37  1  0
M  END
> <minimizedAffinity>
-8.51348

> <CNNscore>
0.5033037066

> <CNNaffinity>
7.5007748604

> <CNN_VS>
3.7751677036

> <CNNaffinity_variance>
0.4431103766

$$$$



 41 44  0  0  0  0  0  0  0  0999 V2000
   19.9630   33.0295   21.8048 C   0  0  0  0  0  0  0  0  0  0  0  0
   19.6253   34.3003   22.5117 C   0  0  0  0  0  0  0  0  0  0  0  0
   18.8796   34.2824   23.6686 C   0  0  0  0  0  0  0  0  0  0  0  0
   18.5148   35.3836   24.3465 N   0  0  0  0  0  0  0  0  0  0  0  0
   18.9036   36.5631   23.8534 C   0  0  0  0  0  0  0  0  0  0  0  0
   19.6502   36.6828   22.7443 N   0  0  0  0  0  0  0  0  0  0  0  0
   20.0217   35.5605   22.1005 C   0  0  0  0  0  0  0  0  0  0  0  0
   18.5615   37.7686   24.4598 N   0  0  0  0  0  0  0  0  0  0  0  0
   18.7858   37.7937   25.4181 H   0  0  0  0  0  0  0  0  0  0  0  0
   17.9694   38.9515   24.0071 C   0  0  0  0  0  0  0  0  0  0  0  0
   18.3939   40.1681   24.5594 C   0  0  0  0  0  0  0  0  0  0  0  0
   17.8419   41.3858   24.1466 C   0  0  0  0  0  0  0  0  0  0  0  0
   16.8442   41.4216   23.1744 C   0  0  0  0  0  0  0  0  0  0  0  0
   16.4001   40.2220   22.6288 C   0  0  0  0  0  0  0  0  0  0  0  0
   16.9590   39.0028   23.0438 C   0  0  0  0  0  0  0  0  0  0  0  0
   16.4070   42.6746   22.8556 O   0  0  0  0  0  0  0  0  0  0  0  0
   17.3634   43.6688   22.4803 C   0  0  0  0  0  0  0  0  0  0  0  0
   17.3135   44.0128   20.9783 C   0  0  0  0  0  0  0  0  0  0  0  0
   18.4745   44.7755   20.4888 N   0  0  0  0  0  0  0  0  0  0  0  0
   19.2221   45.3897   21.5900 C   0  0  0  0  0  0  0  0  0  0  0  0
   20.0813   46.4413   20.9024 C   0  0  0  0  0  0  0  0  0  0  0  0
   19.3910   46.7131   19.5715 C   0  0  0  0  0  0  0  0  0  0  0  0
   18.1105   45.8934   19.6148 C   0  0  0  0  0  0  0  0  0  0  0  0
   20.8129   35.7732   20.9541 N   0  0  0  0  0  0  0  0  0  0  0  0
   21.2945   34.9933   20.5947 H   0  0  0  0  0  0  0  0  0  0  0  0
   20.9819   37.0022   20.2687 C   0  0  0  0  0  0  0  0  0  0  0  0
   20.1738   38.1230   20.5022 C   0  0  0  0  0  0  0  0  0  0  0  0
   20.3548   39.2931   19.7603 C   0  0  0  0  0  0  0  0  0  0  0  0
   19.2729   40.8023   20.1180 Br  0  0  0  0  0  0  0  0  0  0  0  0
   21.3145   39.3591   18.7556 C   0  0  0  0  0  0  0  0  0  0  0  0
   22.0818   38.2263   18.4843 C   0  0  0  0  0  0  0  0  0  0  0  0
   21.9260   37.0564   19.2371 C   0  0  0  0  0  0  0  0  0  0  0  0
   23.3059   38.2683   17.2064 S   0  0  0  0  0  0  0  0  0  0  0  0
   22.7557   38.9548   16.0604 O   0  0  0  0  0  0  0  0  0  0  0  0
   24.5384   38.7116   17.8230 O   0  0  0  0  0  0  0  0  0  0  0  0
   23.5474   36.6619   16.8278 N   0  0  0  0  0  0  0  0  0  0  0  0
   22.6200   36.2416   16.8887 H   0  0  0  0  0  0  0  0  0  0  0  0
   24.1341   36.0901   15.6025 C   0  0  0  0  0  0  0  0  0  0  0  0
   25.2574   36.9390   15.0073 C   0  0  0  0  0  0  0  0  0  0  0  0
   23.0248   35.8662   14.5699 C   0  0  0  0  0  0  0  0  0  0  0  0
   24.7194   34.7214   15.9988 C   0  0  0  0  0  0  0  0  0  0  0  0
  1  2  1  0
  2  3  2  0
  3  4  1  0
  4  5  2  0
  5  8  1  0
  8 10  1  0
 10 11  2  0
 11 12  1  0
 12 13  2  0
 13 16  1  0
 16 17  1  0
 17 18  1  0
 18 19  1  0
 19 20  1  0
 20 21  1  0
 21 22  1  0
 22 23  1  0
 13 14  1  0
 14 15  2  0
  5  6  1  0
  6  7  2  0
  7 24  1  0
 24 26  1  0
 26 27  2  0
 27 28  1  0
 28 29  1  0
 28 30  2  0
 30 31  1  0
 31 33  1  0
 33 34  2  0
 33 35  2  0
 33 36  1  0
 36 38  1  0
 38 39  1  0
 38 40  1  0
 38 41  1  0
 31 32  2  0
  7  2  1  0
 32 26  1  0
 15 10  1  0
 23 19  1  0
  8  9  1  0
 24 25  1  0
 36 37  1  0
M  END
> <minimizedAffinity>
-8.08221

> <CNNscore>
0.4752623439

> <CNNaffinity>
7.6434721947

> <CNN_VS>
3.6326544285

> <CNNaffinity_variance>
0.4655873775

$$$$



 41 44  0  0  0  0  0  0  0  0999 V2000
   19.9793   33.1196   21.9605 C   0  0  0  0  0  0  0  0  0  0  0  0
   19.6747   34.4027   22.6600 C   0  0  0  0  0  0  0  0  0  0  0  0
   18.9494   34.4089   23.8298 C   0  0  0  0  0  0  0  0  0  0  0  0
   18.6145   35.5226   24.5024 N   0  0  0  0  0  0  0  0  0  0  0  0
   19.0137   36.6906   23.9903 C   0  0  0  0  0  0  0  0  0  0  0  0
   19.7424   36.7868   22.8672 N   0  0  0  0  0  0  0  0  0  0  0  0
   20.0842   35.6521   22.2288 C   0  0  0  0  0  0  0  0  0  0  0  0
   18.7019   37.9076   24.5901 N   0  0  0  0  0  0  0  0  0  0  0  0
   19.4697   38.3164   25.0513 H   0  0  0  0  0  0  0  0  0  0  0  0
   17.5381   38.6770   24.6814 C   0  0  0  0  0  0  0  0  0  0  0  0
   17.5113   39.7481   25.5856 C   0  0  0  0  0  0  0  0  0  0  0  0
   16.3774   40.5565   25.7216 C   0  0  0  0  0  0  0  0  0  0  0  0
   15.2346   40.3129   24.9622 C   0  0  0  0  0  0  0  0  0  0  0  0
   15.2391   39.2438   24.0729 C   0  0  0  0  0  0  0  0  0  0  0  0
   16.3802   38.4371   23.9375 C   0  0  0  0  0  0  0  0  0  0  0  0
   14.2093   41.1860   25.1835 O   0  0  0  0  0  0  0  0  0  0  0  0
   13.6965   41.9468   24.0870 C   0  0  0  0  0  0  0  0  0  0  0  0
   14.4950   43.2401   23.8286 C   0  0  0  0  0  0  0  0  0  0  0  0
   13.9963   44.4199   24.5558 N   0  0  0  0  0  0  0  0  0  0  0  0
   12.5313   44.4535   24.5930 C   0  0  0  0  0  0  0  0  0  0  0  0
   12.2117   45.8905   24.9802 C   0  0  0  0  0  0  0  0  0  0  0  0
   13.4595   46.6878   24.6214 C   0  0  0  0  0  0  0  0  0  0  0  0
   14.3838   45.6910   23.9391 C   0  0  0  0  0  0  0  0  0  0  0  0
   20.8584   35.8402   21.0665 N   0  0  0  0  0  0  0  0  0  0  0  0
   21.3469   35.0563   20.7255 H   0  0  0  0  0  0  0  0  0  0  0  0
   21.0014   37.0495   20.3414 C   0  0  0  0  0  0  0  0  0  0  0  0
   20.1679   38.1589   20.5368 C   0  0  0  0  0  0  0  0  0  0  0  0
   20.3243   39.3078   19.7571 C   0  0  0  0  0  0  0  0  0  0  0  0
   19.2081   40.8032   20.0635 Br  0  0  0  0  0  0  0  0  0  0  0  0
   21.2845   39.3624   18.7523 C   0  0  0  0  0  0  0  0  0  0  0  0
   22.0776   38.2389   18.5195 C   0  0  0  0  0  0  0  0  0  0  0  0
   21.9463   37.0910   19.3100 C   0  0  0  0  0  0  0  0  0  0  0  0
   23.3033   38.2664   17.2427 S   0  0  0  0  0  0  0  0  0  0  0  0
   22.7514   38.9319   16.0851 O   0  0  0  0  0  0  0  0  0  0  0  0
   24.5328   38.7255   17.8538 O   0  0  0  0  0  0  0  0  0  0  0  0
   23.5530   36.6554   16.8901 N   0  0  0  0  0  0  0  0  0  0  0  0
   22.6334   36.2253   16.9892 H   0  0  0  0  0  0  0  0  0  0  0  0
   24.1080   36.0649   15.6589 C   0  0  0  0  0  0  0  0  0  0  0  0
   23.0830   35.9165   14.5346 C   0  0  0  0  0  0  0  0  0  0  0  0
   24.7413   34.7100   15.9911 C   0  0  0  0  0  0  0  0  0  0  0  0
   25.2170   37.0208   15.1801 C   0  0  0  0  0  0  0  0  0  0  0  0
  1  2  1  0
  2  3  2  0
  3  4  1  0
  4  5  2  0
  5  8  1  0
  8 10  1  0
 10 11  2  0
 11 12  1  0
 12 13  2  0
 13 16  1  0
 16 17  1  0
 17 18  1  0
 18 19  1  0
 19 20  1  0
 20 21  1  0
 21 22  1  0
 22 23  1  0
 13 14  1  0
 14 15  2  0
  5  6  1  0
  6  7  2  0
  7 24  1  0
 24 26  1  0
 26 27  2  0
 27 28  1  0
 28 29  1  0
 28 30  2  0
 30 31  1  0
 31 33  1  0
 33 34  2  0
 33 35  2  0
 33 36  1  0
 36 38  1  0
 38 39  1  0
 38 40  1  0
 38 41  1  0
 31 32  2  0
  7  2  1  0
 32 26  1  0
 15 10  1  0
 23 19  1  0
  8  9  1  0
 24 25  1  0
 36 37  1  0
M  END
> <minimizedAffinity>
-8.03208

> <CNNscore>
0.4322715998

> <CNNaffinity>
6.9842162132

> <CNN_VS>
3.0190782547

> <CNNaffinity_variance>
0.9536989331

$$$$



 41 44  0  0  0  0  0  0  0  0999 V2000
   19.8365   33.1225   21.7511 C   0  0  0  0  0  0  0  0  0  0  0  0
   19.5965   34.3841   22.5123 C   0  0  0  0  0  0  0  0  0  0  0  0
   18.8672   34.3709   23.6796 C   0  0  0  0  0  0  0  0  0  0  0  0
   18.5882   35.4664   24.4056 N   0  0  0  0  0  0  0  0  0  0  0  0
   19.0503   36.6355   23.9524 C   0  0  0  0  0  0  0  0  0  0  0  0
   19.7880   36.7483   22.8368 N   0  0  0  0  0  0  0  0  0  0  0  0
   20.0728   35.6298   22.1439 C   0  0  0  0  0  0  0  0  0  0  0  0
   18.8000   37.8363   24.6107 N   0  0  0  0  0  0  0  0  0  0  0  0
   19.5953   38.1988   25.0640 H   0  0  0  0  0  0  0  0  0  0  0  0
   17.6676   38.6407   24.7697 C   0  0  0  0  0  0  0  0  0  0  0  0
   16.5797   38.4454   23.9073 C   0  0  0  0  0  0  0  0  0  0  0  0
   15.4173   39.2166   24.0172 C   0  0  0  0  0  0  0  0  0  0  0  0
   15.3119   40.2104   24.9883 C   0  0  0  0  0  0  0  0  0  0  0  0
   16.3890   40.4281   25.8407 C   0  0  0  0  0  0  0  0  0  0  0  0
   17.5521   39.6499   25.7288 C   0  0  0  0  0  0  0  0  0  0  0  0
   14.1197   40.8746   24.9936 O   0  0  0  0  0  0  0  0  0  0  0  0
   12.9902   40.2683   25.6266 C   0  0  0  0  0  0  0  0  0  0  0  0
   12.3264   41.1839   26.6745 C   0  0  0  0  0  0  0  0  0  0  0  0
   11.3329   40.5117   27.5292 N   0  0  0  0  0  0  0  0  0  0  0  0
   10.4573   39.6304   26.7512 C   0  0  0  0  0  0  0  0  0  0  0  0
    9.2801   39.3757   27.6820 C   0  0  0  0  0  0  0  0  0  0  0  0
    9.3073   40.5237   28.6835 C   0  0  0  0  0  0  0  0  0  0  0  0
   10.4235   41.4398   28.2057 C   0  0  0  0  0  0  0  0  0  0  0  0
   20.8610   35.8337   20.9938 N   0  0  0  0  0  0  0  0  0  0  0  0
   21.3084   35.0428   20.6149 H   0  0  0  0  0  0  0  0  0  0  0  0
   21.0715   37.0682   20.3301 C   0  0  0  0  0  0  0  0  0  0  0  0
   20.3494   38.2302   20.6339 C   0  0  0  0  0  0  0  0  0  0  0  0
   20.5651   39.4067   19.9118 C   0  0  0  0  0  0  0  0  0  0  0  0
   19.6014   40.9697   20.3637 Br  0  0  0  0  0  0  0  0  0  0  0  0
   21.4731   39.4407   18.8585 C   0  0  0  0  0  0  0  0  0  0  0  0
   22.1518   38.2704   18.5190 C   0  0  0  0  0  0  0  0  0  0  0  0
   21.9617   37.0921   19.2506 C   0  0  0  0  0  0  0  0  0  0  0  0
   23.3073   38.2714   17.1781 S   0  0  0  0  0  0  0  0  0  0  0  0
   22.7042   38.9385   16.0474 O   0  0  0  0  0  0  0  0  0  0  0  0
   24.5747   38.7150   17.7193 O   0  0  0  0  0  0  0  0  0  0  0  0
   23.5134   36.6546   16.8235 N   0  0  0  0  0  0  0  0  0  0  0  0
   22.5705   36.2660   16.8397 H   0  0  0  0  0  0  0  0  0  0  0  0
   24.1422   36.0531   15.6338 C   0  0  0  0  0  0  0  0  0  0  0  0
   24.8100   34.7059   15.9089 C   0  0  0  0  0  0  0  0  0  0  0  0
   25.1515   37.0426   15.0429 C   0  0  0  0  0  0  0  0  0  0  0  0
   23.0128   35.8336   14.6095 C   0  0  0  0  0  0  0  0  0  0  0  0
  1  2  1  0
  2  3  2  0
  3  4  1  0
  4  5  2  0
  5  8  1  0
  8 10  1  0
 10 11  2  0
 11 12  1  0
 12 13  2  0
 13 16  1  0
 16 17  1  0
 17 18  1  0
 18 19  1  0
 19 20  1  0
 20 21  1  0
 21 22  1  0
 22 23  1  0
 13 14  1  0
 14 15  2  0
  5  6  1  0
  6  7  2  0
  7 24  1  0
 24 26  1  0
 26 27  2  0
 27 28  1  0
 28 29  1  0
 28 30  2  0
 30 31  1  0
 31 33  1  0
 33 34  2  0
 33 35  2  0
 33 36  1  0
 36 38  1  0
 38 39  1  0
 38 40  1  0
 38 41  1  0
 31 32  2  0
  7  2  1  0
 32 26  1  0
 15 10  1  0
 23 19  1  0
  8  9  1  0
 24 25  1  0
 36 37  1  0
M  END
> <minimizedAffinity>
-8.68962

> <CNNscore>
0.4028000236

> <CNNaffinity>
7.3428363800

> <CNN_VS>
2.9576947689

> <CNNaffinity_variance>
0.7761886716

$$$$



 41 44  0  0  0  0  0  0  0  0999 V2000
   19.4145   33.2775   21.6406 C   0  0  0  0  0  0  0  0  0  0  0  0
   19.4951   34.4835   22.5166 C   0  0  0  0  0  0  0  0  0  0  0  0
   18.8977   34.4908   23.7567 C   0  0  0  0  0  0  0  0  0  0  0  0
   18.9053   35.5447   24.5900 N   0  0  0  0  0  0  0  0  0  0  0  0
   19.5321   36.6493   24.1747 C   0  0  0  0  0  0  0  0  0  0  0  0
   20.1619   36.7331   22.9923 N   0  0  0  0  0  0  0  0  0  0  0  0
   20.1589   35.6526   22.1894 C   0  0  0  0  0  0  0  0  0  0  0  0
   19.5809   37.8075   24.9455 N   0  0  0  0  0  0  0  0  0  0  0  0
   18.8791   37.8397   25.6353 H   0  0  0  0  0  0  0  0  0  0  0  0
   20.4074   38.9351   24.9555 C   0  0  0  0  0  0  0  0  0  0  0  0
   21.5500   38.9221   25.7678 C   0  0  0  0  0  0  0  0  0  0  0  0
   22.4177   40.0186   25.8194 C   0  0  0  0  0  0  0  0  0  0  0  0
   22.1643   41.1628   25.0654 C   0  0  0  0  0  0  0  0  0  0  0  0
   21.0259   41.1980   24.2674 C   0  0  0  0  0  0  0  0  0  0  0  0
   20.1596   40.0944   24.2163 C   0  0  0  0  0  0  0  0  0  0  0  0
   23.0986   42.1487   25.1985 O   0  0  0  0  0  0  0  0  0  0  0  0
   22.6645   43.5070   25.3015 C   0  0  0  0  0  0  0  0  0  0  0  0
   22.0523   44.0423   23.9917 C   0  0  0  0  0  0  0  0  0  0  0  0
   21.8652   45.5029   23.9587 N   0  0  0  0  0  0  0  0  0  0  0  0
   21.8267   46.0744   25.3080 C   0  0  0  0  0  0  0  0  0  0  0  0
   21.2193   47.4545   25.0997 C   0  0  0  0  0  0  0  0  0  0  0  0
   20.4804   47.3690   23.7699 C   0  0  0  0  0  0  0  0  0  0  0  0
   20.6015   45.9144   23.3422 C   0  0  0  0  0  0  0  0  0  0  0  0
   20.8517   35.8198   20.9738 N   0  0  0  0  0  0  0  0  0  0  0  0
   21.2644   35.0162   20.5826 H   0  0  0  0  0  0  0  0  0  0  0  0
   21.0114   37.0340   20.2604 C   0  0  0  0  0  0  0  0  0  0  0  0
   20.1933   38.1530   20.4667 C   0  0  0  0  0  0  0  0  0  0  0  0
   20.3656   39.3071   19.6981 C   0  0  0  0  0  0  0  0  0  0  0  0
   19.2703   40.8148   20.0192 Br  0  0  0  0  0  0  0  0  0  0  0  0
   21.3264   39.3580   18.6935 C   0  0  0  0  0  0  0  0  0  0  0  0
   22.1038   38.2259   18.4497 C   0  0  0  0  0  0  0  0  0  0  0  0
   21.9566   37.0724   19.2292 C   0  0  0  0  0  0  0  0  0  0  0  0
   23.3295   38.2488   17.1729 S   0  0  0  0  0  0  0  0  0  0  0  0
   22.7581   38.8561   15.9931 O   0  0  0  0  0  0  0  0  0  0  0  0
   24.5430   38.7675   17.7681 O   0  0  0  0  0  0  0  0  0  0  0  0
   23.6310   36.6353   16.8759 N   0  0  0  0  0  0  0  0  0  0  0  0
   22.7471   36.1677   17.0769 H   0  0  0  0  0  0  0  0  0  0  0  0
   24.1070   36.0091   15.6294 C   0  0  0  0  0  0  0  0  0  0  0  0
   23.0064   35.8014   14.5891 C   0  0  0  0  0  0  0  0  0  0  0  0
   24.7895   34.6787   15.9627 C   0  0  0  0  0  0  0  0  0  0  0  0
   25.1591   36.9656   15.0368 C   0  0  0  0  0  0  0  0  0  0  0  0
  1  2  1  0
  2  3  2  0
  3  4  1  0
  4  5  2  0
  5  8  1  0
  8 10  1  0
 10 11  2  0
 11 12  1  0
 12 13  2  0
 13 16  1  0
 16 17  1  0
 17 18  1  0
 18 19  1  0
 19 20  1  0
 20 21  1  0
 21 22  1  0
 22 23  1  0
 13 14  1  0
 14 15  2  0
  5  6  1  0
  6  7  2  0
  7 24  1  0
 24 26  1  0
 26 27  2  0
 27 28  1  0
 28 29  1  0
 28 30  2  0
 30 31  1  0
 31 33  1  0
 33 34  2  0
 33 35  2  0
 33 36  1  0
 36 38  1  0
 38 39  1  0
 38 40  1  0
 38 41  1  0
 31 32  2  0
  7  2  1  0
 32 26  1  0
 15 10  1  0
 23 19  1  0
  8  9  1  0
 24 25  1  0
 36 37  1  0
M  END
> <minimizedAffinity>
-8.41931

> <CNNscore>
0.3794373274

> <CNNaffinity>
7.5441231728

> <CNN_VS>
2.8625218868

> <CNNaffinity_variance>
0.5987457633

$$$$
