


 20 21  0  0  0  0  0  0  0  0999 V2000
    2.3536    5.4325    9.5633 N   0  0  0  0  0  0  0  0  0  0  0  0
    1.0201    5.1921    9.5433 C   0  0  0  0  0  0  0  0  0  0  0  0
    0.5116    4.2655   10.2909 N   0  0  0  0  0  0  0  0  0  0  0  0
   -0.8495    4.0687   10.2341 C   0  0  0  0  0  0  0  0  0  0  0  0
   -1.6674    4.7718    9.4380 C   0  0  0  0  0  0  0  0  0  0  0  0
   -1.0752    5.8114    8.5874 C   0  0  0  0  0  0  0  0  0  0  0  0
   -1.7577    6.4777    7.8187 O   0  0  0  0  0  0  0  0  0  0  0  0
    0.2708    5.9714    8.7196 N   0  0  0  0  0  0  0  0  0  0  0  0
    2.9419    4.8964   10.1428 H   0  0  0  0  0  0  0  0  0  0  0  0
    2.7342    6.1433    8.9984 H   0  0  0  0  0  0  0  0  0  0  0  0
    0.7176    6.6777    8.1993 H   0  0  0  0  0  0  0  0  0  0  0  0
   -1.3860    2.9677   11.1202 C   0  0  0  0  0  0  0  0  0  0  0  0
   -2.8883    3.1237   11.3781 C   0  0  0  0  0  0  0  0  0  0  0  0
   -3.6286    1.8246   11.1621 C   0  0  0  0  0  0  0  0  0  0  0  0
   -2.9208    0.6176   11.0527 C   0  0  0  0  0  0  0  0  0  0  0  0
   -3.6014   -0.5810   10.8361 C   0  0  0  0  0  0  0  0  0  0  0  0
   -4.9864   -0.5719   10.7253 C   0  0  0  0  0  0  0  0  0  0  0  0
   -5.6391   -1.7230   10.5168 F   0  0  0  0  0  0  0  0  0  0  0  0
   -5.7047    0.6134   10.8255 C   0  0  0  0  0  0  0  0  0  0  0  0
   -5.0265    1.8136   11.0419 C   0  0  0  0  0  0  0  0  0  0  0  0
  1  2  1  0
  2  3  2  0
  3  4  1  0
  4 12  1  0
 12 13  1  0
 13 14  1  0
 14 15  2  0
 15 16  1  0
 16 17  2  0
 17 18  1  0
 17 19  1  0
 19 20  2  0
  4  5  2  0
  5  6  1  0
  6  7  2  0
  6  8  1  0
  8  2  1  0
 20 14  1  0
  1  9  1  0
  1 10  1  0
  8 11  1  0
M  END
> <minimizedAffinity>
-8.47476

> <CNNscore>
0.6551403999

> <CNNaffinity>
4.6338376999

> <CNN_VS>
3.0358142853

> <CNNaffinity_variance>
0.7569051385

$$$$



 20 21  0  0  0  0  0  0  0  0999 V2000
    1.5642    4.9726    9.4601 N   0  0  0  0  0  0  0  0  0  0  0  0
    1.4549    6.2764    9.8133 C   0  0  0  0  0  0  0  0  0  0  0  0
    1.5516    6.6275   11.0556 N   0  0  0  0  0  0  0  0  0  0  0  0
    1.4381    7.9660   11.3559 C   0  0  0  0  0  0  0  0  0  0  0  0
    1.2181    8.9158   10.4358 C   0  0  0  0  0  0  0  0  0  0  0  0
    1.0991    8.5016    9.0325 C   0  0  0  0  0  0  0  0  0  0  0  0
    0.8758    9.3113    8.1409 O   0  0  0  0  0  0  0  0  0  0  0  0
    1.2537    7.1674    8.8068 N   0  0  0  0  0  0  0  0  0  0  0  0
    1.7106    4.2862   10.1505 H   0  0  0  0  0  0  0  0  0  0  0  0
    1.4973    4.7118    8.5131 H   0  0  0  0  0  0  0  0  0  0  0  0
    1.2184    6.8361    7.8804 H   0  0  0  0  0  0  0  0  0  0  0  0
    1.5491    8.3163   12.8221 C   0  0  0  0  0  0  0  0  0  0  0  0
    2.6118    7.4710   13.5321 C   0  0  0  0  0  0  0  0  0  0  0  0
    3.4093    8.2918   14.5183 C   0  0  0  0  0  0  0  0  0  0  0  0
    3.9687    9.5183   14.1277 C   0  0  0  0  0  0  0  0  0  0  0  0
    4.7199   10.2697   15.0320 C   0  0  0  0  0  0  0  0  0  0  0  0
    4.9145    9.7937   16.3228 C   0  0  0  0  0  0  0  0  0  0  0  0
    5.6365   10.5154   17.1902 F   0  0  0  0  0  0  0  0  0  0  0  0
    4.3735    8.5793   16.7269 C   0  0  0  0  0  0  0  0  0  0  0  0
    3.6218    7.8257   15.8245 C   0  0  0  0  0  0  0  0  0  0  0  0
  1  2  1  0
  2  3  2  0
  3  4  1  0
  4 12  1  0
 12 13  1  0
 13 14  1  0
 14 15  2  0
 15 16  1  0
 16 17  2  0
 17 18  1  0
 17 19  1  0
 19 20  2  0
  4  5  2  0
  5  6  1  0
  6  7  2  0
  6  8  1  0
  8  2  1  0
 20 14  1  0
  1  9  1  0
  1 10  1  0
  8 11  1  0
M  END
> <minimizedAffinity>
-6.97359

> <CNNscore>
0.6116914153

> <CNNaffinity>
4.2433581352

> <CNN_VS>
2.5956256390

> <CNNaffinity_variance>
0.8666369319

$$$$



 20 21  0  0  0  0  0  0  0  0999 V2000
    1.6679    5.2951    9.5486 N   0  0  0  0  0  0  0  0  0  0  0  0
    1.8844    6.5053   10.1188 C   0  0  0  0  0  0  0  0  0  0  0  0
    1.6450    6.6870   11.3780 N   0  0  0  0  0  0  0  0  0  0  0  0
    1.8883    7.9350   11.9050 C   0  0  0  0  0  0  0  0  0  0  0  0
    2.3421    8.9690   11.1824 C   0  0  0  0  0  0  0  0  0  0  0  0
    2.5981    8.7514    9.7534 C   0  0  0  0  0  0  0  0  0  0  0  0
    2.9919    9.6556    9.0267 O   0  0  0  0  0  0  0  0  0  0  0  0
    2.3656    7.4852    9.3090 N   0  0  0  0  0  0  0  0  0  0  0  0
    1.3199    4.5507   10.0909 H   0  0  0  0  0  0  0  0  0  0  0  0
    1.8587    5.1603    8.5923 H   0  0  0  0  0  0  0  0  0  0  0  0
    2.5530    7.2717    8.3664 H   0  0  0  0  0  0  0  0  0  0  0  0
    1.5815    8.0918   13.3768 C   0  0  0  0  0  0  0  0  0  0  0  0
    2.6408    7.4183   14.2556 C   0  0  0  0  0  0  0  0  0  0  0  0
    3.4390    8.4319   15.0417 C   0  0  0  0  0  0  0  0  0  0  0  0
    3.6039    8.2808   16.4272 C   0  0  0  0  0  0  0  0  0  0  0  0
    4.3263    9.2248   17.1577 C   0  0  0  0  0  0  0  0  0  0  0  0
    4.8793   10.3195   16.5047 C   0  0  0  0  0  0  0  0  0  0  0  0
    5.5722   11.2258   17.2068 F   0  0  0  0  0  0  0  0  0  0  0  0
    4.7226   10.4896   15.1345 C   0  0  0  0  0  0  0  0  0  0  0  0
    4.0004    9.5470   14.4014 C   0  0  0  0  0  0  0  0  0  0  0  0
  1  2  1  0
  2  3  2  0
  3  4  1  0
  4 12  1  0
 12 13  1  0
 13 14  1  0
 14 15  2  0
 15 16  1  0
 16 17  2  0
 17 18  1  0
 17 19  1  0
 19 20  2  0
  4  5  2  0
  5  6  1  0
  6  7  2  0
  6  8  1  0
  8  2  1  0
 20 14  1  0
  1  9  1  0
  1 10  1  0
  8 11  1  0
M  END
> <minimizedAffinity>
-6.79840

> <CNNscore>
0.5270898342

> <CNNaffinity>
4.3419175148

> <CNN_VS>
2.2885806561

> <CNNaffinity_variance>
0.8158742785

$$$$



 20 21  0  0  0  0  0  0  0  0999 V2000
    1.9135    4.8059    9.3081 N   0  0  0  0  0  0  0  0  0  0  0  0
    0.7111    5.4305    9.2870 C   0  0  0  0  0  0  0  0  0  0  0  0
    0.6150    6.6494    8.8615 N   0  0  0  0  0  0  0  0  0  0  0  0
   -0.6319    7.2322    8.8572 C   0  0  0  0  0  0  0  0  0  0  0  0
   -1.7414    6.6120    9.2832 C   0  0  0  0  0  0  0  0  0  0  0  0
   -1.6153    5.2341    9.7738 C   0  0  0  0  0  0  0  0  0  0  0  0
   -2.5817    4.6132   10.1994 O   0  0  0  0  0  0  0  0  0  0  0  0
   -0.3587    4.7119    9.7189 N   0  0  0  0  0  0  0  0  0  0  0  0
    2.7207    5.2815    9.0058 H   0  0  0  0  0  0  0  0  0  0  0  0
    1.9799    3.8764    9.6258 H   0  0  0  0  0  0  0  0  0  0  0  0
   -0.2200    3.7794   10.0025 H   0  0  0  0  0  0  0  0  0  0  0  0
   -0.6825    8.6588    8.3597 C   0  0  0  0  0  0  0  0  0  0  0  0
    0.7109    9.1901    8.0074 C   0  0  0  0  0  0  0  0  0  0  0  0
    0.9032   10.6101    8.4861 C   0  0  0  0  0  0  0  0  0  0  0  0
    2.0975   10.9864    9.1199 C   0  0  0  0  0  0  0  0  0  0  0  0
    2.2704   12.2930    9.5780 C   0  0  0  0  0  0  0  0  0  0  0  0
    1.2497   13.2199    9.4060 C   0  0  0  0  0  0  0  0  0  0  0  0
    1.4162   14.4739    9.8466 F   0  0  0  0  0  0  0  0  0  0  0  0
    0.0579   12.8653    8.7857 C   0  0  0  0  0  0  0  0  0  0  0  0
   -0.1177   11.5592    8.3267 C   0  0  0  0  0  0  0  0  0  0  0  0
  1  2  1  0
  2  3  2  0
  3  4  1  0
  4 12  1  0
 12 13  1  0
 13 14  1  0
 14 15  2  0
 15 16  1  0
 16 17  2  0
 17 18  1  0
 17 19  1  0
 19 20  2  0
  4  5  2  0
  5  6  1  0
  6  7  2  0
  6  8  1  0
  8  2  1  0
 20 14  1  0
  1  9  1  0
  1 10  1  0
  8 11  1  0
M  END
> <minimizedAffinity>
-6.59906

> <CNNscore>
0.4694677889

> <CNNaffinity>
4.4322743416

> <CNN_VS>
2.0808100700

> <CNNaffinity_variance>
0.5966913700

$$$$



 20 21  0  0  0  0  0  0  0  0999 V2000
   -2.6567    3.5362   10.1477 N   0  0  0  0  0  0  0  0  0  0  0  0
   -2.7108    4.2268    8.9829 C   0  0  0  0  0  0  0  0  0  0  0  0
   -2.4482    5.4944    8.9617 N   0  0  0  0  0  0  0  0  0  0  0  0
   -2.5132    6.1439    7.7499 C   0  0  0  0  0  0  0  0  0  0  0  0
   -2.8477    5.5386    6.6015 C   0  0  0  0  0  0  0  0  0  0  0  0
   -3.1540    4.1035    6.6428 C   0  0  0  0  0  0  0  0  0  0  0  0
   -3.4889    3.4893    5.6372 O   0  0  0  0  0  0  0  0  0  0  0  0
   -3.0384    3.5211    7.8685 N   0  0  0  0  0  0  0  0  0  0  0  0
   -2.4241    3.9998   10.9845 H   0  0  0  0  0  0  0  0  0  0  0  0
   -2.8501    2.5709   10.1570 H   0  0  0  0  0  0  0  0  0  0  0  0
   -3.1980    2.5531    7.9504 H   0  0  0  0  0  0  0  0  0  0  0  0
   -2.2069    7.6237    7.7868 C   0  0  0  0  0  0  0  0  0  0  0  0
   -2.3824    8.2774    6.4121 C   0  0  0  0  0  0  0  0  0  0  0  0
   -3.6610    9.0785    6.3352 C   0  0  0  0  0  0  0  0  0  0  0  0
   -3.6950   10.4018    6.8015 C   0  0  0  0  0  0  0  0  0  0  0  0
   -4.8792   11.1377    6.7472 C   0  0  0  0  0  0  0  0  0  0  0  0
   -6.0277   10.5502    6.2312 C   0  0  0  0  0  0  0  0  0  0  0  0
   -7.1644   11.2571    6.1799 F   0  0  0  0  0  0  0  0  0  0  0  0
   -6.0157    9.2396    5.7695 C   0  0  0  0  0  0  0  0  0  0  0  0
   -4.8327    8.5012    5.8228 C   0  0  0  0  0  0  0  0  0  0  0  0
  1  2  1  0
  2  3  2  0
  3  4  1  0
  4 12  1  0
 12 13  1  0
 13 14  1  0
 14 15  2  0
 15 16  1  0
 16 17  2  0
 17 18  1  0
 17 19  1  0
 19 20  2  0
  4  5  2  0
  5  6  1  0
  6  7  2  0
  6  8  1  0
  8  2  1  0
 20 14  1  0
  1  9  1  0
  1 10  1  0
  8 11  1  0
M  END
> <minimizedAffinity>
-5.70179

> <CNNscore>
0.4048576057

> <CNNaffinity>
4.2633538246

> <CNN_VS>
1.7260512114

> <CNNaffinity_variance>
0.2674647570

$$$$



 20 21  0  0  0  0  0  0  0  0999 V2000
   -7.2636    7.1714    5.6456 N   0  0  0  0  0  0  0  0  0  0  0  0
   -6.8858    6.2730    4.7039 C   0  0  0  0  0  0  0  0  0  0  0  0
   -7.7504    5.4519    4.1996 N   0  0  0  0  0  0  0  0  0  0  0  0
   -7.3121    4.5648    3.2427 C   0  0  0  0  0  0  0  0  0  0  0  0
   -6.0414    4.4975    2.8212 C   0  0  0  0  0  0  0  0  0  0  0  0
   -5.0697    5.4269    3.4103 C   0  0  0  0  0  0  0  0  0  0  0  0
   -3.8874    5.4078    3.0902 O   0  0  0  0  0  0  0  0  0  0  0  0
   -5.5805    6.2961    4.3260 N   0  0  0  0  0  0  0  0  0  0  0  0
   -8.1980    7.1969    5.9548 H   0  0  0  0  0  0  0  0  0  0  0  0
   -6.6037    7.7984    6.0205 H   0  0  0  0  0  0  0  0  0  0  0  0
   -4.9821    6.9659    4.7290 H   0  0  0  0  0  0  0  0  0  0  0  0
   -8.3620    3.6242    2.6969 C   0  0  0  0  0  0  0  0  0  0  0  0
   -8.3804    3.6167    1.1647 C   0  0  0  0  0  0  0  0  0  0  0  0
   -9.7879    3.5153    0.6249 C   0  0  0  0  0  0  0  0  0  0  0  0
  -10.0902    2.5967   -0.3922 C   0  0  0  0  0  0  0  0  0  0  0  0
  -11.3855    2.5135   -0.9040 C   0  0  0  0  0  0  0  0  0  0  0  0
  -12.3753    3.3498   -0.4025 C   0  0  0  0  0  0  0  0  0  0  0  0
  -13.6185    3.2698   -0.8948 F   0  0  0  0  0  0  0  0  0  0  0  0
  -12.0946    4.2695    0.6006 C   0  0  0  0  0  0  0  0  0  0  0  0
  -10.7999    4.3550    1.1142 C   0  0  0  0  0  0  0  0  0  0  0  0
  1  2  1  0
  2  3  2  0
  3  4  1  0
  4 12  1  0
 12 13  1  0
 13 14  1  0
 14 15  2  0
 15 16  1  0
 16 17  2  0
 17 18  1  0
 17 19  1  0
 19 20  2  0
  4  5  2  0
  5  6  1  0
  6  7  2  0
  6  8  1  0
  8  2  1  0
 20 14  1  0
  1  9  1  0
  1 10  1  0
  8 11  1  0
M  END
> <minimizedAffinity>
-5.99348

> <CNNscore>
0.4040156901

> <CNNaffinity>
4.5151219368

> <CNN_VS>
1.8241801262

> <CNNaffinity_variance>
0.1187747717

$$$$



 20 21  0  0  0  0  0  0  0  0999 V2000
   -3.2619    6.5807    6.4718 N   0  0  0  0  0  0  0  0  0  0  0  0
   -3.4082    7.9244    6.3740 C   0  0  0  0  0  0  0  0  0  0  0  0
   -2.5521    8.7177    6.9342 N   0  0  0  0  0  0  0  0  0  0  0  0
   -2.7471   10.0734    6.7979 C   0  0  0  0  0  0  0  0  0  0  0  0
   -3.7799   10.6104    6.1329 C   0  0  0  0  0  0  0  0  0  0  0  0
   -4.7490    9.6987    5.5126 C   0  0  0  0  0  0  0  0  0  0  0  0
   -5.7290   10.1175    4.9087 O   0  0  0  0  0  0  0  0  0  0  0  0
   -4.4750    8.3729    5.6612 N   0  0  0  0  0  0  0  0  0  0  0  0
   -2.5059    6.2033    6.9769 H   0  0  0  0  0  0  0  0  0  0  0  0
   -3.9117    5.9820    6.0376 H   0  0  0  0  0  0  0  0  0  0  0  0
   -5.0718    7.7150    5.2367 H   0  0  0  0  0  0  0  0  0  0  0  0
   -1.7229   10.9508    7.4806 C   0  0  0  0  0  0  0  0  0  0  0  0
   -0.5446   10.1358    8.0239 C   0  0  0  0  0  0  0  0  0  0  0  0
    0.5399   11.0277    8.5816 C   0  0  0  0  0  0  0  0  0  0  0  0
    0.2199   12.2966    9.0887 C   0  0  0  0  0  0  0  0  0  0  0  0
    1.2223   13.1287    9.5884 C   0  0  0  0  0  0  0  0  0  0  0  0
    2.5420   12.6943    9.5775 C   0  0  0  0  0  0  0  0  0  0  0  0
    3.5038   13.4939   10.0569 F   0  0  0  0  0  0  0  0  0  0  0  0
    2.8796   11.4436    9.0747 C   0  0  0  0  0  0  0  0  0  0  0  0
    1.8791   10.6094    8.5741 C   0  0  0  0  0  0  0  0  0  0  0  0
  1  2  1  0
  2  3  2  0
  3  4  1  0
  4 12  1  0
 12 13  1  0
 13 14  1  0
 14 15  2  0
 15 16  1  0
 16 17  2  0
 17 18  1  0
 17 19  1  0
 19 20  2  0
  4  5  2  0
  5  6  1  0
  6  7  2  0
  6  8  1  0
  8  2  1  0
 20 14  1  0
  1  9  1  0
  1 10  1  0
  8 11  1  0
M  END
> <minimizedAffinity>
-5.53642

> <CNNscore>
0.3842781782

> <CNNaffinity>
3.8572418690

> <CNN_VS>
1.4822539091

> <CNNaffinity_variance>
0.8087036014

$$$$



 20 21  0  0  0  0  0  0  0  0999 V2000
    1.9001    5.2967    9.6852 N   0  0  0  0  0  0  0  0  0  0  0  0
    1.5465    6.6009    9.5814 C   0  0  0  0  0  0  0  0  0  0  0  0
    2.0421    7.4792   10.3931 N   0  0  0  0  0  0  0  0  0  0  0  0
    1.6518    8.7900   10.2381 C   0  0  0  0  0  0  0  0  0  0  0  0
    0.7788    9.1980    9.3062 C   0  0  0  0  0  0  0  0  0  0  0  0
    0.2162    8.1892    8.4001 C   0  0  0  0  0  0  0  0  0  0  0  0
   -0.6037    8.4851    7.5395 O   0  0  0  0  0  0  0  0  0  0  0  0
    0.6716    6.9199    8.5914 N   0  0  0  0  0  0  0  0  0  0  0  0
    2.5311    5.0120   10.3853 H   0  0  0  0  0  0  0  0  0  0  0  0
    1.5260    4.6340    9.0606 H   0  0  0  0  0  0  0  0  0  0  0  0
    0.3552    6.2072    7.9904 H   0  0  0  0  0  0  0  0  0  0  0  0
    2.2540    9.7694   11.2194 C   0  0  0  0  0  0  0  0  0  0  0  0
    1.4257   11.0542   11.3247 C   0  0  0  0  0  0  0  0  0  0  0  0
    2.2970   12.2863   11.2531 C   0  0  0  0  0  0  0  0  0  0  0  0
    2.8523   12.8281   12.4226 C   0  0  0  0  0  0  0  0  0  0  0  0
    3.6432   13.9759   12.3608 C   0  0  0  0  0  0  0  0  0  0  0  0
    3.8750   14.5826   11.1325 C   0  0  0  0  0  0  0  0  0  0  0  0
    4.6339   15.6850   11.0740 F   0  0  0  0  0  0  0  0  0  0  0  0
    3.3297   14.0646    9.9641 C   0  0  0  0  0  0  0  0  0  0  0  0
    2.5382   12.9168   10.0231 C   0  0  0  0  0  0  0  0  0  0  0  0
  1  2  1  0
  2  3  2  0
  3  4  1  0
  4 12  1  0
 12 13  1  0
 13 14  1  0
 14 15  2  0
 15 16  1  0
 16 17  2  0
 17 18  1  0
 17 19  1  0
 19 20  2  0
  4  5  2  0
  5  6  1  0
  6  7  2  0
  6  8  1  0
  8  2  1  0
 20 14  1  0
  1  9  1  0
  1 10  1  0
  8 11  1  0
M  END
> <minimizedAffinity>
-5.81628

> <CNNscore>
0.3440033495

> <CNNaffinity>
4.4607396126

> <CNN_VS>
1.5345094204

> <CNNaffinity_variance>
0.3642915487

$$$$



 20 21  0  0  0  0  0  0  0  0999 V2000
    1.4330    8.7325    8.2949 N   0  0  0  0  0  0  0  0  0  0  0  0
    0.1460    8.3453    8.1209 C   0  0  0  0  0  0  0  0  0  0  0  0
   -0.5107    8.7132    7.0677 N   0  0  0  0  0  0  0  0  0  0  0  0
   -1.8130    8.2860    6.9405 C   0  0  0  0  0  0  0  0  0  0  0  0
   -2.4364    7.5271    7.8529 C   0  0  0  0  0  0  0  0  0  0  0  0
   -1.6830    7.1272    9.0476 C   0  0  0  0  0  0  0  0  0  0  0  0
   -2.1945    6.4533    9.9335 O   0  0  0  0  0  0  0  0  0  0  0  0
   -0.3921    7.5593    9.0904 N   0  0  0  0  0  0  0  0  0  0  0  0
    1.8708    9.3025    7.6221 H   0  0  0  0  0  0  0  0  0  0  0  0
    1.9302    8.4438    9.0941 H   0  0  0  0  0  0  0  0  0  0  0  0
    0.1721    7.2924    9.8518 H   0  0  0  0  0  0  0  0  0  0  0  0
   -2.5335    8.7540    5.6968 C   0  0  0  0  0  0  0  0  0  0  0  0
   -3.2205   10.1069    5.9102 C   0  0  0  0  0  0  0  0  0  0  0  0
   -4.6742   10.0644    5.5011 C   0  0  0  0  0  0  0  0  0  0  0  0
   -5.4604    8.9413    5.8019 C   0  0  0  0  0  0  0  0  0  0  0  0
   -6.7986    8.8929    5.4099 C   0  0  0  0  0  0  0  0  0  0  0  0
   -7.3482    9.9634    4.7154 C   0  0  0  0  0  0  0  0  0  0  0  0
   -8.6329    9.9158    4.3388 F   0  0  0  0  0  0  0  0  0  0  0  0
   -6.5848   11.0818    4.4035 C   0  0  0  0  0  0  0  0  0  0  0  0
   -5.2461   11.1329    4.7941 C   0  0  0  0  0  0  0  0  0  0  0  0
  1  2  1  0
  2  3  2  0
  3  4  1  0
  4 12  1  0
 12 13  1  0
 13 14  1  0
 14 15  2  0
 15 16  1  0
 16 17  2  0
 17 18  1  0
 17 19  1  0
 19 20  2  0
  4  5  2  0
  5  6  1  0
  6  7  2  0
  6  8  1  0
  8  2  1  0
 20 14  1  0
  1  9  1  0
  1 10  1  0
  8 11  1  0
M  END
> <minimizedAffinity>
-5.72529

> <CNNscore>
0.2829665542

> <CNNaffinity>
4.3348107338

> <CNN_VS>
1.2266064882

> <CNNaffinity_variance>
0.2310298234

$$$$
