


 55 60  0  0  0  0  0  0  0  0999 V2000
   13.4543   23.3832    5.7615 C   0  0  0  0  0  0  0  0  0  0  0  0
   12.5205   22.4433    5.1866 O   0  0  0  0  0  0  0  0  0  0  0  0
   12.5842   22.4749    4.2192 H   0  0  0  0  0  0  0  0  0  0  0  0
   13.0825   24.8422    5.3865 C   0  0  0  0  0  0  0  0  0  0  0  0
   14.1588   25.4804    4.6699 O   0  0  0  0  0  0  0  0  0  0  0  0
   14.3152   25.0107    3.8358 H   0  0  0  0  0  0  0  0  0  0  0  0
   11.8048   24.9121    4.5116 C   0  0  0  0  0  0  0  0  0  0  0  0
   10.3281   23.7281    6.0736 O   0  0  0  0  0  0  0  0  0  0  0  0
   10.5855   24.7570    5.4525 C   0  0  0  0  0  0  0  0  0  0  0  0
    9.8180   25.8983    5.5531 N   0  0  0  0  0  0  0  0  0  0  0  0
   10.0159   26.6614    4.9634 H   0  0  0  0  0  0  0  0  0  0  0  0
    8.7297   26.0058    6.5012 C   0  0  0  0  0  0  0  0  0  0  0  0
    9.2124   26.5255    7.8310 C   0  0  0  0  0  0  0  0  0  0  0  0
    9.9306   25.8381    8.8000 C   0  0  0  0  0  0  0  0  0  0  0  0
   10.3149   26.5194    9.9541 C   0  0  0  0  0  0  0  0  0  0  0  0
    9.9799   27.8707   10.1269 C   0  0  0  0  0  0  0  0  0  0  0  0
    9.2579   28.5589    9.1474 C   0  0  0  0  0  0  0  0  0  0  0  0
    8.8752   27.8721    8.0077 C   0  0  0  0  0  0  0  0  0  0  0  0
    8.1292   28.3974    6.8246 C   0  0  0  0  0  0  0  0  0  0  0  0
    7.6862   27.0998    6.1202 C   0  0  0  0  0  0  0  0  0  0  0  0
    7.5785   27.3121    4.7145 O   0  0  0  0  0  0  0  0  0  0  0  0
    8.4346   27.6053    4.3652 H   0  0  0  0  0  0  0  0  0  0  0  0
   11.8244   23.8467    3.5541 O   0  0  0  0  0  0  0  0  0  0  0  0
   11.3774   24.2374    2.2531 C   0  0  0  0  0  0  0  0  0  0  0  0
    9.8804   24.3764    2.1356 C   0  0  0  0  0  0  0  0  0  0  0  0
    9.3013   25.5977    1.7672 C   0  0  0  0  0  0  0  0  0  0  0  0
    7.9149   25.7289    1.6796 C   0  0  0  0  0  0  0  0  0  0  0  0
    7.0922   24.6469    1.9778 C   0  0  0  0  0  0  0  0  0  0  0  0
    7.6545   23.4296    2.3557 C   0  0  0  0  0  0  0  0  0  0  0  0
    9.0419   23.2954    2.4369 C   0  0  0  0  0  0  0  0  0  0  0  0
   14.9023   22.9684    5.4107 C   0  0  0  0  0  0  0  0  0  0  0  0
   15.0104   21.4586    5.1470 C   0  0  0  0  0  0  0  0  0  0  0  0
   14.0307   20.7190    5.1237 O   0  0  0  0  0  0  0  0  0  0  0  0
   16.2913   21.0036    4.9746 N   0  0  0  0  0  0  0  0  0  0  0  0
   17.0100   21.6371    4.7478 H   0  0  0  0  0  0  0  0  0  0  0  0
   16.5924   19.5963    5.1242 C   0  0  0  0  0  0  0  0  0  0  0  0
   16.7356   18.9035    3.7989 C   0  0  0  0  0  0  0  0  0  0  0  0
   15.8889   18.9712    2.7007 C   0  0  0  0  0  0  0  0  0  0  0  0
   16.1831   18.1916    1.5797 C   0  0  0  0  0  0  0  0  0  0  0  0
   17.3082   17.3546    1.5714 C   0  0  0  0  0  0  0  0  0  0  0  0
   18.1510   17.2839    2.6833 C   0  0  0  0  0  0  0  0  0  0  0  0
   17.8543   18.0656    3.7897 C   0  0  0  0  0  0  0  0  0  0  0  0
   18.5796   18.1013    5.1053 C   0  0  0  0  0  0  0  0  0  0  0  0
   17.9906   19.3573    5.7783 C   0  0  0  0  0  0  0  0  0  0  0  0
   18.8793   20.4709    5.5527 O   0  0  0  0  0  0  0  0  0  0  0  0
   18.9979   20.6019    4.5989 H   0  0  0  0  0  0  0  0  0  0  0  0
   15.7184   23.3302    6.5477 O   0  0  0  0  0  0  0  0  0  0  0  0
   15.0763   23.0718    7.7980 C   0  0  0  0  0  0  0  0  0  0  0  0
   15.8828   22.0644    8.5743 C   0  0  0  0  0  0  0  0  0  0  0  0
   17.2670   21.9688    8.3699 C   0  0  0  0  0  0  0  0  0  0  0  0
   18.0256   21.0284    9.0673 C   0  0  0  0  0  0  0  0  0  0  0  0
   17.4006   20.1791    9.9757 C   0  0  0  0  0  0  0  0  0  0  0  0
   18.4238   18.9016   10.9162 Br  0  0  0  0  0  0  0  0  0  0  0  0
   16.0275   20.2600   10.1944 C   0  0  0  0  0  0  0  0  0  0  0  0
   15.2693   21.2010    9.4927 C   0  0  0  0  0  0  0  0  0  0  0  0
  8  9  2  0
  9 10  1  0
 12 10  1  0
 12 13  1  0
 13 14  2  0
 14 15  1  0
 15 16  2  0
 16 17  1  0
 17 18  2  0
 18 19  1  0
 19 20  1  0
 20 21  1  0
  9  7  1  0
  7 23  1  0
 23 24  1  0
 24 25  1  0
 25 26  2  0
 26 27  1  0
 27 28  2  0
 28 29  1  0
 29 30  2  0
  7  4  1  0
  4  5  1  0
  4  1  1  0
  1  2  1  0
  1 31  1  0
 31 47  1  0
 47 48  1  0
 48 49  1  0
 49 50  2  0
 50 51  1  0
 51 52  2  0
 52 53  1  0
 52 54  1  0
 54 55  2  0
 31 32  1  0
 32 33  2  0
 32 34  1  0
 36 34  1  0
 36 37  1  0
 37 38  2  0
 38 39  1  0
 39 40  2  0
 40 41  1  0
 41 42  2  0
 42 43  1  0
 43 44  1  0
 44 45  1  0
 20 12  1  0
 30 25  1  0
 55 49  1  0
 44 36  1  0
 18 13  1  0
 42 37  1  0
 10 11  1  0
 21 22  1  0
  5  6  1  0
  2  3  1  0
 34 35  1  0
 45 46  1  0
M  END
> <minimizedAffinity>
-12.89511

> <CNNscore>
0.9824482799

> <CNNaffinity>
9.6726350784

> <CNN_VS>
9.5028638840

> <CNNaffinity_variance>
0.3997492790

$$$$



 55 60  0  0  0  0  0  0  0  0999 V2000
   13.0587   23.8709    5.9608 C   0  0  0  0  0  0  0  0  0  0  0  0
   13.3727   24.5757    7.1818 O   0  0  0  0  0  0  0  0  0  0  0  0
   13.6739   25.4728    6.9690 H   0  0  0  0  0  0  0  0  0  0  0  0
   14.3267   23.6679    5.0899 C   0  0  0  0  0  0  0  0  0  0  0  0
   14.8115   24.9281    4.5838 O   0  0  0  0  0  0  0  0  0  0  0  0
   15.0725   25.4957    5.3258 H   0  0  0  0  0  0  0  0  0  0  0  0
   15.4732   22.9853    5.8788 C   0  0  0  0  0  0  0  0  0  0  0  0
   14.1604   20.9176    6.0337 O   0  0  0  0  0  0  0  0  0  0  0  0
   15.2421   21.4562    5.8092 C   0  0  0  0  0  0  0  0  0  0  0  0
   16.3655   20.7450    5.4434 N   0  0  0  0  0  0  0  0  0  0  0  0
   17.2263   21.2165    5.3667 H   0  0  0  0  0  0  0  0  0  0  0  0
   16.3147   19.3248    5.1690 C   0  0  0  0  0  0  0  0  0  0  0  0
   16.0940   19.0588    3.7020 C   0  0  0  0  0  0  0  0  0  0  0  0
   14.9139   19.1954    2.9835 C   0  0  0  0  0  0  0  0  0  0  0  0
   14.9321   18.9316    1.6147 C   0  0  0  0  0  0  0  0  0  0  0  0
   16.1206   18.5368    0.9824 C   0  0  0  0  0  0  0  0  0  0  0  0
   17.3066   18.4022    1.7100 C   0  0  0  0  0  0  0  0  0  0  0  0
   17.2771   18.6602    3.0700 C   0  0  0  0  0  0  0  0  0  0  0  0
   18.4123   18.6106    4.0402 C   0  0  0  0  0  0  0  0  0  0  0  0
   17.6784   18.6040    5.3957 C   0  0  0  0  0  0  0  0  0  0  0  0
   18.4837   19.2216    6.3972 O   0  0  0  0  0  0  0  0  0  0  0  0
   18.6868   20.1324    6.1325 H   0  0  0  0  0  0  0  0  0  0  0  0
   15.4409   23.4249    7.2419 O   0  0  0  0  0  0  0  0  0  0  0  0
   16.7000   23.3116    7.9103 C   0  0  0  0  0  0  0  0  0  0  0  0
   16.8150   22.0989    8.7992 C   0  0  0  0  0  0  0  0  0  0  0  0
   18.0115   21.3737    8.8698 C   0  0  0  0  0  0  0  0  0  0  0  0
   18.1085   20.2397    9.6772 C   0  0  0  0  0  0  0  0  0  0  0  0
   17.0055   19.8078   10.4075 C   0  0  0  0  0  0  0  0  0  0  0  0
   15.8064   20.5135   10.3383 C   0  0  0  0  0  0  0  0  0  0  0  0
   15.7105   21.6522    9.5360 C   0  0  0  0  0  0  0  0  0  0  0  0
   11.8776   24.5635    5.2418 C   0  0  0  0  0  0  0  0  0  0  0  0
   10.6937   24.7960    6.1932 C   0  0  0  0  0  0  0  0  0  0  0  0
   10.3632   23.9810    7.0499 O   0  0  0  0  0  0  0  0  0  0  0  0
   10.0193   25.9700    5.9826 N   0  0  0  0  0  0  0  0  0  0  0  0
   10.4492   26.6984    5.4787 H   0  0  0  0  0  0  0  0  0  0  0  0
    8.6784   26.1441    6.4974 C   0  0  0  0  0  0  0  0  0  0  0  0
    8.6595   26.9400    7.7713 C   0  0  0  0  0  0  0  0  0  0  0  0
    9.4539   26.7735    8.8976 C   0  0  0  0  0  0  0  0  0  0  0  0
    9.2263   27.5943   10.0046 C   0  0  0  0  0  0  0  0  0  0  0  0
    8.2107   28.5608    9.9760 C   0  0  0  0  0  0  0  0  0  0  0  0
    7.4085   28.7171    8.8430 C   0  0  0  0  0  0  0  0  0  0  0  0
    7.6452   27.9014    7.7466 C   0  0  0  0  0  0  0  0  0  0  0  0
    6.8723   27.8533    6.4588 C   0  0  0  0  0  0  0  0  0  0  0  0
    7.7892   27.0106    5.5495 C   0  0  0  0  0  0  0  0  0  0  0  0
    8.5865   27.8964    4.7369 O   0  0  0  0  0  0  0  0  0  0  0  0
    9.1005   28.4863    5.3102 H   0  0  0  0  0  0  0  0  0  0  0  0
   11.4805   23.6832    4.1662 O   0  0  0  0  0  0  0  0  0  0  0  0
   11.3092   24.3663    2.9227 C   0  0  0  0  0  0  0  0  0  0  0  0
    9.8398   24.4745    2.6112 C   0  0  0  0  0  0  0  0  0  0  0  0
    8.9877   23.3913    2.8712 C   0  0  0  0  0  0  0  0  0  0  0  0
    7.6274   23.4686    2.5713 C   0  0  0  0  0  0  0  0  0  0  0  0
    7.1129   24.6338    2.0102 C   0  0  0  0  0  0  0  0  0  0  0  0
    5.2739   24.7388    1.5978 Br  0  0  0  0  0  0  0  0  0  0  0  0
    7.9424   25.7211    1.7466 C   0  0  0  0  0  0  0  0  0  0  0  0
    9.3051   25.6403    2.0455 C   0  0  0  0  0  0  0  0  0  0  0  0
  8  9  2  0
  9 10  1  0
 12 10  1  0
 12 13  1  0
 13 14  2  0
 14 15  1  0
 15 16  2  0
 16 17  1  0
 17 18  2  0
 18 19  1  0
 19 20  1  0
 20 21  1  0
  9  7  1  0
  7 23  1  0
 23 24  1  0
 24 25  1  0
 25 26  2  0
 26 27  1  0
 27 28  2  0
 28 29  1  0
 29 30  2  0
  7  4  1  0
  4  5  1  0
  4  1  1  0
  1  2  1  0
  1 31  1  0
 31 47  1  0
 47 48  1  0
 48 49  1  0
 49 50  2  0
 50 51  1  0
 51 52  2  0
 52 53  1  0
 52 54  1  0
 54 55  2  0
 31 32  1  0
 32 33  2  0
 32 34  1  0
 36 34  1  0
 36 37  1  0
 37 38  2  0
 38 39  1  0
 39 40  2  0
 40 41  1  0
 41 42  2  0
 42 43  1  0
 43 44  1  0
 44 45  1  0
 20 12  1  0
 30 25  1  0
 55 49  1  0
 44 36  1  0
 18 13  1  0
 42 37  1  0
 10 11  1  0
 21 22  1  0
  5  6  1  0
  2  3  1  0
 34 35  1  0
 45 46  1  0
M  END
> <minimizedAffinity>
-12.37064

> <CNNscore>
0.9681267738

> <CNNaffinity>
9.3229026794

> <CNN_VS>
9.0257520676

> <CNNaffinity_variance>
0.0437761061

$$$$



 55 60  0  0  0  0  0  0  0  0999 V2000
   13.7244   23.9613    5.0456 C   0  0  0  0  0  0  0  0  0  0  0  0
   14.8022   24.9045    4.8594 O   0  0  0  0  0  0  0  0  0  0  0  0
   14.9519   25.0414    3.9109 H   0  0  0  0  0  0  0  0  0  0  0  0
   14.1055   22.5606    4.4975 C   0  0  0  0  0  0  0  0  0  0  0  0
   15.4872   22.5264    4.0866 O   0  0  0  0  0  0  0  0  0  0  0  0
   16.0571   22.6884    4.8546 H   0  0  0  0  0  0  0  0  0  0  0  0
   13.8807   21.4424    5.5473 C   0  0  0  0  0  0  0  0  0  0  0  0
   16.2038   21.3023    6.3258 O   0  0  0  0  0  0  0  0  0  0  0  0
   15.0258   21.5386    6.5845 C   0  0  0  0  0  0  0  0  0  0  0  0
   14.6053   21.9427    7.8341 N   0  0  0  0  0  0  0  0  0  0  0  0
   13.6403   22.0279    8.0098 H   0  0  0  0  0  0  0  0  0  0  0  0
   15.5426   22.2451    8.8947 C   0  0  0  0  0  0  0  0  0  0  0  0
   16.2408   21.0002    9.3787 C   0  0  0  0  0  0  0  0  0  0  0  0
   15.7216   19.9952   10.1836 C   0  0  0  0  0  0  0  0  0  0  0  0
   16.5294   18.9005   10.4882 C   0  0  0  0  0  0  0  0  0  0  0  0
   17.8382   18.8218    9.9893 C   0  0  0  0  0  0  0  0  0  0  0  0
   18.3559   19.8357    9.1779 C   0  0  0  0  0  0  0  0  0  0  0  0
   17.5483   20.9219    8.8862 C   0  0  0  0  0  0  0  0  0  0  0  0
   17.8690   22.1018    8.0275 C   0  0  0  0  0  0  0  0  0  0  0  0
   16.7585   23.0968    8.4185 C   0  0  0  0  0  0  0  0  0  0  0  0
   16.4524   23.9530    7.3203 O   0  0  0  0  0  0  0  0  0  0  0  0
   16.1689   23.4180    6.5625 H   0  0  0  0  0  0  0  0  0  0  0  0
   13.9128   20.1660    4.8978 O   0  0  0  0  0  0  0  0  0  0  0  0
   15.1101   19.4254    5.1489 C   0  0  0  0  0  0  0  0  0  0  0  0
   15.7510   18.8573    3.9077 C   0  0  0  0  0  0  0  0  0  0  0  0
   16.7534   17.8831    4.0012 C   0  0  0  0  0  0  0  0  0  0  0  0
   17.3592   17.3744    2.8517 C   0  0  0  0  0  0  0  0  0  0  0  0
   16.9834   17.8477    1.5982 C   0  0  0  0  0  0  0  0  0  0  0  0
   15.9954   18.8240    1.4914 C   0  0  0  0  0  0  0  0  0  0  0  0
   15.3837   19.3285    2.6407 C   0  0  0  0  0  0  0  0  0  0  0  0
   12.4089   24.5467    4.4811 C   0  0  0  0  0  0  0  0  0  0  0  0
   11.3278   24.6596    5.5671 C   0  0  0  0  0  0  0  0  0  0  0  0
   11.0196   23.7196    6.2943 O   0  0  0  0  0  0  0  0  0  0  0  0
   10.7152   25.8835    5.6320 N   0  0  0  0  0  0  0  0  0  0  0  0
   11.1467   26.6696    5.2257 H   0  0  0  0  0  0  0  0  0  0  0  0
    9.4370   26.0258    6.2949 C   0  0  0  0  0  0  0  0  0  0  0  0
    9.5535   26.7659    7.5971 C   0  0  0  0  0  0  0  0  0  0  0  0
   10.4649   26.5565    8.6232 C   0  0  0  0  0  0  0  0  0  0  0  0
   10.3558   27.3272    9.7829 C   0  0  0  0  0  0  0  0  0  0  0  0
    9.3408   28.2869    9.9058 C   0  0  0  0  0  0  0  0  0  0  0  0
    8.4209   28.4863    8.8734 C   0  0  0  0  0  0  0  0  0  0  0  0
    8.5402   27.7204    7.7234 C   0  0  0  0  0  0  0  0  0  0  0  0
    7.6334   27.7224    6.5251 C   0  0  0  0  0  0  0  0  0  0  0  0
    8.4490   26.9262    5.4867 C   0  0  0  0  0  0  0  0  0  0  0  0
    9.1522   27.8518    4.6326 O   0  0  0  0  0  0  0  0  0  0  0  0
    9.7236   28.4200    5.1727 H   0  0  0  0  0  0  0  0  0  0  0  0
   11.9714   23.6423    3.4417 O   0  0  0  0  0  0  0  0  0  0  0  0
   11.4970   24.3211    2.2771 C   0  0  0  0  0  0  0  0  0  0  0  0
    9.9936   24.3963    2.3211 C   0  0  0  0  0  0  0  0  0  0  0  0
    9.2507   23.2959    2.7730 C   0  0  0  0  0  0  0  0  0  0  0  0
    7.8567   23.3426    2.8025 C   0  0  0  0  0  0  0  0  0  0  0  0
    7.1991   24.4944    2.3805 C   0  0  0  0  0  0  0  0  0  0  0  0
    5.3128   24.5581    2.4137 Br  0  0  0  0  0  0  0  0  0  0  0  0
    7.9190   25.5985    1.9306 C   0  0  0  0  0  0  0  0  0  0  0  0
    9.3152   25.5483    1.8995 C   0  0  0  0  0  0  0  0  0  0  0  0
  8  9  2  0
  9 10  1  0
 12 10  1  0
 12 13  1  0
 13 14  2  0
 14 15  1  0
 15 16  2  0
 16 17  1  0
 17 18  2  0
 18 19  1  0
 19 20  1  0
 20 21  1  0
  9  7  1  0
  7 23  1  0
 23 24  1  0
 24 25  1  0
 25 26  2  0
 26 27  1  0
 27 28  2  0
 28 29  1  0
 29 30  2  0
  7  4  1  0
  4  5  1  0
  4  1  1  0
  1  2  1  0
  1 31  1  0
 31 47  1  0
 47 48  1  0
 48 49  1  0
 49 50  2  0
 50 51  1  0
 51 52  2  0
 52 53  1  0
 52 54  1  0
 54 55  2  0
 31 32  1  0
 32 33  2  0
 32 34  1  0
 36 34  1  0
 36 37  1  0
 37 38  2  0
 38 39  1  0
 39 40  2  0
 40 41  1  0
 41 42  2  0
 42 43  1  0
 43 44  1  0
 44 45  1  0
 20 12  1  0
 30 25  1  0
 55 49  1  0
 44 36  1  0
 18 13  1  0
 42 37  1  0
 10 11  1  0
 21 22  1  0
  5  6  1  0
  2  3  1  0
 34 35  1  0
 45 46  1  0
M  END
> <minimizedAffinity>
-13.33140

> <CNNscore>
0.9333916903

> <CNNaffinity>
9.3818502426

> <CNN_VS>
8.7569408417

> <CNNaffinity_variance>
0.1861373037

$$$$



 55 60  0  0  0  0  0  0  0  0999 V2000
   13.8602   23.8383    5.6313 C   0  0  0  0  0  0  0  0  0  0  0  0
   14.1929   24.9563    4.7795 O   0  0  0  0  0  0  0  0  0  0  0  0
   14.7054   25.6065    5.2849 H   0  0  0  0  0  0  0  0  0  0  0  0
   12.9197   24.2747    6.7857 C   0  0  0  0  0  0  0  0  0  0  0  0
   13.0559   25.6843    7.0566 O   0  0  0  0  0  0  0  0  0  0  0  0
   12.7885   26.1913    6.2741 H   0  0  0  0  0  0  0  0  0  0  0  0
   11.4312   23.9803    6.4685 C   0  0  0  0  0  0  0  0  0  0  0  0
   12.1329   22.7444    4.4678 O   0  0  0  0  0  0  0  0  0  0  0  0
   11.3484   23.5344    4.9885 C   0  0  0  0  0  0  0  0  0  0  0  0
   10.2878   24.0896    4.3040 N   0  0  0  0  0  0  0  0  0  0  0  0
    9.7475   24.7862    4.7424 H   0  0  0  0  0  0  0  0  0  0  0  0
    9.9464   23.6770    2.9593 C   0  0  0  0  0  0  0  0  0  0  0  0
    8.4948   23.9466    2.6566 C   0  0  0  0  0  0  0  0  0  0  0  0
    7.3889   23.2387    3.1076 C   0  0  0  0  0  0  0  0  0  0  0  0
    6.1189   23.6791    2.7376 C   0  0  0  0  0  0  0  0  0  0  0  0
    5.9680   24.8139    1.9266 C   0  0  0  0  0  0  0  0  0  0  0  0
    7.0848   25.5242    1.4764 C   0  0  0  0  0  0  0  0  0  0  0  0
    8.3420   25.0753    1.8438 C   0  0  0  0  0  0  0  0  0  0  0  0
    9.6675   25.6790    1.5106 C   0  0  0  0  0  0  0  0  0  0  0  0
   10.6398   24.5341    1.8569 C   0  0  0  0  0  0  0  0  0  0  0  0
   11.9009   25.0617    2.2620 O   0  0  0  0  0  0  0  0  0  0  0  0
   11.7778   25.6388    3.0318 H   0  0  0  0  0  0  0  0  0  0  0  0
   10.6578   25.1697    6.6667 O   0  0  0  0  0  0  0  0  0  0  0  0
    9.5795   25.0045    7.5914 C   0  0  0  0  0  0  0  0  0  0  0  0
    9.3108   26.2197    8.4429 C   0  0  0  0  0  0  0  0  0  0  0  0
    8.1219   26.9465    8.2986 C   0  0  0  0  0  0  0  0  0  0  0  0
    7.8852   28.0827    9.0733 C   0  0  0  0  0  0  0  0  0  0  0  0
    8.8421   28.5153    9.9864 C   0  0  0  0  0  0  0  0  0  0  0  0
   10.0334   27.8080   10.1324 C   0  0  0  0  0  0  0  0  0  0  0  0
   10.2680   26.6671    9.3626 C   0  0  0  0  0  0  0  0  0  0  0  0
   15.1516   23.1154    6.0800 C   0  0  0  0  0  0  0  0  0  0  0  0
   15.1260   21.6257    5.7047 C   0  0  0  0  0  0  0  0  0  0  0  0
   14.1288   20.9241    5.8485 O   0  0  0  0  0  0  0  0  0  0  0  0
   16.3160   21.1403    5.2297 N   0  0  0  0  0  0  0  0  0  0  0  0
   16.9997   21.7632    4.8925 H   0  0  0  0  0  0  0  0  0  0  0  0
   16.5724   19.7163    5.2215 C   0  0  0  0  0  0  0  0  0  0  0  0
   16.5754   19.1492    3.8304 C   0  0  0  0  0  0  0  0  0  0  0  0
   15.6423   19.3483    2.8218 C   0  0  0  0  0  0  0  0  0  0  0  0
   15.8095   18.6705    1.6121 C   0  0  0  0  0  0  0  0  0  0  0  0
   16.8956   17.8029    1.4275 C   0  0  0  0  0  0  0  0  0  0  0  0
   17.8259   17.5995    2.4497 C   0  0  0  0  0  0  0  0  0  0  0  0
   17.6550   18.2809    3.6455 C   0  0  0  0  0  0  0  0  0  0  0  0
   18.4898   18.1677    4.8899 C   0  0  0  0  0  0  0  0  0  0  0  0
   18.0102   19.3717    5.7253 C   0  0  0  0  0  0  0  0  0  0  0  0
   18.9204   20.4730    5.5265 O   0  0  0  0  0  0  0  0  0  0  0  0
   18.9630   20.6908    4.5822 H   0  0  0  0  0  0  0  0  0  0  0  0
   15.2240   23.2610    7.5164 O   0  0  0  0  0  0  0  0  0  0  0  0
   16.5663   23.2872    8.0060 C   0  0  0  0  0  0  0  0  0  0  0  0
   16.8635   21.9935    8.7171 C   0  0  0  0  0  0  0  0  0  0  0  0
   15.8252   21.2778    9.3309 C   0  0  0  0  0  0  0  0  0  0  0  0
   16.0863   20.0872   10.0096 C   0  0  0  0  0  0  0  0  0  0  0  0
   17.3907   19.6060   10.0752 C   0  0  0  0  0  0  0  0  0  0  0  0
   17.7477   17.9985   10.9981 Br  0  0  0  0  0  0  0  0  0  0  0  0
   18.4351   20.3009    9.4702 C   0  0  0  0  0  0  0  0  0  0  0  0
   18.1713   21.4947    8.7932 C   0  0  0  0  0  0  0  0  0  0  0  0
  8  9  2  0
  9 10  1  0
 12 10  1  0
 12 13  1  0
 13 14  2  0
 14 15  1  0
 15 16  2  0
 16 17  1  0
 17 18  2  0
 18 19  1  0
 19 20  1  0
 20 21  1  0
  9  7  1  0
  7 23  1  0
 23 24  1  0
 24 25  1  0
 25 26  2  0
 26 27  1  0
 27 28  2  0
 28 29  1  0
 29 30  2  0
  7  4  1  0
  4  5  1  0
  4  1  1  0
  1  2  1  0
  1 31  1  0
 31 47  1  0
 47 48  1  0
 48 49  1  0
 49 50  2  0
 50 51  1  0
 51 52  2  0
 52 53  1  0
 52 54  1  0
 54 55  2  0
 31 32  1  0
 32 33  2  0
 32 34  1  0
 36 34  1  0
 36 37  1  0
 37 38  2  0
 38 39  1  0
 39 40  2  0
 40 41  1  0
 41 42  2  0
 42 43  1  0
 43 44  1  0
 44 45  1  0
 20 12  1  0
 30 25  1  0
 55 49  1  0
 44 36  1  0
 18 13  1  0
 42 37  1  0
 10 11  1  0
 21 22  1  0
  5  6  1  0
  2  3  1  0
 34 35  1  0
 45 46  1  0
M  END
> <minimizedAffinity>
-13.06930

> <CNNscore>
0.9031931758

> <CNNaffinity>
9.3564023972

> <CNN_VS>
8.4506387711

> <CNNaffinity_variance>
0.2493491322

$$$$



 55 60  0  0  0  0  0  0  0  0999 V2000
   13.1331   24.2290    5.6394 C   0  0  0  0  0  0  0  0  0  0  0  0
   13.0003   25.5632    5.1023 O   0  0  0  0  0  0  0  0  0  0  0  0
   12.8450   25.5128    4.1461 H   0  0  0  0  0  0  0  0  0  0  0  0
   14.3896   23.5188    5.0699 C   0  0  0  0  0  0  0  0  0  0  0  0
   15.3216   24.4763    4.5279 O   0  0  0  0  0  0  0  0  0  0  0  0
   15.6311   25.0627    5.2358 H   0  0  0  0  0  0  0  0  0  0  0  0
   15.1235   22.6792    6.1466 C   0  0  0  0  0  0  0  0  0  0  0  0
   13.7239   20.6874    5.8363 O   0  0  0  0  0  0  0  0  0  0  0  0
   14.8469   21.1866    5.8436 C   0  0  0  0  0  0  0  0  0  0  0  0
   15.9845   20.4630    5.5537 N   0  0  0  0  0  0  0  0  0  0  0  0
   16.8645   20.8900    5.6651 H   0  0  0  0  0  0  0  0  0  0  0  0
   15.9211   19.0933    5.0902 C   0  0  0  0  0  0  0  0  0  0  0  0
   15.8116   19.0287    3.5884 C   0  0  0  0  0  0  0  0  0  0  0  0
   14.6962   19.2986    2.8071 C   0  0  0  0  0  0  0  0  0  0  0  0
   14.8170   19.2151    1.4207 C   0  0  0  0  0  0  0  0  0  0  0  0
   16.0421   18.8652    0.8335 C   0  0  0  0  0  0  0  0  0  0  0  0
   17.1628   18.5958    1.6246 C   0  0  0  0  0  0  0  0  0  0  0  0
   17.0312   18.6751    3.0006 C   0  0  0  0  0  0  0  0  0  0  0  0
   18.0840   18.4601    4.0388 C   0  0  0  0  0  0  0  0  0  0  0  0
   17.2445   18.3022    5.3219 C   0  0  0  0  0  0  0  0  0  0  0  0
   17.9822   18.7557    6.4546 O   0  0  0  0  0  0  0  0  0  0  0  0
   18.2279   19.6857    6.3293 H   0  0  0  0  0  0  0  0  0  0  0  0
   14.6164   23.0188    7.4427 O   0  0  0  0  0  0  0  0  0  0  0  0
   15.6391   23.2601    8.4128 C   0  0  0  0  0  0  0  0  0  0  0  0
   16.2651   22.0057    8.9682 C   0  0  0  0  0  0  0  0  0  0  0  0
   15.4956   21.0755    9.6790 C   0  0  0  0  0  0  0  0  0  0  0  0
   16.0819   19.9259   10.2098 C   0  0  0  0  0  0  0  0  0  0  0  0
   17.4466   19.7034   10.0524 C   0  0  0  0  0  0  0  0  0  0  0  0
   18.2256   20.6255    9.3570 C   0  0  0  0  0  0  0  0  0  0  0  0
   17.6384   21.7726    8.8196 C   0  0  0  0  0  0  0  0  0  0  0  0
   11.8072   23.4538    5.4579 C   0  0  0  0  0  0  0  0  0  0  0  0
   11.3568   23.4390    3.9890 C   0  0  0  0  0  0  0  0  0  0  0  0
   12.1471   23.5270    3.0535 O   0  0  0  0  0  0  0  0  0  0  0  0
   10.0007   23.3543    3.8128 N   0  0  0  0  0  0  0  0  0  0  0  0
    9.4300   23.0345    4.5485 H   0  0  0  0  0  0  0  0  0  0  0  0
    9.4035   23.7326    2.5504 C   0  0  0  0  0  0  0  0  0  0  0  0
    7.9118   23.8796    2.6507 C   0  0  0  0  0  0  0  0  0  0  0  0
    7.0013   23.0038    3.2265 C   0  0  0  0  0  0  0  0  0  0  0  0
    5.6406   23.3111    3.1559 C   0  0  0  0  0  0  0  0  0  0  0  0
    5.2079   24.4781    2.5099 C   0  0  0  0  0  0  0  0  0  0  0  0
    6.1286   25.3505    1.9242 C   0  0  0  0  0  0  0  0  0  0  0  0
    7.4779   25.0402    2.0039 C   0  0  0  0  0  0  0  0  0  0  0  0
    8.6271   25.7947    1.3972 C   0  0  0  0  0  0  0  0  0  0  0  0
    9.8487   25.1571    2.0892 C   0  0  0  0  0  0  0  0  0  0  0  0
   10.2365   25.9802    3.2085 O   0  0  0  0  0  0  0  0  0  0  0  0
    9.4884   26.0682    3.8196 H   0  0  0  0  0  0  0  0  0  0  0  0
   10.8220   24.1327    6.2692 O   0  0  0  0  0  0  0  0  0  0  0  0
   10.6579   25.5065    5.9115 C   0  0  0  0  0  0  0  0  0  0  0  0
   10.3000   26.3024    7.1388 C   0  0  0  0  0  0  0  0  0  0  0  0
   10.9554   26.0494    8.3526 C   0  0  0  0  0  0  0  0  0  0  0  0
   10.6227   26.7650    9.5031 C   0  0  0  0  0  0  0  0  0  0  0  0
    9.6316   27.7402    9.4427 C   0  0  0  0  0  0  0  0  0  0  0  0
    9.1752   28.7057   10.9993 Br  0  0  0  0  0  0  0  0  0  0  0  0
    8.9708   28.0078    8.2462 C   0  0  0  0  0  0  0  0  0  0  0  0
    9.3040   27.2879    7.0957 C   0  0  0  0  0  0  0  0  0  0  0  0
  8  9  2  0
  9 10  1  0
 12 10  1  0
 12 13  1  0
 13 14  2  0
 14 15  1  0
 15 16  2  0
 16 17  1  0
 17 18  2  0
 18 19  1  0
 19 20  1  0
 20 21  1  0
  9  7  1  0
  7 23  1  0
 23 24  1  0
 24 25  1  0
 25 26  2  0
 26 27  1  0
 27 28  2  0
 28 29  1  0
 29 30  2  0
  7  4  1  0
  4  5  1  0
  4  1  1  0
  1  2  1  0
  1 31  1  0
 31 47  1  0
 47 48  1  0
 48 49  1  0
 49 50  2  0
 50 51  1  0
 51 52  2  0
 52 53  1  0
 52 54  1  0
 54 55  2  0
 31 32  1  0
 32 33  2  0
 32 34  1  0
 36 34  1  0
 36 37  1  0
 37 38  2  0
 38 39  1  0
 39 40  2  0
 40 41  1  0
 41 42  2  0
 42 43  1  0
 43 44  1  0
 44 45  1  0
 20 12  1  0
 30 25  1  0
 55 49  1  0
 44 36  1  0
 18 13  1  0
 42 37  1  0
 10 11  1  0
 21 22  1  0
  5  6  1  0
  2  3  1  0
 34 35  1  0
 45 46  1  0
M  END
> <minimizedAffinity>
-11.48482

> <CNNscore>
0.9016295075

> <CNNaffinity>
9.1990242004

> <CNN_VS>
8.2941112518

> <CNNaffinity_variance>
0.0205216631

$$$$



 55 60  0  0  0  0  0  0  0  0999 V2000
   13.4213   24.0898    5.1702 C   0  0  0  0  0  0  0  0  0  0  0  0
   14.5758   24.8071    4.6817 O   0  0  0  0  0  0  0  0  0  0  0  0
   14.6335   24.7093    3.7183 H   0  0  0  0  0  0  0  0  0  0  0  0
   13.5695   22.5634    4.9342 C   0  0  0  0  0  0  0  0  0  0  0  0
   13.9026   22.2844    3.5593 O   0  0  0  0  0  0  0  0  0  0  0  0
   14.7613   22.6827    3.3474 H   0  0  0  0  0  0  0  0  0  0  0  0
   14.6621   21.9368    5.8378 C   0  0  0  0  0  0  0  0  0  0  0  0
   14.7026   19.5755    5.1709 O   0  0  0  0  0  0  0  0  0  0  0  0
   15.2156   20.6904    5.1056 C   0  0  0  0  0  0  0  0  0  0  0  0
   16.3349   20.9507    4.3433 N   0  0  0  0  0  0  0  0  0  0  0  0
   16.7573   21.8381    4.4010 H   0  0  0  0  0  0  0  0  0  0  0  0
   16.9062   19.9559    3.4607 C   0  0  0  0  0  0  0  0  0  0  0  0
   17.4812   18.8003    4.2387 C   0  0  0  0  0  0  0  0  0  0  0  0
   18.6641   18.7718    4.9650 C   0  0  0  0  0  0  0  0  0  0  0  0
   18.9988   17.6039    5.6489 C   0  0  0  0  0  0  0  0  0  0  0  0
   18.1544   16.4846    5.6005 C   0  0  0  0  0  0  0  0  0  0  0  0
   16.9636   16.5189    4.8690 C   0  0  0  0  0  0  0  0  0  0  0  0
   16.6429   17.6809    4.1879 C   0  0  0  0  0  0  0  0  0  0  0  0
   15.4241   17.9610    3.3703 C   0  0  0  0  0  0  0  0  0  0  0  0
   15.8425   19.2219    2.5886 C   0  0  0  0  0  0  0  0  0  0  0  0
   14.7008   20.0244    2.2965 O   0  0  0  0  0  0  0  0  0  0  0  0
   14.2620   20.2757    3.1243 H   0  0  0  0  0  0  0  0  0  0  0  0
   14.0818   21.5528    7.0901 O   0  0  0  0  0  0  0  0  0  0  0  0
   14.6719   22.2036    8.2185 C   0  0  0  0  0  0  0  0  0  0  0  0
   15.9365   21.5472    8.7123 C   0  0  0  0  0  0  0  0  0  0  0  0
   17.1928   22.0572    8.3596 C   0  0  0  0  0  0  0  0  0  0  0  0
   18.3614   21.4354    8.8008 C   0  0  0  0  0  0  0  0  0  0  0  0
   18.2871   20.2869    9.5830 C   0  0  0  0  0  0  0  0  0  0  0  0
   17.0444   19.7630    9.9323 C   0  0  0  0  0  0  0  0  0  0  0  0
   15.8745   20.3885    9.4970 C   0  0  0  0  0  0  0  0  0  0  0  0
   12.1297   24.7163    4.5947 C   0  0  0  0  0  0  0  0  0  0  0  0
   11.0397   24.8530    5.6689 C   0  0  0  0  0  0  0  0  0  0  0  0
   10.7430   23.9372    6.4310 O   0  0  0  0  0  0  0  0  0  0  0  0
   10.4055   26.0675    5.6816 N   0  0  0  0  0  0  0  0  0  0  0  0
   10.8259   26.8444    5.2470 H   0  0  0  0  0  0  0  0  0  0  0  0
    9.1207   26.2133    6.3308 C   0  0  0  0  0  0  0  0  0  0  0  0
    9.2285   26.9328    7.6452 C   0  0  0  0  0  0  0  0  0  0  0  0
   10.1248   26.6987    8.6792 C   0  0  0  0  0  0  0  0  0  0  0  0
   10.0092   27.4533    9.8489 C   0  0  0  0  0  0  0  0  0  0  0  0
    9.0027   28.4216    9.9735 C   0  0  0  0  0  0  0  0  0  0  0  0
    8.0979   28.6459    8.9330 C   0  0  0  0  0  0  0  0  0  0  0  0
    8.2236   27.8959    7.7732 C   0  0  0  0  0  0  0  0  0  0  0  0
    7.3318   27.9252    6.5641 C   0  0  0  0  0  0  0  0  0  0  0  0
    8.1521   27.1359    5.5240 C   0  0  0  0  0  0  0  0  0  0  0  0
    8.8754   28.0667    4.6925 O   0  0  0  0  0  0  0  0  0  0  0  0
    9.4458   28.6207    5.2480 H   0  0  0  0  0  0  0  0  0  0  0  0
   11.6788   23.8316    3.5441 O   0  0  0  0  0  0  0  0  0  0  0  0
   11.3503   24.5231    2.3374 C   0  0  0  0  0  0  0  0  0  0  0  0
    9.8534   24.5645    2.1777 C   0  0  0  0  0  0  0  0  0  0  0  0
    9.2290   25.7402    1.7362 C   0  0  0  0  0  0  0  0  0  0  0  0
    7.8418   25.8010    1.6007 C   0  0  0  0  0  0  0  0  0  0  0  0
    7.0723   24.6820    1.9055 C   0  0  0  0  0  0  0  0  0  0  0  0
    5.1947   24.7634    1.7288 Br  0  0  0  0  0  0  0  0  0  0  0  0
    7.6738   23.5045    2.3431 C   0  0  0  0  0  0  0  0  0  0  0  0
    9.0633   23.4469    2.4806 C   0  0  0  0  0  0  0  0  0  0  0  0
  8  9  2  0
  9 10  1  0
 12 10  1  0
 12 13  1  0
 13 14  2  0
 14 15  1  0
 15 16  2  0
 16 17  1  0
 17 18  2  0
 18 19  1  0
 19 20  1  0
 20 21  1  0
  9  7  1  0
  7 23  1  0
 23 24  1  0
 24 25  1  0
 25 26  2  0
 26 27  1  0
 27 28  2  0
 28 29  1  0
 29 30  2  0
  7  4  1  0
  4  5  1  0
  4  1  1  0
  1  2  1  0
  1 31  1  0
 31 47  1  0
 47 48  1  0
 48 49  1  0
 49 50  2  0
 50 51  1  0
 51 52  2  0
 52 53  1  0
 52 54  1  0
 54 55  2  0
 31 32  1  0
 32 33  2  0
 32 34  1  0
 36 34  1  0
 36 37  1  0
 37 38  2  0
 38 39  1  0
 39 40  2  0
 40 41  1  0
 41 42  2  0
 42 43  1  0
 43 44  1  0
 44 45  1  0
 20 12  1  0
 30 25  1  0
 55 49  1  0
 44 36  1  0
 18 13  1  0
 42 37  1  0
 10 11  1  0
 21 22  1  0
  5  6  1  0
  2  3  1  0
 34 35  1  0
 45 46  1  0
M  END
> <minimizedAffinity>
-11.70467

> <CNNscore>
0.8427774906

> <CNNaffinity>
9.0940732956

> <CNN_VS>
7.6642804146

> <CNNaffinity_variance>
0.0990031064

$$$$



 55 60  0  0  0  0  0  0  0  0999 V2000
   14.0000   23.8439    5.2293 C   0  0  0  0  0  0  0  0  0  0  0  0
   14.4348   25.0979    4.6597 O   0  0  0  0  0  0  0  0  0  0  0  0
   14.7591   25.6786    5.3658 H   0  0  0  0  0  0  0  0  0  0  0  0
   12.7807   24.0479    6.1670 C   0  0  0  0  0  0  0  0  0  0  0  0
   12.9983   25.1578    7.0613 O   0  0  0  0  0  0  0  0  0  0  0  0
   13.0921   25.9745    6.5463 H   0  0  0  0  0  0  0  0  0  0  0  0
   11.4734   24.3078    5.3757 C   0  0  0  0  0  0  0  0  0  0  0  0
    9.7376   24.5538    7.0929 O   0  0  0  0  0  0  0  0  0  0  0  0
   10.5130   25.0898    6.3043 C   0  0  0  0  0  0  0  0  0  0  0  0
   10.6241   26.4592    6.1850 N   0  0  0  0  0  0  0  0  0  0  0  0
   11.1925   26.8329    5.4733 H   0  0  0  0  0  0  0  0  0  0  0  0
    9.9286   27.3625    7.0767 C   0  0  0  0  0  0  0  0  0  0  0  0
    8.4371   27.2927    6.8717 C   0  0  0  0  0  0  0  0  0  0  0  0
    7.6991   27.8280    5.8246 C   0  0  0  0  0  0  0  0  0  0  0  0
    6.3211   27.6171    5.8038 C   0  0  0  0  0  0  0  0  0  0  0  0
    5.6992   26.8791    6.8219 C   0  0  0  0  0  0  0  0  0  0  0  0
    6.4470   26.3409    7.8733 C   0  0  0  0  0  0  0  0  0  0  0  0
    7.8139   26.5611    7.8887 C   0  0  0  0  0  0  0  0  0  0  0  0
    8.8135   26.0680    8.8837 C   0  0  0  0  0  0  0  0  0  0  0  0
   10.0377   26.9531    8.5772 C   0  0  0  0  0  0  0  0  0  0  0  0
   11.2422   26.2554    8.8857 O   0  0  0  0  0  0  0  0  0  0  0  0
   11.2840   25.4372    8.3664 H   0  0  0  0  0  0  0  0  0  0  0  0
   10.8850   23.0558    5.0036 O   0  0  0  0  0  0  0  0  0  0  0  0
   10.5783   22.9585    3.6102 C   0  0  0  0  0  0  0  0  0  0  0  0
    9.5794   23.9809    3.1297 C   0  0  0  0  0  0  0  0  0  0  0  0
    8.2425   23.9258    3.5445 C   0  0  0  0  0  0  0  0  0  0  0  0
    7.3158   24.8608    3.0817 C   0  0  0  0  0  0  0  0  0  0  0  0
    7.7111   25.8487    2.1849 C   0  0  0  0  0  0  0  0  0  0  0  0
    9.0352   25.9085    1.7559 C   0  0  0  0  0  0  0  0  0  0  0  0
    9.9646   24.9776    2.2238 C   0  0  0  0  0  0  0  0  0  0  0  0
   15.2017   23.1125    5.8718 C   0  0  0  0  0  0  0  0  0  0  0  0
   15.1646   21.6033    5.5858 C   0  0  0  0  0  0  0  0  0  0  0  0
   14.1821   20.9079    5.8278 O   0  0  0  0  0  0  0  0  0  0  0  0
   16.3284   21.0951    5.0715 N   0  0  0  0  0  0  0  0  0  0  0  0
   16.9873   21.6996    4.6596 H   0  0  0  0  0  0  0  0  0  0  0  0
   16.5936   19.6740    5.1312 C   0  0  0  0  0  0  0  0  0  0  0  0
   16.6552   19.0513    3.7654 C   0  0  0  0  0  0  0  0  0  0  0  0
   15.7617   19.2025    2.7136 C   0  0  0  0  0  0  0  0  0  0  0  0
   15.9807   18.4778    1.5399 C   0  0  0  0  0  0  0  0  0  0  0  0
   17.0785   17.6118    1.4336 C   0  0  0  0  0  0  0  0  0  0  0  0
   17.9688   17.4569    2.4990 C   0  0  0  0  0  0  0  0  0  0  0  0
   17.7465   18.1846    3.6585 C   0  0  0  0  0  0  0  0  0  0  0  0
   18.5320   18.1280    4.9384 C   0  0  0  0  0  0  0  0  0  0  0  0
   18.0124   19.3610    5.7048 C   0  0  0  0  0  0  0  0  0  0  0  0
   18.9230   20.4603    5.4974 O   0  0  0  0  0  0  0  0  0  0  0  0
   19.0017   20.6402    4.5475 H   0  0  0  0  0  0  0  0  0  0  0  0
   15.1099   23.3472    7.2953 O   0  0  0  0  0  0  0  0  0  0  0  0
   16.3883   23.4439    7.9267 C   0  0  0  0  0  0  0  0  0  0  0  0
   16.6895   22.1544    8.6438 C   0  0  0  0  0  0  0  0  0  0  0  0
   18.0042   21.6677    8.6859 C   0  0  0  0  0  0  0  0  0  0  0  0
   18.2971   20.4654    9.3301 C   0  0  0  0  0  0  0  0  0  0  0  0
   17.2733   19.7447    9.9379 C   0  0  0  0  0  0  0  0  0  0  0  0
   17.6659   18.1146   10.8050 Br  0  0  0  0  0  0  0  0  0  0  0  0
   15.9618   20.2125    9.9090 C   0  0  0  0  0  0  0  0  0  0  0  0
   15.6704   21.4157    9.2608 C   0  0  0  0  0  0  0  0  0  0  0  0
  8  9  2  0
  9 10  1  0
 12 10  1  0
 12 13  1  0
 13 14  2  0
 14 15  1  0
 15 16  2  0
 16 17  1  0
 17 18  2  0
 18 19  1  0
 19 20  1  0
 20 21  1  0
  9  7  1  0
  7 23  1  0
 23 24  1  0
 24 25  1  0
 25 26  2  0
 26 27  1  0
 27 28  2  0
 28 29  1  0
 29 30  2  0
  7  4  1  0
  4  5  1  0
  4  1  1  0
  1  2  1  0
  1 31  1  0
 31 47  1  0
 47 48  1  0
 48 49  1  0
 49 50  2  0
 50 51  1  0
 51 52  2  0
 52 53  1  0
 52 54  1  0
 54 55  2  0
 31 32  1  0
 32 33  2  0
 32 34  1  0
 36 34  1  0
 36 37  1  0
 37 38  2  0
 38 39  1  0
 39 40  2  0
 40 41  1  0
 41 42  2  0
 42 43  1  0
 43 44  1  0
 44 45  1  0
 20 12  1  0
 30 25  1  0
 55 49  1  0
 44 36  1  0
 18 13  1  0
 42 37  1  0
 10 11  1  0
 21 22  1  0
  5  6  1  0
  2  3  1  0
 34 35  1  0
 45 46  1  0
M  END
> <minimizedAffinity>
-11.52620

> <CNNscore>
0.8087377548

> <CNNaffinity>
9.1233778000

> <CNN_VS>
7.3784198761

> <CNNaffinity_variance>
0.2929666936

$$$$



 55 60  0  0  0  0  0  0  0  0999 V2000
   12.8512   24.1987    6.1130 C   0  0  0  0  0  0  0  0  0  0  0  0
   13.2257   25.1213    7.1593 O   0  0  0  0  0  0  0  0  0  0  0  0
   13.5197   25.9567    6.7637 H   0  0  0  0  0  0  0  0  0  0  0  0
   14.0755   23.8155    5.2401 C   0  0  0  0  0  0  0  0  0  0  0  0
   14.6486   24.9821    4.6157 O   0  0  0  0  0  0  0  0  0  0  0  0
   14.9742   25.5879    5.2997 H   0  0  0  0  0  0  0  0  0  0  0  0
   15.1822   23.1100    6.0649 C   0  0  0  0  0  0  0  0  0  0  0  0
   13.9209   21.0325    6.4049 O   0  0  0  0  0  0  0  0  0  0  0  0
   14.9311   21.5852    5.9753 C   0  0  0  0  0  0  0  0  0  0  0  0
   15.9427   20.8964    5.3398 N   0  0  0  0  0  0  0  0  0  0  0  0
   16.7692   21.3742    5.0993 H   0  0  0  0  0  0  0  0  0  0  0  0
   15.8236   19.4906    5.0164 C   0  0  0  0  0  0  0  0  0  0  0  0
   15.7953   19.2732    3.5252 C   0  0  0  0  0  0  0  0  0  0  0  0
   14.7439   19.5182    2.6523 C   0  0  0  0  0  0  0  0  0  0  0  0
   14.9374   19.2817    1.2921 C   0  0  0  0  0  0  0  0  0  0  0  0
   16.1705   18.8062    0.8213 C   0  0  0  0  0  0  0  0  0  0  0  0
   17.2266   18.5625    1.7042 C   0  0  0  0  0  0  0  0  0  0  0  0
   17.0228   18.7942    3.0540 C   0  0  0  0  0  0  0  0  0  0  0  0
   18.0006   18.6343    4.1724 C   0  0  0  0  0  0  0  0  0  0  0  0
   17.0821   18.6587    5.4100 C   0  0  0  0  0  0  0  0  0  0  0  0
   17.7806   19.1895    6.5339 O   0  0  0  0  0  0  0  0  0  0  0  0
   18.0882   20.0864    6.3294 H   0  0  0  0  0  0  0  0  0  0  0  0
   15.1067   23.5404    7.4292 O   0  0  0  0  0  0  0  0  0  0  0  0
   16.3631   23.5052    8.1113 C   0  0  0  0  0  0  0  0  0  0  0  0
   16.6220   22.2180    8.8529 C   0  0  0  0  0  0  0  0  0  0  0  0
   15.5953   21.5810    9.5619 C   0  0  0  0  0  0  0  0  0  0  0  0
   15.8429   20.4011   10.2644 C   0  0  0  0  0  0  0  0  0  0  0  0
   17.1231   19.8558   10.2817 C   0  0  0  0  0  0  0  0  0  0  0  0
   18.1558   20.4847    9.5897 C   0  0  0  0  0  0  0  0  0  0  0  0
   17.9073   21.6616    8.8807 C   0  0  0  0  0  0  0  0  0  0  0  0
   11.6397   24.7549    5.3291 C   0  0  0  0  0  0  0  0  0  0  0  0
   10.5573   25.3012    6.2729 C   0  0  0  0  0  0  0  0  0  0  0  0
    9.5145   24.6961    6.5046 O   0  0  0  0  0  0  0  0  0  0  0  0
   10.8381   26.5321    6.8052 N   0  0  0  0  0  0  0  0  0  0  0  0
   11.7645   26.8655    6.8069 H   0  0  0  0  0  0  0  0  0  0  0  0
    9.7795   27.3441    7.3650 C   0  0  0  0  0  0  0  0  0  0  0  0
    8.4787   27.1601    6.6364 C   0  0  0  0  0  0  0  0  0  0  0  0
    8.2540   27.1778    5.2665 C   0  0  0  0  0  0  0  0  0  0  0  0
    6.9437   27.0440    4.8014 C   0  0  0  0  0  0  0  0  0  0  0  0
    5.8801   26.9013    5.7041 C   0  0  0  0  0  0  0  0  0  0  0  0
    6.1119   26.8937    7.0817 C   0  0  0  0  0  0  0  0  0  0  0  0
    7.4165   27.0217    7.5343 C   0  0  0  0  0  0  0  0  0  0  0  0
    7.8864   27.1015    8.9594 C   0  0  0  0  0  0  0  0  0  0  0  0
    9.4105   26.9130    8.8204 C   0  0  0  0  0  0  0  0  0  0  0  0
    9.7361   25.5288    9.0624 O   0  0  0  0  0  0  0  0  0  0  0  0
    9.2507   24.9683    8.4370 H   0  0  0  0  0  0  0  0  0  0  0  0
   11.1108   23.6528    4.5574 O   0  0  0  0  0  0  0  0  0  0  0  0
   11.0628   23.9275    3.1558 C   0  0  0  0  0  0  0  0  0  0  0  0
    9.6435   24.2325    2.7554 C   0  0  0  0  0  0  0  0  0  0  0  0
    8.6099   23.3580    3.1212 C   0  0  0  0  0  0  0  0  0  0  0  0
    7.2923   23.6163    2.7423 C   0  0  0  0  0  0  0  0  0  0  0  0
    7.0031   24.7546    1.9955 C   0  0  0  0  0  0  0  0  0  0  0  0
    5.2220   25.1033    1.4764 Br  0  0  0  0  0  0  0  0  0  0  0  0
    8.0152   25.6364    1.6244 C   0  0  0  0  0  0  0  0  0  0  0  0
    9.3346   25.3742    2.0029 C   0  0  0  0  0  0  0  0  0  0  0  0
  8  9  2  0
  9 10  1  0
 12 10  1  0
 12 13  1  0
 13 14  2  0
 14 15  1  0
 15 16  2  0
 16 17  1  0
 17 18  2  0
 18 19  1  0
 19 20  1  0
 20 21  1  0
  9  7  1  0
  7 23  1  0
 23 24  1  0
 24 25  1  0
 25 26  2  0
 26 27  1  0
 27 28  2  0
 28 29  1  0
 29 30  2  0
  7  4  1  0
  4  5  1  0
  4  1  1  0
  1  2  1  0
  1 31  1  0
 31 47  1  0
 47 48  1  0
 48 49  1  0
 49 50  2  0
 50 51  1  0
 51 52  2  0
 52 53  1  0
 52 54  1  0
 54 55  2  0
 31 32  1  0
 32 33  2  0
 32 34  1  0
 36 34  1  0
 36 37  1  0
 37 38  2  0
 38 39  1  0
 39 40  2  0
 40 41  1  0
 41 42  2  0
 42 43  1  0
 43 44  1  0
 44 45  1  0
 20 12  1  0
 30 25  1  0
 55 49  1  0
 44 36  1  0
 18 13  1  0
 42 37  1  0
 10 11  1  0
 21 22  1  0
  5  6  1  0
  2  3  1  0
 34 35  1  0
 45 46  1  0
M  END
> <minimizedAffinity>
-11.39236

> <CNNscore>
0.7952217460

> <CNNaffinity>
8.9147920609

> <CNN_VS>
7.0892367363

> <CNNaffinity_variance>
0.0411714725

$$$$



 55 60  0  0  0  0  0  0  0  0999 V2000
   12.5500   23.5682    6.5370 C   0  0  0  0  0  0  0  0  0  0  0  0
   11.8872   23.2710    5.2886 O   0  0  0  0  0  0  0  0  0  0  0  0
   12.3480   23.7204    4.5629 H   0  0  0  0  0  0  0  0  0  0  0  0
   12.4502   25.0786    6.8781 C   0  0  0  0  0  0  0  0  0  0  0  0
   12.8002   25.8886    5.7377 O   0  0  0  0  0  0  0  0  0  0  0  0
   12.1701   25.7243    5.0187 H   0  0  0  0  0  0  0  0  0  0  0  0
   11.0266   25.4789    7.3426 C   0  0  0  0  0  0  0  0  0  0  0  0
   10.1576   27.3500    6.0136 O   0  0  0  0  0  0  0  0  0  0  0  0
   10.3101   26.1369    6.1385 C   0  0  0  0  0  0  0  0  0  0  0  0
    9.8750   25.2313    5.1939 N   0  0  0  0  0  0  0  0  0  0  0  0
    9.9402   24.2684    5.3885 H   0  0  0  0  0  0  0  0  0  0  0  0
    9.3254   25.6565    3.9243 C   0  0  0  0  0  0  0  0  0  0  0  0
    9.4082   24.5570    2.8968 C   0  0  0  0  0  0  0  0  0  0  0  0
   10.5340   24.1186    2.2128 C   0  0  0  0  0  0  0  0  0  0  0  0
   10.4012   23.0533    1.3233 C   0  0  0  0  0  0  0  0  0  0  0  0
    9.1540   22.4415    1.1276 C   0  0  0  0  0  0  0  0  0  0  0  0
    8.0237   22.8857    1.8200 C   0  0  0  0  0  0  0  0  0  0  0  0
    8.1642   23.9484    2.6964 C   0  0  0  0  0  0  0  0  0  0  0  0
    7.1166   24.5736    3.5589 C   0  0  0  0  0  0  0  0  0  0  0  0
    7.7860   25.9000    3.9695 C   0  0  0  0  0  0  0  0  0  0  0  0
    7.3176   26.3146    5.2507 O   0  0  0  0  0  0  0  0  0  0  0  0
    7.5135   25.6259    5.9051 H   0  0  0  0  0  0  0  0  0  0  0  0
   11.1238   26.4119    8.4254 O   0  0  0  0  0  0  0  0  0  0  0  0
   10.0769   26.2803    9.3907 C   0  0  0  0  0  0  0  0  0  0  0  0
    8.7823   26.9380    8.9842 C   0  0  0  0  0  0  0  0  0  0  0  0
    7.7175   26.1759    8.4862 C   0  0  0  0  0  0  0  0  0  0  0  0
    6.5281   26.7896    8.0912 C   0  0  0  0  0  0  0  0  0  0  0  0
    6.3974   28.1727    8.1717 C   0  0  0  0  0  0  0  0  0  0  0  0
    7.4523   28.9436    8.6551 C   0  0  0  0  0  0  0  0  0  0  0  0
    8.6401   28.3297    9.0571 C   0  0  0  0  0  0  0  0  0  0  0  0
   13.9871   22.9971    6.5193 C   0  0  0  0  0  0  0  0  0  0  0  0
   14.0293   21.5896    5.9043 C   0  0  0  0  0  0  0  0  0  0  0  0
   13.0584   20.8380    5.9045 O   0  0  0  0  0  0  0  0  0  0  0  0
   15.2473   21.2328    5.3883 N   0  0  0  0  0  0  0  0  0  0  0  0
   15.9121   21.9273    5.1761 H   0  0  0  0  0  0  0  0  0  0  0  0
   15.5611   19.8399    5.1538 C   0  0  0  0  0  0  0  0  0  0  0  0
   15.6910   19.5271    3.6901 C   0  0  0  0  0  0  0  0  0  0  0  0
   14.8285   19.8758    2.6596 C   0  0  0  0  0  0  0  0  0  0  0  0
   15.1128   19.4264    1.3680 C   0  0  0  0  0  0  0  0  0  0  0  0
   16.2439   18.6344    1.1238 C   0  0  0  0  0  0  0  0  0  0  0  0
   17.1028   18.2791    2.1668 C   0  0  0  0  0  0  0  0  0  0  0  0
   16.8156   18.7342    3.4450 C   0  0  0  0  0  0  0  0  0  0  0  0
   17.5591   18.4259    4.7140 C   0  0  0  0  0  0  0  0  0  0  0  0
   16.9701   19.4506    5.7044 C   0  0  0  0  0  0  0  0  0  0  0  0
   17.8472   20.5937    5.7737 O   0  0  0  0  0  0  0  0  0  0  0  0
   17.9513   20.9755    4.8881 H   0  0  0  0  0  0  0  0  0  0  0  0
   14.4245   22.9471    7.8962 O   0  0  0  0  0  0  0  0  0  0  0  0
   15.8312   23.1534    8.0408 C   0  0  0  0  0  0  0  0  0  0  0  0
   16.4413   21.9640    8.7343 C   0  0  0  0  0  0  0  0  0  0  0  0
   15.6148   21.0146    9.3527 C   0  0  0  0  0  0  0  0  0  0  0  0
   16.1647   19.9168   10.0152 C   0  0  0  0  0  0  0  0  0  0  0  0
   17.5473   19.7637   10.0599 C   0  0  0  0  0  0  0  0  0  0  0  0
   18.2942   18.2825   10.9609 Br  0  0  0  0  0  0  0  0  0  0  0  0
   18.3848   20.6944    9.4500 C   0  0  0  0  0  0  0  0  0  0  0  0
   17.8317   21.7945    8.7892 C   0  0  0  0  0  0  0  0  0  0  0  0
  8  9  2  0
  9 10  1  0
 12 10  1  0
 12 13  1  0
 13 14  2  0
 14 15  1  0
 15 16  2  0
 16 17  1  0
 17 18  2  0
 18 19  1  0
 19 20  1  0
 20 21  1  0
  9  7  1  0
  7 23  1  0
 23 24  1  0
 24 25  1  0
 25 26  2  0
 26 27  1  0
 27 28  2  0
 28 29  1  0
 29 30  2  0
  7  4  1  0
  4  5  1  0
  4  1  1  0
  1  2  1  0
  1 31  1  0
 31 47  1  0
 47 48  1  0
 48 49  1  0
 49 50  2  0
 50 51  1  0
 51 52  2  0
 52 53  1  0
 52 54  1  0
 54 55  2  0
 31 32  1  0
 32 33  2  0
 32 34  1  0
 36 34  1  0
 36 37  1  0
 37 38  2  0
 38 39  1  0
 39 40  2  0
 40 41  1  0
 41 42  2  0
 42 43  1  0
 43 44  1  0
 44 45  1  0
 20 12  1  0
 30 25  1  0
 55 49  1  0
 44 36  1  0
 18 13  1  0
 42 37  1  0
 10 11  1  0
 21 22  1  0
  5  6  1  0
  2  3  1  0
 34 35  1  0
 45 46  1  0
M  END
> <minimizedAffinity>
-10.24095

> <CNNscore>
0.6874057651

> <CNNaffinity>
8.6992444992

> <CNN_VS>
5.9799108505

> <CNNaffinity_variance>
0.0257545915

$$$$
