


 26 27  0  0  0  0  0  0  0  0999 V2000
    9.1514    6.4304    6.3820 N   0  0  0  0  0  0  0  0  0  0  0  0
    9.0415    5.9889    5.1860 C   0  0  0  0  0  0  0  0  0  0  0  0
    9.7991    6.4718    4.1477 O   0  0  0  0  0  0  0  0  0  0  0  0
    9.3827    5.7947    2.9450 C   0  0  0  0  0  0  0  0  0  0  0  0
    8.7195    4.5262    3.4545 C   0  0  0  0  0  0  0  0  0  0  0  0
    7.6132    3.9665    2.5552 C   0  0  0  0  0  0  0  0  0  0  0  0
    8.1858    2.9809    1.6815 O   0  0  0  0  0  0  0  0  0  0  0  0
    6.4760    3.3139    3.3831 C   0  0  0  0  0  0  0  0  0  0  0  0
    5.3830    4.2283    3.5367 O   0  0  0  0  0  0  0  0  0  0  0  0
    6.9852    2.8546    4.7660 C   0  0  0  0  0  0  0  0  0  0  0  0
    8.0033    1.8572    4.5593 O   0  0  0  0  0  0  0  0  0  0  0  0
    7.5156    4.0733    5.5830 C   0  0  0  0  0  0  0  0  0  0  0  0
    6.4083    4.7481    6.1499 O   0  0  0  0  0  0  0  0  0  0  0  0
    8.2282    4.9918    4.7303 N   0  0  0  0  0  0  0  0  0  0  0  0
    8.5616    2.2596    2.2100 H   0  0  0  0  0  0  0  0  0  0  0  0
    5.6843    5.0144    4.0185 H   0  0  0  0  0  0  0  0  0  0  0  0
    8.7289    2.2385    4.0405 H   0  0  0  0  0  0  0  0  0  0  0  0
    5.8211    5.0572    5.4424 H   0  0  0  0  0  0  0  0  0  0  0  0
   10.1111    7.5154    6.5802 C   0  0  0  0  0  0  0  0  0  0  0  0
    9.6123    8.4235    7.7050 C   0  0  0  0  0  0  0  0  0  0  0  0
   10.0905    9.8708    7.5448 C   0  0  0  0  0  0  0  0  0  0  0  0
   11.5977    9.9281    7.2834 C   0  0  0  0  0  0  0  0  0  0  0  0
   11.9558   10.3972    5.8691 C   0  0  0  0  0  0  0  0  0  0  0  0
   13.3849   10.9337    5.7508 C   0  0  0  0  0  0  0  0  0  0  0  0
   14.3095    9.7149    3.7054 C   0  0  0  0  0  0  0  0  0  0  0  0
   13.8715   11.0431    4.3032 C   0  0  0  0  0  0  0  0  0  0  0  0
 25 26  1  0
 26 24  1  0
 24 23  1  0
 23 22  1  0
 22 21  1  0
 21 20  1  0
 20 19  1  0
 19  1  1  0
  1  2  2  0
  2  3  1  0
  3  4  1  0
  5  4  1  0
  5  6  1  0
  6  7  1  0
  6  8  1  0
  8  9  1  0
  8 10  1  0
 10 11  1  0
 10 12  1  0
 12 13  1  0
 12 14  1  0
 14  2  1  0
 14  5  1  0
  7 15  1  0
  9 16  1  0
 11 17  1  0
 13 18  1  0
M  END
> <minimizedAffinity>
-6.20943

> <CNNscore>
0.4082758129

> <CNNaffinity>
4.3484954834

> <CNN_VS>
1.7753854990

> <CNNaffinity_variance>
0.4329287708

$$$$



 26 27  0  0  0  0  0  0  0  0999 V2000
    8.9602    6.6585    6.2765 N   0  0  0  0  0  0  0  0  0  0  0  0
    8.8733    6.1668    5.0983 C   0  0  0  0  0  0  0  0  0  0  0  0
    9.6091    6.6447    4.0421 O   0  0  0  0  0  0  0  0  0  0  0  0
    9.2271    5.9032    2.8663 C   0  0  0  0  0  0  0  0  0  0  0  0
    8.6235    4.6253    3.4243 C   0  0  0  0  0  0  0  0  0  0  0  0
    7.5464    3.9800    2.5472 C   0  0  0  0  0  0  0  0  0  0  0  0
    8.1662    2.9897    1.7119 O   0  0  0  0  0  0  0  0  0  0  0  0
    6.4397    3.3068    3.3996 C   0  0  0  0  0  0  0  0  0  0  0  0
    5.3045    4.1739    3.5181 O   0  0  0  0  0  0  0  0  0  0  0  0
    6.9676    2.9253    4.7991 C   0  0  0  0  0  0  0  0  0  0  0  0
    8.0319    1.9699    4.6306 O   0  0  0  0  0  0  0  0  0  0  0  0
    7.4386    4.1981    5.5686 C   0  0  0  0  0  0  0  0  0  0  0  0
    6.2998    4.8412    6.1094 O   0  0  0  0  0  0  0  0  0  0  0  0
    8.1086    5.1158    4.6812 N   0  0  0  0  0  0  0  0  0  0  0  0
    8.5746    2.3077    2.2676 H   0  0  0  0  0  0  0  0  0  0  0  0
    5.5677    4.9912    3.9694 H   0  0  0  0  0  0  0  0  0  0  0  0
    8.7396    2.3648    4.0976 H   0  0  0  0  0  0  0  0  0  0  0  0
    5.6999    5.0949    5.3905 H   0  0  0  0  0  0  0  0  0  0  0  0
    9.8674    7.7943    6.4328 C   0  0  0  0  0  0  0  0  0  0  0  0
    9.5914    8.4723    7.7756 C   0  0  0  0  0  0  0  0  0  0  0  0
   10.1264    9.9076    7.8278 C   0  0  0  0  0  0  0  0  0  0  0  0
    8.9810   10.9217    7.8813 C   0  0  0  0  0  0  0  0  0  0  0  0
    8.1642   10.8541    9.1762 C   0  0  0  0  0  0  0  0  0  0  0  0
    7.2157   12.0420    9.3586 C   0  0  0  0  0  0  0  0  0  0  0  0
    5.7738   11.3067   11.3345 C   0  0  0  0  0  0  0  0  0  0  0  0
    6.8209   12.2815   10.8184 C   0  0  0  0  0  0  0  0  0  0  0  0
 25 26  1  0
 26 24  1  0
 24 23  1  0
 23 22  1  0
 22 21  1  0
 21 20  1  0
 20 19  1  0
 19  1  1  0
  1  2  2  0
  2  3  1  0
  3  4  1  0
  5  4  1  0
  5  6  1  0
  6  7  1  0
  6  8  1  0
  8  9  1  0
  8 10  1  0
 10 11  1  0
 10 12  1  0
 12 13  1  0
 12 14  1  0
 14  2  1  0
 14  5  1  0
  7 15  1  0
  9 16  1  0
 11 17  1  0
 13 18  1  0
M  END
> <minimizedAffinity>
-6.12300

> <CNNscore>
0.3031395674

> <CNNaffinity>
4.0671114922

> <CNN_VS>
1.2329024076

> <CNNaffinity_variance>
0.7886773944

$$$$



 26 27  0  0  0  0  0  0  0  0999 V2000
    7.9138    5.7109    5.7461 N   0  0  0  0  0  0  0  0  0  0  0  0
    6.7950    5.5130    5.1574 C   0  0  0  0  0  0  0  0  0  0  0  0
    6.1664    6.4854    4.4193 O   0  0  0  0  0  0  0  0  0  0  0  0
    4.9167    5.9431    3.9477 C   0  0  0  0  0  0  0  0  0  0  0  0
    5.1250    4.4397    4.0173 C   0  0  0  0  0  0  0  0  0  0  0  0
    3.8538    3.6191    4.2555 C   0  0  0  0  0  0  0  0  0  0  0  0
    3.3292    3.2048    2.9844 O   0  0  0  0  0  0  0  0  0  0  0  0
    4.1345    2.3653    5.1237 C   0  0  0  0  0  0  0  0  0  0  0  0
    3.7879    2.6178    6.4913 O   0  0  0  0  0  0  0  0  0  0  0  0
    5.6129    1.9337    5.0193 C   0  0  0  0  0  0  0  0  0  0  0  0
    5.8815    1.5851    3.6480 O   0  0  0  0  0  0  0  0  0  0  0  0
    6.5496    3.0723    5.5292 C   0  0  0  0  0  0  0  0  0  0  0  0
    6.5764    3.0302    6.9435 O   0  0  0  0  0  0  0  0  0  0  0  0
    6.0598    4.3637    5.1154 N   0  0  0  0  0  0  0  0  0  0  0  0
    3.9838    2.6524    2.5290 H   0  0  0  0  0  0  0  0  0  0  0  0
    4.3339    3.3421    6.8348 H   0  0  0  0  0  0  0  0  0  0  0  0
    5.7118    2.3530    3.0801 H   0  0  0  0  0  0  0  0  0  0  0  0
    5.6795    3.1635    7.2880 H   0  0  0  0  0  0  0  0  0  0  0  0
    8.4762    7.0547    5.6212 C   0  0  0  0  0  0  0  0  0  0  0  0
    9.9719    7.0009    5.9358 C   0  0  0  0  0  0  0  0  0  0  0  0
   10.6618    8.3545    5.7340 C   0  0  0  0  0  0  0  0  0  0  0  0
   10.8979    9.0583    7.0727 C   0  0  0  0  0  0  0  0  0  0  0  0
   11.8226   10.2759    6.9689 C   0  0  0  0  0  0  0  0  0  0  0  0
   12.5116   10.4009    5.6073 C   0  0  0  0  0  0  0  0  0  0  0  0
   14.7924   11.5277    5.3786 C   0  0  0  0  0  0  0  0  0  0  0  0
   13.2839   11.7122    5.4389 C   0  0  0  0  0  0  0  0  0  0  0  0
 25 26  1  0
 26 24  1  0
 24 23  1  0
 23 22  1  0
 22 21  1  0
 21 20  1  0
 20 19  1  0
 19  1  1  0
  1  2  2  0
  2  3  1  0
  3  4  1  0
  5  4  1  0
  5  6  1  0
  6  7  1  0
  6  8  1  0
  8  9  1  0
  8 10  1  0
 10 11  1  0
 10 12  1  0
 12 13  1  0
 12 14  1  0
 14  2  1  0
 14  5  1  0
  7 15  1  0
  9 16  1  0
 11 17  1  0
 13 18  1  0
M  END
> <minimizedAffinity>
-6.52972

> <CNNscore>
0.2175307274

> <CNNaffinity>
4.2472376823

> <CNN_VS>
0.9239047170

> <CNNaffinity_variance>
0.1578230560

$$$$



 26 27  0  0  0  0  0  0  0  0999 V2000
    5.6545    3.7634    7.6480 N   0  0  0  0  0  0  0  0  0  0  0  0
    6.1856    4.0246    6.5135 C   0  0  0  0  0  0  0  0  0  0  0  0
    6.8437    5.2026    6.2595 O   0  0  0  0  0  0  0  0  0  0  0  0
    7.2652    5.1847    4.8810 C   0  0  0  0  0  0  0  0  0  0  0  0
    7.2725    3.7079    4.5237 C   0  0  0  0  0  0  0  0  0  0  0  0
    6.9967    3.3959    3.0497 C   0  0  0  0  0  0  0  0  0  0  0  0
    8.2520    3.2806    2.3616 O   0  0  0  0  0  0  0  0  0  0  0  0
    6.2009    2.0756    2.8818 C   0  0  0  0  0  0  0  0  0  0  0  0
    4.8059    2.3532    2.7046 O   0  0  0  0  0  0  0  0  0  0  0  0
    6.4089    1.1407    4.0924 C   0  0  0  0  0  0  0  0  0  0  0  0
    7.8071    0.8027    4.1616 O   0  0  0  0  0  0  0  0  0  0  0  0
    5.9055    1.8247    5.4011 C   0  0  0  0  0  0  0  0  0  0  0  0
    4.4982    1.6892    5.4642 O   0  0  0  0  0  0  0  0  0  0  0  0
    6.2345    3.2284    5.4058 N   0  0  0  0  0  0  0  0  0  0  0  0
    8.7678    2.5562    2.7491 H   0  0  0  0  0  0  0  0  0  0  0  0
    4.4637    2.8053    3.4916 H   0  0  0  0  0  0  0  0  0  0  0  0
    8.3308    1.6126    4.2650 H   0  0  0  0  0  0  0  0  0  0  0  0
    4.0970    2.1198    4.6931 H   0  0  0  0  0  0  0  0  0  0  0  0
    5.7539    4.8135    8.6605 C   0  0  0  0  0  0  0  0  0  0  0  0
    4.5390    4.7311    9.5857 C   0  0  0  0  0  0  0  0  0  0  0  0
    3.2594    4.3392    8.8387 C   0  0  0  0  0  0  0  0  0  0  0  0
    3.4578    4.4231    7.3231 C   0  0  0  0  0  0  0  0  0  0  0  0
    2.7430    5.6152    6.6778 C   0  0  0  0  0  0  0  0  0  0  0  0
    2.2657    5.3367    5.2499 C   0  0  0  0  0  0  0  0  0  0  0  0
    4.2687    6.7921    4.6223 C   0  0  0  0  0  0  0  0  0  0  0  0
    3.3022    5.7026    4.1841 C   0  0  0  0  0  0  0  0  0  0  0  0
 25 26  1  0
 26 24  1  0
 24 23  1  0
 23 22  1  0
 22 21  1  0
 21 20  1  0
 20 19  1  0
 19  1  1  0
  1  2  2  0
  2  3  1  0
  3  4  1  0
  5  4  1  0
  5  6  1  0
  6  7  1  0
  6  8  1  0
  8  9  1  0
  8 10  1  0
 10 11  1  0
 10 12  1  0
 12 13  1  0
 12 14  1  0
 14  2  1  0
 14  5  1  0
  7 15  1  0
  9 16  1  0
 11 17  1  0
 13 18  1  0
M  END
> <minimizedAffinity>
-7.29339

> <CNNscore>
0.2140036225

> <CNNaffinity>
4.6815443039

> <CNN_VS>
1.0018674135

> <CNNaffinity_variance>
0.3683637679

$$$$



 26 27  0  0  0  0  0  0  0  0999 V2000
    6.5168    5.2627    8.3769 N   0  0  0  0  0  0  0  0  0  0  0  0
    5.5290    4.5280    8.0277 C   0  0  0  0  0  0  0  0  0  0  0  0
    4.4480    4.3062    8.8449 O   0  0  0  0  0  0  0  0  0  0  0  0
    3.5581    3.3994    8.1636 C   0  0  0  0  0  0  0  0  0  0  0  0
    3.9439    3.5438    6.7011 C   0  0  0  0  0  0  0  0  0  0  0  0
    3.7130    2.2962    5.8432 C   0  0  0  0  0  0  0  0  0  0  0  0
    2.4222    2.3980    5.2219 O   0  0  0  0  0  0  0  0  0  0  0  0
    4.7967    2.1469    4.7441 C   0  0  0  0  0  0  0  0  0  0  0  0
    5.8088    1.2228    5.1638 O   0  0  0  0  0  0  0  0  0  0  0  0
    5.4310    3.5107    4.3968 C   0  0  0  0  0  0  0  0  0  0  0  0
    4.3957    4.3661    3.8768 O   0  0  0  0  0  0  0  0  0  0  0  0
    6.1231    4.1248    5.6529 C   0  0  0  0  0  0  0  0  0  0  0  0
    7.3884    3.5110    5.8117 O   0  0  0  0  0  0  0  0  0  0  0  0
    5.3409    3.8829    6.8396 N   0  0  0  0  0  0  0  0  0  0  0  0
    2.3979    3.1837    4.6537 H   0  0  0  0  0  0  0  0  0  0  0  0
    6.2437    1.5603    5.9624 H   0  0  0  0  0  0  0  0  0  0  0  0
    3.7010    4.4758    4.5448 H   0  0  0  0  0  0  0  0  0  0  0  0
    7.2713    2.5560    5.9349 H   0  0  0  0  0  0  0  0  0  0  0  0
    6.4507    5.8302    9.7227 C   0  0  0  0  0  0  0  0  0  0  0  0
    7.3377    7.0745    9.7837 C   0  0  0  0  0  0  0  0  0  0  0  0
    8.3168    7.1540    8.6072 C   0  0  0  0  0  0  0  0  0  0  0  0
    8.9771    8.5329    8.5313 C   0  0  0  0  0  0  0  0  0  0  0  0
    9.7563    8.7673    7.2327 C   0  0  0  0  0  0  0  0  0  0  0  0
   11.1594    9.3361    7.4606 C   0  0  0  0  0  0  0  0  0  0  0  0
   10.1997   11.5760    6.6952 C   0  0  0  0  0  0  0  0  0  0  0  0
   11.4067   10.6509    6.7161 C   0  0  0  0  0  0  0  0  0  0  0  0
 25 26  1  0
 26 24  1  0
 24 23  1  0
 23 22  1  0
 22 21  1  0
 21 20  1  0
 20 19  1  0
 19  1  1  0
  1  2  2  0
  2  3  1  0
  3  4  1  0
  5  4  1  0
  5  6  1  0
  6  7  1  0
  6  8  1  0
  8  9  1  0
  8 10  1  0
 10 11  1  0
 10 12  1  0
 12 13  1  0
 12 14  1  0
 14  2  1  0
 14  5  1  0
  7 15  1  0
  9 16  1  0
 11 17  1  0
 13 18  1  0
M  END
> <minimizedAffinity>
-6.85931

> <CNNscore>
0.2013037205

> <CNNaffinity>
4.5207099915

> <CNN_VS>
0.9100357294

> <CNNaffinity_variance>
0.1451462060

$$$$



 26 27  0  0  0  0  0  0  0  0999 V2000
    5.9653    4.6030    6.2260 N   0  0  0  0  0  0  0  0  0  0  0  0
    7.0441    5.2546    6.0042 C   0  0  0  0  0  0  0  0  0  0  0  0
    7.8056    5.7885    7.0142 O   0  0  0  0  0  0  0  0  0  0  0  0
    8.9085    6.4937    6.4102 C   0  0  0  0  0  0  0  0  0  0  0  0
    9.0180    5.8770    5.0259 C   0  0  0  0  0  0  0  0  0  0  0  0
    9.5719    6.8081    3.9432 C   0  0  0  0  0  0  0  0  0  0  0  0
   10.9893    6.6014    3.8402 O   0  0  0  0  0  0  0  0  0  0  0  0
    8.9164    6.5381    2.5640 C   0  0  0  0  0  0  0  0  0  0  0  0
    7.8640    7.4798    2.3190 O   0  0  0  0  0  0  0  0  0  0  0  0
    8.3724    5.0961    2.4773 C   0  0  0  0  0  0  0  0  0  0  0  0
    9.4826    4.1898    2.6188 O   0  0  0  0  0  0  0  0  0  0  0  0
    7.2803    4.8600    3.5661 C   0  0  0  0  0  0  0  0  0  0  0  0
    6.0610    5.4101    3.1038 O   0  0  0  0  0  0  0  0  0  0  0  0
    7.6396    5.5088    4.8025 N   0  0  0  0  0  0  0  0  0  0  0  0
   11.1644    5.6811    3.5885 H   0  0  0  0  0  0  0  0  0  0  0  0
    7.1768    7.3802    2.9963 H   0  0  0  0  0  0  0  0  0  0  0  0
    9.9141    4.3383    3.4747 H   0  0  0  0  0  0  0  0  0  0  0  0
    6.1728    6.3615    2.9513 H   0  0  0  0  0  0  0  0  0  0  0  0
    5.5613    4.4877    7.6264 C   0  0  0  0  0  0  0  0  0  0  0  0
    4.1573    3.8851    7.6927 C   0  0  0  0  0  0  0  0  0  0  0  0
    3.4517    4.1889    9.0189 C   0  0  0  0  0  0  0  0  0  0  0  0
    2.6224    5.4719    8.9214 C   0  0  0  0  0  0  0  0  0  0  0  0
    2.1154    5.9769   10.2765 C   0  0  0  0  0  0  0  0  0  0  0  0
    1.0635    7.0830   10.1575 C   0  0  0  0  0  0  0  0  0  0  0  0
    0.8048    6.5369   12.6392 C   0  0  0  0  0  0  0  0  0  0  0  0
    0.2415    7.2753   11.4348 C   0  0  0  0  0  0  0  0  0  0  0  0
 25 26  1  0
 26 24  1  0
 24 23  1  0
 23 22  1  0
 22 21  1  0
 21 20  1  0
 20 19  1  0
 19  1  1  0
  1  2  2  0
  2  3  1  0
  3  4  1  0
  5  4  1  0
  5  6  1  0
  6  7  1  0
  6  8  1  0
  8  9  1  0
  8 10  1  0
 10 11  1  0
 10 12  1  0
 12 13  1  0
 12 14  1  0
 14  2  1  0
 14  5  1  0
  7 15  1  0
  9 16  1  0
 11 17  1  0
 13 18  1  0
M  END
> <minimizedAffinity>
-6.56606

> <CNNscore>
0.2005471587

> <CNNaffinity>
4.0332360268

> <CNN_VS>
0.8088540435

> <CNNaffinity_variance>
0.6084650159

$$$$



 26 27  0  0  0  0  0  0  0  0999 V2000
    5.8293    7.1735    9.6736 N   0  0  0  0  0  0  0  0  0  0  0  0
    6.7381    8.0491    9.4618 C   0  0  0  0  0  0  0  0  0  0  0  0
    7.9430    7.7378    8.8817 O   0  0  0  0  0  0  0  0  0  0  0  0
    8.7385    8.9395    8.8440 C   0  0  0  0  0  0  0  0  0  0  0  0
    7.7134   10.0560    8.9497 C   0  0  0  0  0  0  0  0  0  0  0  0
    8.2195   11.3406    9.6128 C   0  0  0  0  0  0  0  0  0  0  0  0
    8.6759   12.2376    8.5883 O   0  0  0  0  0  0  0  0  0  0  0  0
    7.1073   12.0359   10.4400 C   0  0  0  0  0  0  0  0  0  0  0  0
    7.2367   11.7037   11.8282 O   0  0  0  0  0  0  0  0  0  0  0  0
    5.7044   11.6468    9.9271 C   0  0  0  0  0  0  0  0  0  0  0  0
    5.5843   12.0995    8.5653 O   0  0  0  0  0  0  0  0  0  0  0  0
    5.4859   10.1073   10.0547 C   0  0  0  0  0  0  0  0  0  0  0  0
    5.1412    9.8136   11.3955 O   0  0  0  0  0  0  0  0  0  0  0  0
    6.6902    9.3886    9.7200 N   0  0  0  0  0  0  0  0  0  0  0  0
    7.9387   12.4543    7.9963 H   0  0  0  0  0  0  0  0  0  0  0  0
    7.1336   10.7460   11.9425 H   0  0  0  0  0  0  0  0  0  0  0  0
    6.2713   11.6807    8.0236 H   0  0  0  0  0  0  0  0  0  0  0  0
    5.8607   10.0933   11.9829 H   0  0  0  0  0  0  0  0  0  0  0  0
    6.1599    5.8005    9.2952 C   0  0  0  0  0  0  0  0  0  0  0  0
    5.3320    4.8355   10.1451 C   0  0  0  0  0  0  0  0  0  0  0  0
    3.9215    4.6235    9.5842 C   0  0  0  0  0  0  0  0  0  0  0  0
    2.8836    5.4086   10.3902 C   0  0  0  0  0  0  0  0  0  0  0  0
    3.2098    5.4978   11.8849 C   0  0  0  0  0  0  0  0  0  0  0  0
    2.3438    6.5127   12.6360 C   0  0  0  0  0  0  0  0  0  0  0  0
    0.1383    7.2596   11.5862 C   0  0  0  0  0  0  0  0  0  0  0  0
    0.8421    6.2548   12.4852 C   0  0  0  0  0  0  0  0  0  0  0  0
 25 26  1  0
 26 24  1  0
 24 23  1  0
 23 22  1  0
 22 21  1  0
 21 20  1  0
 20 19  1  0
 19  1  1  0
  1  2  2  0
  2  3  1  0
  3  4  1  0
  5  4  1  0
  5  6  1  0
  6  7  1  0
  6  8  1  0
  8  9  1  0
  8 10  1  0
 10 11  1  0
 10 12  1  0
 12 13  1  0
 12 14  1  0
 14  2  1  0
 14  5  1  0
  7 15  1  0
  9 16  1  0
 11 17  1  0
 13 18  1  0
M  END
> <minimizedAffinity>
-6.68855

> <CNNscore>
0.1982859373

> <CNNaffinity>
3.7562077045

> <CNN_VS>
0.7448031902

> <CNNaffinity_variance>
1.6485500336

$$$$



 26 27  0  0  0  0  0  0  0  0999 V2000
    6.3368    6.4483    5.3852 N   0  0  0  0  0  0  0  0  0  0  0  0
    5.1975    5.9188    5.1420 C   0  0  0  0  0  0  0  0  0  0  0  0
    4.1648    6.6188    4.5684 O   0  0  0  0  0  0  0  0  0  0  0  0
    3.0255    5.7390    4.4890 C   0  0  0  0  0  0  0  0  0  0  0  0
    3.6353    4.3493    4.5615 C   0  0  0  0  0  0  0  0  0  0  0  0
    2.7337    3.2770    5.1807 C   0  0  0  0  0  0  0  0  0  0  0  0
    2.0268    2.6057    4.1260 O   0  0  0  0  0  0  0  0  0  0  0  0
    3.5516    2.2361    5.9884 C   0  0  0  0  0  0  0  0  0  0  0  0
    3.5171    2.5507    7.3863 O   0  0  0  0  0  0  0  0  0  0  0  0
    5.0120    2.1677    5.4931 C   0  0  0  0  0  0  0  0  0  0  0  0
    4.9984    1.7413    4.1176 O   0  0  0  0  0  0  0  0  0  0  0  0
    5.7125    3.5503    5.6714 C   0  0  0  0  0  0  0  0  0  0  0  0
    6.1151    3.6771    7.0222 O   0  0  0  0  0  0  0  0  0  0  0  0
    4.8082    4.6282    5.3565 N   0  0  0  0  0  0  0  0  0  0  0  0
    2.6631    2.1809    3.5297 H   0  0  0  0  0  0  0  0  0  0  0  0
    3.9214    3.4203    7.5321 H   0  0  0  0  0  0  0  0  0  0  0  0
    4.4902    2.3751    3.5875 H   0  0  0  0  0  0  0  0  0  0  0  0
    5.3360    3.6267    7.5979 H   0  0  0  0  0  0  0  0  0  0  0  0
    6.4708    7.8653    5.0507 C   0  0  0  0  0  0  0  0  0  0  0  0
    7.6299    8.0386    4.0682 C   0  0  0  0  0  0  0  0  0  0  0  0
    8.7868    8.8481    4.6643 C   0  0  0  0  0  0  0  0  0  0  0  0
    9.9926    7.9523    4.9588 C   0  0  0  0  0  0  0  0  0  0  0  0
   10.2146    7.6973    6.4535 C   0  0  0  0  0  0  0  0  0  0  0  0
   10.8150    8.8968    7.1917 C   0  0  0  0  0  0  0  0  0  0  0  0
    8.8074    9.0016    8.7674 C   0  0  0  0  0  0  0  0  0  0  0  0
    9.7625    9.7762    7.8723 C   0  0  0  0  0  0  0  0  0  0  0  0
 25 26  1  0
 26 24  1  0
 24 23  1  0
 23 22  1  0
 22 21  1  0
 21 20  1  0
 20 19  1  0
 19  1  1  0
  1  2  2  0
  2  3  1  0
  3  4  1  0
  5  4  1  0
  5  6  1  0
  6  7  1  0
  6  8  1  0
  8  9  1  0
  8 10  1  0
 10 11  1  0
 10 12  1  0
 12 13  1  0
 12 14  1  0
 14  2  1  0
 14  5  1  0
  7 15  1  0
  9 16  1  0
 11 17  1  0
 13 18  1  0
M  END
> <minimizedAffinity>
-6.36410

> <CNNscore>
0.1964164525

> <CNNaffinity>
3.9625415802

> <CNN_VS>
0.7783083320

> <CNNaffinity_variance>
0.9989169240

$$$$



 26 27  0  0  0  0  0  0  0  0999 V2000
    7.0725    7.4304    7.8464 N   0  0  0  0  0  0  0  0  0  0  0  0
    6.3069    8.1626    8.5641 C   0  0  0  0  0  0  0  0  0  0  0  0
    5.1813    7.6733    9.1797 O   0  0  0  0  0  0  0  0  0  0  0  0
    4.5345    8.7710    9.8545 C   0  0  0  0  0  0  0  0  0  0  0  0
    5.6439    9.7949   10.0260 C   0  0  0  0  0  0  0  0  0  0  0  0
    5.1805   11.2545   10.0550 C   0  0  0  0  0  0  0  0  0  0  0  0
    4.9886   11.6487   11.4225 O   0  0  0  0  0  0  0  0  0  0  0  0
    6.2174   12.1989    9.3935 C   0  0  0  0  0  0  0  0  0  0  0  0
    5.8376   12.4883    8.0421 O   0  0  0  0  0  0  0  0  0  0  0  0
    7.6336   11.5859    9.4297 C   0  0  0  0  0  0  0  0  0  0  0  0
    8.0130   11.4171   10.8087 O   0  0  0  0  0  0  0  0  0  0  0  0
    7.6636   10.2382    8.6442 C   0  0  0  0  0  0  0  0  0  0  0  0
    7.7608   10.5277    7.2623 O   0  0  0  0  0  0  0  0  0  0  0  0
    6.4567    9.4836    8.8736 N   0  0  0  0  0  0  0  0  0  0  0  0
    5.8282   11.5719   11.9021 H   0  0  0  0  0  0  0  0  0  0  0  0
    5.8187   11.6658    7.5283 H   0  0  0  0  0  0  0  0  0  0  0  0
    7.3785   10.8304   11.2492 H   0  0  0  0  0  0  0  0  0  0  0  0
    6.9924   11.0517    6.9869 H   0  0  0  0  0  0  0  0  0  0  0  0
    6.6604    6.0371    7.6835 C   0  0  0  0  0  0  0  0  0  0  0  0
    7.7558    5.2770    6.9344 C   0  0  0  0  0  0  0  0  0  0  0  0
    7.1902    4.1853    6.0194 C   0  0  0  0  0  0  0  0  0  0  0  0
    6.0841    3.3945    6.7226 C   0  0  0  0  0  0  0  0  0  0  0  0
    4.7154    3.5226    6.0453 C   0  0  0  0  0  0  0  0  0  0  0  0
    3.5950    3.9195    7.0103 C   0  0  0  0  0  0  0  0  0  0  0  0
    3.5724    5.9708    5.4886 C   0  0  0  0  0  0  0  0  0  0  0  0
    2.8722    5.2057    6.6010 C   0  0  0  0  0  0  0  0  0  0  0  0
 25 26  1  0
 26 24  1  0
 24 23  1  0
 23 22  1  0
 22 21  1  0
 21 20  1  0
 20 19  1  0
 19  1  1  0
  1  2  2  0
  2  3  1  0
  3  4  1  0
  5  4  1  0
  5  6  1  0
  6  7  1  0
  6  8  1  0
  8  9  1  0
  8 10  1  0
 10 11  1  0
 10 12  1  0
 12 13  1  0
 12 14  1  0
 14  2  1  0
 14  5  1  0
  7 15  1  0
  9 16  1  0
 11 17  1  0
 13 18  1  0
M  END
> <minimizedAffinity>
-6.22101

> <CNNscore>
0.1800363362

> <CNNaffinity>
4.0765132904

> <CNN_VS>
0.7339205146

> <CNNaffinity_variance>
0.6027886271

$$$$
