


 25 25  0  0  0  0  0  0  0  0999 V2000
   54.5960   10.3989   31.3489 C   0  0  0  0  0  0  0  0  0  0  0  0
   54.9176    8.8991   31.6877 C   0  0  0  0  0  0  0  0  0  0  0  0
   55.0887    8.7578   33.1119 O   0  0  0  0  0  0  0  0  0  0  0  0
   53.7009    8.0649   31.3516 C   0  0  0  0  0  0  0  0  0  0  0  0
   53.7563    6.9043   30.6774 C   0  0  0  0  0  0  0  0  0  0  0  0
   55.0388    6.2659   30.2332 C   0  0  0  0  0  0  0  0  0  0  0  0
   55.1833    6.5707   28.8552 O   0  0  0  0  0  0  0  0  0  0  0  0
   56.2522    6.8474   30.9940 C   0  0  0  0  0  0  0  0  0  0  0  0
   56.2852    6.4226   32.3675 O   0  0  0  0  0  0  0  0  0  0  0  0
   56.1970    8.3825   30.9972 C   0  0  0  0  0  0  0  0  0  0  0  0
   54.2936    9.0776   33.5663 H   0  0  0  0  0  0  0  0  0  0  0  0
   55.2077    7.5333   28.7378 H   0  0  0  0  0  0  0  0  0  0  0  0
   55.4946    6.7481   32.8257 H   0  0  0  0  0  0  0  0  0  0  0  0
   53.0353   10.8742   31.3453 N   0  0  0  0  0  0  0  0  0  0  0  0
   52.3546   10.2020   30.1473 C   0  0  0  0  0  0  0  0  0  0  0  0
   52.4799   10.2293   32.6167 C   0  0  0  0  0  0  0  0  0  0  0  0
   53.0362   12.3936   31.2990 C   0  0  0  0  0  0  0  0  0  0  0  0
   52.2991   13.2313   30.2091 N   0  0  0  0  0  0  0  0  0  0  0  0
   50.7958   12.9792   30.2962 C   0  0  0  0  0  0  0  0  0  0  0  0
   52.8070   12.9215   28.8303 C   0  0  0  0  0  0  0  0  0  0  0  0
   52.5928   14.6989   30.6480 C   0  0  0  0  0  0  0  0  0  0  0  0
   51.9984   17.2171   30.3744 C   0  0  0  0  0  0  0  0  0  0  0  0
   52.3932   15.8947   29.7304 N   0  0  0  0  0  0  0  0  0  0  0  0
   53.8038   16.1665   29.0842 C   0  0  0  0  0  0  0  0  0  0  0  0
   51.4735   15.6199   28.5294 C   0  0  0  0  0  0  0  0  0  0  0  0
 22 23  1  0
 23 24  1  0
 23 25  1  0
 23 21  1  0
 21 18  1  0
 18 19  1  0
 18 20  1  0
 18 17  1  0
 17 14  1  0
 14 15  1  0
 14 16  1  0
 14  1  1  0
  1  2  1  0
  2  3  1  0
  2  4  1  0
  4  5  2  0
  5  6  1  0
  6  7  1  0
  6  8  1  0
  8  9  1  0
  8 10  1  0
 10  2  1  0
  3 11  1  0
  7 12  1  0
  9 13  1  0
M  CHG 1  14   1
M  CHG 1  18   1
M  CHG 1  23   1
M  END
> <minimizedAffinity>
-4.98681

> <CNNscore>
0.3576687574

> <CNNaffinity>
3.3194911480

> <CNN_VS>
1.1872782707

> <CNNaffinity_variance>
1.1245028973

$$$$



 25 25  0  0  0  0  0  0  0  0999 V2000
   53.2950   12.6429   32.6439 C   0  0  0  0  0  0  0  0  0  0  0  0
   52.5687   12.0638   31.3771 C   0  0  0  0  0  0  0  0  0  0  0  0
   51.9633   10.7991   31.7107 O   0  0  0  0  0  0  0  0  0  0  0  0
   51.4121   12.9769   31.0341 C   0  0  0  0  0  0  0  0  0  0  0  0
   51.1409   13.4001   29.7883 C   0  0  0  0  0  0  0  0  0  0  0  0
   51.9160   12.9657   28.5799 C   0  0  0  0  0  0  0  0  0  0  0  0
   52.8120   14.0228   28.2757 O   0  0  0  0  0  0  0  0  0  0  0  0
   52.7411   11.6905   28.8666 C   0  0  0  0  0  0  0  0  0  0  0  0
   51.9094   10.5247   28.9977 O   0  0  0  0  0  0  0  0  0  0  0  0
   53.5193   11.8405   30.1825 C   0  0  0  0  0  0  0  0  0  0  0  0
   51.3604   10.9172   32.4613 H   0  0  0  0  0  0  0  0  0  0  0  0
   53.3965   14.1793   29.0338 H   0  0  0  0  0  0  0  0  0  0  0  0
   51.3110   10.6377   29.7527 H   0  0  0  0  0  0  0  0  0  0  0  0
   54.6330   11.8819   33.1846 N   0  0  0  0  0  0  0  0  0  0  0  0
   55.8140   12.3781   32.3423 C   0  0  0  0  0  0  0  0  0  0  0  0
   54.7996   12.4475   34.5963 C   0  0  0  0  0  0  0  0  0  0  0  0
   54.3659   10.3892   33.0780 C   0  0  0  0  0  0  0  0  0  0  0  0
   55.4864    9.3045   33.0516 N   0  0  0  0  0  0  0  0  0  0  0  0
   55.1046    8.1484   33.9727 C   0  0  0  0  0  0  0  0  0  0  0  0
   56.8206    9.8722   33.4426 C   0  0  0  0  0  0  0  0  0  0  0  0
   55.4483    8.8082   31.5734 C   0  0  0  0  0  0  0  0  0  0  0  0
   55.7933    6.2720   32.0406 C   0  0  0  0  0  0  0  0  0  0  0  0
   55.1601    7.3654   31.1902 N   0  0  0  0  0  0  0  0  0  0  0  0
   53.6082    7.1817   31.3879 C   0  0  0  0  0  0  0  0  0  0  0  0
   55.3919    7.0508   29.7032 C   0  0  0  0  0  0  0  0  0  0  0  0
 22 23  1  0
 23 24  1  0
 23 25  1  0
 23 21  1  0
 21 18  1  0
 18 19  1  0
 18 20  1  0
 18 17  1  0
 17 14  1  0
 14 15  1  0
 14 16  1  0
 14  1  1  0
  1  2  1  0
  2  3  1  0
  2  4  1  0
  4  5  2  0
  5  6  1  0
  6  7  1  0
  6  8  1  0
  8  9  1  0
  8 10  1  0
 10  2  1  0
  3 11  1  0
  7 12  1  0
  9 13  1  0
M  CHG 1  14   1
M  CHG 1  18   1
M  CHG 1  23   1
M  END
> <minimizedAffinity>
-5.00523

> <CNNscore>
0.3407095373

> <CNNaffinity>
3.1614449024

> <CNN_VS>
1.0771343708

> <CNNaffinity_variance>
1.4069037437

$$$$



 25 25  0  0  0  0  0  0  0  0999 V2000
   53.0670   11.8579   31.0245 C   0  0  0  0  0  0  0  0  0  0  0  0
   53.3034   10.3108   30.8907 C   0  0  0  0  0  0  0  0  0  0  0  0
   53.0149    9.8991   29.5399 O   0  0  0  0  0  0  0  0  0  0  0  0
   54.7797   10.0380   31.0798 C   0  0  0  0  0  0  0  0  0  0  0  0
   55.2621    9.0555   31.8586 C   0  0  0  0  0  0  0  0  0  0  0  0
   54.3923    8.0717   32.5833 C   0  0  0  0  0  0  0  0  0  0  0  0
   54.3236    8.5119   33.9302 O   0  0  0  0  0  0  0  0  0  0  0  0
   52.9605    8.0479   32.0015 C   0  0  0  0  0  0  0  0  0  0  0  0
   52.9134    7.4337   30.7020 O   0  0  0  0  0  0  0  0  0  0  0  0
   52.4221    9.4781   31.8448 C   0  0  0  0  0  0  0  0  0  0  0  0
   53.5597   10.4115   28.9223 H   0  0  0  0  0  0  0  0  0  0  0  0
   53.9477    9.4057   33.9595 H   0  0  0  0  0  0  0  0  0  0  0  0
   53.4515    7.9492   30.0811 H   0  0  0  0  0  0  0  0  0  0  0  0
   52.4501   12.6603   29.7449 N   0  0  0  0  0  0  0  0  0  0  0  0
   51.0820   12.0424   29.4332 C   0  0  0  0  0  0  0  0  0  0  0  0
   52.2089   14.0629   30.3063 C   0  0  0  0  0  0  0  0  0  0  0  0
   53.4653   12.5444   28.6194 C   0  0  0  0  0  0  0  0  0  0  0  0
   53.5858   13.5668   27.4477 N   0  0  0  0  0  0  0  0  0  0  0  0
   54.7387   13.1648   26.5311 C   0  0  0  0  0  0  0  0  0  0  0  0
   53.7750   14.9695   27.9494 C   0  0  0  0  0  0  0  0  0  0  0  0
   52.2400   13.3725   26.6835 C   0  0  0  0  0  0  0  0  0  0  0  0
   52.7321   14.9990   24.7133 C   0  0  0  0  0  0  0  0  0  0  0  0
   51.7184   14.3653   25.6569 N   0  0  0  0  0  0  0  0  0  0  0  0
   50.7607   13.5356   24.7211 C   0  0  0  0  0  0  0  0  0  0  0  0
   50.8159   15.4626   26.2443 C   0  0  0  0  0  0  0  0  0  0  0  0
 22 23  1  0
 23 24  1  0
 23 25  1  0
 23 21  1  0
 21 18  1  0
 18 19  1  0
 18 20  1  0
 18 17  1  0
 17 14  1  0
 14 15  1  0
 14 16  1  0
 14  1  1  0
  1  2  1  0
  2  3  1  0
  2  4  1  0
  4  5  2  0
  5  6  1  0
  6  7  1  0
  6  8  1  0
  8  9  1  0
  8 10  1  0
 10  2  1  0
  3 11  1  0
  7 12  1  0
  9 13  1  0
M  CHG 1  14   1
M  CHG 1  18   1
M  CHG 1  23   1
M  END
> <minimizedAffinity>
-5.17015

> <CNNscore>
0.3359133005

> <CNNaffinity>
3.3177978992

> <CNN_VS>
1.1144924164

> <CNNaffinity_variance>
0.6976916790

$$$$



 25 25  0  0  0  0  0  0  0  0999 V2000
   53.0589    8.9452   31.5971 C   0  0  0  0  0  0  0  0  0  0  0  0
   53.9643    7.6719   31.7604 C   0  0  0  0  0  0  0  0  0  0  0  0
   53.8277    7.1580   33.1001 O   0  0  0  0  0  0  0  0  0  0  0  0
   53.4189    6.5832   30.8624 C   0  0  0  0  0  0  0  0  0  0  0  0
   54.1854    5.8239   30.0621 C   0  0  0  0  0  0  0  0  0  0  0  0
   55.6811    5.9232   30.0116 C   0  0  0  0  0  0  0  0  0  0  0  0
   55.9945    6.6873   28.8580 O   0  0  0  0  0  0  0  0  0  0  0  0
   56.2406    6.6561   31.2522 C   0  0  0  0  0  0  0  0  0  0  0  0
   56.1354    5.8602   32.4453 O   0  0  0  0  0  0  0  0  0  0  0  0
   55.4594    7.9544   31.5050 C   0  0  0  0  0  0  0  0  0  0  0  0
   52.8929    6.9732   33.2818 H   0  0  0  0  0  0  0  0  0  0  0  0
   55.5836    7.5632   28.9289 H   0  0  0  0  0  0  0  0  0  0  0  0
   55.2008    5.6809   32.6330 H   0  0  0  0  0  0  0  0  0  0  0  0
   53.6029   10.3635   32.1922 N   0  0  0  0  0  0  0  0  0  0  0  0
   54.2165   10.0777   33.5678 C   0  0  0  0  0  0  0  0  0  0  0  0
   54.7458   10.7171   31.2385 C   0  0  0  0  0  0  0  0  0  0  0  0
   52.4186   11.3162   32.2158 C   0  0  0  0  0  0  0  0  0  0  0  0
   52.3893   12.6865   31.4715 N   0  0  0  0  0  0  0  0  0  0  0  0
   51.2394   12.7017   30.4673 C   0  0  0  0  0  0  0  0  0  0  0  0
   53.6932   12.9756   30.7849 C   0  0  0  0  0  0  0  0  0  0  0  0
   52.0723   13.6935   32.6197 C   0  0  0  0  0  0  0  0  0  0  0  0
   54.4753   14.4842   33.2279 C   0  0  0  0  0  0  0  0  0  0  0  0
   53.0074   14.8270   33.0104 N   0  0  0  0  0  0  0  0  0  0  0  0
   53.0019   15.8158   31.7843 C   0  0  0  0  0  0  0  0  0  0  0  0
   52.5052   15.6801   34.1867 C   0  0  0  0  0  0  0  0  0  0  0  0
 22 23  1  0
 23 24  1  0
 23 25  1  0
 23 21  1  0
 21 18  1  0
 18 19  1  0
 18 20  1  0
 18 17  1  0
 17 14  1  0
 14 15  1  0
 14 16  1  0
 14  1  1  0
  1  2  1  0
  2  3  1  0
  2  4  1  0
  4  5  2  0
  5  6  1  0
  6  7  1  0
  6  8  1  0
  8  9  1  0
  8 10  1  0
 10  2  1  0
  3 11  1  0
  7 12  1  0
  9 13  1  0
M  CHG 1  14   1
M  CHG 1  18   1
M  CHG 1  23   1
M  END
> <minimizedAffinity>
-5.56967

> <CNNscore>
0.3255372941

> <CNNaffinity>
3.4372889996

> <CNN_VS>
1.1189657450

> <CNNaffinity_variance>
0.9994935989

$$$$



 25 25  0  0  0  0  0  0  0  0999 V2000
   52.6791    8.6927   31.4784 C   0  0  0  0  0  0  0  0  0  0  0  0
   53.8441    7.6545   31.6588 C   0  0  0  0  0  0  0  0  0  0  0  0
   53.8999    7.2346   33.0365 O   0  0  0  0  0  0  0  0  0  0  0  0
   53.4924    6.4061   30.8795 C   0  0  0  0  0  0  0  0  0  0  0  0
   54.3551    5.7610   30.0769 C   0  0  0  0  0  0  0  0  0  0  0  0
   55.7893    6.1663   29.9079 C   0  0  0  0  0  0  0  0  0  0  0  0
   55.8632    6.8821   28.6853 O   0  0  0  0  0  0  0  0  0  0  0  0
   56.2510    7.0987   31.0509 C   0  0  0  0  0  0  0  0  0  0  0  0
   56.3892    6.3986   32.2995 O   0  0  0  0  0  0  0  0  0  0  0  0
   55.2264    8.2213   31.2736 C   0  0  0  0  0  0  0  0  0  0  0  0
   53.0387    6.8740   33.2997 H   0  0  0  0  0  0  0  0  0  0  0  0
   55.2793    7.6555   28.7276 H   0  0  0  0  0  0  0  0  0  0  0  0
   55.5274    6.0439   32.5683 H   0  0  0  0  0  0  0  0  0  0  0  0
   53.0446   10.2820   31.5246 N   0  0  0  0  0  0  0  0  0  0  0  0
   52.3052   10.8873   32.7236 C   0  0  0  0  0  0  0  0  0  0  0  0
   54.5386   10.2787   31.8541 C   0  0  0  0  0  0  0  0  0  0  0  0
   52.6472   10.8662   30.1786 C   0  0  0  0  0  0  0  0  0  0  0  0
   52.4049   12.3863   29.9273 N   0  0  0  0  0  0  0  0  0  0  0  0
   53.6405   13.1799   30.3452 C   0  0  0  0  0  0  0  0  0  0  0  0
   51.1879   12.8840   30.6527 C   0  0  0  0  0  0  0  0  0  0  0  0
   52.2578   12.4581   28.3761 C   0  0  0  0  0  0  0  0  0  0  0  0
   53.5477   14.3318   27.1132 C   0  0  0  0  0  0  0  0  0  0  0  0
   52.2213   13.7687   27.6062 N   0  0  0  0  0  0  0  0  0  0  0  0
   51.4020   13.4620   26.2963 C   0  0  0  0  0  0  0  0  0  0  0  0
   51.4221   14.8840   28.2998 C   0  0  0  0  0  0  0  0  0  0  0  0
 22 23  1  0
 23 24  1  0
 23 25  1  0
 23 21  1  0
 21 18  1  0
 18 19  1  0
 18 20  1  0
 18 17  1  0
 17 14  1  0
 14 15  1  0
 14 16  1  0
 14  1  1  0
  1  2  1  0
  2  3  1  0
  2  4  1  0
  4  5  2  0
  5  6  1  0
  6  7  1  0
  6  8  1  0
  8  9  1  0
  8 10  1  0
 10  2  1  0
  3 11  1  0
  7 12  1  0
  9 13  1  0
M  CHG 1  14   1
M  CHG 1  18   1
M  CHG 1  23   1
M  END
> <minimizedAffinity>
-5.68726

> <CNNscore>
0.3186188340

> <CNNaffinity>
3.3167686462

> <CNN_VS>
1.0567849874

> <CNNaffinity_variance>
0.9720120430

$$$$



 25 25  0  0  0  0  0  0  0  0999 V2000
   45.2950    6.8726   22.9177 C   0  0  0  0  0  0  0  0  0  0  0  0
   44.2816    6.8371   24.1174 C   0  0  0  0  0  0  0  0  0  0  0  0
   42.9383    6.7378   23.6044 O   0  0  0  0  0  0  0  0  0  0  0  0
   44.5050    5.5553   24.8898 C   0  0  0  0  0  0  0  0  0  0  0  0
   44.5834    5.4969   26.2296 C   0  0  0  0  0  0  0  0  0  0  0  0
   44.3950    6.6874   27.1222 C   0  0  0  0  0  0  0  0  0  0  0  0
   45.6936    7.1158   27.5002 O   0  0  0  0  0  0  0  0  0  0  0  0
   43.6938    7.8462   26.3774 C   0  0  0  0  0  0  0  0  0  0  0  0
   42.3059    7.5671   26.1246 O   0  0  0  0  0  0  0  0  0  0  0  0
   44.3611    8.0892   25.0153 C   0  0  0  0  0  0  0  0  0  0  0  0
   42.8663    5.9552   23.0359 H   0  0  0  0  0  0  0  0  0  0  0  0
   46.2022    7.3451   26.7068 H   0  0  0  0  0  0  0  0  0  0  0  0
   42.2321    6.7893   25.5497 H   0  0  0  0  0  0  0  0  0  0  0  0
   45.3455    5.5915   21.9088 N   0  0  0  0  0  0  0  0  0  0  0  0
   46.2965    4.5595   22.5262 C   0  0  0  0  0  0  0  0  0  0  0  0
   43.9260    5.0285   22.0016 C   0  0  0  0  0  0  0  0  0  0  0  0
   45.7807    6.1159   20.5499 C   0  0  0  0  0  0  0  0  0  0  0  0
   47.2692    6.3297   20.1359 N   0  0  0  0  0  0  0  0  0  0  0  0
   47.7142    7.7372   20.5256 C   0  0  0  0  0  0  0  0  0  0  0  0
   47.4775    6.0983   18.6668 C   0  0  0  0  0  0  0  0  0  0  0  0
   48.0245    5.2951   21.0258 C   0  0  0  0  0  0  0  0  0  0  0  0
   50.0958    3.8681   21.6915 C   0  0  0  0  0  0  0  0  0  0  0  0
   49.3639    4.6890   20.6379 N   0  0  0  0  0  0  0  0  0  0  0  0
   49.0422    3.6673   19.4830 C   0  0  0  0  0  0  0  0  0  0  0  0
   50.3445    5.6858   19.9989 C   0  0  0  0  0  0  0  0  0  0  0  0
 22 23  1  0
 23 24  1  0
 23 25  1  0
 23 21  1  0
 21 18  1  0
 18 19  1  0
 18 20  1  0
 18 17  1  0
 17 14  1  0
 14 15  1  0
 14 16  1  0
 14  1  1  0
  1  2  1  0
  2  3  1  0
  2  4  1  0
  4  5  2  0
  5  6  1  0
  6  7  1  0
  6  8  1  0
  8  9  1  0
  8 10  1  0
 10  2  1  0
  3 11  1  0
  7 12  1  0
  9 13  1  0
M  CHG 1  14   1
M  CHG 1  18   1
M  CHG 1  23   1
M  END
> <minimizedAffinity>
-6.58473

> <CNNscore>
0.2968531847

> <CNNaffinity>
4.9131116867

> <CNN_VS>
1.4584728479

> <CNNaffinity_variance>
0.4378357232

$$$$



 25 25  0  0  0  0  0  0  0  0999 V2000
   54.1246   10.2024   30.9783 C   0  0  0  0  0  0  0  0  0  0  0  0
   54.7625    8.8644   31.4984 C   0  0  0  0  0  0  0  0  0  0  0  0
   54.8426    8.9017   32.9370 O   0  0  0  0  0  0  0  0  0  0  0  0
   53.8100    7.7312   31.1853 C   0  0  0  0  0  0  0  0  0  0  0  0
   54.1945    6.5618   30.6473 C   0  0  0  0  0  0  0  0  0  0  0  0
   55.6241    6.2172   30.3520 C   0  0  0  0  0  0  0  0  0  0  0  0
   55.8068    6.4191   28.9597 O   0  0  0  0  0  0  0  0  0  0  0  0
   56.5976    7.1450   31.1141 C   0  0  0  0  0  0  0  0  0  0  0  0
   56.6154    6.8702   32.5255 O   0  0  0  0  0  0  0  0  0  0  0  0
   56.1807    8.6138   30.9451 C   0  0  0  0  0  0  0  0  0  0  0  0
   53.9594    9.0586   33.3061 H   0  0  0  0  0  0  0  0  0  0  0  0
   55.6125    7.3434   28.7388 H   0  0  0  0  0  0  0  0  0  0  0  0
   55.7349    7.0341   32.8980 H   0  0  0  0  0  0  0  0  0  0  0  0
   53.2218   11.0831   32.0132 N   0  0  0  0  0  0  0  0  0  0  0  0
   52.4528   12.1180   31.1836 C   0  0  0  0  0  0  0  0  0  0  0  0
   52.2093   10.0622   32.5359 C   0  0  0  0  0  0  0  0  0  0  0  0
   54.1761   11.6782   33.0359 C   0  0  0  0  0  0  0  0  0  0  0  0
   54.0168   13.1038   33.6482 N   0  0  0  0  0  0  0  0  0  0  0  0
   54.8940   13.2305   34.8914 C   0  0  0  0  0  0  0  0  0  0  0  0
   52.5846   13.4110   33.9795 C   0  0  0  0  0  0  0  0  0  0  0  0
   54.5908   14.0244   32.5275 C   0  0  0  0  0  0  0  0  0  0  0  0
   56.7853   12.6390   32.3422 C   0  0  0  0  0  0  0  0  0  0  0  0
   56.0156   13.9103   32.0093 N   0  0  0  0  0  0  0  0  0  0  0  0
   55.8910   13.9064   30.4391 C   0  0  0  0  0  0  0  0  0  0  0  0
   56.8966   15.1325   32.3158 C   0  0  0  0  0  0  0  0  0  0  0  0
 22 23  1  0
 23 24  1  0
 23 25  1  0
 23 21  1  0
 21 18  1  0
 18 19  1  0
 18 20  1  0
 18 17  1  0
 17 14  1  0
 14 15  1  0
 14 16  1  0
 14  1  1  0
  1  2  1  0
  2  3  1  0
  2  4  1  0
  4  5  2  0
  5  6  1  0
  6  7  1  0
  6  8  1  0
  8  9  1  0
  8 10  1  0
 10  2  1  0
  3 11  1  0
  7 12  1  0
  9 13  1  0
M  CHG 1  14   1
M  CHG 1  18   1
M  CHG 1  23   1
M  END
> <minimizedAffinity>
-4.20921

> <CNNscore>
0.2925974131

> <CNNaffinity>
3.6116883755

> <CNN_VS>
1.0567706823

> <CNNaffinity_variance>
1.1406308413

$$$$



 25 25  0  0  0  0  0  0  0  0999 V2000
   54.3422   12.3991   31.5803 C   0  0  0  0  0  0  0  0  0  0  0  0
   53.7299   12.3971   30.1336 C   0  0  0  0  0  0  0  0  0  0  0  0
   54.7928   12.5002   29.1656 O   0  0  0  0  0  0  0  0  0  0  0  0
   53.1007   11.0435   29.8863 C   0  0  0  0  0  0  0  0  0  0  0  0
   51.8830   10.8757   29.3442 C   0  0  0  0  0  0  0  0  0  0  0  0
   51.0290   12.0102   28.8611 C   0  0  0  0  0  0  0  0  0  0  0  0
   50.0658   12.2482   29.8751 O   0  0  0  0  0  0  0  0  0  0  0  0
   51.8604   13.2980   28.6623 C   0  0  0  0  0  0  0  0  0  0  0  0
   52.7338   13.2091   27.5234 O   0  0  0  0  0  0  0  0  0  0  0  0
   52.7450   13.5595   29.8906 C   0  0  0  0  0  0  0  0  0  0  0  0
   55.4248   11.7769   29.3010 H   0  0  0  0  0  0  0  0  0  0  0  0
   50.5173   12.4729   30.7037 H   0  0  0  0  0  0  0  0  0  0  0  0
   53.3717   12.4912   27.6603 H   0  0  0  0  0  0  0  0  0  0  0  0
   54.2563   11.0272   32.4591 N   0  0  0  0  0  0  0  0  0  0  0  0
   55.0204   11.2718   33.7656 C   0  0  0  0  0  0  0  0  0  0  0  0
   52.7682   10.9349   32.8020 C   0  0  0  0  0  0  0  0  0  0  0  0
   54.8248    9.9128   31.5956 C   0  0  0  0  0  0  0  0  0  0  0  0
   54.6885    8.3959   31.9318 N   0  0  0  0  0  0  0  0  0  0  0  0
   53.2577    7.9362   31.6629 C   0  0  0  0  0  0  0  0  0  0  0  0
   55.0788    8.1028   33.3520 C   0  0  0  0  0  0  0  0  0  0  0  0
   55.6392    7.7275   30.8915 C   0  0  0  0  0  0  0  0  0  0  0  0
   56.9149    5.6727   29.9322 C   0  0  0  0  0  0  0  0  0  0  0  0
   55.7039    6.2242   30.6730 N   0  0  0  0  0  0  0  0  0  0  0  0
   55.7926    5.5952   32.1144 C   0  0  0  0  0  0  0  0  0  0  0  0
   54.4234    5.6195   30.0745 C   0  0  0  0  0  0  0  0  0  0  0  0
 22 23  1  0
 23 24  1  0
 23 25  1  0
 23 21  1  0
 21 18  1  0
 18 19  1  0
 18 20  1  0
 18 17  1  0
 17 14  1  0
 14 15  1  0
 14 16  1  0
 14  1  1  0
  1  2  1  0
  2  3  1  0
  2  4  1  0
  4  5  2  0
  5  6  1  0
  6  7  1  0
  6  8  1  0
  8  9  1  0
  8 10  1  0
 10  2  1  0
  3 11  1  0
  7 12  1  0
  9 13  1  0
M  CHG 1  14   1
M  CHG 1  18   1
M  CHG 1  23   1
M  END
> <minimizedAffinity>
-5.36687

> <CNNscore>
0.2545179725

> <CNNaffinity>
2.9453575611

> <CNN_VS>
0.7496464252

> <CNNaffinity_variance>
1.7431478500

$$$$



 25 25  0  0  0  0  0  0  0  0999 V2000
   53.2033   10.3185   32.2135 C   0  0  0  0  0  0  0  0  0  0  0  0
   53.1212   11.6347   31.3600 C   0  0  0  0  0  0  0  0  0  0  0  0
   54.3987   12.3015   31.3873 O   0  0  0  0  0  0  0  0  0  0  0  0
   52.9078   11.2492   29.9125 C   0  0  0  0  0  0  0  0  0  0  0  0
   52.0032   11.8355   29.1109 C   0  0  0  0  0  0  0  0  0  0  0  0
   51.1408   12.9857   29.5387 C   0  0  0  0  0  0  0  0  0  0  0  0
   49.8682   12.4404   29.8486 O   0  0  0  0  0  0  0  0  0  0  0  0
   51.7020   13.6717   30.8051 C   0  0  0  0  0  0  0  0  0  0  0  0
   52.9022   14.4153   30.5321 O   0  0  0  0  0  0  0  0  0  0  0  0
   52.0528   12.6233   31.8715 C   0  0  0  0  0  0  0  0  0  0  0  0
   55.0863   11.6961   31.0687 H   0  0  0  0  0  0  0  0  0  0  0  0
   49.9613   11.7848   30.5574 H   0  0  0  0  0  0  0  0  0  0  0  0
   53.5936   13.8103   30.2207 H   0  0  0  0  0  0  0  0  0  0  0  0
   54.6480    9.5728   32.3493 N   0  0  0  0  0  0  0  0  0  0  0  0
   55.5382   10.0886   31.2127 C   0  0  0  0  0  0  0  0  0  0  0  0
   55.1990   10.1338   33.6617 C   0  0  0  0  0  0  0  0  0  0  0  0
   54.3787    8.0772   32.3099 C   0  0  0  0  0  0  0  0  0  0  0  0
   55.4421    6.9921   32.6628 N   0  0  0  0  0  0  0  0  0  0  0  0
   55.2981    6.5885   34.1282 C   0  0  0  0  0  0  0  0  0  0  0  0
   56.8383    7.4680   32.3813 C   0  0  0  0  0  0  0  0  0  0  0  0
   55.0179    5.7909   31.7627 C   0  0  0  0  0  0  0  0  0  0  0  0
   56.8693    3.9949   32.1031 C   0  0  0  0  0  0  0  0  0  0  0  0
   56.0154    4.8207   31.1500 N   0  0  0  0  0  0  0  0  0  0  0  0
   55.1464    3.7642   30.3693 C   0  0  0  0  0  0  0  0  0  0  0  0
   56.9159    5.4422   30.0699 C   0  0  0  0  0  0  0  0  0  0  0  0
 22 23  1  0
 23 24  1  0
 23 25  1  0
 23 21  1  0
 21 18  1  0
 18 19  1  0
 18 20  1  0
 18 17  1  0
 17 14  1  0
 14 15  1  0
 14 16  1  0
 14  1  1  0
  1  2  1  0
  2  3  1  0
  2  4  1  0
  4  5  2  0
  5  6  1  0
  6  7  1  0
  6  8  1  0
  8  9  1  0
  8 10  1  0
 10  2  1  0
  3 11  1  0
  7 12  1  0
  9 13  1  0
M  CHG 1  14   1
M  CHG 1  18   1
M  CHG 1  23   1
M  END
> <minimizedAffinity>
-4.58244

> <CNNscore>
0.2509691417

> <CNNaffinity>
3.0158207417

> <CNN_VS>
0.7568779588

> <CNNaffinity_variance>
1.3570035696

$$$$
