


 30 32  0  0  0  0  0  0  0  0999 V2000
   21.4077   44.4545   55.7413 C   0  0  0  0  0  0  0  0  0  0  0  0
   20.2848   44.2207   54.9645 C   0  0  0  0  0  0  0  0  0  0  0  0
   20.4712   43.9114   53.6261 C   0  0  0  0  0  0  0  0  0  0  0  0
   21.6988   43.8555   53.0901 N   0  0  0  0  0  0  0  0  0  0  0  0
   22.7271   44.0973   53.9099 C   0  0  0  0  0  0  0  0  0  0  0  0
   22.6466   44.3967   55.2112 N   0  0  0  0  0  0  0  0  0  0  0  0
   21.0078   44.1545   59.5325 C   0  0  0  0  0  0  0  0  0  0  0  0
   21.2383   45.4722   59.9361 C   0  0  0  0  0  0  0  0  0  0  0  0
   21.5124   46.4481   58.9807 C   0  0  0  0  0  0  0  0  0  0  0  0
   21.5600   46.1088   57.6251 C   0  0  0  0  0  0  0  0  0  0  0  0
   21.3419   44.7901   57.1825 C   0  0  0  0  0  0  0  0  0  0  0  0
   21.0749   43.8217   58.1685 C   0  0  0  0  0  0  0  0  0  0  0  0
   19.4147   42.8851   60.8877 N   0  0  0  0  0  0  0  0  0  0  0  0
   20.7140   43.0638   60.5019 C   0  0  0  0  0  0  0  0  0  0  0  0
   21.5952   42.3208   60.9163 O   0  0  0  0  0  0  0  0  0  0  0  0
   19.1846   42.1731   61.5275 H   0  0  0  0  0  0  0  0  0  0  0  0
   18.7090   43.4684   60.5256 H   0  0  0  0  0  0  0  0  0  0  0  0
   19.3126   43.6802   52.8427 N   0  0  0  0  0  0  0  0  0  0  0  0
   18.6564   44.4139   52.8285 H   0  0  0  0  0  0  0  0  0  0  0  0
   18.9704   42.5427   52.0803 C   0  0  0  0  0  0  0  0  0  0  0  0
   17.7002   41.9587   52.1063 C   0  0  0  0  0  0  0  0  0  0  0  0
   17.4151   40.7906   51.3837 C   0  0  0  0  0  0  0  0  0  0  0  0
   18.4104   40.1670   50.6360 C   0  0  0  0  0  0  0  0  0  0  0  0
   19.6919   40.7198   50.6311 C   0  0  0  0  0  0  0  0  0  0  0  0
   19.9716   41.8850   51.3535 C   0  0  0  0  0  0  0  0  0  0  0  0
   18.2794   39.0328   49.8890 O   0  0  0  0  0  0  0  0  0  0  0  0
   17.1348   38.9166   49.0618 C   0  0  0  0  0  0  0  0  0  0  0  0
   16.0003   38.9164   49.7942 F   0  0  0  0  0  0  0  0  0  0  0  0
   17.0851   39.9115   48.1504 F   0  0  0  0  0  0  0  0  0  0  0  0
   17.2015   37.7422   48.3953 F   0  0  0  0  0  0  0  0  0  0  0  0
 13 14  1  0
 14 15  2  0
 14  7  1  0
  7  8  2  0
  8  9  1  0
  9 10  2  0
 10 11  1  0
 11  1  1  0
  1  2  2  0
  2  3  1  0
  3 18  1  0
 18 20  1  0
 20 21  2  0
 21 22  1  0
 22 23  2  0
 23 26  1  0
 26 27  1  0
 27 28  1  0
 27 29  1  0
 27 30  1  0
 23 24  1  0
 24 25  2  0
  3  4  2  0
  4  5  1  0
  5  6  2  0
 11 12  2  0
 12  7  1  0
  6  1  1  0
 25 20  1  0
 13 16  1  0
 13 17  1  0
 18 19  1  0
M  END
> <minimizedAffinity>
-9.97292

> <CNNscore>
0.9184221625

> <CNNaffinity>
6.4143905640

> <CNN_VS>
5.8911185265

> <CNNaffinity_variance>
0.2175061107

$$$$



 30 32  0  0  0  0  0  0  0  0999 V2000
   22.0520   45.0906   55.7811 C   0  0  0  0  0  0  0  0  0  0  0  0
   20.8330   44.9779   55.1330 C   0  0  0  0  0  0  0  0  0  0  0  0
   20.7780   44.2165   53.9758 C   0  0  0  0  0  0  0  0  0  0  0  0
   21.8728   43.6184   53.4848 N   0  0  0  0  0  0  0  0  0  0  0  0
   23.0088   43.7809   54.1712 C   0  0  0  0  0  0  0  0  0  0  0  0
   23.1577   44.4892   55.2962 N   0  0  0  0  0  0  0  0  0  0  0  0
   23.3770   47.6209   58.3237 C   0  0  0  0  0  0  0  0  0  0  0  0
   22.5596   47.3542   59.4251 C   0  0  0  0  0  0  0  0  0  0  0  0
   21.5935   46.3543   59.3409 C   0  0  0  0  0  0  0  0  0  0  0  0
   21.4409   45.6243   58.1582 C   0  0  0  0  0  0  0  0  0  0  0  0
   22.2402   45.8714   57.0257 C   0  0  0  0  0  0  0  0  0  0  0  0
   23.2033   46.8921   57.1344 C   0  0  0  0  0  0  0  0  0  0  0  0
   24.0511   49.9400   58.7151 N   0  0  0  0  0  0  0  0  0  0  0  0
   24.4249   48.6778   58.3462 C   0  0  0  0  0  0  0  0  0  0  0  0
   25.5942   48.4260   58.0819 O   0  0  0  0  0  0  0  0  0  0  0  0
   24.7185   50.6633   58.7410 H   0  0  0  0  0  0  0  0  0  0  0  0
   23.1145   50.1257   58.9550 H   0  0  0  0  0  0  0  0  0  0  0  0
   19.5250   44.1150   53.3207 N   0  0  0  0  0  0  0  0  0  0  0  0
   18.9127   44.8740   53.4557 H   0  0  0  0  0  0  0  0  0  0  0  0
   19.0345   43.0755   52.5016 C   0  0  0  0  0  0  0  0  0  0  0  0
   19.7323   42.5789   51.3963 C   0  0  0  0  0  0  0  0  0  0  0  0
   19.1846   41.5886   50.5675 C   0  0  0  0  0  0  0  0  0  0  0  0
   17.9083   41.0910   50.8171 C   0  0  0  0  0  0  0  0  0  0  0  0
   17.1869   41.6047   51.8958 C   0  0  0  0  0  0  0  0  0  0  0  0
   17.7375   42.5925   52.7197 C   0  0  0  0  0  0  0  0  0  0  0  0
   17.2516   40.1340   50.0999 O   0  0  0  0  0  0  0  0  0  0  0  0
   17.3538   38.7920   50.5428 C   0  0  0  0  0  0  0  0  0  0  0  0
   16.5955   38.5801   51.6399 F   0  0  0  0  0  0  0  0  0  0  0  0
   16.9957   37.9259   49.5709 F   0  0  0  0  0  0  0  0  0  0  0  0
   18.6415   38.5427   50.8711 F   0  0  0  0  0  0  0  0  0  0  0  0
 13 14  1  0
 14 15  2  0
 14  7  1  0
  7  8  2  0
  8  9  1  0
  9 10  2  0
 10 11  1  0
 11  1  1  0
  1  2  2  0
  2  3  1  0
  3 18  1  0
 18 20  1  0
 20 21  2  0
 21 22  1  0
 22 23  2  0
 23 26  1  0
 26 27  1  0
 27 28  1  0
 27 29  1  0
 27 30  1  0
 23 24  1  0
 24 25  2  0
  3  4  2  0
  4  5  1  0
  5  6  2  0
 11 12  2  0
 12  7  1  0
  6  1  1  0
 25 20  1  0
 13 16  1  0
 13 17  1  0
 18 19  1  0
M  END
> <minimizedAffinity>
-8.69472

> <CNNscore>
0.9137317538

> <CNNaffinity>
6.3166956902

> <CNN_VS>
5.7717652321

> <CNNaffinity_variance>
0.2045754343

$$$$



 30 32  0  0  0  0  0  0  0  0999 V2000
   22.8441   44.4842   54.2493 C   0  0  0  0  0  0  0  0  0  0  0  0
   21.7121   44.2378   53.4899 C   0  0  0  0  0  0  0  0  0  0  0  0
   20.4995   44.1110   54.1497 C   0  0  0  0  0  0  0  0  0  0  0  0
   20.4215   44.2064   55.4847 N   0  0  0  0  0  0  0  0  0  0  0  0
   21.5624   44.4427   56.1409 C   0  0  0  0  0  0  0  0  0  0  0  0
   22.7742   44.5853   55.5926 N   0  0  0  0  0  0  0  0  0  0  0  0
   25.6846   45.2731   51.8137 C   0  0  0  0  0  0  0  0  0  0  0  0
   26.8032   44.9447   52.5838 C   0  0  0  0  0  0  0  0  0  0  0  0
   26.6312   44.4634   53.8796 C   0  0  0  0  0  0  0  0  0  0  0  0
   25.3451   44.3135   54.4072 C   0  0  0  0  0  0  0  0  0  0  0  0
   24.1955   44.6427   53.6638 C   0  0  0  0  0  0  0  0  0  0  0  0
   24.3971   45.1343   52.3605 C   0  0  0  0  0  0  0  0  0  0  0  0
   25.3933   47.0806   50.1906 N   0  0  0  0  0  0  0  0  0  0  0  0
   25.7988   45.7961   50.4247 C   0  0  0  0  0  0  0  0  0  0  0  0
   26.2752   45.1184   49.5224 O   0  0  0  0  0  0  0  0  0  0  0  0
   25.4549   47.4587   49.2837 H   0  0  0  0  0  0  0  0  0  0  0  0
   25.0398   47.6275   50.9290 H   0  0  0  0  0  0  0  0  0  0  0  0
   19.3510   43.8536   53.3598 N   0  0  0  0  0  0  0  0  0  0  0  0
   18.6348   44.5265   53.4200 H   0  0  0  0  0  0  0  0  0  0  0  0
   19.0928   42.7654   52.4989 C   0  0  0  0  0  0  0  0  0  0  0  0
   17.9432   41.9746   52.5895 C   0  0  0  0  0  0  0  0  0  0  0  0
   17.7509   40.8617   51.7575 C   0  0  0  0  0  0  0  0  0  0  0  0
   18.7246   40.5025   50.8293 C   0  0  0  0  0  0  0  0  0  0  0  0
   19.8929   41.2622   50.7541 C   0  0  0  0  0  0  0  0  0  0  0  0
   20.0802   42.3714   51.5862 C   0  0  0  0  0  0  0  0  0  0  0  0
   18.6747   39.4516   49.9605 O   0  0  0  0  0  0  0  0  0  0  0  0
   17.4546   38.7385   49.8577 C   0  0  0  0  0  0  0  0  0  0  0  0
   16.4727   39.3461   50.5577 F   0  0  0  0  0  0  0  0  0  0  0  0
   17.0738   38.6009   48.5697 F   0  0  0  0  0  0  0  0  0  0  0  0
   17.6324   37.5021   50.3753 F   0  0  0  0  0  0  0  0  0  0  0  0
 13 14  1  0
 14 15  2  0
 14  7  1  0
  7  8  2  0
  8  9  1  0
  9 10  2  0
 10 11  1  0
 11  1  1  0
  1  2  2  0
  2  3  1  0
  3 18  1  0
 18 20  1  0
 20 21  2  0
 21 22  1  0
 22 23  2  0
 23 26  1  0
 26 27  1  0
 27 28  1  0
 27 29  1  0
 27 30  1  0
 23 24  1  0
 24 25  2  0
  3  4  2  0
  4  5  1  0
  5  6  2  0
 11 12  2  0
 12  7  1  0
  6  1  1  0
 25 20  1  0
 13 16  1  0
 13 17  1  0
 18 19  1  0
M  END
> <minimizedAffinity>
-9.83217

> <CNNscore>
0.9088895917

> <CNNaffinity>
6.7563228607

> <CNN_VS>
6.1407513618

> <CNNaffinity_variance>
0.1245493591

$$$$



 30 32  0  0  0  0  0  0  0  0999 V2000
   22.1144   45.0384   55.7686 C   0  0  0  0  0  0  0  0  0  0  0  0
   20.8960   44.9336   55.1180 C   0  0  0  0  0  0  0  0  0  0  0  0
   20.8445   44.1960   53.9454 C   0  0  0  0  0  0  0  0  0  0  0  0
   21.9421   43.6131   53.4424 N   0  0  0  0  0  0  0  0  0  0  0  0
   23.0772   43.7665   54.1322 C   0  0  0  0  0  0  0  0  0  0  0  0
   23.2228   44.4521   55.2716 N   0  0  0  0  0  0  0  0  0  0  0  0
   21.8250   46.1650   59.4114 C   0  0  0  0  0  0  0  0  0  0  0  0
   22.6910   47.2614   59.4274 C   0  0  0  0  0  0  0  0  0  0  0  0
   23.3545   47.6331   58.2603 C   0  0  0  0  0  0  0  0  0  0  0  0
   23.1569   46.9096   57.0803 C   0  0  0  0  0  0  0  0  0  0  0  0
   22.2990   45.7943   57.0290 C   0  0  0  0  0  0  0  0  0  0  0  0
   21.6470   45.4349   58.2235 C   0  0  0  0  0  0  0  0  0  0  0  0
   21.8136   45.4704   61.7573 N   0  0  0  0  0  0  0  0  0  0  0  0
   21.0890   45.7129   60.6237 C   0  0  0  0  0  0  0  0  0  0  0  0
   19.8696   45.5965   60.6263 O   0  0  0  0  0  0  0  0  0  0  0  0
   21.3590   45.1701   62.5773 H   0  0  0  0  0  0  0  0  0  0  0  0
   22.7901   45.5960   61.7537 H   0  0  0  0  0  0  0  0  0  0  0  0
   19.5921   44.1024   53.2881 N   0  0  0  0  0  0  0  0  0  0  0  0
   18.9915   44.8733   53.4073 H   0  0  0  0  0  0  0  0  0  0  0  0
   19.0876   43.0561   52.4864 C   0  0  0  0  0  0  0  0  0  0  0  0
   19.8014   42.4957   51.4225 C   0  0  0  0  0  0  0  0  0  0  0  0
   19.2420   41.5003   50.6075 C   0  0  0  0  0  0  0  0  0  0  0  0
   17.9391   41.0619   50.8286 C   0  0  0  0  0  0  0  0  0  0  0  0
   17.2034   41.6394   51.8645 C   0  0  0  0  0  0  0  0  0  0  0  0
   17.7656   42.6320   52.6748 C   0  0  0  0  0  0  0  0  0  0  0  0
   17.2686   40.1079   50.1203 O   0  0  0  0  0  0  0  0  0  0  0  0
   17.3362   38.7715   50.5862 C   0  0  0  0  0  0  0  0  0  0  0  0
   16.5937   38.6045   51.7017 F   0  0  0  0  0  0  0  0  0  0  0  0
   16.9308   37.9001   49.6379 F   0  0  0  0  0  0  0  0  0  0  0  0
   18.6215   38.4862   50.8939 F   0  0  0  0  0  0  0  0  0  0  0  0
 13 14  1  0
 14 15  2  0
 14  7  1  0
  7  8  2  0
  8  9  1  0
  9 10  2  0
 10 11  1  0
 11  1  1  0
  1  2  2  0
  2  3  1  0
  3 18  1  0
 18 20  1  0
 20 21  2  0
 21 22  1  0
 22 23  2  0
 23 26  1  0
 26 27  1  0
 27 28  1  0
 27 29  1  0
 27 30  1  0
 23 24  1  0
 24 25  2  0
  3  4  2  0
  4  5  1  0
  5  6  2  0
 11 12  2  0
 12  7  1  0
  6  1  1  0
 25 20  1  0
 13 16  1  0
 13 17  1  0
 18 19  1  0
M  END
> <minimizedAffinity>
-8.98966

> <CNNscore>
0.8970800042

> <CNNaffinity>
6.3675818443

> <CNN_VS>
5.7122302055

> <CNNaffinity_variance>
0.1607197672

$$$$



 30 32  0  0  0  0  0  0  0  0999 V2000
   22.5194   44.7121   56.7427 C   0  0  0  0  0  0  0  0  0  0  0  0
   21.2704   44.5736   56.1598 C   0  0  0  0  0  0  0  0  0  0  0  0
   21.2113   44.3111   54.7999 C   0  0  0  0  0  0  0  0  0  0  0  0
   22.3264   44.2098   54.0626 N   0  0  0  0  0  0  0  0  0  0  0  0
   23.4900   44.3596   54.7040 C   0  0  0  0  0  0  0  0  0  0  0  0
   23.6466   44.6080   56.0090 N   0  0  0  0  0  0  0  0  0  0  0  0
   21.8687   45.1529   60.4850 C   0  0  0  0  0  0  0  0  0  0  0  0
   23.1379   45.5178   60.9413 C   0  0  0  0  0  0  0  0  0  0  0  0
   24.1911   45.6268   60.0362 C   0  0  0  0  0  0  0  0  0  0  0  0
   23.9788   45.3685   58.6786 C   0  0  0  0  0  0  0  0  0  0  0  0
   22.7160   44.9899   58.1843 C   0  0  0  0  0  0  0  0  0  0  0  0
   21.6709   44.8792   59.1205 C   0  0  0  0  0  0  0  0  0  0  0  0
   20.8216   44.1625   62.4621 N   0  0  0  0  0  0  0  0  0  0  0  0
   20.7023   45.0143   61.3994 C   0  0  0  0  0  0  0  0  0  0  0  0
   19.6789   45.6671   61.2354 O   0  0  0  0  0  0  0  0  0  0  0  0
   20.0696   44.0468   63.0870 H   0  0  0  0  0  0  0  0  0  0  0  0
   21.6594   43.6649   62.6025 H   0  0  0  0  0  0  0  0  0  0  0  0
   19.9262   44.1774   54.2168 N   0  0  0  0  0  0  0  0  0  0  0  0
   19.2453   44.8107   54.5402 H   0  0  0  0  0  0  0  0  0  0  0  0
   19.4885   43.2614   53.2363 C   0  0  0  0  0  0  0  0  0  0  0  0
   20.2880   42.8455   52.1672 C   0  0  0  0  0  0  0  0  0  0  0  0
   19.7969   41.9826   51.1762 C   0  0  0  0  0  0  0  0  0  0  0  0
   18.4788   41.5366   51.2240 C   0  0  0  0  0  0  0  0  0  0  0  0
   17.6597   41.9736   52.2661 C   0  0  0  0  0  0  0  0  0  0  0  0
   18.1541   42.8344   53.2523 C   0  0  0  0  0  0  0  0  0  0  0  0
   17.8679   40.7012   50.3349 O   0  0  0  0  0  0  0  0  0  0  0  0
   17.6720   39.3530   50.7243 C   0  0  0  0  0  0  0  0  0  0  0  0
   18.5416   38.9925   51.6925 F   0  0  0  0  0  0  0  0  0  0  0  0
   16.4080   39.1441   51.1505 F   0  0  0  0  0  0  0  0  0  0  0  0
   17.8883   38.5583   49.6521 F   0  0  0  0  0  0  0  0  0  0  0  0
 13 14  1  0
 14 15  2  0
 14  7  1  0
  7  8  2  0
  8  9  1  0
  9 10  2  0
 10 11  1  0
 11  1  1  0
  1  2  2  0
  2  3  1  0
  3 18  1  0
 18 20  1  0
 20 21  2  0
 21 22  1  0
 22 23  2  0
 23 26  1  0
 26 27  1  0
 27 28  1  0
 27 29  1  0
 27 30  1  0
 23 24  1  0
 24 25  2  0
  3  4  2  0
  4  5  1  0
  5  6  2  0
 11 12  2  0
 12  7  1  0
  6  1  1  0
 25 20  1  0
 13 16  1  0
 13 17  1  0
 18 19  1  0
M  END
> <minimizedAffinity>
-8.29841

> <CNNscore>
0.8952034116

> <CNNaffinity>
6.1786131859

> <CNN_VS>
5.5311155319

> <CNNaffinity_variance>
0.1913915277

$$$$



 30 32  0  0  0  0  0  0  0  0999 V2000
   22.9784   44.9077   55.7705 C   0  0  0  0  0  0  0  0  0  0  0  0
   21.6472   44.7992   55.4028 C   0  0  0  0  0  0  0  0  0  0  0  0
   21.3483   44.1267   54.2280 C   0  0  0  0  0  0  0  0  0  0  0  0
   22.3161   43.6093   53.4579 N   0  0  0  0  0  0  0  0  0  0  0  0
   23.5739   43.7614   53.8853 C   0  0  0  0  0  0  0  0  0  0  0  0
   23.9582   44.3869   55.0036 N   0  0  0  0  0  0  0  0  0  0  0  0
   24.8805   45.7609   58.9762 C   0  0  0  0  0  0  0  0  0  0  0  0
   24.2645   46.9586   59.3482 C   0  0  0  0  0  0  0  0  0  0  0  0
   23.2348   47.4764   58.5660 C   0  0  0  0  0  0  0  0  0  0  0  0
   22.8229   46.8019   57.4126 C   0  0  0  0  0  0  0  0  0  0  0  0
   23.4264   45.5978   57.0022 C   0  0  0  0  0  0  0  0  0  0  0  0
   24.4696   45.1003   57.8055 C   0  0  0  0  0  0  0  0  0  0  0  0
   27.2347   45.1344   59.2027 N   0  0  0  0  0  0  0  0  0  0  0  0
   25.9887   45.1561   59.7648 C   0  0  0  0  0  0  0  0  0  0  0  0
   25.8077   44.7245   60.8968 O   0  0  0  0  0  0  0  0  0  0  0  0
   27.9907   44.7419   59.6964 H   0  0  0  0  0  0  0  0  0  0  0  0
   27.3761   45.5112   58.3042 H   0  0  0  0  0  0  0  0  0  0  0  0
   19.9823   44.0286   53.8621 N   0  0  0  0  0  0  0  0  0  0  0  0
   19.3737   44.6501   54.3231 H   0  0  0  0  0  0  0  0  0  0  0  0
   19.3748   43.1626   52.9278 C   0  0  0  0  0  0  0  0  0  0  0  0
   19.9928   42.7669   51.7375 C   0  0  0  0  0  0  0  0  0  0  0  0
   19.3326   41.9557   50.8027 C   0  0  0  0  0  0  0  0  0  0  0  0
   18.0228   41.5430   51.0322 C   0  0  0  0  0  0  0  0  0  0  0  0
   17.3821   41.9614   52.1994 C   0  0  0  0  0  0  0  0  0  0  0  0
   18.0448   42.7705   53.1290 C   0  0  0  0  0  0  0  0  0  0  0  0
   17.2603   40.7586   50.2169 O   0  0  0  0  0  0  0  0  0  0  0  0
   17.4641   39.3575   50.2709 C   0  0  0  0  0  0  0  0  0  0  0  0
   18.1093   38.9146   49.1704 F   0  0  0  0  0  0  0  0  0  0  0  0
   18.1570   39.0046   51.3746 F   0  0  0  0  0  0  0  0  0  0  0  0
   16.2585   38.7476   50.3215 F   0  0  0  0  0  0  0  0  0  0  0  0
 13 14  1  0
 14 15  2  0
 14  7  1  0
  7  8  2  0
  8  9  1  0
  9 10  2  0
 10 11  1  0
 11  1  1  0
  1  2  2  0
  2  3  1  0
  3 18  1  0
 18 20  1  0
 20 21  2  0
 21 22  1  0
 22 23  2  0
 23 26  1  0
 26 27  1  0
 27 28  1  0
 27 29  1  0
 27 30  1  0
 23 24  1  0
 24 25  2  0
  3  4  2  0
  4  5  1  0
  5  6  2  0
 11 12  2  0
 12  7  1  0
  6  1  1  0
 25 20  1  0
 13 16  1  0
 13 17  1  0
 18 19  1  0
M  END
> <minimizedAffinity>
-8.08542

> <CNNscore>
0.8804814816

> <CNNaffinity>
6.2681717873

> <CNN_VS>
5.5190091133

> <CNNaffinity_variance>
0.0335756540

$$$$



 30 32  0  0  0  0  0  0  0  0999 V2000
   22.0954   44.1651   54.7305 C   0  0  0  0  0  0  0  0  0  0  0  0
   21.5360   43.8653   53.4992 C   0  0  0  0  0  0  0  0  0  0  0  0
   20.1570   43.7474   53.4212 C   0  0  0  0  0  0  0  0  0  0  0  0
   19.3839   43.9013   54.5057 N   0  0  0  0  0  0  0  0  0  0  0  0
   20.0055   44.1866   55.6547 C   0  0  0  0  0  0  0  0  0  0  0  0
   21.3249   44.3254   55.8259 N   0  0  0  0  0  0  0  0  0  0  0  0
   25.8598   44.4017   54.1007 C   0  0  0  0  0  0  0  0  0  0  0  0
   26.3380   44.6374   55.3922 C   0  0  0  0  0  0  0  0  0  0  0  0
   25.4425   44.7095   56.4567 C   0  0  0  0  0  0  0  0  0  0  0  0
   24.0717   44.5503   56.2321 C   0  0  0  0  0  0  0  0  0  0  0  0
   23.5530   44.3205   54.9434 C   0  0  0  0  0  0  0  0  0  0  0  0
   24.4781   44.2600   53.8843 C   0  0  0  0  0  0  0  0  0  0  0  0
   28.0842   44.0518   53.1438 N   0  0  0  0  0  0  0  0  0  0  0  0
   26.7620   44.3174   52.9197 C   0  0  0  0  0  0  0  0  0  0  0  0
   26.3359   44.4420   51.7781 O   0  0  0  0  0  0  0  0  0  0  0  0
   28.7091   43.9891   52.3857 H   0  0  0  0  0  0  0  0  0  0  0  0
   28.4115   43.9233   54.0634 H   0  0  0  0  0  0  0  0  0  0  0  0
   19.5996   43.4348   52.1559 N   0  0  0  0  0  0  0  0  0  0  0  0
   19.5623   44.1794   51.5129 H   0  0  0  0  0  0  0  0  0  0  0  0
   19.0907   42.2031   51.6911 C   0  0  0  0  0  0  0  0  0  0  0  0
   19.8320   41.3186   50.9016 C   0  0  0  0  0  0  0  0  0  0  0  0
   19.2713   40.1325   50.4050 C   0  0  0  0  0  0  0  0  0  0  0  0
   17.9408   39.8198   50.6707 C   0  0  0  0  0  0  0  0  0  0  0  0
   17.1798   40.7123   51.4270 C   0  0  0  0  0  0  0  0  0  0  0  0
   17.7434   41.8942   51.9202 C   0  0  0  0  0  0  0  0  0  0  0  0
   17.2656   38.7093   50.2554 O   0  0  0  0  0  0  0  0  0  0  0  0
   16.7607   38.7012   48.9315 C   0  0  0  0  0  0  0  0  0  0  0  0
   17.1931   37.6185   48.2501 F   0  0  0  0  0  0  0  0  0  0  0  0
   15.4110   38.7335   48.9208 F   0  0  0  0  0  0  0  0  0  0  0  0
   17.2102   39.8041   48.2914 F   0  0  0  0  0  0  0  0  0  0  0  0
 13 14  1  0
 14 15  2  0
 14  7  1  0
  7  8  2  0
  8  9  1  0
  9 10  2  0
 10 11  1  0
 11  1  1  0
  1  2  2  0
  2  3  1  0
  3 18  1  0
 18 20  1  0
 20 21  2  0
 21 22  1  0
 22 23  2  0
 23 26  1  0
 26 27  1  0
 27 28  1  0
 27 29  1  0
 27 30  1  0
 23 24  1  0
 24 25  2  0
  3  4  2  0
  4  5  1  0
  5  6  2  0
 11 12  2  0
 12  7  1  0
  6  1  1  0
 25 20  1  0
 13 16  1  0
 13 17  1  0
 18 19  1  0
M  END
> <minimizedAffinity>
-9.42105

> <CNNscore>
0.8588396311

> <CNNaffinity>
6.3062534332

> <CNN_VS>
5.4160604477

> <CNNaffinity_variance>
0.4813811779

$$$$



 30 32  0  0  0  0  0  0  0  0999 V2000
   23.2583   45.1399   55.0990 C   0  0  0  0  0  0  0  0  0  0  0  0
   21.8902   45.0493   54.9013 C   0  0  0  0  0  0  0  0  0  0  0  0
   21.4196   44.0708   54.0394 C   0  0  0  0  0  0  0  0  0  0  0  0
   22.2603   43.2447   53.4005 N   0  0  0  0  0  0  0  0  0  0  0  0
   23.5651   43.4024   53.6465 C   0  0  0  0  0  0  0  0  0  0  0  0
   24.1110   44.3104   54.4632 N   0  0  0  0  0  0  0  0  0  0  0  0
   23.8250   47.6054   57.9665 C   0  0  0  0  0  0  0  0  0  0  0  0
   25.1249   48.0419   57.6979 C   0  0  0  0  0  0  0  0  0  0  0  0
   25.8045   47.5432   56.5889 C   0  0  0  0  0  0  0  0  0  0  0  0
   25.1891   46.6078   55.7514 C   0  0  0  0  0  0  0  0  0  0  0  0
   23.8842   46.1387   55.9959 C   0  0  0  0  0  0  0  0  0  0  0  0
   23.2227   46.6522   57.1272 C   0  0  0  0  0  0  0  0  0  0  0  0
   23.0264   49.4415   59.3727 N   0  0  0  0  0  0  0  0  0  0  0  0
   23.0457   48.0950   59.1363 C   0  0  0  0  0  0  0  0  0  0  0  0
   22.4076   47.3281   59.8470 O   0  0  0  0  0  0  0  0  0  0  0  0
   22.5210   49.7998   60.1377 H   0  0  0  0  0  0  0  0  0  0  0  0
   23.5181   50.0527   58.7778 H   0  0  0  0  0  0  0  0  0  0  0  0
   20.0179   43.9940   53.8429 N   0  0  0  0  0  0  0  0  0  0  0  0
   19.4737   44.5520   54.4443 H   0  0  0  0  0  0  0  0  0  0  0  0
   19.2950   43.2276   52.9037 C   0  0  0  0  0  0  0  0  0  0  0  0
   18.0300   42.6920   53.1652 C   0  0  0  0  0  0  0  0  0  0  0  0
   17.3690   41.8816   52.2303 C   0  0  0  0  0  0  0  0  0  0  0  0
   17.9772   41.5696   51.0173 C   0  0  0  0  0  0  0  0  0  0  0  0
   19.2550   42.0681   50.7594 C   0  0  0  0  0  0  0  0  0  0  0  0
   19.9105   42.8760   51.6951 C   0  0  0  0  0  0  0  0  0  0  0  0
   17.4576   40.7977   50.0194 O   0  0  0  0  0  0  0  0  0  0  0  0
   17.4710   39.3922   50.1980 C   0  0  0  0  0  0  0  0  0  0  0  0
   18.6203   38.9840   50.7778 F   0  0  0  0  0  0  0  0  0  0  0  0
   16.4195   38.9817   50.9388 F   0  0  0  0  0  0  0  0  0  0  0  0
   17.3832   38.8021   48.9847 F   0  0  0  0  0  0  0  0  0  0  0  0
 13 14  1  0
 14 15  2  0
 14  7  1  0
  7  8  2  0
  8  9  1  0
  9 10  2  0
 10 11  1  0
 11  1  1  0
  1  2  2  0
  2  3  1  0
  3 18  1  0
 18 20  1  0
 20 21  2  0
 21 22  1  0
 22 23  2  0
 23 26  1  0
 26 27  1  0
 27 28  1  0
 27 29  1  0
 27 30  1  0
 23 24  1  0
 24 25  2  0
  3  4  2  0
  4  5  1  0
  5  6  2  0
 11 12  2  0
 12  7  1  0
  6  1  1  0
 25 20  1  0
 13 16  1  0
 13 17  1  0
 18 19  1  0
M  END
> <minimizedAffinity>
-8.35287

> <CNNscore>
0.7845036983

> <CNNaffinity>
6.3655395508

> <CNN_VS>
4.9937891960

> <CNNaffinity_variance>
0.0302474201

$$$$



 30 32  0  0  0  0  0  0  0  0999 V2000
   23.5649   45.2904   54.8581 C   0  0  0  0  0  0  0  0  0  0  0  0
   22.3560   44.6551   54.6260 C   0  0  0  0  0  0  0  0  0  0  0  0
   21.3358   44.8389   55.5465 C   0  0  0  0  0  0  0  0  0  0  0  0
   21.5139   45.5946   56.6395 N   0  0  0  0  0  0  0  0  0  0  0  0
   22.7121   46.1692   56.7876 C   0  0  0  0  0  0  0  0  0  0  0  0
   23.7515   46.0555   55.9532 N   0  0  0  0  0  0  0  0  0  0  0  0
   26.0263   45.9231   52.0009 C   0  0  0  0  0  0  0  0  0  0  0  0
   26.9822   44.9325   52.2400 C   0  0  0  0  0  0  0  0  0  0  0  0
   26.8200   44.0632   53.3163 C   0  0  0  0  0  0  0  0  0  0  0  0
   25.7076   44.1848   54.1547 C   0  0  0  0  0  0  0  0  0  0  0  0
   24.7292   45.1763   53.9496 C   0  0  0  0  0  0  0  0  0  0  0  0
   24.9208   46.0466   52.8602 C   0  0  0  0  0  0  0  0  0  0  0  0
   24.9870   47.3230   50.2844 N   0  0  0  0  0  0  0  0  0  0  0  0
   26.1417   46.8860   50.8716 C   0  0  0  0  0  0  0  0  0  0  0  0
   27.2294   47.3085   50.4989 O   0  0  0  0  0  0  0  0  0  0  0  0
   25.0265   47.9602   49.5349 H   0  0  0  0  0  0  0  0  0  0  0  0
   24.1161   47.0006   50.6110 H   0  0  0  0  0  0  0  0  0  0  0  0
   20.1066   44.1781   55.2984 N   0  0  0  0  0  0  0  0  0  0  0  0
   19.4501   44.2133   56.0312 H   0  0  0  0  0  0  0  0  0  0  0  0
   19.6942   43.4765   54.1452 C   0  0  0  0  0  0  0  0  0  0  0  0
   20.5600   43.1549   53.0953 C   0  0  0  0  0  0  0  0  0  0  0  0
   20.1004   42.5125   51.9361 C   0  0  0  0  0  0  0  0  0  0  0  0
   18.7509   42.2001   51.7947 C   0  0  0  0  0  0  0  0  0  0  0  0
   17.8704   42.5486   52.8198 C   0  0  0  0  0  0  0  0  0  0  0  0
   18.3335   43.1894   53.9743 C   0  0  0  0  0  0  0  0  0  0  0  0
   18.1646   41.5808   50.7296 O   0  0  0  0  0  0  0  0  0  0  0  0
   18.2406   40.1674   50.6649 C   0  0  0  0  0  0  0  0  0  0  0  0
   19.1066   39.7678   49.7089 F   0  0  0  0  0  0  0  0  0  0  0  0
   18.6039   39.6406   51.8538 F   0  0  0  0  0  0  0  0  0  0  0  0
   17.0182   39.6834   50.3493 F   0  0  0  0  0  0  0  0  0  0  0  0
 13 14  1  0
 14 15  2  0
 14  7  1  0
  7  8  2  0
  8  9  1  0
  9 10  2  0
 10 11  1  0
 11  1  1  0
  1  2  2  0
  2  3  1  0
  3 18  1  0
 18 20  1  0
 20 21  2  0
 21 22  1  0
 22 23  2  0
 23 26  1  0
 26 27  1  0
 27 28  1  0
 27 29  1  0
 27 30  1  0
 23 24  1  0
 24 25  2  0
  3  4  2  0
  4  5  1  0
  5  6  2  0
 11 12  2  0
 12  7  1  0
  6  1  1  0
 25 20  1  0
 13 16  1  0
 13 17  1  0
 18 19  1  0
M  END
> <minimizedAffinity>
-8.45176

> <CNNscore>
0.7176707387

> <CNNaffinity>
6.3113627434

> <CNN_VS>
4.5294804573

> <CNNaffinity_variance>
0.0596312322

$$$$
