


 32 35  0  0  0  0  0  0  0  0999 V2000
  -17.8465  -33.1646    3.5188 C   0  0  0  0  0  0  0  0  0  0  0  0
  -16.8131  -32.1121    3.2547 C   0  0  0  0  0  0  0  0  0  0  0  0
  -16.3850  -32.0228    1.9898 C   0  0  0  0  0  0  0  0  0  0  0  0
  -15.4365  -31.0809    1.6238 O   0  0  0  0  0  0  0  0  0  0  0  0
  -16.8960  -32.8932    1.0184 N   0  0  0  0  0  0  0  0  0  0  0  0
  -16.5655  -32.9179   -0.3006 N   0  0  0  0  0  0  0  0  0  0  0  0
  -17.2814  -33.9320   -0.7874 C   0  0  0  0  0  0  0  0  0  0  0  0
  -18.1083  -34.5543    0.1757 C   0  0  0  0  0  0  0  0  0  0  0  0
  -17.8455  -33.8595    1.3442 C   0  0  0  0  0  0  0  0  0  0  0  0
  -18.3318  -33.9735    2.6177 N   0  0  0  0  0  0  0  0  0  0  0  0
  -15.0878  -30.4936    2.2652 H   0  0  0  0  0  0  0  0  0  0  0  0
  -19.0126  -35.6859    0.0260 C   0  0  0  0  0  0  0  0  0  0  0  0
  -19.1713  -36.2428   -1.0528 O   0  0  0  0  0  0  0  0  0  0  0  0
  -19.6437  -36.0406    1.2093 N   0  0  0  0  0  0  0  0  0  0  0  0
  -19.3901  -35.5255    2.0091 H   0  0  0  0  0  0  0  0  0  0  0  0
  -20.6076  -37.0545    1.4000 C   0  0  0  0  0  0  0  0  0  0  0  0
  -20.9632  -37.8103    0.2718 C   0  0  0  0  0  0  0  0  0  0  0  0
  -21.9057  -38.8370    0.3689 C   0  0  0  0  0  0  0  0  0  0  0  0
  -22.4955  -39.1148    1.5955 C   0  0  0  0  0  0  0  0  0  0  0  0
  -23.3968  -40.1048    1.6662 F   0  0  0  0  0  0  0  0  0  0  0  0
  -22.1508  -38.3769    2.7235 C   0  0  0  0  0  0  0  0  0  0  0  0
  -22.9499  -38.7576    4.3961 Br  0  0  0  0  0  0  0  0  0  0  0  0
  -21.2073  -37.3479    2.6293 C   0  0  0  0  0  0  0  0  0  0  0  0
  -18.3446  -33.2948    4.9486 C   0  0  0  0  0  0  0  0  0  0  0  0
  -19.3623  -37.3724    5.9497 C   0  0  0  0  0  0  0  0  0  0  0  0
  -18.0349  -37.0216    5.6900 C   0  0  0  0  0  0  0  0  0  0  0  0
  -17.7106  -35.7029    5.3631 C   0  0  0  0  0  0  0  0  0  0  0  0
  -18.7086  -34.7195    5.2935 C   0  0  0  0  0  0  0  0  0  0  0  0
  -20.0378  -35.0778    5.5543 C   0  0  0  0  0  0  0  0  0  0  0  0
  -20.3627  -36.3974    5.8806 C   0  0  0  0  0  0  0  0  0  0  0  0
  -19.9762  -39.8193    6.5544 N   0  0  0  0  0  0  0  0  0  0  0  0
  -19.6982  -38.7249    6.2858 C   0  0  0  0  0  0  0  0  0  0  0  0
 31 32  3  0
 32 25  1  0
 25 26  2  0
 26 27  1  0
 27 28  2  0
 28 24  1  0
 24  1  1  0
  1  2  1  0
  2  3  2  0
  3  4  1  0
  3  5  1  0
  5  6  1  0
  6  7  2  0
  7  8  1  0
  8 12  1  0
 12 13  2  0
 12 14  1  0
 14 16  1  0
 16 17  2  0
 17 18  1  0
 18 19  2  0
 19 20  1  0
 19 21  1  0
 21 22  1  0
 21 23  2  0
  8  9  2  0
  9 10  1  0
 28 29  1  0
 29 30  2  0
 30 25  1  0
 10  1  2  0
  9  5  1  0
 23 16  1  0
  4 11  1  0
 14 15  1  0
M  END
> <minimizedAffinity>
-10.79352

> <CNNscore>
0.9658572674

> <CNNaffinity>
8.6932897568

> <CNN_VS>
8.3964767456

> <CNNaffinity_variance>
0.2100364417

$$$$



 32 35  0  0  0  0  0  0  0  0999 V2000
  -18.3729  -35.1544   -0.5730 C   0  0  0  0  0  0  0  0  0  0  0  0
  -17.4641  -34.3620   -1.4627 C   0  0  0  0  0  0  0  0  0  0  0  0
  -16.7982  -33.3630   -0.8712 C   0  0  0  0  0  0  0  0  0  0  0  0
  -15.9221  -32.5666   -1.5914 O   0  0  0  0  0  0  0  0  0  0  0  0
  -16.9881  -33.1113    0.4937 N   0  0  0  0  0  0  0  0  0  0  0  0
  -16.3805  -32.1431    1.2304 N   0  0  0  0  0  0  0  0  0  0  0  0
  -16.9142  -32.2869    2.4439 C   0  0  0  0  0  0  0  0  0  0  0  0
  -17.8345  -33.3563    2.5340 C   0  0  0  0  0  0  0  0  0  0  0  0
  -17.8647  -33.8830    1.2538 C   0  0  0  0  0  0  0  0  0  0  0  0
  -18.5491  -34.9300    0.7000 N   0  0  0  0  0  0  0  0  0  0  0  0
  -15.7872  -32.7258   -2.5049 H   0  0  0  0  0  0  0  0  0  0  0  0
  -18.6167  -33.8099    3.6755 C   0  0  0  0  0  0  0  0  0  0  0  0
  -19.1197  -33.0198    4.4640 O   0  0  0  0  0  0  0  0  0  0  0  0
  -18.7183  -35.1913    3.7534 N   0  0  0  0  0  0  0  0  0  0  0  0
  -18.2926  -35.7005    3.0262 H   0  0  0  0  0  0  0  0  0  0  0  0
  -19.3612  -35.9516    4.7543 C   0  0  0  0  0  0  0  0  0  0  0  0
  -19.6775  -35.2867    5.9494 C   0  0  0  0  0  0  0  0  0  0  0  0
  -20.3183  -35.9599    6.9925 C   0  0  0  0  0  0  0  0  0  0  0  0
  -20.6484  -37.3011    6.8445 C   0  0  0  0  0  0  0  0  0  0  0  0
  -21.2638  -37.9275    7.8577 F   0  0  0  0  0  0  0  0  0  0  0  0
  -20.3448  -37.9729    5.6646 C   0  0  0  0  0  0  0  0  0  0  0  0
  -20.7985  -39.7987    5.4600 Br  0  0  0  0  0  0  0  0  0  0  0  0
  -19.7029  -37.3013    4.6184 C   0  0  0  0  0  0  0  0  0  0  0  0
  -19.1489  -36.2897   -1.2197 C   0  0  0  0  0  0  0  0  0  0  0  0
  -22.0287  -38.0446    1.4806 C   0  0  0  0  0  0  0  0  0  0  0  0
  -21.5693  -38.7659    0.3756 C   0  0  0  0  0  0  0  0  0  0  0  0
  -20.6409  -38.1935   -0.4970 C   0  0  0  0  0  0  0  0  0  0  0  0
  -20.1599  -36.8945   -0.2746 C   0  0  0  0  0  0  0  0  0  0  0  0
  -20.6251  -36.1762    0.8348 C   0  0  0  0  0  0  0  0  0  0  0  0
  -21.5547  -36.7484    1.7076 C   0  0  0  0  0  0  0  0  0  0  0  0
  -23.7565  -39.1045    3.0994 N   0  0  0  0  0  0  0  0  0  0  0  0
  -22.9812  -38.6295    2.3781 C   0  0  0  0  0  0  0  0  0  0  0  0
 31 32  3  0
 32 25  1  0
 25 26  2  0
 26 27  1  0
 27 28  2  0
 28 24  1  0
 24  1  1  0
  1  2  1  0
  2  3  2  0
  3  4  1  0
  3  5  1  0
  5  6  1  0
  6  7  2  0
  7  8  1  0
  8 12  1  0
 12 13  2  0
 12 14  1  0
 14 16  1  0
 16 17  2  0
 17 18  1  0
 18 19  2  0
 19 20  1  0
 19 21  1  0
 21 22  1  0
 21 23  2  0
  8  9  2  0
  9 10  1  0
 28 29  1  0
 29 30  2  0
 30 25  1  0
 10  1  2  0
  9  5  1  0
 23 16  1  0
  4 11  1  0
 14 15  1  0
M  END
> <minimizedAffinity>
-10.19491

> <CNNscore>
0.9071828127

> <CNNaffinity>
8.2504930496

> <CNN_VS>
7.4847054482

> <CNNaffinity_variance>
0.1212342009

$$$$



 32 35  0  0  0  0  0  0  0  0999 V2000
  -18.3971  -35.3023   -0.4665 C   0  0  0  0  0  0  0  0  0  0  0  0
  -17.6266  -34.5213   -1.4871 C   0  0  0  0  0  0  0  0  0  0  0  0
  -16.9181  -33.4886   -1.0150 C   0  0  0  0  0  0  0  0  0  0  0  0
  -16.1591  -32.6985   -1.8636 O   0  0  0  0  0  0  0  0  0  0  0  0
  -16.9432  -33.1948    0.3545 N   0  0  0  0  0  0  0  0  0  0  0  0
  -16.2736  -32.1892    0.9789 N   0  0  0  0  0  0  0  0  0  0  0  0
  -16.6484  -32.3031    2.2534 C   0  0  0  0  0  0  0  0  0  0  0  0
  -17.5227  -33.3883    2.4912 C   0  0  0  0  0  0  0  0  0  0  0  0
  -17.6984  -33.9587    1.2420 C   0  0  0  0  0  0  0  0  0  0  0  0
  -18.4193  -35.0385    0.8110 N   0  0  0  0  0  0  0  0  0  0  0  0
  -16.1348  -32.8858   -2.7814 H   0  0  0  0  0  0  0  0  0  0  0  0
  -18.1449  -33.8195    3.7353 C   0  0  0  0  0  0  0  0  0  0  0  0
  -19.3608  -33.9107    3.8472 O   0  0  0  0  0  0  0  0  0  0  0  0
  -17.2264  -34.1043    4.7350 N   0  0  0  0  0  0  0  0  0  0  0  0
  -16.2765  -34.0216    4.4895 H   0  0  0  0  0  0  0  0  0  0  0  0
  -17.4954  -34.4988    6.0636 C   0  0  0  0  0  0  0  0  0  0  0  0
  -18.8424  -34.5170    6.4583 C   0  0  0  0  0  0  0  0  0  0  0  0
  -19.2014  -34.8988    7.7534 C   0  0  0  0  0  0  0  0  0  0  0  0
  -18.2150  -35.2668    8.6597 C   0  0  0  0  0  0  0  0  0  0  0  0
  -18.5819  -35.6304    9.8969 F   0  0  0  0  0  0  0  0  0  0  0  0
  -16.8759  -35.2574    8.2823 C   0  0  0  0  0  0  0  0  0  0  0  0
  -15.5318  -35.7634    9.5146 Br  0  0  0  0  0  0  0  0  0  0  0  0
  -16.5134  -34.8754    6.9861 C   0  0  0  0  0  0  0  0  0  0  0  0
  -19.2182  -36.4754   -0.9753 C   0  0  0  0  0  0  0  0  0  0  0  0
  -21.8873  -38.0393    2.0404 C   0  0  0  0  0  0  0  0  0  0  0  0
  -21.8540  -38.6101    0.7654 C   0  0  0  0  0  0  0  0  0  0  0  0
  -20.9921  -38.0991   -0.2078 C   0  0  0  0  0  0  0  0  0  0  0  0
  -20.1529  -37.0131    0.0822 C   0  0  0  0  0  0  0  0  0  0  0  0
  -20.1916  -36.4447    1.3623 C   0  0  0  0  0  0  0  0  0  0  0  0
  -21.0544  -36.9553    2.3361 C   0  0  0  0  0  0  0  0  0  0  0  0
  -23.4853  -38.9909    3.8488 N   0  0  0  0  0  0  0  0  0  0  0  0
  -22.7704  -38.5617    3.0415 C   0  0  0  0  0  0  0  0  0  0  0  0
 31 32  3  0
 32 25  1  0
 25 26  2  0
 26 27  1  0
 27 28  2  0
 28 24  1  0
 24  1  1  0
  1  2  1  0
  2  3  2  0
  3  4  1  0
  3  5  1  0
  5  6  1  0
  6  7  2  0
  7  8  1  0
  8 12  1  0
 12 13  2  0
 12 14  1  0
 14 16  1  0
 16 17  2  0
 17 18  1  0
 18 19  2  0
 19 20  1  0
 19 21  1  0
 21 22  1  0
 21 23  2  0
  8  9  2  0
  9 10  1  0
 28 29  1  0
 29 30  2  0
 30 25  1  0
 10  1  2  0
  9  5  1  0
 23 16  1  0
  4 11  1  0
 14 15  1  0
M  END
> <minimizedAffinity>
-10.11553

> <CNNscore>
0.8231188059

> <CNNaffinity>
7.9285225868

> <CNN_VS>
6.5261158943

> <CNNaffinity_variance>
0.1159737632

$$$$



 32 35  0  0  0  0  0  0  0  0999 V2000
  -17.8984  -34.0077    0.7978 C   0  0  0  0  0  0  0  0  0  0  0  0
  -16.8935  -32.9144    0.5974 C   0  0  0  0  0  0  0  0  0  0  0  0
  -16.4941  -32.2818    1.7072 C   0  0  0  0  0  0  0  0  0  0  0  0
  -15.5612  -31.2588    1.6471 O   0  0  0  0  0  0  0  0  0  0  0  0
  -17.0258  -32.6516    2.9493 N   0  0  0  0  0  0  0  0  0  0  0  0
  -16.7138  -32.1097    4.1570 N   0  0  0  0  0  0  0  0  0  0  0  0
  -17.5004  -32.7654    5.0109 C   0  0  0  0  0  0  0  0  0  0  0  0
  -18.2989  -33.7574    4.3969 C   0  0  0  0  0  0  0  0  0  0  0  0
  -17.9712  -33.6698    3.0545 C   0  0  0  0  0  0  0  0  0  0  0  0
  -18.3922  -34.3619    1.9522 N   0  0  0  0  0  0  0  0  0  0  0  0
  -15.1989  -31.0030    0.8217 H   0  0  0  0  0  0  0  0  0  0  0  0
  -19.2763  -34.6578    4.9925 C   0  0  0  0  0  0  0  0  0  0  0  0
  -20.1692  -34.2448    5.7215 O   0  0  0  0  0  0  0  0  0  0  0  0
  -19.0789  -35.9858    4.6437 N   0  0  0  0  0  0  0  0  0  0  0  0
  -18.3407  -36.1661    4.0176 H   0  0  0  0  0  0  0  0  0  0  0  0
  -19.8135  -37.1089    5.0822 C   0  0  0  0  0  0  0  0  0  0  0  0
  -19.1432  -38.0178    5.9160 C   0  0  0  0  0  0  0  0  0  0  0  0
  -19.7940  -39.1550    6.4009 C   0  0  0  0  0  0  0  0  0  0  0  0
  -21.1194  -39.3877    6.0562 C   0  0  0  0  0  0  0  0  0  0  0  0
  -21.7248  -40.4847    6.5333 F   0  0  0  0  0  0  0  0  0  0  0  0
  -21.7983  -38.4943    5.2336 C   0  0  0  0  0  0  0  0  0  0  0  0
  -23.6054  -38.8077    4.7675 Br  0  0  0  0  0  0  0  0  0  0  0  0
  -21.1491  -37.3547    4.7464 C   0  0  0  0  0  0  0  0  0  0  0  0
  -18.3768  -34.7376   -0.4462 C   0  0  0  0  0  0  0  0  0  0  0  0
  -21.1921  -37.8715    0.5114 C   0  0  0  0  0  0  0  0  0  0  0  0
  -21.0641  -36.7603    1.3488 C   0  0  0  0  0  0  0  0  0  0  0  0
  -20.1501  -35.7510    1.0374 C   0  0  0  0  0  0  0  0  0  0  0  0
  -19.3548  -35.8398   -0.1148 C   0  0  0  0  0  0  0  0  0  0  0  0
  -19.4874  -36.9570   -0.9499 C   0  0  0  0  0  0  0  0  0  0  0  0
  -20.4013  -37.9675   -0.6382 C   0  0  0  0  0  0  0  0  0  0  0  0
  -22.8936  -39.7439    1.0848 N   0  0  0  0  0  0  0  0  0  0  0  0
  -22.1296  -38.9088    0.8280 C   0  0  0  0  0  0  0  0  0  0  0  0
 31 32  3  0
 32 25  1  0
 25 26  2  0
 26 27  1  0
 27 28  2  0
 28 24  1  0
 24  1  1  0
  1  2  1  0
  2  3  2  0
  3  4  1  0
  3  5  1  0
  5  6  1  0
  6  7  2  0
  7  8  1  0
  8 12  1  0
 12 13  2  0
 12 14  1  0
 14 16  1  0
 16 17  2  0
 17 18  1  0
 18 19  2  0
 19 20  1  0
 19 21  1  0
 21 22  1  0
 21 23  2  0
  8  9  2  0
  9 10  1  0
 28 29  1  0
 29 30  2  0
 30 25  1  0
 10  1  2  0
  9  5  1  0
 23 16  1  0
  4 11  1  0
 14 15  1  0
M  END
> <minimizedAffinity>
-10.22869

> <CNNscore>
0.6286610365

> <CNNaffinity>
7.8347573280

> <CNN_VS>
4.9254064560

> <CNNaffinity_variance>
0.0454780720

$$$$



 32 35  0  0  0  0  0  0  0  0999 V2000
  -21.9285  -37.7558    3.3060 C   0  0  0  0  0  0  0  0  0  0  0  0
  -22.6995  -39.0031    2.9975 C   0  0  0  0  0  0  0  0  0  0  0  0
  -22.5366  -39.4968    1.7643 C   0  0  0  0  0  0  0  0  0  0  0  0
  -23.1921  -40.6514    1.3671 O   0  0  0  0  0  0  0  0  0  0  0  0
  -21.6962  -38.8397    0.8563 N   0  0  0  0  0  0  0  0  0  0  0  0
  -21.4271  -39.2227   -0.4205 N   0  0  0  0  0  0  0  0  0  0  0  0
  -20.6171  -38.2655   -0.8740 C   0  0  0  0  0  0  0  0  0  0  0  0
  -20.3141  -37.2771    0.0902 C   0  0  0  0  0  0  0  0  0  0  0  0
  -21.0235  -37.6724    1.2116 C   0  0  0  0  0  0  0  0  0  0  0  0
  -21.1388  -37.1429    2.4677 N   0  0  0  0  0  0  0  0  0  0  0  0
  -23.7567  -41.0992    1.9660 H   0  0  0  0  0  0  0  0  0  0  0  0
  -19.4847  -36.0866   -0.0344 C   0  0  0  0  0  0  0  0  0  0  0  0
  -19.1641  -35.6389   -1.1280 O   0  0  0  0  0  0  0  0  0  0  0  0
  -19.1202  -35.5446    1.1894 N   0  0  0  0  0  0  0  0  0  0  0  0
  -19.4834  -35.9908    1.9883 H   0  0  0  0  0  0  0  0  0  0  0  0
  -18.2890  -34.4274    1.4224 C   0  0  0  0  0  0  0  0  0  0  0  0
  -17.4151  -34.0614    0.3865 C   0  0  0  0  0  0  0  0  0  0  0  0
  -16.5596  -32.9660    0.5283 C   0  0  0  0  0  0  0  0  0  0  0  0
  -16.5756  -32.2295    1.7059 C   0  0  0  0  0  0  0  0  0  0  0  0
  -15.7469  -31.1817    1.8203 F   0  0  0  0  0  0  0  0  0  0  0  0
  -17.4386  -32.5776    2.7402 C   0  0  0  0  0  0  0  0  0  0  0  0
  -17.4647  -31.5718    4.3430 Br  0  0  0  0  0  0  0  0  0  0  0  0
  -18.2963  -33.6742    2.6011 C   0  0  0  0  0  0  0  0  0  0  0  0
  -22.1012  -37.1675    4.6964 C   0  0  0  0  0  0  0  0  0  0  0  0
  -18.3010  -36.2592    6.5396 C   0  0  0  0  0  0  0  0  0  0  0  0
  -18.4092  -36.3311    5.1484 C   0  0  0  0  0  0  0  0  0  0  0  0
  -19.6389  -36.6287    4.5566 C   0  0  0  0  0  0  0  0  0  0  0  0
  -20.7747  -36.8562    5.3480 C   0  0  0  0  0  0  0  0  0  0  0  0
  -20.6594  -36.7833    6.7424 C   0  0  0  0  0  0  0  0  0  0  0  0
  -19.4288  -36.4864    7.3350 C   0  0  0  0  0  0  0  0  0  0  0  0
  -16.0183  -35.7131    7.6445 N   0  0  0  0  0  0  0  0  0  0  0  0
  -17.0404  -35.9537    7.1500 C   0  0  0  0  0  0  0  0  0  0  0  0
 31 32  3  0
 32 25  1  0
 25 26  2  0
 26 27  1  0
 27 28  2  0
 28 24  1  0
 24  1  1  0
  1  2  1  0
  2  3  2  0
  3  4  1  0
  3  5  1  0
  5  6  1  0
  6  7  2  0
  7  8  1  0
  8 12  1  0
 12 13  2  0
 12 14  1  0
 14 16  1  0
 16 17  2  0
 17 18  1  0
 18 19  2  0
 19 20  1  0
 19 21  1  0
 21 22  1  0
 21 23  2  0
  8  9  2  0
  9 10  1  0
 28 29  1  0
 29 30  2  0
 30 25  1  0
 10  1  2  0
  9  5  1  0
 23 16  1  0
  4 11  1  0
 14 15  1  0
M  END
> <minimizedAffinity>
-8.71506

> <CNNscore>
0.4459339082

> <CNNaffinity>
7.7145552635

> <CNN_VS>
3.4401817322

> <CNNaffinity_variance>
0.0263420567

$$$$



 32 35  0  0  0  0  0  0  0  0999 V2000
  -21.8136  -37.9273    1.8951 C   0  0  0  0  0  0  0  0  0  0  0  0
  -22.9443  -38.8981    2.0517 C   0  0  0  0  0  0  0  0  0  0  0  0
  -23.4622  -38.9932    3.2821 C   0  0  0  0  0  0  0  0  0  0  0  0
  -24.5174  -39.8518    3.5462 O   0  0  0  0  0  0  0  0  0  0  0  0
  -22.9320  -38.2196    4.3227 N   0  0  0  0  0  0  0  0  0  0  0  0
  -23.3551  -38.2023    5.6151 N   0  0  0  0  0  0  0  0  0  0  0  0
  -22.5211  -37.3486    6.2097 C   0  0  0  0  0  0  0  0  0  0  0  0
  -21.5788  -36.7714    5.3280 C   0  0  0  0  0  0  0  0  0  0  0  0
  -21.8667  -37.3488    4.1029 C   0  0  0  0  0  0  0  0  0  0  0  0
  -21.3198  -37.1988    2.8580 N   0  0  0  0  0  0  0  0  0  0  0  0
  -24.8800  -40.3741    2.8579 H   0  0  0  0  0  0  0  0  0  0  0  0
  -20.5147  -35.8170    5.6067 C   0  0  0  0  0  0  0  0  0  0  0  0
  -20.7569  -34.6570    5.9147 O   0  0  0  0  0  0  0  0  0  0  0  0
  -19.2456  -36.3641    5.4868 N   0  0  0  0  0  0  0  0  0  0  0  0
  -19.2041  -37.3232    5.2682 H   0  0  0  0  0  0  0  0  0  0  0  0
  -18.0065  -35.7054    5.6420 C   0  0  0  0  0  0  0  0  0  0  0  0
  -17.2776  -35.9935    6.8066 C   0  0  0  0  0  0  0  0  0  0  0  0
  -16.0392  -35.3907    7.0406 C   0  0  0  0  0  0  0  0  0  0  0  0
  -15.5222  -34.4986    6.1098 C   0  0  0  0  0  0  0  0  0  0  0  0
  -14.3317  -33.9323    6.3542 F   0  0  0  0  0  0  0  0  0  0  0  0
  -16.2310  -34.2056    4.9490 C   0  0  0  0  0  0  0  0  0  0  0  0
  -15.5253  -32.9943    3.6779 Br  0  0  0  0  0  0  0  0  0  0  0  0
  -17.4716  -34.8076    4.7120 C   0  0  0  0  0  0  0  0  0  0  0  0
  -21.1999  -37.8051    0.5103 C   0  0  0  0  0  0  0  0  0  0  0  0
  -18.3550  -34.5602    0.3056 C   0  0  0  0  0  0  0  0  0  0  0  0
  -19.1339  -34.7423    1.4512 C   0  0  0  0  0  0  0  0  0  0  0  0
  -20.0551  -35.7905    1.5120 C   0  0  0  0  0  0  0  0  0  0  0  0
  -20.2074  -36.6695    0.4293 C   0  0  0  0  0  0  0  0  0  0  0  0
  -19.4240  -36.4811   -0.7169 C   0  0  0  0  0  0  0  0  0  0  0  0
  -18.5027  -35.4318   -0.7783 C   0  0  0  0  0  0  0  0  0  0  0  0
  -16.6380  -32.6194    0.1835 N   0  0  0  0  0  0  0  0  0  0  0  0
  -17.4085  -33.4856    0.2404 C   0  0  0  0  0  0  0  0  0  0  0  0
 31 32  3  0
 32 25  1  0
 25 26  2  0
 26 27  1  0
 27 28  2  0
 28 24  1  0
 24  1  1  0
  1  2  1  0
  2  3  2  0
  3  4  1  0
  3  5  1  0
  5  6  1  0
  6  7  2  0
  7  8  1  0
  8 12  1  0
 12 13  2  0
 12 14  1  0
 14 16  1  0
 16 17  2  0
 17 18  1  0
 18 19  2  0
 19 20  1  0
 19 21  1  0
 21 22  1  0
 21 23  2  0
  8  9  2  0
  9 10  1  0
 28 29  1  0
 29 30  2  0
 30 25  1  0
 10  1  2  0
  9  5  1  0
 23 16  1  0
  4 11  1  0
 14 15  1  0
M  END
> <minimizedAffinity>
-9.79353

> <CNNscore>
0.3883363307

> <CNNaffinity>
7.5289726257

> <CNN_VS>
2.9237735271

> <CNNaffinity_variance>
0.0425218977

$$$$



 32 35  0  0  0  0  0  0  0  0999 V2000
  -17.3533  -33.1554    0.8907 C   0  0  0  0  0  0  0  0  0  0  0  0
  -16.6884  -33.3501   -0.4379 C   0  0  0  0  0  0  0  0  0  0  0  0
  -17.1658  -34.3526   -1.1852 C   0  0  0  0  0  0  0  0  0  0  0  0
  -16.6356  -34.6230   -2.4367 O   0  0  0  0  0  0  0  0  0  0  0  0
  -18.2134  -35.1457   -0.6994 N   0  0  0  0  0  0  0  0  0  0  0  0
  -18.8047  -36.1880   -1.3423 N   0  0  0  0  0  0  0  0  0  0  0  0
  -19.7050  -36.6317   -0.4645 C   0  0  0  0  0  0  0  0  0  0  0  0
  -19.7475  -35.8792    0.7316 C   0  0  0  0  0  0  0  0  0  0  0  0
  -18.7711  -34.9133    0.5562 C   0  0  0  0  0  0  0  0  0  0  0  0
  -18.3338  -33.8856    1.3462 N   0  0  0  0  0  0  0  0  0  0  0  0
  -15.9347  -34.0990   -2.7717 H   0  0  0  0  0  0  0  0  0  0  0  0
  -20.5812  -36.0633    1.9113 C   0  0  0  0  0  0  0  0  0  0  0  0
  -20.6879  -35.1918    2.7646 O   0  0  0  0  0  0  0  0  0  0  0  0
  -21.2146  -37.2970    1.9449 N   0  0  0  0  0  0  0  0  0  0  0  0
  -21.0648  -37.8843    1.1690 H   0  0  0  0  0  0  0  0  0  0  0  0
  -22.0492  -37.8082    2.9624 C   0  0  0  0  0  0  0  0  0  0  0  0
  -23.0596  -38.6982    2.5652 C   0  0  0  0  0  0  0  0  0  0  0  0
  -23.9290  -39.2565    3.5056 C   0  0  0  0  0  0  0  0  0  0  0  0
  -23.7907  -38.9294    4.8486 C   0  0  0  0  0  0  0  0  0  0  0  0
  -24.6353  -39.4772    5.7341 F   0  0  0  0  0  0  0  0  0  0  0  0
  -22.7920  -38.0516    5.2583 C   0  0  0  0  0  0  0  0  0  0  0  0
  -22.5995  -37.6092    7.0881 Br  0  0  0  0  0  0  0  0  0  0  0  0
  -21.9199  -37.4909    4.3187 C   0  0  0  0  0  0  0  0  0  0  0  0
  -16.8257  -32.0297    1.7646 C   0  0  0  0  0  0  0  0  0  0  0  0
  -16.2006  -33.3154    5.8415 C   0  0  0  0  0  0  0  0  0  0  0  0
  -17.2995  -32.5160    5.5161 C   0  0  0  0  0  0  0  0  0  0  0  0
  -17.4959  -32.0995    4.1974 C   0  0  0  0  0  0  0  0  0  0  0  0
  -16.5976  -32.4782    3.1887 C   0  0  0  0  0  0  0  0  0  0  0  0
  -15.4973  -33.2793    3.5216 C   0  0  0  0  0  0  0  0  0  0  0  0
  -15.3000  -33.6955    4.8412 C   0  0  0  0  0  0  0  0  0  0  0  0
  -15.8252  -34.0890    8.2890 N   0  0  0  0  0  0  0  0  0  0  0  0
  -15.9965  -33.7448    7.1939 C   0  0  0  0  0  0  0  0  0  0  0  0
 31 32  3  0
 32 25  1  0
 25 26  2  0
 26 27  1  0
 27 28  2  0
 28 24  1  0
 24  1  1  0
  1  2  1  0
  2  3  2  0
  3  4  1  0
  3  5  1  0
  5  6  1  0
  6  7  2  0
  7  8  1  0
  8 12  1  0
 12 13  2  0
 12 14  1  0
 14 16  1  0
 16 17  2  0
 17 18  1  0
 18 19  2  0
 19 20  1  0
 19 21  1  0
 21 22  1  0
 21 23  2  0
  8  9  2  0
  9 10  1  0
 28 29  1  0
 29 30  2  0
 30 25  1  0
 10  1  2  0
  9  5  1  0
 23 16  1  0
  4 11  1  0
 14 15  1  0
M  END
> <minimizedAffinity>
-10.61258

> <CNNscore>
0.3785731196

> <CNNaffinity>
7.2484078407

> <CNN_VS>
2.7440524101

> <CNNaffinity_variance>
0.0329932272

$$$$



 32 35  0  0  0  0  0  0  0  0999 V2000
  -21.7059  -36.9947    5.0498 C   0  0  0  0  0  0  0  0  0  0  0  0
  -22.8732  -37.8696    5.3925 C   0  0  0  0  0  0  0  0  0  0  0  0
  -23.3404  -38.6316    4.3963 C   0  0  0  0  0  0  0  0  0  0  0  0
  -24.4116  -39.4876    4.5967 O   0  0  0  0  0  0  0  0  0  0  0  0
  -22.7450  -38.5644    3.1300 N   0  0  0  0  0  0  0  0  0  0  0  0
  -23.1020  -39.2784    2.0289 N   0  0  0  0  0  0  0  0  0  0  0  0
  -22.2729  -38.8364    1.0827 C   0  0  0  0  0  0  0  0  0  0  0  0
  -21.3488  -37.8719    1.5457 C   0  0  0  0  0  0  0  0  0  0  0  0
  -21.6705  -37.7124    2.8828 C   0  0  0  0  0  0  0  0  0  0  0  0
  -21.1423  -36.9326    3.8749 N   0  0  0  0  0  0  0  0  0  0  0  0
  -24.8176  -39.5408    5.4395 H   0  0  0  0  0  0  0  0  0  0  0  0
  -20.3095  -37.1607    0.8144 C   0  0  0  0  0  0  0  0  0  0  0  0
  -19.8498  -37.5955   -0.2339 O   0  0  0  0  0  0  0  0  0  0  0  0
  -19.9230  -35.9777    1.4271 N   0  0  0  0  0  0  0  0  0  0  0  0
  -20.4072  -35.7351    2.2492 H   0  0  0  0  0  0  0  0  0  0  0  0
  -18.9160  -35.0810    1.0085 C   0  0  0  0  0  0  0  0  0  0  0  0
  -18.4964  -35.1788   -0.3275 C   0  0  0  0  0  0  0  0  0  0  0  0
  -17.5078  -34.3286   -0.8290 C   0  0  0  0  0  0  0  0  0  0  0  0
  -16.9354  -33.3744    0.0026 C   0  0  0  0  0  0  0  0  0  0  0  0
  -15.9891  -32.5683   -0.4996 F   0  0  0  0  0  0  0  0  0  0  0  0
  -17.3432  -33.2628    1.3281 C   0  0  0  0  0  0  0  0  0  0  0  0
  -16.5677  -31.9599    2.4605 Br  0  0  0  0  0  0  0  0  0  0  0  0
  -18.3330  -34.1130    1.8331 C   0  0  0  0  0  0  0  0  0  0  0  0
  -21.1601  -36.1117    6.1596 C   0  0  0  0  0  0  0  0  0  0  0  0
  -17.0920  -34.8643    5.4121 C   0  0  0  0  0  0  0  0  0  0  0  0
  -18.1395  -33.9448    5.3138 C   0  0  0  0  0  0  0  0  0  0  0  0
  -19.4537  -34.3531    5.5528 C   0  0  0  0  0  0  0  0  0  0  0  0
  -19.7361  -35.6842    5.8940 C   0  0  0  0  0  0  0  0  0  0  0  0
  -18.6813  -36.6014    5.9901 C   0  0  0  0  0  0  0  0  0  0  0  0
  -17.3662  -36.1934    5.7503 C   0  0  0  0  0  0  0  0  0  0  0  0
  -14.6469  -34.1177    4.9719 N   0  0  0  0  0  0  0  0  0  0  0  0
  -15.7421  -34.4483    5.1678 C   0  0  0  0  0  0  0  0  0  0  0  0
 31 32  3  0
 32 25  1  0
 25 26  2  0
 26 27  1  0
 27 28  2  0
 28 24  1  0
 24  1  1  0
  1  2  1  0
  2  3  2  0
  3  4  1  0
  3  5  1  0
  5  6  1  0
  6  7  2  0
  7  8  1  0
  8 12  1  0
 12 13  2  0
 12 14  1  0
 14 16  1  0
 16 17  2  0
 17 18  1  0
 18 19  2  0
 19 20  1  0
 19 21  1  0
 21 22  1  0
 21 23  2  0
  8  9  2  0
  9 10  1  0
 28 29  1  0
 29 30  2  0
 30 25  1  0
 10  1  2  0
  9  5  1  0
 23 16  1  0
  4 11  1  0
 14 15  1  0
M  END
> <minimizedAffinity>
-9.48185

> <CNNscore>
0.3736613989

> <CNNaffinity>
7.5405726433

> <CNN_VS>
2.8176209927

> <CNNaffinity_variance>
0.0018999791

$$$$



 32 35  0  0  0  0  0  0  0  0999 V2000
  -18.4244  -34.8451    0.6930 C   0  0  0  0  0  0  0  0  0  0  0  0
  -17.8162  -34.3030   -0.5646 C   0  0  0  0  0  0  0  0  0  0  0  0
  -16.9973  -33.2559   -0.4094 C   0  0  0  0  0  0  0  0  0  0  0  0
  -16.3698  -32.6748   -1.4999 O   0  0  0  0  0  0  0  0  0  0  0  0
  -16.7703  -32.7327    0.8701 N   0  0  0  0  0  0  0  0  0  0  0  0
  -15.9640  -31.6836    1.1843 N   0  0  0  0  0  0  0  0  0  0  0  0
  -16.1130  -31.5537    2.5029 C   0  0  0  0  0  0  0  0  0  0  0  0
  -16.9723  -32.5207    3.0731 C   0  0  0  0  0  0  0  0  0  0  0  0
  -17.3861  -33.2817    1.9930 C   0  0  0  0  0  0  0  0  0  0  0  0
  -18.2118  -34.3674    1.8882 N   0  0  0  0  0  0  0  0  0  0  0  0
  -16.5143  -33.0164   -2.3604 H   0  0  0  0  0  0  0  0  0  0  0  0
  -17.3822  -32.6911    4.4601 C   0  0  0  0  0  0  0  0  0  0  0  0
  -17.7693  -31.7464    5.1360 O   0  0  0  0  0  0  0  0  0  0  0  0
  -17.2854  -34.0029    4.9007 N   0  0  0  0  0  0  0  0  0  0  0  0
  -16.9929  -34.6654    4.2338 H   0  0  0  0  0  0  0  0  0  0  0  0
  -17.5577  -34.4983    6.1944 C   0  0  0  0  0  0  0  0  0  0  0  0
  -18.8922  -34.8287    6.4781 C   0  0  0  0  0  0  0  0  0  0  0  0
  -19.2523  -35.3302    7.7314 C   0  0  0  0  0  0  0  0  0  0  0  0
  -18.2788  -35.5061    8.7067 C   0  0  0  0  0  0  0  0  0  0  0  0
  -18.6463  -35.9894    9.9021 F   0  0  0  0  0  0  0  0  0  0  0  0
  -16.9514  -35.1867    8.4395 C   0  0  0  0  0  0  0  0  0  0  0  0
  -15.6237  -35.4307    9.7657 Br  0  0  0  0  0  0  0  0  0  0  0  0
  -16.5879  -34.6841    7.1853 C   0  0  0  0  0  0  0  0  0  0  0  0
  -19.3658  -36.0289    0.5460 C   0  0  0  0  0  0  0  0  0  0  0  0
  -21.3648  -36.9812    4.2557 C   0  0  0  0  0  0  0  0  0  0  0  0
  -21.5025  -35.7121    3.6876 C   0  0  0  0  0  0  0  0  0  0  0  0
  -20.8516  -35.4072    2.4899 C   0  0  0  0  0  0  0  0  0  0  0  0
  -20.0570  -36.3671    1.8457 C   0  0  0  0  0  0  0  0  0  0  0  0
  -19.9223  -37.6376    2.4209 C   0  0  0  0  0  0  0  0  0  0  0  0
  -20.5728  -37.9428    3.6198 C   0  0  0  0  0  0  0  0  0  0  0  0
  -22.5657  -37.5540    6.4827 N   0  0  0  0  0  0  0  0  0  0  0  0
  -22.0318  -37.2973    5.4846 C   0  0  0  0  0  0  0  0  0  0  0  0
 31 32  3  0
 32 25  1  0
 25 26  2  0
 26 27  1  0
 27 28  2  0
 28 24  1  0
 24  1  1  0
  1  2  1  0
  2  3  2  0
  3  4  1  0
  3  5  1  0
  5  6  1  0
  6  7  2  0
  7  8  1  0
  8 12  1  0
 12 13  2  0
 12 14  1  0
 14 16  1  0
 16 17  2  0
 17 18  1  0
 18 19  2  0
 19 20  1  0
 19 21  1  0
 21 22  1  0
 21 23  2  0
  8  9  2  0
  9 10  1  0
 28 29  1  0
 29 30  2  0
 30 25  1  0
 10  1  2  0
  9  5  1  0
 23 16  1  0
  4 11  1  0
 14 15  1  0
M  END
> <minimizedAffinity>
-9.55490

> <CNNscore>
0.3662223220

> <CNNaffinity>
7.4099698067

> <CNN_VS>
2.7136962414

> <CNNaffinity_variance>
0.1016033366

$$$$
