


 25 25  0  0  0  0  0  0  0  0999 V2000
   38.3521   40.4633   -3.6534 C   0  0  0  0  0  0  0  0  0  0  0  0
   39.2611   41.2550   -3.4210 O   0  0  0  0  0  0  0  0  0  0  0  0
   37.0954   40.8168   -4.0572 N   0  0  0  0  0  0  0  0  0  0  0  0
   36.4838   40.1174   -4.3829 H   0  0  0  0  0  0  0  0  0  0  0  0
   38.6272   38.9878   -3.6060 C   0  0  0  0  0  0  0  0  0  0  0  0
   39.8156   38.5500   -4.4576 C   0  0  0  0  0  0  0  0  0  0  0  0
   39.6283   37.3599   -5.4500 N   0  0  0  0  0  0  0  0  0  0  0  0
   40.9389   37.1714   -6.2148 C   0  0  0  0  0  0  0  0  0  0  0  0
   39.5072   36.0453   -4.5997 C   0  0  0  0  0  0  0  0  0  0  0  0
   38.3869   37.3898   -6.3258 C   0  0  0  0  0  0  0  0  0  0  0  0
   36.9612   35.3459   -6.8368 C   0  0  0  0  0  0  0  0  0  0  0  0
   38.0873   36.2708   -7.3074 N   0  0  0  0  0  0  0  0  0  0  0  0
   37.5297   36.9787   -8.5834 C   0  0  0  0  0  0  0  0  0  0  0  0
   39.2643   35.4390   -7.7735 C   0  0  0  0  0  0  0  0  0  0  0  0
   36.6271   42.2191   -4.0193 C   0  0  0  0  0  0  0  0  0  0  0  0
   35.8762   42.5627   -5.3258 C   0  0  0  0  0  0  0  0  0  0  0  0
   35.3711   41.0743   -6.2576 S   0  0  0  0  0  0  0  0  0  0  0  0
   36.4761   40.3677   -6.6170 H   0  0  0  0  0  0  0  0  0  0  0  0
   35.7918   42.4781   -2.7411 C   0  0  0  0  0  0  0  0  0  0  0  0
   36.6328   42.6992   -1.5094 C   0  0  0  0  0  0  0  0  0  0  0  0
   36.5168   41.8423   -0.4062 C   0  0  0  0  0  0  0  0  0  0  0  0
   37.2811   42.0610    0.7405 C   0  0  0  0  0  0  0  0  0  0  0  0
   38.1689   43.1334    0.7947 C   0  0  0  0  0  0  0  0  0  0  0  0
   38.2971   43.9868   -0.2985 C   0  0  0  0  0  0  0  0  0  0  0  0
   37.5340   43.7715   -1.4468 C   0  0  0  0  0  0  0  0  0  0  0  0
 11 12  1  0
 12 13  1  0
 12 14  1  0
 12 10  1  0
 10  7  1  0
  7  8  1  0
  7  9  1  0
  7  6  1  0
  6  5  1  0
  5  1  1  0
  1  2  2  0
  1  3  1  0
  3 15  1  0
 15 16  1  0
 16 17  1  0
 15 19  1  0
 19 20  1  0
 20 21  2  0
 21 22  1  0
 22 23  2  0
 23 24  1  0
 24 25  2  0
 25 20  1  0
  3  4  1  0
 17 18  1  0
M  CHG 1   7   1
M  CHG 1  12   1
M  END
> <minimizedAffinity>
-5.74713

> <CNNscore>
0.8978800774

> <CNNaffinity>
6.5253300667

> <CNN_VS>
5.8589639664

> <CNNaffinity_variance>
0.0870766640

$$$$



 25 25  0  0  0  0  0  0  0  0999 V2000
   38.2314   40.3219   -3.7397 C   0  0  0  0  0  0  0  0  0  0  0  0
   39.1688   41.0293   -3.3822 O   0  0  0  0  0  0  0  0  0  0  0  0
   37.0252   40.7903   -4.1790 N   0  0  0  0  0  0  0  0  0  0  0  0
   36.3954   40.1640   -4.6037 H   0  0  0  0  0  0  0  0  0  0  0  0
   38.4162   38.8336   -3.8165 C   0  0  0  0  0  0  0  0  0  0  0  0
   39.0907   38.2274   -2.5890 C   0  0  0  0  0  0  0  0  0  0  0  0
   40.3406   37.3154   -2.7947 N   0  0  0  0  0  0  0  0  0  0  0  0
   41.5696   38.2175   -2.9138 C   0  0  0  0  0  0  0  0  0  0  0  0
   40.5865   36.5351   -1.4544 C   0  0  0  0  0  0  0  0  0  0  0  0
   40.2371   36.2471   -3.8704 C   0  0  0  0  0  0  0  0  0  0  0  0
   38.0573   35.3326   -2.9305 C   0  0  0  0  0  0  0  0  0  0  0  0
   39.3533   35.0263   -3.6867 N   0  0  0  0  0  0  0  0  0  0  0  0
   38.9017   34.6225   -5.1266 C   0  0  0  0  0  0  0  0  0  0  0  0
   40.0060   33.7944   -3.0944 C   0  0  0  0  0  0  0  0  0  0  0  0
   36.6382   42.2105   -4.0353 C   0  0  0  0  0  0  0  0  0  0  0  0
   35.9372   42.7017   -5.3223 C   0  0  0  0  0  0  0  0  0  0  0  0
   35.3356   41.3257   -6.3631 S   0  0  0  0  0  0  0  0  0  0  0  0
   36.3894   40.5629   -6.7596 H   0  0  0  0  0  0  0  0  0  0  0  0
   35.7918   42.4156   -2.7548 C   0  0  0  0  0  0  0  0  0  0  0  0
   36.6207   42.6825   -1.5240 C   0  0  0  0  0  0  0  0  0  0  0  0
   37.5394   43.7410   -1.5015 C   0  0  0  0  0  0  0  0  0  0  0  0
   38.3203   43.9735   -0.3688 C   0  0  0  0  0  0  0  0  0  0  0  0
   38.1887   43.1549    0.7509 C   0  0  0  0  0  0  0  0  0  0  0  0
   37.2738   42.1047    0.7417 C   0  0  0  0  0  0  0  0  0  0  0  0
   36.4917   41.8689   -0.3895 C   0  0  0  0  0  0  0  0  0  0  0  0
 11 12  1  0
 12 13  1  0
 12 14  1  0
 12 10  1  0
 10  7  1  0
  7  8  1  0
  7  9  1  0
  7  6  1  0
  6  5  1  0
  5  1  1  0
  1  2  2  0
  1  3  1  0
  3 15  1  0
 15 16  1  0
 16 17  1  0
 15 19  1  0
 19 20  1  0
 20 21  2  0
 21 22  1  0
 22 23  2  0
 23 24  1  0
 24 25  2  0
 25 20  1  0
  3  4  1  0
 17 18  1  0
M  CHG 1   7   1
M  CHG 1  12   1
M  END
> <minimizedAffinity>
-5.48426

> <CNNscore>
0.8952127099

> <CNNaffinity>
6.8189225197

> <CNN_VS>
6.1043863297

> <CNNaffinity_variance>
0.2585537434

$$$$



 25 25  0  0  0  0  0  0  0  0999 V2000
   38.2716   40.2068   -4.0088 C   0  0  0  0  0  0  0  0  0  0  0  0
   39.1209   40.8724   -3.4234 O   0  0  0  0  0  0  0  0  0  0  0  0
   37.1488   40.7189   -4.5957 N   0  0  0  0  0  0  0  0  0  0  0  0
   36.6123   40.1415   -5.1857 H   0  0  0  0  0  0  0  0  0  0  0  0
   38.4952   38.7356   -4.2102 C   0  0  0  0  0  0  0  0  0  0  0  0
   39.9646   38.3418   -4.3319 C   0  0  0  0  0  0  0  0  0  0  0  0
   40.3740   36.8686   -4.0178 N   0  0  0  0  0  0  0  0  0  0  0  0
   40.7193   36.1819   -5.3398 C   0  0  0  0  0  0  0  0  0  0  0  0
   41.7460   36.9078   -3.2552 C   0  0  0  0  0  0  0  0  0  0  0  0
   39.4370   36.0754   -3.1223 C   0  0  0  0  0  0  0  0  0  0  0  0
   39.2947   37.5127   -1.0282 C   0  0  0  0  0  0  0  0  0  0  0  0
   39.5642   36.1220   -1.6100 N   0  0  0  0  0  0  0  0  0  0  0  0
   38.4081   35.2209   -1.0700 C   0  0  0  0  0  0  0  0  0  0  0  0
   40.8402   35.5629   -1.0153 C   0  0  0  0  0  0  0  0  0  0  0  0
   36.7159   42.1151   -4.3706 C   0  0  0  0  0  0  0  0  0  0  0  0
   35.9598   42.6422   -5.6114 C   0  0  0  0  0  0  0  0  0  0  0  0
   35.1641   41.3051   -6.5693 S   0  0  0  0  0  0  0  0  0  0  0  0
   36.1152   40.4475   -7.0271 H   0  0  0  0  0  0  0  0  0  0  0  0
   35.9011   42.2259   -3.0583 C   0  0  0  0  0  0  0  0  0  0  0  0
   36.7058   42.7471   -1.8947 C   0  0  0  0  0  0  0  0  0  0  0  0
   36.7745   42.0227   -0.6967 C   0  0  0  0  0  0  0  0  0  0  0  0
   37.5029   42.5169    0.3860 C   0  0  0  0  0  0  0  0  0  0  0  0
   38.1709   43.7351    0.2812 C   0  0  0  0  0  0  0  0  0  0  0  0
   38.1150   44.4597   -0.9070 C   0  0  0  0  0  0  0  0  0  0  0  0
   37.3870   43.9687   -1.9916 C   0  0  0  0  0  0  0  0  0  0  0  0
 11 12  1  0
 12 13  1  0
 12 14  1  0
 12 10  1  0
 10  7  1  0
  7  8  1  0
  7  9  1  0
  7  6  1  0
  6  5  1  0
  5  1  1  0
  1  2  2  0
  1  3  1  0
  3 15  1  0
 15 16  1  0
 16 17  1  0
 15 19  1  0
 19 20  1  0
 20 21  2  0
 21 22  1  0
 22 23  2  0
 23 24  1  0
 24 25  2  0
 25 20  1  0
  3  4  1  0
 17 18  1  0
M  CHG 1   7   1
M  CHG 1  12   1
M  END
> <minimizedAffinity>
-5.63328

> <CNNscore>
0.8781235814

> <CNNaffinity>
6.8414826393

> <CNN_VS>
6.0076670647

> <CNNaffinity_variance>
0.3283576071

$$$$



 25 25  0  0  0  0  0  0  0  0999 V2000
   35.7534   41.9884   -5.3887 C   0  0  0  0  0  0  0  0  0  0  0  0
   36.3535   42.8635   -6.0061 O   0  0  0  0  0  0  0  0  0  0  0  0
   35.6558   41.9230   -4.0273 N   0  0  0  0  0  0  0  0  0  0  0  0
   35.0188   41.2899   -3.6238 H   0  0  0  0  0  0  0  0  0  0  0  0
   34.9674   40.9567   -6.1457 C   0  0  0  0  0  0  0  0  0  0  0  0
   35.7993   39.7698   -6.6234 C   0  0  0  0  0  0  0  0  0  0  0  0
   35.1539   38.7542   -7.6177 N   0  0  0  0  0  0  0  0  0  0  0  0
   35.3194   39.3083   -9.0332 C   0  0  0  0  0  0  0  0  0  0  0  0
   36.0449   37.4613   -7.6231 C   0  0  0  0  0  0  0  0  0  0  0  0
   33.7497   38.2752   -7.2892 C   0  0  0  0  0  0  0  0  0  0  0  0
   32.7304   35.9681   -7.6199 C   0  0  0  0  0  0  0  0  0  0  0  0
   32.9930   37.3500   -8.2254 N   0  0  0  0  0  0  0  0  0  0  0  0
   31.5817   37.9977   -8.3952 C   0  0  0  0  0  0  0  0  0  0  0  0
   33.5496   37.1919   -9.6253 C   0  0  0  0  0  0  0  0  0  0  0  0
   36.4789   42.7753   -3.1422 C   0  0  0  0  0  0  0  0  0  0  0  0
   35.5801   43.4852   -2.1043 C   0  0  0  0  0  0  0  0  0  0  0  0
   36.2826   45.0735   -1.5366 S   0  0  0  0  0  0  0  0  0  0  0  0
   37.4783   44.8489   -0.9286 H   0  0  0  0  0  0  0  0  0  0  0  0
   37.6239   41.9498   -2.5051 C   0  0  0  0  0  0  0  0  0  0  0  0
   37.8133   42.2220   -1.0343 C   0  0  0  0  0  0  0  0  0  0  0  0
   37.0668   41.5182   -0.0792 C   0  0  0  0  0  0  0  0  0  0  0  0
   37.2288   41.7863    1.2805 C   0  0  0  0  0  0  0  0  0  0  0  0
   38.1385   42.7555    1.6982 C   0  0  0  0  0  0  0  0  0  0  0  0
   38.8904   43.4557    0.7579 C   0  0  0  0  0  0  0  0  0  0  0  0
   38.7306   43.1907   -0.6027 C   0  0  0  0  0  0  0  0  0  0  0  0
 11 12  1  0
 12 13  1  0
 12 14  1  0
 12 10  1  0
 10  7  1  0
  7  8  1  0
  7  9  1  0
  7  6  1  0
  6  5  1  0
  5  1  1  0
  1  2  2  0
  1  3  1  0
  3 15  1  0
 15 16  1  0
 16 17  1  0
 15 19  1  0
 19 20  1  0
 20 21  2  0
 21 22  1  0
 22 23  2  0
 23 24  1  0
 24 25  2  0
 25 20  1  0
  3  4  1  0
 17 18  1  0
M  CHG 1   7   1
M  CHG 1  12   1
M  END
> <minimizedAffinity>
-4.52750

> <CNNscore>
0.8702745438

> <CNNaffinity>
6.2906107903

> <CNN_VS>
5.4745583534

> <CNNaffinity_variance>
0.0653907508

$$$$



 25 25  0  0  0  0  0  0  0  0999 V2000
   38.4119   40.5453   -3.6796 C   0  0  0  0  0  0  0  0  0  0  0  0
   39.2260   41.3998   -3.3417 O   0  0  0  0  0  0  0  0  0  0  0  0
   37.1446   40.8071   -4.1184 N   0  0  0  0  0  0  0  0  0  0  0  0
   36.6208   40.0806   -4.5271 H   0  0  0  0  0  0  0  0  0  0  0  0
   38.8313   39.1043   -3.7310 C   0  0  0  0  0  0  0  0  0  0  0  0
   40.2210   38.8412   -3.1576 C   0  0  0  0  0  0  0  0  0  0  0  0
   40.9550   37.5202   -3.5482 N   0  0  0  0  0  0  0  0  0  0  0  0
   41.2243   36.7321   -2.2658 C   0  0  0  0  0  0  0  0  0  0  0  0
   39.9309   36.6183   -4.3251 C   0  0  0  0  0  0  0  0  0  0  0  0
   42.1560   37.6529   -4.4697 C   0  0  0  0  0  0  0  0  0  0  0  0
   43.4463   39.0936   -2.8173 C   0  0  0  0  0  0  0  0  0  0  0  0
   43.5205   38.0488   -3.9344 N   0  0  0  0  0  0  0  0  0  0  0  0
   44.0871   36.7617   -3.2544 C   0  0  0  0  0  0  0  0  0  0  0  0
   44.5572   38.4712   -4.9548 C   0  0  0  0  0  0  0  0  0  0  0  0
   36.5367   42.1500   -3.9974 C   0  0  0  0  0  0  0  0  0  0  0  0
   35.6924   42.4647   -5.2532 C   0  0  0  0  0  0  0  0  0  0  0  0
   35.3522   40.9791   -6.2612 S   0  0  0  0  0  0  0  0  0  0  0  0
   36.5258   40.4519   -6.7021 H   0  0  0  0  0  0  0  0  0  0  0  0
   35.7417   42.2687   -2.6737 C   0  0  0  0  0  0  0  0  0  0  0  0
   36.5971   42.6510   -1.4924 C   0  0  0  0  0  0  0  0  0  0  0  0
   37.4038   43.7963   -1.5399 C   0  0  0  0  0  0  0  0  0  0  0  0
   38.2103   44.1369   -0.4534 C   0  0  0  0  0  0  0  0  0  0  0  0
   38.2159   43.3403    0.6897 C   0  0  0  0  0  0  0  0  0  0  0  0
   37.4128   42.2039    0.7501 C   0  0  0  0  0  0  0  0  0  0  0  0
   36.6055   41.8600   -0.3348 C   0  0  0  0  0  0  0  0  0  0  0  0
 11 12  1  0
 12 13  1  0
 12 14  1  0
 12 10  1  0
 10  7  1  0
  7  8  1  0
  7  9  1  0
  7  6  1  0
  6  5  1  0
  5  1  1  0
  1  2  2  0
  1  3  1  0
  3 15  1  0
 15 16  1  0
 16 17  1  0
 15 19  1  0
 19 20  1  0
 20 21  2  0
 21 22  1  0
 22 23  2  0
 23 24  1  0
 24 25  2  0
 25 20  1  0
  3  4  1  0
 17 18  1  0
M  CHG 1   7   1
M  CHG 1  12   1
M  END
> <minimizedAffinity>
-5.86841

> <CNNscore>
0.8693464994

> <CNNaffinity>
6.6800422668

> <CNN_VS>
5.8072714806

> <CNNaffinity_variance>
0.1528804898

$$$$



 25 25  0  0  0  0  0  0  0  0999 V2000
   38.2613   40.1448   -4.0065 C   0  0  0  0  0  0  0  0  0  0  0  0
   39.1426   40.8285   -3.4936 O   0  0  0  0  0  0  0  0  0  0  0  0
   37.1329   40.6421   -4.5953 N   0  0  0  0  0  0  0  0  0  0  0  0
   36.5661   40.0384   -5.1278 H   0  0  0  0  0  0  0  0  0  0  0  0
   38.4459   38.6581   -4.1107 C   0  0  0  0  0  0  0  0  0  0  0  0
   39.8352   38.2364   -4.5808 C   0  0  0  0  0  0  0  0  0  0  0  0
   40.0040   36.8436   -5.2650 N   0  0  0  0  0  0  0  0  0  0  0  0
   38.7030   36.5169   -5.9991 C   0  0  0  0  0  0  0  0  0  0  0  0
   41.0493   37.0066   -6.4254 C   0  0  0  0  0  0  0  0  0  0  0  0
   40.5373   35.7162   -4.3969 C   0  0  0  0  0  0  0  0  0  0  0  0
   41.8100   37.1313   -2.7090 C   0  0  0  0  0  0  0  0  0  0  0  0
   41.8130   35.8785   -3.5897 N   0  0  0  0  0  0  0  0  0  0  0  0
   41.8266   34.6766   -2.5920 C   0  0  0  0  0  0  0  0  0  0  0  0
   43.1184   35.7999   -4.3539 C   0  0  0  0  0  0  0  0  0  0  0  0
   36.7382   42.0606   -4.4561 C   0  0  0  0  0  0  0  0  0  0  0  0
   36.0283   42.5419   -5.7420 C   0  0  0  0  0  0  0  0  0  0  0  0
   35.1380   41.1956   -6.5984 S   0  0  0  0  0  0  0  0  0  0  0  0
   36.0238   40.2358   -6.9777 H   0  0  0  0  0  0  0  0  0  0  0  0
   35.8965   42.2665   -3.1726 C   0  0  0  0  0  0  0  0  0  0  0  0
   36.7006   42.7749   -2.0029 C   0  0  0  0  0  0  0  0  0  0  0  0
   36.7283   42.0625   -0.7960 C   0  0  0  0  0  0  0  0  0  0  0  0
   37.4564   42.5456    0.2918 C   0  0  0  0  0  0  0  0  0  0  0  0
   38.1650   43.7403    0.1835 C   0  0  0  0  0  0  0  0  0  0  0  0
   38.1500   44.4525   -1.0134 C   0  0  0  0  0  0  0  0  0  0  0  0
   37.4224   43.9727   -2.1032 C   0  0  0  0  0  0  0  0  0  0  0  0
 11 12  1  0
 12 13  1  0
 12 14  1  0
 12 10  1  0
 10  7  1  0
  7  8  1  0
  7  9  1  0
  7  6  1  0
  6  5  1  0
  5  1  1  0
  1  2  2  0
  1  3  1  0
  3 15  1  0
 15 16  1  0
 16 17  1  0
 15 19  1  0
 19 20  1  0
 20 21  2  0
 21 22  1  0
 22 23  2  0
 23 24  1  0
 24 25  2  0
 25 20  1  0
  3  4  1  0
 17 18  1  0
M  CHG 1   7   1
M  CHG 1  12   1
M  END
> <minimizedAffinity>
-5.56819

> <CNNscore>
0.8493380547

> <CNNaffinity>
6.6788220406

> <CNN_VS>
5.6725778580

> <CNNaffinity_variance>
0.3959569931

$$$$



 25 25  0  0  0  0  0  0  0  0999 V2000
   35.7433   42.4054   -5.6096 C   0  0  0  0  0  0  0  0  0  0  0  0
   36.7851   42.9480   -5.9664 O   0  0  0  0  0  0  0  0  0  0  0  0
   35.4872   41.9693   -4.3402 N   0  0  0  0  0  0  0  0  0  0  0  0
   34.5698   41.7023   -4.1027 H   0  0  0  0  0  0  0  0  0  0  0  0
   34.6019   42.2882   -6.5784 C   0  0  0  0  0  0  0  0  0  0  0  0
   34.1855   40.8505   -6.8764 C   0  0  0  0  0  0  0  0  0  0  0  0
   34.0932   40.3904   -8.3651 N   0  0  0  0  0  0  0  0  0  0  0  0
   35.4177   39.7226   -8.7365 C   0  0  0  0  0  0  0  0  0  0  0  0
   33.0560   39.2136   -8.4364 C   0  0  0  0  0  0  0  0  0  0  0  0
   33.6041   41.4207   -9.3693 C   0  0  0  0  0  0  0  0  0  0  0  0
   31.3925   40.8354  -10.4817 C   0  0  0  0  0  0  0  0  0  0  0  0
   32.9053   41.0028  -10.6508 N   0  0  0  0  0  0  0  0  0  0  0  0
   33.0771   42.2096  -11.6277 C   0  0  0  0  0  0  0  0  0  0  0  0
   33.4703   39.7979  -11.3742 C   0  0  0  0  0  0  0  0  0  0  0  0
   36.5477   41.8865   -3.3126 C   0  0  0  0  0  0  0  0  0  0  0  0
   37.8726   41.4163   -3.9550 C   0  0  0  0  0  0  0  0  0  0  0  0
   38.5366   39.9061   -3.1694 S   0  0  0  0  0  0  0  0  0  0  0  0
   38.8053   40.1568   -1.8600 H   0  0  0  0  0  0  0  0  0  0  0  0
   36.6731   43.2300   -2.5526 C   0  0  0  0  0  0  0  0  0  0  0  0
   37.2148   43.0795   -1.1536 C   0  0  0  0  0  0  0  0  0  0  0  0
   36.6749   42.1246   -0.2810 C   0  0  0  0  0  0  0  0  0  0  0  0
   37.1638   42.0011    1.0199 C   0  0  0  0  0  0  0  0  0  0  0  0
   38.1968   42.8263    1.4596 C   0  0  0  0  0  0  0  0  0  0  0  0
   38.7453   43.7737    0.5985 C   0  0  0  0  0  0  0  0  0  0  0  0
   38.2584   43.9004   -0.7030 C   0  0  0  0  0  0  0  0  0  0  0  0
 11 12  1  0
 12 13  1  0
 12 14  1  0
 12 10  1  0
 10  7  1  0
  7  8  1  0
  7  9  1  0
  7  6  1  0
  6  5  1  0
  5  1  1  0
  1  2  2  0
  1  3  1  0
  3 15  1  0
 15 16  1  0
 16 17  1  0
 15 19  1  0
 19 20  1  0
 20 21  2  0
 21 22  1  0
 22 23  2  0
 23 24  1  0
 24 25  2  0
 25 20  1  0
  3  4  1  0
 17 18  1  0
M  CHG 1   7   1
M  CHG 1  12   1
M  END
> <minimizedAffinity>
-6.48806

> <CNNscore>
0.8475291133

> <CNNaffinity>
6.2663974762

> <CNN_VS>
5.3109540939

> <CNNaffinity_variance>
0.1676139086

$$$$



 25 25  0  0  0  0  0  0  0  0999 V2000
   35.6225   42.3440   -5.5710 C   0  0  0  0  0  0  0  0  0  0  0  0
   36.6395   42.8771   -6.0053 O   0  0  0  0  0  0  0  0  0  0  0  0
   35.4350   41.9668   -4.2711 N   0  0  0  0  0  0  0  0  0  0  0  0
   34.5335   41.7043   -3.9750 H   0  0  0  0  0  0  0  0  0  0  0  0
   34.4350   42.1718   -6.4740 C   0  0  0  0  0  0  0  0  0  0  0  0
   34.1944   40.7309   -6.9155 C   0  0  0  0  0  0  0  0  0  0  0  0
   34.0167   40.4332   -8.4374 N   0  0  0  0  0  0  0  0  0  0  0  0
   34.0462   41.7661   -9.1863 C   0  0  0  0  0  0  0  0  0  0  0  0
   35.3153   39.7039   -8.9348 C   0  0  0  0  0  0  0  0  0  0  0  0
   32.8666   39.5186   -8.8248 C   0  0  0  0  0  0  0  0  0  0  0  0
   31.2018   37.6549   -8.3494 C   0  0  0  0  0  0  0  0  0  0  0  0
   32.5909   38.2335   -8.0648 N   0  0  0  0  0  0  0  0  0  0  0  0
   33.5966   37.1874   -8.6430 C   0  0  0  0  0  0  0  0  0  0  0  0
   32.8316   38.2601   -6.5696 C   0  0  0  0  0  0  0  0  0  0  0  0
   36.5466   41.9414   -3.2958 C   0  0  0  0  0  0  0  0  0  0  0  0
   37.8711   41.5899   -4.0108 C   0  0  0  0  0  0  0  0  0  0  0  0
   38.6444   40.0720   -3.3503 S   0  0  0  0  0  0  0  0  0  0  0  0
   38.9461   40.2518   -2.0364 H   0  0  0  0  0  0  0  0  0  0  0  0
   36.6060   43.2719   -2.5057 C   0  0  0  0  0  0  0  0  0  0  0  0
   37.1672   43.1191   -1.1146 C   0  0  0  0  0  0  0  0  0  0  0  0
   38.2395   43.9154   -0.6893 C   0  0  0  0  0  0  0  0  0  0  0  0
   38.7708   43.7580    0.5913 C   0  0  0  0  0  0  0  0  0  0  0  0
   38.2349   42.8081    1.4584 C   0  0  0  0  0  0  0  0  0  0  0  0
   37.1648   42.0165    1.0483 C   0  0  0  0  0  0  0  0  0  0  0  0
   36.6314   42.1708   -0.2319 C   0  0  0  0  0  0  0  0  0  0  0  0
 11 12  1  0
 12 13  1  0
 12 14  1  0
 12 10  1  0
 10  7  1  0
  7  8  1  0
  7  9  1  0
  7  6  1  0
  6  5  1  0
  5  1  1  0
  1  2  2  0
  1  3  1  0
  3 15  1  0
 15 16  1  0
 16 17  1  0
 15 19  1  0
 19 20  1  0
 20 21  2  0
 21 22  1  0
 22 23  2  0
 23 24  1  0
 24 25  2  0
 25 20  1  0
  3  4  1  0
 17 18  1  0
M  CHG 1   7   1
M  CHG 1  12   1
M  END
> <minimizedAffinity>
-6.51219

> <CNNscore>
0.7563336492

> <CNNaffinity>
6.1428456306

> <CNN_VS>
4.6460409164

> <CNNaffinity_variance>
0.2053694129

$$$$



 25 25  0  0  0  0  0  0  0  0999 V2000
   34.4071   39.6234   -7.6528 C   0  0  0  0  0  0  0  0  0  0  0  0
   34.3625   39.3585   -6.4550 O   0  0  0  0  0  0  0  0  0  0  0  0
   34.4245   40.8878   -8.1710 N   0  0  0  0  0  0  0  0  0  0  0  0
   34.6311   41.0101   -9.1257 H   0  0  0  0  0  0  0  0  0  0  0  0
   34.5618   38.5116   -8.6503 C   0  0  0  0  0  0  0  0  0  0  0  0
   36.0075   38.2364   -9.0543 C   0  0  0  0  0  0  0  0  0  0  0  0
   36.3870   36.8068   -9.5531 N   0  0  0  0  0  0  0  0  0  0  0  0
   35.3210   36.3565  -10.5526 C   0  0  0  0  0  0  0  0  0  0  0  0
   37.6821   36.9370  -10.4314 C   0  0  0  0  0  0  0  0  0  0  0  0
   36.7245   35.7784   -8.4864 C   0  0  0  0  0  0  0  0  0  0  0  0
   38.5970   34.8233   -9.9191 C   0  0  0  0  0  0  0  0  0  0  0  0
   38.0431   35.0259   -8.5059 N   0  0  0  0  0  0  0  0  0  0  0  0
   39.0671   35.9679   -7.7958 C   0  0  0  0  0  0  0  0  0  0  0  0
   38.0910   33.7140   -7.7503 C   0  0  0  0  0  0  0  0  0  0  0  0
   34.1420   42.0778   -7.3394 C   0  0  0  0  0  0  0  0  0  0  0  0
   35.4639   42.7761   -6.9471 C   0  0  0  0  0  0  0  0  0  0  0  0
   36.0066   42.3521   -5.2546 S   0  0  0  0  0  0  0  0  0  0  0  0
   35.0677   42.7638   -4.3610 H   0  0  0  0  0  0  0  0  0  0  0  0
   33.1381   43.0145   -8.0556 C   0  0  0  0  0  0  0  0  0  0  0  0
   33.0524   42.7780   -9.5422 C   0  0  0  0  0  0  0  0  0  0  0  0
   32.3982   41.6449  -10.0452 C   0  0  0  0  0  0  0  0  0  0  0  0
   32.3380   41.4173  -11.4205 C   0  0  0  0  0  0  0  0  0  0  0  0
   32.9264   42.3192  -12.3046 C   0  0  0  0  0  0  0  0  0  0  0  0
   33.5729   43.4519  -11.8158 C   0  0  0  0  0  0  0  0  0  0  0  0
   33.6356   43.6824  -10.4409 C   0  0  0  0  0  0  0  0  0  0  0  0
 11 12  1  0
 12 13  1  0
 12 14  1  0
 12 10  1  0
 10  7  1  0
  7  8  1  0
  7  9  1  0
  7  6  1  0
  6  5  1  0
  5  1  1  0
  1  2  2  0
  1  3  1  0
  3 15  1  0
 15 16  1  0
 16 17  1  0
 15 19  1  0
 19 20  1  0
 20 21  2  0
 21 22  1  0
 22 23  2  0
 23 24  1  0
 24 25  2  0
 25 20  1  0
  3  4  1  0
 17 18  1  0
M  CHG 1   7   1
M  CHG 1  12   1
M  END
> <minimizedAffinity>
-5.08770

> <CNNscore>
0.7312005758

> <CNNaffinity>
6.0589241982

> <CNN_VS>
4.4302887917

> <CNNaffinity_variance>
0.1307315230

$$$$
