


 27 30  0  0  0  0  0  0  0  0999 V2000
   55.6338    6.4450   -0.5971 C   0  0  0  0  0  0  0  0  0  0  0  0
   56.1176    7.3114    0.5041 C   0  0  0  0  0  0  0  0  0  0  0  0
   57.4481    7.5962    0.8663 C   0  0  0  0  0  0  0  0  0  0  0  0
   57.3579    8.5348    1.8724 C   0  0  0  0  0  0  0  0  0  0  0  0
   56.0059    8.5752    2.2288 N   0  0  0  0  0  0  0  0  0  0  0  0
   55.2447    7.9676    1.2722 N   0  0  0  0  0  0  0  0  0  0  0  0
   55.3795    8.9554    3.4520 C   0  0  0  0  0  0  0  0  0  0  0  0
   56.1320    9.2255    4.6024 C   0  0  0  0  0  0  0  0  0  0  0  0
   55.4836    9.5764    5.7874 C   0  0  0  0  0  0  0  0  0  0  0  0
   56.4163    9.9155    7.1948 Cl  0  0  0  0  0  0  0  0  0  0  0  0
   54.0946    9.6431    5.8502 C   0  0  0  0  0  0  0  0  0  0  0  0
   53.3480    9.3454    4.7135 C   0  0  0  0  0  0  0  0  0  0  0  0
   51.6292    9.4088    4.7862 Cl  0  0  0  0  0  0  0  0  0  0  0  0
   53.9774    8.9941    3.5197 C   0  0  0  0  0  0  0  0  0  0  0  0
   58.4190    9.2678    2.3864 N   0  0  0  0  0  0  0  0  0  0  0  0
   59.6966    9.2215    1.8499 C   0  0  0  0  0  0  0  0  0  0  0  0
   60.0161    8.6221    0.8297 O   0  0  0  0  0  0  0  0  0  0  0  0
   58.2570    9.8461    3.1665 H   0  0  0  0  0  0  0  0  0  0  0  0
   60.6890    9.9397    2.6292 C   0  0  0  0  0  0  0  0  0  0  0  0
   62.0005   10.2765    2.2368 C   0  0  0  0  0  0  0  0  0  0  0  0
   62.6764   10.9434    3.1737 N   0  0  0  0  0  0  0  0  0  0  0  0
   61.8070   11.0474    4.2042 N   0  0  0  0  0  0  0  0  0  0  0  0
   62.0171   11.6590    5.4354 C   0  0  0  0  0  0  0  0  0  0  0  0
   61.0474   11.6722    6.3596 C   0  0  0  0  0  0  0  0  0  0  0  0
   59.7828   10.9957    5.9599 C   0  0  0  0  0  0  0  0  0  0  0  0
   59.5462   10.4121    4.8207 N   0  0  0  0  0  0  0  0  0  0  0  0
   60.5786   10.4402    3.9137 C   0  0  0  0  0  0  0  0  0  0  0  0
  1  2  1  0
  2  3  1  0
  3  4  2  0
  4 15  1  0
 15 16  1  0
 16 17  2  0
 16 19  1  0
 19 20  1  0
 20 21  2  0
 21 22  1  0
 22 23  1  0
 23 24  2  0
 24 25  1  0
 25 26  2  0
 26 27  1  0
  4  5  1  0
  5  7  1  0
  7  8  2  0
  8  9  1  0
  9 10  1  0
  9 11  2  0
 11 12  1  0
 12 13  1  0
 12 14  2  0
  5  6  1  0
  6  2  2  0
 27 19  2  0
 14  7  1  0
 27 22  1  0
 15 18  1  0
M  END
> <minimizedAffinity>
-9.02265

> <CNNscore>
0.1984726489

> <CNNaffinity>
6.8971042633

> <CNN_VS>
1.3688865900

> <CNNaffinity_variance>
0.0776844397

$$$$



 27 30  0  0  0  0  0  0  0  0999 V2000
   54.1385    7.8398    2.5361 C   0  0  0  0  0  0  0  0  0  0  0  0
   55.0149    8.3725    3.6063 C   0  0  0  0  0  0  0  0  0  0  0  0
   54.6372    8.9245    4.8454 C   0  0  0  0  0  0  0  0  0  0  0  0
   55.8200    9.1598    5.5140 C   0  0  0  0  0  0  0  0  0  0  0  0
   56.8311    8.9785    4.5646 N   0  0  0  0  0  0  0  0  0  0  0  0
   56.3421    8.3267    3.4693 N   0  0  0  0  0  0  0  0  0  0  0  0
   58.1509    9.5146    4.5004 C   0  0  0  0  0  0  0  0  0  0  0  0
   58.6637   10.3126    5.5312 C   0  0  0  0  0  0  0  0  0  0  0  0
   59.9531   10.8362    5.4254 C   0  0  0  0  0  0  0  0  0  0  0  0
   60.5795   11.8088    6.7011 Cl  0  0  0  0  0  0  0  0  0  0  0  0
   60.7334   10.5936    4.2985 C   0  0  0  0  0  0  0  0  0  0  0  0
   60.2103    9.8249    3.2624 C   0  0  0  0  0  0  0  0  0  0  0  0
   61.1616    9.5338    1.8574 Cl  0  0  0  0  0  0  0  0  0  0  0  0
   58.9247    9.2919    3.3500 C   0  0  0  0  0  0  0  0  0  0  0  0
   55.9322    9.4973    6.8560 N   0  0  0  0  0  0  0  0  0  0  0  0
   55.1250   10.4464    7.4643 C   0  0  0  0  0  0  0  0  0  0  0  0
   54.1788   11.0174    6.9342 O   0  0  0  0  0  0  0  0  0  0  0  0
   56.6153    9.0425    7.3999 H   0  0  0  0  0  0  0  0  0  0  0  0
   55.5097   10.7595    8.8288 C   0  0  0  0  0  0  0  0  0  0  0  0
   56.1280    9.8993    9.7589 C   0  0  0  0  0  0  0  0  0  0  0  0
   56.3612   10.4777   10.9381 N   0  0  0  0  0  0  0  0  0  0  0  0
   55.8878   11.7361   10.7936 N   0  0  0  0  0  0  0  0  0  0  0  0
   55.8873   12.7577   11.7372 C   0  0  0  0  0  0  0  0  0  0  0  0
   55.3715   13.9570   11.4369 C   0  0  0  0  0  0  0  0  0  0  0  0
   54.8206   14.0822   10.0594 C   0  0  0  0  0  0  0  0  0  0  0  0
   54.8009   13.1527    9.1484 N   0  0  0  0  0  0  0  0  0  0  0  0
   55.3521   11.9486    9.5170 C   0  0  0  0  0  0  0  0  0  0  0  0
  1  2  1  0
  2  3  1  0
  3  4  2  0
  4 15  1  0
 15 16  1  0
 16 17  2  0
 16 19  1  0
 19 20  1  0
 20 21  2  0
 21 22  1  0
 22 23  1  0
 23 24  2  0
 24 25  1  0
 25 26  2  0
 26 27  1  0
  4  5  1  0
  5  7  1  0
  7  8  2  0
  8  9  1  0
  9 10  1  0
  9 11  2  0
 11 12  1  0
 12 13  1  0
 12 14  2  0
  5  6  1  0
  6  2  2  0
 27 19  2  0
 14  7  1  0
 27 22  1  0
 15 18  1  0
M  END
> <minimizedAffinity>
-9.46595

> <CNNscore>
0.1445365399

> <CNNaffinity>
5.5522761345

> <CNN_VS>
0.8025068045

> <CNNaffinity_variance>
0.5629529357

$$$$



 27 30  0  0  0  0  0  0  0  0999 V2000
   54.3046    7.8525    2.4524 C   0  0  0  0  0  0  0  0  0  0  0  0
   55.1681    8.4029    3.5242 C   0  0  0  0  0  0  0  0  0  0  0  0
   54.7772    8.9441    4.7639 C   0  0  0  0  0  0  0  0  0  0  0  0
   55.9540    9.2048    5.4338 C   0  0  0  0  0  0  0  0  0  0  0  0
   56.9695    9.0480    4.4848 N   0  0  0  0  0  0  0  0  0  0  0  0
   56.4961    8.3874    3.3880 N   0  0  0  0  0  0  0  0  0  0  0  0
   58.2769    9.6139    4.4224 C   0  0  0  0  0  0  0  0  0  0  0  0
   59.1119    9.3982    3.3184 C   0  0  0  0  0  0  0  0  0  0  0  0
   60.3927    9.9521    3.3002 C   0  0  0  0  0  0  0  0  0  0  0  0
   61.4097    9.6897    1.9354 Cl  0  0  0  0  0  0  0  0  0  0  0  0
   60.8632   10.7019    4.3746 C   0  0  0  0  0  0  0  0  0  0  0  0
   60.0424   10.8899    5.4831 C   0  0  0  0  0  0  0  0  0  0  0  0
   60.6218   11.8014    6.8236 Cl  0  0  0  0  0  0  0  0  0  0  0  0
   58.7589   10.3457    5.5196 C   0  0  0  0  0  0  0  0  0  0  0  0
   56.0577    9.5424    6.7764 N   0  0  0  0  0  0  0  0  0  0  0  0
   55.1177   10.3228    7.4319 C   0  0  0  0  0  0  0  0  0  0  0  0
   54.0632   10.7187    6.9484 O   0  0  0  0  0  0  0  0  0  0  0  0
   56.8331    9.2130    7.2857 H   0  0  0  0  0  0  0  0  0  0  0  0
   55.4944   10.6855    8.7863 C   0  0  0  0  0  0  0  0  0  0  0  0
   56.1072    9.8598    9.7508 C   0  0  0  0  0  0  0  0  0  0  0  0
   56.3336   10.4809   10.9094 N   0  0  0  0  0  0  0  0  0  0  0  0
   55.8613   11.7331   10.7164 N   0  0  0  0  0  0  0  0  0  0  0  0
   55.8555   12.7885   11.6220 C   0  0  0  0  0  0  0  0  0  0  0  0
   55.3417   13.9761   11.2752 C   0  0  0  0  0  0  0  0  0  0  0  0
   54.7988   14.0509    9.8908 C   0  0  0  0  0  0  0  0  0  0  0  0
   54.7843   13.0888    9.0142 N   0  0  0  0  0  0  0  0  0  0  0  0
   55.3330   11.8989    9.4298 C   0  0  0  0  0  0  0  0  0  0  0  0
  1  2  1  0
  2  3  1  0
  3  4  2  0
  4 15  1  0
 15 16  1  0
 16 17  2  0
 16 19  1  0
 19 20  1  0
 20 21  2  0
 21 22  1  0
 22 23  1  0
 23 24  2  0
 24 25  1  0
 25 26  2  0
 26 27  1  0
  4  5  1  0
  5  7  1  0
  7  8  2  0
  8  9  1  0
  9 10  1  0
  9 11  2  0
 11 12  1  0
 12 13  1  0
 12 14  2  0
  5  6  1  0
  6  2  2  0
 27 19  2  0
 14  7  1  0
 27 22  1  0
 15 18  1  0
M  END
> <minimizedAffinity>
-9.48117

> <CNNscore>
0.1357449144

> <CNNaffinity>
5.5479607582

> <CNN_VS>
0.7531074286

> <CNNaffinity_variance>
0.5770426989

$$$$



 27 30  0  0  0  0  0  0  0  0999 V2000
   53.6541    7.2531    0.1489 C   0  0  0  0  0  0  0  0  0  0  0  0
   54.3979    7.9080    1.2512 C   0  0  0  0  0  0  0  0  0  0  0  0
   55.7921    8.0254    1.4103 C   0  0  0  0  0  0  0  0  0  0  0  0
   55.9650    8.8130    2.5289 C   0  0  0  0  0  0  0  0  0  0  0  0
   54.6999    8.9142    3.1168 N   0  0  0  0  0  0  0  0  0  0  0  0
   53.7347    8.5168    2.2371 N   0  0  0  0  0  0  0  0  0  0  0  0
   54.3222    9.1646    4.4689 C   0  0  0  0  0  0  0  0  0  0  0  0
   55.2206    9.7294    5.3834 C   0  0  0  0  0  0  0  0  0  0  0  0
   54.8222    9.9427    6.7038 C   0  0  0  0  0  0  0  0  0  0  0  0
   55.9297   10.6457    7.8195 Cl  0  0  0  0  0  0  0  0  0  0  0  0
   53.5478    9.5834    7.1334 C   0  0  0  0  0  0  0  0  0  0  0  0
   52.6670    8.9950    6.2301 C   0  0  0  0  0  0  0  0  0  0  0  0
   51.0949    8.5317    6.7566 Cl  0  0  0  0  0  0  0  0  0  0  0  0
   53.0460    8.7749    4.9062 C   0  0  0  0  0  0  0  0  0  0  0  0
   57.1669    9.3729    2.9405 N   0  0  0  0  0  0  0  0  0  0  0  0
   57.9299    8.8456    3.9711 C   0  0  0  0  0  0  0  0  0  0  0  0
   57.6948    7.7988    4.5636 O   0  0  0  0  0  0  0  0  0  0  0  0
   57.4918   10.1802    2.4802 H   0  0  0  0  0  0  0  0  0  0  0  0
   59.0661    9.6691    4.3437 C   0  0  0  0  0  0  0  0  0  0  0  0
   59.2382   10.3929    5.5412 C   0  0  0  0  0  0  0  0  0  0  0  0
   60.3941   11.0564    5.5949 N   0  0  0  0  0  0  0  0  0  0  0  0
   60.9966   10.7760    4.4172 N   0  0  0  0  0  0  0  0  0  0  0  0
   62.2343   11.2233    3.9677 C   0  0  0  0  0  0  0  0  0  0  0  0
   62.6912   10.8553    2.7634 C   0  0  0  0  0  0  0  0  0  0  0  0
   61.7845    9.9652    1.9873 C   0  0  0  0  0  0  0  0  0  0  0  0
   60.6208    9.5254    2.3703 N   0  0  0  0  0  0  0  0  0  0  0  0
   60.2135    9.9332    3.6183 C   0  0  0  0  0  0  0  0  0  0  0  0
  1  2  1  0
  2  3  1  0
  3  4  2  0
  4 15  1  0
 15 16  1  0
 16 17  2  0
 16 19  1  0
 19 20  1  0
 20 21  2  0
 21 22  1  0
 22 23  1  0
 23 24  2  0
 24 25  1  0
 25 26  2  0
 26 27  1  0
  4  5  1  0
  5  7  1  0
  7  8  2  0
  8  9  1  0
  9 10  1  0
  9 11  2  0
 11 12  1  0
 12 13  1  0
 12 14  2  0
  5  6  1  0
  6  2  2  0
 27 19  2  0
 14  7  1  0
 27 22  1  0
 15 18  1  0
M  END
> <minimizedAffinity>
-8.15946

> <CNNscore>
0.1262200624

> <CNNaffinity>
6.2810387611

> <CNN_VS>
0.7927930951

> <CNNaffinity_variance>
0.2740503550

$$$$



 27 30  0  0  0  0  0  0  0  0999 V2000
   55.5262    6.5276   -0.6030 C   0  0  0  0  0  0  0  0  0  0  0  0
   55.6862    7.3593    0.6135 C   0  0  0  0  0  0  0  0  0  0  0  0
   56.8744    7.6799    1.2978 C   0  0  0  0  0  0  0  0  0  0  0  0
   56.4972    8.5649    2.2856 C   0  0  0  0  0  0  0  0  0  0  0  0
   55.0989    8.5337    2.3047 N   0  0  0  0  0  0  0  0  0  0  0  0
   54.6221    7.9422    1.1705 N   0  0  0  0  0  0  0  0  0  0  0  0
   54.1781    8.8294    3.3526 C   0  0  0  0  0  0  0  0  0  0  0  0
   52.7946    8.8073    3.1340 C   0  0  0  0  0  0  0  0  0  0  0  0
   51.9235    9.1210    4.1783 C   0  0  0  0  0  0  0  0  0  0  0  0
   50.2238    9.0827    3.9039 Cl  0  0  0  0  0  0  0  0  0  0  0  0
   52.4099    9.4764    5.4333 C   0  0  0  0  0  0  0  0  0  0  0  0
   53.7857    9.5264    5.6395 C   0  0  0  0  0  0  0  0  0  0  0  0
   54.3967    9.9814    7.1833 Cl  0  0  0  0  0  0  0  0  0  0  0  0
   54.6723    9.2152    4.6091 C   0  0  0  0  0  0  0  0  0  0  0  0
   57.3649    9.3148    3.0682 N   0  0  0  0  0  0  0  0  0  0  0  0
   57.8654    8.8654    4.2805 C   0  0  0  0  0  0  0  0  0  0  0  0
   57.6868    7.7478    4.7510 O   0  0  0  0  0  0  0  0  0  0  0  0
   57.6368   10.2052    2.7480 H   0  0  0  0  0  0  0  0  0  0  0  0
   58.6283    9.8630    5.0089 C   0  0  0  0  0  0  0  0  0  0  0  0
   58.2425   10.5415    6.1829 C   0  0  0  0  0  0  0  0  0  0  0  0
   59.1622   11.4027    6.6208 N   0  0  0  0  0  0  0  0  0  0  0  0
   60.1701   11.3009    5.7250 N   0  0  0  0  0  0  0  0  0  0  0  0
   61.3771   11.9916    5.7213 C   0  0  0  0  0  0  0  0  0  0  0  0
   62.2767   11.7784    4.7518 C   0  0  0  0  0  0  0  0  0  0  0  0
   61.8748   10.7791    3.7240 C   0  0  0  0  0  0  0  0  0  0  0  0
   60.7570   10.1128    3.6906 N   0  0  0  0  0  0  0  0  0  0  0  0
   59.8808   10.3719    4.7175 C   0  0  0  0  0  0  0  0  0  0  0  0
  1  2  1  0
  2  3  1  0
  3  4  2  0
  4 15  1  0
 15 16  1  0
 16 17  2  0
 16 19  1  0
 19 20  1  0
 20 21  2  0
 21 22  1  0
 22 23  1  0
 23 24  2  0
 24 25  1  0
 25 26  2  0
 26 27  1  0
  4  5  1  0
  5  7  1  0
  7  8  2  0
  8  9  1  0
  9 10  1  0
  9 11  2  0
 11 12  1  0
 12 13  1  0
 12 14  2  0
  5  6  1  0
  6  2  2  0
 27 19  2  0
 14  7  1  0
 27 22  1  0
 15 18  1  0
M  END
> <minimizedAffinity>
-9.26603

> <CNNscore>
0.1145655513

> <CNNaffinity>
6.0423684120

> <CNN_VS>
0.6922472715

> <CNNaffinity_variance>
0.3340836763

$$$$



 27 30  0  0  0  0  0  0  0  0999 V2000
   62.0852    9.8946    2.4416 C   0  0  0  0  0  0  0  0  0  0  0  0
   60.6633    9.8406    2.8571 C   0  0  0  0  0  0  0  0  0  0  0  0
   59.5179    9.8281    2.0382 C   0  0  0  0  0  0  0  0  0  0  0  0
   58.4561    9.6576    2.9013 C   0  0  0  0  0  0  0  0  0  0  0  0
   58.9841    9.8281    4.1853 N   0  0  0  0  0  0  0  0  0  0  0  0
   60.3469    9.7560    4.1513 N   0  0  0  0  0  0  0  0  0  0  0  0
   58.3576   10.2350    5.4000 C   0  0  0  0  0  0  0  0  0  0  0  0
   59.0744   10.9040    6.4005 C   0  0  0  0  0  0  0  0  0  0  0  0
   58.4330   11.2702    7.5847 C   0  0  0  0  0  0  0  0  0  0  0  0
   59.3189   12.1004    8.8060 Cl  0  0  0  0  0  0  0  0  0  0  0  0
   57.0921   10.9623    7.7967 C   0  0  0  0  0  0  0  0  0  0  0  0
   56.3900   10.2712    6.8131 C   0  0  0  0  0  0  0  0  0  0  0  0
   54.7360    9.8711    7.0735 Cl  0  0  0  0  0  0  0  0  0  0  0  0
   57.0128    9.8979    5.6226 C   0  0  0  0  0  0  0  0  0  0  0  0
   57.1512    9.3698    2.5246 N   0  0  0  0  0  0  0  0  0  0  0  0
   56.5284    8.1677    2.8234 C   0  0  0  0  0  0  0  0  0  0  0  0
   57.0033    7.2764    3.5180 O   0  0  0  0  0  0  0  0  0  0  0  0
   56.6457   10.0496    2.0230 H   0  0  0  0  0  0  0  0  0  0  0  0
   55.2242    8.0104    2.2052 C   0  0  0  0  0  0  0  0  0  0  0  0
   53.9708    8.3289    2.7665 C   0  0  0  0  0  0  0  0  0  0  0  0
   52.9472    8.0737    1.9500 N   0  0  0  0  0  0  0  0  0  0  0  0
   53.5250    7.5742    0.8341 N   0  0  0  0  0  0  0  0  0  0  0  0
   52.8962    7.1468   -0.3303 C   0  0  0  0  0  0  0  0  0  0  0  0
   53.6171    6.6689   -1.3533 C   0  0  0  0  0  0  0  0  0  0  0  0
   55.0888    6.6377   -1.1305 C   0  0  0  0  0  0  0  0  0  0  0  0
   55.7157    7.0266   -0.0580 N   0  0  0  0  0  0  0  0  0  0  0  0
   54.9194    7.5133    0.9512 C   0  0  0  0  0  0  0  0  0  0  0  0
  1  2  1  0
  2  3  1  0
  3  4  2  0
  4 15  1  0
 15 16  1  0
 16 17  2  0
 16 19  1  0
 19 20  1  0
 20 21  2  0
 21 22  1  0
 22 23  1  0
 23 24  2  0
 24 25  1  0
 25 26  2  0
 26 27  1  0
  4  5  1  0
  5  7  1  0
  7  8  2  0
  8  9  1  0
  9 10  1  0
  9 11  2  0
 11 12  1  0
 12 13  1  0
 12 14  2  0
  5  6  1  0
  6  2  2  0
 27 19  2  0
 14  7  1  0
 27 22  1  0
 15 18  1  0
M  END
> <minimizedAffinity>
-8.33352

> <CNNscore>
0.1035900712

> <CNNaffinity>
6.3235812187

> <CNN_VS>
0.6550602317

> <CNNaffinity_variance>
0.0966375843

$$$$



 27 30  0  0  0  0  0  0  0  0999 V2000
   62.6058   10.3350    2.3925 C   0  0  0  0  0  0  0  0  0  0  0  0
   61.2083   10.0508    2.7970 C   0  0  0  0  0  0  0  0  0  0  0  0
   60.1030    9.7728    1.9702 C   0  0  0  0  0  0  0  0  0  0  0  0
   59.0706    9.4710    2.8330 C   0  0  0  0  0  0  0  0  0  0  0  0
   59.5298    9.8231    4.1064 N   0  0  0  0  0  0  0  0  0  0  0  0
   60.8834    9.9991    4.0909 N   0  0  0  0  0  0  0  0  0  0  0  0
   58.8126   10.1912    5.2827 C   0  0  0  0  0  0  0  0  0  0  0  0
   57.4546    9.8823    5.4342 C   0  0  0  0  0  0  0  0  0  0  0  0
   56.7800   10.2752    6.5911 C   0  0  0  0  0  0  0  0  0  0  0  0
   55.1129    9.8837    6.7736 Cl  0  0  0  0  0  0  0  0  0  0  0  0
   57.4325   10.9894    7.5920 C   0  0  0  0  0  0  0  0  0  0  0  0
   58.7743   11.3208    7.4257 C   0  0  0  0  0  0  0  0  0  0  0  0
   59.5850   12.2187    8.6505 Cl  0  0  0  0  0  0  0  0  0  0  0  0
   59.4661   10.9361    6.2776 C   0  0  0  0  0  0  0  0  0  0  0  0
   57.8485    8.9244    2.4653 N   0  0  0  0  0  0  0  0  0  0  0  0
   57.6268    8.3383    1.2285 C   0  0  0  0  0  0  0  0  0  0  0  0
   58.4809    8.1495    0.3699 O   0  0  0  0  0  0  0  0  0  0  0  0
   57.1064    8.9542    3.1115 H   0  0  0  0  0  0  0  0  0  0  0  0
   56.2425    7.9712    0.9904 C   0  0  0  0  0  0  0  0  0  0  0  0
   55.7290    7.2461   -0.1042 C   0  0  0  0  0  0  0  0  0  0  0  0
   54.4093    7.0620   -0.0424 N   0  0  0  0  0  0  0  0  0  0  0  0
   54.0385    7.6763    1.1037 N   0  0  0  0  0  0  0  0  0  0  0  0
   52.7586    7.7779    1.6382 C   0  0  0  0  0  0  0  0  0  0  0  0
   52.5555    8.4299    2.7907 C   0  0  0  0  0  0  0  0  0  0  0  0
   53.7767    9.0118    3.4125 C   0  0  0  0  0  0  0  0  0  0  0  0
   54.9897    8.9402    2.9457 N   0  0  0  0  0  0  0  0  0  0  0  0
   55.1314    8.2515    1.7645 C   0  0  0  0  0  0  0  0  0  0  0  0
  1  2  1  0
  2  3  1  0
  3  4  2  0
  4 15  1  0
 15 16  1  0
 16 17  2  0
 16 19  1  0
 19 20  1  0
 20 21  2  0
 21 22  1  0
 22 23  1  0
 23 24  2  0
 24 25  1  0
 25 26  2  0
 26 27  1  0
  4  5  1  0
  5  7  1  0
  7  8  2  0
  8  9  1  0
  9 10  1  0
  9 11  2  0
 11 12  1  0
 12 13  1  0
 12 14  2  0
  5  6  1  0
  6  2  2  0
 27 19  2  0
 14  7  1  0
 27 22  1  0
 15 18  1  0
M  END
> <minimizedAffinity>
-9.63072

> <CNNscore>
0.0945956185

> <CNNaffinity>
6.3851132393

> <CNN_VS>
0.6040037274

> <CNNaffinity_variance>
0.2440139800

$$$$



 27 30  0  0  0  0  0  0  0  0999 V2000
   61.8362    9.8584    2.3483 C   0  0  0  0  0  0  0  0  0  0  0  0
   60.4055    9.7625    2.7239 C   0  0  0  0  0  0  0  0  0  0  0  0
   59.2823    9.7496    1.8748 C   0  0  0  0  0  0  0  0  0  0  0  0
   58.2024    9.5318    2.7040 C   0  0  0  0  0  0  0  0  0  0  0  0
   58.6929    9.6761    4.0059 N   0  0  0  0  0  0  0  0  0  0  0  0
   60.0573    9.6337    4.0063 N   0  0  0  0  0  0  0  0  0  0  0  0
   58.0262   10.0342    5.2146 C   0  0  0  0  0  0  0  0  0  0  0  0
   56.6586    9.7884    5.3922 C   0  0  0  0  0  0  0  0  0  0  0  0
   56.0351   10.1699    6.5811 C   0  0  0  0  0  0  0  0  0  0  0  0
   54.3555    9.8561    6.7953 Cl  0  0  0  0  0  0  0  0  0  0  0  0
   56.7491   10.8113    7.5894 C   0  0  0  0  0  0  0  0  0  0  0  0
   58.1014   11.0809    7.3983 C   0  0  0  0  0  0  0  0  0  0  0  0
   58.9886   11.8890    8.6326 Cl  0  0  0  0  0  0  0  0  0  0  0  0
   58.7426   10.7064    6.2179 C   0  0  0  0  0  0  0  0  0  0  0  0
   56.9144    9.2277    2.2845 N   0  0  0  0  0  0  0  0  0  0  0  0
   56.3297    7.9868    2.4859 C   0  0  0  0  0  0  0  0  0  0  0  0
   56.8248    7.0646    3.1236 O   0  0  0  0  0  0  0  0  0  0  0  0
   56.3930    9.9241    1.8236 H   0  0  0  0  0  0  0  0  0  0  0  0
   55.0414    7.8301    1.8349 C   0  0  0  0  0  0  0  0  0  0  0  0
   53.7733    8.1355    2.3697 C   0  0  0  0  0  0  0  0  0  0  0  0
   52.7709    7.8846    1.5261 N   0  0  0  0  0  0  0  0  0  0  0  0
   53.3778    7.4013    0.4186 N   0  0  0  0  0  0  0  0  0  0  0  0
   52.7792    6.9844   -0.7654 C   0  0  0  0  0  0  0  0  0  0  0  0
   53.5269    6.5222   -1.7764 C   0  0  0  0  0  0  0  0  0  0  0  0
   54.9931    6.4958   -1.5188 C   0  0  0  0  0  0  0  0  0  0  0  0
   55.5921    6.8754   -0.4272 N   0  0  0  0  0  0  0  0  0  0  0  0
   54.7694    7.3462    0.5683 C   0  0  0  0  0  0  0  0  0  0  0  0
  1  2  1  0
  2  3  1  0
  3  4  2  0
  4 15  1  0
 15 16  1  0
 16 17  2  0
 16 19  1  0
 19 20  1  0
 20 21  2  0
 21 22  1  0
 22 23  1  0
 23 24  2  0
 24 25  1  0
 25 26  2  0
 26 27  1  0
  4  5  1  0
  5  7  1  0
  7  8  2  0
  8  9  1  0
  9 10  1  0
  9 11  2  0
 11 12  1  0
 12 13  1  0
 12 14  2  0
  5  6  1  0
  6  2  2  0
 27 19  2  0
 14  7  1  0
 27 22  1  0
 15 18  1  0
M  END
> <minimizedAffinity>
-8.36541

> <CNNscore>
0.0915068761

> <CNNaffinity>
6.1205849648

> <CNN_VS>
0.5600755811

> <CNNaffinity_variance>
0.1222163066

$$$$



 27 30  0  0  0  0  0  0  0  0999 V2000
   62.5853   10.2807    2.3853 C   0  0  0  0  0  0  0  0  0  0  0  0
   61.1829   10.0230    2.7905 C   0  0  0  0  0  0  0  0  0  0  0  0
   60.0759    9.7467    1.9653 C   0  0  0  0  0  0  0  0  0  0  0  0
   59.0372    9.4739    2.8301 C   0  0  0  0  0  0  0  0  0  0  0  0
   59.4979    9.8407    4.0988 N   0  0  0  0  0  0  0  0  0  0  0  0
   60.8540    9.9974    4.0841 N   0  0  0  0  0  0  0  0  0  0  0  0
   58.7829   10.2384    5.2667 C   0  0  0  0  0  0  0  0  0  0  0  0
   59.4138   10.9372    6.3041 C   0  0  0  0  0  0  0  0  0  0  0  0
   58.6871   11.2936    7.4411 C   0  0  0  0  0  0  0  0  0  0  0  0
   59.4676   12.1604    8.7079 Cl  0  0  0  0  0  0  0  0  0  0  0  0
   57.3451   10.9469    7.5701 C   0  0  0  0  0  0  0  0  0  0  0  0
   56.7284   10.2267    6.5508 C   0  0  0  0  0  0  0  0  0  0  0  0
   55.0737    9.7787    6.7090 Cl  0  0  0  0  0  0  0  0  0  0  0  0
   57.4372    9.8625    5.4064 C   0  0  0  0  0  0  0  0  0  0  0  0
   57.8085    8.9384    2.4681 N   0  0  0  0  0  0  0  0  0  0  0  0
   57.5867    8.3190    1.2477 C   0  0  0  0  0  0  0  0  0  0  0  0
   58.4444    8.0887    0.4030 O   0  0  0  0  0  0  0  0  0  0  0  0
   57.0616    9.0013    3.1064 H   0  0  0  0  0  0  0  0  0  0  0  0
   56.1979    7.9698    1.0082 C   0  0  0  0  0  0  0  0  0  0  0  0
   55.6750    7.2592   -0.0914 C   0  0  0  0  0  0  0  0  0  0  0  0
   54.3533    7.0899   -0.0295 N   0  0  0  0  0  0  0  0  0  0  0  0
   53.9908    7.6995    1.1218 N   0  0  0  0  0  0  0  0  0  0  0  0
   52.7127    7.8117    1.6585 C   0  0  0  0  0  0  0  0  0  0  0  0
   52.5183    8.4569    2.8163 C   0  0  0  0  0  0  0  0  0  0  0  0
   53.7469    9.0198    3.4413 C   0  0  0  0  0  0  0  0  0  0  0  0
   54.9584    8.9378    2.9725 N   0  0  0  0  0  0  0  0  0  0  0  0
   55.0909    8.2568    1.7859 C   0  0  0  0  0  0  0  0  0  0  0  0
  1  2  1  0
  2  3  1  0
  3  4  2  0
  4 15  1  0
 15 16  1  0
 16 17  2  0
 16 19  1  0
 19 20  1  0
 20 21  2  0
 21 22  1  0
 22 23  1  0
 23 24  2  0
 24 25  1  0
 25 26  2  0
 26 27  1  0
  4  5  1  0
  5  7  1  0
  7  8  2  0
  8  9  1  0
  9 10  1  0
  9 11  2  0
 11 12  1  0
 12 13  1  0
 12 14  2  0
  5  6  1  0
  6  2  2  0
 27 19  2  0
 14  7  1  0
 27 22  1  0
 15 18  1  0
M  END
> <minimizedAffinity>
-9.57810

> <CNNscore>
0.0914242789

> <CNNaffinity>
6.3843441010

> <CNN_VS>
0.5836840272

> <CNNaffinity_variance>
0.2258408815

$$$$
