


 46 48  0  0  0  0  0  0  0  0999 V2000
   12.6908   54.0583   92.0277 C   0  0  0  0  0  0  0  0  0  0  0  0
   13.5010   53.7917   92.9288 O   0  0  0  0  0  0  0  0  0  0  0  0
   13.1816   54.2301   90.7472 N   0  0  0  0  0  0  0  0  0  0  0  0
   14.6054   54.5146   90.5817 C   0  0  0  0  0  0  0  0  0  0  0  0
   14.6793   55.4183   89.3517 C   0  0  0  0  0  0  0  0  0  0  0  0
   14.3916   56.7755   89.6812 O   0  0  0  0  0  0  0  0  0  0  0  0
   13.5601   54.8848   88.4750 C   0  0  0  0  0  0  0  0  0  0  0  0
   12.4667   54.5014   89.4891 C   0  0  0  0  0  0  0  0  0  0  0  0
   13.5158   56.8292   90.0947 H   0  0  0  0  0  0  0  0  0  0  0  0
   11.7340   53.2397   89.0090 C   0  0  0  0  0  0  0  0  0  0  0  0
   12.0191   52.1206   89.4294 O   0  0  0  0  0  0  0  0  0  0  0  0
   10.6975   53.4677   88.1282 N   0  0  0  0  0  0  0  0  0  0  0  0
   10.5336   54.3896   87.8238 H   0  0  0  0  0  0  0  0  0  0  0  0
    9.8420   52.4156   87.6321 C   0  0  0  0  0  0  0  0  0  0  0  0
   10.0166   52.2540   86.1459 C   0  0  0  0  0  0  0  0  0  0  0  0
   10.2541   53.3618   85.3244 C   0  0  0  0  0  0  0  0  0  0  0  0
   10.4166   53.1971   83.9453 C   0  0  0  0  0  0  0  0  0  0  0  0
   10.3393   51.9253   83.3588 C   0  0  0  0  0  0  0  0  0  0  0  0
   10.1005   50.8192   84.1836 C   0  0  0  0  0  0  0  0  0  0  0  0
    9.9434   50.9811   85.5630 C   0  0  0  0  0  0  0  0  0  0  0  0
   10.5228   51.7470   81.9174 C   0  0  0  0  0  0  0  0  0  0  0  0
    9.2007   51.9914   80.8367 S   0  0  0  0  0  0  0  0  0  0  0  0
   10.2144   51.5923   79.5397 C   0  0  0  0  0  0  0  0  0  0  0  0
    9.6064   51.6205   77.9336 Cl  0  0  0  0  0  0  0  0  0  0  0  0
   11.4546   51.2771   79.8157 N   0  0  0  0  0  0  0  0  0  0  0  0
   11.6482   51.3698   81.1881 C   0  0  0  0  0  0  0  0  0  0  0  0
   13.0086   51.0778   81.7182 C   0  0  0  0  0  0  0  0  0  0  0  0
   11.1630   54.1061   92.3889 C   0  0  0  0  0  0  0  0  0  0  0  0
    9.2443   52.9934   91.2760 C   0  0  0  0  0  0  0  0  0  0  0  0
    8.8822   54.0563   90.7769 O   0  0  0  0  0  0  0  0  0  0  0  0
   10.3721   52.9137   92.0749 N   0  0  0  0  0  0  0  0  0  0  0  0
   10.6473   52.0410   92.4381 H   0  0  0  0  0  0  0  0  0  0  0  0
    8.5052   51.6476   91.0247 C   0  0  0  0  0  0  0  0  0  0  0  0
    9.6218   48.5754   92.9851 C   0  0  0  0  0  0  0  0  0  0  0  0
    8.6575   49.5470   92.3612 C   0  0  0  0  0  0  0  0  0  0  0  0
    7.4475   49.4834   92.5477 O   0  0  0  0  0  0  0  0  0  0  0  0
    9.2628   50.5263   91.6038 N   0  0  0  0  0  0  0  0  0  0  0  0
   10.2330   50.4743   91.4449 H   0  0  0  0  0  0  0  0  0  0  0  0
    7.0162   51.6395   91.5150 C   0  0  0  0  0  0  0  0  0  0  0  0
    6.3239   50.3186   91.1021 C   0  0  0  0  0  0  0  0  0  0  0  0
    6.9267   51.7724   93.0477 C   0  0  0  0  0  0  0  0  0  0  0  0
    6.2108   52.7862   90.8678 C   0  0  0  0  0  0  0  0  0  0  0  0
   10.8309   54.6667   93.8202 C   0  0  0  0  0  0  0  0  0  0  0  0
   11.1199   53.5821   94.8862 C   0  0  0  0  0  0  0  0  0  0  0  0
    9.3355   55.0296   93.9455 C   0  0  0  0  0  0  0  0  0  0  0  0
   11.6518   55.9133   94.1672 C   0  0  0  0  0  0  0  0  0  0  0  0
 34 35  1  0
 35 36  2  0
 35 37  1  0
 33 37  1  0
 33 29  1  0
 29 30  2  0
 29 31  1  0
 28 31  1  0
 28  1  1  0
  1  2  2  0
  1  3  1  0
  3  4  1  0
  4  5  1  0
  5  6  1  0
  5  7  1  0
  7  8  1  0
  8 10  1  0
 10 11  2  0
 10 12  1  0
 12 14  1  0
 14 15  1  0
 15 16  2  0
 16 17  1  0
 17 18  2  0
 18 21  1  0
 21 22  1  0
 22 23  1  0
 23 24  1  0
 23 25  2  0
 25 26  1  0
 26 27  1  0
 18 19  1  0
 19 20  2  0
 28 43  1  0
 43 44  1  0
 43 45  1  0
 43 46  1  0
 33 39  1  0
 39 40  1  0
 39 41  1  0
 39 42  1  0
  8  3  1  0
 20 15  1  0
 26 21  2  0
 37 38  1  0
 31 32  1  0
  6  9  1  0
 12 13  1  0
M  END
> <minimizedAffinity>
-7.28994

> <CNNscore>
0.6416815519

> <CNNaffinity>
6.8893685341

> <CNN_VS>
4.4207806587

> <CNNaffinity_variance>
0.2353220433

$$$$



 46 48  0  0  0  0  0  0  0  0999 V2000
    8.9296   49.8265   87.2443 C   0  0  0  0  0  0  0  0  0  0  0  0
    8.1780   49.0252   87.8210 O   0  0  0  0  0  0  0  0  0  0  0  0
    8.7716   51.1721   87.5172 N   0  0  0  0  0  0  0  0  0  0  0  0
    7.5087   51.6184   88.1017 C   0  0  0  0  0  0  0  0  0  0  0  0
    7.2939   53.0210   87.5347 C   0  0  0  0  0  0  0  0  0  0  0  0
    6.7332   52.9758   86.2242 O   0  0  0  0  0  0  0  0  0  0  0  0
    8.7084   53.5647   87.4379 C   0  0  0  0  0  0  0  0  0  0  0  0
    9.5355   52.3320   87.0287 C   0  0  0  0  0  0  0  0  0  0  0  0
    7.3101   52.4552   85.6436 H   0  0  0  0  0  0  0  0  0  0  0  0
   10.9141   52.3855   87.7036 C   0  0  0  0  0  0  0  0  0  0  0  0
   11.7184   51.4602   87.6174 O   0  0  0  0  0  0  0  0  0  0  0  0
   11.2001   53.5690   88.3513 N   0  0  0  0  0  0  0  0  0  0  0  0
   10.5029   54.2630   88.3918 H   0  0  0  0  0  0  0  0  0  0  0  0
   12.4757   53.8365   88.9728 C   0  0  0  0  0  0  0  0  0  0  0  0
   12.2976   54.1018   90.4436 C   0  0  0  0  0  0  0  0  0  0  0  0
   11.0602   53.9028   91.0662 C   0  0  0  0  0  0  0  0  0  0  0  0
   10.9092   54.1513   92.4340 C   0  0  0  0  0  0  0  0  0  0  0  0
   11.9879   54.6086   93.2054 C   0  0  0  0  0  0  0  0  0  0  0  0
   13.2242   54.8076   92.5789 C   0  0  0  0  0  0  0  0  0  0  0  0
   13.3786   54.5544   91.2130 C   0  0  0  0  0  0  0  0  0  0  0  0
   11.8375   54.8564   94.6404 C   0  0  0  0  0  0  0  0  0  0  0  0
   11.9852   53.5578   95.7662 S   0  0  0  0  0  0  0  0  0  0  0  0
   11.6795   54.6453   97.0284 C   0  0  0  0  0  0  0  0  0  0  0  0
   11.6733   54.0939   98.6550 Cl  0  0  0  0  0  0  0  0  0  0  0  0
   11.4617   55.8962   96.7101 N   0  0  0  0  0  0  0  0  0  0  0  0
   11.5576   56.0332   95.3311 C   0  0  0  0  0  0  0  0  0  0  0  0
   11.3703   57.3931   94.7543 C   0  0  0  0  0  0  0  0  0  0  0  0
   10.0527   49.2534   86.3077 C   0  0  0  0  0  0  0  0  0  0  0  0
   10.3071   50.3801   84.1115 C   0  0  0  0  0  0  0  0  0  0  0  0
    9.3453   49.7669   83.6546 O   0  0  0  0  0  0  0  0  0  0  0  0
   10.7232   50.2067   85.4204 N   0  0  0  0  0  0  0  0  0  0  0  0
   11.4825   50.7330   85.7607 H   0  0  0  0  0  0  0  0  0  0  0  0
   11.1096   51.4274   83.2868 C   0  0  0  0  0  0  0  0  0  0  0  0
   13.2203   53.8868   85.2930 C   0  0  0  0  0  0  0  0  0  0  0  0
   12.0033   53.3645   84.5795 C   0  0  0  0  0  0  0  0  0  0  0  0
   11.0051   54.0516   84.3935 O   0  0  0  0  0  0  0  0  0  0  0  0
   12.1344   52.0699   84.1256 N   0  0  0  0  0  0  0  0  0  0  0  0
   12.9393   51.5585   84.3703 H   0  0  0  0  0  0  0  0  0  0  0  0
   11.7336   50.8543   81.9679 C   0  0  0  0  0  0  0  0  0  0  0  0
   10.8198   51.1736   80.7606 C   0  0  0  0  0  0  0  0  0  0  0  0
   13.1244   51.4585   81.6932 C   0  0  0  0  0  0  0  0  0  0  0  0
   11.8628   49.3176   82.0351 C   0  0  0  0  0  0  0  0  0  0  0  0
   11.0770   48.2857   87.0059 C   0  0  0  0  0  0  0  0  0  0  0  0
   12.4734   48.4466   86.3574 C   0  0  0  0  0  0  0  0  0  0  0  0
   10.6659   46.8089   86.8217 C   0  0  0  0  0  0  0  0  0  0  0  0
   11.2100   48.5567   88.5083 C   0  0  0  0  0  0  0  0  0  0  0  0
 34 35  1  0
 35 36  2  0
 35 37  1  0
 33 37  1  0
 33 29  1  0
 29 30  2  0
 29 31  1  0
 28 31  1  0
 28  1  1  0
  1  2  2  0
  1  3  1  0
  3  4  1  0
  4  5  1  0
  5  6  1  0
  5  7  1  0
  7  8  1  0
  8 10  1  0
 10 11  2  0
 10 12  1  0
 12 14  1  0
 14 15  1  0
 15 16  2  0
 16 17  1  0
 17 18  2  0
 18 21  1  0
 21 22  1  0
 22 23  1  0
 23 24  1  0
 23 25  2  0
 25 26  1  0
 26 27  1  0
 18 19  1  0
 19 20  2  0
 28 43  1  0
 43 44  1  0
 43 45  1  0
 43 46  1  0
 33 39  1  0
 39 40  1  0
 39 41  1  0
 39 42  1  0
  8  3  1  0
 20 15  1  0
 26 21  2  0
 37 38  1  0
 31 32  1  0
  6  9  1  0
 12 13  1  0
M  END
> <minimizedAffinity>
-8.05454

> <CNNscore>
0.6387153268

> <CNNaffinity>
6.7186737061

> <CNN_VS>
4.2913198471

> <CNNaffinity_variance>
0.3006244302

$$$$



 46 48  0  0  0  0  0  0  0  0999 V2000
   12.7999   53.7922   91.9770 C   0  0  0  0  0  0  0  0  0  0  0  0
   13.5915   53.1541   92.6881 O   0  0  0  0  0  0  0  0  0  0  0  0
   13.2214   54.1657   90.7148 N   0  0  0  0  0  0  0  0  0  0  0  0
   14.6563   54.1834   90.4390 C   0  0  0  0  0  0  0  0  0  0  0  0
   14.8446   55.3239   89.4397 C   0  0  0  0  0  0  0  0  0  0  0  0
   14.9004   56.5896   90.0942 O   0  0  0  0  0  0  0  0  0  0  0  0
   13.5716   55.2610   88.6143 C   0  0  0  0  0  0  0  0  0  0  0  0
   12.4970   54.8754   89.6476 C   0  0  0  0  0  0  0  0  0  0  0  0
   14.0930   56.7198   90.6158 H   0  0  0  0  0  0  0  0  0  0  0  0
   11.4616   53.9464   88.9966 C   0  0  0  0  0  0  0  0  0  0  0  0
   10.2612   54.2106   88.9909 O   0  0  0  0  0  0  0  0  0  0  0  0
   11.9878   52.8374   88.3678 N   0  0  0  0  0  0  0  0  0  0  0  0
   12.9583   52.6818   88.4237 H   0  0  0  0  0  0  0  0  0  0  0  0
   11.1797   51.8943   87.6313 C   0  0  0  0  0  0  0  0  0  0  0  0
   11.6669   51.7819   86.2116 C   0  0  0  0  0  0  0  0  0  0  0  0
   11.6687   50.5505   85.5467 C   0  0  0  0  0  0  0  0  0  0  0  0
   12.1222   50.4607   84.2270 C   0  0  0  0  0  0  0  0  0  0  0  0
   12.5879   51.5961   83.5475 C   0  0  0  0  0  0  0  0  0  0  0  0
   12.5857   52.8263   84.2163 C   0  0  0  0  0  0  0  0  0  0  0  0
   12.1276   52.9191   85.5336 C   0  0  0  0  0  0  0  0  0  0  0  0
   13.0503   51.5087   82.1613 C   0  0  0  0  0  0  0  0  0  0  0  0
   14.7378   51.5389   81.8049 S   0  0  0  0  0  0  0  0  0  0  0  0
   14.3701   51.4225   80.1556 C   0  0  0  0  0  0  0  0  0  0  0  0
   15.6352   51.3630   78.9954 Cl  0  0  0  0  0  0  0  0  0  0  0  0
   13.1060   51.3735   79.8193 N   0  0  0  0  0  0  0  0  0  0  0  0
   12.3315   51.4152   80.9717 C   0  0  0  0  0  0  0  0  0  0  0  0
   10.8524   51.3422   80.8166 C   0  0  0  0  0  0  0  0  0  0  0  0
   11.3545   54.0633   92.5286 C   0  0  0  0  0  0  0  0  0  0  0  0
    9.1343   53.1393   91.9161 C   0  0  0  0  0  0  0  0  0  0  0  0
    8.7774   54.2241   91.4626 O   0  0  0  0  0  0  0  0  0  0  0  0
   10.3986   52.9561   92.4496 N   0  0  0  0  0  0  0  0  0  0  0  0
   10.6597   52.0668   92.7814 H   0  0  0  0  0  0  0  0  0  0  0  0
    8.2274   51.8753   91.8936 C   0  0  0  0  0  0  0  0  0  0  0  0
    8.8602   49.4644   89.0099 C   0  0  0  0  0  0  0  0  0  0  0  0
    8.2561   50.6414   89.7259 C   0  0  0  0  0  0  0  0  0  0  0  0
    7.3549   51.3150   89.2390 O   0  0  0  0  0  0  0  0  0  0  0  0
    8.7793   50.8598   90.9820 N   0  0  0  0  0  0  0  0  0  0  0  0
    9.5467   50.3194   91.2791 H   0  0  0  0  0  0  0  0  0  0  0  0
    7.9451   51.2707   93.3122 C   0  0  0  0  0  0  0  0  0  0  0  0
    6.7347   50.3084   93.2526 C   0  0  0  0  0  0  0  0  0  0  0  0
    9.1603   50.4852   93.8422 C   0  0  0  0  0  0  0  0  0  0  0  0
    7.5858   52.3767   94.3271 C   0  0  0  0  0  0  0  0  0  0  0  0
   11.2953   54.7873   93.9234 C   0  0  0  0  0  0  0  0  0  0  0  0
   11.4550   53.7476   95.0590 C   0  0  0  0  0  0  0  0  0  0  0  0
    9.9311   55.4777   94.1376 C   0  0  0  0  0  0  0  0  0  0  0  0
   12.3921   55.8457   94.0821 C   0  0  0  0  0  0  0  0  0  0  0  0
 34 35  1  0
 35 36  2  0
 35 37  1  0
 33 37  1  0
 33 29  1  0
 29 30  2  0
 29 31  1  0
 28 31  1  0
 28  1  1  0
  1  2  2  0
  1  3  1  0
  3  4  1  0
  4  5  1  0
  5  6  1  0
  5  7  1  0
  7  8  1  0
  8 10  1  0
 10 11  2  0
 10 12  1  0
 12 14  1  0
 14 15  1  0
 15 16  2  0
 16 17  1  0
 17 18  2  0
 18 21  1  0
 21 22  1  0
 22 23  1  0
 23 24  1  0
 23 25  2  0
 25 26  1  0
 26 27  1  0
 18 19  1  0
 19 20  2  0
 28 43  1  0
 43 44  1  0
 43 45  1  0
 43 46  1  0
 33 39  1  0
 39 40  1  0
 39 41  1  0
 39 42  1  0
  8  3  1  0
 20 15  1  0
 26 21  2  0
 37 38  1  0
 31 32  1  0
  6  9  1  0
 12 13  1  0
M  END
> <minimizedAffinity>
-7.41197

> <CNNscore>
0.4443395436

> <CNNaffinity>
6.8585300446

> <CNN_VS>
3.0475161076

> <CNNaffinity_variance>
0.4439249039

$$$$



 46 48  0  0  0  0  0  0  0  0999 V2000
   10.8940   50.6881   87.8297 C   0  0  0  0  0  0  0  0  0  0  0  0
   11.5468   50.1582   88.7422 O   0  0  0  0  0  0  0  0  0  0  0  0
   10.3765   51.9499   88.0536 N   0  0  0  0  0  0  0  0  0  0  0  0
   10.2437   52.4109   89.4340 C   0  0  0  0  0  0  0  0  0  0  0  0
    9.0036   53.3036   89.4266 C   0  0  0  0  0  0  0  0  0  0  0  0
    7.8051   52.5356   89.5112 O   0  0  0  0  0  0  0  0  0  0  0  0
    9.0662   53.9544   88.0560 C   0  0  0  0  0  0  0  0  0  0  0  0
    9.6145   52.8325   87.1549 C   0  0  0  0  0  0  0  0  0  0  0  0
    7.7755   51.9006   88.7786 H   0  0  0  0  0  0  0  0  0  0  0  0
   10.5394   53.4321   86.0854 C   0  0  0  0  0  0  0  0  0  0  0  0
   10.1003   53.9953   85.0852 O   0  0  0  0  0  0  0  0  0  0  0  0
   11.8869   53.3473   86.3668 N   0  0  0  0  0  0  0  0  0  0  0  0
   12.1680   52.8702   87.1808 H   0  0  0  0  0  0  0  0  0  0  0  0
   12.9042   53.9267   85.5215 C   0  0  0  0  0  0  0  0  0  0  0  0
   13.1064   53.0843   84.2907 C   0  0  0  0  0  0  0  0  0  0  0  0
   12.1220   52.1859   83.8638 C   0  0  0  0  0  0  0  0  0  0  0  0
   12.3219   51.4108   82.7172 C   0  0  0  0  0  0  0  0  0  0  0  0
   13.5098   51.5128   81.9781 C   0  0  0  0  0  0  0  0  0  0  0  0
   14.4930   52.4120   82.4088 C   0  0  0  0  0  0  0  0  0  0  0  0
   14.2926   53.1917   83.5514 C   0  0  0  0  0  0  0  0  0  0  0  0
   13.7170   50.7135   80.7694 C   0  0  0  0  0  0  0  0  0  0  0  0
   12.7038   49.3565   80.4411 S   0  0  0  0  0  0  0  0  0  0  0  0
   13.5849   49.0683   79.0235 C   0  0  0  0  0  0  0  0  0  0  0  0
   13.1522   47.7640   77.9931 Cl  0  0  0  0  0  0  0  0  0  0  0  0
   14.5816   49.8736   78.7561 N   0  0  0  0  0  0  0  0  0  0  0  0
   14.6643   50.8351   79.7553 C   0  0  0  0  0  0  0  0  0  0  0  0
   15.7214   51.8763   79.6306 C   0  0  0  0  0  0  0  0  0  0  0  0
   10.7668   49.9241   86.4633 C   0  0  0  0  0  0  0  0  0  0  0  0
   11.6978   47.7131   87.0979 C   0  0  0  0  0  0  0  0  0  0  0  0
   10.9235   47.6293   88.0484 O   0  0  0  0  0  0  0  0  0  0  0  0
   11.6845   48.8034   86.2449 N   0  0  0  0  0  0  0  0  0  0  0  0
   12.3022   48.8260   85.4786 H   0  0  0  0  0  0  0  0  0  0  0  0
   12.7217   46.5969   86.7422 C   0  0  0  0  0  0  0  0  0  0  0  0
   12.4896   45.1364   83.2292 C   0  0  0  0  0  0  0  0  0  0  0  0
   12.2188   45.2487   84.7047 C   0  0  0  0  0  0  0  0  0  0  0  0
   11.6029   44.3906   85.3271 O   0  0  0  0  0  0  0  0  0  0  0  0
   12.7588   46.3747   85.2876 N   0  0  0  0  0  0  0  0  0  0  0  0
   13.1831   47.0520   84.7128 H   0  0  0  0  0  0  0  0  0  0  0  0
   14.1593   46.8479   87.3147 C   0  0  0  0  0  0  0  0  0  0  0  0
   15.1038   47.3408   86.1923 C   0  0  0  0  0  0  0  0  0  0  0  0
   14.1438   47.9087   88.4325 C   0  0  0  0  0  0  0  0  0  0  0  0
   14.7716   45.5455   87.8727 C   0  0  0  0  0  0  0  0  0  0  0  0
    9.2976   49.5687   86.0295 C   0  0  0  0  0  0  0  0  0  0  0  0
    8.7667   50.6446   85.0514 C   0  0  0  0  0  0  0  0  0  0  0  0
    8.3434   49.5578   87.2432 C   0  0  0  0  0  0  0  0  0  0  0  0
    9.2033   48.2032   85.3403 C   0  0  0  0  0  0  0  0  0  0  0  0
 34 35  1  0
 35 36  2  0
 35 37  1  0
 33 37  1  0
 33 29  1  0
 29 30  2  0
 29 31  1  0
 28 31  1  0
 28  1  1  0
  1  2  2  0
  1  3  1  0
  3  4  1  0
  4  5  1  0
  5  6  1  0
  5  7  1  0
  7  8  1  0
  8 10  1  0
 10 11  2  0
 10 12  1  0
 12 14  1  0
 14 15  1  0
 15 16  2  0
 16 17  1  0
 17 18  2  0
 18 21  1  0
 21 22  1  0
 22 23  1  0
 23 24  1  0
 23 25  2  0
 25 26  1  0
 26 27  1  0
 18 19  1  0
 19 20  2  0
 28 43  1  0
 43 44  1  0
 43 45  1  0
 43 46  1  0
 33 39  1  0
 39 40  1  0
 39 41  1  0
 39 42  1  0
  8  3  1  0
 20 15  1  0
 26 21  2  0
 37 38  1  0
 31 32  1  0
  6  9  1  0
 12 13  1  0
M  END
> <minimizedAffinity>
-7.65968

> <CNNscore>
0.3343553543

> <CNNaffinity>
6.6191782951

> <CNN_VS>
2.2131576538

> <CNNaffinity_variance>
0.4941065311

$$$$



 46 48  0  0  0  0  0  0  0  0999 V2000
   10.2551   48.9620   91.7184 C   0  0  0  0  0  0  0  0  0  0  0  0
    9.6701   48.8095   92.8019 O   0  0  0  0  0  0  0  0  0  0  0  0
    9.7578   48.2937   90.6156 N   0  0  0  0  0  0  0  0  0  0  0  0
    8.8784   47.1476   90.8365 C   0  0  0  0  0  0  0  0  0  0  0  0
    9.1756   46.2017   89.6739 C   0  0  0  0  0  0  0  0  0  0  0  0
   10.3434   45.4210   89.9194 O   0  0  0  0  0  0  0  0  0  0  0  0
    9.4631   47.1566   88.5287 C   0  0  0  0  0  0  0  0  0  0  0  0
   10.2058   48.3187   89.2134 C   0  0  0  0  0  0  0  0  0  0  0  0
   11.0968   46.0093   90.0846 H   0  0  0  0  0  0  0  0  0  0  0  0
    9.8120   49.6474   88.5511 C   0  0  0  0  0  0  0  0  0  0  0  0
    8.7007   50.1489   88.7063 O   0  0  0  0  0  0  0  0  0  0  0  0
   10.8162   50.2590   87.8302 N   0  0  0  0  0  0  0  0  0  0  0  0
   11.6785   49.7932   87.7370 H   0  0  0  0  0  0  0  0  0  0  0  0
   10.6600   51.5517   87.2060 C   0  0  0  0  0  0  0  0  0  0  0  0
   11.3710   51.5835   85.8798 C   0  0  0  0  0  0  0  0  0  0  0  0
   11.8482   52.7867   85.3477 C   0  0  0  0  0  0  0  0  0  0  0  0
   12.5088   52.8016   84.1153 C   0  0  0  0  0  0  0  0  0  0  0  0
   12.7007   51.6178   83.3876 C   0  0  0  0  0  0  0  0  0  0  0  0
   12.2209   50.4160   83.9226 C   0  0  0  0  0  0  0  0  0  0  0  0
   11.5653   50.3982   85.1569 C   0  0  0  0  0  0  0  0  0  0  0  0
   13.4042   51.6272   82.1038 C   0  0  0  0  0  0  0  0  0  0  0  0
   14.9991   52.2749   81.9921 S   0  0  0  0  0  0  0  0  0  0  0  0
   15.0021   51.9256   80.3347 C   0  0  0  0  0  0  0  0  0  0  0  0
   16.3882   52.2800   79.3844 Cl  0  0  0  0  0  0  0  0  0  0  0  0
   13.9254   51.3787   79.8295 N   0  0  0  0  0  0  0  0  0  0  0  0
   12.9954   51.1940   80.8446 C   0  0  0  0  0  0  0  0  0  0  0  0
   11.6985   50.5544   80.4895 C   0  0  0  0  0  0  0  0  0  0  0  0
   11.4676   49.9586   91.6595 C   0  0  0  0  0  0  0  0  0  0  0  0
   11.2632   52.4246   91.8469 C   0  0  0  0  0  0  0  0  0  0  0  0
   11.2420   52.5432   90.6240 O   0  0  0  0  0  0  0  0  0  0  0  0
   11.3549   51.1840   92.4543 N   0  0  0  0  0  0  0  0  0  0  0  0
   11.3442   51.1242   93.4369 H   0  0  0  0  0  0  0  0  0  0  0  0
   11.1460   53.6371   92.8148 C   0  0  0  0  0  0  0  0  0  0  0  0
    8.4816   53.5853   95.5400 C   0  0  0  0  0  0  0  0  0  0  0  0
    9.1290   53.9820   94.2413 C   0  0  0  0  0  0  0  0  0  0  0  0
    8.6709   54.8612   93.5202 O   0  0  0  0  0  0  0  0  0  0  0  0
   10.2935   53.2984   93.9660 N   0  0  0  0  0  0  0  0  0  0  0  0
   10.5640   52.5599   94.5583 H   0  0  0  0  0  0  0  0  0  0  0  0
   12.5272   54.2130   93.2816 C   0  0  0  0  0  0  0  0  0  0  0  0
   13.1322   53.3198   94.3910 C   0  0  0  0  0  0  0  0  0  0  0  0
   13.5326   54.2815   92.1156 C   0  0  0  0  0  0  0  0  0  0  0  0
   12.3666   55.6250   93.8843 C   0  0  0  0  0  0  0  0  0  0  0  0
   12.8863   49.2961   91.8061 C   0  0  0  0  0  0  0  0  0  0  0  0
   12.7695   47.9866   92.6234 C   0  0  0  0  0  0  0  0  0  0  0  0
   13.8573   50.2180   92.5748 C   0  0  0  0  0  0  0  0  0  0  0  0
   13.5212   48.9630   90.4517 C   0  0  0  0  0  0  0  0  0  0  0  0
 34 35  1  0
 35 36  2  0
 35 37  1  0
 33 37  1  0
 33 29  1  0
 29 30  2  0
 29 31  1  0
 28 31  1  0
 28  1  1  0
  1  2  2  0
  1  3  1  0
  3  4  1  0
  4  5  1  0
  5  6  1  0
  5  7  1  0
  7  8  1  0
  8 10  1  0
 10 11  2  0
 10 12  1  0
 12 14  1  0
 14 15  1  0
 15 16  2  0
 16 17  1  0
 17 18  2  0
 18 21  1  0
 21 22  1  0
 22 23  1  0
 23 24  1  0
 23 25  2  0
 25 26  1  0
 26 27  1  0
 18 19  1  0
 19 20  2  0
 28 43  1  0
 43 44  1  0
 43 45  1  0
 43 46  1  0
 33 39  1  0
 39 40  1  0
 39 41  1  0
 39 42  1  0
  8  3  1  0
 20 15  1  0
 26 21  2  0
 37 38  1  0
 31 32  1  0
  6  9  1  0
 12 13  1  0
M  END
> <minimizedAffinity>
-6.62888

> <CNNscore>
0.2987271547

> <CNNaffinity>
5.9664883614

> <CNN_VS>
1.7823520899

> <CNNaffinity_variance>
0.6349904537

$$$$



 46 48  0  0  0  0  0  0  0  0999 V2000
    9.4818   49.8980   87.7123 C   0  0  0  0  0  0  0  0  0  0  0  0
    9.0175   49.1555   88.5912 O   0  0  0  0  0  0  0  0  0  0  0  0
    9.0711   51.2176   87.6975 N   0  0  0  0  0  0  0  0  0  0  0  0
    7.8388   51.5691   88.3999 C   0  0  0  0  0  0  0  0  0  0  0  0
    7.2394   52.7121   87.5820 C   0  0  0  0  0  0  0  0  0  0  0  0
    6.5194   52.2254   86.4513 O   0  0  0  0  0  0  0  0  0  0  0  0
    8.4694   53.4546   87.0903 C   0  0  0  0  0  0  0  0  0  0  0  0
    9.4807   52.3256   86.8189 C   0  0  0  0  0  0  0  0  0  0  0  0
    7.1071   51.6823   85.9032 H   0  0  0  0  0  0  0  0  0  0  0  0
   10.8960   52.7992   87.1817 C   0  0  0  0  0  0  0  0  0  0  0  0
   11.8113   52.8066   86.3615 O   0  0  0  0  0  0  0  0  0  0  0  0
   11.0396   53.2727   88.4691 N   0  0  0  0  0  0  0  0  0  0  0  0
   10.2663   53.2246   89.0765 H   0  0  0  0  0  0  0  0  0  0  0  0
   12.2728   53.8358   88.9663 C   0  0  0  0  0  0  0  0  0  0  0  0
   12.1731   54.0935   90.4459 C   0  0  0  0  0  0  0  0  0  0  0  0
   13.2816   54.5384   91.1752 C   0  0  0  0  0  0  0  0  0  0  0  0
   13.1745   54.7759   92.5490 C   0  0  0  0  0  0  0  0  0  0  0  0
   11.9616   54.5686   93.2225 C   0  0  0  0  0  0  0  0  0  0  0  0
   10.8549   54.1225   92.4898 C   0  0  0  0  0  0  0  0  0  0  0  0
   10.9584   53.8898   91.1155 C   0  0  0  0  0  0  0  0  0  0  0  0
   11.8418   54.8297   94.6580 C   0  0  0  0  0  0  0  0  0  0  0  0
   12.0052   53.5400   95.7919 S   0  0  0  0  0  0  0  0  0  0  0  0
   11.7312   54.6400   97.0505 C   0  0  0  0  0  0  0  0  0  0  0  0
   11.7550   54.1027   98.6817 Cl  0  0  0  0  0  0  0  0  0  0  0  0
   11.5139   55.8894   96.7258 N   0  0  0  0  0  0  0  0  0  0  0  0
   11.5825   56.0140   95.3440 C   0  0  0  0  0  0  0  0  0  0  0  0
   11.3910   57.3699   94.7593 C   0  0  0  0  0  0  0  0  0  0  0  0
   10.5566   49.3091   86.7300 C   0  0  0  0  0  0  0  0  0  0  0  0
   12.4697   48.6283   88.1564 C   0  0  0  0  0  0  0  0  0  0  0  0
   12.6281   49.7839   88.5429 O   0  0  0  0  0  0  0  0  0  0  0  0
   11.4595   48.2908   87.2719 N   0  0  0  0  0  0  0  0  0  0  0  0
   11.3461   47.3507   87.0026 H   0  0  0  0  0  0  0  0  0  0  0  0
   13.3493   47.4444   88.6518 C   0  0  0  0  0  0  0  0  0  0  0  0
   11.4811   44.5629   90.3058 C   0  0  0  0  0  0  0  0  0  0  0  0
   12.2177   45.8720   90.2232 C   0  0  0  0  0  0  0  0  0  0  0  0
   12.5492   46.5036   91.2203 O   0  0  0  0  0  0  0  0  0  0  0  0
   12.5154   46.2653   88.9364 N   0  0  0  0  0  0  0  0  0  0  0  0
   12.1589   45.7408   88.1833 H   0  0  0  0  0  0  0  0  0  0  0  0
   14.5311   47.0840   87.6870 C   0  0  0  0  0  0  0  0  0  0  0  0
   14.8042   45.5612   87.7207 C   0  0  0  0  0  0  0  0  0  0  0  0
   14.2145   47.4853   86.2332 C   0  0  0  0  0  0  0  0  0  0  0  0
   15.8377   47.7809   88.1227 C   0  0  0  0  0  0  0  0  0  0  0  0
   10.0170   48.9130   85.3069 C   0  0  0  0  0  0  0  0  0  0  0  0
    8.4755   48.7787   85.3513 C   0  0  0  0  0  0  0  0  0  0  0  0
   10.5725   47.5438   84.8593 C   0  0  0  0  0  0  0  0  0  0  0  0
   10.3794   49.9452   84.2338 C   0  0  0  0  0  0  0  0  0  0  0  0
 34 35  1  0
 35 36  2  0
 35 37  1  0
 33 37  1  0
 33 29  1  0
 29 30  2  0
 29 31  1  0
 28 31  1  0
 28  1  1  0
  1  2  2  0
  1  3  1  0
  3  4  1  0
  4  5  1  0
  5  6  1  0
  5  7  1  0
  7  8  1  0
  8 10  1  0
 10 11  2  0
 10 12  1  0
 12 14  1  0
 14 15  1  0
 15 16  2  0
 16 17  1  0
 17 18  2  0
 18 21  1  0
 21 22  1  0
 22 23  1  0
 23 24  1  0
 23 25  2  0
 25 26  1  0
 26 27  1  0
 18 19  1  0
 19 20  2  0
 28 43  1  0
 43 44  1  0
 43 45  1  0
 43 46  1  0
 33 39  1  0
 39 40  1  0
 39 41  1  0
 39 42  1  0
  8  3  1  0
 20 15  1  0
 26 21  2  0
 37 38  1  0
 31 32  1  0
  6  9  1  0
 12 13  1  0
M  END
> <minimizedAffinity>
-6.61560

> <CNNscore>
0.1866888553

> <CNNaffinity>
5.2285075188

> <CNN_VS>
0.9761040807

> <CNNaffinity_variance>
1.1905794144

$$$$



 46 48  0  0  0  0  0  0  0  0999 V2000
    7.4723   50.1060   88.6127 C   0  0  0  0  0  0  0  0  0  0  0  0
    6.8229   49.6703   87.6494 O   0  0  0  0  0  0  0  0  0  0  0  0
    8.7535   49.6228   88.8002 N   0  0  0  0  0  0  0  0  0  0  0  0
    9.1208   48.3621   88.1588 C   0  0  0  0  0  0  0  0  0  0  0  0
   10.1137   47.7126   89.1217 C   0  0  0  0  0  0  0  0  0  0  0  0
    9.4461   47.0384   90.1863 O   0  0  0  0  0  0  0  0  0  0  0  0
   10.8563   48.9067   89.6948 C   0  0  0  0  0  0  0  0  0  0  0  0
    9.7616   49.9835   89.8107 C   0  0  0  0  0  0  0  0  0  0  0  0
    8.8718   47.6637   90.6553 H   0  0  0  0  0  0  0  0  0  0  0  0
   10.3579   51.3644   89.5002 C   0  0  0  0  0  0  0  0  0  0  0  0
   10.7033   52.1401   90.3888 O   0  0  0  0  0  0  0  0  0  0  0  0
   10.5343   51.6346   88.1593 N   0  0  0  0  0  0  0  0  0  0  0  0
   10.2223   50.9721   87.5014 H   0  0  0  0  0  0  0  0  0  0  0  0
   11.1558   52.8453   87.6768 C   0  0  0  0  0  0  0  0  0  0  0  0
   11.7356   52.6270   86.3051 C   0  0  0  0  0  0  0  0  0  0  0  0
   12.5719   53.5825   85.7167 C   0  0  0  0  0  0  0  0  0  0  0  0
   13.1054   53.3660   84.4425 C   0  0  0  0  0  0  0  0  0  0  0  0
   12.8103   52.1952   83.7285 C   0  0  0  0  0  0  0  0  0  0  0  0
   11.9723   51.2418   84.3198 C   0  0  0  0  0  0  0  0  0  0  0  0
   11.4425   51.4539   85.5957 C   0  0  0  0  0  0  0  0  0  0  0  0
   13.3781   51.9584   82.4001 C   0  0  0  0  0  0  0  0  0  0  0  0
   15.0227   52.3639   82.0737 S   0  0  0  0  0  0  0  0  0  0  0  0
   14.8169   51.8267   80.4805 C   0  0  0  0  0  0  0  0  0  0  0  0
   16.1351   51.8746   79.3805 Cl  0  0  0  0  0  0  0  0  0  0  0  0
   13.6351   51.3775   80.1412 N   0  0  0  0  0  0  0  0  0  0  0  0
   12.7949   51.4415   81.2455 C   0  0  0  0  0  0  0  0  0  0  0  0
   11.3990   50.9488   81.0848 C   0  0  0  0  0  0  0  0  0  0  0  0
    6.8250   51.2269   89.5024 C   0  0  0  0  0  0  0  0  0  0  0  0
    6.6756   53.4136   88.3386 C   0  0  0  0  0  0  0  0  0  0  0  0
    7.8849   53.5930   88.4624 O   0  0  0  0  0  0  0  0  0  0  0  0
    6.0608   52.2645   88.8057 N   0  0  0  0  0  0  0  0  0  0  0  0
    5.0938   52.1425   88.6674 H   0  0  0  0  0  0  0  0  0  0  0  0
    5.7415   54.4265   87.6161 C   0  0  0  0  0  0  0  0  0  0  0  0
    3.5574   52.7033   85.0105 C   0  0  0  0  0  0  0  0  0  0  0  0
    4.8169   53.2651   85.6114 C   0  0  0  0  0  0  0  0  0  0  0  0
    5.8677   53.3399   84.9844 O   0  0  0  0  0  0  0  0  0  0  0  0
    4.6650   53.7189   86.9038 N   0  0  0  0  0  0  0  0  0  0  0  0
    3.8092   53.5650   87.3654 H   0  0  0  0  0  0  0  0  0  0  0  0
    5.1634   55.5397   88.5563 C   0  0  0  0  0  0  0  0  0  0  0  0
    6.0318   56.8176   88.4697 C   0  0  0  0  0  0  0  0  0  0  0  0
    3.7188   55.9109   88.1686 C   0  0  0  0  0  0  0  0  0  0  0  0
    5.1823   55.0871   90.0319 C   0  0  0  0  0  0  0  0  0  0  0  0
    6.0762   50.7132   90.7863 C   0  0  0  0  0  0  0  0  0  0  0  0
    5.8845   49.1795   90.7009 C   0  0  0  0  0  0  0  0  0  0  0  0
    4.6673   51.3345   90.8981 C   0  0  0  0  0  0  0  0  0  0  0  0
    6.8384   51.0318   92.0770 C   0  0  0  0  0  0  0  0  0  0  0  0
 34 35  1  0
 35 36  2  0
 35 37  1  0
 33 37  1  0
 33 29  1  0
 29 30  2  0
 29 31  1  0
 28 31  1  0
 28  1  1  0
  1  2  2  0
  1  3  1  0
  3  4  1  0
  4  5  1  0
  5  6  1  0
  5  7  1  0
  7  8  1  0
  8 10  1  0
 10 11  2  0
 10 12  1  0
 12 14  1  0
 14 15  1  0
 15 16  2  0
 16 17  1  0
 17 18  2  0
 18 21  1  0
 21 22  1  0
 22 23  1  0
 23 24  1  0
 23 25  2  0
 25 26  1  0
 26 27  1  0
 18 19  1  0
 19 20  2  0
 28 43  1  0
 43 44  1  0
 43 45  1  0
 43 46  1  0
 33 39  1  0
 39 40  1  0
 39 41  1  0
 39 42  1  0
  8  3  1  0
 20 15  1  0
 26 21  2  0
 37 38  1  0
 31 32  1  0
  6  9  1  0
 12 13  1  0
M  END
> <minimizedAffinity>
-6.47422

> <CNNscore>
0.1848713607

> <CNNaffinity>
5.9126706123

> <CNN_VS>
1.0930835009

> <CNNaffinity_variance>
0.7119364738

$$$$



 46 48  0  0  0  0  0  0  0  0999 V2000
    8.8268   51.1809   91.1003 C   0  0  0  0  0  0  0  0  0  0  0  0
    8.9341   50.6314   92.2075 O   0  0  0  0  0  0  0  0  0  0  0  0
    9.9679   51.7113   90.5286 N   0  0  0  0  0  0  0  0  0  0  0  0
   11.1140   51.9861   91.3926 C   0  0  0  0  0  0  0  0  0  0  0  0
   11.7812   53.2129   90.7724 C   0  0  0  0  0  0  0  0  0  0  0  0
   11.1283   54.4184   91.1647 O   0  0  0  0  0  0  0  0  0  0  0  0
   11.5565   53.0020   89.2855 C   0  0  0  0  0  0  0  0  0  0  0  0
   10.1542   52.3688   89.2246 C   0  0  0  0  0  0  0  0  0  0  0  0
   10.1917   54.3745   90.9163 H   0  0  0  0  0  0  0  0  0  0  0  0
   10.1022   51.3324   88.0922 C   0  0  0  0  0  0  0  0  0  0  0  0
   10.5439   50.1938   88.2298 O   0  0  0  0  0  0  0  0  0  0  0  0
    9.4674   51.7562   86.9435 N   0  0  0  0  0  0  0  0  0  0  0  0
    9.1491   52.6867   86.8984 H   0  0  0  0  0  0  0  0  0  0  0  0
    9.2485   50.8968   85.8039 C   0  0  0  0  0  0  0  0  0  0  0  0
   10.3628   51.0559   84.8047 C   0  0  0  0  0  0  0  0  0  0  0  0
   10.3921   52.1454   83.9269 C   0  0  0  0  0  0  0  0  0  0  0  0
   11.4345   52.2822   83.0049 C   0  0  0  0  0  0  0  0  0  0  0  0
   12.4640   51.3318   82.9369 C   0  0  0  0  0  0  0  0  0  0  0  0
   12.4307   50.2424   83.8159 C   0  0  0  0  0  0  0  0  0  0  0  0
   11.3927   50.1069   84.7421 C   0  0  0  0  0  0  0  0  0  0  0  0
   13.5643   51.4788   81.9826 C   0  0  0  0  0  0  0  0  0  0  0  0
   13.5675   50.5734   80.5143 S   0  0  0  0  0  0  0  0  0  0  0  0
   15.0481   51.2858   80.1028 C   0  0  0  0  0  0  0  0  0  0  0  0
   15.8058   50.8933   78.6122 Cl  0  0  0  0  0  0  0  0  0  0  0  0
   15.5683   52.1346   80.9528 N   0  0  0  0  0  0  0  0  0  0  0  0
   14.7155   52.2609   82.0421 C   0  0  0  0  0  0  0  0  0  0  0  0
   15.1065   53.2070   83.1233 C   0  0  0  0  0  0  0  0  0  0  0  0
    7.4238   51.1680   90.3943 C   0  0  0  0  0  0  0  0  0  0  0  0
    5.8982   52.9567   89.5998 C   0  0  0  0  0  0  0  0  0  0  0  0
    5.0474   52.6359   90.4263 O   0  0  0  0  0  0  0  0  0  0  0  0
    7.1146   52.3006   89.5183 N   0  0  0  0  0  0  0  0  0  0  0  0
    7.7829   52.6002   88.8605 H   0  0  0  0  0  0  0  0  0  0  0  0
    5.7092   54.1424   88.6104 C   0  0  0  0  0  0  0  0  0  0  0  0
    4.4254   53.3003   85.1216 C   0  0  0  0  0  0  0  0  0  0  0  0
    5.4414   53.5874   86.1933 C   0  0  0  0  0  0  0  0  0  0  0  0
    6.6353   53.7202   85.9484 O   0  0  0  0  0  0  0  0  0  0  0  0
    4.9005   53.7255   87.4532 N   0  0  0  0  0  0  0  0  0  0  0  0
    3.9426   53.5394   87.5836 H   0  0  0  0  0  0  0  0  0  0  0  0
    5.1246   55.4366   89.2743 C   0  0  0  0  0  0  0  0  0  0  0  0
    3.6193   55.5747   88.9434 C   0  0  0  0  0  0  0  0  0  0  0  0
    5.2806   55.4037   90.8071 C   0  0  0  0  0  0  0  0  0  0  0  0
    5.8187   56.7035   88.7302 C   0  0  0  0  0  0  0  0  0  0  0  0
    7.0155   49.7967   89.7418 C   0  0  0  0  0  0  0  0  0  0  0  0
    6.6993   50.0057   88.2409 C   0  0  0  0  0  0  0  0  0  0  0  0
    5.7372   49.2261   90.3929 C   0  0  0  0  0  0  0  0  0  0  0  0
    8.1190   48.7397   89.8584 C   0  0  0  0  0  0  0  0  0  0  0  0
 34 35  1  0
 35 36  2  0
 35 37  1  0
 33 37  1  0
 33 29  1  0
 29 30  2  0
 29 31  1  0
 28 31  1  0
 28  1  1  0
  1  2  2  0
  1  3  1  0
  3  4  1  0
  4  5  1  0
  5  6  1  0
  5  7  1  0
  7  8  1  0
  8 10  1  0
 10 11  2  0
 10 12  1  0
 12 14  1  0
 14 15  1  0
 15 16  2  0
 16 17  1  0
 17 18  2  0
 18 21  1  0
 21 22  1  0
 22 23  1  0
 23 24  1  0
 23 25  2  0
 25 26  1  0
 26 27  1  0
 18 19  1  0
 19 20  2  0
 28 43  1  0
 43 44  1  0
 43 45  1  0
 43 46  1  0
 33 39  1  0
 39 40  1  0
 39 41  1  0
 39 42  1  0
  8  3  1  0
 20 15  1  0
 26 21  2  0
 37 38  1  0
 31 32  1  0
  6  9  1  0
 12 13  1  0
M  END
> <minimizedAffinity>
-6.38769

> <CNNscore>
0.1833390445

> <CNNaffinity>
6.0412368774

> <CNN_VS>
1.1075946093

> <CNNaffinity_variance>
0.5459704399

$$$$



 46 48  0  0  0  0  0  0  0  0999 V2000
    9.7018   52.9953   85.5033 C   0  0  0  0  0  0  0  0  0  0  0  0
   10.5521   53.8895   85.3733 O   0  0  0  0  0  0  0  0  0  0  0  0
    9.7664   51.9124   84.6469 N   0  0  0  0  0  0  0  0  0  0  0  0
   10.5169   52.0562   83.4013 C   0  0  0  0  0  0  0  0  0  0  0  0
    9.7752   51.1738   82.3982 C   0  0  0  0  0  0  0  0  0  0  0  0
    8.6391   51.8416   81.8534 O   0  0  0  0  0  0  0  0  0  0  0  0
    9.2922   50.0196   83.2587 C   0  0  0  0  0  0  0  0  0  0  0  0
    8.9368   50.6973   84.5949 C   0  0  0  0  0  0  0  0  0  0  0  0
    8.0487   52.1147   82.5729 H   0  0  0  0  0  0  0  0  0  0  0  0
    9.2883   49.7610   85.7606 C   0  0  0  0  0  0  0  0  0  0  0  0
    9.2001   50.1185   86.9332 O   0  0  0  0  0  0  0  0  0  0  0  0
    9.6432   48.4802   85.3923 N   0  0  0  0  0  0  0  0  0  0  0  0
    9.7057   48.2673   84.4332 H   0  0  0  0  0  0  0  0  0  0  0  0
    9.9272   47.4374   86.3498 C   0  0  0  0  0  0  0  0  0  0  0  0
   11.3088   46.8830   86.1278 C   0  0  0  0  0  0  0  0  0  0  0  0
   12.4099   47.7336   85.9774 C   0  0  0  0  0  0  0  0  0  0  0  0
   13.6885   47.2051   85.7738 C   0  0  0  0  0  0  0  0  0  0  0  0
   13.8920   45.8186   85.7104 C   0  0  0  0  0  0  0  0  0  0  0  0
   12.7878   44.9707   85.8602 C   0  0  0  0  0  0  0  0  0  0  0  0
   11.5099   45.4969   86.0694 C   0  0  0  0  0  0  0  0  0  0  0  0
   15.2310   45.2612   85.5115 C   0  0  0  0  0  0  0  0  0  0  0  0
   16.4889   45.5980   86.6428 S   0  0  0  0  0  0  0  0  0  0  0  0
   17.5514   44.6696   85.7057 C   0  0  0  0  0  0  0  0  0  0  0  0
   19.1800   44.4582   86.2086 Cl  0  0  0  0  0  0  0  0  0  0  0  0
   17.0786   44.1289   84.6113 N   0  0  0  0  0  0  0  0  0  0  0  0
   15.7343   44.4577   84.4910 C   0  0  0  0  0  0  0  0  0  0  0  0
   14.9898   43.9168   83.3204 C   0  0  0  0  0  0  0  0  0  0  0  0
    8.6634   53.1186   86.6752 C   0  0  0  0  0  0  0  0  0  0  0  0
    6.2129   52.8453   86.3957 C   0  0  0  0  0  0  0  0  0  0  0  0
    6.0649   54.0582   86.2651 O   0  0  0  0  0  0  0  0  0  0  0  0
    7.4636   52.2830   86.5855 N   0  0  0  0  0  0  0  0  0  0  0  0
    7.5481   51.3051   86.6616 H   0  0  0  0  0  0  0  0  0  0  0  0
    5.0303   51.8373   86.3168 C   0  0  0  0  0  0  0  0  0  0  0  0
    5.2660   50.4353   89.8534 C   0  0  0  0  0  0  0  0  0  0  0  0
    5.1805   51.4879   88.7821 C   0  0  0  0  0  0  0  0  0  0  0  0
    5.2976   52.6839   89.0250 O   0  0  0  0  0  0  0  0  0  0  0  0
    5.0014   50.9805   87.5134 N   0  0  0  0  0  0  0  0  0  0  0  0
    4.8493   50.0140   87.4039 H   0  0  0  0  0  0  0  0  0  0  0  0
    3.6369   52.5110   86.0677 C   0  0  0  0  0  0  0  0  0  0  0  0
    2.4959   51.5334   86.4377 C   0  0  0  0  0  0  0  0  0  0  0  0
    3.4698   53.7893   86.9121 C   0  0  0  0  0  0  0  0  0  0  0  0
    3.4507   52.8703   84.5782 C   0  0  0  0  0  0  0  0  0  0  0  0
    9.2810   53.1001   88.1214 C   0  0  0  0  0  0  0  0  0  0  0  0
    9.1196   54.4933   88.7764 C   0  0  0  0  0  0  0  0  0  0  0  0
   10.7946   52.7983   88.0792 C   0  0  0  0  0  0  0  0  0  0  0  0
    8.6158   52.0609   89.0303 C   0  0  0  0  0  0  0  0  0  0  0  0
 34 35  1  0
 35 36  2  0
 35 37  1  0
 33 37  1  0
 33 29  1  0
 29 30  2  0
 29 31  1  0
 28 31  1  0
 28  1  1  0
  1  2  2  0
  1  3  1  0
  3  4  1  0
  4  5  1  0
  5  6  1  0
  5  7  1  0
  7  8  1  0
  8 10  1  0
 10 11  2  0
 10 12  1  0
 12 14  1  0
 14 15  1  0
 15 16  2  0
 16 17  1  0
 17 18  2  0
 18 21  1  0
 21 22  1  0
 22 23  1  0
 23 24  1  0
 23 25  2  0
 25 26  1  0
 26 27  1  0
 18 19  1  0
 19 20  2  0
 28 43  1  0
 43 44  1  0
 43 45  1  0
 43 46  1  0
 33 39  1  0
 39 40  1  0
 39 41  1  0
 39 42  1  0
  8  3  1  0
 20 15  1  0
 26 21  2  0
 37 38  1  0
 31 32  1  0
  6  9  1  0
 12 13  1  0
M  END
> <minimizedAffinity>
-5.94443

> <CNNscore>
0.1810244322

> <CNNaffinity>
5.3068871498

> <CNN_VS>
0.9606762528

> <CNNaffinity_variance>
0.4440380335

$$$$
