


 19 19  0  0  0  0  0  0  0  0999 V2000
   52.8738    9.9565   31.2025 C   0  0  0  0  0  0  0  0  0  0  0  0
   51.7934   10.3955   32.0201 O   0  0  0  0  0  0  0  0  0  0  0  0
   52.7587    8.4448   31.2434 C   0  0  0  0  0  0  0  0  0  0  0  0
   53.5522    7.6372   31.9652 C   0  0  0  0  0  0  0  0  0  0  0  0
   54.6250    8.1320   32.8841 C   0  0  0  0  0  0  0  0  0  0  0  0
   55.8640    7.7696   32.2835 O   0  0  0  0  0  0  0  0  0  0  0  0
   54.5559    9.6575   33.1114 C   0  0  0  0  0  0  0  0  0  0  0  0
   53.5969    9.9860   34.1234 O   0  0  0  0  0  0  0  0  0  0  0  0
   54.2202   10.4065   31.8143 C   0  0  0  0  0  0  0  0  0  0  0  0
   50.9539   10.1084   31.6280 H   0  0  0  0  0  0  0  0  0  0  0  0
   55.9339    8.1858   31.4101 H   0  0  0  0  0  0  0  0  0  0  0  0
   52.7138    9.7074   33.8347 H   0  0  0  0  0  0  0  0  0  0  0  0
   52.6930   10.4264   29.7328 C   0  0  0  0  0  0  0  0  0  0  0  0
   52.4382   11.9216   29.3327 C   0  0  0  0  0  0  0  0  0  0  0  0
   52.9296   12.8915   30.4241 C   0  0  0  0  0  0  0  0  0  0  0  0
   50.8876   12.0725   29.2934 C   0  0  0  0  0  0  0  0  0  0  0  0
   52.9522   12.2865   27.9086 C   0  0  0  0  0  0  0  0  0  0  0  0
   53.1772   14.6410   27.0322 C   0  0  0  0  0  0  0  0  0  0  0  0
   53.8634   13.5139   27.7915 C   0  0  0  0  0  0  0  0  0  0  0  0
 18 19  1  0
 19 17  1  0
 17 14  1  0
 14 15  1  0
 14 16  1  0
 14 13  1  0
 13  1  1  0
  1  2  1  0
  1  3  1  0
  3  4  2  0
  4  5  1  0
  5  6  1  0
  5  7  1  0
  7  8  1  0
  7  9  1  0
  9  1  1  0
  2 10  1  0
  6 11  1  0
  8 12  1  0
M  END
> <minimizedAffinity>
-4.95084

> <CNNscore>
0.5304971337

> <CNNaffinity>
4.0320305824

> <CNN_VS>
2.1389806271

> <CNNaffinity_variance>
0.3521000147

$$$$



 19 19  0  0  0  0  0  0  0  0999 V2000
   48.3439    5.4312   20.5186 C   0  0  0  0  0  0  0  0  0  0  0  0
   47.9157    4.6960   19.3764 O   0  0  0  0  0  0  0  0  0  0  0  0
   47.0621    6.0473   21.0454 C   0  0  0  0  0  0  0  0  0  0  0  0
   46.7136    7.3349   20.8916 C   0  0  0  0  0  0  0  0  0  0  0  0
   47.5227    8.3272   20.1165 C   0  0  0  0  0  0  0  0  0  0  0  0
   48.0563    9.2397   21.0702 O   0  0  0  0  0  0  0  0  0  0  0  0
   48.6558    7.6648   19.3037 C   0  0  0  0  0  0  0  0  0  0  0  0
   48.1674    7.1541   18.0578 O   0  0  0  0  0  0  0  0  0  0  0  0
   49.3352    6.5395   20.0963 C   0  0  0  0  0  0  0  0  0  0  0  0
   47.2946    4.0037   19.6517 H   0  0  0  0  0  0  0  0  0  0  0  0
   48.6102    8.7578   21.7042 H   0  0  0  0  0  0  0  0  0  0  0  0
   47.5070    6.4643   18.2277 H   0  0  0  0  0  0  0  0  0  0  0  0
   48.9234    4.4881   21.6087 C   0  0  0  0  0  0  0  0  0  0  0  0
   49.8726    3.2815   21.2866 C   0  0  0  0  0  0  0  0  0  0  0  0
   50.1387    3.1586   19.7741 C   0  0  0  0  0  0  0  0  0  0  0  0
   49.0621    2.0107   21.6827 C   0  0  0  0  0  0  0  0  0  0  0  0
   51.1726    3.2594   22.1437 C   0  0  0  0  0  0  0  0  0  0  0  0
   53.5182    4.0604   22.6116 C   0  0  0  0  0  0  0  0  0  0  0  0
   52.3695    4.0568   21.6125 C   0  0  0  0  0  0  0  0  0  0  0  0
 18 19  1  0
 19 17  1  0
 17 14  1  0
 14 15  1  0
 14 16  1  0
 14 13  1  0
 13  1  1  0
  1  2  1  0
  1  3  1  0
  3  4  2  0
  4  5  1  0
  5  6  1  0
  5  7  1  0
  7  8  1  0
  7  9  1  0
  9  1  1  0
  2 10  1  0
  6 11  1  0
  8 12  1  0
M  END
> <minimizedAffinity>
-5.69855

> <CNNscore>
0.4299785495

> <CNNaffinity>
4.7135887146

> <CNN_VS>
2.0267419815

> <CNNaffinity_variance>
0.8033480644

$$$$



 19 19  0  0  0  0  0  0  0  0999 V2000
   52.8403   12.1853   31.4971 C   0  0  0  0  0  0  0  0  0  0  0  0
   51.4288   12.1437   31.6820 O   0  0  0  0  0  0  0  0  0  0  0  0
   53.3071   10.8415   32.0232 C   0  0  0  0  0  0  0  0  0  0  0  0
   53.9083   10.6519   33.2086 C   0  0  0  0  0  0  0  0  0  0  0  0
   54.1417   11.7437   34.2053 C   0  0  0  0  0  0  0  0  0  0  0  0
   55.5484   11.9616   34.2373 O   0  0  0  0  0  0  0  0  0  0  0  0
   53.3972   13.0471   33.8444 C   0  0  0  0  0  0  0  0  0  0  0  0
   52.0332   13.0002   34.2792 O   0  0  0  0  0  0  0  0  0  0  0  0
   53.4528   13.3296   32.3366 C   0  0  0  0  0  0  0  0  0  0  0  0
   51.0543   11.4231   31.1516 H   0  0  0  0  0  0  0  0  0  0  0  0
   55.8551   12.2236   33.3552 H   0  0  0  0  0  0  0  0  0  0  0  0
   51.5723   12.2803   33.8207 H   0  0  0  0  0  0  0  0  0  0  0  0
   53.2069   12.2807   29.9905 C   0  0  0  0  0  0  0  0  0  0  0  0
   52.2330   12.8541   28.9026 C   0  0  0  0  0  0  0  0  0  0  0  0
   51.7076   14.2490   29.2918 C   0  0  0  0  0  0  0  0  0  0  0  0
   50.9946   11.9084   28.9278 C   0  0  0  0  0  0  0  0  0  0  0  0
   52.8038   12.7935   27.4549 C   0  0  0  0  0  0  0  0  0  0  0  0
   51.2139   13.5835   25.6632 C   0  0  0  0  0  0  0  0  0  0  0  0
   52.4272   13.9410   26.5103 C   0  0  0  0  0  0  0  0  0  0  0  0
 18 19  1  0
 19 17  1  0
 17 14  1  0
 14 15  1  0
 14 16  1  0
 14 13  1  0
 13  1  1  0
  1  2  1  0
  1  3  1  0
  3  4  2  0
  4  5  1  0
  5  6  1  0
  5  7  1  0
  7  8  1  0
  7  9  1  0
  9  1  1  0
  2 10  1  0
  6 11  1  0
  8 12  1  0
M  END
> <minimizedAffinity>
-4.62484

> <CNNscore>
0.4165621698

> <CNNaffinity>
3.3401577473

> <CNN_VS>
1.3913834095

> <CNNaffinity_variance>
0.8428036571

$$$$



 19 19  0  0  0  0  0  0  0  0999 V2000
   53.5623    9.9975   31.0665 C   0  0  0  0  0  0  0  0  0  0  0  0
   52.5514    9.0948   30.6286 O   0  0  0  0  0  0  0  0  0  0  0  0
   53.1409   10.3430   32.4819 C   0  0  0  0  0  0  0  0  0  0  0  0
   52.5650   11.4997   32.8469 C   0  0  0  0  0  0  0  0  0  0  0  0
   52.2006   12.5860   31.8840 C   0  0  0  0  0  0  0  0  0  0  0  0
   53.0843   13.6699   32.1513 O   0  0  0  0  0  0  0  0  0  0  0  0
   52.3180   12.1387   30.4110 C   0  0  0  0  0  0  0  0  0  0  0  0
   51.1453   11.4316   29.9909 O   0  0  0  0  0  0  0  0  0  0  0  0
   53.5604   11.2663   30.1837 C   0  0  0  0  0  0  0  0  0  0  0  0
   52.5607    8.3026   31.1883 H   0  0  0  0  0  0  0  0  0  0  0  0
   54.0005   13.3801   32.0194 H   0  0  0  0  0  0  0  0  0  0  0  0
   51.0475   10.6245   30.5199 H   0  0  0  0  0  0  0  0  0  0  0  0
   54.9508    9.3028   31.1198 C   0  0  0  0  0  0  0  0  0  0  0  0
   55.2859    8.1234   32.0983 C   0  0  0  0  0  0  0  0  0  0  0  0
   55.1739    8.5605   33.5712 C   0  0  0  0  0  0  0  0  0  0  0  0
   56.7940    7.8128   31.8579 C   0  0  0  0  0  0  0  0  0  0  0  0
   54.5106    6.8094   31.7859 C   0  0  0  0  0  0  0  0  0  0  0  0
   55.1985    4.8410   30.3665 C   0  0  0  0  0  0  0  0  0  0  0  0
   54.6298    6.2532   30.3621 C   0  0  0  0  0  0  0  0  0  0  0  0
 18 19  1  0
 19 17  1  0
 17 14  1  0
 14 15  1  0
 14 16  1  0
 14 13  1  0
 13  1  1  0
  1  2  1  0
  1  3  1  0
  3  4  2  0
  4  5  1  0
  5  6  1  0
  5  7  1  0
  7  8  1  0
  7  9  1  0
  9  1  1  0
  2 10  1  0
  6 11  1  0
  8 12  1  0
M  END
> <minimizedAffinity>
-4.41340

> <CNNscore>
0.3623205423

> <CNNaffinity>
3.7364938259

> <CNN_VS>
1.3538085222

> <CNNaffinity_variance>
0.7876617312

$$$$



 19 19  0  0  0  0  0  0  0  0999 V2000
   49.0123   14.4496   22.1247 C   0  0  0  0  0  0  0  0  0  0  0  0
   47.6879   14.0726   22.4884 O   0  0  0  0  0  0  0  0  0  0  0  0
   49.8754   13.3840   22.7727 C   0  0  0  0  0  0  0  0  0  0  0  0
   50.6005   13.5622   23.8886 C   0  0  0  0  0  0  0  0  0  0  0  0
   50.6021   14.8300   24.6841 C   0  0  0  0  0  0  0  0  0  0  0  0
   51.8905   15.4099   24.5091 O   0  0  0  0  0  0  0  0  0  0  0  0
   49.4978   15.8126   24.2387 C   0  0  0  0  0  0  0  0  0  0  0  0
   48.2409   15.4854   24.8427 O   0  0  0  0  0  0  0  0  0  0  0  0
   49.3493   15.8395   22.7111 C   0  0  0  0  0  0  0  0  0  0  0  0
   47.4863   13.2000   22.1159 H   0  0  0  0  0  0  0  0  0  0  0  0
   52.0392   15.5892   23.5675 H   0  0  0  0  0  0  0  0  0  0  0  0
   47.9622   14.6031   24.5515 H   0  0  0  0  0  0  0  0  0  0  0  0
   49.2135   14.3802   20.5858 C   0  0  0  0  0  0  0  0  0  0  0  0
   48.2879   15.1264   19.5625 C   0  0  0  0  0  0  0  0  0  0  0  0
   47.8468   16.5023   20.0969 C   0  0  0  0  0  0  0  0  0  0  0  0
   46.9927   14.2635   19.4827 C   0  0  0  0  0  0  0  0  0  0  0  0
   48.8679   15.1845   18.1184 C   0  0  0  0  0  0  0  0  0  0  0  0
   50.9678   13.9606   17.4441 C   0  0  0  0  0  0  0  0  0  0  0  0
   50.3932   15.2628   17.9841 C   0  0  0  0  0  0  0  0  0  0  0  0
 18 19  1  0
 19 17  1  0
 17 14  1  0
 14 15  1  0
 14 16  1  0
 14 13  1  0
 13  1  1  0
  1  2  1  0
  1  3  1  0
  3  4  2  0
  4  5  1  0
  5  6  1  0
  5  7  1  0
  7  8  1  0
  7  9  1  0
  9  1  1  0
  2 10  1  0
  6 11  1  0
  8 12  1  0
M  END
> <minimizedAffinity>
-4.21206

> <CNNscore>
0.3316203058

> <CNNaffinity>
4.1374254227

> <CNN_VS>
1.3720543385

> <CNNaffinity_variance>
0.5364427567

$$$$



 19 19  0  0  0  0  0  0  0  0999 V2000
   48.0010    4.5996   20.8537 C   0  0  0  0  0  0  0  0  0  0  0  0
   47.8990    4.1268   19.5141 O   0  0  0  0  0  0  0  0  0  0  0  0
   46.8694    3.8869   21.5690 C   0  0  0  0  0  0  0  0  0  0  0  0
   45.7065    4.4591   21.9197 C   0  0  0  0  0  0  0  0  0  0  0  0
   45.3444    5.8735   21.5903 C   0  0  0  0  0  0  0  0  0  0  0  0
   45.3414    6.5830   22.8247 O   0  0  0  0  0  0  0  0  0  0  0  0
   46.3278    6.5217   20.5922 C   0  0  0  0  0  0  0  0  0  0  0  0
   46.0016    6.1690   19.2428 O   0  0  0  0  0  0  0  0  0  0  0  0
   47.7804    6.1290   20.8957 C   0  0  0  0  0  0  0  0  0  0  0  0
   48.0389    3.1670   19.4985 H   0  0  0  0  0  0  0  0  0  0  0  0
   46.2222    6.5337   23.2281 H   0  0  0  0  0  0  0  0  0  0  0  0
   46.0838    5.2091   19.1307 H   0  0  0  0  0  0  0  0  0  0  0  0
   49.3453    4.1670   21.5012 C   0  0  0  0  0  0  0  0  0  0  0  0
   50.7269    4.2689   20.7654 C   0  0  0  0  0  0  0  0  0  0  0  0
   51.0171    5.7094   20.3027 C   0  0  0  0  0  0  0  0  0  0  0  0
   50.5568    3.4281   19.4644 C   0  0  0  0  0  0  0  0  0  0  0  0
   51.9065    3.6266   21.5536 C   0  0  0  0  0  0  0  0  0  0  0  0
   53.9693    3.8337   22.9904 C   0  0  0  0  0  0  0  0  0  0  0  0
   52.9572    4.5810   22.1331 C   0  0  0  0  0  0  0  0  0  0  0  0
 18 19  1  0
 19 17  1  0
 17 14  1  0
 14 15  1  0
 14 16  1  0
 14 13  1  0
 13  1  1  0
  1  2  1  0
  1  3  1  0
  3  4  2  0
  4  5  1  0
  5  6  1  0
  5  7  1  0
  7  8  1  0
  7  9  1  0
  9  1  1  0
  2 10  1  0
  6 11  1  0
  8 12  1  0
M  END
> <minimizedAffinity>
-5.53902

> <CNNscore>
0.3207910061

> <CNNaffinity>
4.1124267578

> <CNN_VS>
1.3192294836

> <CNNaffinity_variance>
0.2867805958

$$$$



 19 19  0  0  0  0  0  0  0  0999 V2000
   53.4531   11.3865   30.6577 C   0  0  0  0  0  0  0  0  0  0  0  0
   54.2302   10.2378   30.3337 O   0  0  0  0  0  0  0  0  0  0  0  0
   54.4098   12.2478   31.4598 C   0  0  0  0  0  0  0  0  0  0  0  0
   54.3750   12.3890   32.7946 C   0  0  0  0  0  0  0  0  0  0  0  0
   53.4179   11.6570   33.6824 C   0  0  0  0  0  0  0  0  0  0  0  0
   52.5134   12.6342   34.1865 O   0  0  0  0  0  0  0  0  0  0  0  0
   52.6538   10.5399   32.9396 C   0  0  0  0  0  0  0  0  0  0  0  0
   53.4347    9.3414   32.8652 O   0  0  0  0  0  0  0  0  0  0  0  0
   52.2419   10.9806   31.5281 C   0  0  0  0  0  0  0  0  0  0  0  0
   54.9871   10.5029   29.7880 H   0  0  0  0  0  0  0  0  0  0  0  0
   52.0492   13.0570   33.4472 H   0  0  0  0  0  0  0  0  0  0  0  0
   54.2420    9.5127   32.3555 H   0  0  0  0  0  0  0  0  0  0  0  0
   53.0413   12.1653   29.3781 C   0  0  0  0  0  0  0  0  0  0  0  0
   51.9333   13.2755   29.3657 C   0  0  0  0  0  0  0  0  0  0  0  0
   52.0360   14.1918   30.5999 C   0  0  0  0  0  0  0  0  0  0  0  0
   50.5863   12.5062   29.5153 C   0  0  0  0  0  0  0  0  0  0  0  0
   51.8456   14.0596   28.0230 C   0  0  0  0  0  0  0  0  0  0  0  0
   51.1435   13.5700   25.6503 C   0  0  0  0  0  0  0  0  0  0  0  0
   52.1655   13.2816   26.7412 C   0  0  0  0  0  0  0  0  0  0  0  0
 18 19  1  0
 19 17  1  0
 17 14  1  0
 14 15  1  0
 14 16  1  0
 14 13  1  0
 13  1  1  0
  1  2  1  0
  1  3  1  0
  3  4  2  0
  4  5  1  0
  5  6  1  0
  5  7  1  0
  7  8  1  0
  7  9  1  0
  9  1  1  0
  2 10  1  0
  6 11  1  0
  8 12  1  0
M  END
> <minimizedAffinity>
-4.75020

> <CNNscore>
0.3151278198

> <CNNaffinity>
3.2390372753

> <CNN_VS>
1.0207107067

> <CNNaffinity_variance>
1.1008571386

$$$$



 19 19  0  0  0  0  0  0  0  0999 V2000
   53.0623   11.0522   31.3946 C   0  0  0  0  0  0  0  0  0  0  0  0
   52.1292   11.5333   32.3571 O   0  0  0  0  0  0  0  0  0  0  0  0
   52.4662    9.7295   30.9525 C   0  0  0  0  0  0  0  0  0  0  0  0
   52.9108    8.5234   31.3403 C   0  0  0  0  0  0  0  0  0  0  0  0
   54.0240    8.3246   32.3207 C   0  0  0  0  0  0  0  0  0  0  0  0
   55.1174    7.7913   31.5810 O   0  0  0  0  0  0  0  0  0  0  0  0
   54.4330    9.6339   33.0292 C   0  0  0  0  0  0  0  0  0  0  0  0
   53.5668    9.9153   34.1347 O   0  0  0  0  0  0  0  0  0  0  0  0
   54.4394   10.8225   32.0579 C   0  0  0  0  0  0  0  0  0  0  0  0
   51.2691   11.6741   31.9314 H   0  0  0  0  0  0  0  0  0  0  0  0
   55.3732    8.4173   30.8856 H   0  0  0  0  0  0  0  0  0  0  0  0
   52.6615   10.0450   33.8114 H   0  0  0  0  0  0  0  0  0  0  0  0
   53.1367   11.9969   30.1635 C   0  0  0  0  0  0  0  0  0  0  0  0
   52.1831   13.2262   29.9633 C   0  0  0  0  0  0  0  0  0  0  0  0
   50.7123   12.7867   29.8338 C   0  0  0  0  0  0  0  0  0  0  0  0
   52.5748   13.8222   28.5777 C   0  0  0  0  0  0  0  0  0  0  0  0
   52.3961   14.3621   31.0072 C   0  0  0  0  0  0  0  0  0  0  0  0
   53.6484   16.5514   31.0392 C   0  0  0  0  0  0  0  0  0  0  0  0
   52.4542   15.7974   30.4710 C   0  0  0  0  0  0  0  0  0  0  0  0
 18 19  1  0
 19 17  1  0
 17 14  1  0
 14 15  1  0
 14 16  1  0
 14 13  1  0
 13  1  1  0
  1  2  1  0
  1  3  1  0
  3  4  2  0
  4  5  1  0
  5  6  1  0
  5  7  1  0
  7  8  1  0
  7  9  1  0
  9  1  1  0
  2 10  1  0
  6 11  1  0
  8 12  1  0
M  END
> <minimizedAffinity>
-4.23513

> <CNNscore>
0.3142573237

> <CNNaffinity>
3.5336906910

> <CNN_VS>
1.1104881763

> <CNNaffinity_variance>
0.5025996566

$$$$



 19 19  0  0  0  0  0  0  0  0999 V2000
   49.6415   14.2517   22.4293 C   0  0  0  0  0  0  0  0  0  0  0  0
   48.2994   13.7887   22.5430 O   0  0  0  0  0  0  0  0  0  0  0  0
   50.4180   13.3156   23.3353 C   0  0  0  0  0  0  0  0  0  0  0  0
   50.8736   13.6376   24.5566 C   0  0  0  0  0  0  0  0  0  0  0  0
   50.6170   14.9556   25.2178 C   0  0  0  0  0  0  0  0  0  0  0  0
   51.8696   15.6310   25.2621 O   0  0  0  0  0  0  0  0  0  0  0  0
   49.5679   15.8032   24.4665 C   0  0  0  0  0  0  0  0  0  0  0  0
   48.2368   15.4131   24.8238 O   0  0  0  0  0  0  0  0  0  0  0  0
   49.7478   15.7049   22.9452 C   0  0  0  0  0  0  0  0  0  0  0  0
   48.2432   12.8769   22.2170 H   0  0  0  0  0  0  0  0  0  0  0  0
   52.2033   15.7530   24.3595 H   0  0  0  0  0  0  0  0  0  0  0  0
   48.0888   14.4909   24.5619 H   0  0  0  0  0  0  0  0  0  0  0  0
   50.1712   14.0874   20.9781 C   0  0  0  0  0  0  0  0  0  0  0  0
   49.2650   13.6464   19.7761 C   0  0  0  0  0  0  0  0  0  0  0  0
   49.8057   14.1773   18.4348 C   0  0  0  0  0  0  0  0  0  0  0  0
   47.9049   14.3715   20.0058 C   0  0  0  0  0  0  0  0  0  0  0  0
   48.9522   12.1210   19.7528 C   0  0  0  0  0  0  0  0  0  0  0  0
   47.4548   10.2520   20.5448 C   0  0  0  0  0  0  0  0  0  0  0  0
   47.5147   11.7008   20.0808 C   0  0  0  0  0  0  0  0  0  0  0  0
 18 19  1  0
 19 17  1  0
 17 14  1  0
 14 15  1  0
 14 16  1  0
 14 13  1  0
 13  1  1  0
  1  2  1  0
  1  3  1  0
  3  4  2  0
  4  5  1  0
  5  6  1  0
  5  7  1  0
  7  8  1  0
  7  9  1  0
  9  1  1  0
  2 10  1  0
  6 11  1  0
  8 12  1  0
M  END
> <minimizedAffinity>
-4.57088

> <CNNscore>
0.3123766184

> <CNNaffinity>
4.0921096802

> <CNN_VS>
1.2782794237

> <CNNaffinity_variance>
0.1071447656

$$$$
