


 26 29  0  0  0  0  0  0  0  0999 V2000
   -0.6638    3.0078   22.7554 C   0  0  0  0  0  0  0  0  0  0  0  0
   -1.1053    1.7036   22.9539 C   0  0  0  0  0  0  0  0  0  0  0  0
   -2.0192    1.0930   22.0737 C   0  0  0  0  0  0  0  0  0  0  0  0
   -2.4651    1.8530   20.9858 C   0  0  0  0  0  0  0  0  0  0  0  0
   -2.0434    3.1276   20.8212 N   0  0  0  0  0  0  0  0  0  0  0  0
   -1.1529    3.6983   21.7081 N   0  0  0  0  0  0  0  0  0  0  0  0
   -3.4063    1.3912   19.9491 C   0  0  0  0  0  0  0  0  0  0  0  0
   -4.7350    1.0861   20.2858 C   0  0  0  0  0  0  0  0  0  0  0  0
   -5.6435    0.6374   19.3227 C   0  0  0  0  0  0  0  0  0  0  0  0
   -5.2496    0.4849   17.9873 C   0  0  0  0  0  0  0  0  0  0  0  0
   -6.1463    0.0311   17.0089 C   0  0  0  0  0  0  0  0  0  0  0  0
   -5.7266   -0.1083   15.6909 C   0  0  0  0  0  0  0  0  0  0  0  0
   -6.5929   -0.5438   14.7666 F   0  0  0  0  0  0  0  0  0  0  0  0
   -4.4252    0.1957   15.3169 C   0  0  0  0  0  0  0  0  0  0  0  0
   -3.5229    0.6497   16.2793 C   0  0  0  0  0  0  0  0  0  0  0  0
   -3.9207    0.7994   17.6194 C   0  0  0  0  0  0  0  0  0  0  0  0
   -3.0241    1.2556   18.6022 C   0  0  0  0  0  0  0  0  0  0  0  0
   -2.4773   -0.2773   22.3637 C   0  0  0  0  0  0  0  0  0  0  0  0
   -2.1266   -1.3523   21.5386 C   0  0  0  0  0  0  0  0  0  0  0  0
   -2.5807   -2.6215   21.8606 C   0  0  0  0  0  0  0  0  0  0  0  0
   -3.3583   -2.8912   22.9296 N   0  0  0  0  0  0  0  0  0  0  0  0
   -3.6970   -1.8464   23.7110 C   0  0  0  0  0  0  0  0  0  0  0  0
   -3.2899   -0.5432   23.4732 C   0  0  0  0  0  0  0  0  0  0  0  0
    1.0875    4.6134   23.0400 C   0  0  0  0  0  0  0  0  0  0  0  0
    0.2395    3.5975   23.6681 N   0  0  0  0  0  0  0  0  0  0  0  0
    0.9773    2.6111   24.4581 C   0  0  0  0  0  0  0  0  0  0  0  0
 24 25  1  0
 25 26  1  0
 25  1  1  0
  1  2  2  0
  2  3  1  0
  3 18  1  0
 18 19  2  0
 19 20  1  0
 20 21  2  0
 21 22  1  0
 22 23  2  0
  3  4  2  0
  4  7  1  0
  7  8  2  0
  8  9  1  0
  9 10  2  0
 10 11  1  0
 11 12  2  0
 12 13  1  0
 12 14  1  0
 14 15  2  0
 15 16  1  0
 16 17  2  0
  4  5  1  0
  5  6  2  0
  6  1  1  0
 23 18  1  0
 17  7  1  0
 16 10  1  0
M  END
> <minimizedAffinity>
-10.44431

> <CNNscore>
0.9901429415

> <CNNaffinity>
7.6465725899

> <CNN_VS>
7.5711998940

> <CNNaffinity_variance>
0.0006025876

$$$$



 26 29  0  0  0  0  0  0  0  0999 V2000
   -2.2222    3.5170   23.9126 C   0  0  0  0  0  0  0  0  0  0  0  0
   -2.3379    2.1307   23.9057 C   0  0  0  0  0  0  0  0  0  0  0  0
   -2.7055    1.4277   22.7423 C   0  0  0  0  0  0  0  0  0  0  0  0
   -2.9483    2.1825   21.5885 C   0  0  0  0  0  0  0  0  0  0  0  0
   -2.8539    3.5314   21.6192 N   0  0  0  0  0  0  0  0  0  0  0  0
   -2.4990    4.1895   22.7795 N   0  0  0  0  0  0  0  0  0  0  0  0
   -3.3282    1.6350   20.2732 C   0  0  0  0  0  0  0  0  0  0  0  0
   -2.3595    1.4679   19.2704 C   0  0  0  0  0  0  0  0  0  0  0  0
   -2.6967    0.9599   18.0124 C   0  0  0  0  0  0  0  0  0  0  0  0
   -4.0179    0.5974   17.7207 C   0  0  0  0  0  0  0  0  0  0  0  0
   -4.3750    0.0909   16.4624 C   0  0  0  0  0  0  0  0  0  0  0  0
   -5.6944   -0.2623   16.2030 C   0  0  0  0  0  0  0  0  0  0  0  0
   -6.0221   -0.7437   14.9967 F   0  0  0  0  0  0  0  0  0  0  0  0
   -6.6774   -0.1240   17.1727 C   0  0  0  0  0  0  0  0  0  0  0  0
   -6.3363    0.3770   18.4293 C   0  0  0  0  0  0  0  0  0  0  0  0
   -5.0098    0.7423   18.7182 C   0  0  0  0  0  0  0  0  0  0  0  0
   -4.6485    1.2491   19.9795 C   0  0  0  0  0  0  0  0  0  0  0  0
   -2.8490   -0.0373   22.8131 C   0  0  0  0  0  0  0  0  0  0  0  0
   -2.0573   -0.8853   22.0300 C   0  0  0  0  0  0  0  0  0  0  0  0
   -2.2303   -2.2560   22.1398 C   0  0  0  0  0  0  0  0  0  0  0  0
   -3.1324   -2.8350   22.9589 N   0  0  0  0  0  0  0  0  0  0  0  0
   -3.8954   -2.0076   23.7007 C   0  0  0  0  0  0  0  0  0  0  0  0
   -3.7943   -0.6259   23.6628 C   0  0  0  0  0  0  0  0  0  0  0  0
   -1.6355    3.2760   26.2199 C   0  0  0  0  0  0  0  0  0  0  0  0
   -1.8694    4.1933   25.1020 N   0  0  0  0  0  0  0  0  0  0  0  0
   -2.7733    5.2997   25.4184 C   0  0  0  0  0  0  0  0  0  0  0  0
 24 25  1  0
 25 26  1  0
 25  1  1  0
  1  2  2  0
  2  3  1  0
  3 18  1  0
 18 19  2  0
 19 20  1  0
 20 21  2  0
 21 22  1  0
 22 23  2  0
  3  4  2  0
  4  7  1  0
  7  8  2  0
  8  9  1  0
  9 10  2  0
 10 11  1  0
 11 12  2  0
 12 13  1  0
 12 14  1  0
 14 15  2  0
 15 16  1  0
 16 17  2  0
  4  5  1  0
  5  6  2  0
  6  1  1  0
 23 18  1  0
 17  7  1  0
 16 10  1  0
M  END
> <minimizedAffinity>
-9.91354

> <CNNscore>
0.9730847478

> <CNNaffinity>
7.5384058952

> <CNN_VS>
7.3355078697

> <CNNaffinity_variance>
0.0305979643

$$$$



 26 29  0  0  0  0  0  0  0  0999 V2000
   -1.1388   -0.7784   24.0846 C   0  0  0  0  0  0  0  0  0  0  0  0
   -1.1554    0.5494   23.6700 C   0  0  0  0  0  0  0  0  0  0  0  0
   -1.8515    0.9518   22.5140 C   0  0  0  0  0  0  0  0  0  0  0  0
   -2.5306   -0.0412   21.7979 C   0  0  0  0  0  0  0  0  0  0  0  0
   -2.4845   -1.3310   22.2024 N   0  0  0  0  0  0  0  0  0  0  0  0
   -1.7853   -1.6923   23.3364 N   0  0  0  0  0  0  0  0  0  0  0  0
   -3.3254    0.1788   20.5756 C   0  0  0  0  0  0  0  0  0  0  0  0
   -4.7240    0.2792   20.6502 C   0  0  0  0  0  0  0  0  0  0  0  0
   -5.4999    0.4780   19.5045 C   0  0  0  0  0  0  0  0  0  0  0  0
   -4.8967    0.5880   18.2452 C   0  0  0  0  0  0  0  0  0  0  0  0
   -5.6600    0.7826   17.0846 C   0  0  0  0  0  0  0  0  0  0  0  0
   -5.0326    0.8903   15.8487 C   0  0  0  0  0  0  0  0  0  0  0  0
   -5.7735    1.0748   14.7480 F   0  0  0  0  0  0  0  0  0  0  0  0
   -3.6518    0.8093   15.7362 C   0  0  0  0  0  0  0  0  0  0  0  0
   -2.8799    0.6176   16.8824 C   0  0  0  0  0  0  0  0  0  0  0  0
   -3.4885    0.5050   18.1446 C   0  0  0  0  0  0  0  0  0  0  0  0
   -2.7256    0.3113   19.3102 C   0  0  0  0  0  0  0  0  0  0  0  0
   -1.7957    2.3673   22.1078 C   0  0  0  0  0  0  0  0  0  0  0  0
   -0.8201    2.8316   21.2179 C   0  0  0  0  0  0  0  0  0  0  0  0
   -0.8166    4.1720   20.8656 C   0  0  0  0  0  0  0  0  0  0  0  0
   -1.7007    5.0744   21.3389 N   0  0  0  0  0  0  0  0  0  0  0  0
   -2.6292    4.6170   22.2025 C   0  0  0  0  0  0  0  0  0  0  0  0
   -2.7155    3.2957   22.6117 C   0  0  0  0  0  0  0  0  0  0  0  0
   -1.2816   -1.3567   26.4022 C   0  0  0  0  0  0  0  0  0  0  0  0
   -0.4148   -1.1519   25.2391 N   0  0  0  0  0  0  0  0  0  0  0  0
    0.7338   -0.2830   25.4979 C   0  0  0  0  0  0  0  0  0  0  0  0
 24 25  1  0
 25 26  1  0
 25  1  1  0
  1  2  2  0
  2  3  1  0
  3 18  1  0
 18 19  2  0
 19 20  1  0
 20 21  2  0
 21 22  1  0
 22 23  2  0
  3  4  2  0
  4  7  1  0
  7  8  2  0
  8  9  1  0
  9 10  2  0
 10 11  1  0
 11 12  2  0
 12 13  1  0
 12 14  1  0
 14 15  2  0
 15 16  1  0
 16 17  2  0
  4  5  1  0
  5  6  2  0
  6  1  1  0
 23 18  1  0
 17  7  1  0
 16 10  1  0
M  END
> <minimizedAffinity>
-9.37845

> <CNNscore>
0.9510985017

> <CNNaffinity>
7.0909595490

> <CNN_VS>
6.7442011833

> <CNNaffinity_variance>
0.0095502837

$$$$



 26 29  0  0  0  0  0  0  0  0999 V2000
   -1.9980   -0.0109   24.8008 C   0  0  0  0  0  0  0  0  0  0  0  0
   -1.8793    1.2541   24.2344 C   0  0  0  0  0  0  0  0  0  0  0  0
   -2.2081    1.4914   22.8859 C   0  0  0  0  0  0  0  0  0  0  0  0
   -2.6632    0.3999   22.1366 C   0  0  0  0  0  0  0  0  0  0  0  0
   -2.7502   -0.8279   22.6972 N   0  0  0  0  0  0  0  0  0  0  0  0
   -2.4117   -1.0271   24.0204 N   0  0  0  0  0  0  0  0  0  0  0  0
   -3.0694    0.4456   20.7199 C   0  0  0  0  0  0  0  0  0  0  0  0
   -2.1108    0.6586   19.7161 C   0  0  0  0  0  0  0  0  0  0  0  0
   -2.4725    0.7155   18.3670 C   0  0  0  0  0  0  0  0  0  0  0  0
   -3.8090    0.5550   17.9797 C   0  0  0  0  0  0  0  0  0  0  0  0
   -4.1905    0.6141   16.6313 C   0  0  0  0  0  0  0  0  0  0  0  0
   -5.5247    0.4490   16.2774 C   0  0  0  0  0  0  0  0  0  0  0  0
   -5.8757    0.5089   14.9860 F   0  0  0  0  0  0  0  0  0  0  0  0
   -6.4990    0.2236   17.2396 C   0  0  0  0  0  0  0  0  0  0  0  0
   -6.1337    0.1607   18.5845 C   0  0  0  0  0  0  0  0  0  0  0  0
   -4.7918    0.3247   18.9702 C   0  0  0  0  0  0  0  0  0  0  0  0
   -4.4062    0.2644   20.3214 C   0  0  0  0  0  0  0  0  0  0  0  0
   -2.0216    2.8464   22.3372 C   0  0  0  0  0  0  0  0  0  0  0  0
   -0.8556    3.1986   21.6476 C   0  0  0  0  0  0  0  0  0  0  0  0
   -0.7343    4.4856   21.1478 C   0  0  0  0  0  0  0  0  0  0  0  0
   -1.6782    5.4386   21.2925 N   0  0  0  0  0  0  0  0  0  0  0  0
   -2.7922    5.0900   21.9667 C   0  0  0  0  0  0  0  0  0  0  0  0
   -3.0065    3.8289   22.5001 C   0  0  0  0  0  0  0  0  0  0  0  0
   -1.1961    1.0115   26.8103 C   0  0  0  0  0  0  0  0  0  0  0  0
   -1.6418   -0.2191   26.1523 N   0  0  0  0  0  0  0  0  0  0  0  0
   -0.7362   -1.3539   26.3351 C   0  0  0  0  0  0  0  0  0  0  0  0
 24 25  1  0
 25 26  1  0
 25  1  1  0
  1  2  2  0
  2  3  1  0
  3 18  1  0
 18 19  2  0
 19 20  1  0
 20 21  2  0
 21 22  1  0
 22 23  2  0
  3  4  2  0
  4  7  1  0
  7  8  2  0
  8  9  1  0
  9 10  2  0
 10 11  1  0
 11 12  2  0
 12 13  1  0
 12 14  1  0
 14 15  2  0
 15 16  1  0
 16 17  2  0
  4  5  1  0
  5  6  2  0
  6  1  1  0
 23 18  1  0
 17  7  1  0
 16 10  1  0
M  END
> <minimizedAffinity>
-8.89268

> <CNNscore>
0.8816781640

> <CNNaffinity>
7.0068469048

> <CNN_VS>
6.1777839661

> <CNNaffinity_variance>
0.0396136828

$$$$



 26 29  0  0  0  0  0  0  0  0999 V2000
   -3.8985    0.5160   18.0560 C   0  0  0  0  0  0  0  0  0  0  0  0
   -3.9772   -0.1509   19.2744 C   0  0  0  0  0  0  0  0  0  0  0  0
   -3.2340    0.2698   20.3939 C   0  0  0  0  0  0  0  0  0  0  0  0
   -2.4119    1.3913   20.2317 C   0  0  0  0  0  0  0  0  0  0  0  0
   -2.3297    2.0134   19.0334 N   0  0  0  0  0  0  0  0  0  0  0  0
   -3.0662    1.5694   17.9537 N   0  0  0  0  0  0  0  0  0  0  0  0
   -1.5705    1.9935   21.2821 C   0  0  0  0  0  0  0  0  0  0  0  0
   -1.1540    3.3302   21.1745 C   0  0  0  0  0  0  0  0  0  0  0  0
   -0.3481    3.9206   22.1524 C   0  0  0  0  0  0  0  0  0  0  0  0
    0.0624    3.1898   23.2746 C   0  0  0  0  0  0  0  0  0  0  0  0
    0.8750    3.7646   24.2629 C   0  0  0  0  0  0  0  0  0  0  0  0
    1.2646    3.0146   25.3667 C   0  0  0  0  0  0  0  0  0  0  0  0
    2.0418    3.5755   26.3026 F   0  0  0  0  0  0  0  0  0  0  0  0
    0.8624    1.6947   25.5148 C   0  0  0  0  0  0  0  0  0  0  0  0
    0.0527    1.1106   24.5404 C   0  0  0  0  0  0  0  0  0  0  0  0
   -0.3556    1.8460   23.4140 C   0  0  0  0  0  0  0  0  0  0  0  0
   -1.1716    1.2727   22.4222 C   0  0  0  0  0  0  0  0  0  0  0  0
   -3.3326   -0.5048   21.6437 C   0  0  0  0  0  0  0  0  0  0  0  0
   -4.1067   -0.0555   22.7199 C   0  0  0  0  0  0  0  0  0  0  0  0
   -4.1683   -0.8260   23.8702 C   0  0  0  0  0  0  0  0  0  0  0  0
   -3.5135   -1.9952   24.0260 N   0  0  0  0  0  0  0  0  0  0  0  0
   -2.7638   -2.4125   22.9863 C   0  0  0  0  0  0  0  0  0  0  0  0
   -2.6423   -1.7142   21.7954 C   0  0  0  0  0  0  0  0  0  0  0  0
   -4.1680    0.6194   15.6806 C   0  0  0  0  0  0  0  0  0  0  0  0
   -4.6435    0.0566   16.9466 N   0  0  0  0  0  0  0  0  0  0  0  0
   -6.0889    0.1706   17.1437 C   0  0  0  0  0  0  0  0  0  0  0  0
 24 25  1  0
 25 26  1  0
 25  1  1  0
  1  2  2  0
  2  3  1  0
  3 18  1  0
 18 19  2  0
 19 20  1  0
 20 21  2  0
 21 22  1  0
 22 23  2  0
  3  4  2  0
  4  7  1  0
  7  8  2  0
  8  9  1  0
  9 10  2  0
 10 11  1  0
 11 12  2  0
 12 13  1  0
 12 14  1  0
 14 15  2  0
 15 16  1  0
 16 17  2  0
  4  5  1  0
  5  6  2  0
  6  1  1  0
 23 18  1  0
 17  7  1  0
 16 10  1  0
M  END
> <minimizedAffinity>
-8.74642

> <CNNscore>
0.4374909699

> <CNNaffinity>
6.7325844765

> <CNN_VS>
2.9454448223

> <CNNaffinity_variance>
0.0579345040

$$$$



 26 29  0  0  0  0  0  0  0  0999 V2000
   -3.2664   -0.0668   19.8732 C   0  0  0  0  0  0  0  0  0  0  0  0
   -3.2674    1.0523   20.6995 C   0  0  0  0  0  0  0  0  0  0  0  0
   -2.9581    0.9566   22.0699 C   0  0  0  0  0  0  0  0  0  0  0  0
   -2.6460   -0.3140   22.5683 C   0  0  0  0  0  0  0  0  0  0  0  0
   -2.6728   -1.3948   21.7554 N   0  0  0  0  0  0  0  0  0  0  0  0
   -2.9884   -1.2664   20.4179 N   0  0  0  0  0  0  0  0  0  0  0  0
   -2.2825   -0.6189   23.9643 C   0  0  0  0  0  0  0  0  0  0  0  0
   -3.1175   -1.4281   24.7517 C   0  0  0  0  0  0  0  0  0  0  0  0
   -2.7993   -1.7235   26.0805 C   0  0  0  0  0  0  0  0  0  0  0  0
   -1.6286   -1.2204   26.6621 C   0  0  0  0  0  0  0  0  0  0  0  0
   -1.2963   -1.5025   27.9953 C   0  0  0  0  0  0  0  0  0  0  0  0
   -0.1262   -0.9905   28.5444 C   0  0  0  0  0  0  0  0  0  0  0  0
    0.1787   -1.2666   29.8192 F   0  0  0  0  0  0  0  0  0  0  0  0
    0.7308   -0.1978   27.7940 C   0  0  0  0  0  0  0  0  0  0  0  0
    0.4137    0.0896   26.4662 C   0  0  0  0  0  0  0  0  0  0  0  0
   -0.7633   -0.4149   25.8860 C   0  0  0  0  0  0  0  0  0  0  0  0
   -1.0983   -0.1348   24.5491 C   0  0  0  0  0  0  0  0  0  0  0  0
   -3.0164    2.1742   22.8980 C   0  0  0  0  0  0  0  0  0  0  0  0
   -3.6139    2.1662   24.1638 C   0  0  0  0  0  0  0  0  0  0  0  0
   -3.6366    3.3386   24.9025 C   0  0  0  0  0  0  0  0  0  0  0  0
   -3.1201    4.5077   24.4706 N   0  0  0  0  0  0  0  0  0  0  0  0
   -2.5561    4.5048   23.2463 C   0  0  0  0  0  0  0  0  0  0  0  0
   -2.4823    3.3835   22.4352 C   0  0  0  0  0  0  0  0  0  0  0  0
   -2.5125    0.6442   17.7163 C   0  0  0  0  0  0  0  0  0  0  0  0
   -3.5997    0.0609   18.5059 N   0  0  0  0  0  0  0  0  0  0  0  0
   -4.8993    0.6987   18.2930 C   0  0  0  0  0  0  0  0  0  0  0  0
 24 25  1  0
 25 26  1  0
 25  1  1  0
  1  2  2  0
  2  3  1  0
  3 18  1  0
 18 19  2  0
 19 20  1  0
 20 21  2  0
 21 22  1  0
 22 23  2  0
  3  4  2  0
  4  7  1  0
  7  8  2  0
  8  9  1  0
  9 10  2  0
 10 11  1  0
 11 12  2  0
 12 13  1  0
 12 14  1  0
 14 15  2  0
 15 16  1  0
 16 17  2  0
  4  5  1  0
  5  6  2  0
  6  1  1  0
 23 18  1  0
 17  7  1  0
 16 10  1  0
M  END
> <minimizedAffinity>
-7.20973

> <CNNscore>
0.3586983681

> <CNNaffinity>
6.2480068207

> <CNN_VS>
2.2411499023

> <CNNaffinity_variance>
0.0235328227

$$$$



 26 29  0  0  0  0  0  0  0  0999 V2000
   -4.4562    0.6182   18.7648 C   0  0  0  0  0  0  0  0  0  0  0  0
   -3.6828    1.6385   19.3088 C   0  0  0  0  0  0  0  0  0  0  0  0
   -3.0803    1.5113   20.5752 C   0  0  0  0  0  0  0  0  0  0  0  0
   -3.2897    0.3116   21.2658 C   0  0  0  0  0  0  0  0  0  0  0  0
   -4.0639   -0.6606   20.7319 N   0  0  0  0  0  0  0  0  0  0  0  0
   -4.6465   -0.4996   19.4910 N   0  0  0  0  0  0  0  0  0  0  0  0
   -2.7355   -0.0195   22.5914 C   0  0  0  0  0  0  0  0  0  0  0  0
   -3.5276   -0.6812   23.5436 C   0  0  0  0  0  0  0  0  0  0  0  0
   -3.0280   -0.9973   24.8104 C   0  0  0  0  0  0  0  0  0  0  0  0
   -1.7138   -0.6640   25.1620 C   0  0  0  0  0  0  0  0  0  0  0  0
   -1.1977   -0.9689   26.4301 C   0  0  0  0  0  0  0  0  0  0  0  0
    0.1115   -0.6273   26.7495 C   0  0  0  0  0  0  0  0  0  0  0  0
    0.5916   -0.9233   27.9645 F   0  0  0  0  0  0  0  0  0  0  0  0
    0.9292    0.0156   25.8307 C   0  0  0  0  0  0  0  0  0  0  0  0
    0.4296    0.3235   24.5650 C   0  0  0  0  0  0  0  0  0  0  0  0
   -0.8907   -0.0101   24.2160 C   0  0  0  0  0  0  0  0  0  0  0  0
   -1.4104    0.2931   22.9447 C   0  0  0  0  0  0  0  0  0  0  0  0
   -2.3065    2.6453   21.1108 C   0  0  0  0  0  0  0  0  0  0  0  0
   -2.8222    3.4670   22.1198 C   0  0  0  0  0  0  0  0  0  0  0  0
   -2.0497    4.5169   22.5907 C   0  0  0  0  0  0  0  0  0  0  0  0
   -0.8170    4.8084   22.1264 N   0  0  0  0  0  0  0  0  0  0  0  0
   -0.3354    4.0158   21.1482 C   0  0  0  0  0  0  0  0  0  0  0  0
   -1.0303    2.9416   20.6154 C   0  0  0  0  0  0  0  0  0  0  0  0
   -6.3416    0.0799   17.3932 C   0  0  0  0  0  0  0  0  0  0  0  0
   -5.0623    0.7854   17.4993 N   0  0  0  0  0  0  0  0  0  0  0  0
   -4.1451    0.5260   16.3890 C   0  0  0  0  0  0  0  0  0  0  0  0
 24 25  1  0
 25 26  1  0
 25  1  1  0
  1  2  2  0
  2  3  1  0
  3 18  1  0
 18 19  2  0
 19 20  1  0
 20 21  2  0
 21 22  1  0
 22 23  2  0
  3  4  2  0
  4  7  1  0
  7  8  2  0
  8  9  1  0
  9 10  2  0
 10 11  1  0
 11 12  2  0
 12 13  1  0
 12 14  1  0
 14 15  2  0
 15 16  1  0
 16 17  2  0
  4  5  1  0
  5  6  2  0
  6  1  1  0
 23 18  1  0
 17  7  1  0
 16 10  1  0
M  END
> <minimizedAffinity>
-7.61487

> <CNNscore>
0.2983382642

> <CNNaffinity>
6.3725829124

> <CNN_VS>
1.9011852741

> <CNNaffinity_variance>
0.0711996853

$$$$



 26 29  0  0  0  0  0  0  0  0999 V2000
   -2.3663    4.8654   27.1456 C   0  0  0  0  0  0  0  0  0  0  0  0
   -1.7681    3.7447   27.7128 C   0  0  0  0  0  0  0  0  0  0  0  0
   -1.7418    2.5057   27.0443 C   0  0  0  0  0  0  0  0  0  0  0  0
   -2.3416    2.4476   25.7806 C   0  0  0  0  0  0  0  0  0  0  0  0
   -2.9392    3.5410   25.2545 N   0  0  0  0  0  0  0  0  0  0  0  0
   -2.9540    4.7384   25.9409 N   0  0  0  0  0  0  0  0  0  0  0  0
   -2.4055    1.2528   24.9190 C   0  0  0  0  0  0  0  0  0  0  0  0
   -2.0749   -0.0103   25.4360 C   0  0  0  0  0  0  0  0  0  0  0  0
   -2.1185   -1.1562   24.6366 C   0  0  0  0  0  0  0  0  0  0  0  0
   -2.5009   -1.0732   23.2917 C   0  0  0  0  0  0  0  0  0  0  0  0
   -2.5453   -2.2118   22.4738 C   0  0  0  0  0  0  0  0  0  0  0  0
   -2.9309   -2.0983   21.1429 C   0  0  0  0  0  0  0  0  0  0  0  0
   -2.9680   -3.1935   20.3724 F   0  0  0  0  0  0  0  0  0  0  0  0
   -3.2775   -0.8694   20.5993 C   0  0  0  0  0  0  0  0  0  0  0  0
   -3.2394    0.2713   21.4016 C   0  0  0  0  0  0  0  0  0  0  0  0
   -2.8528    0.1850   22.7505 C   0  0  0  0  0  0  0  0  0  0  0  0
   -2.8087    1.3248   23.5733 C   0  0  0  0  0  0  0  0  0  0  0  0
   -1.1273    1.3481   27.7180 C   0  0  0  0  0  0  0  0  0  0  0  0
    0.1810    0.9452   27.4255 C   0  0  0  0  0  0  0  0  0  0  0  0
    0.7116   -0.1477   28.0925 C   0  0  0  0  0  0  0  0  0  0  0  0
    0.0356   -0.8652   29.0135 N   0  0  0  0  0  0  0  0  0  0  0  0
   -1.2265   -0.4733   29.2793 C   0  0  0  0  0  0  0  0  0  0  0  0
   -1.8422    0.6071   28.6676 C   0  0  0  0  0  0  0  0  0  0  0  0
   -1.2179    6.9205   27.5743 C   0  0  0  0  0  0  0  0  0  0  0  0
   -2.3918    6.0893   27.8513 N   0  0  0  0  0  0  0  0  0  0  0  0
   -2.6791    5.9202   29.2761 C   0  0  0  0  0  0  0  0  0  0  0  0
 24 25  1  0
 25 26  1  0
 25  1  1  0
  1  2  2  0
  2  3  1  0
  3 18  1  0
 18 19  2  0
 19 20  1  0
 20 21  2  0
 21 22  1  0
 22 23  2  0
  3  4  2  0
  4  7  1  0
  7  8  2  0
  8  9  1  0
  9 10  2  0
 10 11  1  0
 11 12  2  0
 12 13  1  0
 12 14  1  0
 14 15  2  0
 15 16  1  0
 16 17  2  0
  4  5  1  0
  5  6  2  0
  6  1  1  0
 23 18  1  0
 17  7  1  0
 16 10  1  0
M  END
> <minimizedAffinity>
-6.60412

> <CNNscore>
0.1868402660

> <CNNaffinity>
5.4887795448

> <CNN_VS>
1.0255249739

> <CNNaffinity_variance>
0.1384706497

$$$$



 26 29  0  0  0  0  0  0  0  0999 V2000
   -2.4195    5.1565   27.7300 C   0  0  0  0  0  0  0  0  0  0  0  0
   -2.3995    5.5037   26.3830 C   0  0  0  0  0  0  0  0  0  0  0  0
   -2.1929    4.5405   25.3769 C   0  0  0  0  0  0  0  0  0  0  0  0
   -2.0104    3.2147   25.7879 C   0  0  0  0  0  0  0  0  0  0  0  0
   -2.0094    2.8987   27.1031 N   0  0  0  0  0  0  0  0  0  0  0  0
   -2.2067    3.8696   28.0641 N   0  0  0  0  0  0  0  0  0  0  0  0
   -1.7955    2.0638   24.8916 C   0  0  0  0  0  0  0  0  0  0  0  0
   -0.5580    1.4004   24.8772 C   0  0  0  0  0  0  0  0  0  0  0  0
   -0.3268    0.3130   24.0295 C   0  0  0  0  0  0  0  0  0  0  0  0
   -1.3329   -0.1483   23.1712 C   0  0  0  0  0  0  0  0  0  0  0  0
   -1.1169   -1.2346   22.3105 C   0  0  0  0  0  0  0  0  0  0  0  0
   -2.1356   -1.6711   21.4712 C   0  0  0  0  0  0  0  0  0  0  0  0
   -1.9156   -2.7090   20.6534 F   0  0  0  0  0  0  0  0  0  0  0  0
   -3.3763   -1.0494   21.4663 C   0  0  0  0  0  0  0  0  0  0  0  0
   -3.6059    0.0312   22.3183 C   0  0  0  0  0  0  0  0  0  0  0  0
   -2.5931    0.4934   23.1769 C   0  0  0  0  0  0  0  0  0  0  0  0
   -2.8074    1.5815   24.0420 C   0  0  0  0  0  0  0  0  0  0  0  0
   -2.1434    4.9810   23.9714 C   0  0  0  0  0  0  0  0  0  0  0  0
   -3.3019    5.3694   23.2886 C   0  0  0  0  0  0  0  0  0  0  0  0
   -3.1974    5.7799   21.9690 C   0  0  0  0  0  0  0  0  0  0  0  0
   -2.0346    5.8217   21.2862 N   0  0  0  0  0  0  0  0  0  0  0  0
   -0.9276    5.4361   21.9516 C   0  0  0  0  0  0  0  0  0  0  0  0
   -0.9305    5.0135   23.2715 C   0  0  0  0  0  0  0  0  0  0  0  0
   -1.6232    7.2286   28.6234 C   0  0  0  0  0  0  0  0  0  0  0  0
   -2.6106    6.1506   28.7159 N   0  0  0  0  0  0  0  0  0  0  0  0
   -2.7639    5.5970   30.0617 C   0  0  0  0  0  0  0  0  0  0  0  0
 24 25  1  0
 25 26  1  0
 25  1  1  0
  1  2  2  0
  2  3  1  0
  3 18  1  0
 18 19  2  0
 19 20  1  0
 20 21  2  0
 21 22  1  0
 22 23  2  0
  3  4  2  0
  4  7  1  0
  7  8  2  0
  8  9  1  0
  9 10  2  0
 10 11  1  0
 11 12  2  0
 12 13  1  0
 12 14  1  0
 14 15  2  0
 15 16  1  0
 16 17  2  0
  4  5  1  0
  5  6  2  0
  6  1  1  0
 23 18  1  0
 17  7  1  0
 16 10  1  0
M  END
> <minimizedAffinity>
-6.89345

> <CNNscore>
0.1845030338

> <CNNaffinity>
5.3917489052

> <CNN_VS>
0.9947940111

> <CNNaffinity_variance>
0.1481209695

$$$$
