


 31 32  0  0  0  0  0  0  0  0999 V2000
   10.7148   40.8639    1.7773 C   0  0  0  0  0  0  0  0  0  0  0  0
    9.3030   41.0135    2.1495 N   0  0  0  0  0  0  0  0  0  0  0  0
    9.2281   41.6309    2.9580 H   0  0  0  0  0  0  0  0  0  0  0  0
    8.9141   40.0997    2.3823 H   0  0  0  0  0  0  0  0  0  0  0  0
   11.4979   40.2005    2.9352 C   0  0  0  0  0  0  0  0  0  0  0  0
   11.3569   38.6594    3.1832 C   0  0  0  0  0  0  0  0  0  0  0  0
   11.2508   37.9489    1.8069 C   0  0  0  0  0  0  0  0  0  0  0  0
   12.6786   38.1762    3.8146 C   0  0  0  0  0  0  0  0  0  0  0  0
   10.1118   38.2079    4.0198 C   0  0  0  0  0  0  0  0  0  0  0  0
    9.7652   38.7305    5.4739 C   0  0  0  0  0  0  0  0  0  0  0  0
   10.0925   40.2389    5.4521 C   0  0  0  0  0  0  0  0  0  0  0  0
   10.6600   38.0787    6.5379 C   0  0  0  0  0  0  0  0  0  0  0  0
    8.2488   38.4729    5.7849 C   0  0  0  0  0  0  0  0  0  0  0  0
    7.0685   39.8264    7.6577 C   0  0  0  0  0  0  0  0  0  0  0  0
    7.6299   38.4669    7.2225 C   0  0  0  0  0  0  0  0  0  0  0  0
    8.7809   38.1102    8.1997 C   0  0  0  0  0  0  0  0  0  0  0  0
    6.5536   37.3799    7.3952 C   0  0  0  0  0  0  0  0  0  0  0  0
   11.2495   42.2711    1.4132 C   0  0  0  0  0  0  0  0  0  0  0  0
   11.4806   42.6264   -0.0726 C   0  0  0  0  0  0  0  0  0  0  0  0
   12.1242   41.5423   -0.9336 C   0  0  0  0  0  0  0  0  0  0  0  0
   12.8557   42.3403   -1.9885 C   0  0  0  0  0  0  0  0  0  0  0  0
   11.9356   42.7158   -3.0132 O   0  0  0  0  0  0  0  0  0  0  0  0
   12.5225   43.5355   -4.0240 C   0  0  0  0  0  0  0  0  0  0  0  0
   13.5772   44.5081   -3.4890 C   0  0  0  0  0  0  0  0  0  0  0  0
   13.3176   44.8381   -2.0279 C   0  0  0  0  0  0  0  0  0  0  0  0
   13.3316   43.5564   -1.1988 C   0  0  0  0  0  0  0  0  0  0  0  0
   12.4602   43.7052   -0.0619 O   0  0  0  0  0  0  0  0  0  0  0  0
   10.1708   43.1657   -0.6871 C   0  0  0  0  0  0  0  0  0  0  0  0
   10.0593   44.0115   -1.5628 O   0  0  0  0  0  0  0  0  0  0  0  0
    9.0581   42.6331   -0.1383 O   0  0  0  0  0  0  0  0  0  0  0  0
    9.1315   41.9842    0.5336 H   0  0  0  0  0  0  0  0  0  0  0  0
 14 15  1  0
 15 16  1  0
 15 17  1  0
 15 13  1  0
 13 10  1  0
 10 11  1  0
 10 12  1  0
 10  9  1  0
  9  6  1  0
  6  7  1  0
  6  8  1  0
  6  5  1  0
  5  1  1  0
  1  2  1  0
  1 18  1  0
 19 18  1  0
 19 28  1  0
 28 29  2  0
 28 30  1  0
 19 20  1  0
 21 20  1  0
 21 22  1  0
 22 23  1  0
 23 24  1  0
 24 25  1  0
 26 25  1  0
 26 27  1  0
 27 19  1  0
 26 21  1  0
  2  3  1  0
  2  4  1  0
 30 31  1  0
M  END
> <minimizedAffinity>
-3.02422

> <CNNscore>
0.4195035994

> <CNNaffinity>
5.8963966370

> <CNN_VS>
2.4735596180

> <CNNaffinity_variance>
0.2256513089

$$$$



 31 32  0  0  0  0  0  0  0  0999 V2000
    9.5522   50.2271   -2.7887 C   0  0  0  0  0  0  0  0  0  0  0  0
    9.6429   50.7259   -1.4114 N   0  0  0  0  0  0  0  0  0  0  0  0
   10.6237   50.8197   -1.1476 H   0  0  0  0  0  0  0  0  0  0  0  0
    9.1826   50.0694   -0.7810 H   0  0  0  0  0  0  0  0  0  0  0  0
   10.1891   48.8200   -2.8829 C   0  0  0  0  0  0  0  0  0  0  0  0
   11.4810   48.6103   -3.7451 C   0  0  0  0  0  0  0  0  0  0  0  0
   11.3419   49.4436   -5.0476 C   0  0  0  0  0  0  0  0  0  0  0  0
   12.6571   49.2299   -2.9629 C   0  0  0  0  0  0  0  0  0  0  0  0
   11.7840   47.1372   -4.1838 C   0  0  0  0  0  0  0  0  0  0  0  0
   12.1711   45.9634   -3.1938 C   0  0  0  0  0  0  0  0  0  0  0  0
   11.1206   46.0218   -2.0643 C   0  0  0  0  0  0  0  0  0  0  0  0
   13.5489   46.1921   -2.5559 C   0  0  0  0  0  0  0  0  0  0  0  0
   12.1275   44.5906   -3.9528 C   0  0  0  0  0  0  0  0  0  0  0  0
   13.3612   42.5720   -2.8870 C   0  0  0  0  0  0  0  0  0  0  0  0
   12.0084   43.1963   -3.2516 C   0  0  0  0  0  0  0  0  0  0  0  0
   11.3218   42.2459   -4.2676 C   0  0  0  0  0  0  0  0  0  0  0  0
   11.1027   43.2389   -2.0076 C   0  0  0  0  0  0  0  0  0  0  0  0
   10.2439   51.2670   -3.7046 C   0  0  0  0  0  0  0  0  0  0  0  0
   10.9114   52.5053   -3.0658 C   0  0  0  0  0  0  0  0  0  0  0  0
   11.8692   52.2341   -1.9082 C   0  0  0  0  0  0  0  0  0  0  0  0
   11.7643   53.4954   -1.0818 C   0  0  0  0  0  0  0  0  0  0  0  0
   12.6095   54.4972   -1.6475 O   0  0  0  0  0  0  0  0  0  0  0  0
   12.5244   55.7523   -0.9725 C   0  0  0  0  0  0  0  0  0  0  0  0
   11.1197   56.0771   -0.4566 C   0  0  0  0  0  0  0  0  0  0  0  0
   10.0610   55.3692   -1.2867 C   0  0  0  0  0  0  0  0  0  0  0  0
   10.2910   53.8608   -1.2389 C   0  0  0  0  0  0  0  0  0  0  0  0
    9.8215   53.2601   -2.4608 O   0  0  0  0  0  0  0  0  0  0  0  0
   11.5521   53.3763   -4.1680 C   0  0  0  0  0  0  0  0  0  0  0  0
   10.9865   54.1763   -4.8993 O   0  0  0  0  0  0  0  0  0  0  0  0
   12.8777   53.1680   -4.3178 O   0  0  0  0  0  0  0  0  0  0  0  0
   13.3216   52.5572   -3.7630 H   0  0  0  0  0  0  0  0  0  0  0  0
 14 15  1  0
 15 16  1  0
 15 17  1  0
 15 13  1  0
 13 10  1  0
 10 11  1  0
 10 12  1  0
 10  9  1  0
  9  6  1  0
  6  7  1  0
  6  8  1  0
  6  5  1  0
  5  1  1  0
  1  2  1  0
  1 18  1  0
 19 18  1  0
 19 28  1  0
 28 29  2  0
 28 30  1  0
 19 20  1  0
 21 20  1  0
 21 22  1  0
 22 23  1  0
 23 24  1  0
 24 25  1  0
 26 25  1  0
 26 27  1  0
 27 19  1  0
 26 21  1  0
  2  3  1  0
  2  4  1  0
 30 31  1  0
M  END
> <minimizedAffinity>
-2.22864

> <CNNscore>
0.4107058346

> <CNNaffinity>
5.2443242073

> <CNN_VS>
2.1538746357

> <CNNaffinity_variance>
0.4663747549

$$$$



 31 32  0  0  0  0  0  0  0  0999 V2000
    5.8707   40.0325    6.4148 C   0  0  0  0  0  0  0  0  0  0  0  0
    5.3569   38.7528    5.9124 N   0  0  0  0  0  0  0  0  0  0  0  0
    4.8700   38.2635    6.6633 H   0  0  0  0  0  0  0  0  0  0  0  0
    6.1339   38.1808    5.5816 H   0  0  0  0  0  0  0  0  0  0  0  0
    6.9006   39.7812    7.5419 C   0  0  0  0  0  0  0  0  0  0  0  0
    7.8143   38.5090    7.4872 C   0  0  0  0  0  0  0  0  0  0  0  0
    6.9177   37.2534    7.6602 C   0  0  0  0  0  0  0  0  0  0  0  0
    8.3971   38.4268    6.0615 C   0  0  0  0  0  0  0  0  0  0  0  0
    8.9326   38.4172    8.5805 C   0  0  0  0  0  0  0  0  0  0  0  0
   10.4081   37.9050    8.3198 C   0  0  0  0  0  0  0  0  0  0  0  0
   11.3195   38.8803    9.0950 C   0  0  0  0  0  0  0  0  0  0  0  0
   10.7863   38.0004    6.8347 C   0  0  0  0  0  0  0  0  0  0  0  0
   10.5608   36.4330    8.8420 C   0  0  0  0  0  0  0  0  0  0  0  0
   12.0518   36.9886   10.8915 C   0  0  0  0  0  0  0  0  0  0  0  0
   10.9927   36.0517   10.2972 C   0  0  0  0  0  0  0  0  0  0  0  0
   11.6234   34.6365   10.2165 C   0  0  0  0  0  0  0  0  0  0  0  0
    9.7943   35.9450   11.2576 C   0  0  0  0  0  0  0  0  0  0  0  0
    4.6539   40.8689    6.8824 C   0  0  0  0  0  0  0  0  0  0  0  0
    3.7492   41.5371    5.8231 C   0  0  0  0  0  0  0  0  0  0  0  0
    2.2747   41.6842    6.1906 C   0  0  0  0  0  0  0  0  0  0  0  0
    1.5867   41.6428    4.8454 C   0  0  0  0  0  0  0  0  0  0  0  0
    1.6466   42.9384    4.2490 O   0  0  0  0  0  0  0  0  0  0  0  0
    1.0807   42.9819    2.9391 C   0  0  0  0  0  0  0  0  0  0  0  0
    1.3180   41.7062    2.1259 C   0  0  0  0  0  0  0  0  0  0  0  0
    2.5731   40.9895    2.5972 C   0  0  0  0  0  0  0  0  0  0  0  0
    2.4428   40.6397    4.0774 C   0  0  0  0  0  0  0  0  0  0  0  0
    3.7470   40.6232    4.6881 O   0  0  0  0  0  0  0  0  0  0  0  0
    4.3788   42.8722    5.3705 C   0  0  0  0  0  0  0  0  0  0  0  0
    4.5068   43.8910    6.0341 O   0  0  0  0  0  0  0  0  0  0  0  0
    4.7871   42.8672    4.0835 O   0  0  0  0  0  0  0  0  0  0  0  0
    4.6939   42.0920    3.5654 H   0  0  0  0  0  0  0  0  0  0  0  0
 14 15  1  0
 15 16  1  0
 15 17  1  0
 15 13  1  0
 13 10  1  0
 10 11  1  0
 10 12  1  0
 10  9  1  0
  9  6  1  0
  6  7  1  0
  6  8  1  0
  6  5  1  0
  5  1  1  0
  1  2  1  0
  1 18  1  0
 19 18  1  0
 19 28  1  0
 28 29  2  0
 28 30  1  0
 19 20  1  0
 21 20  1  0
 21 22  1  0
 22 23  1  0
 23 24  1  0
 24 25  1  0
 26 25  1  0
 26 27  1  0
 27 19  1  0
 26 21  1  0
  2  3  1  0
  2  4  1  0
 30 31  1  0
M  END
> <minimizedAffinity>
-4.81210

> <CNNscore>
0.3918623626

> <CNNaffinity>
6.2991008759

> <CNN_VS>
2.4683804512

> <CNNaffinity_variance>
0.2503877580

$$$$



 31 32  0  0  0  0  0  0  0  0999 V2000
   10.0644   42.6794   -2.6784 C   0  0  0  0  0  0  0  0  0  0  0  0
   10.3955   44.0993   -2.5102 N   0  0  0  0  0  0  0  0  0  0  0  0
   11.1957   44.1899   -1.8842 H   0  0  0  0  0  0  0  0  0  0  0  0
    9.5950   44.5902   -2.1120 H   0  0  0  0  0  0  0  0  0  0  0  0
    9.6535   42.0689   -1.3173 C   0  0  0  0  0  0  0  0  0  0  0  0
    9.6592   42.9660   -0.0322 C   0  0  0  0  0  0  0  0  0  0  0  0
   10.4423   44.2690   -0.3472 C   0  0  0  0  0  0  0  0  0  0  0  0
    8.2012   43.3949    0.2312 C   0  0  0  0  0  0  0  0  0  0  0  0
   10.3219   42.3397    1.2416 C   0  0  0  0  0  0  0  0  0  0  0  0
   11.5599   41.3526    1.2207 C   0  0  0  0  0  0  0  0  0  0  0  0
   12.6191   42.0102    2.1308 C   0  0  0  0  0  0  0  0  0  0  0  0
   12.1667   41.2354   -0.1849 C   0  0  0  0  0  0  0  0  0  0  0  0
   11.1274   39.9445    1.7619 C   0  0  0  0  0  0  0  0  0  0  0  0
   13.5666   39.0674    1.6470 C   0  0  0  0  0  0  0  0  0  0  0  0
   12.1148   38.7614    2.0360 C   0  0  0  0  0  0  0  0  0  0  0  0
   11.6423   37.5756    1.1541 C   0  0  0  0  0  0  0  0  0  0  0  0
   12.0585   38.2742    3.4952 C   0  0  0  0  0  0  0  0  0  0  0  0
   11.3002   41.9864   -3.3041 C   0  0  0  0  0  0  0  0  0  0  0  0
   11.8743   42.5288   -4.6320 C   0  0  0  0  0  0  0  0  0  0  0  0
   10.8599   43.0818   -5.6301 C   0  0  0  0  0  0  0  0  0  0  0  0
   11.5295   42.8347   -6.9625 C   0  0  0  0  0  0  0  0  0  0  0  0
   12.4660   43.8818   -7.2169 O   0  0  0  0  0  0  0  0  0  0  0  0
   13.2014   43.6975   -8.4266 C   0  0  0  0  0  0  0  0  0  0  0  0
   13.5256   42.2321   -8.7300 C   0  0  0  0  0  0  0  0  0  0  0  0
   13.5776   41.4130   -7.4504 C   0  0  0  0  0  0  0  0  0  0  0  0
   12.2379   41.5042   -6.7243 C   0  0  0  0  0  0  0  0  0  0  0  0
   12.4456   41.3697   -5.3055 O   0  0  0  0  0  0  0  0  0  0  0  0
   13.0131   43.5283   -4.3354 C   0  0  0  0  0  0  0  0  0  0  0  0
   13.4698   44.3733   -5.0917 O   0  0  0  0  0  0  0  0  0  0  0  0
   13.5465   43.3881   -3.1030 O   0  0  0  0  0  0  0  0  0  0  0  0
   13.2045   42.7438   -2.5149 H   0  0  0  0  0  0  0  0  0  0  0  0
 14 15  1  0
 15 16  1  0
 15 17  1  0
 15 13  1  0
 13 10  1  0
 10 11  1  0
 10 12  1  0
 10  9  1  0
  9  6  1  0
  6  7  1  0
  6  8  1  0
  6  5  1  0
  5  1  1  0
  1  2  1  0
  1 18  1  0
 19 18  1  0
 19 28  1  0
 28 29  2  0
 28 30  1  0
 19 20  1  0
 21 20  1  0
 21 22  1  0
 22 23  1  0
 23 24  1  0
 24 25  1  0
 26 25  1  0
 26 27  1  0
 27 19  1  0
 26 21  1  0
  2  3  1  0
  2  4  1  0
 30 31  1  0
M  END
> <minimizedAffinity>
-3.10537

> <CNNscore>
0.3178422749

> <CNNaffinity>
5.5723419189

> <CNN_VS>
1.7711257935

> <CNNaffinity_variance>
0.0197338071

$$$$



 31 32  0  0  0  0  0  0  0  0999 V2000
   10.4403   41.7803    1.5727 C   0  0  0  0  0  0  0  0  0  0  0  0
    9.2164   42.3211    0.9696 N   0  0  0  0  0  0  0  0  0  0  0  0
    8.7284   41.5794    0.4674 H   0  0  0  0  0  0  0  0  0  0  0  0
    9.4592   43.0689    0.3199 H   0  0  0  0  0  0  0  0  0  0  0  0
   11.3938   41.2722    0.4651 C   0  0  0  0  0  0  0  0  0  0  0  0
   12.5550   42.1949   -0.0413 C   0  0  0  0  0  0  0  0  0  0  0  0
   13.2906   42.7802    1.1943 C   0  0  0  0  0  0  0  0  0  0  0  0
   13.5767   41.2898   -0.7597 C   0  0  0  0  0  0  0  0  0  0  0  0
   12.1289   43.4128   -0.9297 C   0  0  0  0  0  0  0  0  0  0  0  0
   11.5737   43.2993   -2.4084 C   0  0  0  0  0  0  0  0  0  0  0  0
   11.2349   44.7459   -2.8272 C   0  0  0  0  0  0  0  0  0  0  0  0
   10.2728   42.4854   -2.4637 C   0  0  0  0  0  0  0  0  0  0  0  0
   12.6673   42.6691   -3.3409 C   0  0  0  0  0  0  0  0  0  0  0  0
   12.2755   43.5541   -5.7483 C   0  0  0  0  0  0  0  0  0  0  0  0
   12.4478   42.3219   -4.8512 C   0  0  0  0  0  0  0  0  0  0  0  0
   11.1307   41.5060   -4.9321 C   0  0  0  0  0  0  0  0  0  0  0  0
   13.5599   41.4191   -5.4149 C   0  0  0  0  0  0  0  0  0  0  0  0
   10.0163   40.6679    2.5634 C   0  0  0  0  0  0  0  0  0  0  0  0
   10.9464   39.4520    2.7715 C   0  0  0  0  0  0  0  0  0  0  0  0
   12.4381   39.6990    2.5596 C   0  0  0  0  0  0  0  0  0  0  0  0
   12.9427   38.3471    2.1099 C   0  0  0  0  0  0  0  0  0  0  0  0
   13.1633   37.5249    3.2559 O   0  0  0  0  0  0  0  0  0  0  0  0
   13.5770   36.1989    2.9262 C   0  0  0  0  0  0  0  0  0  0  0  0
   12.9260   35.6522    1.6526 C   0  0  0  0  0  0  0  0  0  0  0  0
   11.5841   36.3209    1.4006 C   0  0  0  0  0  0  0  0  0  0  0  0
   11.7752   37.8301    1.2740 C   0  0  0  0  0  0  0  0  0  0  0  0
   10.5860   38.5083    1.7212 O   0  0  0  0  0  0  0  0  0  0  0  0
   10.6466   38.7967    4.1370 C   0  0  0  0  0  0  0  0  0  0  0  0
   11.4473   38.2664    4.8935 O   0  0  0  0  0  0  0  0  0  0  0  0
    9.3374   38.8120    4.4669 O   0  0  0  0  0  0  0  0  0  0  0  0
    8.7148   39.2156    3.8947 H   0  0  0  0  0  0  0  0  0  0  0  0
 14 15  1  0
 15 16  1  0
 15 17  1  0
 15 13  1  0
 13 10  1  0
 10 11  1  0
 10 12  1  0
 10  9  1  0
  9  6  1  0
  6  7  1  0
  6  8  1  0
  6  5  1  0
  5  1  1  0
  1  2  1  0
  1 18  1  0
 19 18  1  0
 19 28  1  0
 28 29  2  0
 28 30  1  0
 19 20  1  0
 21 20  1  0
 21 22  1  0
 22 23  1  0
 23 24  1  0
 24 25  1  0
 26 25  1  0
 26 27  1  0
 27 19  1  0
 26 21  1  0
  2  3  1  0
  2  4  1  0
 30 31  1  0
M  END
> <minimizedAffinity>
-6.45278

> <CNNscore>
0.2670207024

> <CNNaffinity>
5.7875061035

> <CNN_VS>
1.5453839302

> <CNNaffinity_variance>
0.0825260282

$$$$



 31 32  0  0  0  0  0  0  0  0999 V2000
    5.1544   41.1435    6.1881 C   0  0  0  0  0  0  0  0  0  0  0  0
    4.1236   40.4035    5.4507 N   0  0  0  0  0  0  0  0  0  0  0  0
    3.3299   40.2225    6.0653 H   0  0  0  0  0  0  0  0  0  0  0  0
    4.5094   39.5177    5.1237 H   0  0  0  0  0  0  0  0  0  0  0  0
    5.6739   40.2891    7.3689 C   0  0  0  0  0  0  0  0  0  0  0  0
    6.6085   39.0631    7.0861 C   0  0  0  0  0  0  0  0  0  0  0  0
    6.3564   37.9915    8.1808 C   0  0  0  0  0  0  0  0  0  0  0  0
    6.1462   38.4343    5.7557 C   0  0  0  0  0  0  0  0  0  0  0  0
    8.1475   39.3557    7.0890 C   0  0  0  0  0  0  0  0  0  0  0  0
    9.2697   38.2765    7.3779 C   0  0  0  0  0  0  0  0  0  0  0  0
   10.2137   38.3355    6.1581 C   0  0  0  0  0  0  0  0  0  0  0  0
    8.6869   36.8574    7.4431 C   0  0  0  0  0  0  0  0  0  0  0  0
   10.0218   38.6334    8.7082 C   0  0  0  0  0  0  0  0  0  0  0  0
    9.7727   36.6161   10.3210 C   0  0  0  0  0  0  0  0  0  0  0  0
   10.7362   37.5874    9.6276 C   0  0  0  0  0  0  0  0  0  0  0  0
   11.4568   38.3936   10.7402 C   0  0  0  0  0  0  0  0  0  0  0  0
   11.8260   36.7960    8.8819 C   0  0  0  0  0  0  0  0  0  0  0  0
    4.5266   42.4847    6.6419 C   0  0  0  0  0  0  0  0  0  0  0  0
    3.4508   43.1496    5.7544 C   0  0  0  0  0  0  0  0  0  0  0  0
    2.1706   42.3483    5.5309 C   0  0  0  0  0  0  0  0  0  0  0  0
    1.7078   42.8250    4.1732 C   0  0  0  0  0  0  0  0  0  0  0  0
    1.0019   44.0565    4.3251 O   0  0  0  0  0  0  0  0  0  0  0  0
    0.5837   44.6225    3.0830 C   0  0  0  0  0  0  0  0  0  0  0  0
    1.5778   44.3965    1.9405 C   0  0  0  0  0  0  0  0  0  0  0  0
    2.9886   44.2176    2.4779 C   0  0  0  0  0  0  0  0  0  0  0  0
    3.0288   43.0312    3.4376 C   0  0  0  0  0  0  0  0  0  0  0  0
    4.0506   43.2449    4.4297 O   0  0  0  0  0  0  0  0  0  0  0  0
    3.1687   44.5795    6.2638 C   0  0  0  0  0  0  0  0  0  0  0  0
    2.1820   45.2640    6.0347 O   0  0  0  0  0  0  0  0  0  0  0  0
    4.1679   45.0920    7.0136 O   0  0  0  0  0  0  0  0  0  0  0  0
    4.9289   44.5765    7.1955 H   0  0  0  0  0  0  0  0  0  0  0  0
 14 15  1  0
 15 16  1  0
 15 17  1  0
 15 13  1  0
 13 10  1  0
 10 11  1  0
 10 12  1  0
 10  9  1  0
  9  6  1  0
  6  7  1  0
  6  8  1  0
  6  5  1  0
  5  1  1  0
  1  2  1  0
  1 18  1  0
 19 18  1  0
 19 28  1  0
 28 29  2  0
 28 30  1  0
 19 20  1  0
 21 20  1  0
 21 22  1  0
 22 23  1  0
 23 24  1  0
 24 25  1  0
 26 25  1  0
 26 27  1  0
 27 19  1  0
 26 21  1  0
  2  3  1  0
  2  4  1  0
 30 31  1  0
M  END
> <minimizedAffinity>
-4.60888

> <CNNscore>
0.2324316353

> <CNNaffinity>
5.9588952065

> <CNN_VS>
1.3850357533

> <CNNaffinity_variance>
0.3200199306

$$$$



 31 32  0  0  0  0  0  0  0  0999 V2000
   10.9087   46.2965   -1.5320 C   0  0  0  0  0  0  0  0  0  0  0  0
   10.0002   45.2750   -2.0661 N   0  0  0  0  0  0  0  0  0  0  0  0
   10.1206   45.2079   -3.0768 H   0  0  0  0  0  0  0  0  0  0  0  0
    9.0363   45.5333   -1.8549 H   0  0  0  0  0  0  0  0  0  0  0  0
   10.5561   47.6798   -2.1287 C   0  0  0  0  0  0  0  0  0  0  0  0
   11.3172   48.1926   -3.3993 C   0  0  0  0  0  0  0  0  0  0  0  0
   12.7652   48.5690   -2.9848 C   0  0  0  0  0  0  0  0  0  0  0  0
   11.4446   46.9987   -4.3674 C   0  0  0  0  0  0  0  0  0  0  0  0
   10.7090   49.4526   -4.1041 C   0  0  0  0  0  0  0  0  0  0  0  0
   11.2957   50.9191   -3.9921 C   0  0  0  0  0  0  0  0  0  0  0  0
   10.6677   51.6987   -5.1671 C   0  0  0  0  0  0  0  0  0  0  0  0
   12.8186   50.9360   -4.1876 C   0  0  0  0  0  0  0  0  0  0  0  0
   10.9030   51.5454   -2.6078 C   0  0  0  0  0  0  0  0  0  0  0  0
   12.4376   53.6376   -2.6071 C   0  0  0  0  0  0  0  0  0  0  0  0
   11.0638   53.0594   -2.2451 C   0  0  0  0  0  0  0  0  0  0  0  0
   10.9113   53.1654   -0.7049 C   0  0  0  0  0  0  0  0  0  0  0  0
    9.9538   53.9323   -2.8582 C   0  0  0  0  0  0  0  0  0  0  0  0
   12.3545   45.8472   -1.8587 C   0  0  0  0  0  0  0  0  0  0  0  0
   12.5762   44.5155   -2.6101 C   0  0  0  0  0  0  0  0  0  0  0  0
   13.5776   44.5490   -3.7620 C   0  0  0  0  0  0  0  0  0  0  0  0
   13.0646   43.4680   -4.6856 C   0  0  0  0  0  0  0  0  0  0  0  0
   13.5244   42.1988   -4.2214 O   0  0  0  0  0  0  0  0  0  0  0  0
   13.0311   41.1044   -4.9941 C   0  0  0  0  0  0  0  0  0  0  0  0
   11.6020   41.3089   -5.5045 C   0  0  0  0  0  0  0  0  0  0  0  0
   10.8335   42.2562   -4.5972 C   0  0  0  0  0  0  0  0  0  0  0  0
   11.5526   43.6010   -4.5272 C   0  0  0  0  0  0  0  0  0  0  0  0
   11.3014   44.2190   -3.2509 O   0  0  0  0  0  0  0  0  0  0  0  0
   12.8830   43.3922   -1.5961 C   0  0  0  0  0  0  0  0  0  0  0  0
   12.5437   42.2198   -1.6676 O   0  0  0  0  0  0  0  0  0  0  0  0
   13.5774   43.8138   -0.5177 O   0  0  0  0  0  0  0  0  0  0  0  0
   13.8426   44.7101   -0.4523 H   0  0  0  0  0  0  0  0  0  0  0  0
 14 15  1  0
 15 16  1  0
 15 17  1  0
 15 13  1  0
 13 10  1  0
 10 11  1  0
 10 12  1  0
 10  9  1  0
  9  6  1  0
  6  7  1  0
  6  8  1  0
  6  5  1  0
  5  1  1  0
  1  2  1  0
  1 18  1  0
 19 18  1  0
 19 28  1  0
 28 29  2  0
 28 30  1  0
 19 20  1  0
 21 20  1  0
 21 22  1  0
 22 23  1  0
 23 24  1  0
 24 25  1  0
 26 25  1  0
 26 27  1  0
 27 19  1  0
 26 21  1  0
  2  3  1  0
  2  4  1  0
 30 31  1  0
M  END
> <minimizedAffinity>
-3.23589

> <CNNscore>
0.2043166310

> <CNNaffinity>
5.3640465736

> <CNN_VS>
1.0959639549

> <CNNaffinity_variance>
0.0341393128

$$$$



 31 32  0  0  0  0  0  0  0  0999 V2000
   10.6437   42.8060   -2.8942 C   0  0  0  0  0  0  0  0  0  0  0  0
   11.0276   44.1768   -2.5368 N   0  0  0  0  0  0  0  0  0  0  0  0
   11.7819   44.1507   -1.8508 H   0  0  0  0  0  0  0  0  0  0  0  0
   10.2233   44.6624   -2.1396 H   0  0  0  0  0  0  0  0  0  0  0  0
   10.1036   42.0674   -1.6464 C   0  0  0  0  0  0  0  0  0  0  0  0
   10.6034   42.4860   -0.2212 C   0  0  0  0  0  0  0  0  0  0  0  0
   11.7313   43.5400   -0.3871 C   0  0  0  0  0  0  0  0  0  0  0  0
    9.4358   43.2135    0.4762 C   0  0  0  0  0  0  0  0  0  0  0  0
   11.1888   41.3368    0.6681 C   0  0  0  0  0  0  0  0  0  0  0  0
   12.7275   41.1365    0.9842 C   0  0  0  0  0  0  0  0  0  0  0  0
   13.1745   42.4442    1.6718 C   0  0  0  0  0  0  0  0  0  0  0  0
   13.5542   40.9840   -0.3008 C   0  0  0  0  0  0  0  0  0  0  0  0
   12.9207   39.8945    1.9237 C   0  0  0  0  0  0  0  0  0  0  0  0
   10.4377   39.4823    2.5538 C   0  0  0  0  0  0  0  0  0  0  0  0
   11.8016   38.8499    2.2495 C   0  0  0  0  0  0  0  0  0  0  0  0
   12.2555   38.0974    3.5280 C   0  0  0  0  0  0  0  0  0  0  0  0
   11.6483   37.7883    1.1453 C   0  0  0  0  0  0  0  0  0  0  0  0
   11.8891   42.1219   -3.5106 C   0  0  0  0  0  0  0  0  0  0  0  0
   12.0624   42.1187   -5.0459 C   0  0  0  0  0  0  0  0  0  0  0  0
   13.1918   41.2509   -5.5958 C   0  0  0  0  0  0  0  0  0  0  0  0
   13.5777   41.9679   -6.8693 C   0  0  0  0  0  0  0  0  0  0  0  0
   12.6769   41.5902   -7.9104 O   0  0  0  0  0  0  0  0  0  0  0  0
   12.9204   42.2725   -9.1405 C   0  0  0  0  0  0  0  0  0  0  0  0
   13.3820   43.7210   -8.9574 C   0  0  0  0  0  0  0  0  0  0  0  0
   12.8801   44.2865   -7.6385 C   0  0  0  0  0  0  0  0  0  0  0  0
   13.3933   43.4325   -6.4820 C   0  0  0  0  0  0  0  0  0  0  0  0
   12.4542   43.4792   -5.3911 O   0  0  0  0  0  0  0  0  0  0  0  0
   10.7068   41.8175   -5.7207 C   0  0  0  0  0  0  0  0  0  0  0  0
   10.0956   40.7588   -5.7103 O   0  0  0  0  0  0  0  0  0  0  0  0
   10.2027   42.8639   -6.4093 O   0  0  0  0  0  0  0  0  0  0  0  0
   10.6626   43.6802   -6.4242 H   0  0  0  0  0  0  0  0  0  0  0  0
 14 15  1  0
 15 16  1  0
 15 17  1  0
 15 13  1  0
 13 10  1  0
 10 11  1  0
 10 12  1  0
 10  9  1  0
  9  6  1  0
  6  7  1  0
  6  8  1  0
  6  5  1  0
  5  1  1  0
  1  2  1  0
  1 18  1  0
 19 18  1  0
 19 28  1  0
 28 29  2  0
 28 30  1  0
 19 20  1  0
 21 20  1  0
 21 22  1  0
 22 23  1  0
 23 24  1  0
 24 25  1  0
 26 25  1  0
 26 27  1  0
 27 19  1  0
 26 21  1  0
  2  3  1  0
  2  4  1  0
 30 31  1  0
M  END
> <minimizedAffinity>
-4.65344

> <CNNscore>
0.1752686948

> <CNNaffinity>
5.3310146332

> <CNN_VS>
0.9343599677

> <CNNaffinity_variance>
0.0390375368

$$$$



 31 32  0  0  0  0  0  0  0  0999 V2000
    5.7935   44.1844    1.5759 C   0  0  0  0  0  0  0  0  0  0  0  0
    6.4186   43.4587    2.6880 N   0  0  0  0  0  0  0  0  0  0  0  0
    6.6181   44.1084    3.4486 H   0  0  0  0  0  0  0  0  0  0  0  0
    7.2881   43.0313    2.3690 H   0  0  0  0  0  0  0  0  0  0  0  0
    6.7717   45.2492    1.0250 C   0  0  0  0  0  0  0  0  0  0  0  0
    7.3761   45.0772   -0.4108 C   0  0  0  0  0  0  0  0  0  0  0  0
    6.2230   45.1866   -1.4446 C   0  0  0  0  0  0  0  0  0  0  0  0
    8.2972   46.2878   -0.6659 C   0  0  0  0  0  0  0  0  0  0  0  0
    8.1056   43.7198   -0.6925 C   0  0  0  0  0  0  0  0  0  0  0  0
    9.6509   43.5753   -1.0066 C   0  0  0  0  0  0  0  0  0  0  0  0
   10.2302   42.7613    0.1701 C   0  0  0  0  0  0  0  0  0  0  0  0
   10.3564   44.9391   -1.0168 C   0  0  0  0  0  0  0  0  0  0  0  0
    9.8490   42.8334   -2.3752 C   0  0  0  0  0  0  0  0  0  0  0  0
   12.3790   42.2845   -2.2016 C   0  0  0  0  0  0  0  0  0  0  0  0
   11.2204   42.6989   -3.1173 C   0  0  0  0  0  0  0  0  0  0  0  0
   11.5594   44.1038   -3.6813 C   0  0  0  0  0  0  0  0  0  0  0  0
   11.1451   41.7466   -4.3246 C   0  0  0  0  0  0  0  0  0  0  0  0
    4.4713   44.7933    2.1051 C   0  0  0  0  0  0  0  0  0  0  0  0
    3.6082   43.9748    3.0910 C   0  0  0  0  0  0  0  0  0  0  0  0
    4.2964   43.5241    4.3771 C   0  0  0  0  0  0  0  0  0  0  0  0
    3.5608   42.2500    4.7239 C   0  0  0  0  0  0  0  0  0  0  0  0
    2.3464   42.5793    5.3982 O   0  0  0  0  0  0  0  0  0  0  0  0
    1.5460   41.4380    5.7060 C   0  0  0  0  0  0  0  0  0  0  0  0
    1.6061   40.3411    4.6393 C   0  0  0  0  0  0  0  0  0  0  0  0
    1.9437   40.9278    3.2780 C   0  0  0  0  0  0  0  0  0  0  0  0
    3.2851   41.6532    3.3467 C   0  0  0  0  0  0  0  0  0  0  0  0
    3.3017   42.7325    2.3935 O   0  0  0  0  0  0  0  0  0  0  0  0
    2.2830   44.7191    3.3623 C   0  0  0  0  0  0  0  0  0  0  0  0
    2.0627   45.5378    4.2432 O   0  0  0  0  0  0  0  0  0  0  0  0
    1.2844   44.3656    2.5250 O   0  0  0  0  0  0  0  0  0  0  0  0
    1.4419   43.7391    1.8463 H   0  0  0  0  0  0  0  0  0  0  0  0
 14 15  1  0
 15 16  1  0
 15 17  1  0
 15 13  1  0
 13 10  1  0
 10 11  1  0
 10 12  1  0
 10  9  1  0
  9  6  1  0
  6  7  1  0
  6  8  1  0
  6  5  1  0
  5  1  1  0
  1  2  1  0
  1 18  1  0
 19 18  1  0
 19 28  1  0
 28 29  2  0
 28 30  1  0
 19 20  1  0
 21 20  1  0
 21 22  1  0
 22 23  1  0
 23 24  1  0
 24 25  1  0
 26 25  1  0
 26 27  1  0
 27 19  1  0
 26 21  1  0
  2  3  1  0
  2  4  1  0
 30 31  1  0
M  END
> <minimizedAffinity>
-2.75262

> <CNNscore>
0.1613168269

> <CNNaffinity>
5.0726790428

> <CNN_VS>
0.8183084726

> <CNNaffinity_variance>
0.3910915852

$$$$
