


 24 26  0  0  0  0  0  0  0  0999 V2000
   14.8522   -1.3927   50.6728 C   0  0  0  0  0  0  0  0  0  0  0  0
   15.5151   -2.5771   50.6761 N   0  0  0  0  0  0  0  0  0  0  0  0
   16.6745   -2.6798   49.9915 C   0  0  0  0  0  0  0  0  0  0  0  0
   17.3646   -4.0093   50.0280 C   0  0  0  0  0  0  0  0  0  0  0  0
   17.2905   -1.6915   49.3166 N   0  0  0  0  0  0  0  0  0  0  0  0
   16.6158   -0.5358   49.3677 C   0  0  0  0  0  0  0  0  0  0  0  0
   17.0291    0.6211   48.7679 N   0  0  0  0  0  0  0  0  0  0  0  0
   16.1331    1.6316   49.0283 C   0  0  0  0  0  0  0  0  0  0  0  0
   16.3342    3.0103   48.5110 C   0  0  0  0  0  0  0  0  0  0  0  0
   15.1223    1.0873   49.8081 C   0  0  0  0  0  0  0  0  0  0  0  0
   15.4152   -0.2922   50.0152 C   0  0  0  0  0  0  0  0  0  0  0  0
   17.8474    0.7168   48.2289 H   0  0  0  0  0  0  0  0  0  0  0  0
   12.4572   -1.4080   53.5854 C   0  0  0  0  0  0  0  0  0  0  0  0
   13.6275   -1.4578   52.8184 C   0  0  0  0  0  0  0  0  0  0  0  0
   13.5959   -1.3319   51.4129 C   0  0  0  0  0  0  0  0  0  0  0  0
   12.3465   -1.1781   50.7870 C   0  0  0  0  0  0  0  0  0  0  0  0
   12.1943   -1.0692   49.0655 Cl  0  0  0  0  0  0  0  0  0  0  0  0
   11.1724   -1.1223   51.5397 C   0  0  0  0  0  0  0  0  0  0  0  0
   11.2298   -1.2337   52.9292 C   0  0  0  0  0  0  0  0  0  0  0  0
    9.7406   -1.1630   53.8066 Cl  0  0  0  0  0  0  0  0  0  0  0  0
   13.3098   -0.7151   55.7095 C   0  0  0  0  0  0  0  0  0  0  0  0
   12.4180   -1.5202   54.9502 O   0  0  0  0  0  0  0  0  0  0  0  0
   13.9992    1.8145   50.3153 C   0  0  0  0  0  0  0  0  0  0  0  0
   13.0933    2.4035   50.7379 N   0  0  0  0  0  0  0  0  0  0  0  0
 21 22  1  0
 22 13  1  0
 13 14  2  0
 14 15  1  0
 15  1  1  0
  1  2  2  0
  2  3  1  0
  3  4  1  0
  3  5  2  0
  5  6  1  0
  6  7  1  0
  7  8  1  0
  8  9  1  0
  8 10  2  0
 10 23  1  0
 23 24  3  0
 10 11  1  0
 15 16  2  0
 16 17  1  0
 16 18  1  0
 18 19  2  0
 19 20  1  0
 19 13  1  0
 11  1  1  0
 11  6  2  0
  7 12  1  0
M  END
> <minimizedAffinity>
-9.10390

> <CNNscore>
0.9736159444

> <CNNaffinity>
7.5496349335

> <CNN_VS>
7.3504447937

> <CNNaffinity_variance>
0.0277222544

$$$$



 24 26  0  0  0  0  0  0  0  0999 V2000
   14.4156   -0.4609   51.1986 C   0  0  0  0  0  0  0  0  0  0  0  0
   14.3913    0.8029   50.7040 N   0  0  0  0  0  0  0  0  0  0  0  0
   15.3428    1.1788   49.8226 C   0  0  0  0  0  0  0  0  0  0  0  0
   15.2695    2.5845   49.3087 C   0  0  0  0  0  0  0  0  0  0  0  0
   16.3232    0.3996   49.3293 N   0  0  0  0  0  0  0  0  0  0  0  0
   16.2877   -0.8451   49.8220 C   0  0  0  0  0  0  0  0  0  0  0  0
   17.1701   -1.8314   49.4790 N   0  0  0  0  0  0  0  0  0  0  0  0
   16.8502   -2.9972   50.1351 C   0  0  0  0  0  0  0  0  0  0  0  0
   17.6341   -4.2452   49.9433 C   0  0  0  0  0  0  0  0  0  0  0  0
   15.7379   -2.7291   50.9206 C   0  0  0  0  0  0  0  0  0  0  0  0
   15.3843   -1.3605   50.7376 C   0  0  0  0  0  0  0  0  0  0  0  0
   17.9235   -1.7232   48.8546 H   0  0  0  0  0  0  0  0  0  0  0  0
   12.7845   -1.3265   54.4865 C   0  0  0  0  0  0  0  0  0  0  0  0
   13.7335   -0.9839   53.5158 C   0  0  0  0  0  0  0  0  0  0  0  0
   13.3775   -0.8186   52.1600 C   0  0  0  0  0  0  0  0  0  0  0  0
   12.0370   -1.0317   51.7938 C   0  0  0  0  0  0  0  0  0  0  0  0
   11.5082   -0.9072   50.1495 Cl  0  0  0  0  0  0  0  0  0  0  0  0
   11.0797   -1.3693   52.7517 C   0  0  0  0  0  0  0  0  0  0  0  0
   11.4523   -1.5124   54.0886 C   0  0  0  0  0  0  0  0  0  0  0  0
   10.2222   -1.9375   55.2281 Cl  0  0  0  0  0  0  0  0  0  0  0  0
   14.3435   -1.1016   56.2858 C   0  0  0  0  0  0  0  0  0  0  0  0
   13.0620   -1.4991   55.8168 O   0  0  0  0  0  0  0  0  0  0  0  0
   15.0726   -3.6867   51.7501 C   0  0  0  0  0  0  0  0  0  0  0  0
   14.5440   -4.4665   52.4273 N   0  0  0  0  0  0  0  0  0  0  0  0
 21 22  1  0
 22 13  1  0
 13 14  2  0
 14 15  1  0
 15  1  1  0
  1  2  2  0
  2  3  1  0
  3  4  1  0
  3  5  2  0
  5  6  1  0
  6  7  1  0
  7  8  1  0
  8  9  1  0
  8 10  2  0
 10 23  1  0
 23 24  3  0
 10 11  1  0
 15 16  2  0
 16 17  1  0
 16 18  1  0
 18 19  2  0
 19 20  1  0
 19 13  1  0
 11  1  1  0
 11  6  2  0
  7 12  1  0
M  END
> <minimizedAffinity>
-7.88838

> <CNNscore>
0.8108114600

> <CNNaffinity>
7.0346584320

> <CNN_VS>
5.7037816048

> <CNNaffinity_variance>
0.0419066958

$$$$



 24 26  0  0  0  0  0  0  0  0999 V2000
   14.8844   -3.1373   53.1451 C   0  0  0  0  0  0  0  0  0  0  0  0
   14.0896   -3.0222   54.2393 N   0  0  0  0  0  0  0  0  0  0  0  0
   13.3247   -1.9181   54.3790 C   0  0  0  0  0  0  0  0  0  0  0  0
   12.4670   -1.8419   55.6054 C   0  0  0  0  0  0  0  0  0  0  0  0
   13.2265   -0.9017   53.5022 N   0  0  0  0  0  0  0  0  0  0  0  0
   14.0040   -1.0745   52.4257 C   0  0  0  0  0  0  0  0  0  0  0  0
   14.0840   -0.1892   51.3870 N   0  0  0  0  0  0  0  0  0  0  0  0
   14.9465   -0.6666   50.4279 C   0  0  0  0  0  0  0  0  0  0  0  0
   15.2190    0.0846   49.1748 C   0  0  0  0  0  0  0  0  0  0  0  0
   15.4286   -1.8849   50.8854 C   0  0  0  0  0  0  0  0  0  0  0  0
   14.8453   -2.1430   52.1601 C   0  0  0  0  0  0  0  0  0  0  0  0
   13.5962    0.6643   51.3334 H   0  0  0  0  0  0  0  0  0  0  0  0
   15.8039   -6.7656   52.6872 C   0  0  0  0  0  0  0  0  0  0  0  0
   15.0724   -5.5766   52.7957 C   0  0  0  0  0  0  0  0  0  0  0  0
   15.7054   -4.3395   53.0432 C   0  0  0  0  0  0  0  0  0  0  0  0
   17.1017   -4.3277   53.2055 C   0  0  0  0  0  0  0  0  0  0  0  0
   17.9674   -2.8719   53.5655 Cl  0  0  0  0  0  0  0  0  0  0  0  0
   17.8437   -5.5048   53.0954 C   0  0  0  0  0  0  0  0  0  0  0  0
   17.1977   -6.7137   52.8352 C   0  0  0  0  0  0  0  0  0  0  0  0
   18.1706   -8.1391   52.7157 Cl  0  0  0  0  0  0  0  0  0  0  0  0
   15.2048   -8.9258   53.5198 C   0  0  0  0  0  0  0  0  0  0  0  0
   15.2533   -7.9965   52.4456 O   0  0  0  0  0  0  0  0  0  0  0  0
   16.3422   -2.7232   50.1710 C   0  0  0  0  0  0  0  0  0  0  0  0
   17.0747   -3.4038   49.5825 N   0  0  0  0  0  0  0  0  0  0  0  0
 21 22  1  0
 22 13  1  0
 13 14  2  0
 14 15  1  0
 15  1  1  0
  1  2  2  0
  2  3  1  0
  3  4  1  0
  3  5  2  0
  5  6  1  0
  6  7  1  0
  7  8  1  0
  8  9  1  0
  8 10  2  0
 10 23  1  0
 23 24  3  0
 10 11  1  0
 15 16  2  0
 16 17  1  0
 16 18  1  0
 18 19  2  0
 19 20  1  0
 19 13  1  0
 11  1  1  0
 11  6  2  0
  7 12  1  0
M  END
> <minimizedAffinity>
-6.59445

> <CNNscore>
0.2927529216

> <CNNaffinity>
6.1424889565

> <CNN_VS>
1.7982316017

> <CNNaffinity_variance>
0.0224559698

$$$$



 24 26  0  0  0  0  0  0  0  0999 V2000
   14.4766   -3.3163   52.6899 C   0  0  0  0  0  0  0  0  0  0  0  0
   13.5003   -3.0366   53.5905 N   0  0  0  0  0  0  0  0  0  0  0  0
   13.1015   -4.0036   54.4444 C   0  0  0  0  0  0  0  0  0  0  0  0
   12.0205   -3.6416   55.4170 C   0  0  0  0  0  0  0  0  0  0  0  0
   13.6114   -5.2460   54.5342 N   0  0  0  0  0  0  0  0  0  0  0  0
   14.5914   -5.4648   53.6482 C   0  0  0  0  0  0  0  0  0  0  0  0
   15.2755   -6.6432   53.5363 N   0  0  0  0  0  0  0  0  0  0  0  0
   16.2331   -6.5393   52.5545 C   0  0  0  0  0  0  0  0  0  0  0  0
   17.1401   -7.6685   52.2214 C   0  0  0  0  0  0  0  0  0  0  0  0
   16.1389   -5.2582   52.0292 C   0  0  0  0  0  0  0  0  0  0  0  0
   15.0887   -4.5754   52.7092 C   0  0  0  0  0  0  0  0  0  0  0  0
   15.1074   -7.4476   54.0785 H   0  0  0  0  0  0  0  0  0  0  0  0
   14.3351   -0.9242   49.7783 C   0  0  0  0  0  0  0  0  0  0  0  0
   14.0189   -1.9391   50.6895 C   0  0  0  0  0  0  0  0  0  0  0  0
   14.8650   -2.2463   51.7767 C   0  0  0  0  0  0  0  0  0  0  0  0
   16.0606   -1.5197   51.9148 C   0  0  0  0  0  0  0  0  0  0  0  0
   17.1923   -1.8549   53.1818 Cl  0  0  0  0  0  0  0  0  0  0  0  0
   16.3861   -0.5023   51.0164 C   0  0  0  0  0  0  0  0  0  0  0  0
   15.5267   -0.2063   49.9580 C   0  0  0  0  0  0  0  0  0  0  0  0
   15.9875    1.0612   48.8746 Cl  0  0  0  0  0  0  0  0  0  0  0  0
   12.1478   -0.6838   48.8422 C   0  0  0  0  0  0  0  0  0  0  0  0
   13.5582   -0.5739   48.7058 O   0  0  0  0  0  0  0  0  0  0  0  0
   16.9763   -4.7355   50.9932 C   0  0  0  0  0  0  0  0  0  0  0  0
   17.6646   -4.3187   50.1574 N   0  0  0  0  0  0  0  0  0  0  0  0
 21 22  1  0
 22 13  1  0
 13 14  2  0
 14 15  1  0
 15  1  1  0
  1  2  2  0
  2  3  1  0
  3  4  1  0
  3  5  2  0
  5  6  1  0
  6  7  1  0
  7  8  1  0
  8  9  1  0
  8 10  2  0
 10 23  1  0
 23 24  3  0
 10 11  1  0
 15 16  2  0
 16 17  1  0
 16 18  1  0
 18 19  2  0
 19 20  1  0
 19 13  1  0
 11  1  1  0
 11  6  2  0
  7 12  1  0
M  END
> <minimizedAffinity>
-6.66859

> <CNNscore>
0.2512418330

> <CNNaffinity>
6.0409088135

> <CNN_VS>
1.5177290440

> <CNNaffinity_variance>
0.0949496105

$$$$



 24 26  0  0  0  0  0  0  0  0999 V2000
   14.2350   -0.7531   51.5520 C   0  0  0  0  0  0  0  0  0  0  0  0
   13.9488    0.4961   51.1049 N   0  0  0  0  0  0  0  0  0  0  0  0
   14.6655    1.0040   50.0792 C   0  0  0  0  0  0  0  0  0  0  0  0
   14.3085    2.3869   49.6258 C   0  0  0  0  0  0  0  0  0  0  0  0
   15.6388    0.3712   49.3982 N   0  0  0  0  0  0  0  0  0  0  0  0
   15.8639   -0.8674   49.8545 C   0  0  0  0  0  0  0  0  0  0  0  0
   16.7974   -1.7194   49.3331 N   0  0  0  0  0  0  0  0  0  0  0  0
   16.7639   -2.9202   50.0029 C   0  0  0  0  0  0  0  0  0  0  0  0
   17.6645   -4.0455   49.6403 C   0  0  0  0  0  0  0  0  0  0  0  0
   15.7848   -2.8129   50.9806 C   0  0  0  0  0  0  0  0  0  0  0  0
   15.2194   -1.5068   50.9014 C   0  0  0  0  0  0  0  0  0  0  0  0
   17.4041   -1.5050   48.5880 H   0  0  0  0  0  0  0  0  0  0  0  0
   11.2611   -1.9960   53.5092 C   0  0  0  0  0  0  0  0  0  0  0  0
   12.0722   -1.5134   52.4750 C   0  0  0  0  0  0  0  0  0  0  0  0
   13.4458   -1.2553   52.6721 C   0  0  0  0  0  0  0  0  0  0  0  0
   13.9861   -1.4719   53.9518 C   0  0  0  0  0  0  0  0  0  0  0  0
   15.6461   -1.1350   54.3116 Cl  0  0  0  0  0  0  0  0  0  0  0  0
   13.1901   -1.9569   54.9906 C   0  0  0  0  0  0  0  0  0  0  0  0
   11.8380   -2.2193   54.7681 C   0  0  0  0  0  0  0  0  0  0  0  0
   10.9020   -2.8135   56.0960 Cl  0  0  0  0  0  0  0  0  0  0  0  0
    9.0123   -1.1834   53.4736 C   0  0  0  0  0  0  0  0  0  0  0  0
    9.9246   -2.2696   53.3845 O   0  0  0  0  0  0  0  0  0  0  0  0
   15.4174   -3.8564   51.8881 C   0  0  0  0  0  0  0  0  0  0  0  0
   15.1161   -4.6941   52.6322 N   0  0  0  0  0  0  0  0  0  0  0  0
 21 22  1  0
 22 13  1  0
 13 14  2  0
 14 15  1  0
 15  1  1  0
  1  2  2  0
  2  3  1  0
  3  4  1  0
  3  5  2  0
  5  6  1  0
  6  7  1  0
  7  8  1  0
  8  9  1  0
  8 10  2  0
 10 23  1  0
 23 24  3  0
 10 11  1  0
 15 16  2  0
 16 17  1  0
 16 18  1  0
 18 19  2  0
 19 20  1  0
 19 13  1  0
 11  1  1  0
 11  6  2  0
  7 12  1  0
M  END
> <minimizedAffinity>
-7.45233

> <CNNscore>
0.2350576222

> <CNNaffinity>
6.4564380646

> <CNN_VS>
1.5176349878

> <CNNaffinity_variance>
0.0092027886

$$$$



 24 26  0  0  0  0  0  0  0  0999 V2000
   14.7284   -3.8538   52.6861 C   0  0  0  0  0  0  0  0  0  0  0  0
   15.3334   -5.0213   52.3494 N   0  0  0  0  0  0  0  0  0  0  0  0
   15.0557   -6.1321   53.0653 C   0  0  0  0  0  0  0  0  0  0  0  0
   15.7512   -7.3932   52.6515 C   0  0  0  0  0  0  0  0  0  0  0  0
   14.1826   -6.2239   54.0855 N   0  0  0  0  0  0  0  0  0  0  0  0
   13.5884   -5.0557   54.3604 C   0  0  0  0  0  0  0  0  0  0  0  0
   12.6589   -4.8813   55.3477 N   0  0  0  0  0  0  0  0  0  0  0  0
   12.2225   -3.5770   55.3572 C   0  0  0  0  0  0  0  0  0  0  0  0
   11.1966   -3.1006   56.3212 C   0  0  0  0  0  0  0  0  0  0  0  0
   12.9076   -2.9120   54.3499 C   0  0  0  0  0  0  0  0  0  0  0  0
   13.7872   -3.8417   53.7226 C   0  0  0  0  0  0  0  0  0  0  0  0
   12.3478   -5.5855   55.9613 H   0  0  0  0  0  0  0  0  0  0  0  0
   14.4259   -1.1007   50.1270 C   0  0  0  0  0  0  0  0  0  0  0  0
   14.1570   -2.2243   50.9180 C   0  0  0  0  0  0  0  0  0  0  0  0
   15.0700   -2.6758   51.8951 C   0  0  0  0  0  0  0  0  0  0  0  0
   16.2828   -1.9805   52.0438 C   0  0  0  0  0  0  0  0  0  0  0  0
   17.4925   -2.4851   53.1755 Cl  0  0  0  0  0  0  0  0  0  0  0  0
   16.5619   -0.8564   51.2650 C   0  0  0  0  0  0  0  0  0  0  0  0
   15.6373   -0.4195   50.3159 C   0  0  0  0  0  0  0  0  0  0  0  0
   16.0426    0.9761   49.3774 Cl  0  0  0  0  0  0  0  0  0  0  0  0
   12.1962   -0.8923   49.2880 C   0  0  0  0  0  0  0  0  0  0  0  0
   13.5835   -0.6087   49.1652 O   0  0  0  0  0  0  0  0  0  0  0  0
   12.7293   -1.5330   54.0123 C   0  0  0  0  0  0  0  0  0  0  0  0
   12.5970   -0.4132   53.7392 N   0  0  0  0  0  0  0  0  0  0  0  0
 21 22  1  0
 22 13  1  0
 13 14  2  0
 14 15  1  0
 15  1  1  0
  1  2  2  0
  2  3  1  0
  3  4  1  0
  3  5  2  0
  5  6  1  0
  6  7  1  0
  7  8  1  0
  8  9  1  0
  8 10  2  0
 10 23  1  0
 23 24  3  0
 10 11  1  0
 15 16  2  0
 16 17  1  0
 16 18  1  0
 18 19  2  0
 19 20  1  0
 19 13  1  0
 11  1  1  0
 11  6  2  0
  7 12  1  0
M  END
> <minimizedAffinity>
-6.64775

> <CNNscore>
0.2261608541

> <CNNaffinity>
6.0569834709

> <CNN_VS>
1.3698525429

> <CNNaffinity_variance>
0.0072639654

$$$$



 24 26  0  0  0  0  0  0  0  0999 V2000
   16.2763   -2.4406   52.6031 C   0  0  0  0  0  0  0  0  0  0  0  0
   16.4447   -1.4858   51.6532 N   0  0  0  0  0  0  0  0  0  0  0  0
   16.8847   -1.8508   50.4298 C   0  0  0  0  0  0  0  0  0  0  0  0
   17.0537   -0.7573   49.4192 C   0  0  0  0  0  0  0  0  0  0  0  0
   17.1440   -3.1060   50.0190 N   0  0  0  0  0  0  0  0  0  0  0  0
   16.9339   -4.0151   50.9796 C   0  0  0  0  0  0  0  0  0  0  0  0
   17.1197   -5.3598   50.8172 N   0  0  0  0  0  0  0  0  0  0  0  0
   16.7937   -6.0227   51.9774 C   0  0  0  0  0  0  0  0  0  0  0  0
   16.8871   -7.5019   52.0878 C   0  0  0  0  0  0  0  0  0  0  0  0
   16.4004   -5.0614   52.8978 C   0  0  0  0  0  0  0  0  0  0  0  0
   16.5010   -3.7831   52.2752 C   0  0  0  0  0  0  0  0  0  0  0  0
   17.4397   -5.7901   49.9916 H   0  0  0  0  0  0  0  0  0  0  0  0
   14.0238   -0.9917   55.2578 C   0  0  0  0  0  0  0  0  0  0  0  0
   14.5252   -1.4345   54.0278 C   0  0  0  0  0  0  0  0  0  0  0  0
   15.8141   -1.9988   53.9150 C   0  0  0  0  0  0  0  0  0  0  0  0
   16.6054   -2.0861   55.0737 C   0  0  0  0  0  0  0  0  0  0  0  0
   18.2195   -2.7120   55.0327 Cl  0  0  0  0  0  0  0  0  0  0  0  0
   16.1165   -1.6527   56.3071 C   0  0  0  0  0  0  0  0  0  0  0  0
   14.8334   -1.1122   56.3968 C   0  0  0  0  0  0  0  0  0  0  0  0
   14.2858   -0.5874   57.9516 Cl  0  0  0  0  0  0  0  0  0  0  0  0
   11.7182   -0.9183   54.6271 C   0  0  0  0  0  0  0  0  0  0  0  0
   12.7833   -0.4387   55.4368 O   0  0  0  0  0  0  0  0  0  0  0  0
   15.9599   -5.3374   54.2310 C   0  0  0  0  0  0  0  0  0  0  0  0
   15.6145   -5.5637   55.3151 N   0  0  0  0  0  0  0  0  0  0  0  0
 21 22  1  0
 22 13  1  0
 13 14  2  0
 14 15  1  0
 15  1  1  0
  1  2  2  0
  2  3  1  0
  3  4  1  0
  3  5  2  0
  5  6  1  0
  6  7  1  0
  7  8  1  0
  8  9  1  0
  8 10  2  0
 10 23  1  0
 23 24  3  0
 10 11  1  0
 15 16  2  0
 16 17  1  0
 16 18  1  0
 18 19  2  0
 19 20  1  0
 19 13  1  0
 11  1  1  0
 11  6  2  0
  7 12  1  0
M  END
> <minimizedAffinity>
-6.45039

> <CNNscore>
0.2129057497

> <CNNaffinity>
5.6017241478

> <CNN_VS>
1.1926392317

> <CNNaffinity_variance>
0.0879960358

$$$$



 24 26  0  0  0  0  0  0  0  0999 V2000
   13.0533   -2.7088   52.6530 C   0  0  0  0  0  0  0  0  0  0  0  0
   13.3303   -2.2462   51.4074 N   0  0  0  0  0  0  0  0  0  0  0  0
   12.4368   -1.4395   50.7955 C   0  0  0  0  0  0  0  0  0  0  0  0
   12.7920   -0.9581   49.4216 C   0  0  0  0  0  0  0  0  0  0  0  0
   11.2799   -0.9922   51.3181 N   0  0  0  0  0  0  0  0  0  0  0  0
   11.0652   -1.4494   52.5583 C   0  0  0  0  0  0  0  0  0  0  0  0
    9.9661   -1.1404   53.3104 N   0  0  0  0  0  0  0  0  0  0  0  0
   10.0554   -1.7438   54.5432 C   0  0  0  0  0  0  0  0  0  0  0  0
    9.0027   -1.5723   55.5781 C   0  0  0  0  0  0  0  0  0  0  0  0
   11.2436   -2.4608   54.5594 C   0  0  0  0  0  0  0  0  0  0  0  0
   11.8827   -2.2899   53.2968 C   0  0  0  0  0  0  0  0  0  0  0  0
    9.2207   -0.5701   53.0134 H   0  0  0  0  0  0  0  0  0  0  0  0
   14.8393   -5.8810   53.6367 C   0  0  0  0  0  0  0  0  0  0  0  0
   13.9252   -4.9830   53.0724 C   0  0  0  0  0  0  0  0  0  0  0  0
   14.0399   -3.5901   53.2694 C   0  0  0  0  0  0  0  0  0  0  0  0
   15.0902   -3.1167   54.0751 C   0  0  0  0  0  0  0  0  0  0  0  0
   15.2870   -1.4318   54.4228 Cl  0  0  0  0  0  0  0  0  0  0  0  0
   16.0112   -4.0002   54.6401 C   0  0  0  0  0  0  0  0  0  0  0  0
   15.8865   -5.3721   54.4189 C   0  0  0  0  0  0  0  0  0  0  0  0
   17.0551   -6.4170   55.1505 Cl  0  0  0  0  0  0  0  0  0  0  0  0
   15.5103   -7.8162   52.4024 C   0  0  0  0  0  0  0  0  0  0  0  0
   14.7874   -7.2412   53.4826 O   0  0  0  0  0  0  0  0  0  0  0  0
   11.7257   -3.2197   55.6726 C   0  0  0  0  0  0  0  0  0  0  0  0
   12.1134   -3.8258   56.5827 N   0  0  0  0  0  0  0  0  0  0  0  0
 21 22  1  0
 22 13  1  0
 13 14  2  0
 14 15  1  0
 15  1  1  0
  1  2  2  0
  2  3  1  0
  3  4  1  0
  3  5  2  0
  5  6  1  0
  6  7  1  0
  7  8  1  0
  8  9  1  0
  8 10  2  0
 10 23  1  0
 23 24  3  0
 10 11  1  0
 15 16  2  0
 16 17  1  0
 16 18  1  0
 18 19  2  0
 19 20  1  0
 19 13  1  0
 11  1  1  0
 11  6  2  0
  7 12  1  0
M  END
> <minimizedAffinity>
-6.45164

> <CNNscore>
0.1836356521

> <CNNaffinity>
5.0819973946

> <CNN_VS>
0.9332358837

> <CNNaffinity_variance>
0.5174221396

$$$$



 24 26  0  0  0  0  0  0  0  0999 V2000
   15.4911   -2.0915   51.4490 C   0  0  0  0  0  0  0  0  0  0  0  0
   16.3535   -1.2535   50.8197 N   0  0  0  0  0  0  0  0  0  0  0  0
   15.8887   -0.0847   50.3282 C   0  0  0  0  0  0  0  0  0  0  0  0
   16.8829    0.8023   49.6425 C   0  0  0  0  0  0  0  0  0  0  0  0
   14.6293    0.3783   50.4335 N   0  0  0  0  0  0  0  0  0  0  0  0
   13.8236   -0.4676   51.0883 C   0  0  0  0  0  0  0  0  0  0  0  0
   12.4994   -0.2317   51.3327 N   0  0  0  0  0  0  0  0  0  0  0  0
   11.9600   -1.2760   52.0471 C   0  0  0  0  0  0  0  0  0  0  0  0
   10.5344   -1.2850   52.4670 C   0  0  0  0  0  0  0  0  0  0  0  0
   12.9769   -2.1989   52.2479 C   0  0  0  0  0  0  0  0  0  0  0  0
   14.1594   -1.6984   51.6291 C   0  0  0  0  0  0  0  0  0  0  0  0
   12.0047    0.5677   51.0404 H   0  0  0  0  0  0  0  0  0  0  0  0
   16.4443   -4.8173   53.8742 C   0  0  0  0  0  0  0  0  0  0  0  0
   15.9431   -3.6280   53.3313 C   0  0  0  0  0  0  0  0  0  0  0  0
   16.0337   -3.3501   51.9504 C   0  0  0  0  0  0  0  0  0  0  0  0
   16.6680   -4.2928   51.1226 C   0  0  0  0  0  0  0  0  0  0  0  0
   16.8786   -4.0231   49.4251 Cl  0  0  0  0  0  0  0  0  0  0  0  0
   17.1682   -5.4845   51.6497 C   0  0  0  0  0  0  0  0  0  0  0  0
   17.0536   -5.7443   53.0157 C   0  0  0  0  0  0  0  0  0  0  0  0
   17.6978   -7.2356   53.6104 Cl  0  0  0  0  0  0  0  0  0  0  0  0
   17.3035   -4.5197   56.0859 C   0  0  0  0  0  0  0  0  0  0  0  0
   16.3862   -5.1498   55.2019 O   0  0  0  0  0  0  0  0  0  0  0  0
   12.8363   -3.4265   52.9696 C   0  0  0  0  0  0  0  0  0  0  0  0
   12.7210   -4.4154   53.5652 N   0  0  0  0  0  0  0  0  0  0  0  0
 21 22  1  0
 22 13  1  0
 13 14  2  0
 14 15  1  0
 15  1  1  0
  1  2  2  0
  2  3  1  0
  3  4  1  0
  3  5  2  0
  5  6  1  0
  6  7  1  0
  7  8  1  0
  8  9  1  0
  8 10  2  0
 10 23  1  0
 23 24  3  0
 10 11  1  0
 15 16  2  0
 16 17  1  0
 16 18  1  0
 18 19  2  0
 19 20  1  0
 19 13  1  0
 11  1  1  0
 11  6  2  0
  7 12  1  0
M  END
> <minimizedAffinity>
-6.53445

> <CNNscore>
0.1769522876

> <CNNaffinity>
5.7479362488

> <CNN_VS>
1.0171104670

> <CNNaffinity_variance>
0.1878943890

$$$$
