


 28 31  0  0  0  0  0  0  0  0999 V2000
   41.3564   31.3111   31.8971 C   0  0  0  0  0  0  0  0  0  0  0  0
   41.1400   30.4269   32.9687 C   0  0  0  0  0  0  0  0  0  0  0  0
   39.9251   29.7401   33.1230 C   0  0  0  0  0  0  0  0  0  0  0  0
   38.9122   29.9202   32.1777 C   0  0  0  0  0  0  0  0  0  0  0  0
   37.2608   28.9819   32.2119 Br  0  0  0  0  0  0  0  0  0  0  0  0
   39.1122   30.8013   31.1075 C   0  0  0  0  0  0  0  0  0  0  0  0
   40.3224   31.5014   30.9565 C   0  0  0  0  0  0  0  0  0  0  0  0
   40.4883   32.4327   29.7837 C   0  0  0  0  0  0  0  0  0  0  0  0
   45.1215   33.4018   31.6927 C   0  0  0  0  0  0  0  0  0  0  0  0
   44.1010   33.8183   32.5544 C   0  0  0  0  0  0  0  0  0  0  0  0
   42.8858   33.1302   32.6078 C   0  0  0  0  0  0  0  0  0  0  0  0
   42.6501   32.0076   31.7967 C   0  0  0  0  0  0  0  0  0  0  0  0
   43.6704   31.5794   30.9203 C   0  0  0  0  0  0  0  0  0  0  0  0
   43.4935   30.3723   30.0361 C   0  0  0  0  0  0  0  0  0  0  0  0
   44.8930   32.2784   30.8835 C   0  0  0  0  0  0  0  0  0  0  0  0
   49.5368   34.5259   30.1426 C   0  0  0  0  0  0  0  0  0  0  0  0
   48.3305   34.6359   30.9785 C   0  0  0  0  0  0  0  0  0  0  0  0
   48.0627   35.4642   31.9638 N   0  0  0  0  0  0  0  0  0  0  0  0
   46.7968   35.1392   32.4069 N   0  0  0  0  0  0  0  0  0  0  0  0
   46.3806   34.1353   31.6598 C   0  0  0  0  0  0  0  0  0  0  0  0
   47.3108   33.7604   30.7224 O   0  0  0  0  0  0  0  0  0  0  0  0
   39.8306   28.8418   34.3002 C   0  0  0  0  0  0  0  0  0  0  0  0
   40.5474   29.0478   35.2741 O   0  0  0  0  0  0  0  0  0  0  0  0
   38.8677   27.8556   34.2388 N   0  0  0  0  0  0  0  0  0  0  0  0
   38.2953   27.7994   33.4398 H   0  0  0  0  0  0  0  0  0  0  0  0
   38.6730   26.9142   35.2936 C   0  0  0  0  0  0  0  0  0  0  0  0
   38.2079   27.3671   36.6505 C   0  0  0  0  0  0  0  0  0  0  0  0
   37.2859   26.5797   35.7669 C   0  0  0  0  0  0  0  0  0  0  0  0
 16 17  1  0
 17 18  2  0
 18 19  1  0
 19 20  2  0
 20  9  1  0
  9 10  2  0
 10 11  1  0
 11 12  2  0
 12  1  1  0
  1  2  2  0
  2  3  1  0
  3 22  1  0
 22 23  2  0
 22 24  1  0
 24 26  1  0
 26 27  1  0
 27 28  1  0
  3  4  2  0
  4  5  1  0
  4  6  1  0
  6  7  2  0
  7  8  1  0
 12 13  1  0
 13 14  1  0
 13 15  2  0
 20 21  1  0
 21 17  1  0
 15  9  1  0
  7  1  1  0
 28 26  1  0
 24 25  1  0
M  END
> <minimizedAffinity>
-10.65494

> <CNNscore>
0.9559428692

> <CNNaffinity>
7.8261165619

> <CNN_VS>
7.4813203812

> <CNNaffinity_variance>
0.0100944340

$$$$



 28 31  0  0  0  0  0  0  0  0999 V2000
   42.1274   30.6292   31.8912 C   0  0  0  0  0  0  0  0  0  0  0  0
   42.6208   31.8801   32.3023 C   0  0  0  0  0  0  0  0  0  0  0  0
   43.4992   32.6253   31.4993 C   0  0  0  0  0  0  0  0  0  0  0  0
   43.8764   32.1249   30.2507 C   0  0  0  0  0  0  0  0  0  0  0  0
   44.9776   33.0712   29.0257 Br  0  0  0  0  0  0  0  0  0  0  0  0
   43.3961   30.8782   29.8302 C   0  0  0  0  0  0  0  0  0  0  0  0
   42.5269   30.1224   30.6368 C   0  0  0  0  0  0  0  0  0  0  0  0
   42.0344   28.7899   30.1344 C   0  0  0  0  0  0  0  0  0  0  0  0
   39.5375   28.4656   34.5745 C   0  0  0  0  0  0  0  0  0  0  0  0
   40.9242   28.4887   34.7586 C   0  0  0  0  0  0  0  0  0  0  0  0
   41.7501   29.1940   33.8790 C   0  0  0  0  0  0  0  0  0  0  0  0
   41.2160   29.8933   32.7838 C   0  0  0  0  0  0  0  0  0  0  0  0
   39.8187   29.8748   32.5849 C   0  0  0  0  0  0  0  0  0  0  0  0
   39.1761   30.6181   31.4427 C   0  0  0  0  0  0  0  0  0  0  0  0
   38.9984   29.1660   33.4847 C   0  0  0  0  0  0  0  0  0  0  0  0
   36.0577   25.4325   35.9357 C   0  0  0  0  0  0  0  0  0  0  0  0
   37.1639   26.3864   36.1154 C   0  0  0  0  0  0  0  0  0  0  0  0
   37.7090   26.8437   37.2210 N   0  0  0  0  0  0  0  0  0  0  0  0
   38.7056   27.7135   36.8280 N   0  0  0  0  0  0  0  0  0  0  0  0
   38.6991   27.7254   35.5092 C   0  0  0  0  0  0  0  0  0  0  0  0
   37.7382   26.8978   34.9837 O   0  0  0  0  0  0  0  0  0  0  0  0
   43.9450   33.9261   32.0569 C   0  0  0  0  0  0  0  0  0  0  0  0
   44.3694   34.7924   31.2993 O   0  0  0  0  0  0  0  0  0  0  0  0
   43.7799   34.0954   33.4161 N   0  0  0  0  0  0  0  0  0  0  0  0
   43.3756   33.3666   33.9402 H   0  0  0  0  0  0  0  0  0  0  0  0
   44.1748   35.2906   34.0885 C   0  0  0  0  0  0  0  0  0  0  0  0
   43.1470   36.2019   34.7016 C   0  0  0  0  0  0  0  0  0  0  0  0
   44.0552   35.3964   35.5834 C   0  0  0  0  0  0  0  0  0  0  0  0
 16 17  1  0
 17 18  2  0
 18 19  1  0
 19 20  2  0
 20  9  1  0
  9 10  2  0
 10 11  1  0
 11 12  2  0
 12  1  1  0
  1  2  2  0
  2  3  1  0
  3 22  1  0
 22 23  2  0
 22 24  1  0
 24 26  1  0
 26 27  1  0
 27 28  1  0
  3  4  2  0
  4  5  1  0
  4  6  1  0
  6  7  2  0
  7  8  1  0
 12 13  1  0
 13 14  1  0
 13 15  2  0
 20 21  1  0
 21 17  1  0
 15  9  1  0
  7  1  1  0
 28 26  1  0
 24 25  1  0
M  END
> <minimizedAffinity>
-6.42796

> <CNNscore>
0.6618163586

> <CNNaffinity>
7.2813014984

> <CNN_VS>
4.8188843727

> <CNNaffinity_variance>
0.0115449466

$$$$



 28 31  0  0  0  0  0  0  0  0999 V2000
   42.4748   30.9674   31.7042 C   0  0  0  0  0  0  0  0  0  0  0  0
   43.4549   31.8402   32.2088 C   0  0  0  0  0  0  0  0  0  0  0  0
   44.2848   32.5870   31.3571 C   0  0  0  0  0  0  0  0  0  0  0  0
   44.1201   32.4796   29.9739 C   0  0  0  0  0  0  0  0  0  0  0  0
   45.1061   33.5029   28.7133 Br  0  0  0  0  0  0  0  0  0  0  0  0
   43.1507   31.6107   29.4572 C   0  0  0  0  0  0  0  0  0  0  0  0
   42.3265   30.8508   30.3062 C   0  0  0  0  0  0  0  0  0  0  0  0
   41.2950   29.9357   29.6988 C   0  0  0  0  0  0  0  0  0  0  0  0
   39.9636   28.8122   34.4678 C   0  0  0  0  0  0  0  0  0  0  0  0
   39.7085   30.1479   34.1387 C   0  0  0  0  0  0  0  0  0  0  0  0
   40.5329   30.8327   33.2418 C   0  0  0  0  0  0  0  0  0  0  0  0
   41.6423   30.2056   32.6505 C   0  0  0  0  0  0  0  0  0  0  0  0
   41.9127   28.8593   32.9771 C   0  0  0  0  0  0  0  0  0  0  0  0
   43.0738   28.1187   32.3660 C   0  0  0  0  0  0  0  0  0  0  0  0
   41.0679   28.1797   33.8767 C   0  0  0  0  0  0  0  0  0  0  0  0
   36.3591   25.9295   35.8314 C   0  0  0  0  0  0  0  0  0  0  0  0
   37.4950   26.8480   36.0103 C   0  0  0  0  0  0  0  0  0  0  0  0
   38.0385   27.3083   37.1155 N   0  0  0  0  0  0  0  0  0  0  0  0
   39.0709   28.1350   36.7218 N   0  0  0  0  0  0  0  0  0  0  0  0
   39.0854   28.1205   35.4031 C   0  0  0  0  0  0  0  0  0  0  0  0
   38.1044   27.3163   34.8783 O   0  0  0  0  0  0  0  0  0  0  0  0
   45.2782   33.4653   32.0229 C   0  0  0  0  0  0  0  0  0  0  0  0
   44.8879   34.3905   32.7273 O   0  0  0  0  0  0  0  0  0  0  0  0
   46.6042   33.1247   31.8520 N   0  0  0  0  0  0  0  0  0  0  0  0
   46.8253   32.3289   31.3163 H   0  0  0  0  0  0  0  0  0  0  0  0
   47.6664   33.8863   32.4252 C   0  0  0  0  0  0  0  0  0  0  0  0
   48.6326   34.6361   31.5496 C   0  0  0  0  0  0  0  0  0  0  0  0
   47.6346   35.3886   32.3796 C   0  0  0  0  0  0  0  0  0  0  0  0
 16 17  1  0
 17 18  2  0
 18 19  1  0
 19 20  2  0
 20  9  1  0
  9 10  2  0
 10 11  1  0
 11 12  2  0
 12  1  1  0
  1  2  2  0
  2  3  1  0
  3 22  1  0
 22 23  2  0
 22 24  1  0
 24 26  1  0
 26 27  1  0
 27 28  1  0
  3  4  2  0
  4  5  1  0
  4  6  1  0
  6  7  2  0
  7  8  1  0
 12 13  1  0
 13 14  1  0
 13 15  2  0
 20 21  1  0
 21 17  1  0
 15  9  1  0
  7  1  1  0
 28 26  1  0
 24 25  1  0
M  END
> <minimizedAffinity>
-9.21966

> <CNNscore>
0.6483548284

> <CNNaffinity>
7.3364939690

> <CNN_VS>
4.7566514015

> <CNNaffinity_variance>
0.0827077553

$$$$



 28 31  0  0  0  0  0  0  0  0999 V2000
   48.9144   34.4899   29.1417 C   0  0  0  0  0  0  0  0  0  0  0  0
   49.9430   33.5313   29.1334 C   0  0  0  0  0  0  0  0  0  0  0  0
   51.2198   33.8256   28.6286 C   0  0  0  0  0  0  0  0  0  0  0  0
   51.4847   35.1083   28.1425 C   0  0  0  0  0  0  0  0  0  0  0  0
   53.1909   35.6682   27.5228 Br  0  0  0  0  0  0  0  0  0  0  0  0
   50.4682   36.0719   28.1405 C   0  0  0  0  0  0  0  0  0  0  0  0
   49.1843   35.7775   28.6327 C   0  0  0  0  0  0  0  0  0  0  0  0
   48.1284   36.8523   28.6134 C   0  0  0  0  0  0  0  0  0  0  0  0
   45.0268   33.3492   30.6162 C   0  0  0  0  0  0  0  0  0  0  0  0
   45.3311   33.3070   29.2513 C   0  0  0  0  0  0  0  0  0  0  0  0
   46.5959   33.6812   28.7894 C   0  0  0  0  0  0  0  0  0  0  0  0
   47.5944   34.1155   29.6770 C   0  0  0  0  0  0  0  0  0  0  0  0
   47.2989   34.1661   31.0563 C   0  0  0  0  0  0  0  0  0  0  0  0
   48.3277   34.6035   32.0665 C   0  0  0  0  0  0  0  0  0  0  0  0
   46.0219   33.7781   31.5077 C   0  0  0  0  0  0  0  0  0  0  0  0
   40.8758   30.9155   30.5261 C   0  0  0  0  0  0  0  0  0  0  0  0
   41.8665   31.8769   31.0362 C   0  0  0  0  0  0  0  0  0  0  0  0
   41.8094   32.6664   32.0860 N   0  0  0  0  0  0  0  0  0  0  0  0
   43.0002   33.3634   32.1090 N   0  0  0  0  0  0  0  0  0  0  0  0
   43.7010   32.9495   31.0713 C   0  0  0  0  0  0  0  0  0  0  0  0
   43.0378   31.9963   30.3392 O   0  0  0  0  0  0  0  0  0  0  0  0
   52.2090   32.7206   28.6771 C   0  0  0  0  0  0  0  0  0  0  0  0
   53.3311   32.8960   28.2139 O   0  0  0  0  0  0  0  0  0  0  0  0
   51.8049   31.5687   29.3199 N   0  0  0  0  0  0  0  0  0  0  0  0
   50.9038   31.5359   29.7150 H   0  0  0  0  0  0  0  0  0  0  0  0
   52.6484   30.4228   29.4317 C   0  0  0  0  0  0  0  0  0  0  0  0
   52.0606   29.0393   29.4850 C   0  0  0  0  0  0  0  0  0  0  0  0
   52.8157   29.4861   28.2678 C   0  0  0  0  0  0  0  0  0  0  0  0
 16 17  1  0
 17 18  2  0
 18 19  1  0
 19 20  2  0
 20  9  1  0
  9 10  2  0
 10 11  1  0
 11 12  2  0
 12  1  1  0
  1  2  2  0
  2  3  1  0
  3 22  1  0
 22 23  2  0
 22 24  1  0
 24 26  1  0
 26 27  1  0
 27 28  1  0
  3  4  2  0
  4  5  1  0
  4  6  1  0
  6  7  2  0
  7  8  1  0
 12 13  1  0
 13 14  1  0
 13 15  2  0
 20 21  1  0
 21 17  1  0
 15  9  1  0
  7  1  1  0
 28 26  1  0
 24 25  1  0
M  END
> <minimizedAffinity>
-7.80356

> <CNNscore>
0.4316656888

> <CNNaffinity>
6.3719305992

> <CNN_VS>
2.7505438328

> <CNNaffinity_variance>
0.0910461619

$$$$



 28 31  0  0  0  0  0  0  0  0999 V2000
   49.1989   35.2994   29.2076 C   0  0  0  0  0  0  0  0  0  0  0  0
   49.1274   36.3823   28.3135 C   0  0  0  0  0  0  0  0  0  0  0  0
   50.2473   36.8076   27.5810 C   0  0  0  0  0  0  0  0  0  0  0  0
   51.4584   36.1261   27.7248 C   0  0  0  0  0  0  0  0  0  0  0  0
   53.0213   36.5335   26.7248 Br  0  0  0  0  0  0  0  0  0  0  0  0
   51.5453   35.0485   28.6152 C   0  0  0  0  0  0  0  0  0  0  0  0
   50.4298   34.6276   29.3608 C   0  0  0  0  0  0  0  0  0  0  0  0
   50.5756   33.4586   30.3003 C   0  0  0  0  0  0  0  0  0  0  0  0
   45.6757   34.2362   31.4538 C   0  0  0  0  0  0  0  0  0  0  0  0
   46.6109   35.1499   31.9519 C   0  0  0  0  0  0  0  0  0  0  0  0
   47.7485   35.4831   31.2116 C   0  0  0  0  0  0  0  0  0  0  0  0
   47.9903   34.9082   29.9527 C   0  0  0  0  0  0  0  0  0  0  0  0
   47.0562   33.9821   29.4406 C   0  0  0  0  0  0  0  0  0  0  0  0
   47.2421   33.3418   28.0895 C   0  0  0  0  0  0  0  0  0  0  0  0
   45.9101   33.6624   30.1950 C   0  0  0  0  0  0  0  0  0  0  0  0
   41.6053   31.9195   32.5612 C   0  0  0  0  0  0  0  0  0  0  0  0
   42.6982   32.8891   32.7387 C   0  0  0  0  0  0  0  0  0  0  0  0
   42.9033   33.7579   33.7040 N   0  0  0  0  0  0  0  0  0  0  0  0
   44.0703   34.4211   33.3836 N   0  0  0  0  0  0  0  0  0  0  0  0
   44.4959   33.9097   32.2450 C   0  0  0  0  0  0  0  0  0  0  0  0
   43.6672   32.9221   31.7733 O   0  0  0  0  0  0  0  0  0  0  0  0
   50.0322   37.9646   26.6772 C   0  0  0  0  0  0  0  0  0  0  0  0
   50.1265   39.1032   27.1236 O   0  0  0  0  0  0  0  0  0  0  0  0
   49.8042   37.6668   25.3495 N   0  0  0  0  0  0  0  0  0  0  0  0
   49.8031   36.7237   25.0673 H   0  0  0  0  0  0  0  0  0  0  0  0
   49.5700   38.6791   24.3711 C   0  0  0  0  0  0  0  0  0  0  0  0
   48.6699   38.4161   23.1949 C   0  0  0  0  0  0  0  0  0  0  0  0
   48.2290   39.3527   24.2809 C   0  0  0  0  0  0  0  0  0  0  0  0
 16 17  1  0
 17 18  2  0
 18 19  1  0
 19 20  2  0
 20  9  1  0
  9 10  2  0
 10 11  1  0
 11 12  2  0
 12  1  1  0
  1  2  2  0
  2  3  1  0
  3 22  1  0
 22 23  2  0
 22 24  1  0
 24 26  1  0
 26 27  1  0
 27 28  1  0
  3  4  2  0
  4  5  1  0
  4  6  1  0
  6  7  2  0
  7  8  1  0
 12 13  1  0
 13 14  1  0
 13 15  2  0
 20 21  1  0
 21 17  1  0
 15  9  1  0
  7  1  1  0
 28 26  1  0
 24 25  1  0
M  END
> <minimizedAffinity>
-5.11970

> <CNNscore>
0.4057143331

> <CNNaffinity>
6.4570102692

> <CNN_VS>
2.6197016239

> <CNNaffinity_variance>
0.1570149064

$$$$



 28 31  0  0  0  0  0  0  0  0999 V2000
   46.2377   20.9457   30.0356 C   0  0  0  0  0  0  0  0  0  0  0  0
   47.1083   21.8141   30.7176 C   0  0  0  0  0  0  0  0  0  0  0  0
   48.3820   21.3992   31.1383 C   0  0  0  0  0  0  0  0  0  0  0  0
   48.8068   20.0989   30.8541 C   0  0  0  0  0  0  0  0  0  0  0  0
   50.5373   19.4400   31.2783 Br  0  0  0  0  0  0  0  0  0  0  0  0
   47.9484   19.2217   30.1794 C   0  0  0  0  0  0  0  0  0  0  0  0
   46.6669   19.6288   29.7680 C   0  0  0  0  0  0  0  0  0  0  0  0
   45.7853   18.6475   29.0399 C   0  0  0  0  0  0  0  0  0  0  0  0
   42.3291   22.4034   28.9465 C   0  0  0  0  0  0  0  0  0  0  0  0
   42.6227   22.0103   30.2567 C   0  0  0  0  0  0  0  0  0  0  0  0
   43.8946   21.5389   30.5932 C   0  0  0  0  0  0  0  0  0  0  0  0
   44.9112   21.4396   29.6288 C   0  0  0  0  0  0  0  0  0  0  0  0
   44.6267   21.8295   28.3023 C   0  0  0  0  0  0  0  0  0  0  0  0
   45.6746   21.7675   27.2215 C   0  0  0  0  0  0  0  0  0  0  0  0
   43.3422   22.3103   27.9802 C   0  0  0  0  0  0  0  0  0  0  0  0
   38.8250   24.1492   26.1473 C   0  0  0  0  0  0  0  0  0  0  0  0
   39.4446   23.6656   27.3916 C   0  0  0  0  0  0  0  0  0  0  0  0
   38.9312   23.5478   28.5962 N   0  0  0  0  0  0  0  0  0  0  0  0
   39.9380   23.0480   29.3968 N   0  0  0  0  0  0  0  0  0  0  0  0
   40.9955   22.8951   28.6237 C   0  0  0  0  0  0  0  0  0  0  0  0
   40.7526   23.2697   27.3256 O   0  0  0  0  0  0  0  0  0  0  0  0
   49.1950   22.4159   31.8504 C   0  0  0  0  0  0  0  0  0  0  0  0
   49.1010   22.5164   33.0692 O   0  0  0  0  0  0  0  0  0  0  0  0
   50.0725   23.1462   31.0758 N   0  0  0  0  0  0  0  0  0  0  0  0
   50.1244   22.9584   30.1108 H   0  0  0  0  0  0  0  0  0  0  0  0
   50.9077   24.1647   31.6253 C   0  0  0  0  0  0  0  0  0  0  0  0
   52.3622   23.8986   31.9016 C   0  0  0  0  0  0  0  0  0  0  0  0
   51.9680   24.8153   30.7812 C   0  0  0  0  0  0  0  0  0  0  0  0
 16 17  1  0
 17 18  2  0
 18 19  1  0
 19 20  2  0
 20  9  1  0
  9 10  2  0
 10 11  1  0
 11 12  2  0
 12  1  1  0
  1  2  2  0
  2  3  1  0
  3 22  1  0
 22 23  2  0
 22 24  1  0
 24 26  1  0
 26 27  1  0
 27 28  1  0
  3  4  2  0
  4  5  1  0
  4  6  1  0
  6  7  2  0
  7  8  1  0
 12 13  1  0
 13 14  1  0
 13 15  2  0
 20 21  1  0
 21 17  1  0
 15  9  1  0
  7  1  1  0
 28 26  1  0
 24 25  1  0
M  END
> <minimizedAffinity>
-4.95003

> <CNNscore>
0.3560278714

> <CNNaffinity>
5.3295021057

> <CNN_VS>
1.8974512815

> <CNNaffinity_variance>
0.3562764227

$$$$



 28 31  0  0  0  0  0  0  0  0999 V2000
   48.0799   20.5511   28.5010 C   0  0  0  0  0  0  0  0  0  0  0  0
   48.2685   21.3127   29.6679 C   0  0  0  0  0  0  0  0  0  0  0  0
   47.3474   21.2775   30.7271 C   0  0  0  0  0  0  0  0  0  0  0  0
   46.2262   20.4494   30.6319 C   0  0  0  0  0  0  0  0  0  0  0  0
   44.9554   20.2328   32.0272 Br  0  0  0  0  0  0  0  0  0  0  0  0
   46.0233   19.6887   29.4735 C   0  0  0  0  0  0  0  0  0  0  0  0
   46.9362   19.7310   28.4049 C   0  0  0  0  0  0  0  0  0  0  0  0
   46.6739   18.8880   27.1837 C   0  0  0  0  0  0  0  0  0  0  0  0
   50.9678   20.9048   25.3193 C   0  0  0  0  0  0  0  0  0  0  0  0
   49.8828   21.7822   25.4212 C   0  0  0  0  0  0  0  0  0  0  0  0
   48.9548   21.6533   26.4581 C   0  0  0  0  0  0  0  0  0  0  0  0
   49.0788   20.6391   27.4223 C   0  0  0  0  0  0  0  0  0  0  0  0
   50.1671   19.7451   27.3285 C   0  0  0  0  0  0  0  0  0  0  0  0
   50.3726   18.6461   28.3385 C   0  0  0  0  0  0  0  0  0  0  0  0
   51.0989   19.8927   26.2822 C   0  0  0  0  0  0  0  0  0  0  0  0
   53.8235   23.2878   22.2650 C   0  0  0  0  0  0  0  0  0  0  0  0
   53.1862   22.1120   22.8794 C   0  0  0  0  0  0  0  0  0  0  0  0
   53.3176   20.8364   22.5894 N   0  0  0  0  0  0  0  0  0  0  0  0
   52.4974   20.1557   23.4659 N   0  0  0  0  0  0  0  0  0  0  0  0
   51.9232   21.0643   24.2301 C   0  0  0  0  0  0  0  0  0  0  0  0
   52.3182   22.3400   23.9122 O   0  0  0  0  0  0  0  0  0  0  0  0
   47.6677   22.1332   31.8962 C   0  0  0  0  0  0  0  0  0  0  0  0
   48.3084   21.6620   32.8300 O   0  0  0  0  0  0  0  0  0  0  0  0
   47.2701   23.4518   31.8136 N   0  0  0  0  0  0  0  0  0  0  0  0
   46.8108   23.7596   30.9991 H   0  0  0  0  0  0  0  0  0  0  0  0
   47.5018   24.3848   32.8684 C   0  0  0  0  0  0  0  0  0  0  0  0
   46.8381   25.7347   32.8587 C   0  0  0  0  0  0  0  0  0  0  0  0
   46.4142   24.6986   33.8577 C   0  0  0  0  0  0  0  0  0  0  0  0
 16 17  1  0
 17 18  2  0
 18 19  1  0
 19 20  2  0
 20  9  1  0
  9 10  2  0
 10 11  1  0
 11 12  2  0
 12  1  1  0
  1  2  2  0
  2  3  1  0
  3 22  1  0
 22 23  2  0
 22 24  1  0
 24 26  1  0
 26 27  1  0
 27 28  1  0
  3  4  2  0
  4  5  1  0
  4  6  1  0
  6  7  2  0
  7  8  1  0
 12 13  1  0
 13 14  1  0
 13 15  2  0
 20 21  1  0
 21 17  1  0
 15  9  1  0
  7  1  1  0
 28 26  1  0
 24 25  1  0
M  END
> <minimizedAffinity>
-3.70297

> <CNNscore>
0.3035022616

> <CNNaffinity>
5.4018287659

> <CNN_VS>
1.6394672394

> <CNNaffinity_variance>
0.0797459111

$$$$



 28 31  0  0  0  0  0  0  0  0999 V2000
   44.0478   31.8699   31.3735 C   0  0  0  0  0  0  0  0  0  0  0  0
   44.0479   30.4757   31.1909 C   0  0  0  0  0  0  0  0  0  0  0  0
   43.0130   29.6677   31.6887 C   0  0  0  0  0  0  0  0  0  0  0  0
   41.9439   30.2629   32.3630 C   0  0  0  0  0  0  0  0  0  0  0  0
   40.4346   29.3017   33.0006 Br  0  0  0  0  0  0  0  0  0  0  0  0
   41.9329   31.6501   32.5561 C   0  0  0  0  0  0  0  0  0  0  0  0
   42.9738   32.4616   32.0710 C   0  0  0  0  0  0  0  0  0  0  0  0
   42.9102   33.9494   32.3004 C   0  0  0  0  0  0  0  0  0  0  0  0
   47.2687   34.2025   29.7083 C   0  0  0  0  0  0  0  0  0  0  0  0
   46.1995   33.7658   28.9187 C   0  0  0  0  0  0  0  0  0  0  0  0
   45.1636   33.0094   29.4737 C   0  0  0  0  0  0  0  0  0  0  0  0
   45.1674   32.6603   30.8344 C   0  0  0  0  0  0  0  0  0  0  0  0
   46.2424   33.0915   31.6411 C   0  0  0  0  0  0  0  0  0  0  0  0
   46.3015   32.7700   33.1119 C   0  0  0  0  0  0  0  0  0  0  0  0
   47.2752   33.8602   31.0691 C   0  0  0  0  0  0  0  0  0  0  0  0
   49.2968   38.0839   27.7124 C   0  0  0  0  0  0  0  0  0  0  0  0
   49.2342   36.7051   28.2234 C   0  0  0  0  0  0  0  0  0  0  0  0
   50.1689   35.7815   28.2683 N   0  0  0  0  0  0  0  0  0  0  0  0
   49.5847   34.6697   28.8400 N   0  0  0  0  0  0  0  0  0  0  0  0
   48.3339   34.9934   29.1048 C   0  0  0  0  0  0  0  0  0  0  0  0
   48.0387   36.2829   28.7376 O   0  0  0  0  0  0  0  0  0  0  0  0
   43.1412   28.2126   31.4281 C   0  0  0  0  0  0  0  0  0  0  0  0
   42.3782   27.6735   30.6333 O   0  0  0  0  0  0  0  0  0  0  0  0
   44.1827   27.5689   32.0640 N   0  0  0  0  0  0  0  0  0  0  0  0
   44.7840   28.0931   32.6410 H   0  0  0  0  0  0  0  0  0  0  0  0
   44.4184   26.1694   31.9143 C   0  0  0  0  0  0  0  0  0  0  0  0
   45.6607   25.6691   31.2293 C   0  0  0  0  0  0  0  0  0  0  0  0
   45.4986   25.4913   32.7103 C   0  0  0  0  0  0  0  0  0  0  0  0
 16 17  1  0
 17 18  2  0
 18 19  1  0
 19 20  2  0
 20  9  1  0
  9 10  2  0
 10 11  1  0
 11 12  2  0
 12  1  1  0
  1  2  2  0
  2  3  1  0
  3 22  1  0
 22 23  2  0
 22 24  1  0
 24 26  1  0
 26 27  1  0
 27 28  1  0
  3  4  2  0
  4  5  1  0
  4  6  1  0
  6  7  2  0
  7  8  1  0
 12 13  1  0
 13 14  1  0
 13 15  2  0
 20 21  1  0
 21 17  1  0
 15  9  1  0
  7  1  1  0
 28 26  1  0
 24 25  1  0
M  END
> <minimizedAffinity>
-8.25882

> <CNNscore>
0.2912535369

> <CNNaffinity>
6.5161628723

> <CNN_VS>
1.8978555202

> <CNNaffinity_variance>
0.0655259714

$$$$



 28 31  0  0  0  0  0  0  0  0999 V2000
   41.2159   30.8301   31.6870 C   0  0  0  0  0  0  0  0  0  0  0  0
   42.5476   31.1116   32.0397 C   0  0  0  0  0  0  0  0  0  0  0  0
   43.3868   31.8666   31.2045 C   0  0  0  0  0  0  0  0  0  0  0  0
   42.8826   32.3709   30.0032 C   0  0  0  0  0  0  0  0  0  0  0  0
   43.8766   33.4856   28.8292 Br  0  0  0  0  0  0  0  0  0  0  0  0
   41.5592   32.0946   29.6370 C   0  0  0  0  0  0  0  0  0  0  0  0
   40.7194   31.3278   30.4640 C   0  0  0  0  0  0  0  0  0  0  0  0
   39.3018   31.0649   30.0260 C   0  0  0  0  0  0  0  0  0  0  0  0
   38.7757   28.4083   34.2887 C   0  0  0  0  0  0  0  0  0  0  0  0
   38.7178   28.2718   32.8975 C   0  0  0  0  0  0  0  0  0  0  0  0
   39.5147   29.0655   32.0680 C   0  0  0  0  0  0  0  0  0  0  0  0
   40.3900   30.0252   32.6030 C   0  0  0  0  0  0  0  0  0  0  0  0
   40.4551   30.1753   34.0050 C   0  0  0  0  0  0  0  0  0  0  0  0
   41.3853   31.1711   34.6479 C   0  0  0  0  0  0  0  0  0  0  0  0
   39.6516   29.3624   34.8286 C   0  0  0  0  0  0  0  0  0  0  0  0
   37.7958   24.9724   37.5130 C   0  0  0  0  0  0  0  0  0  0  0  0
   37.4987   26.0490   36.5546 C   0  0  0  0  0  0  0  0  0  0  0  0
   36.3410   26.5535   36.1887 N   0  0  0  0  0  0  0  0  0  0  0  0
   36.6247   27.5376   35.2638 N   0  0  0  0  0  0  0  0  0  0  0  0
   37.9365   27.5650   35.1308 C   0  0  0  0  0  0  0  0  0  0  0  0
   38.5623   26.6393   35.9283 O   0  0  0  0  0  0  0  0  0  0  0  0
   44.7692   32.0848   31.6973 C   0  0  0  0  0  0  0  0  0  0  0  0
   45.3250   31.2021   32.3427 O   0  0  0  0  0  0  0  0  0  0  0  0
   45.3697   33.2694   31.3236 N   0  0  0  0  0  0  0  0  0  0  0  0
   44.8690   33.8970   30.7537 H   0  0  0  0  0  0  0  0  0  0  0  0
   46.6916   33.6163   31.7346 C   0  0  0  0  0  0  0  0  0  0  0  0
   47.6325   34.3103   30.7882 C   0  0  0  0  0  0  0  0  0  0  0  0
   47.0641   35.0552   31.9600 C   0  0  0  0  0  0  0  0  0  0  0  0
 16 17  1  0
 17 18  2  0
 18 19  1  0
 19 20  2  0
 20  9  1  0
  9 10  2  0
 10 11  1  0
 11 12  2  0
 12  1  1  0
  1  2  2  0
  2  3  1  0
  3 22  1  0
 22 23  2  0
 22 24  1  0
 24 26  1  0
 26 27  1  0
 27 28  1  0
  3  4  2  0
  4  5  1  0
  4  6  1  0
  6  7  2  0
  7  8  1  0
 12 13  1  0
 13 14  1  0
 13 15  2  0
 20 21  1  0
 21 17  1  0
 15  9  1  0
  7  1  1  0
 28 26  1  0
 24 25  1  0
M  END
> <minimizedAffinity>
0.03943

> <CNNscore>
0.2733608484

> <CNNaffinity>
6.5490798950

> <CNN_VS>
1.7902619839

> <CNNaffinity_variance>
0.0859424844

$$$$
