


 20 20  0  0  0  0  0  0  0  0999 V2000
  -31.5308   -5.8975   36.7505 C   0  0  0  0  0  0  0  0  0  0  0  0
  -32.8152   -5.6462   37.5124 N   0  0  0  0  0  0  0  0  0  0  0  0
  -33.9896   -6.4591   37.0469 C   0  0  0  0  0  0  0  0  0  0  0  0
  -34.3439   -6.0912   35.5824 C   0  0  0  0  0  0  0  0  0  0  0  0
  -33.1133   -5.4862   34.8346 C   0  0  0  0  0  0  0  0  0  0  0  0
  -31.8275   -6.2291   35.2612 C   0  0  0  0  0  0  0  0  0  0  0  0
  -33.0537   -4.6591   37.4165 H   0  0  0  0  0  0  0  0  0  0  0  0
  -32.6369   -5.9235   38.4777 H   0  0  0  0  0  0  0  0  0  0  0  0
  -35.4502   -5.1799   35.5517 O   0  0  0  0  0  0  0  0  0  0  0  0
  -36.2436   -5.3020   34.3735 C   0  0  0  0  0  0  0  0  0  0  0  0
  -32.9265   -4.1009   35.1913 O   0  0  0  0  0  0  0  0  0  0  0  0
  -32.7335   -3.2498   34.0644 C   0  0  0  0  0  0  0  0  0  0  0  0
  -31.9934   -7.6426   35.0899 O   0  0  0  0  0  0  0  0  0  0  0  0
  -32.2309   -8.0215   33.7347 C   0  0  0  0  0  0  0  0  0  0  0  0
  -30.7233   -6.9635   37.5054 C   0  0  0  0  0  0  0  0  0  0  0  0
  -28.9587   -5.4044   37.7342 C   0  0  0  0  0  0  0  0  0  0  0  0
  -29.8625   -6.2683   38.4206 O   0  0  0  0  0  0  0  0  0  0  0  0
  -35.1246   -6.2679   38.0625 C   0  0  0  0  0  0  0  0  0  0  0  0
  -34.9937   -7.3101   39.0423 O   0  0  0  0  0  0  0  0  0  0  0  0
  -36.0303   -7.2395   40.0195 C   0  0  0  0  0  0  0  0  0  0  0  0
 16 17  1  0
 17 15  1  0
  1 15  1  0
  1  2  1  0
  2  3  1  0
  3 18  1  0
 18 19  1  0
 19 20  1  0
  3  4  1  0
  4  9  1  0
  9 10  1  0
  4  5  1  0
  5 11  1  0
 11 12  1  0
  5  6  1  0
  6 13  1  0
 13 14  1  0
  6  1  1  0
  2  7  1  0
  2  8  1  0
M  CHG 1   2   1
M  END
> <minimizedAffinity>
-3.32747

> <CNNscore>
0.5412625074

> <CNNaffinity>
3.4606449604

> <CNN_VS>
1.8731173277

> <CNNaffinity_variance>
0.9333758950

$$$$



 20 20  0  0  0  0  0  0  0  0999 V2000
  -31.8719   -4.8931   35.3570 C   0  0  0  0  0  0  0  0  0  0  0  0
  -33.2177   -4.8803   36.0511 N   0  0  0  0  0  0  0  0  0  0  0  0
  -34.2031   -5.8857   35.5268 C   0  0  0  0  0  0  0  0  0  0  0  0
  -34.5420   -5.5756   34.0454 C   0  0  0  0  0  0  0  0  0  0  0  0
  -33.4024   -4.7554   33.3612 C   0  0  0  0  0  0  0  0  0  0  0  0
  -32.0283   -5.2608   33.8548 C   0  0  0  0  0  0  0  0  0  0  0  0
  -33.6231   -3.9508   35.9414 H   0  0  0  0  0  0  0  0  0  0  0  0
  -33.0424   -5.1288   37.0247 H   0  0  0  0  0  0  0  0  0  0  0  0
  -35.7899   -4.8756   33.9563 O   0  0  0  0  0  0  0  0  0  0  0  0
  -36.5486   -5.2287   32.8019 C   0  0  0  0  0  0  0  0  0  0  0  0
  -33.4839   -3.3618   33.7249 O   0  0  0  0  0  0  0  0  0  0  0  0
  -33.5712   -2.4901   32.6007 C   0  0  0  0  0  0  0  0  0  0  0  0
  -31.9306   -6.6799   33.6774 O   0  0  0  0  0  0  0  0  0  0  0  0
  -31.9093   -7.0758   32.3066 C   0  0  0  0  0  0  0  0  0  0  0  0
  -30.9269   -5.8040   36.1542 C   0  0  0  0  0  0  0  0  0  0  0  0
  -29.1574   -5.5187   37.6983 C   0  0  0  0  0  0  0  0  0  0  0  0
  -30.4183   -5.0262   37.2489 O   0  0  0  0  0  0  0  0  0  0  0  0
  -35.4044   -5.9075   36.4822 C   0  0  0  0  0  0  0  0  0  0  0  0
  -36.0544   -7.1773   36.3135 O   0  0  0  0  0  0  0  0  0  0  0  0
  -37.4683   -7.0625   36.4624 C   0  0  0  0  0  0  0  0  0  0  0  0
 16 17  1  0
 17 15  1  0
  1 15  1  0
  1  2  1  0
  2  3  1  0
  3 18  1  0
 18 19  1  0
 19 20  1  0
  3  4  1  0
  4  9  1  0
  9 10  1  0
  4  5  1  0
  5 11  1  0
 11 12  1  0
  5  6  1  0
  6 13  1  0
 13 14  1  0
  6  1  1  0
  2  7  1  0
  2  8  1  0
M  CHG 1   2   1
M  END
> <minimizedAffinity>
-3.37395

> <CNNscore>
0.4729783237

> <CNNaffinity>
3.5683796406

> <CNN_VS>
1.6877661943

> <CNNaffinity_variance>
0.7567222714

$$$$



 20 20  0  0  0  0  0  0  0  0999 V2000
  -32.7652   -6.7389   35.2429 C   0  0  0  0  0  0  0  0  0  0  0  0
  -32.0204   -6.4002   36.5172 N   0  0  0  0  0  0  0  0  0  0  0  0
  -30.8189   -7.2602   36.7886 C   0  0  0  0  0  0  0  0  0  0  0  0
  -31.2551   -8.7350   36.9895 C   0  0  0  0  0  0  0  0  0  0  0  0
  -32.6265   -9.0213   36.2992 C   0  0  0  0  0  0  0  0  0  0  0  0
  -32.7007   -8.2649   34.9540 C   0  0  0  0  0  0  0  0  0  0  0  0
  -32.6669   -6.5012   37.2996 H   0  0  0  0  0  0  0  0  0  0  0  0
  -31.6737   -5.4476   36.4041 H   0  0  0  0  0  0  0  0  0  0  0  0
  -31.3189   -9.0492   38.3868 O   0  0  0  0  0  0  0  0  0  0  0  0
  -32.3072   -8.2957   39.0855 C   0  0  0  0  0  0  0  0  0  0  0  0
  -33.7187   -8.5348   37.1064 O   0  0  0  0  0  0  0  0  0  0  0  0
  -34.9475   -9.2139   36.8604 C   0  0  0  0  0  0  0  0  0  0  0  0
  -31.5535   -8.5709   34.1508 O   0  0  0  0  0  0  0  0  0  0  0  0
  -31.7946   -9.6026   33.1948 C   0  0  0  0  0  0  0  0  0  0  0  0
  -32.2292   -5.8412   34.1181 C   0  0  0  0  0  0  0  0  0  0  0  0
  -32.5283   -3.5026   34.3137 C   0  0  0  0  0  0  0  0  0  0  0  0
  -31.7628   -4.6304   34.7334 O   0  0  0  0  0  0  0  0  0  0  0  0
  -30.0528   -6.6383   37.9645 C   0  0  0  0  0  0  0  0  0  0  0  0
  -30.4206   -5.2509   38.0208 O   0  0  0  0  0  0  0  0  0  0  0  0
  -30.8400   -4.8760   39.3314 C   0  0  0  0  0  0  0  0  0  0  0  0
 16 17  1  0
 17 15  1  0
  1 15  1  0
  1  2  1  0
  2  3  1  0
  3 18  1  0
 18 19  1  0
 19 20  1  0
  3  4  1  0
  4  9  1  0
  9 10  1  0
  4  5  1  0
  5 11  1  0
 11 12  1  0
  5  6  1  0
  6 13  1  0
 13 14  1  0
  6  1  1  0
  2  7  1  0
  2  8  1  0
M  CHG 1   2   1
M  END
> <minimizedAffinity>
-3.17730

> <CNNscore>
0.3115561008

> <CNNaffinity>
3.1914412975

> <CNN_VS>
0.9943130016

> <CNNaffinity_variance>
0.8716642261

$$$$



 20 20  0  0  0  0  0  0  0  0999 V2000
  -29.3266   -0.8119   25.3714 C   0  0  0  0  0  0  0  0  0  0  0  0
  -30.6315   -1.2044   26.0320 N   0  0  0  0  0  0  0  0  0  0  0  0
  -30.4942   -1.7098   27.4400 C   0  0  0  0  0  0  0  0  0  0  0  0
  -29.6574   -3.0156   27.4570 C   0  0  0  0  0  0  0  0  0  0  0  0
  -28.7315   -3.1137   26.2031 C   0  0  0  0  0  0  0  0  0  0  0  0
  -28.1633   -1.7175   25.8643 C   0  0  0  0  0  0  0  0  0  0  0  0
  -31.0634   -1.9389   25.4713 H   0  0  0  0  0  0  0  0  0  0  0  0
  -31.1953   -0.3559   26.0838 H   0  0  0  0  0  0  0  0  0  0  0  0
  -30.5194   -4.1583   27.5377 O   0  0  0  0  0  0  0  0  0  0  0  0
  -30.1937   -5.0301   28.6177 C   0  0  0  0  0  0  0  0  0  0  0  0
  -29.4777   -3.5467   25.0469 O   0  0  0  0  0  0  0  0  0  0  0  0
  -28.8087   -4.5504   24.2877 C   0  0  0  0  0  0  0  0  0  0  0  0
  -27.5416   -1.1427   27.0210 O   0  0  0  0  0  0  0  0  0  0  0  0
  -26.1466   -0.8972   26.8469 C   0  0  0  0  0  0  0  0  0  0  0  0
  -29.1128    0.6939   25.5833 C   0  0  0  0  0  0  0  0  0  0  0  0
  -30.8158    2.3337   25.4923 C   0  0  0  0  0  0  0  0  0  0  0  0
  -30.0645    1.3745   24.7508 O   0  0  0  0  0  0  0  0  0  0  0  0
  -31.9042   -1.8284   28.0355 C   0  0  0  0  0  0  0  0  0  0  0  0
  -32.6403   -0.6707   27.6099 O   0  0  0  0  0  0  0  0  0  0  0  0
  -34.0380   -0.9430   27.5288 C   0  0  0  0  0  0  0  0  0  0  0  0
 16 17  1  0
 17 15  1  0
  1 15  1  0
  1  2  1  0
  2  3  1  0
  3 18  1  0
 18 19  1  0
 19 20  1  0
  3  4  1  0
  4  9  1  0
  9 10  1  0
  4  5  1  0
  5 11  1  0
 11 12  1  0
  5  6  1  0
  6 13  1  0
 13 14  1  0
  6  1  1  0
  2  7  1  0
  2  8  1  0
M  CHG 1   2   1
M  END
> <minimizedAffinity>
-3.26920

> <CNNscore>
0.1914155781

> <CNNaffinity>
3.1203708649

> <CNN_VS>
0.5972875953

> <CNNaffinity_variance>
0.6530282497

$$$$



 20 20  0  0  0  0  0  0  0  0999 V2000
  -30.1466   -0.1648   25.8105 C   0  0  0  0  0  0  0  0  0  0  0  0
  -30.3645   -1.6633   25.8314 N   0  0  0  0  0  0  0  0  0  0  0  0
  -29.7473   -2.3702   27.0045 C   0  0  0  0  0  0  0  0  0  0  0  0
  -28.2045   -2.2159   26.9667 C   0  0  0  0  0  0  0  0  0  0  0  0
  -27.7791   -0.9557   26.1479 C   0  0  0  0  0  0  0  0  0  0  0  0
  -28.7654    0.2014   26.4225 C   0  0  0  0  0  0  0  0  0  0  0  0
  -29.9650   -2.0545   24.9783 H   0  0  0  0  0  0  0  0  0  0  0  0
  -31.3716   -1.8073   25.9051 H   0  0  0  0  0  0  0  0  0  0  0  0
  -27.5992   -3.3970   26.4247 O   0  0  0  0  0  0  0  0  0  0  0  0
  -26.3257   -3.6863   26.9966 C   0  0  0  0  0  0  0  0  0  0  0  0
  -27.8384   -1.2204   24.7311 O   0  0  0  0  0  0  0  0  0  0  0  0
  -26.7481   -0.6571   24.0063 C   0  0  0  0  0  0  0  0  0  0  0  0
  -28.8894    0.4211   27.8336 O   0  0  0  0  0  0  0  0  0  0  0  0
  -27.9820    1.4032   28.3323 C   0  0  0  0  0  0  0  0  0  0  0  0
  -31.3536    0.5072   26.4812 C   0  0  0  0  0  0  0  0  0  0  0  0
  -33.4619    1.2200   25.6789 C   0  0  0  0  0  0  0  0  0  0  0  0
  -32.0530    1.2321   25.4577 O   0  0  0  0  0  0  0  0  0  0  0  0
  -30.2605   -3.8170   27.0033 C   0  0  0  0  0  0  0  0  0  0  0  0
  -31.4974   -3.8251   26.2730 O   0  0  0  0  0  0  0  0  0  0  0  0
  -32.3795   -4.8375   26.7538 C   0  0  0  0  0  0  0  0  0  0  0  0
 16 17  1  0
 17 15  1  0
  1 15  1  0
  1  2  1  0
  2  3  1  0
  3 18  1  0
 18 19  1  0
 19 20  1  0
  3  4  1  0
  4  9  1  0
  9 10  1  0
  4  5  1  0
  5 11  1  0
 11 12  1  0
  5  6  1  0
  6 13  1  0
 13 14  1  0
  6  1  1  0
  2  7  1  0
  2  8  1  0
M  CHG 1   2   1
M  END
> <minimizedAffinity>
-3.25741

> <CNNscore>
0.1728651226

> <CNNaffinity>
2.9860031605

> <CNN_VS>
0.5161758065

> <CNNaffinity_variance>
0.9680926204

$$$$



 20 20  0  0  0  0  0  0  0  0999 V2000
  -30.0614    0.1274   27.0599 C   0  0  0  0  0  0  0  0  0  0  0  0
  -28.9438   -0.8864   27.1878 N   0  0  0  0  0  0  0  0  0  0  0  0
  -28.8234   -1.8361   26.0300 C   0  0  0  0  0  0  0  0  0  0  0  0
  -30.1049   -2.7025   25.9173 C   0  0  0  0  0  0  0  0  0  0  0  0
  -31.3286   -1.9966   26.5834 C   0  0  0  0  0  0  0  0  0  0  0  0
  -31.2733   -0.4791   26.2986 C   0  0  0  0  0  0  0  0  0  0  0  0
  -29.1067   -1.4343   28.0326 H   0  0  0  0  0  0  0  0  0  0  0  0
  -28.0739   -0.3547   27.2164 H   0  0  0  0  0  0  0  0  0  0  0  0
  -29.8868   -3.9925   26.5034 O   0  0  0  0  0  0  0  0  0  0  0  0
  -29.4914   -3.9261   27.8716 C   0  0  0  0  0  0  0  0  0  0  0  0
  -31.2905   -2.1485   28.0175 O   0  0  0  0  0  0  0  0  0  0  0  0
  -32.5838   -2.1802   28.6155 C   0  0  0  0  0  0  0  0  0  0  0  0
  -31.1437   -0.2447   24.8903 O   0  0  0  0  0  0  0  0  0  0  0  0
  -32.3907    0.0096   24.2448 C   0  0  0  0  0  0  0  0  0  0  0  0
  -29.4816    1.4088   26.4435 C   0  0  0  0  0  0  0  0  0  0  0  0
  -27.6373    2.6946   27.1798 C   0  0  0  0  0  0  0  0  0  0  0  0
  -28.0746    1.4135   26.7305 O   0  0  0  0  0  0  0  0  0  0  0  0
  -27.5155   -2.6214   26.2014 C   0  0  0  0  0  0  0  0  0  0  0  0
  -26.6777   -1.8577   27.0836 O   0  0  0  0  0  0  0  0  0  0  0  0
  -25.6326   -1.2001   26.3699 C   0  0  0  0  0  0  0  0  0  0  0  0
 16 17  1  0
 17 15  1  0
  1 15  1  0
  1  2  1  0
  2  3  1  0
  3 18  1  0
 18 19  1  0
 19 20  1  0
  3  4  1  0
  4  9  1  0
  9 10  1  0
  4  5  1  0
  5 11  1  0
 11 12  1  0
  5  6  1  0
  6 13  1  0
 13 14  1  0
  6  1  1  0
  2  7  1  0
  2  8  1  0
M  CHG 1   2   1
M  END
> <minimizedAffinity>
-3.52008

> <CNNscore>
0.1689422280

> <CNNaffinity>
2.8879077435

> <CNN_VS>
0.4878895581

> <CNNaffinity_variance>
1.2169073820

$$$$



 20 20  0  0  0  0  0  0  0  0999 V2000
  -35.5072    8.2945   17.4440 C   0  0  0  0  0  0  0  0  0  0  0  0
  -34.9803    7.9731   18.8270 N   0  0  0  0  0  0  0  0  0  0  0  0
  -35.2425    6.5671   19.2866 C   0  0  0  0  0  0  0  0  0  0  0  0
  -36.7697    6.3210   19.4003 C   0  0  0  0  0  0  0  0  0  0  0  0
  -37.5731    7.3032   18.4898 C   0  0  0  0  0  0  0  0  0  0  0  0
  -36.8197    7.5128   17.1573 C   0  0  0  0  0  0  0  0  0  0  0  0
  -35.4190    8.6115   19.4905 H   0  0  0  0  0  0  0  0  0  0  0  0
  -33.9667    8.0772   18.7808 H   0  0  0  0  0  0  0  0  0  0  0  0
  -37.1926    6.4387   20.7650 O   0  0  0  0  0  0  0  0  0  0  0  0
  -38.0451    5.3741   21.1807 C   0  0  0  0  0  0  0  0  0  0  0  0
  -37.6847    8.6015   19.1087 O   0  0  0  0  0  0  0  0  0  0  0  0
  -39.0226    8.9457   19.4592 C   0  0  0  0  0  0  0  0  0  0  0  0
  -36.5229    6.2473   16.5528 O   0  0  0  0  0  0  0  0  0  0  0  0
  -37.3048    5.9821   15.3889 C   0  0  0  0  0  0  0  0  0  0  0  0
  -34.3768    8.0607   16.4312 C   0  0  0  0  0  0  0  0  0  0  0  0
  -34.9499   10.1457   15.4713 C   0  0  0  0  0  0  0  0  0  0  0  0
  -34.7401    8.7560   15.2285 O   0  0  0  0  0  0  0  0  0  0  0  0
  -34.4450    6.3395   20.5784 C   0  0  0  0  0  0  0  0  0  0  0  0
  -33.7349    5.1006   20.4228 O   0  0  0  0  0  0  0  0  0  0  0  0
  -32.9221    4.8197   21.5606 C   0  0  0  0  0  0  0  0  0  0  0  0
 16 17  1  0
 17 15  1  0
  1 15  1  0
  1  2  1  0
  2  3  1  0
  3 18  1  0
 18 19  1  0
 19 20  1  0
  3  4  1  0
  4  9  1  0
  9 10  1  0
  4  5  1  0
  5 11  1  0
 11 12  1  0
  5  6  1  0
  6 13  1  0
 13 14  1  0
  6  1  1  0
  2  7  1  0
  2  8  1  0
M  CHG 1   2   1
M  END
> <minimizedAffinity>
-3.41631

> <CNNscore>
0.1625492126

> <CNNaffinity>
3.0126950741

> <CNN_VS>
0.4897112250

> <CNNaffinity_variance>
0.5288975835

$$$$



 20 20  0  0  0  0  0  0  0  0999 V2000
  -30.0598    0.5304   25.3963 C   0  0  0  0  0  0  0  0  0  0  0  0
  -31.0991   -0.3169   26.1000 N   0  0  0  0  0  0  0  0  0  0  0  0
  -30.6746   -0.8444   27.4410 C   0  0  0  0  0  0  0  0  0  0  0  0
  -29.4615   -1.7970   27.2779 C   0  0  0  0  0  0  0  0  0  0  0  0
  -28.6750   -1.4959   25.9625 C   0  0  0  0  0  0  0  0  0  0  0  0
  -28.6250    0.0296   25.7230 C   0  0  0  0  0  0  0  0  0  0  0  0
  -31.3195   -1.1123   25.5007 H   0  0  0  0  0  0  0  0  0  0  0  0
  -31.9003    0.2912   26.2697 H   0  0  0  0  0  0  0  0  0  0  0  0
  -29.8945   -3.1634   27.3046 O   0  0  0  0  0  0  0  0  0  0  0  0
  -28.9274   -4.0463   27.8685 C   0  0  0  0  0  0  0  0  0  0  0  0
  -29.3448   -2.0706   24.8213 O   0  0  0  0  0  0  0  0  0  0  0  0
  -28.4470   -2.5742   23.8355 C   0  0  0  0  0  0  0  0  0  0  0  0
  -28.1184    0.6964   26.8864 O   0  0  0  0  0  0  0  0  0  0  0  0
  -26.6936    0.6871   26.9651 C   0  0  0  0  0  0  0  0  0  0  0  0
  -30.3275    2.0036   25.7374 C   0  0  0  0  0  0  0  0  0  0  0  0
  -32.0260    3.1635   24.5684 C   0  0  0  0  0  0  0  0  0  0  0  0
  -31.7405    2.2172   25.5966 O   0  0  0  0  0  0  0  0  0  0  0  0
  -31.9077   -1.4642   28.1131 C   0  0  0  0  0  0  0  0  0  0  0  0
  -32.9607   -1.4729   27.1362 O   0  0  0  0  0  0  0  0  0  0  0  0
  -34.2325   -1.2419   27.7391 C   0  0  0  0  0  0  0  0  0  0  0  0
 16 17  1  0
 17 15  1  0
  1 15  1  0
  1  2  1  0
  2  3  1  0
  3 18  1  0
 18 19  1  0
 19 20  1  0
  3  4  1  0
  4  9  1  0
  9 10  1  0
  4  5  1  0
  5 11  1  0
 11 12  1  0
  5  6  1  0
  6 13  1  0
 13 14  1  0
  6  1  1  0
  2  7  1  0
  2  8  1  0
M  CHG 1   2   1
M  END
> <minimizedAffinity>
-3.28914

> <CNNscore>
0.1624396145

> <CNNaffinity>
3.1055641174

> <CNN_VS>
0.5044666529

> <CNNaffinity_variance>
0.6649804711

$$$$



 20 20  0  0  0  0  0  0  0  0999 V2000
  -27.3543   -2.4990   26.7079 C   0  0  0  0  0  0  0  0  0  0  0  0
  -27.4425   -3.5928   25.6642 N   0  0  0  0  0  0  0  0  0  0  0  0
  -28.5930   -3.4558   24.7080 C   0  0  0  0  0  0  0  0  0  0  0  0
  -29.9371   -3.5596   25.4749 C   0  0  0  0  0  0  0  0  0  0  0  0
  -29.7629   -3.1837   26.9808 C   0  0  0  0  0  0  0  0  0  0  0  0
  -28.7718   -2.0058   27.1125 C   0  0  0  0  0  0  0  0  0  0  0  0
  -27.5354   -4.4864   26.1473 H   0  0  0  0  0  0  0  0  0  0  0  0
  -26.5925   -3.5264   25.1043 H   0  0  0  0  0  0  0  0  0  0  0  0
  -30.4838   -4.8785   25.3447 O   0  0  0  0  0  0  0  0  0  0  0  0
  -31.9092   -4.8935   25.3180 C   0  0  0  0  0  0  0  0  0  0  0  0
  -29.1962   -4.2840   27.7221 O   0  0  0  0  0  0  0  0  0  0  0  0
  -30.1046   -4.8614   28.6564 C   0  0  0  0  0  0  0  0  0  0  0  0
  -29.1797   -0.9199   26.2703 O   0  0  0  0  0  0  0  0  0  0  0  0
  -29.9266    0.0797   26.9626 C   0  0  0  0  0  0  0  0  0  0  0  0
  -26.4112   -1.4067   26.1829 C   0  0  0  0  0  0  0  0  0  0  0  0
  -26.1866    0.7752   27.0692 C   0  0  0  0  0  0  0  0  0  0  0  0
  -26.0102   -0.6187   27.3143 O   0  0  0  0  0  0  0  0  0  0  0  0
  -28.3973   -4.4869   23.5878 C   0  0  0  0  0  0  0  0  0  0  0  0
  -27.2947   -5.3233   23.9725 O   0  0  0  0  0  0  0  0  0  0  0  0
  -27.5421   -6.6911   23.6524 C   0  0  0  0  0  0  0  0  0  0  0  0
 16 17  1  0
 17 15  1  0
  1 15  1  0
  1  2  1  0
  2  3  1  0
  3 18  1  0
 18 19  1  0
 19 20  1  0
  3  4  1  0
  4  9  1  0
  9 10  1  0
  4  5  1  0
  5 11  1  0
 11 12  1  0
  5  6  1  0
  6 13  1  0
 13 14  1  0
  6  1  1  0
  2  7  1  0
  2  8  1  0
M  CHG 1   2   1
M  END
> <minimizedAffinity>
-3.38948

> <CNNscore>
0.1568879932

> <CNNaffinity>
3.1062908173

> <CNN_VS>
0.4873397350

> <CNNaffinity_variance>
0.5954113007

$$$$
