


 26 28  0  0  0  0  0  0  0  0999 V2000
   90.1300   99.3922  -44.9840 N   0  0  0  0  0  0  0  0  0  0  0  0
   89.4174  100.2332  -44.0116 C   0  0  0  0  0  0  0  0  0  0  0  0
   90.1305  101.5695  -43.8023 C   0  0  0  0  0  0  0  0  0  0  0  0
   91.5892  101.3888  -43.3274 C   0  0  0  0  0  0  0  0  0  0  0  0
   92.2835  100.4123  -44.3021 C   0  0  0  0  0  0  0  0  0  0  0  0
   91.4906   99.1180  -44.4902 C   0  0  0  0  0  0  0  0  0  0  0  0
   92.3358  102.6806  -43.2210 N   0  0  0  0  0  0  0  0  0  0  0  0
   92.3808  103.3843  -44.5230 C   0  0  0  0  0  0  0  0  0  0  0  0
   93.0832  104.7403  -44.4314 C   0  0  0  0  0  0  0  0  0  0  0  0
   94.4897  104.6089  -43.8725 C   0  0  0  0  0  0  0  0  0  0  0  0
   95.3206  103.9566  -44.8326 O   0  0  0  0  0  0  0  0  0  0  0  0
   94.4686  103.8186  -42.5742 C   0  0  0  0  0  0  0  0  0  0  0  0
   93.7140  102.4945  -42.7241 C   0  0  0  0  0  0  0  0  0  0  0  0
   94.9672  103.0727  -45.0187 H   0  0  0  0  0  0  0  0  0  0  0  0
   89.3835   98.1346  -45.2062 C   0  0  0  0  0  0  0  0  0  0  0  0
   90.0909   98.1173  -42.3907 O   0  0  0  0  0  0  0  0  0  0  0  0
   90.3588   96.9898  -43.1274 C   0  0  0  0  0  0  0  0  0  0  0  0
   89.9906   96.9470  -44.4825 C   0  0  0  0  0  0  0  0  0  0  0  0
   90.2733   95.7819  -45.2063 C   0  0  0  0  0  0  0  0  0  0  0  0
   90.8922   94.6844  -44.5944 C   0  0  0  0  0  0  0  0  0  0  0  0
   91.1773   93.3034  -45.6009 Cl  0  0  0  0  0  0  0  0  0  0  0  0
   91.2566   94.7321  -43.2390 C   0  0  0  0  0  0  0  0  0  0  0  0
   92.1044   93.2211  -42.4288 Br  0  0  0  0  0  0  0  0  0  0  0  0
   90.9891   95.8984  -42.5019 C   0  0  0  0  0  0  0  0  0  0  0  0
   91.4488   96.0534  -40.6523 Br  0  0  0  0  0  0  0  0  0  0  0  0
   89.6716   98.8518  -42.7940 H   0  0  0  0  0  0  0  0  0  0  0  0
 16 17  1  0
 17 18  2  0
 18 15  1  0
 15  1  1  0
  1  2  1  0
  2  3  1  0
  3  4  1  0
  4  7  1  0
  7  8  1  0
  8  9  1  0
  9 10  1  0
 10 11  1  0
 10 12  1  0
 12 13  1  0
  4  5  1  0
  5  6  1  0
 18 19  1  0
 19 20  2  0
 20 21  1  0
 20 22  1  0
 22 23  1  0
 22 24  2  0
 24 25  1  0
 24 17  1  0
  6  1  1  0
 13  7  1  0
 16 26  1  0
 11 14  1  0
M  END
> <minimizedAffinity>
-5.40641

> <CNNscore>
0.7756139636

> <CNNaffinity>
5.2928948402

> <CNN_VS>
4.1052432060

> <CNNaffinity_variance>
0.7539703250

$$$$



 26 28  0  0  0  0  0  0  0  0999 V2000
   88.3570   98.6259  -44.0060 N   0  0  0  0  0  0  0  0  0  0  0  0
   88.3757   99.9860  -43.4490 C   0  0  0  0  0  0  0  0  0  0  0  0
   87.0399  100.3383  -42.7935 C   0  0  0  0  0  0  0  0  0  0  0  0
   85.8542  100.2208  -43.7764 C   0  0  0  0  0  0  0  0  0  0  0  0
   85.9233   98.8238  -44.4316 C   0  0  0  0  0  0  0  0  0  0  0  0
   87.3006   98.5298  -45.0283 C   0  0  0  0  0  0  0  0  0  0  0  0
   84.5278  100.4565  -43.1265 N   0  0  0  0  0  0  0  0  0  0  0  0
   83.4834  100.7603  -44.1312 C   0  0  0  0  0  0  0  0  0  0  0  0
   82.1012  100.9433  -43.5015 C   0  0  0  0  0  0  0  0  0  0  0  0
   82.1089  102.0207  -42.4304 C   0  0  0  0  0  0  0  0  0  0  0  0
   82.2789  103.2975  -43.0457 O   0  0  0  0  0  0  0  0  0  0  0  0
   83.2286  101.7652  -41.4348 C   0  0  0  0  0  0  0  0  0  0  0  0
   84.5744  101.5478  -42.1325 C   0  0  0  0  0  0  0  0  0  0  0  0
   83.1228  103.3162  -43.5236 H   0  0  0  0  0  0  0  0  0  0  0  0
   89.6805   98.2971  -44.5791 C   0  0  0  0  0  0  0  0  0  0  0  0
   90.0190   95.7912  -46.0052 O   0  0  0  0  0  0  0  0  0  0  0  0
   90.4031   95.8376  -44.6876 C   0  0  0  0  0  0  0  0  0  0  0  0
   90.2938   97.0456  -43.9788 C   0  0  0  0  0  0  0  0  0  0  0  0
   90.6976   97.0624  -42.6379 C   0  0  0  0  0  0  0  0  0  0  0  0
   91.2095   95.9123  -42.0239 C   0  0  0  0  0  0  0  0  0  0  0  0
   91.6793   96.0719  -40.3640 Cl  0  0  0  0  0  0  0  0  0  0  0  0
   91.3181   94.7077  -42.7377 C   0  0  0  0  0  0  0  0  0  0  0  0
   92.0166   93.1507  -41.8742 Br  0  0  0  0  0  0  0  0  0  0  0  0
   90.9071   94.6722  -44.0812 C   0  0  0  0  0  0  0  0  0  0  0  0
   91.0188   93.0780  -45.1310 Br  0  0  0  0  0  0  0  0  0  0  0  0
   89.6815   96.5595  -46.4221 H   0  0  0  0  0  0  0  0  0  0  0  0
 16 17  1  0
 17 18  2  0
 18 15  1  0
 15  1  1  0
  1  2  1  0
  2  3  1  0
  3  4  1  0
  4  7  1  0
  7  8  1  0
  8  9  1  0
  9 10  1  0
 10 11  1  0
 10 12  1  0
 12 13  1  0
  4  5  1  0
  5  6  1  0
 18 19  1  0
 19 20  2  0
 20 21  1  0
 20 22  1  0
 22 23  1  0
 22 24  2  0
 24 25  1  0
 24 17  1  0
  6  1  1  0
 13  7  1  0
 16 26  1  0
 11 14  1  0
M  END
> <minimizedAffinity>
-5.99911

> <CNNscore>
0.7725902796

> <CNNaffinity>
4.9390201569

> <CNN_VS>
3.8158390522

> <CNNaffinity_variance>
0.6353811622

$$$$



 26 28  0  0  0  0  0  0  0  0999 V2000
   88.7708   99.2467  -44.5967 N   0  0  0  0  0  0  0  0  0  0  0  0
   88.4172  100.4084  -45.4249 C   0  0  0  0  0  0  0  0  0  0  0  0
   87.3220  101.2489  -44.7675 C   0  0  0  0  0  0  0  0  0  0  0  0
   86.0421  100.4307  -44.4877 C   0  0  0  0  0  0  0  0  0  0  0  0
   86.4563   99.1594  -43.7145 C   0  0  0  0  0  0  0  0  0  0  0  0
   87.5823   98.3959  -44.4134 C   0  0  0  0  0  0  0  0  0  0  0  0
   84.9995  101.2072  -43.7477 N   0  0  0  0  0  0  0  0  0  0  0  0
   85.6057  102.0523  -42.6938 C   0  0  0  0  0  0  0  0  0  0  0  0
   84.5700  102.9075  -41.9615 C   0  0  0  0  0  0  0  0  0  0  0  0
   83.4620  102.0586  -41.3617 C   0  0  0  0  0  0  0  0  0  0  0  0
   83.9848  101.3022  -40.2698 O   0  0  0  0  0  0  0  0  0  0  0  0
   82.8831  101.1278  -42.4147 C   0  0  0  0  0  0  0  0  0  0  0  0
   83.9753  100.3350  -43.1384 C   0  0  0  0  0  0  0  0  0  0  0  0
   84.6942  100.7225  -40.5884 H   0  0  0  0  0  0  0  0  0  0  0  0
   89.8713   98.4899  -45.2326 C   0  0  0  0  0  0  0  0  0  0  0  0
   90.5528   98.4426  -42.4111 O   0  0  0  0  0  0  0  0  0  0  0  0
   90.6181   97.2611  -43.1076 C   0  0  0  0  0  0  0  0  0  0  0  0
   90.2537   97.2384  -44.4643 C   0  0  0  0  0  0  0  0  0  0  0  0
   90.3267   96.0175  -45.1466 C   0  0  0  0  0  0  0  0  0  0  0  0
   90.7371   94.8488  -44.4927 C   0  0  0  0  0  0  0  0  0  0  0  0
   90.7752   93.4056  -45.4504 Cl  0  0  0  0  0  0  0  0  0  0  0  0
   91.0987   94.8769  -43.1360 C   0  0  0  0  0  0  0  0  0  0  0  0
   91.6598   93.2675  -42.2682 Br  0  0  0  0  0  0  0  0  0  0  0  0
   91.0408   96.0967  -42.4403 C   0  0  0  0  0  0  0  0  0  0  0  0
   91.5133   96.2302  -40.5923 Br  0  0  0  0  0  0  0  0  0  0  0  0
   90.2731   99.2260  -42.8425 H   0  0  0  0  0  0  0  0  0  0  0  0
 16 17  1  0
 17 18  2  0
 18 15  1  0
 15  1  1  0
  1  2  1  0
  2  3  1  0
  3  4  1  0
  4  7  1  0
  7  8  1  0
  8  9  1  0
  9 10  1  0
 10 11  1  0
 10 12  1  0
 12 13  1  0
  4  5  1  0
  5  6  1  0
 18 19  1  0
 19 20  2  0
 20 21  1  0
 20 22  1  0
 22 23  1  0
 22 24  2  0
 24 25  1  0
 24 17  1  0
  6  1  1  0
 13  7  1  0
 16 26  1  0
 11 14  1  0
M  END
> <minimizedAffinity>
-5.87653

> <CNNscore>
0.6676621437

> <CNNaffinity>
4.8730702400

> <CNN_VS>
3.2535645962

> <CNNaffinity_variance>
1.1411489248

$$$$



 26 28  0  0  0  0  0  0  0  0999 V2000
   90.2477   99.6513  -43.8868 N   0  0  0  0  0  0  0  0  0  0  0  0
   89.8903   99.8437  -42.4741 C   0  0  0  0  0  0  0  0  0  0  0  0
   90.5080  101.1247  -41.9123 C   0  0  0  0  0  0  0  0  0  0  0  0
   92.0472  101.1402  -42.0416 C   0  0  0  0  0  0  0  0  0  0  0  0
   92.3989  100.8239  -43.5119 C   0  0  0  0  0  0  0  0  0  0  0  0
   91.7121   99.5522  -44.0125 C   0  0  0  0  0  0  0  0  0  0  0  0
   92.6603  102.4299  -41.5964 N   0  0  0  0  0  0  0  0  0  0  0  0
   94.0047  102.6183  -42.1878 C   0  0  0  0  0  0  0  0  0  0  0  0
   94.6312  103.9595  -41.8016 C   0  0  0  0  0  0  0  0  0  0  0  0
   94.7072  104.1319  -40.2941 C   0  0  0  0  0  0  0  0  0  0  0  0
   95.6822  103.2339  -39.7644 O   0  0  0  0  0  0  0  0  0  0  0  0
   93.3500  103.8631  -39.6644 C   0  0  0  0  0  0  0  0  0  0  0  0
   92.7609  102.5272  -40.1262 C   0  0  0  0  0  0  0  0  0  0  0  0
   95.4260  102.3210  -39.9689 H   0  0  0  0  0  0  0  0  0  0  0  0
   89.5873   98.4370  -44.4135 C   0  0  0  0  0  0  0  0  0  0  0  0
   89.9635   96.0534  -46.0274 O   0  0  0  0  0  0  0  0  0  0  0  0
   90.3448   96.0035  -44.7091 C   0  0  0  0  0  0  0  0  0  0  0  0
   90.2172   97.1517  -43.9097 C   0  0  0  0  0  0  0  0  0  0  0  0
   90.6185   97.0708  -42.5704 C   0  0  0  0  0  0  0  0  0  0  0  0
   91.1456   95.8840  -42.0454 C   0  0  0  0  0  0  0  0  0  0  0  0
   91.6103   95.9218  -40.3768 Cl  0  0  0  0  0  0  0  0  0  0  0  0
   91.2724   94.7396  -42.8495 C   0  0  0  0  0  0  0  0  0  0  0  0
   91.9913   93.1306  -42.1065 Br  0  0  0  0  0  0  0  0  0  0  0  0
   90.8642   94.8020  -44.1929 C   0  0  0  0  0  0  0  0  0  0  0  0
   91.0001   93.2951  -45.3620 Br  0  0  0  0  0  0  0  0  0  0  0  0
   89.6160   96.8467  -46.3848 H   0  0  0  0  0  0  0  0  0  0  0  0
 16 17  1  0
 17 18  2  0
 18 15  1  0
 15  1  1  0
  1  2  1  0
  2  3  1  0
  3  4  1  0
  4  7  1  0
  7  8  1  0
  8  9  1  0
  9 10  1  0
 10 11  1  0
 10 12  1  0
 12 13  1  0
  4  5  1  0
  5  6  1  0
 18 19  1  0
 19 20  2  0
 20 21  1  0
 20 22  1  0
 22 23  1  0
 22 24  2  0
 24 25  1  0
 24 17  1  0
  6  1  1  0
 13  7  1  0
 16 26  1  0
 11 14  1  0
M  END
> <minimizedAffinity>
-6.28046

> <CNNscore>
0.6630269289

> <CNNaffinity>
5.7705116272

> <CNN_VS>
3.8260045052

> <CNNaffinity_variance>
0.6972063184

$$$$



 26 28  0  0  0  0  0  0  0  0999 V2000
   89.6201   99.6850  -42.4920 N   0  0  0  0  0  0  0  0  0  0  0  0
   89.7012  100.1222  -43.8930 C   0  0  0  0  0  0  0  0  0  0  0  0
   88.4628  100.9215  -44.3000 C   0  0  0  0  0  0  0  0  0  0  0  0
   87.1564  100.1207  -44.1045 C   0  0  0  0  0  0  0  0  0  0  0  0
   87.1496   99.5778  -42.6585 C   0  0  0  0  0  0  0  0  0  0  0  0
   88.4365   98.8262  -42.3144 C   0  0  0  0  0  0  0  0  0  0  0  0
   85.9277  100.9227  -44.3949 N   0  0  0  0  0  0  0  0  0  0  0  0
   86.1975  101.9740  -45.4019 C   0  0  0  0  0  0  0  0  0  0  0  0
   84.9433  102.7702  -45.7673 C   0  0  0  0  0  0  0  0  0  0  0  0
   84.2938  103.3907  -44.5421 C   0  0  0  0  0  0  0  0  0  0  0  0
   85.1254  104.4397  -44.0465 O   0  0  0  0  0  0  0  0  0  0  0  0
   84.0831  102.3366  -43.4673 C   0  0  0  0  0  0  0  0  0  0  0  0
   85.3646  101.5485  -43.1815 C   0  0  0  0  0  0  0  0  0  0  0  0
   85.9908  104.0773  -43.8002 H   0  0  0  0  0  0  0  0  0  0  0  0
   90.8573   98.9669  -42.1151 C   0  0  0  0  0  0  0  0  0  0  0  0
   91.7731   96.7468  -40.4841 O   0  0  0  0  0  0  0  0  0  0  0  0
   91.3546   96.4745  -41.7633 C   0  0  0  0  0  0  0  0  0  0  0  0
   90.8644   97.5180  -42.5661 C   0  0  0  0  0  0  0  0  0  0  0  0
   90.4410   97.2082  -43.8646 C   0  0  0  0  0  0  0  0  0  0  0  0
   90.4908   95.8935  -44.3455 C   0  0  0  0  0  0  0  0  0  0  0  0
   89.9294   95.6464  -45.9658 Cl  0  0  0  0  0  0  0  0  0  0  0  0
   90.9802   94.8540  -43.5381 C   0  0  0  0  0  0  0  0  0  0  0  0
   91.0414   93.0684  -44.2207 Br  0  0  0  0  0  0  0  0  0  0  0  0
   91.4187   95.1508  -42.2362 C   0  0  0  0  0  0  0  0  0  0  0  0
   92.0994   93.8006  -41.0660 Br  0  0  0  0  0  0  0  0  0  0  0  0
   91.7362   97.6236  -40.1558 H   0  0  0  0  0  0  0  0  0  0  0  0
 16 17  1  0
 17 18  2  0
 18 15  1  0
 15  1  1  0
  1  2  1  0
  2  3  1  0
  3  4  1  0
  4  7  1  0
  7  8  1  0
  8  9  1  0
  9 10  1  0
 10 11  1  0
 10 12  1  0
 12 13  1  0
  4  5  1  0
  5  6  1  0
 18 19  1  0
 19 20  2  0
 20 21  1  0
 20 22  1  0
 22 23  1  0
 22 24  2  0
 24 25  1  0
 24 17  1  0
  6  1  1  0
 13  7  1  0
 16 26  1  0
 11 14  1  0
M  END
> <minimizedAffinity>
-5.00051

> <CNNscore>
0.6431474686

> <CNNaffinity>
5.3907122612

> <CNN_VS>
3.4670228958

> <CNNaffinity_variance>
0.6577942371

$$$$



 26 28  0  0  0  0  0  0  0  0999 V2000
   88.1507   97.9732  -45.5570 N   0  0  0  0  0  0  0  0  0  0  0  0
   87.6780   96.7443  -46.2105 C   0  0  0  0  0  0  0  0  0  0  0  0
   86.1618   96.7658  -46.4076 C   0  0  0  0  0  0  0  0  0  0  0  0
   85.3989   96.9453  -45.0765 C   0  0  0  0  0  0  0  0  0  0  0  0
   85.9916   98.1770  -44.3573 C   0  0  0  0  0  0  0  0  0  0  0  0
   87.5142   98.1008  -44.2346 C   0  0  0  0  0  0  0  0  0  0  0  0
   83.9204   97.0768  -45.2608 N   0  0  0  0  0  0  0  0  0  0  0  0
   83.5004   96.5963  -46.5969 C   0  0  0  0  0  0  0  0  0  0  0  0
   81.9842   96.6587  -46.7913 C   0  0  0  0  0  0  0  0  0  0  0  0
   81.4441   98.0595  -46.5588 C   0  0  0  0  0  0  0  0  0  0  0  0
   81.8718   98.9130  -47.6202 O   0  0  0  0  0  0  0  0  0  0  0  0
   81.9333   98.5975  -45.2240 C   0  0  0  0  0  0  0  0  0  0  0  0
   83.4518   98.4653  -45.0771 C   0  0  0  0  0  0  0  0  0  0  0  0
   82.8411   98.9436  -47.6398 H   0  0  0  0  0  0  0  0  0  0  0  0
   89.6247   97.9448  -45.4352 C   0  0  0  0  0  0  0  0  0  0  0  0
   90.3910   98.1406  -42.6420 O   0  0  0  0  0  0  0  0  0  0  0  0
   90.5314   96.9240  -43.2629 C   0  0  0  0  0  0  0  0  0  0  0  0
   90.1300   96.7818  -44.6017 C   0  0  0  0  0  0  0  0  0  0  0  0
   90.2817   95.5276  -45.2062 C   0  0  0  0  0  0  0  0  0  0  0  0
   90.8049   94.4414  -44.4931 C   0  0  0  0  0  0  0  0  0  0  0  0
   90.9317   92.9449  -45.3567 Cl  0  0  0  0  0  0  0  0  0  0  0  0
   91.2030   94.5888  -43.1545 C   0  0  0  0  0  0  0  0  0  0  0  0
   91.9184   93.0905  -42.2050 Br  0  0  0  0  0  0  0  0  0  0  0  0
   91.0668   95.8440  -42.5371 C   0  0  0  0  0  0  0  0  0  0  0  0
   91.5813   96.1379  -40.7192 Br  0  0  0  0  0  0  0  0  0  0  0  0
   90.0359   98.8687  -43.1129 H   0  0  0  0  0  0  0  0  0  0  0  0
 16 17  1  0
 17 18  2  0
 18 15  1  0
 15  1  1  0
  1  2  1  0
  2  3  1  0
  3  4  1  0
  4  7  1  0
  7  8  1  0
  8  9  1  0
  9 10  1  0
 10 11  1  0
 10 12  1  0
 12 13  1  0
  4  5  1  0
  5  6  1  0
 18 19  1  0
 19 20  2  0
 20 21  1  0
 20 22  1  0
 22 23  1  0
 22 24  2  0
 24 25  1  0
 24 17  1  0
  6  1  1  0
 13  7  1  0
 16 26  1  0
 11 14  1  0
M  END
> <minimizedAffinity>
-5.92827

> <CNNscore>
0.5459096432

> <CNNaffinity>
4.7265172005

> <CNN_VS>
2.5802512169

> <CNNaffinity_variance>
1.4135141373

$$$$



 26 28  0  0  0  0  0  0  0  0999 V2000
   88.6021   98.4874  -44.8408 N   0  0  0  0  0  0  0  0  0  0  0  0
   87.8941   97.3290  -45.4042 C   0  0  0  0  0  0  0  0  0  0  0  0
   86.3793   97.5359  -45.3803 C   0  0  0  0  0  0  0  0  0  0  0  0
   85.8449   97.7993  -43.9552 C   0  0  0  0  0  0  0  0  0  0  0  0
   86.6804   98.9456  -43.3441 C   0  0  0  0  0  0  0  0  0  0  0  0
   88.1842   98.6840  -43.4419 C   0  0  0  0  0  0  0  0  0  0  0  0
   84.3822   98.1108  -43.9254 N   0  0  0  0  0  0  0  0  0  0  0  0
   83.7245   97.7251  -45.1947 C   0  0  0  0  0  0  0  0  0  0  0  0
   82.2150   97.9727  -45.1705 C   0  0  0  0  0  0  0  0  0  0  0  0
   81.8872   99.4198  -44.8441 C   0  0  0  0  0  0  0  0  0  0  0  0
   82.2632  100.2490  -45.9435 O   0  0  0  0  0  0  0  0  0  0  0  0
   82.6197   99.8544  -43.5851 C   0  0  0  0  0  0  0  0  0  0  0  0
   84.1164   99.5386  -43.6576 C   0  0  0  0  0  0  0  0  0  0  0  0
   83.2168  100.1651  -46.1005 H   0  0  0  0  0  0  0  0  0  0  0  0
   90.0637   98.2793  -44.9330 C   0  0  0  0  0  0  0  0  0  0  0  0
   90.3535   95.6307  -46.0857 O   0  0  0  0  0  0  0  0  0  0  0  0
   90.6278   95.7831  -44.7488 C   0  0  0  0  0  0  0  0  0  0  0  0
   90.5398   97.0589  -44.1671 C   0  0  0  0  0  0  0  0  0  0  0  0
   90.8297   97.1830  -42.8026 C   0  0  0  0  0  0  0  0  0  0  0  0
   91.2105   96.0705  -42.0416 C   0  0  0  0  0  0  0  0  0  0  0  0
   91.5486   96.3638  -40.3679 Cl  0  0  0  0  0  0  0  0  0  0  0  0
   91.2984   94.7977  -42.6286 C   0  0  0  0  0  0  0  0  0  0  0  0
   91.8167   93.2944  -41.5659 Br  0  0  0  0  0  0  0  0  0  0  0  0
   91.0004   94.6551  -43.9947 C   0  0  0  0  0  0  0  0  0  0  0  0
   91.0937   92.9623  -44.8787 Br  0  0  0  0  0  0  0  0  0  0  0  0
   90.1042   96.3729  -46.6004 H   0  0  0  0  0  0  0  0  0  0  0  0
 16 17  1  0
 17 18  2  0
 18 15  1  0
 15  1  1  0
  1  2  1  0
  2  3  1  0
  3  4  1  0
  4  7  1  0
  7  8  1  0
  8  9  1  0
  9 10  1  0
 10 11  1  0
 10 12  1  0
 12 13  1  0
  4  5  1  0
  5  6  1  0
 18 19  1  0
 19 20  2  0
 20 21  1  0
 20 22  1  0
 22 23  1  0
 22 24  2  0
 24 25  1  0
 24 17  1  0
  6  1  1  0
 13  7  1  0
 16 26  1  0
 11 14  1  0
M  END
> <minimizedAffinity>
-6.25271

> <CNNscore>
0.4691369534

> <CNNaffinity>
4.6918578148

> <CNN_VS>
2.2011239529

> <CNNaffinity_variance>
1.0131028891

$$$$



 26 28  0  0  0  0  0  0  0  0999 V2000
   90.5347  100.1947  -43.2986 N   0  0  0  0  0  0  0  0  0  0  0  0
   91.4298  100.7582  -44.3193 C   0  0  0  0  0  0  0  0  0  0  0  0
   92.4924  101.6610  -43.6917 C   0  0  0  0  0  0  0  0  0  0  0  0
   91.8734  102.8200  -42.8797 C   0  0  0  0  0  0  0  0  0  0  0  0
   90.8539  102.2105  -41.8924 C   0  0  0  0  0  0  0  0  0  0  0  0
   89.8509  101.2893  -42.5885 C   0  0  0  0  0  0  0  0  0  0  0  0
   92.8952  103.6503  -42.1698 N   0  0  0  0  0  0  0  0  0  0  0  0
   94.2699  103.2261  -42.5199 C   0  0  0  0  0  0  0  0  0  0  0  0
   95.3381  104.0989  -41.8583 C   0  0  0  0  0  0  0  0  0  0  0  0
   95.1822  104.1311  -40.3475 C   0  0  0  0  0  0  0  0  0  0  0  0
   95.5280  102.8548  -39.8096 O   0  0  0  0  0  0  0  0  0  0  0  0
   93.7528  104.4879  -39.9732 C   0  0  0  0  0  0  0  0  0  0  0  0
   92.7347  103.6066  -40.7023 C   0  0  0  0  0  0  0  0  0  0  0  0
   94.9379  102.1784  -40.1772 H   0  0  0  0  0  0  0  0  0  0  0  0
   89.5579   99.2823  -43.9323 C   0  0  0  0  0  0  0  0  0  0  0  0
   90.7104   98.0776  -41.5558 O   0  0  0  0  0  0  0  0  0  0  0  0
   90.5420   97.2819  -42.6622 C   0  0  0  0  0  0  0  0  0  0  0  0
   89.9475   97.8203  -43.8156 C   0  0  0  0  0  0  0  0  0  0  0  0
   89.7854   96.9828  -44.9264 C   0  0  0  0  0  0  0  0  0  0  0  0
   90.1905   95.6427  -44.8849 C   0  0  0  0  0  0  0  0  0  0  0  0
   89.9254   94.7151  -46.3240 Cl  0  0  0  0  0  0  0  0  0  0  0  0
   90.7827   95.1092  -43.7287 C   0  0  0  0  0  0  0  0  0  0  0  0
   91.3309   93.2771  -43.7001 Br  0  0  0  0  0  0  0  0  0  0  0  0
   90.9619   95.9400  -42.6094 C   0  0  0  0  0  0  0  0  0  0  0  0
   91.7578   95.3007  -40.9926 Br  0  0  0  0  0  0  0  0  0  0  0  0
   90.4355   98.9731  -41.5765 H   0  0  0  0  0  0  0  0  0  0  0  0
 16 17  1  0
 17 18  2  0
 18 15  1  0
 15  1  1  0
  1  2  1  0
  2  3  1  0
  3  4  1  0
  4  7  1  0
  7  8  1  0
  8  9  1  0
  9 10  1  0
 10 11  1  0
 10 12  1  0
 12 13  1  0
  4  5  1  0
  5  6  1  0
 18 19  1  0
 19 20  2  0
 20 21  1  0
 20 22  1  0
 22 23  1  0
 22 24  2  0
 24 25  1  0
 24 17  1  0
  6  1  1  0
 13  7  1  0
 16 26  1  0
 11 14  1  0
M  END
> <minimizedAffinity>
-5.30916

> <CNNscore>
0.4545866847

> <CNNaffinity>
5.0166416168

> <CNN_VS>
2.2804985046

> <CNNaffinity_variance>
0.3546768725

$$$$



 26 28  0  0  0  0  0  0  0  0999 V2000
   82.1708   93.2357  -46.4052 N   0  0  0  0  0  0  0  0  0  0  0  0
   81.3126   92.3031  -47.1497 C   0  0  0  0  0  0  0  0  0  0  0  0
   81.0163   91.0450  -46.3327 C   0  0  0  0  0  0  0  0  0  0  0  0
   82.3033   90.3039  -45.9078 C   0  0  0  0  0  0  0  0  0  0  0  0
   83.2351   91.3315  -45.2286 C   0  0  0  0  0  0  0  0  0  0  0  0
   83.4503   92.5777  -46.0888 C   0  0  0  0  0  0  0  0  0  0  0  0
   82.0384   89.1315  -45.0175 N   0  0  0  0  0  0  0  0  0  0  0  0
   81.5899   89.5665  -43.6751 C   0  0  0  0  0  0  0  0  0  0  0  0
   81.2494   88.3877  -42.7614 C   0  0  0  0  0  0  0  0  0  0  0  0
   82.4180   87.4267  -42.6234 C   0  0  0  0  0  0  0  0  0  0  0  0
   83.4532   88.0480  -41.8617 O   0  0  0  0  0  0  0  0  0  0  0  0
   82.9407   87.0331  -43.9953 C   0  0  0  0  0  0  0  0  0  0  0  0
   83.2195   88.2569  -44.8727 C   0  0  0  0  0  0  0  0  0  0  0  0
   83.7520   88.8509  -42.3167 H   0  0  0  0  0  0  0  0  0  0  0  0
   82.3889   94.4644  -47.1995 C   0  0  0  0  0  0  0  0  0  0  0  0
   82.6045   95.8857  -44.6774 O   0  0  0  0  0  0  0  0  0  0  0  0
   83.6637   95.9582  -45.5483 C   0  0  0  0  0  0  0  0  0  0  0  0
   83.6117   95.2477  -46.7592 C   0  0  0  0  0  0  0  0  0  0  0  0
   84.7091   95.3380  -47.6245 C   0  0  0  0  0  0  0  0  0  0  0  0
   85.8331   96.1027  -47.2873 C   0  0  0  0  0  0  0  0  0  0  0  0
   87.1237   96.1226  -48.4429 Cl  0  0  0  0  0  0  0  0  0  0  0  0
   85.8804   96.8096  -46.0748 C   0  0  0  0  0  0  0  0  0  0  0  0
   87.4255   97.8498  -45.6405 Br  0  0  0  0  0  0  0  0  0  0  0  0
   84.7825   96.7374  -45.2004 C   0  0  0  0  0  0  0  0  0  0  0  0
   84.7584   97.6652  -43.5287 Br  0  0  0  0  0  0  0  0  0  0  0  0
   81.8528   95.3706  -44.8958 H   0  0  0  0  0  0  0  0  0  0  0  0
 16 17  1  0
 17 18  2  0
 18 15  1  0
 15  1  1  0
  1  2  1  0
  2  3  1  0
  3  4  1  0
  4  7  1  0
  7  8  1  0
  8  9  1  0
  9 10  1  0
 10 11  1  0
 10 12  1  0
 12 13  1  0
  4  5  1  0
  5  6  1  0
 18 19  1  0
 19 20  2  0
 20 21  1  0
 20 22  1  0
 22 23  1  0
 22 24  2  0
 24 25  1  0
 24 17  1  0
  6  1  1  0
 13  7  1  0
 16 26  1  0
 11 14  1  0
M  END
> <minimizedAffinity>
-4.40030

> <CNNscore>
0.3949657381

> <CNNaffinity>
4.4535889626

> <CNN_VS>
1.7590150833

> <CNNaffinity_variance>
0.4819195271

$$$$
