


 27 28  0  0  0  0  0  0  0  0999 V2000
   37.9529    1.8484   13.1390 C   0  0  0  0  0  0  0  0  0  0  0  0
   36.7412    1.4298   12.3187 C   0  0  0  0  0  0  0  0  0  0  0  0
   35.5440    1.3343   13.0854 O   0  0  0  0  0  0  0  0  0  0  0  0
   37.1814    0.1386   11.6177 C   0  0  0  0  0  0  0  0  0  0  0  0
   38.6180    0.1133   11.5987 O   0  0  0  0  0  0  0  0  0  0  0  0
   39.1026    1.2863   12.3028 C   0  0  0  0  0  0  0  0  0  0  0  0
   35.6647    0.6825   13.7936 H   0  0  0  0  0  0  0  0  0  0  0  0
   36.6709   -1.1284   12.1506 N   0  0  0  0  0  0  0  0  0  0  0  0
   37.3359   -1.7154   13.2143 C   0  0  0  0  0  0  0  0  0  0  0  0
   36.9574   -2.8832   13.7378 C   0  0  0  0  0  0  0  0  0  0  0  0
   35.7968   -3.5743   13.1623 C   0  0  0  0  0  0  0  0  0  0  0  0
   35.4078   -4.6440   13.6148 O   0  0  0  0  0  0  0  0  0  0  0  0
   35.1998   -2.9457   12.1113 N   0  0  0  0  0  0  0  0  0  0  0  0
   35.5725   -1.7435   11.5648 C   0  0  0  0  0  0  0  0  0  0  0  0
   34.9224   -1.2893   10.6262 O   0  0  0  0  0  0  0  0  0  0  0  0
   34.4258   -3.3979   11.7044 H   0  0  0  0  0  0  0  0  0  0  0  0
   40.3165    0.8514   13.1242 C   0  0  0  0  0  0  0  0  0  0  0  0
   40.6725   -0.4866   12.7675 O   0  0  0  0  0  0  0  0  0  0  0  0
   39.9263   -1.0790   12.9492 H   0  0  0  0  0  0  0  0  0  0  0  0
   37.9185    3.2784   13.2422 O   0  0  0  0  0  0  0  0  0  0  0  0
   38.3108    3.7824   14.5183 C   0  0  0  0  0  0  0  0  0  0  0  0
   37.7266    5.2030   14.7372 C   0  0  0  0  0  0  0  0  0  0  0  0
   36.2783    5.2053   14.2167 C   0  0  0  0  0  0  0  0  0  0  0  0
   38.5532    6.2191   13.9260 C   0  0  0  0  0  0  0  0  0  0  0  0
   37.7766    5.5444   16.2541 C   0  0  0  0  0  0  0  0  0  0  0  0
   36.6652    6.9271   18.0458 C   0  0  0  0  0  0  0  0  0  0  0  0
   37.2552    6.9331   16.6422 C   0  0  0  0  0  0  0  0  0  0  0  0
 26 27  1  0
 27 25  1  0
 25 22  1  0
 22 23  1  0
 22 24  1  0
 22 21  1  0
 21 20  1  0
  1 20  1  0
  1  2  1  0
  2  3  1  0
  2  4  1  0
  4  8  1  0
  8  9  1  0
  9 10  2  0
 10 11  1  0
 11 12  2  0
 11 13  1  0
 13 14  1  0
 14 15  2  0
  4  5  1  0
  5  6  1  0
  6 17  1  0
 17 18  1  0
  6  1  1  0
 14  8  1  0
  3  7  1  0
 13 16  1  0
 18 19  1  0
M  END
> <minimizedAffinity>
-5.73844

> <CNNscore>
0.7798866630

> <CNNaffinity>
4.9213676453

> <CNN_VS>
3.8381090164

> <CNNaffinity_variance>
0.2668772638

$$$$



 27 28  0  0  0  0  0  0  0  0999 V2000
   37.8210   -2.4771   11.8337 C   0  0  0  0  0  0  0  0  0  0  0  0
   37.7979   -3.6277   12.8298 C   0  0  0  0  0  0  0  0  0  0  0  0
   38.2907   -4.8518   12.2922 O   0  0  0  0  0  0  0  0  0  0  0  0
   36.3514   -3.6644   13.3382 C   0  0  0  0  0  0  0  0  0  0  0  0
   35.7624   -2.3775   13.0897 O   0  0  0  0  0  0  0  0  0  0  0  0
   36.7393   -1.5562   12.3986 C   0  0  0  0  0  0  0  0  0  0  0  0
   37.7529   -5.1086   11.5269 H   0  0  0  0  0  0  0  0  0  0  0  0
   35.4769   -4.7186   12.8148 N   0  0  0  0  0  0  0  0  0  0  0  0
   35.2151   -5.8192   13.6137 C   0  0  0  0  0  0  0  0  0  0  0  0
   34.4570   -6.8376   13.2023 C   0  0  0  0  0  0  0  0  0  0  0  0
   33.8835   -6.7929   11.8514 C   0  0  0  0  0  0  0  0  0  0  0  0
   33.1750   -7.7005   11.4336 O   0  0  0  0  0  0  0  0  0  0  0  0
   34.1928   -5.6874   11.1176 N   0  0  0  0  0  0  0  0  0  0  0  0
   34.9654   -4.6299   11.5269 C   0  0  0  0  0  0  0  0  0  0  0  0
   35.1418   -3.6886   10.7571 O   0  0  0  0  0  0  0  0  0  0  0  0
   33.8264   -5.6431   10.2049 H   0  0  0  0  0  0  0  0  0  0  0  0
   35.9861   -0.7544   11.3368 C   0  0  0  0  0  0  0  0  0  0  0  0
   36.9225   -0.0015   10.5621 O   0  0  0  0  0  0  0  0  0  0  0  0
   37.4102    0.6034   11.1427 H   0  0  0  0  0  0  0  0  0  0  0  0
   39.1486   -1.9349   11.8466 O   0  0  0  0  0  0  0  0  0  0  0  0
   40.1824   -2.9185   11.8332 C   0  0  0  0  0  0  0  0  0  0  0  0
   41.5282   -2.2770   11.4037 C   0  0  0  0  0  0  0  0  0  0  0  0
   42.1100   -1.5361   12.6207 C   0  0  0  0  0  0  0  0  0  0  0  0
   41.2658   -1.2610   10.2757 C   0  0  0  0  0  0  0  0  0  0  0  0
   42.4922   -3.3970   10.9173 C   0  0  0  0  0  0  0  0  0  0  0  0
   44.9888   -3.0782   10.7694 C   0  0  0  0  0  0  0  0  0  0  0  0
   43.8286   -3.4960   11.6624 C   0  0  0  0  0  0  0  0  0  0  0  0
 26 27  1  0
 27 25  1  0
 25 22  1  0
 22 23  1  0
 22 24  1  0
 22 21  1  0
 21 20  1  0
  1 20  1  0
  1  2  1  0
  2  3  1  0
  2  4  1  0
  4  8  1  0
  8  9  1  0
  9 10  2  0
 10 11  1  0
 11 12  2  0
 11 13  1  0
 13 14  1  0
 14 15  2  0
  4  5  1  0
  5  6  1  0
  6 17  1  0
 17 18  1  0
  6  1  1  0
 14  8  1  0
  3  7  1  0
 13 16  1  0
 18 19  1  0
M  END
> <minimizedAffinity>
-6.01226

> <CNNscore>
0.6269474030

> <CNNaffinity>
4.4664559364

> <CNN_VS>
2.8002328873

> <CNNaffinity_variance>
0.1066666543

$$$$



 27 28  0  0  0  0  0  0  0  0999 V2000
   38.5656   -2.7507   14.3898 C   0  0  0  0  0  0  0  0  0  0  0  0
   37.6065   -2.3786   13.2682 C   0  0  0  0  0  0  0  0  0  0  0  0
   36.3654   -1.8566   13.7345 O   0  0  0  0  0  0  0  0  0  0  0  0
   37.5095   -3.6470   12.4115 C   0  0  0  0  0  0  0  0  0  0  0  0
   38.6676   -4.4534   12.6823 O   0  0  0  0  0  0  0  0  0  0  0  0
   39.4540   -3.7901   13.7061 C   0  0  0  0  0  0  0  0  0  0  0  0
   35.9276   -2.5159   14.2953 H   0  0  0  0  0  0  0  0  0  0  0  0
   36.2973   -4.4613   12.5434 N   0  0  0  0  0  0  0  0  0  0  0  0
   36.2700   -5.4576   13.5051 C   0  0  0  0  0  0  0  0  0  0  0  0
   35.2198   -6.2645   13.6695 C   0  0  0  0  0  0  0  0  0  0  0  0
   34.0522   -6.0941   12.7958 C   0  0  0  0  0  0  0  0  0  0  0  0
   33.0624   -6.8057   12.9151 O   0  0  0  0  0  0  0  0  0  0  0  0
   34.1536   -5.1041   11.8654 N   0  0  0  0  0  0  0  0  0  0  0  0
   35.2227   -4.2628   11.6866 C   0  0  0  0  0  0  0  0  0  0  0  0
   35.1616   -3.3999   10.8139 O   0  0  0  0  0  0  0  0  0  0  0  0
   33.3851   -4.9803   11.2626 H   0  0  0  0  0  0  0  0  0  0  0  0
   39.9806   -4.8752   14.6457 C   0  0  0  0  0  0  0  0  0  0  0  0
   39.0385   -5.0832   15.7008 O   0  0  0  0  0  0  0  0  0  0  0  0
   38.9166   -4.2563   16.1931 H   0  0  0  0  0  0  0  0  0  0  0  0
   39.2351   -1.5468   14.7888 O   0  0  0  0  0  0  0  0  0  0  0  0
   39.7431   -0.7725   13.7031 C   0  0  0  0  0  0  0  0  0  0  0  0
   39.6984    0.7382   14.0538 C   0  0  0  0  0  0  0  0  0  0  0  0
   39.9162    0.8793   15.5708 C   0  0  0  0  0  0  0  0  0  0  0  0
   38.3101    1.2996   13.6916 C   0  0  0  0  0  0  0  0  0  0  0  0
   40.8118    1.4775   13.2576 C   0  0  0  0  0  0  0  0  0  0  0  0
   43.2484    2.0166   12.8985 C   0  0  0  0  0  0  0  0  0  0  0  0
   42.2484    1.2257   13.7307 C   0  0  0  0  0  0  0  0  0  0  0  0
 26 27  1  0
 27 25  1  0
 25 22  1  0
 22 23  1  0
 22 24  1  0
 22 21  1  0
 21 20  1  0
  1 20  1  0
  1  2  1  0
  2  3  1  0
  2  4  1  0
  4  8  1  0
  8  9  1  0
  9 10  2  0
 10 11  1  0
 11 12  2  0
 11 13  1  0
 13 14  1  0
 14 15  2  0
  4  5  1  0
  5  6  1  0
  6 17  1  0
 17 18  1  0
  6  1  1  0
 14  8  1  0
  3  7  1  0
 13 16  1  0
 18 19  1  0
M  END
> <minimizedAffinity>
-5.01265

> <CNNscore>
0.5754672289

> <CNNaffinity>
4.6478738785

> <CNN_VS>
2.6746990681

> <CNNaffinity_variance>
0.0901707038

$$$$



 27 28  0  0  0  0  0  0  0  0999 V2000
   37.7611   -2.5580   11.8390 C   0  0  0  0  0  0  0  0  0  0  0  0
   37.6916   -3.6736   12.8720 C   0  0  0  0  0  0  0  0  0  0  0  0
   38.2060   -4.9155   12.3995 O   0  0  0  0  0  0  0  0  0  0  0  0
   36.2238   -3.6926   13.3161 C   0  0  0  0  0  0  0  0  0  0  0  0
   35.6485   -2.4150   12.9973 O   0  0  0  0  0  0  0  0  0  0  0  0
   36.6567   -1.6181   12.3228 C   0  0  0  0  0  0  0  0  0  0  0  0
   37.7025   -5.1985   11.6202 H   0  0  0  0  0  0  0  0  0  0  0  0
   35.3719   -4.7642   12.7907 N   0  0  0  0  0  0  0  0  0  0  0  0
   35.1134   -5.8602   13.5969 C   0  0  0  0  0  0  0  0  0  0  0  0
   34.3757   -6.8932   13.1848 C   0  0  0  0  0  0  0  0  0  0  0  0
   33.8218   -6.8702   11.8253 C   0  0  0  0  0  0  0  0  0  0  0  0
   33.1323   -7.7918   11.4063 O   0  0  0  0  0  0  0  0  0  0  0  0
   34.1267   -5.7679   11.0848 N   0  0  0  0  0  0  0  0  0  0  0  0
   34.8784   -4.6957   11.4946 C   0  0  0  0  0  0  0  0  0  0  0  0
   35.0532   -3.7597   10.7178 O   0  0  0  0  0  0  0  0  0  0  0  0
   33.7733   -5.7379   10.1664 H   0  0  0  0  0  0  0  0  0  0  0  0
   35.9531   -0.8534   11.2014 C   0  0  0  0  0  0  0  0  0  0  0  0
   36.8904    0.0187   10.5651 O   0  0  0  0  0  0  0  0  0  0  0  0
   37.2425    0.6454   11.2163 H   0  0  0  0  0  0  0  0  0  0  0  0
   39.0877   -2.0158   11.8925 O   0  0  0  0  0  0  0  0  0  0  0  0
   40.1231   -2.9890   11.7622 C   0  0  0  0  0  0  0  0  0  0  0  0
   41.4928   -2.2908   11.5524 C   0  0  0  0  0  0  0  0  0  0  0  0
   42.4825   -3.3401   11.0159 C   0  0  0  0  0  0  0  0  0  0  0  0
   42.0040   -1.7650   12.9073 C   0  0  0  0  0  0  0  0  0  0  0  0
   41.3166   -1.1202   10.5429 C   0  0  0  0  0  0  0  0  0  0  0  0
   41.8980    1.3246   10.3396 C   0  0  0  0  0  0  0  0  0  0  0  0
   42.4466   -0.0841   10.5202 C   0  0  0  0  0  0  0  0  0  0  0  0
 26 27  1  0
 27 25  1  0
 25 22  1  0
 22 23  1  0
 22 24  1  0
 22 21  1  0
 21 20  1  0
  1 20  1  0
  1  2  1  0
  2  3  1  0
  2  4  1  0
  4  8  1  0
  8  9  1  0
  9 10  2  0
 10 11  1  0
 11 12  2  0
 11 13  1  0
 13 14  1  0
 14 15  2  0
  4  5  1  0
  5  6  1  0
  6 17  1  0
 17 18  1  0
  6  1  1  0
 14  8  1  0
  3  7  1  0
 13 16  1  0
 18 19  1  0
M  END
> <minimizedAffinity>
-6.14272

> <CNNscore>
0.5491359234

> <CNNaffinity>
4.3754434586

> <CNN_VS>
2.4027132988

> <CNNaffinity_variance>
0.1711725742

$$$$



 27 28  0  0  0  0  0  0  0  0999 V2000
   38.5302    0.4576   13.6117 C   0  0  0  0  0  0  0  0  0  0  0  0
   37.4919    0.5629   12.5040 C   0  0  0  0  0  0  0  0  0  0  0  0
   36.1544    0.6473   12.9879 O   0  0  0  0  0  0  0  0  0  0  0  0
   37.7886   -0.6301   11.5870 C   0  0  0  0  0  0  0  0  0  0  0  0
   39.1436   -1.0450   11.8253 O   0  0  0  0  0  0  0  0  0  0  0  0
   39.6927   -0.2178   12.8839 C   0  0  0  0  0  0  0  0  0  0  0  0
   35.9506   -0.1418   13.5141 H   0  0  0  0  0  0  0  0  0  0  0  0
   36.8938   -1.7885   11.6730 N   0  0  0  0  0  0  0  0  0  0  0  0
   37.3177   -2.9019   12.3792 C   0  0  0  0  0  0  0  0  0  0  0  0
   36.5796   -4.0093   12.4792 C   0  0  0  0  0  0  0  0  0  0  0  0
   35.2724   -4.0516   11.8120 C   0  0  0  0  0  0  0  0  0  0  0  0
   34.5568   -5.0432   11.8829 O   0  0  0  0  0  0  0  0  0  0  0  0
   34.9258   -2.9268   11.1258 N   0  0  0  0  0  0  0  0  0  0  0  0
   35.6697   -1.7789   11.0175 C   0  0  0  0  0  0  0  0  0  0  0  0
   35.2154   -0.8335   10.3775 O   0  0  0  0  0  0  0  0  0  0  0  0
   34.0572   -2.9389   10.6625 H   0  0  0  0  0  0  0  0  0  0  0  0
   40.5418   -1.1263   13.7734 C   0  0  0  0  0  0  0  0  0  0  0  0
   39.7209   -1.6746   14.8076 O   0  0  0  0  0  0  0  0  0  0  0  0
   39.3467   -0.9547   15.3392 H   0  0  0  0  0  0  0  0  0  0  0  0
   38.7929    1.7903   14.0716 O   0  0  0  0  0  0  0  0  0  0  0  0
   39.4761    2.6116   13.1256 C   0  0  0  0  0  0  0  0  0  0  0  0
   39.4484    4.0941   13.5828 C   0  0  0  0  0  0  0  0  0  0  0  0
   40.8056    4.7257   13.2257 C   0  0  0  0  0  0  0  0  0  0  0  0
   39.2560    4.1476   15.1104 C   0  0  0  0  0  0  0  0  0  0  0  0
   38.2825    4.8269   12.8589 C   0  0  0  0  0  0  0  0  0  0  0  0
   36.4447    6.2322   13.8610 C   0  0  0  0  0  0  0  0  0  0  0  0
   37.9036    6.1998   13.4269 C   0  0  0  0  0  0  0  0  0  0  0  0
 26 27  1  0
 27 25  1  0
 25 22  1  0
 22 23  1  0
 22 24  1  0
 22 21  1  0
 21 20  1  0
  1 20  1  0
  1  2  1  0
  2  3  1  0
  2  4  1  0
  4  8  1  0
  8  9  1  0
  9 10  2  0
 10 11  1  0
 11 12  2  0
 11 13  1  0
 13 14  1  0
 14 15  2  0
  4  5  1  0
  5  6  1  0
  6 17  1  0
 17 18  1  0
  6  1  1  0
 14  8  1  0
  3  7  1  0
 13 16  1  0
 18 19  1  0
M  END
> <minimizedAffinity>
-5.24796

> <CNNscore>
0.5488288403

> <CNNaffinity>
4.4779214859

> <CNN_VS>
2.4576125145

> <CNNaffinity_variance>
0.3874209225

$$$$



 27 28  0  0  0  0  0  0  0  0999 V2000
   38.9699    2.2197   12.5216 C   0  0  0  0  0  0  0  0  0  0  0  0
   39.3590    0.7711   12.7799 C   0  0  0  0  0  0  0  0  0  0  0  0
   39.8288    0.0951   11.6169 O   0  0  0  0  0  0  0  0  0  0  0  0
   38.1225    0.1562   13.4471 C   0  0  0  0  0  0  0  0  0  0  0  0
   37.3378    1.2272   13.9969 O   0  0  0  0  0  0  0  0  0  0  0  0
   37.9821    2.4829   13.6583 C   0  0  0  0  0  0  0  0  0  0  0  0
   39.1367    0.1017   10.9374 H   0  0  0  0  0  0  0  0  0  0  0  0
   37.2711   -0.7102   12.6259 N   0  0  0  0  0  0  0  0  0  0  0  0
   37.1367   -2.0407   12.9864 C   0  0  0  0  0  0  0  0  0  0  0  0
   36.4079   -2.9042   12.2762 C   0  0  0  0  0  0  0  0  0  0  0  0
   35.7278   -2.4284   11.0651 C   0  0  0  0  0  0  0  0  0  0  0  0
   35.0416   -3.1825   10.3862 O   0  0  0  0  0  0  0  0  0  0  0  0
   35.9144   -1.1128   10.7643 N   0  0  0  0  0  0  0  0  0  0  0  0
   36.6551   -0.2109   11.4860 C   0  0  0  0  0  0  0  0  0  0  0  0
   36.7159    0.9539   11.0996 O   0  0  0  0  0  0  0  0  0  0  0  0
   35.4750   -0.7764    9.9501 H   0  0  0  0  0  0  0  0  0  0  0  0
   36.8762    3.4779   13.3054 C   0  0  0  0  0  0  0  0  0  0  0  0
   35.6084    2.8218   13.3855 O   0  0  0  0  0  0  0  0  0  0  0  0
   35.5893    2.0783   12.7628 H   0  0  0  0  0  0  0  0  0  0  0  0
   40.1752    2.9953   12.5717 O   0  0  0  0  0  0  0  0  0  0  0  0
   40.1594    4.1552   11.7407 C   0  0  0  0  0  0  0  0  0  0  0  0
   41.5295    4.3276   11.0333 C   0  0  0  0  0  0  0  0  0  0  0  0
   42.2243    2.9546   11.0047 C   0  0  0  0  0  0  0  0  0  0  0  0
   42.3953    5.3117   11.8429 C   0  0  0  0  0  0  0  0  0  0  0  0
   41.2930    4.8650    9.5926 C   0  0  0  0  0  0  0  0  0  0  0  0
   42.4335    5.2798    7.3826 C   0  0  0  0  0  0  0  0  0  0  0  0
   42.2003    4.2778    8.5050 C   0  0  0  0  0  0  0  0  0  0  0  0
 26 27  1  0
 27 25  1  0
 25 22  1  0
 22 23  1  0
 22 24  1  0
 22 21  1  0
 21 20  1  0
  1 20  1  0
  1  2  1  0
  2  3  1  0
  2  4  1  0
  4  8  1  0
  8  9  1  0
  9 10  2  0
 10 11  1  0
 11 12  2  0
 11 13  1  0
 13 14  1  0
 14 15  2  0
  4  5  1  0
  5  6  1  0
  6 17  1  0
 17 18  1  0
  6  1  1  0
 14  8  1  0
  3  7  1  0
 13 16  1  0
 18 19  1  0
M  END
> <minimizedAffinity>
-6.12759

> <CNNscore>
0.5366410613

> <CNNaffinity>
4.4367613792

> <CNN_VS>
2.3809483051

> <CNNaffinity_variance>
0.8600556254

$$$$



 27 28  0  0  0  0  0  0  0  0999 V2000
   38.3535   -3.3308   15.2546 C   0  0  0  0  0  0  0  0  0  0  0  0
   37.5500   -2.7520   14.0989 C   0  0  0  0  0  0  0  0  0  0  0  0
   36.2785   -2.2432   14.4922 O   0  0  0  0  0  0  0  0  0  0  0  0
   37.5179   -3.8753   13.0551 C   0  0  0  0  0  0  0  0  0  0  0  0
   38.6085   -4.7688   13.3330 O   0  0  0  0  0  0  0  0  0  0  0  0
   39.2852   -4.3018   14.5291 C   0  0  0  0  0  0  0  0  0  0  0  0
   35.7552   -2.9550   14.8926 H   0  0  0  0  0  0  0  0  0  0  0  0
   36.2736   -4.6394   12.9217 N   0  0  0  0  0  0  0  0  0  0  0  0
   36.0662   -5.7197   13.7632 C   0  0  0  0  0  0  0  0  0  0  0  0
   34.9771   -6.4873   13.6868 C   0  0  0  0  0  0  0  0  0  0  0  0
   33.9637   -6.1792   12.6701 C   0  0  0  0  0  0  0  0  0  0  0  0
   32.9443   -6.8507   12.5678 O   0  0  0  0  0  0  0  0  0  0  0  0
   34.2393   -5.1117   11.8696 N   0  0  0  0  0  0  0  0  0  0  0  0
   35.3504   -4.3095   11.9383 C   0  0  0  0  0  0  0  0  0  0  0  0
   35.4524   -3.3661   11.1577 O   0  0  0  0  0  0  0  0  0  0  0  0
   33.5769   -4.8948   11.1744 H   0  0  0  0  0  0  0  0  0  0  0  0
   39.6592   -5.5371   15.3486 C   0  0  0  0  0  0  0  0  0  0  0  0
   39.1424   -6.7043   14.7048 O   0  0  0  0  0  0  0  0  0  0  0  0
   38.1771   -6.6366   14.6388 H   0  0  0  0  0  0  0  0  0  0  0  0
   39.0071   -2.2326   15.9054 O   0  0  0  0  0  0  0  0  0  0  0  0
   39.0655   -2.3456   17.3267 C   0  0  0  0  0  0  0  0  0  0  0  0
   39.9650   -1.2280   17.9176 C   0  0  0  0  0  0  0  0  0  0  0  0
   39.1659   -0.5090   19.0190 C   0  0  0  0  0  0  0  0  0  0  0  0
   40.3101   -0.2178   16.8069 C   0  0  0  0  0  0  0  0  0  0  0  0
   41.2595   -1.8700   18.4942 C   0  0  0  0  0  0  0  0  0  0  0  0
   41.5328   -4.0453   19.7393 C   0  0  0  0  0  0  0  0  0  0  0  0
   41.1049   -2.5877   19.8404 C   0  0  0  0  0  0  0  0  0  0  0  0
 26 27  1  0
 27 25  1  0
 25 22  1  0
 22 23  1  0
 22 24  1  0
 22 21  1  0
 21 20  1  0
  1 20  1  0
  1  2  1  0
  2  3  1  0
  2  4  1  0
  4  8  1  0
  8  9  1  0
  9 10  2  0
 10 11  1  0
 11 12  2  0
 11 13  1  0
 13 14  1  0
 14 15  2  0
  4  5  1  0
  5  6  1  0
  6 17  1  0
 17 18  1  0
  6  1  1  0
 14  8  1  0
  3  7  1  0
 13 16  1  0
 18 19  1  0
M  END
> <minimizedAffinity>
-5.26803

> <CNNscore>
0.4923542440

> <CNNaffinity>
4.6787161827

> <CNN_VS>
2.3035857677

> <CNNaffinity_variance>
0.0477907211

$$$$



 27 28  0  0  0  0  0  0  0  0999 V2000
   38.0002   -2.7109   12.2959 C   0  0  0  0  0  0  0  0  0  0  0  0
   38.1546   -4.0593   12.9847 C   0  0  0  0  0  0  0  0  0  0  0  0
   38.9880   -4.9678   12.2704 O   0  0  0  0  0  0  0  0  0  0  0  0
   36.7157   -4.5326   13.2255 C   0  0  0  0  0  0  0  0  0  0  0  0
   35.8582   -3.3804   13.1841 O   0  0  0  0  0  0  0  0  0  0  0  0
   36.6711   -2.2198   12.8699 C   0  0  0  0  0  0  0  0  0  0  0  0
   38.6150   -5.1239   11.3888 H   0  0  0  0  0  0  0  0  0  0  0  0
   36.1888   -5.5742   12.3381 N   0  0  0  0  0  0  0  0  0  0  0  0
   36.8498   -6.7897   12.2779 C   0  0  0  0  0  0  0  0  0  0  0  0
   36.4562   -7.7789   11.4730 C   0  0  0  0  0  0  0  0  0  0  0  0
   35.2828   -7.5698   10.6157 C   0  0  0  0  0  0  0  0  0  0  0  0
   34.8799   -8.4517    9.8671 O   0  0  0  0  0  0  0  0  0  0  0  0
   34.6904   -6.3472   10.7178 N   0  0  0  0  0  0  0  0  0  0  0  0
   35.0785   -5.3221   11.5432 C   0  0  0  0  0  0  0  0  0  0  0  0
   34.4309   -4.2778   11.5402 O   0  0  0  0  0  0  0  0  0  0  0  0
   33.9078   -6.1833   10.1434 H   0  0  0  0  0  0  0  0  0  0  0  0
   35.8618   -1.3472   11.9102 C   0  0  0  0  0  0  0  0  0  0  0  0
   36.7412   -0.7710   10.9413 O   0  0  0  0  0  0  0  0  0  0  0  0
   37.4080   -0.2292   11.3915 H   0  0  0  0  0  0  0  0  0  0  0  0
   39.1443   -1.9226   12.6511 O   0  0  0  0  0  0  0  0  0  0  0  0
   39.1746   -1.5190   14.0195 C   0  0  0  0  0  0  0  0  0  0  0  0
   40.6315   -1.5391   14.5530 C   0  0  0  0  0  0  0  0  0  0  0  0
   41.2785   -0.1840   14.2157 C   0  0  0  0  0  0  0  0  0  0  0  0
   41.4139   -2.6598   13.8421 C   0  0  0  0  0  0  0  0  0  0  0  0
   40.6062   -1.7800   16.0897 C   0  0  0  0  0  0  0  0  0  0  0  0
   38.8181   -2.3800   17.7629 C   0  0  0  0  0  0  0  0  0  0  0  0
   39.6410   -2.8668   16.5780 C   0  0  0  0  0  0  0  0  0  0  0  0
 26 27  1  0
 27 25  1  0
 25 22  1  0
 22 23  1  0
 22 24  1  0
 22 21  1  0
 21 20  1  0
  1 20  1  0
  1  2  1  0
  2  3  1  0
  2  4  1  0
  4  8  1  0
  8  9  1  0
  9 10  2  0
 10 11  1  0
 11 12  2  0
 11 13  1  0
 13 14  1  0
 14 15  2  0
  4  5  1  0
  5  6  1  0
  6 17  1  0
 17 18  1  0
  6  1  1  0
 14  8  1  0
  3  7  1  0
 13 16  1  0
 18 19  1  0
M  END
> <minimizedAffinity>
-5.00750

> <CNNscore>
0.4255714715

> <CNNaffinity>
4.4548335075

> <CNN_VS>
1.8958500624

> <CNNaffinity_variance>
0.0676157027

$$$$



 27 28  0  0  0  0  0  0  0  0999 V2000
   38.0129   -2.7679   11.9344 C   0  0  0  0  0  0  0  0  0  0  0  0
   37.9733   -3.9977   12.8303 C   0  0  0  0  0  0  0  0  0  0  0  0
   38.3386   -5.1997   12.1581 O   0  0  0  0  0  0  0  0  0  0  0  0
   36.5653   -3.9826   13.4383 C   0  0  0  0  0  0  0  0  0  0  0  0
   36.0559   -2.6425   13.3415 O   0  0  0  0  0  0  0  0  0  0  0  0
   37.0413   -1.8304   12.6516 C   0  0  0  0  0  0  0  0  0  0  0  0
   37.7334   -5.3517   11.4155 H   0  0  0  0  0  0  0  0  0  0  0  0
   35.5834   -4.9260   12.8943 N   0  0  0  0  0  0  0  0  0  0  0  0
   35.2857   -6.0656   13.6229 C   0  0  0  0  0  0  0  0  0  0  0  0
   34.4289   -6.9907   13.1855 C   0  0  0  0  0  0  0  0  0  0  0  0
   33.7819   -6.7967   11.8819 C   0  0  0  0  0  0  0  0  0  0  0  0
   32.9826   -7.6147   11.4433 O   0  0  0  0  0  0  0  0  0  0  0  0
   34.1311   -5.6609   11.2154 N   0  0  0  0  0  0  0  0  0  0  0  0
   35.0051   -4.6978   11.6527 C   0  0  0  0  0  0  0  0  0  0  0  0
   35.2073   -3.7127   10.9465 O   0  0  0  0  0  0  0  0  0  0  0  0
   33.7159   -5.5173   10.3343 H   0  0  0  0  0  0  0  0  0  0  0  0
   36.2788   -0.8898   11.7182 C   0  0  0  0  0  0  0  0  0  0  0  0
   35.6399    0.1278   12.4930 O   0  0  0  0  0  0  0  0  0  0  0  0
   35.0224   -0.2822   13.1188 H   0  0  0  0  0  0  0  0  0  0  0  0
   39.3742   -2.3186   11.8952 O   0  0  0  0  0  0  0  0  0  0  0  0
   39.6391   -1.1822   12.7167 C   0  0  0  0  0  0  0  0  0  0  0  0
   40.7737   -0.3244   12.0968 C   0  0  0  0  0  0  0  0  0  0  0  0
   40.9348   -0.7437   10.6249 C   0  0  0  0  0  0  0  0  0  0  0  0
   42.0890   -0.6091   12.8468 C   0  0  0  0  0  0  0  0  0  0  0  0
   40.3935    1.1798   12.2117 C   0  0  0  0  0  0  0  0  0  0  0  0
   38.8506    2.2750   13.8782 C   0  0  0  0  0  0  0  0  0  0  0  0
   38.9359    1.4719   12.5875 C   0  0  0  0  0  0  0  0  0  0  0  0
 26 27  1  0
 27 25  1  0
 25 22  1  0
 22 23  1  0
 22 24  1  0
 22 21  1  0
 21 20  1  0
  1 20  1  0
  1  2  1  0
  2  3  1  0
  2  4  1  0
  4  8  1  0
  8  9  1  0
  9 10  2  0
 10 11  1  0
 11 12  2  0
 11 13  1  0
 13 14  1  0
 14 15  2  0
  4  5  1  0
  5  6  1  0
  6 17  1  0
 17 18  1  0
  6  1  1  0
 14  8  1  0
  3  7  1  0
 13 16  1  0
 18 19  1  0
M  END
> <minimizedAffinity>
-5.75862

> <CNNscore>
0.3826670945

> <CNNaffinity>
4.3783760071

> <CNN_VS>
1.6754604578

> <CNNaffinity_variance>
0.4865692556

$$$$
