


 45 49  0  0  0  0  0  0  0  0999 V2000
  -26.2077  -54.7246  -11.7626 C   0  0  0  0  0  0  0  0  0  0  0  0
  -24.3964  -53.0678  -12.2079 N   0  0  0  0  0  0  0  0  0  0  0  0
  -25.5928  -53.3122  -11.5690 C   0  0  0  0  0  0  0  0  0  0  0  0
  -26.0838  -52.4932  -10.7872 O   0  0  0  0  0  0  0  0  0  0  0  0
  -24.0007  -53.7744  -12.7678 H   0  0  0  0  0  0  0  0  0  0  0  0
  -23.7027  -51.7997  -12.0798 C   0  0  0  0  0  0  0  0  0  0  0  0
  -18.7215  -47.5894  -11.4003 N   0  0  0  0  0  0  0  0  0  0  0  0
  -19.6317  -48.6286  -11.5793 C   0  0  0  0  0  0  0  0  0  0  0  0
  -20.9909  -48.3890  -11.5368 C   0  0  0  0  0  0  0  0  0  0  0  0
  -21.8627  -49.4617  -11.7030 C   0  0  0  0  0  0  0  0  0  0  0  0
  -21.3669  -50.7660  -11.8996 C   0  0  0  0  0  0  0  0  0  0  0  0
  -22.1896  -51.9218  -12.0784 C   0  0  0  0  0  0  0  0  0  0  0  0
  -21.5728  -53.1789  -12.2003 C   0  0  0  0  0  0  0  0  0  0  0  0
  -20.1871  -53.2917  -12.2051 C   0  0  0  0  0  0  0  0  0  0  0  0
  -19.3997  -52.1509  -12.0645 C   0  0  0  0  0  0  0  0  0  0  0  0
  -19.9570  -50.8934  -11.9032 C   0  0  0  0  0  0  0  0  0  0  0  0
  -19.1172  -49.8534  -11.7548 N   0  0  0  0  0  0  0  0  0  0  0  0
  -19.0451  -46.6692  -11.2671 H   0  0  0  0  0  0  0  0  0  0  0  0
  -17.7548  -47.7752  -11.4070 H   0  0  0  0  0  0  0  0  0  0  0  0
  -27.0620  -55.0081  -10.5992 N   0  0  0  0  0  0  0  0  0  0  0  0
  -26.5431  -55.5470   -9.4366 C   0  0  0  0  0  0  0  0  0  0  0  0
  -25.3467  -55.6777   -9.2132 O   0  0  0  0  0  0  0  0  0  0  0  0
  -28.0249  -54.8095  -10.6496 H   0  0  0  0  0  0  0  0  0  0  0  0
  -27.5431  -56.0119   -8.4376 C   0  0  0  0  0  0  0  0  0  0  0  0
  -28.7897  -55.3844   -8.3088 C   0  0  0  0  0  0  0  0  0  0  0  0
  -29.7080  -55.8460   -7.3640 C   0  0  0  0  0  0  0  0  0  0  0  0
  -29.3730  -56.9274   -6.5463 C   0  0  0  0  0  0  0  0  0  0  0  0
  -30.3002  -57.3925   -5.6053 N   0  0  0  0  0  0  0  0  0  0  0  0
  -30.0620  -58.4453   -4.7650 C   0  0  0  0  0  0  0  0  0  0  0  0
  -30.8918  -58.8416   -3.9547 O   0  0  0  0  0  0  0  0  0  0  0  0
  -28.7389  -59.1019   -4.8667 C   0  0  0  0  0  0  0  0  0  0  0  0
  -27.8269  -58.6811   -5.7521 C   0  0  0  0  0  0  0  0  0  0  0  0
  -26.5821  -59.2579   -5.8785 O   0  0  0  0  0  0  0  0  0  0  0  0
  -28.1212  -57.5542   -6.6502 C   0  0  0  0  0  0  0  0  0  0  0  0
  -27.2064  -57.0838   -7.5995 C   0  0  0  0  0  0  0  0  0  0  0  0
  -31.1709  -56.9368   -5.5453 H   0  0  0  0  0  0  0  0  0  0  0  0
  -26.3423  -59.9795   -5.3310 H   0  0  0  0  0  0  0  0  0  0  0  0
  -26.8647  -54.9730  -13.1352 C   0  0  0  0  0  0  0  0  0  0  0  0
  -28.2154  -55.6532  -13.0389 C   0  0  0  0  0  0  0  0  0  0  0  0
  -28.3268  -56.9451  -12.5008 C   0  0  0  0  0  0  0  0  0  0  0  0
  -29.5744  -57.5639  -12.4081 C   0  0  0  0  0  0  0  0  0  0  0  0
  -30.7092  -56.8911  -12.8448 C   0  0  0  0  0  0  0  0  0  0  0  0
  -31.9049  -57.4846  -12.7480 F   0  0  0  0  0  0  0  0  0  0  0  0
  -30.6201  -55.6134  -13.3806 C   0  0  0  0  0  0  0  0  0  0  0  0
  -29.3738  -54.9947  -13.4799 C   0  0  0  0  0  0  0  0  0  0  0  0
  7  8  1  0
  8  9  2  0
  9 10  1  0
 10 11  2  0
 11 12  1  0
 12  6  1  0
  6  2  1  0
  2  3  1  0
  3  4  2  0
  3  1  1  0
  1 38  1  0
 38 39  1  0
 39 40  2  0
 40 41  1  0
 41 42  2  0
 42 43  1  0
 42 44  1  0
 44 45  2  0
  1 20  1  0
 20 21  1  0
 21 22  2  0
 21 24  1  0
 24 25  2  0
 25 26  1  0
 26 27  2  0
 27 28  1  0
 28 29  1  0
 29 30  2  0
 29 31  1  0
 31 32  2  0
 32 33  1  0
 32 34  1  0
 34 35  2  0
 12 13  2  0
 13 14  1  0
 14 15  2  0
 15 16  1  0
 16 17  2  0
 17  8  1  0
 16 11  1  0
 45 39  1  0
 35 24  1  0
 34 27  1  0
  7 18  1  0
  7 19  1  0
  2  5  1  0
 20 23  1  0
 28 36  1  0
 33 37  1  0
M  END
> <minimizedAffinity>
-9.68493

> <CNNscore>
0.9383171201

> <CNNaffinity>
7.8696022034

> <CNN_VS>
7.3841824532

> <CNNaffinity_variance>
0.1610185057

$$$$



 45 49  0  0  0  0  0  0  0  0999 V2000
  -26.3899  -53.8830  -11.3055 C   0  0  0  0  0  0  0  0  0  0  0  0
  -24.7450  -52.4639  -12.5321 N   0  0  0  0  0  0  0  0  0  0  0  0
  -25.4994  -52.6139  -11.3886 C   0  0  0  0  0  0  0  0  0  0  0  0
  -25.3783  -51.8435  -10.4321 O   0  0  0  0  0  0  0  0  0  0  0  0
  -24.8173  -53.1398  -13.2443 H   0  0  0  0  0  0  0  0  0  0  0  0
  -23.8471  -51.3390  -12.7174 C   0  0  0  0  0  0  0  0  0  0  0  0
  -18.5984  -47.7000  -11.2315 N   0  0  0  0  0  0  0  0  0  0  0  0
  -19.5829  -48.6371  -11.5365 C   0  0  0  0  0  0  0  0  0  0  0  0
  -20.8726  -48.2354  -11.8227 C   0  0  0  0  0  0  0  0  0  0  0  0
  -21.8274  -49.2088  -12.1039 C   0  0  0  0  0  0  0  0  0  0  0  0
  -21.4858  -50.5758  -12.0858 C   0  0  0  0  0  0  0  0  0  0  0  0
  -22.4020  -51.6384  -12.3621 C   0  0  0  0  0  0  0  0  0  0  0  0
  -21.9532  -52.9655  -12.2472 C   0  0  0  0  0  0  0  0  0  0  0  0
  -20.6285  -53.2412  -11.9277 C   0  0  0  0  0  0  0  0  0  0  0  0
  -19.7403  -52.1932  -11.6955 C   0  0  0  0  0  0  0  0  0  0  0  0
  -20.1400  -50.8687  -11.7585 C   0  0  0  0  0  0  0  0  0  0  0  0
  -19.2169  -49.9256  -11.4994 N   0  0  0  0  0  0  0  0  0  0  0  0
  -18.8127  -46.7392  -11.2436 H   0  0  0  0  0  0  0  0  0  0  0  0
  -17.6883  -47.9985  -11.0040 H   0  0  0  0  0  0  0  0  0  0  0  0
  -26.8497  -54.2014  -12.6659 N   0  0  0  0  0  0  0  0  0  0  0  0
  -26.0336  -54.8572  -13.5690 C   0  0  0  0  0  0  0  0  0  0  0  0
  -24.9569  -55.3636  -13.2813 O   0  0  0  0  0  0  0  0  0  0  0  0
  -27.7590  -53.9417  -12.9396 H   0  0  0  0  0  0  0  0  0  0  0  0
  -26.5241  -54.8958  -14.9732 C   0  0  0  0  0  0  0  0  0  0  0  0
  -27.7448  -55.5010  -15.3018 C   0  0  0  0  0  0  0  0  0  0  0  0
  -28.1793  -55.5183  -16.6285 C   0  0  0  0  0  0  0  0  0  0  0  0
  -27.3877  -54.9380  -17.6220 C   0  0  0  0  0  0  0  0  0  0  0  0
  -27.8310  -54.9503  -18.9505 N   0  0  0  0  0  0  0  0  0  0  0  0
  -27.1262  -54.4050  -19.9883 C   0  0  0  0  0  0  0  0  0  0  0  0
  -27.5376  -54.4191  -21.1427 O   0  0  0  0  0  0  0  0  0  0  0  0
  -25.8203  -53.7872  -19.6641 C   0  0  0  0  0  0  0  0  0  0  0  0
  -25.3636  -53.7610  -18.4058 C   0  0  0  0  0  0  0  0  0  0  0  0
  -24.1532  -53.2019  -18.0585 O   0  0  0  0  0  0  0  0  0  0  0  0
  -26.1537  -54.3449  -17.3115 C   0  0  0  0  0  0  0  0  0  0  0  0
  -25.7258  -54.3334  -15.9788 C   0  0  0  0  0  0  0  0  0  0  0  0
  -28.6971  -55.3746  -19.1482 H   0  0  0  0  0  0  0  0  0  0  0  0
  -23.6094  -52.8158  -18.7166 H   0  0  0  0  0  0  0  0  0  0  0  0
  -25.7792  -55.0647  -10.5258 C   0  0  0  0  0  0  0  0  0  0  0  0
  -26.5692  -55.4380   -9.2877 C   0  0  0  0  0  0  0  0  0  0  0  0
  -25.9721  -56.1823   -8.2579 C   0  0  0  0  0  0  0  0  0  0  0  0
  -26.7026  -56.5171   -7.1167 C   0  0  0  0  0  0  0  0  0  0  0  0
  -28.0242  -56.1032   -7.0008 C   0  0  0  0  0  0  0  0  0  0  0  0
  -28.7196  -56.4201   -5.9021 F   0  0  0  0  0  0  0  0  0  0  0  0
  -28.6330  -55.3672   -8.0083 C   0  0  0  0  0  0  0  0  0  0  0  0
  -27.9072  -55.0359   -9.1526 C   0  0  0  0  0  0  0  0  0  0  0  0
  7  8  1  0
  8  9  2  0
  9 10  1  0
 10 11  2  0
 11 12  1  0
 12  6  1  0
  6  2  1  0
  2  3  1  0
  3  4  2  0
  3  1  1  0
  1 38  1  0
 38 39  1  0
 39 40  2  0
 40 41  1  0
 41 42  2  0
 42 43  1  0
 42 44  1  0
 44 45  2  0
  1 20  1  0
 20 21  1  0
 21 22  2  0
 21 24  1  0
 24 25  2  0
 25 26  1  0
 26 27  2  0
 27 28  1  0
 28 29  1  0
 29 30  2  0
 29 31  1  0
 31 32  2  0
 32 33  1  0
 32 34  1  0
 34 35  2  0
 12 13  2  0
 13 14  1  0
 14 15  2  0
 15 16  1  0
 16 17  2  0
 17  8  1  0
 16 11  1  0
 45 39  1  0
 35 24  1  0
 34 27  1  0
  7 18  1  0
  7 19  1  0
  2  5  1  0
 20 23  1  0
 28 36  1  0
 33 37  1  0
M  END
> <minimizedAffinity>
-11.23608

> <CNNscore>
0.8574503660

> <CNNaffinity>
7.6376404762

> <CNN_VS>
6.5488977432

> <CNNaffinity_variance>
0.0594507642

$$$$



 45 49  0  0  0  0  0  0  0  0999 V2000
  -26.2612  -54.2192  -11.9776 C   0  0  0  0  0  0  0  0  0  0  0  0
  -24.3771  -52.5866  -12.0703 N   0  0  0  0  0  0  0  0  0  0  0  0
  -25.5610  -52.9351  -11.4569 C   0  0  0  0  0  0  0  0  0  0  0  0
  -25.9759  -52.3270  -10.4663 O   0  0  0  0  0  0  0  0  0  0  0  0
  -24.0427  -53.1398  -12.8128 H   0  0  0  0  0  0  0  0  0  0  0  0
  -23.6088  -51.4280  -11.6539 C   0  0  0  0  0  0  0  0  0  0  0  0
  -18.4181  -47.4209  -11.6618 N   0  0  0  0  0  0  0  0  0  0  0  0
  -19.3818  -48.4264  -11.6911 C   0  0  0  0  0  0  0  0  0  0  0  0
  -20.7237  -48.1186  -11.5844 C   0  0  0  0  0  0  0  0  0  0  0  0
  -21.6496  -49.1581  -11.6005 C   0  0  0  0  0  0  0  0  0  0  0  0
  -21.2241  -50.4969  -11.7125 C   0  0  0  0  0  0  0  0  0  0  0  0
  -22.1056  -51.6225  -11.7369 C   0  0  0  0  0  0  0  0  0  0  0  0
  -21.5525  -52.9138  -11.7863 C   0  0  0  0  0  0  0  0  0  0  0  0
  -20.1763  -53.0934  -11.8684 C   0  0  0  0  0  0  0  0  0  0  0  0
  -19.3333  -51.9842  -11.8784 C   0  0  0  0  0  0  0  0  0  0  0  0
  -19.8243  -50.6921  -11.7936 C   0  0  0  0  0  0  0  0  0  0  0  0
  -18.9329  -49.6850  -11.7903 N   0  0  0  0  0  0  0  0  0  0  0  0
  -18.6924  -46.4781  -11.5899 H   0  0  0  0  0  0  0  0  0  0  0  0
  -17.4628  -47.6531  -11.7129 H   0  0  0  0  0  0  0  0  0  0  0  0
  -26.5043  -55.0997  -10.8248 N   0  0  0  0  0  0  0  0  0  0  0  0
  -27.6607  -55.0029  -10.0734 C   0  0  0  0  0  0  0  0  0  0  0  0
  -28.6272  -54.3186  -10.3834 O   0  0  0  0  0  0  0  0  0  0  0  0
  -25.8282  -55.7732  -10.5828 H   0  0  0  0  0  0  0  0  0  0  0  0
  -27.6703  -55.7731   -8.8003 C   0  0  0  0  0  0  0  0  0  0  0  0
  -26.4993  -55.9591   -8.0529 C   0  0  0  0  0  0  0  0  0  0  0  0
  -26.5413  -56.6842   -6.8606 C   0  0  0  0  0  0  0  0  0  0  0  0
  -27.7519  -57.2273   -6.4250 C   0  0  0  0  0  0  0  0  0  0  0  0
  -27.7912  -57.9472   -5.2242 N   0  0  0  0  0  0  0  0  0  0  0  0
  -28.9296  -58.5118   -4.7177 C   0  0  0  0  0  0  0  0  0  0  0  0
  -28.9430  -59.1304   -3.6596 O   0  0  0  0  0  0  0  0  0  0  0  0
  -30.1706  -58.3506   -5.5088 C   0  0  0  0  0  0  0  0  0  0  0  0
  -30.1689  -57.6722   -6.6631 C   0  0  0  0  0  0  0  0  0  0  0  0
  -31.2976  -57.5011   -7.4345 O   0  0  0  0  0  0  0  0  0  0  0  0
  -28.9294  -57.0660   -7.1721 C   0  0  0  0  0  0  0  0  0  0  0  0
  -28.8775  -56.3385   -8.3668 C   0  0  0  0  0  0  0  0  0  0  0  0
  -26.9540  -58.0525   -4.7170 H   0  0  0  0  0  0  0  0  0  0  0  0
  -32.1145  -57.8667   -7.1570 H   0  0  0  0  0  0  0  0  0  0  0  0
  -27.4818  -53.9788  -12.8887 C   0  0  0  0  0  0  0  0  0  0  0  0
  -27.7982  -55.1556  -13.7895 C   0  0  0  0  0  0  0  0  0  0  0  0
  -26.7695  -55.8433  -14.4527 C   0  0  0  0  0  0  0  0  0  0  0  0
  -27.0663  -56.9308  -15.2756 C   0  0  0  0  0  0  0  0  0  0  0  0
  -28.3868  -57.3354  -15.4300 C   0  0  0  0  0  0  0  0  0  0  0  0
  -28.6672  -58.3830  -16.2143 F   0  0  0  0  0  0  0  0  0  0  0  0
  -29.4184  -56.6682  -14.7834 C   0  0  0  0  0  0  0  0  0  0  0  0
  -29.1254  -55.5773  -13.9649 C   0  0  0  0  0  0  0  0  0  0  0  0
  7  8  1  0
  8  9  2  0
  9 10  1  0
 10 11  2  0
 11 12  1  0
 12  6  1  0
  6  2  1  0
  2  3  1  0
  3  4  2  0
  3  1  1  0
  1 38  1  0
 38 39  1  0
 39 40  2  0
 40 41  1  0
 41 42  2  0
 42 43  1  0
 42 44  1  0
 44 45  2  0
  1 20  1  0
 20 21  1  0
 21 22  2  0
 21 24  1  0
 24 25  2  0
 25 26  1  0
 26 27  2  0
 27 28  1  0
 28 29  1  0
 29 30  2  0
 29 31  1  0
 31 32  2  0
 32 33  1  0
 32 34  1  0
 34 35  2  0
 12 13  2  0
 13 14  1  0
 14 15  2  0
 15 16  1  0
 16 17  2  0
 17  8  1  0
 16 11  1  0
 45 39  1  0
 35 24  1  0
 34 27  1  0
  7 18  1  0
  7 19  1  0
  2  5  1  0
 20 23  1  0
 28 36  1  0
 33 37  1  0
M  END
> <minimizedAffinity>
-10.47342

> <CNNscore>
0.7039470673

> <CNNaffinity>
7.2135429382

> <CNN_VS>
5.0779523849

> <CNNaffinity_variance>
0.1472572535

$$$$



 45 49  0  0  0  0  0  0  0  0999 V2000
  -26.6453  -54.4107  -11.1808 C   0  0  0  0  0  0  0  0  0  0  0  0
  -24.7066  -52.9515  -11.7607 N   0  0  0  0  0  0  0  0  0  0  0  0
  -25.9031  -53.0505  -11.0841 C   0  0  0  0  0  0  0  0  0  0  0  0
  -26.2996  -52.1472  -10.3424 O   0  0  0  0  0  0  0  0  0  0  0  0
  -24.3894  -53.7217  -12.2855 H   0  0  0  0  0  0  0  0  0  0  0  0
  -23.9005  -51.7455  -11.7224 C   0  0  0  0  0  0  0  0  0  0  0  0
  -18.4979  -48.0447  -11.3819 N   0  0  0  0  0  0  0  0  0  0  0  0
  -19.5185  -48.9817  -11.5262 C   0  0  0  0  0  0  0  0  0  0  0  0
  -20.8285  -48.6437  -11.2502 C   0  0  0  0  0  0  0  0  0  0  0  0
  -21.8126  -49.6183  -11.3912 C   0  0  0  0  0  0  0  0  0  0  0  0
  -21.4759  -50.9251  -11.7970 C   0  0  0  0  0  0  0  0  0  0  0  0
  -22.4214  -51.9843  -11.9668 C   0  0  0  0  0  0  0  0  0  0  0  0
  -21.9502  -53.2626  -12.3127 C   0  0  0  0  0  0  0  0  0  0  0  0
  -20.5967  -53.4815  -12.5426 C   0  0  0  0  0  0  0  0  0  0  0  0
  -19.6929  -52.4300  -12.4065 C   0  0  0  0  0  0  0  0  0  0  0  0
  -20.0997  -51.1605  -12.0310 C   0  0  0  0  0  0  0  0  0  0  0  0
  -19.1528  -50.2137  -11.9058 N   0  0  0  0  0  0  0  0  0  0  0  0
  -18.7103  -47.1242  -11.1051 H   0  0  0  0  0  0  0  0  0  0  0  0
  -17.5641  -48.3031  -11.5568 H   0  0  0  0  0  0  0  0  0  0  0  0
  -26.8294  -54.7239  -12.6061 N   0  0  0  0  0  0  0  0  0  0  0  0
  -27.8920  -55.4916  -13.0453 C   0  0  0  0  0  0  0  0  0  0  0  0
  -28.8344  -55.8291  -12.3406 O   0  0  0  0  0  0  0  0  0  0  0  0
  -26.1814  -54.3791  -13.2621 H   0  0  0  0  0  0  0  0  0  0  0  0
  -27.8242  -55.9376  -14.4632 C   0  0  0  0  0  0  0  0  0  0  0  0
  -27.8388  -55.0151  -15.5183 C   0  0  0  0  0  0  0  0  0  0  0  0
  -27.7708  -55.4647  -16.8382 C   0  0  0  0  0  0  0  0  0  0  0  0
  -27.6970  -56.8349  -17.0980 C   0  0  0  0  0  0  0  0  0  0  0  0
  -27.6207  -57.2814  -18.4233 N   0  0  0  0  0  0  0  0  0  0  0  0
  -27.5425  -58.6015  -18.7736 C   0  0  0  0  0  0  0  0  0  0  0  0
  -27.4674  -58.9696  -19.9402 O   0  0  0  0  0  0  0  0  0  0  0  0
  -27.5555  -59.5918  -17.6731 C   0  0  0  0  0  0  0  0  0  0  0  0
  -27.6315  -59.2009  -16.3948 C   0  0  0  0  0  0  0  0  0  0  0  0
  -27.6517  -60.0863  -15.3394 O   0  0  0  0  0  0  0  0  0  0  0  0
  -27.7007  -57.7722  -16.0529 C   0  0  0  0  0  0  0  0  0  0  0  0
  -27.7704  -57.3121  -14.7327 C   0  0  0  0  0  0  0  0  0  0  0  0
  -27.6235  -56.6086  -19.1420 H   0  0  0  0  0  0  0  0  0  0  0  0
  -27.6100  -61.0084  -15.5005 H   0  0  0  0  0  0  0  0  0  0  0  0
  -26.0452  -55.5488  -10.3310 C   0  0  0  0  0  0  0  0  0  0  0  0
  -26.8287  -55.8280   -9.0643 C   0  0  0  0  0  0  0  0  0  0  0  0
  -28.1980  -55.5270   -8.9914 C   0  0  0  0  0  0  0  0  0  0  0  0
  -28.9161  -55.7929   -7.8245 C   0  0  0  0  0  0  0  0  0  0  0  0
  -28.2698  -56.3651   -6.7353 C   0  0  0  0  0  0  0  0  0  0  0  0
  -28.9629  -56.6252   -5.6204 F   0  0  0  0  0  0  0  0  0  0  0  0
  -26.9162  -56.6695   -6.7872 C   0  0  0  0  0  0  0  0  0  0  0  0
  -26.1947  -56.3996   -7.9501 C   0  0  0  0  0  0  0  0  0  0  0  0
  7  8  1  0
  8  9  2  0
  9 10  1  0
 10 11  2  0
 11 12  1  0
 12  6  1  0
  6  2  1  0
  2  3  1  0
  3  4  2  0
  3  1  1  0
  1 38  1  0
 38 39  1  0
 39 40  2  0
 40 41  1  0
 41 42  2  0
 42 43  1  0
 42 44  1  0
 44 45  2  0
  1 20  1  0
 20 21  1  0
 21 22  2  0
 21 24  1  0
 24 25  2  0
 25 26  1  0
 26 27  2  0
 27 28  1  0
 28 29  1  0
 29 30  2  0
 29 31  1  0
 31 32  2  0
 32 33  1  0
 32 34  1  0
 34 35  2  0
 12 13  2  0
 13 14  1  0
 14 15  2  0
 15 16  1  0
 16 17  2  0
 17  8  1  0
 16 11  1  0
 45 39  1  0
 35 24  1  0
 34 27  1  0
  7 18  1  0
  7 19  1  0
  2  5  1  0
 20 23  1  0
 28 36  1  0
 33 37  1  0
M  END
> <minimizedAffinity>
-10.12632

> <CNNscore>
0.6248312593

> <CNNaffinity>
6.9857459068

> <CNN_VS>
4.3649125099

> <CNNaffinity_variance>
0.1712559015

$$$$



 45 49  0  0  0  0  0  0  0  0999 V2000
  -26.3749  -54.2731  -11.2123 C   0  0  0  0  0  0  0  0  0  0  0  0
  -24.7046  -52.5038  -11.7636 N   0  0  0  0  0  0  0  0  0  0  0  0
  -25.4612  -53.5525  -12.2401 C   0  0  0  0  0  0  0  0  0  0  0  0
  -25.5009  -53.8225  -13.4437 O   0  0  0  0  0  0  0  0  0  0  0  0
  -24.7548  -52.2742  -10.8075 H   0  0  0  0  0  0  0  0  0  0  0  0
  -23.8361  -51.7281  -12.6295 C   0  0  0  0  0  0  0  0  0  0  0  0
  -18.8092  -47.7464  -11.2593 N   0  0  0  0  0  0  0  0  0  0  0  0
  -19.7342  -48.7460  -11.5523 C   0  0  0  0  0  0  0  0  0  0  0  0
  -21.0636  -48.4359  -11.7601 C   0  0  0  0  0  0  0  0  0  0  0  0
  -21.9549  -49.4701  -12.0323 C   0  0  0  0  0  0  0  0  0  0  0  0
  -21.5102  -50.8063  -12.0837 C   0  0  0  0  0  0  0  0  0  0  0  0
  -22.3561  -51.9265  -12.3563 C   0  0  0  0  0  0  0  0  0  0  0  0
  -21.8026  -53.2179  -12.3148 C   0  0  0  0  0  0  0  0  0  0  0  0
  -20.4463  -53.4009  -12.0706 C   0  0  0  0  0  0  0  0  0  0  0  0
  -19.6294  -52.2958  -11.8412 C   0  0  0  0  0  0  0  0  0  0  0  0
  -20.1311  -51.0050  -11.8335 C   0  0  0  0  0  0  0  0  0  0  0  0
  -19.2700  -50.0027  -11.5829 N   0  0  0  0  0  0  0  0  0  0  0  0
  -19.0962  -46.8054  -11.2237 H   0  0  0  0  0  0  0  0  0  0  0  0
  -17.8686  -47.9811  -11.0877 H   0  0  0  0  0  0  0  0  0  0  0  0
  -27.3902  -55.0279  -11.9626 N   0  0  0  0  0  0  0  0  0  0  0  0
  -28.6181  -54.4740  -12.2738 C   0  0  0  0  0  0  0  0  0  0  0  0
  -28.9025  -53.2948  -12.1088 O   0  0  0  0  0  0  0  0  0  0  0  0
  -27.1909  -55.9483  -12.2496 H   0  0  0  0  0  0  0  0  0  0  0  0
  -29.6351  -55.4180  -12.8110 C   0  0  0  0  0  0  0  0  0  0  0  0
  -30.3274  -55.1442  -13.9985 C   0  0  0  0  0  0  0  0  0  0  0  0
  -31.2738  -56.0514  -14.4784 C   0  0  0  0  0  0  0  0  0  0  0  0
  -31.5300  -57.2243  -13.7649 C   0  0  0  0  0  0  0  0  0  0  0  0
  -32.4743  -58.1356  -14.2542 N   0  0  0  0  0  0  0  0  0  0  0  0
  -32.7886  -59.3097  -13.6264 C   0  0  0  0  0  0  0  0  0  0  0  0
  -33.6122  -60.0973  -14.0773 O   0  0  0  0  0  0  0  0  0  0  0  0
  -32.0883  -59.6017  -12.3550 C   0  0  0  0  0  0  0  0  0  0  0  0
  -31.1826  -58.7512  -11.8559 C   0  0  0  0  0  0  0  0  0  0  0  0
  -30.5105  -58.9788  -10.6749 O   0  0  0  0  0  0  0  0  0  0  0  0
  -30.8587  -57.5036  -12.5641 C   0  0  0  0  0  0  0  0  0  0  0  0
  -29.9124  -56.5876  -12.0900 C   0  0  0  0  0  0  0  0  0  0  0  0
  -32.9372  -57.9194  -15.0958 H   0  0  0  0  0  0  0  0  0  0  0  0
  -30.6785  -59.7584  -10.1830 H   0  0  0  0  0  0  0  0  0  0  0  0
  -25.6343  -55.0738  -10.1225 C   0  0  0  0  0  0  0  0  0  0  0  0
  -26.5241  -55.4714   -8.9621 C   0  0  0  0  0  0  0  0  0  0  0  0
  -26.0498  -56.3362   -7.9630 C   0  0  0  0  0  0  0  0  0  0  0  0
  -26.8716  -56.6933   -6.8928 C   0  0  0  0  0  0  0  0  0  0  0  0
  -28.1616  -56.1820   -6.8167 C   0  0  0  0  0  0  0  0  0  0  0  0
  -28.9445  -56.5210   -5.7855 F   0  0  0  0  0  0  0  0  0  0  0  0
  -28.6495  -55.3262   -7.7949 C   0  0  0  0  0  0  0  0  0  0  0  0
  -27.8325  -54.9720   -8.8686 C   0  0  0  0  0  0  0  0  0  0  0  0
  7  8  1  0
  8  9  2  0
  9 10  1  0
 10 11  2  0
 11 12  1  0
 12  6  1  0
  6  2  1  0
  2  3  1  0
  3  4  2  0
  3  1  1  0
  1 38  1  0
 38 39  1  0
 39 40  2  0
 40 41  1  0
 41 42  2  0
 42 43  1  0
 42 44  1  0
 44 45  2  0
  1 20  1  0
 20 21  1  0
 21 22  2  0
 21 24  1  0
 24 25  2  0
 25 26  1  0
 26 27  2  0
 27 28  1  0
 28 29  1  0
 29 30  2  0
 29 31  1  0
 31 32  2  0
 32 33  1  0
 32 34  1  0
 34 35  2  0
 12 13  2  0
 13 14  1  0
 14 15  2  0
 15 16  1  0
 16 17  2  0
 17  8  1  0
 16 11  1  0
 45 39  1  0
 35 24  1  0
 34 27  1  0
  7 18  1  0
  7 19  1  0
  2  5  1  0
 20 23  1  0
 28 36  1  0
 33 37  1  0
M  END
> <minimizedAffinity>
-10.40626

> <CNNscore>
0.4458610713

> <CNNaffinity>
7.0260009766

> <CNN_VS>
3.1326203346

> <CNNaffinity_variance>
0.1376743168

$$$$



 45 49  0  0  0  0  0  0  0  0999 V2000
  -26.3839  -54.2349  -11.9882 C   0  0  0  0  0  0  0  0  0  0  0  0
  -24.8340  -52.5568  -12.9912 N   0  0  0  0  0  0  0  0  0  0  0  0
  -25.5558  -52.9264  -11.8768 C   0  0  0  0  0  0  0  0  0  0  0  0
  -25.4503  -52.3150  -10.8100 O   0  0  0  0  0  0  0  0  0  0  0  0
  -24.8899  -53.1119  -13.8024 H   0  0  0  0  0  0  0  0  0  0  0  0
  -23.9940  -51.3736  -13.0042 C   0  0  0  0  0  0  0  0  0  0  0  0
  -18.7340  -47.8759  -11.2439 N   0  0  0  0  0  0  0  0  0  0  0  0
  -19.7156  -48.7745  -11.6555 C   0  0  0  0  0  0  0  0  0  0  0  0
  -21.0392  -48.3875  -11.7263 C   0  0  0  0  0  0  0  0  0  0  0  0
  -21.9877  -49.3250  -12.1257 C   0  0  0  0  0  0  0  0  0  0  0  0
  -21.6050  -50.6442  -12.4404 C   0  0  0  0  0  0  0  0  0  0  0  0
  -22.5119  -51.6678  -12.8581 C   0  0  0  0  0  0  0  0  0  0  0  0
  -22.0140  -52.9633  -13.0800 C   0  0  0  0  0  0  0  0  0  0  0  0
  -20.6561  -53.2329  -12.9524 C   0  0  0  0  0  0  0  0  0  0  0  0
  -19.7810  -52.2155  -12.5781 C   0  0  0  0  0  0  0  0  0  0  0  0
  -20.2248  -50.9311  -12.3110 C   0  0  0  0  0  0  0  0  0  0  0  0
  -19.3090  -50.0200  -11.9368 N   0  0  0  0  0  0  0  0  0  0  0  0
  -18.9773  -46.9476  -11.0244 H   0  0  0  0  0  0  0  0  0  0  0  0
  -17.7969  -48.1692  -11.1724 H   0  0  0  0  0  0  0  0  0  0  0  0
  -26.5144  -54.5662  -13.4153 N   0  0  0  0  0  0  0  0  0  0  0  0
  -27.7138  -54.9996  -13.9493 C   0  0  0  0  0  0  0  0  0  0  0  0
  -28.7790  -54.9887  -13.3463 O   0  0  0  0  0  0  0  0  0  0  0  0
  -25.7300  -54.4773  -14.0036 H   0  0  0  0  0  0  0  0  0  0  0  0
  -27.6479  -55.5334  -15.3366 C   0  0  0  0  0  0  0  0  0  0  0  0
  -28.2429  -56.7564  -15.6754 C   0  0  0  0  0  0  0  0  0  0  0  0
  -28.1664  -57.2290  -16.9868 C   0  0  0  0  0  0  0  0  0  0  0  0
  -27.4882  -56.4813  -17.9519 C   0  0  0  0  0  0  0  0  0  0  0  0
  -27.4208  -56.9552  -19.2681 N   0  0  0  0  0  0  0  0  0  0  0  0
  -26.7822  -56.2912  -20.2794 C   0  0  0  0  0  0  0  0  0  0  0  0
  -26.7432  -56.7202  -21.4268 O   0  0  0  0  0  0  0  0  0  0  0  0
  -26.1226  -55.0117  -19.9334 C   0  0  0  0  0  0  0  0  0  0  0  0
  -26.1636  -54.5307  -18.6846 C   0  0  0  0  0  0  0  0  0  0  0  0
  -25.5605  -53.3481  -18.3159 O   0  0  0  0  0  0  0  0  0  0  0  0
  -26.8708  -55.2640  -17.6239 C   0  0  0  0  0  0  0  0  0  0  0  0
  -26.9517  -54.7985  -16.3062 C   0  0  0  0  0  0  0  0  0  0  0  0
  -27.8567  -57.8129  -19.4769 H   0  0  0  0  0  0  0  0  0  0  0  0
  -25.0963  -52.8406  -18.9523 H   0  0  0  0  0  0  0  0  0  0  0  0
  -25.9090  -55.3921  -11.0866 C   0  0  0  0  0  0  0  0  0  0  0  0
  -25.0035  -56.3753  -11.8006 C   0  0  0  0  0  0  0  0  0  0  0  0
  -25.4261  -57.6932  -12.0361 C   0  0  0  0  0  0  0  0  0  0  0  0
  -24.5906  -58.5923  -12.7004 C   0  0  0  0  0  0  0  0  0  0  0  0
  -23.3386  -58.1742  -13.1353 C   0  0  0  0  0  0  0  0  0  0  0  0
  -22.5427  -59.0370  -13.7782 F   0  0  0  0  0  0  0  0  0  0  0  0
  -22.9019  -56.8755  -12.9115 C   0  0  0  0  0  0  0  0  0  0  0  0
  -23.7325  -55.9762  -12.2428 C   0  0  0  0  0  0  0  0  0  0  0  0
  7  8  1  0
  8  9  2  0
  9 10  1  0
 10 11  2  0
 11 12  1  0
 12  6  1  0
  6  2  1  0
  2  3  1  0
  3  4  2  0
  3  1  1  0
  1 38  1  0
 38 39  1  0
 39 40  2  0
 40 41  1  0
 41 42  2  0
 42 43  1  0
 42 44  1  0
 44 45  2  0
  1 20  1  0
 20 21  1  0
 21 22  2  0
 21 24  1  0
 24 25  2  0
 25 26  1  0
 26 27  2  0
 27 28  1  0
 28 29  1  0
 29 30  2  0
 29 31  1  0
 31 32  2  0
 32 33  1  0
 32 34  1  0
 34 35  2  0
 12 13  2  0
 13 14  1  0
 14 15  2  0
 15 16  1  0
 16 17  2  0
 17  8  1  0
 16 11  1  0
 45 39  1  0
 35 24  1  0
 34 27  1  0
  7 18  1  0
  7 19  1  0
  2  5  1  0
 20 23  1  0
 28 36  1  0
 33 37  1  0
M  END
> <minimizedAffinity>
-9.26428

> <CNNscore>
0.3750621974

> <CNNaffinity>
6.4019112587

> <CNN_VS>
2.4011149406

> <CNNaffinity_variance>
0.3474071920

$$$$



 45 49  0  0  0  0  0  0  0  0999 V2000
  -24.5909  -52.7118  -12.9630 C   0  0  0  0  0  0  0  0  0  0  0  0
  -26.5623  -53.5039  -11.6552 N   0  0  0  0  0  0  0  0  0  0  0  0
  -25.4025  -52.7597  -11.6403 C   0  0  0  0  0  0  0  0  0  0  0  0
  -25.0928  -52.0702  -10.6646 O   0  0  0  0  0  0  0  0  0  0  0  0
  -26.8117  -53.9836  -12.4780 H   0  0  0  0  0  0  0  0  0  0  0  0
  -27.4270  -53.6013  -10.4939 C   0  0  0  0  0  0  0  0  0  0  0  0
  -31.7842  -56.2791  -14.5980 N   0  0  0  0  0  0  0  0  0  0  0  0
  -30.9102  -55.8659  -13.5951 C   0  0  0  0  0  0  0  0  0  0  0  0
  -30.1581  -54.7177  -13.7459 C   0  0  0  0  0  0  0  0  0  0  0  0
  -29.2846  -54.3538  -12.7248 C   0  0  0  0  0  0  0  0  0  0  0  0
  -29.1635  -55.1475  -11.5666 C   0  0  0  0  0  0  0  0  0  0  0  0
  -28.2930  -54.8479  -10.4725 C   0  0  0  0  0  0  0  0  0  0  0  0
  -28.2152  -55.7553   -9.4019 C   0  0  0  0  0  0  0  0  0  0  0  0
  -29.0120  -56.8943   -9.3781 C   0  0  0  0  0  0  0  0  0  0  0  0
  -29.8803  -57.1534  -10.4364 C   0  0  0  0  0  0  0  0  0  0  0  0
  -29.9679  -56.3119  -11.5328 C   0  0  0  0  0  0  0  0  0  0  0  0
  -30.8201  -56.6544  -12.5153 N   0  0  0  0  0  0  0  0  0  0  0  0
  -31.8893  -55.7374  -15.4133 H   0  0  0  0  0  0  0  0  0  0  0  0
  -32.2968  -57.1128  -14.4914 H   0  0  0  0  0  0  0  0  0  0  0  0
  -25.3939  -53.3636  -14.0089 N   0  0  0  0  0  0  0  0  0  0  0  0
  -24.8081  -53.8954  -15.1426 C   0  0  0  0  0  0  0  0  0  0  0  0
  -23.6004  -54.0195  -15.2992 O   0  0  0  0  0  0  0  0  0  0  0  0
  -26.3705  -53.4224  -13.8991 H   0  0  0  0  0  0  0  0  0  0  0  0
  -25.7455  -54.2988  -16.2255 C   0  0  0  0  0  0  0  0  0  0  0  0
  -26.9244  -55.0023  -15.9435 C   0  0  0  0  0  0  0  0  0  0  0  0
  -27.7854  -55.3640  -16.9813 C   0  0  0  0  0  0  0  0  0  0  0  0
  -27.4600  -55.0282  -18.2972 C   0  0  0  0  0  0  0  0  0  0  0  0
  -28.3304  -55.3858  -19.3346 N   0  0  0  0  0  0  0  0  0  0  0  0
  -28.0970  -55.0974  -20.6513 C   0  0  0  0  0  0  0  0  0  0  0  0
  -28.8773  -55.4121  -21.5424 O   0  0  0  0  0  0  0  0  0  0  0  0
  -26.8418  -54.3802  -20.9711 C   0  0  0  0  0  0  0  0  0  0  0  0
  -25.9848  -54.0264  -20.0052 C   0  0  0  0  0  0  0  0  0  0  0  0
  -24.8036  -53.3631  -20.2561 O   0  0  0  0  0  0  0  0  0  0  0  0
  -26.2736  -54.3405  -18.5977 C   0  0  0  0  0  0  0  0  0  0  0  0
  -25.4159  -53.9830  -17.5508 C   0  0  0  0  0  0  0  0  0  0  0  0
  -29.1552  -55.8712  -19.1035 H   0  0  0  0  0  0  0  0  0  0  0  0
  -24.5702  -53.1383  -21.1353 H   0  0  0  0  0  0  0  0  0  0  0  0
  -24.0252  -51.3271  -13.3373 C   0  0  0  0  0  0  0  0  0  0  0  0
  -22.7228  -51.0019  -12.6342 C   0  0  0  0  0  0  0  0  0  0  0  0
  -22.4568  -49.6958  -12.1933 C   0  0  0  0  0  0  0  0  0  0  0  0
  -21.2585  -49.4036  -11.5400 C   0  0  0  0  0  0  0  0  0  0  0  0
  -20.3310  -50.4151  -11.3210 C   0  0  0  0  0  0  0  0  0  0  0  0
  -19.1860  -50.1329  -10.6881 F   0  0  0  0  0  0  0  0  0  0  0  0
  -20.5748  -51.7128  -11.7500 C   0  0  0  0  0  0  0  0  0  0  0  0
  -21.7691  -52.0066  -12.4082 C   0  0  0  0  0  0  0  0  0  0  0  0
  7  8  1  0
  8  9  2  0
  9 10  1  0
 10 11  2  0
 11 12  1  0
 12  6  1  0
  6  2  1  0
  2  3  1  0
  3  4  2  0
  3  1  1  0
  1 38  1  0
 38 39  1  0
 39 40  2  0
 40 41  1  0
 41 42  2  0
 42 43  1  0
 42 44  1  0
 44 45  2  0
  1 20  1  0
 20 21  1  0
 21 22  2  0
 21 24  1  0
 24 25  2  0
 25 26  1  0
 26 27  2  0
 27 28  1  0
 28 29  1  0
 29 30  2  0
 29 31  1  0
 31 32  2  0
 32 33  1  0
 32 34  1  0
 34 35  2  0
 12 13  2  0
 13 14  1  0
 14 15  2  0
 15 16  1  0
 16 17  2  0
 17  8  1  0
 16 11  1  0
 45 39  1  0
 35 24  1  0
 34 27  1  0
  7 18  1  0
  7 19  1  0
  2  5  1  0
 20 23  1  0
 28 36  1  0
 33 37  1  0
M  END
> <minimizedAffinity>
-9.89733

> <CNNscore>
0.3373562694

> <CNNaffinity>
6.6672768593

> <CNN_VS>
2.2492475510

> <CNNaffinity_variance>
0.4197239876

$$$$



 45 49  0  0  0  0  0  0  0  0999 V2000
  -24.6588  -52.7354  -12.7712 C   0  0  0  0  0  0  0  0  0  0  0  0
  -26.6809  -53.5455  -11.5552 N   0  0  0  0  0  0  0  0  0  0  0  0
  -25.5373  -52.7790  -11.4919 C   0  0  0  0  0  0  0  0  0  0  0  0
  -25.2918  -52.0692  -10.5126 O   0  0  0  0  0  0  0  0  0  0  0  0
  -26.8780  -54.0422  -12.3821 H   0  0  0  0  0  0  0  0  0  0  0  0
  -27.6031  -53.6422  -10.4389 C   0  0  0  0  0  0  0  0  0  0  0  0
  -30.0265  -57.6733   -5.8698 N   0  0  0  0  0  0  0  0  0  0  0  0
  -29.5964  -56.9494   -6.9795 C   0  0  0  0  0  0  0  0  0  0  0  0
  -28.8260  -55.8141   -6.8240 C   0  0  0  0  0  0  0  0  0  0  0  0
  -28.4346  -55.1128   -7.9611 C   0  0  0  0  0  0  0  0  0  0  0  0
  -28.8263  -55.5476   -9.2430 C   0  0  0  0  0  0  0  0  0  0  0  0
  -28.4694  -54.8885  -10.4608 C   0  0  0  0  0  0  0  0  0  0  0  0
  -28.9786  -55.3852  -11.6731 C   0  0  0  0  0  0  0  0  0  0  0  0
  -29.7673  -56.5299  -11.6953 C   0  0  0  0  0  0  0  0  0  0  0  0
  -30.0770  -57.1799  -10.5026 C   0  0  0  0  0  0  0  0  0  0  0  0
  -29.6325  -56.7107   -9.2777 C   0  0  0  0  0  0  0  0  0  0  0  0
  -29.9988  -57.3932   -8.1782 N   0  0  0  0  0  0  0  0  0  0  0  0
  -29.7603  -57.3914   -4.9649 H   0  0  0  0  0  0  0  0  0  0  0  0
  -30.5967  -58.4667   -5.9905 H   0  0  0  0  0  0  0  0  0  0  0  0
  -25.3933  -53.4192  -13.8465 N   0  0  0  0  0  0  0  0  0  0  0  0
  -24.8104  -53.6656  -15.0757 C   0  0  0  0  0  0  0  0  0  0  0  0
  -23.6229  -53.4963  -15.3202 O   0  0  0  0  0  0  0  0  0  0  0  0
  -26.3209  -53.7079  -13.6874 H   0  0  0  0  0  0  0  0  0  0  0  0
  -25.7322  -54.1348  -16.1454 C   0  0  0  0  0  0  0  0  0  0  0  0
  -26.8880  -54.8668  -15.8413 C   0  0  0  0  0  0  0  0  0  0  0  0
  -27.7347  -55.2904  -16.8672 C   0  0  0  0  0  0  0  0  0  0  0  0
  -27.4181  -54.9876  -18.1933 C   0  0  0  0  0  0  0  0  0  0  0  0
  -28.2745  -55.4074  -19.2189 N   0  0  0  0  0  0  0  0  0  0  0  0
  -28.0482  -55.1551  -20.5442 C   0  0  0  0  0  0  0  0  0  0  0  0
  -28.8162  -55.5243  -21.4251 O   0  0  0  0  0  0  0  0  0  0  0  0
  -26.8166  -54.4082  -20.8866 C   0  0  0  0  0  0  0  0  0  0  0  0
  -25.9733  -53.9949  -19.9322 C   0  0  0  0  0  0  0  0  0  0  0  0
  -24.8139  -53.3020  -20.2040 O   0  0  0  0  0  0  0  0  0  0  0  0
  -26.2542  -54.2718  -18.5154 C   0  0  0  0  0  0  0  0  0  0  0  0
  -25.4106  -53.8522  -17.4802 C   0  0  0  0  0  0  0  0  0  0  0  0
  -29.0834  -55.9117  -18.9726 H   0  0  0  0  0  0  0  0  0  0  0  0
  -24.5864  -53.0988  -21.0900 H   0  0  0  0  0  0  0  0  0  0  0  0
  -24.1009  -51.3456  -13.1384 C   0  0  0  0  0  0  0  0  0  0  0  0
  -22.7666  -51.0441  -12.4865 C   0  0  0  0  0  0  0  0  0  0  0  0
  -22.3453  -49.7174  -12.3040 C   0  0  0  0  0  0  0  0  0  0  0  0
  -21.1184  -49.4456  -11.6965 C   0  0  0  0  0  0  0  0  0  0  0  0
  -20.3175  -50.4963  -11.2654 C   0  0  0  0  0  0  0  0  0  0  0  0
  -19.1448  -50.2319  -10.6770 F   0  0  0  0  0  0  0  0  0  0  0  0
  -20.7158  -51.8150  -11.4373 C   0  0  0  0  0  0  0  0  0  0  0  0
  -21.9388  -52.0899  -12.0493 C   0  0  0  0  0  0  0  0  0  0  0  0
  7  8  1  0
  8  9  2  0
  9 10  1  0
 10 11  2  0
 11 12  1  0
 12  6  1  0
  6  2  1  0
  2  3  1  0
  3  4  2  0
  3  1  1  0
  1 38  1  0
 38 39  1  0
 39 40  2  0
 40 41  1  0
 41 42  2  0
 42 43  1  0
 42 44  1  0
 44 45  2  0
  1 20  1  0
 20 21  1  0
 21 22  2  0
 21 24  1  0
 24 25  2  0
 25 26  1  0
 26 27  2  0
 27 28  1  0
 28 29  1  0
 29 30  2  0
 29 31  1  0
 31 32  2  0
 32 33  1  0
 32 34  1  0
 34 35  2  0
 12 13  2  0
 13 14  1  0
 14 15  2  0
 15 16  1  0
 16 17  2  0
 17  8  1  0
 16 11  1  0
 45 39  1  0
 35 24  1  0
 34 27  1  0
  7 18  1  0
  7 19  1  0
  2  5  1  0
 20 23  1  0
 28 36  1  0
 33 37  1  0
M  END
> <minimizedAffinity>
-10.05039

> <CNNscore>
0.3205323219

> <CNNaffinity>
6.4738316536

> <CNN_VS>
2.0750722885

> <CNNaffinity_variance>
0.5205556750

$$$$



 45 49  0  0  0  0  0  0  0  0999 V2000
  -25.7794  -54.6895  -12.1967 C   0  0  0  0  0  0  0  0  0  0  0  0
  -24.2258  -52.7487  -12.4054 N   0  0  0  0  0  0  0  0  0  0  0  0
  -25.2868  -53.2972  -11.7179 C   0  0  0  0  0  0  0  0  0  0  0  0
  -25.7388  -52.7645  -10.7005 O   0  0  0  0  0  0  0  0  0  0  0  0
  -23.8468  -53.2397  -13.1699 H   0  0  0  0  0  0  0  0  0  0  0  0
  -23.6508  -51.4687  -12.0356 C   0  0  0  0  0  0  0  0  0  0  0  0
  -18.9634  -46.8905  -11.7741 N   0  0  0  0  0  0  0  0  0  0  0  0
  -19.8018  -48.0019  -11.8245 C   0  0  0  0  0  0  0  0  0  0  0  0
  -21.1694  -47.8474  -11.9354 C   0  0  0  0  0  0  0  0  0  0  0  0
  -21.9690  -48.9867  -11.9639 C   0  0  0  0  0  0  0  0  0  0  0  0
  -21.3941  -50.2699  -11.8706 C   0  0  0  0  0  0  0  0  0  0  0  0
  -22.1398  -51.4898  -11.8919 C   0  0  0  0  0  0  0  0  0  0  0  0
  -21.4535  -52.7050  -11.7248 C   0  0  0  0  0  0  0  0  0  0  0  0
  -20.0691  -52.7264  -11.5990 C   0  0  0  0  0  0  0  0  0  0  0  0
  -19.3544  -51.5306  -11.6150 C   0  0  0  0  0  0  0  0  0  0  0  0
  -19.9850  -50.3038  -11.7389 C   0  0  0  0  0  0  0  0  0  0  0  0
  -19.2140  -49.2019  -11.7241 N   0  0  0  0  0  0  0  0  0  0  0  0
  -19.3424  -45.9845  -11.8432 H   0  0  0  0  0  0  0  0  0  0  0  0
  -17.9920  -47.0111  -11.6693 H   0  0  0  0  0  0  0  0  0  0  0  0
  -24.9948  -55.0620  -13.3838 N   0  0  0  0  0  0  0  0  0  0  0  0
  -23.8105  -55.7670  -13.2746 C   0  0  0  0  0  0  0  0  0  0  0  0
  -23.4047  -56.2734  -12.2366 O   0  0  0  0  0  0  0  0  0  0  0  0
  -25.3203  -54.8035  -14.2762 H   0  0  0  0  0  0  0  0  0  0  0  0
  -22.9980  -55.8615  -14.5175 C   0  0  0  0  0  0  0  0  0  0  0  0
  -23.2920  -56.8069  -15.5096 C   0  0  0  0  0  0  0  0  0  0  0  0
  -22.5127  -56.8687  -16.6662 C   0  0  0  0  0  0  0  0  0  0  0  0
  -21.4378  -55.9908  -16.8224 C   0  0  0  0  0  0  0  0  0  0  0  0
  -20.6635  -56.0508  -17.9879 N   0  0  0  0  0  0  0  0  0  0  0  0
  -19.5954  -55.2309  -18.2295 C   0  0  0  0  0  0  0  0  0  0  0  0
  -18.9367  -55.2947  -19.2611 O   0  0  0  0  0  0  0  0  0  0  0  0
  -19.2520  -54.2455  -17.1792 C   0  0  0  0  0  0  0  0  0  0  0  0
  -19.9679  -54.1631  -16.0509 C   0  0  0  0  0  0  0  0  0  0  0  0
  -19.6824  -53.2659  -15.0450 O   0  0  0  0  0  0  0  0  0  0  0  0
  -21.1190  -55.0512  -15.8293 C   0  0  0  0  0  0  0  0  0  0  0  0
  -21.9053  -54.9974  -14.6725 C   0  0  0  0  0  0  0  0  0  0  0  0
  -20.9008  -56.7193  -18.6705 H   0  0  0  0  0  0  0  0  0  0  0  0
  -18.9596  -52.6763  -15.1343 H   0  0  0  0  0  0  0  0  0  0  0  0
  -25.8632  -55.7700  -11.0999 C   0  0  0  0  0  0  0  0  0  0  0  0
  -27.2226  -55.8443  -10.4344 C   0  0  0  0  0  0  0  0  0  0  0  0
  -28.3439  -56.2930  -11.1503 C   0  0  0  0  0  0  0  0  0  0  0  0
  -29.5921  -56.3659  -10.5300 C   0  0  0  0  0  0  0  0  0  0  0  0
  -29.7188  -55.9987   -9.1957 C   0  0  0  0  0  0  0  0  0  0  0  0
  -30.9158  -56.0765   -8.6021 F   0  0  0  0  0  0  0  0  0  0  0  0
  -28.6224  -55.5516   -8.4708 C   0  0  0  0  0  0  0  0  0  0  0  0
  -27.3748  -55.4722   -9.0896 C   0  0  0  0  0  0  0  0  0  0  0  0
  7  8  1  0
  8  9  2  0
  9 10  1  0
 10 11  2  0
 11 12  1  0
 12  6  1  0
  6  2  1  0
  2  3  1  0
  3  4  2  0
  3  1  1  0
  1 38  1  0
 38 39  1  0
 39 40  2  0
 40 41  1  0
 41 42  2  0
 42 43  1  0
 42 44  1  0
 44 45  2  0
  1 20  1  0
 20 21  1  0
 21 22  2  0
 21 24  1  0
 24 25  2  0
 25 26  1  0
 26 27  2  0
 27 28  1  0
 28 29  1  0
 29 30  2  0
 29 31  1  0
 31 32  2  0
 32 33  1  0
 32 34  1  0
 34 35  2  0
 12 13  2  0
 13 14  1  0
 14 15  2  0
 15 16  1  0
 16 17  2  0
 17  8  1  0
 16 11  1  0
 45 39  1  0
 35 24  1  0
 34 27  1  0
  7 18  1  0
  7 19  1  0
  2  5  1  0
 20 23  1  0
 28 36  1  0
 33 37  1  0
M  END
> <minimizedAffinity>
-9.09852

> <CNNscore>
0.3076100051

> <CNNaffinity>
6.7847647667

> <CNN_VS>
2.0870616436

> <CNNaffinity_variance>
0.3071258962

$$$$
