


 22 25  0  0  0  0  0  0  0  0999 V2000
    6.0446   69.7528   65.5187 C   0  0  0  0  0  0  0  0  0  0  0  0
    5.2155   69.2210   64.3866 C   0  0  0  0  0  0  0  0  0  0  0  0
    5.7146   69.0493   63.1474 C   0  0  0  0  0  0  0  0  0  0  0  0
    4.8860   68.5410   61.9822 C   0  0  0  0  0  0  0  0  0  0  0  0
    5.1605   67.0528   61.7505 C   0  0  0  0  0  0  0  0  0  0  0  0
    4.4598   66.1614   62.7511 C   0  0  0  0  0  0  0  0  0  0  0  0
    4.8605   64.8445   62.7170 N   0  0  0  0  0  0  0  0  0  0  0  0
    4.3914   63.8629   63.5387 C   0  0  0  0  0  0  0  0  0  0  0  0
    4.7488   62.6949   63.4529 O   0  0  0  0  0  0  0  0  0  0  0  0
    3.4358   64.3008   64.5645 C   0  0  0  0  0  0  0  0  0  0  0  0
    3.0409   65.5841   64.6261 C   0  0  0  0  0  0  0  0  0  0  0  0
    1.9079   66.0346   66.0590 Br  0  0  0  0  0  0  0  0  0  0  0  0
    3.5220   66.5825   63.6409 C   0  0  0  0  0  0  0  0  0  0  0  0
    3.0219   68.0709   63.6079 C   0  0  0  0  0  0  0  0  0  0  0  0
    3.7707   68.8803   64.7241 C   0  0  0  0  0  0  0  0  0  0  0  0
    1.5566   68.1656   63.8365 N   0  0  0  0  0  0  0  0  0  0  0  0
    0.8239   69.0286   62.9186 C   0  0  0  0  0  0  0  0  0  0  0  0
    1.0024   68.5869   61.4699 C   0  0  0  0  0  0  0  0  0  0  0  0
    2.4687   68.3479   61.1077 C   0  0  0  0  0  0  0  0  0  0  0  0
    3.3939   68.7723   62.2575 C   0  0  0  0  0  0  0  0  0  0  0  0
    5.5374   64.5925   62.0481 H   0  0  0  0  0  0  0  0  0  0  0  0
    1.4100   68.5190   64.7821 H   0  0  0  0  0  0  0  0  0  0  0  0
  1  2  1  0
  2  3  2  0
  3  4  1  0
  4  5  1  0
  5  6  1  0
  6  7  1  0
  7  8  1  0
  8  9  2  0
  8 10  1  0
 10 11  2  0
 11 12  1  0
 11 13  1  0
 13 14  1  0
 14 15  1  0
 14 16  1  0
 16 17  1  0
 17 18  1  0
 18 19  1  0
 20 19  1  0
 15  2  1  0
 20  4  1  0
 13  6  2  0
 20 14  1  0
  7 21  1  0
 16 22  1  0
M  END
> <minimizedAffinity>
-10.86582

> <CNNscore>
0.9480448365

> <CNNaffinity>
7.4160437584

> <CNN_VS>
7.0307421684

> <CNNaffinity_variance>
0.1847169995

$$$$



 22 25  0  0  0  0  0  0  0  0999 V2000
    3.5064   63.7543   64.3062 C   0  0  0  0  0  0  0  0  0  0  0  0
    3.9810   65.1434   63.9948 C   0  0  0  0  0  0  0  0  0  0  0  0
    4.7936   65.4103   62.9544 C   0  0  0  0  0  0  0  0  0  0  0  0
    5.3086   66.8026   62.6395 C   0  0  0  0  0  0  0  0  0  0  0  0
    4.4888   67.4232   61.5053 C   0  0  0  0  0  0  0  0  0  0  0  0
    3.1395   67.9306   61.9624 C   0  0  0  0  0  0  0  0  0  0  0  0
    2.2892   68.2845   60.9389 N   0  0  0  0  0  0  0  0  0  0  0  0
    1.0158   68.7426   61.1033 C   0  0  0  0  0  0  0  0  0  0  0  0
    0.3029   69.0799   60.1667 O   0  0  0  0  0  0  0  0  0  0  0  0
    0.5337   68.7848   62.4901 C   0  0  0  0  0  0  0  0  0  0  0  0
    1.3412   68.4305   63.5045 C   0  0  0  0  0  0  0  0  0  0  0  0
    0.5627   68.4163   65.2173 Br  0  0  0  0  0  0  0  0  0  0  0  0
    2.7477   68.0288   63.2606 C   0  0  0  0  0  0  0  0  0  0  0  0
    3.7613   67.6964   64.4132 C   0  0  0  0  0  0  0  0  0  0  0  0
    3.4831   66.2399   64.9261 C   0  0  0  0  0  0  0  0  0  0  0  0
    3.6354   68.6459   65.5493 N   0  0  0  0  0  0  0  0  0  0  0  0
    4.8852   69.1897   66.0656 C   0  0  0  0  0  0  0  0  0  0  0  0
    5.6686   69.9222   64.9816 C   0  0  0  0  0  0  0  0  0  0  0  0
    5.7974   69.1020   63.6974 C   0  0  0  0  0  0  0  0  0  0  0  0
    5.2390   67.6850   63.8934 C   0  0  0  0  0  0  0  0  0  0  0  0
    2.6267   68.2003   60.0179 H   0  0  0  0  0  0  0  0  0  0  0  0
    3.1671   68.1588   66.3134 H   0  0  0  0  0  0  0  0  0  0  0  0
  1  2  1  0
  2  3  2  0
  3  4  1  0
  4  5  1  0
  5  6  1  0
  6  7  1  0
  7  8  1  0
  8  9  2  0
  8 10  1  0
 10 11  2  0
 11 12  1  0
 11 13  1  0
 13 14  1  0
 14 15  1  0
 14 16  1  0
 16 17  1  0
 17 18  1  0
 18 19  1  0
 20 19  1  0
 15  2  1  0
 20  4  1  0
 13  6  2  0
 20 14  1  0
  7 21  1  0
 16 22  1  0
M  END
> <minimizedAffinity>
-10.58845

> <CNNscore>
0.9366322160

> <CNNaffinity>
7.6430249214

> <CNN_VS>
7.1587033272

> <CNNaffinity_variance>
0.4603080451

$$$$



 22 25  0  0  0  0  0  0  0  0999 V2000
    3.3228   63.6224   64.7781 C   0  0  0  0  0  0  0  0  0  0  0  0
    3.8983   65.0072   64.7236 C   0  0  0  0  0  0  0  0  0  0  0  0
    5.1798   65.2415   64.3816 C   0  0  0  0  0  0  0  0  0  0  0  0
    5.7892   66.6308   64.3488 C   0  0  0  0  0  0  0  0  0  0  0  0
    5.8407   67.1493   62.9092 C   0  0  0  0  0  0  0  0  0  0  0  0
    4.4978   67.6313   62.4080 C   0  0  0  0  0  0  0  0  0  0  0  0
    4.4554   67.8895   61.0561 N   0  0  0  0  0  0  0  0  0  0  0  0
    3.3514   68.3074   60.3741 C   0  0  0  0  0  0  0  0  0  0  0  0
    3.3643   68.5595   59.1760 O   0  0  0  0  0  0  0  0  0  0  0  0
    2.1211   68.4152   61.1690 C   0  0  0  0  0  0  0  0  0  0  0  0
    2.1352   68.1545   62.4875 C   0  0  0  0  0  0  0  0  0  0  0  0
    0.4704   68.2146   63.3620 Br  0  0  0  0  0  0  0  0  0  0  0  0
    3.3934   67.7931   63.1842 C   0  0  0  0  0  0  0  0  0  0  0  0
    3.4859   67.5706   64.7361 C   0  0  0  0  0  0  0  0  0  0  0  0
    2.9417   66.1384   65.0743 C   0  0  0  0  0  0  0  0  0  0  0  0
    2.6967   68.5819   65.4863 N   0  0  0  0  0  0  0  0  0  0  0  0
    3.3718   69.2037   66.6185 C   0  0  0  0  0  0  0  0  0  0  0  0
    4.6602   69.8986   66.1910 C   0  0  0  0  0  0  0  0  0  0  0  0
    5.5431   69.0074   65.3166 C   0  0  0  0  0  0  0  0  0  0  0  0
    4.9720   67.5845   65.2310 C   0  0  0  0  0  0  0  0  0  0  0  0
    5.2859   67.7625   60.5428 H   0  0  0  0  0  0  0  0  0  0  0  0
    1.8552   68.1245   65.8369 H   0  0  0  0  0  0  0  0  0  0  0  0
  1  2  1  0
  2  3  2  0
  3  4  1  0
  4  5  1  0
  5  6  1  0
  6  7  1  0
  7  8  1  0
  8  9  2  0
  8 10  1  0
 10 11  2  0
 11 12  1  0
 11 13  1  0
 13 14  1  0
 14 15  1  0
 14 16  1  0
 16 17  1  0
 17 18  1  0
 18 19  1  0
 20 19  1  0
 15  2  1  0
 20  4  1  0
 13  6  2  0
 20 14  1  0
  7 21  1  0
 16 22  1  0
M  END
> <minimizedAffinity>
-9.95712

> <CNNscore>
0.8923405409

> <CNNaffinity>
7.4240241051

> <CNN_VS>
6.6247577667

> <CNNaffinity_variance>
0.3182668984

$$$$



 22 25  0  0  0  0  0  0  0  0999 V2000
    6.1142   70.2382   64.8239 C   0  0  0  0  0  0  0  0  0  0  0  0
    5.1848   69.0601   64.8187 C   0  0  0  0  0  0  0  0  0  0  0  0
    4.3215   68.8195   65.8241 C   0  0  0  0  0  0  0  0  0  0  0  0
    3.3944   67.6186   65.8524 C   0  0  0  0  0  0  0  0  0  0  0  0
    1.9856   68.0306   65.4173 C   0  0  0  0  0  0  0  0  0  0  0  0
    1.8580   68.2040   63.9205 C   0  0  0  0  0  0  0  0  0  0  0  0
    0.6798   68.7899   63.5149 N   0  0  0  0  0  0  0  0  0  0  0  0
    0.3510   69.0714   62.2222 C   0  0  0  0  0  0  0  0  0  0  0  0
   -0.7234   69.5623   61.8997 O   0  0  0  0  0  0  0  0  0  0  0  0
    1.3876   68.7691   61.2264 C   0  0  0  0  0  0  0  0  0  0  0  0
    2.5512   68.2100   61.6007 C   0  0  0  0  0  0  0  0  0  0  0  0
    3.8364   67.9852   60.2451 Br  0  0  0  0  0  0  0  0  0  0  0  0
    2.8065   67.8449   63.0151 C   0  0  0  0  0  0  0  0  0  0  0  0
    4.1069   67.1052   63.4929 C   0  0  0  0  0  0  0  0  0  0  0  0
    5.2719   68.1506   63.6010 C   0  0  0  0  0  0  0  0  0  0  0  0
    4.5053   66.0265   62.5516 N   0  0  0  0  0  0  0  0  0  0  0  0
    4.8468   64.7463   63.1588 C   0  0  0  0  0  0  0  0  0  0  0  0
    3.6901   64.1893   63.9818 C   0  0  0  0  0  0  0  0  0  0  0  0
    3.1002   65.2262   64.9385 C   0  0  0  0  0  0  0  0  0  0  0  0
    3.9356   66.5147   64.9337 C   0  0  0  0  0  0  0  0  0  0  0  0
    0.0248   69.0234   64.2118 H   0  0  0  0  0  0  0  0  0  0  0  0
    5.3190   66.3519   62.0297 H   0  0  0  0  0  0  0  0  0  0  0  0
  1  2  1  0
  2  3  2  0
  3  4  1  0
  4  5  1  0
  5  6  1  0
  6  7  1  0
  7  8  1  0
  8  9  2  0
  8 10  1  0
 10 11  2  0
 11 12  1  0
 11 13  1  0
 13 14  1  0
 14 15  1  0
 14 16  1  0
 16 17  1  0
 17 18  1  0
 18 19  1  0
 20 19  1  0
 15  2  1  0
 20  4  1  0
 13  6  2  0
 20 14  1  0
  7 21  1  0
 16 22  1  0
M  END
> <minimizedAffinity>
-9.55181

> <CNNscore>
0.8593642116

> <CNNaffinity>
7.1015152931

> <CNN_VS>
6.1027879715

> <CNNaffinity_variance>
0.1640992314

$$$$



 22 25  0  0  0  0  0  0  0  0999 V2000
    0.3316   68.7256   61.8383 C   0  0  0  0  0  0  0  0  0  0  0  0
    1.2654   68.5927   63.0054 C   0  0  0  0  0  0  0  0  0  0  0  0
    0.8229   68.4192   64.2655 C   0  0  0  0  0  0  0  0  0  0  0  0
    1.7489   68.3121   65.4630 C   0  0  0  0  0  0  0  0  0  0  0  0
    1.9256   66.8448   65.8623 C   0  0  0  0  0  0  0  0  0  0  0  0
    2.8731   66.0961   64.9521 C   0  0  0  0  0  0  0  0  0  0  0  0
    2.8812   64.7320   65.1388 N   0  0  0  0  0  0  0  0  0  0  0  0
    3.6319   63.8489   64.4210 C   0  0  0  0  0  0  0  0  0  0  0  0
    3.6364   62.6445   64.6418 O   0  0  0  0  0  0  0  0  0  0  0  0
    4.4284   64.4340   63.3344 C   0  0  0  0  0  0  0  0  0  0  0  0
    4.4252   65.7615   63.1243 C   0  0  0  0  0  0  0  0  0  0  0  0
    5.3930   66.3660   61.6283 Br  0  0  0  0  0  0  0  0  0  0  0  0
    3.6557   66.6751   64.0030 C   0  0  0  0  0  0  0  0  0  0  0  0
    3.6907   68.2389   63.8621 C   0  0  0  0  0  0  0  0  0  0  0  0
    2.7508   68.6606   62.6787 C   0  0  0  0  0  0  0  0  0  0  0  0
    5.0647   68.7381   63.5954 N   0  0  0  0  0  0  0  0  0  0  0  0
    5.4954   69.8758   64.3981 C   0  0  0  0  0  0  0  0  0  0  0  0
    5.4361   69.5646   65.8898 C   0  0  0  0  0  0  0  0  0  0  0  0
    4.1021   68.9431   66.3052 C   0  0  0  0  0  0  0  0  0  0  0  0
    3.1086   68.9436   65.1343 C   0  0  0  0  0  0  0  0  0  0  0  0
    2.3005   64.3663   65.8447 H   0  0  0  0  0  0  0  0  0  0  0  0
    5.1128   69.0118   62.6140 H   0  0  0  0  0  0  0  0  0  0  0  0
  1  2  1  0
  2  3  2  0
  3  4  1  0
  4  5  1  0
  5  6  1  0
  6  7  1  0
  7  8  1  0
  8  9  2  0
  8 10  1  0
 10 11  2  0
 11 12  1  0
 11 13  1  0
 13 14  1  0
 14 15  1  0
 14 16  1  0
 16 17  1  0
 17 18  1  0
 18 19  1  0
 20 19  1  0
 15  2  1  0
 20  4  1  0
 13  6  2  0
 20 14  1  0
  7 21  1  0
 16 22  1  0
M  END
> <minimizedAffinity>
-8.63761

> <CNNscore>
0.6260386109

> <CNNaffinity>
7.0001692772

> <CNN_VS>
4.3823761940

> <CNNaffinity_variance>
0.2325029373

$$$$



 22 25  0  0  0  0  0  0  0  0999 V2000
    1.0839   69.2262   61.2814 C   0  0  0  0  0  0  0  0  0  0  0  0
    2.1865   68.3682   61.8289 C   0  0  0  0  0  0  0  0  0  0  0  0
    3.3674   68.2237   61.1976 C   0  0  0  0  0  0  0  0  0  0  0  0
    4.4841   67.3382   61.7188 C   0  0  0  0  0  0  0  0  0  0  0  0
    5.5424   68.1877   62.4275 C   0  0  0  0  0  0  0  0  0  0  0  0
    5.1199   68.6201   63.8136 C   0  0  0  0  0  0  0  0  0  0  0  0
    5.9394   69.5657   64.3881 N   0  0  0  0  0  0  0  0  0  0  0  0
    5.7469   70.1249   65.6165 C   0  0  0  0  0  0  0  0  0  0  0  0
    6.5194   70.9386   66.1066 O   0  0  0  0  0  0  0  0  0  0  0  0
    4.5263   69.7051   66.3174 C   0  0  0  0  0  0  0  0  0  0  0  0
    3.7039   68.7938   65.7698 C   0  0  0  0  0  0  0  0  0  0  0  0
    2.1178   68.4344   66.7159 Br  0  0  0  0  0  0  0  0  0  0  0  0
    4.0225   68.1569   64.4691 C   0  0  0  0  0  0  0  0  0  0  0  0
    3.1480   67.0203   63.8289 C   0  0  0  0  0  0  0  0  0  0  0  0
    1.8921   67.6710   63.1499 C   0  0  0  0  0  0  0  0  0  0  0  0
    2.6970   66.0333   64.8442 N   0  0  0  0  0  0  0  0  0  0  0  0
    2.8611   64.6305   64.4846 C   0  0  0  0  0  0  0  0  0  0  0  0
    4.3176   64.2957   64.1810 C   0  0  0  0  0  0  0  0  0  0  0  0
    4.9584   65.2939   63.2159 C   0  0  0  0  0  0  0  0  0  0  0  0
    3.9150   66.2842   62.6784 C   0  0  0  0  0  0  0  0  0  0  0  0
    6.7244   69.8607   63.8723 H   0  0  0  0  0  0  0  0  0  0  0  0
    1.7058   66.1969   65.0204 H   0  0  0  0  0  0  0  0  0  0  0  0
  1  2  1  0
  2  3  2  0
  3  4  1  0
  4  5  1  0
  5  6  1  0
  6  7  1  0
  7  8  1  0
  8  9  2  0
  8 10  1  0
 10 11  2  0
 11 12  1  0
 11 13  1  0
 13 14  1  0
 14 15  1  0
 14 16  1  0
 16 17  1  0
 17 18  1  0
 18 19  1  0
 20 19  1  0
 15  2  1  0
 20  4  1  0
 13  6  2  0
 20 14  1  0
  7 21  1  0
 16 22  1  0
M  END
> <minimizedAffinity>
-9.84152

> <CNNscore>
0.5421745777

> <CNNaffinity>
6.9377899170

> <CNN_VS>
3.7614932060

> <CNNaffinity_variance>
0.1389922202

$$$$



 22 25  0  0  0  0  0  0  0  0999 V2000
    3.8414   64.0797   64.7584 C   0  0  0  0  0  0  0  0  0  0  0  0
    3.1356   65.3964   64.6166 C   0  0  0  0  0  0  0  0  0  0  0  0
    2.2547   65.8434   65.5321 C   0  0  0  0  0  0  0  0  0  0  0  0
    1.5085   67.1575   65.3933 C   0  0  0  0  0  0  0  0  0  0  0  0
    2.1760   68.2352   66.2516 C   0  0  0  0  0  0  0  0  0  0  0  0
    3.4392   68.7861   65.6289 C   0  0  0  0  0  0  0  0  0  0  0  0
    4.1842   69.5848   66.4674 N   0  0  0  0  0  0  0  0  0  0  0  0
    5.3707   70.1707   66.1392 C   0  0  0  0  0  0  0  0  0  0  0  0
    5.9859   70.9033   66.9034 O   0  0  0  0  0  0  0  0  0  0  0  0
    5.8871   69.8463   64.8030 C   0  0  0  0  0  0  0  0  0  0  0  0
    5.1841   69.0574   63.9725 C   0  0  0  0  0  0  0  0  0  0  0  0
    6.0133   68.6253   62.3398 Br  0  0  0  0  0  0  0  0  0  0  0  0
    3.8546   68.5274   64.3604 C   0  0  0  0  0  0  0  0  0  0  0  0
    2.9495   67.6804   63.3961 C   0  0  0  0  0  0  0  0  0  0  0  0
    3.4796   66.2039   63.3727 C   0  0  0  0  0  0  0  0  0  0  0  0
    2.9579   68.2236   62.0129 N   0  0  0  0  0  0  0  0  0  0  0  0
    1.6547   68.3584   61.3743 C   0  0  0  0  0  0  0  0  0  0  0  0
    0.7249   69.2585   62.1810 C   0  0  0  0  0  0  0  0  0  0  0  0
    0.6875   68.8829   63.6629 C   0  0  0  0  0  0  0  0  0  0  0  0
    1.4764   67.5910   63.9213 C   0  0  0  0  0  0  0  0  0  0  0  0
    3.8333   69.7449   67.3731 H   0  0  0  0  0  0  0  0  0  0  0  0
    3.5257   67.6024   61.4366 H   0  0  0  0  0  0  0  0  0  0  0  0
  1  2  1  0
  2  3  2  0
  3  4  1  0
  4  5  1  0
  5  6  1  0
  6  7  1  0
  7  8  1  0
  8  9  2  0
  8 10  1  0
 10 11  2  0
 11 12  1  0
 11 13  1  0
 13 14  1  0
 14 15  1  0
 14 16  1  0
 16 17  1  0
 17 18  1  0
 18 19  1  0
 20 19  1  0
 15  2  1  0
 20  4  1  0
 13  6  2  0
 20 14  1  0
  7 21  1  0
 16 22  1  0
M  END
> <minimizedAffinity>
-9.83347

> <CNNscore>
0.4818118811

> <CNNaffinity>
6.8366637230

> <CNN_VS>
3.2939858437

> <CNNaffinity_variance>
0.1777537465

$$$$



 22 25  0  0  0  0  0  0  0  0999 V2000
    2.2777   55.1725   57.8805 C   0  0  0  0  0  0  0  0  0  0  0  0
    1.9284   56.1006   59.0068 C   0  0  0  0  0  0  0  0  0  0  0  0
    2.8651   56.6537   59.8010 C   0  0  0  0  0  0  0  0  0  0  0  0
    2.5316   57.5709   60.9629 C   0  0  0  0  0  0  0  0  0  0  0  0
    2.7390   59.0323   60.5564 C   0  0  0  0  0  0  0  0  0  0  0  0
    1.6172   59.5698   59.6964 C   0  0  0  0  0  0  0  0  0  0  0  0
    1.8759   60.7964   59.1269 N   0  0  0  0  0  0  0  0  0  0  0  0
    1.0289   61.4665   58.2948 C   0  0  0  0  0  0  0  0  0  0  0  0
    1.2824   62.5731   57.8361 O   0  0  0  0  0  0  0  0  0  0  0  0
   -0.2140   60.7606   57.9565 C   0  0  0  0  0  0  0  0  0  0  0  0
   -0.4814   59.5559   58.4892 C   0  0  0  0  0  0  0  0  0  0  0  0
   -2.0482   58.7103   57.8810 Br  0  0  0  0  0  0  0  0  0  0  0  0
    0.4438   58.9247   59.4611 C   0  0  0  0  0  0  0  0  0  0  0  0
    0.1372   57.5651   60.1849 C   0  0  0  0  0  0  0  0  0  0  0  0
    0.4451   56.3860   59.1967 C   0  0  0  0  0  0  0  0  0  0  0  0
   -1.2812   57.4794   60.6197 N   0  0  0  0  0  0  0  0  0  0  0  0
   -1.5015   57.0194   61.9851 C   0  0  0  0  0  0  0  0  0  0  0  0
   -0.7974   57.9146   62.9992 C   0  0  0  0  0  0  0  0  0  0  0  0
    0.6625   58.1810   62.6301 C   0  0  0  0  0  0  0  0  0  0  0  0
    1.0825   57.3425   61.4140 C   0  0  0  0  0  0  0  0  0  0  0  0
    2.7384   61.2222   59.3366 H   0  0  0  0  0  0  0  0  0  0  0  0
   -1.7623   56.8356   59.9916 H   0  0  0  0  0  0  0  0  0  0  0  0
  1  2  1  0
  2  3  2  0
  3  4  1  0
  4  5  1  0
  5  6  1  0
  6  7  1  0
  7  8  1  0
  8  9  2  0
  8 10  1  0
 10 11  2  0
 11 12  1  0
 11 13  1  0
 13 14  1  0
 14 15  1  0
 14 16  1  0
 16 17  1  0
 17 18  1  0
 18 19  1  0
 20 19  1  0
 15  2  1  0
 20  4  1  0
 13  6  2  0
 20 14  1  0
  7 21  1  0
 16 22  1  0
M  END
> <minimizedAffinity>
176.13010

> <CNNscore>
0.4472238719

> <CNNaffinity>
4.6683225632

> <CNN_VS>
2.0877852440

> <CNNaffinity_variance>
0.8720991015

$$$$



 22 25  0  0  0  0  0  0  0  0999 V2000
   -0.6888   63.1662   69.9327 C   0  0  0  0  0  0  0  0  0  0  0  0
   -0.3124   62.4290   71.1844 C   0  0  0  0  0  0  0  0  0  0  0  0
   -1.1011   61.4814   71.7267 C   0  0  0  0  0  0  0  0  0  0  0  0
   -0.7533   60.7452   73.0072 C   0  0  0  0  0  0  0  0  0  0  0  0
   -0.1795   59.3639   72.6811 C   0  0  0  0  0  0  0  0  0  0  0  0
    1.2591   59.4174   72.2179 C   0  0  0  0  0  0  0  0  0  0  0  0
    1.7343   58.2325   71.7022 N   0  0  0  0  0  0  0  0  0  0  0  0
    2.9876   58.0453   71.1996 C   0  0  0  0  0  0  0  0  0  0  0  0
    3.3832   56.9646   70.7813 O   0  0  0  0  0  0  0  0  0  0  0  0
    3.8401   59.2409   71.1665 C   0  0  0  0  0  0  0  0  0  0  0  0
    3.3926   60.4119   71.6513 C   0  0  0  0  0  0  0  0  0  0  0  0
    4.5388   61.8888   71.4395 Br  0  0  0  0  0  0  0  0  0  0  0  0
    2.0490   60.5228   72.2689 C   0  0  0  0  0  0  0  0  0  0  0  0
    1.5126   61.8402   72.9347 C   0  0  0  0  0  0  0  0  0  0  0  0
    1.0231   62.8137   71.8058 C   0  0  0  0  0  0  0  0  0  0  0  0
    2.5613   62.5170   73.7414 N   0  0  0  0  0  0  0  0  0  0  0  0
    2.1566   62.9565   75.0708 C   0  0  0  0  0  0  0  0  0  0  0  0
    1.6515   61.7926   75.9170 C   0  0  0  0  0  0  0  0  0  0  0  0
    0.6270   60.9323   75.1764 C   0  0  0  0  0  0  0  0  0  0  0  0
    0.2550   61.5626   73.8264 C   0  0  0  0  0  0  0  0  0  0  0  0
    1.1221   57.4615   71.6959 H   0  0  0  0  0  0  0  0  0  0  0  0
    2.8737   63.3376   73.2225 H   0  0  0  0  0  0  0  0  0  0  0  0
  1  2  1  0
  2  3  2  0
  3  4  1  0
  4  5  1  0
  5  6  1  0
  6  7  1  0
  7  8  1  0
  8  9  2  0
  8 10  1  0
 10 11  2  0
 11 12  1  0
 11 13  1  0
 13 14  1  0
 14 15  1  0
 14 16  1  0
 16 17  1  0
 17 18  1  0
 18 19  1  0
 20 19  1  0
 15  2  1  0
 20  4  1  0
 13  6  2  0
 20 14  1  0
  7 21  1  0
 16 22  1  0
M  END
> <minimizedAffinity>
-4.52344

> <CNNscore>
0.3400228620

> <CNNaffinity>
5.8392829895

> <CNN_VS>
1.9854897261

> <CNNaffinity_variance>
0.3335074484

$$$$
