


 39 46  0  0  0  0  0  0  0  0999 V2000
    3.1196    3.8051   14.5389 C   0  0  0  0  0  0  0  0  0  0  0  0
    2.2739    4.3867   15.6770 C   0  0  0  0  0  0  0  0  0  0  0  0
    3.0484    4.4261   17.0005 C   0  0  0  0  0  0  0  0  0  0  0  0
    4.3163    3.7754   16.9691 O   0  0  0  0  0  0  0  0  0  0  0  0
    5.2262    4.1107   15.8907 C   0  0  0  0  0  0  0  0  0  0  0  0
    5.9318    2.7448   15.7125 C   0  0  0  0  0  0  0  0  0  0  0  0
    4.5054    4.4974   14.5458 C   0  0  0  0  0  0  0  0  0  0  0  0
    6.1348    5.1675   16.3704 N   0  0  0  0  0  0  0  0  0  0  0  0
    7.4731    5.3875   16.0421 C   0  0  0  0  0  0  0  0  0  0  0  0
    8.3748    4.7098   15.1977 C   0  0  0  0  0  0  0  0  0  0  0  0
    9.6891    5.1751   15.0810 C   0  0  0  0  0  0  0  0  0  0  0  0
   10.1110    6.2995   15.7719 C   0  0  0  0  0  0  0  0  0  0  0  0
    9.2181    6.9931   16.5882 C   0  0  0  0  0  0  0  0  0  0  0  0
    7.8846    6.5479   16.7278 C   0  0  0  0  0  0  0  0  0  0  0  0
    6.7588    7.0673   17.4246 C   0  0  0  0  0  0  0  0  0  0  0  0
    6.4706    8.1863   18.2268 C   0  0  0  0  0  0  0  0  0  0  0  0
    5.1587    8.4247   18.7403 C   0  0  0  0  0  0  0  0  0  0  0  0
    4.0417    7.6053   18.5164 C   0  0  0  0  0  0  0  0  0  0  0  0
    2.6527    7.5578   18.8487 C   0  0  0  0  0  0  0  0  0  0  0  0
    1.7828    8.3919   19.5843 C   0  0  0  0  0  0  0  0  0  0  0  0
    0.4344    8.0500   19.7315 C   0  0  0  0  0  0  0  0  0  0  0  0
   -0.0650    6.8879   19.1587 C   0  0  0  0  0  0  0  0  0  0  0  0
    0.7662    6.0385   18.4257 C   0  0  0  0  0  0  0  0  0  0  0  0
    2.1210    6.3892   18.2791 C   0  0  0  0  0  0  0  0  0  0  0  0
    3.1581    5.7419   17.6229 N   0  0  0  0  0  0  0  0  0  0  0  0
    4.2942    6.4800   17.7497 C   0  0  0  0  0  0  0  0  0  0  0  0
    5.7167    6.1992   17.1748 C   0  0  0  0  0  0  0  0  0  0  0  0
    5.2252    9.6648   19.5243 C   0  0  0  0  0  0  0  0  0  0  0  0
    4.3185   10.2434   20.0885 O   0  0  0  0  0  0  0  0  0  0  0  0
    6.5327   10.0883   19.5192 N   0  0  0  0  0  0  0  0  0  0  0  0
    7.3804    9.2930   18.6890 C   0  0  0  0  0  0  0  0  0  0  0  0
    6.8530   10.8626   20.0361 H   0  0  0  0  0  0  0  0  0  0  0  0
    3.2159    3.2255   12.1153 C   0  0  0  0  0  0  0  0  0  0  0  0
    2.4430    3.7679   13.2228 N   0  0  0  0  0  0  0  0  0  0  0  0
    1.6016    3.2000   13.3221 H   0  0  0  0  0  0  0  0  0  0  0  0
    4.2657    5.9133   14.4366 O   0  0  0  0  0  0  0  0  0  0  0  0
    5.0537    6.5503   13.4395 C   0  0  0  0  0  0  0  0  0  0  0  0
    7.7954   10.0801   17.5888 O   0  0  0  0  0  0  0  0  0  0  0  0
    9.1878    9.9750   17.3344 C   0  0  0  0  0  0  0  0  0  0  0  0
 33 34  1  0
  1 34  1  0
  1  2  1  0
  3  2  1  0
  3  4  1  0
  4  5  1  0
  5  6  1  0
  5  7  1  0
  7 36  1  0
 36 37  1  0
  5  8  1  0
  8  9  1  0
  9 10  2  0
 10 11  1  0
 11 12  2  0
 12 13  1  0
 13 14  2  0
 14 15  1  0
 15 16  2  0
 16 17  1  0
 17 18  2  0
 18 19  1  0
 19 20  2  0
 20 21  1  0
 21 22  2  0
 22 23  1  0
 23 24  2  0
 24 25  1  0
 25 26  1  0
 26 27  2  0
 17 28  1  0
 28 29  2  0
 28 30  1  0
 30 31  1  0
 31 38  1  0
 38 39  1  0
  7  1  1  0
 27  8  1  0
 25  3  1  0
 14  9  1  0
 27 15  1  0
 31 16  1  0
 26 18  1  0
 24 19  1  0
 34 35  1  0
 30 32  1  0
M  END
> <minimizedAffinity>
-12.30726

> <CNNscore>
0.9890644550

> <CNNaffinity>
8.1044530869

> <CNN_VS>
8.0158262253

> <CNNaffinity_variance>
0.0755424872

$$$$



 39 46  0  0  0  0  0  0  0  0999 V2000
    3.6885    3.7790   13.2833 C   0  0  0  0  0  0  0  0  0  0  0  0
    2.5596    4.0426   14.2858 C   0  0  0  0  0  0  0  0  0  0  0  0
    3.0389    3.8976   15.7357 C   0  0  0  0  0  0  0  0  0  0  0  0
    4.3638    3.3912   15.8780 O   0  0  0  0  0  0  0  0  0  0  0  0
    5.4179    4.0170   15.1030 C   0  0  0  0  0  0  0  0  0  0  0  0
    6.3244    2.7870   14.8574 C   0  0  0  0  0  0  0  0  0  0  0  0
    4.9367    4.5873   13.7169 C   0  0  0  0  0  0  0  0  0  0  0  0
    6.0583    5.0426   15.9458 N   0  0  0  0  0  0  0  0  0  0  0  0
    7.3925    5.4510   15.9668 C   0  0  0  0  0  0  0  0  0  0  0  0
    8.5297    5.0415   15.2424 C   0  0  0  0  0  0  0  0  0  0  0  0
    9.7645    5.6457   15.5028 C   0  0  0  0  0  0  0  0  0  0  0  0
    9.8813    6.6489   16.4511 C   0  0  0  0  0  0  0  0  0  0  0  0
    8.7561    7.0801   17.1532 C   0  0  0  0  0  0  0  0  0  0  0  0
    7.4953    6.4894   16.9139 C   0  0  0  0  0  0  0  0  0  0  0  0
    6.1921    6.7513   17.4197 C   0  0  0  0  0  0  0  0  0  0  0  0
    5.5983    7.6589   18.3155 C   0  0  0  0  0  0  0  0  0  0  0  0
    4.1899    7.6644   18.5561 C   0  0  0  0  0  0  0  0  0  0  0  0
    3.2634    6.8004   17.9527 C   0  0  0  0  0  0  0  0  0  0  0  0
    1.8556    6.5548   17.9535 C   0  0  0  0  0  0  0  0  0  0  0  0
    0.7499    7.1411   18.6071 C   0  0  0  0  0  0  0  0  0  0  0  0
   -0.5410    6.6483   18.3893 C   0  0  0  0  0  0  0  0  0  0  0  0
   -0.7515    5.5776   17.5306 C   0  0  0  0  0  0  0  0  0  0  0  0
    0.3182    4.9721   16.8683 C   0  0  0  0  0  0  0  0  0  0  0  0
    1.6140    5.4741   17.0895 C   0  0  0  0  0  0  0  0  0  0  0  0
    2.8404    5.0708   16.5812 N   0  0  0  0  0  0  0  0  0  0  0  0
    3.8162    5.8763   17.0819 C   0  0  0  0  0  0  0  0  0  0  0  0
    5.3500    5.8521   16.7998 C   0  0  0  0  0  0  0  0  0  0  0  0
    3.9274    8.7282   19.5341 C   0  0  0  0  0  0  0  0  0  0  0  0
    2.8553    9.0949   19.9716 O   0  0  0  0  0  0  0  0  0  0  0  0
    5.1388    9.2689   19.8930 N   0  0  0  0  0  0  0  0  0  0  0  0
    6.2368    8.7368   19.1503 C   0  0  0  0  0  0  0  0  0  0  0  0
    5.2398    9.9546   20.5922 H   0  0  0  0  0  0  0  0  0  0  0  0
    3.4795    2.7647   11.0147 C   0  0  0  0  0  0  0  0  0  0  0  0
    3.3023    3.9341   11.8628 N   0  0  0  0  0  0  0  0  0  0  0  0
    2.3157    4.1913   11.8353 H   0  0  0  0  0  0  0  0  0  0  0  0
    4.5331    5.9673   13.7991 O   0  0  0  0  0  0  0  0  0  0  0  0
    5.4317    6.8639   13.1592 C   0  0  0  0  0  0  0  0  0  0  0  0
    6.7535    9.7599   18.3206 O   0  0  0  0  0  0  0  0  0  0  0  0
    8.1614    9.8987   18.4345 C   0  0  0  0  0  0  0  0  0  0  0  0
 33 34  1  0
  1 34  1  0
  1  2  1  0
  3  2  1  0
  3  4  1  0
  4  5  1  0
  5  6  1  0
  5  7  1  0
  7 36  1  0
 36 37  1  0
  5  8  1  0
  8  9  1  0
  9 10  2  0
 10 11  1  0
 11 12  2  0
 12 13  1  0
 13 14  2  0
 14 15  1  0
 15 16  2  0
 16 17  1  0
 17 18  2  0
 18 19  1  0
 19 20  2  0
 20 21  1  0
 21 22  2  0
 22 23  1  0
 23 24  2  0
 24 25  1  0
 25 26  1  0
 26 27  2  0
 17 28  1  0
 28 29  2  0
 28 30  1  0
 30 31  1  0
 31 38  1  0
 38 39  1  0
  7  1  1  0
 27  8  1  0
 25  3  1  0
 14  9  1  0
 27 15  1  0
 31 16  1  0
 26 18  1  0
 24 19  1  0
 34 35  1  0
 30 32  1  0
M  END
> <minimizedAffinity>
-11.90766

> <CNNscore>
0.9338777661

> <CNNaffinity>
7.7821197510

> <CNN_VS>
7.2675485611

> <CNNaffinity_variance>
0.0067156400

$$$$



 39 46  0  0  0  0  0  0  0  0999 V2000
    8.3278    0.3228   11.5903 C   0  0  0  0  0  0  0  0  0  0  0  0
    8.8563   -1.0076   11.0431 C   0  0  0  0  0  0  0  0  0  0  0  0
    7.7505   -2.0668   10.9525 C   0  0  0  0  0  0  0  0  0  0  0  0
    6.5084   -1.6837   11.5376 O   0  0  0  0  0  0  0  0  0  0  0  0
    5.9492   -0.3983   11.1653 C   0  0  0  0  0  0  0  0  0  0  0  0
    5.2502   -0.0248   12.4947 C   0  0  0  0  0  0  0  0  0  0  0  0
    7.0315    0.6937   10.8277 C   0  0  0  0  0  0  0  0  0  0  0  0
    4.9996   -0.6154   10.0592 N   0  0  0  0  0  0  0  0  0  0  0  0
    3.8167    0.0675    9.7735 C   0  0  0  0  0  0  0  0  0  0  0  0
    3.1485    1.1315   10.4114 C   0  0  0  0  0  0  0  0  0  0  0  0
    1.9430    1.6029    9.8802 C   0  0  0  0  0  0  0  0  0  0  0  0
    1.4059    1.0485    8.7297 C   0  0  0  0  0  0  0  0  0  0  0  0
    2.0742    0.0137    8.0758 C   0  0  0  0  0  0  0  0  0  0  0  0
    3.2929   -0.4851    8.5877 C   0  0  0  0  0  0  0  0  0  0  0  0
    4.2086   -1.4681    8.1208 C   0  0  0  0  0  0  0  0  0  0  0  0
    4.3223   -2.3251    7.0111 C   0  0  0  0  0  0  0  0  0  0  0  0
    5.4526   -3.1814    6.8360 C   0  0  0  0  0  0  0  0  0  0  0  0
    6.5441   -3.2691    7.7136 C   0  0  0  0  0  0  0  0  0  0  0  0
    7.7835   -3.9708    7.8294 C   0  0  0  0  0  0  0  0  0  0  0  0
    8.4592   -4.9224    7.0347 C   0  0  0  0  0  0  0  0  0  0  0  0
    9.6954   -5.4332    7.4442 C   0  0  0  0  0  0  0  0  0  0  0  0
   10.2724   -5.0134    8.6353 C   0  0  0  0  0  0  0  0  0  0  0  0
    9.6324   -4.0749    9.4472 C   0  0  0  0  0  0  0  0  0  0  0  0
    8.3903   -3.5628    9.0287 C   0  0  0  0  0  0  0  0  0  0  0  0
    7.5420   -2.6426    9.6276 N   0  0  0  0  0  0  0  0  0  0  0  0
    6.4546   -2.4559    8.8310 C   0  0  0  0  0  0  0  0  0  0  0  0
    5.2328   -1.5098    9.0433 C   0  0  0  0  0  0  0  0  0  0  0  0
    5.2370   -3.9240    5.5873 C   0  0  0  0  0  0  0  0  0  0  0  0
    5.9820   -4.7195    5.0512 O   0  0  0  0  0  0  0  0  0  0  0  0
    4.0052   -3.5615    5.0973 N   0  0  0  0  0  0  0  0  0  0  0  0
    3.3789   -2.5253    5.8553 C   0  0  0  0  0  0  0  0  0  0  0  0
    3.5955   -3.9746    4.3032 H   0  0  0  0  0  0  0  0  0  0  0  0
   10.1917    1.3964   12.8522 C   0  0  0  0  0  0  0  0  0  0  0  0
    9.3377    1.4018   11.6737 N   0  0  0  0  0  0  0  0  0  0  0  0
    9.9396    1.3280   10.8535 H   0  0  0  0  0  0  0  0  0  0  0  0
    7.3649    0.7245    9.4270 O   0  0  0  0  0  0  0  0  0  0  0  0
    7.1037    1.9760    8.8056 C   0  0  0  0  0  0  0  0  0  0  0  0
    3.3242   -1.3580    5.0574 O   0  0  0  0  0  0  0  0  0  0  0  0
    4.5052   -1.1595    4.2955 C   0  0  0  0  0  0  0  0  0  0  0  0
 33 34  1  0
  1 34  1  0
  1  2  1  0
  3  2  1  0
  3  4  1  0
  4  5  1  0
  5  6  1  0
  5  7  1  0
  7 36  1  0
 36 37  1  0
  5  8  1  0
  8  9  1  0
  9 10  2  0
 10 11  1  0
 11 12  2  0
 12 13  1  0
 13 14  2  0
 14 15  1  0
 15 16  2  0
 16 17  1  0
 17 18  2  0
 18 19  1  0
 19 20  2  0
 20 21  1  0
 21 22  2  0
 22 23  1  0
 23 24  2  0
 24 25  1  0
 25 26  1  0
 26 27  2  0
 17 28  1  0
 28 29  2  0
 28 30  1  0
 30 31  1  0
 31 38  1  0
 38 39  1  0
  7  1  1  0
 27  8  1  0
 25  3  1  0
 14  9  1  0
 27 15  1  0
 31 16  1  0
 26 18  1  0
 24 19  1  0
 34 35  1  0
 30 32  1  0
M  END
> <minimizedAffinity>
-5.02276

> <CNNscore>
0.5831905603

> <CNNaffinity>
5.9194774628

> <CNN_VS>
3.4521834850

> <CNNaffinity_variance>
0.1538051218

$$$$



 39 46  0  0  0  0  0  0  0  0999 V2000
    5.3763    3.6258   11.9179 C   0  0  0  0  0  0  0  0  0  0  0  0
    3.9892    3.0892   12.2880 C   0  0  0  0  0  0  0  0  0  0  0  0
    3.4116    2.1926   11.1855 C   0  0  0  0  0  0  0  0  0  0  0  0
    4.1736    2.1624    9.9812 O   0  0  0  0  0  0  0  0  0  0  0  0
    5.5980    1.9094   10.0840 C   0  0  0  0  0  0  0  0  0  0  0  0
    6.0995    2.7628    8.8943 C   0  0  0  0  0  0  0  0  0  0  0  0
    6.2464    2.4476   11.4136 C   0  0  0  0  0  0  0  0  0  0  0  0
    5.8217    0.4657    9.8889 N   0  0  0  0  0  0  0  0  0  0  0  0
    6.9054   -0.1800    9.2924 C   0  0  0  0  0  0  0  0  0  0  0  0
    8.0887    0.2937    8.6916 C   0  0  0  0  0  0  0  0  0  0  0  0
    9.0022   -0.6215    8.1575 C   0  0  0  0  0  0  0  0  0  0  0  0
    8.7665   -1.9852    8.2240 C   0  0  0  0  0  0  0  0  0  0  0  0
    7.6116   -2.4646    8.8414 C   0  0  0  0  0  0  0  0  0  0  0  0
    6.6692   -1.5660    9.3894 C   0  0  0  0  0  0  0  0  0  0  0  0
    5.4591   -1.7544   10.1125 C   0  0  0  0  0  0  0  0  0  0  0  0
    4.7037   -2.8403   10.5908 C   0  0  0  0  0  0  0  0  0  0  0  0
    3.5120   -2.6478   11.3552 C   0  0  0  0  0  0  0  0  0  0  0  0
    2.9707   -1.4023   11.7087 C   0  0  0  0  0  0  0  0  0  0  0  0
    1.8616   -0.8743   12.4390 C   0  0  0  0  0  0  0  0  0  0  0  0
    0.7917   -1.4453   13.1621 C   0  0  0  0  0  0  0  0  0  0  0  0
   -0.1605   -0.6261   13.7776 C   0  0  0  0  0  0  0  0  0  0  0  0
   -0.0673    0.7562   13.6846 C   0  0  0  0  0  0  0  0  0  0  0  0
    0.9763    1.3558   12.9767 C   0  0  0  0  0  0  0  0  0  0  0  0
    1.9324    0.5264   12.3620 C   0  0  0  0  0  0  0  0  0  0  0  0
    3.0501    0.8414   11.6026 N   0  0  0  0  0  0  0  0  0  0  0  0
    3.6760   -0.3093   11.2336 C   0  0  0  0  0  0  0  0  0  0  0  0
    4.9814   -0.4930   10.4000 C   0  0  0  0  0  0  0  0  0  0  0  0
    2.9924   -3.9824   11.6806 C   0  0  0  0  0  0  0  0  0  0  0  0
    2.0234   -4.2642   12.3564 O   0  0  0  0  0  0  0  0  0  0  0  0
    3.8112   -4.9047   11.0742 N   0  0  0  0  0  0  0  0  0  0  0  0
    4.9445   -4.3179   10.4326 C   0  0  0  0  0  0  0  0  0  0  0  0
    3.6342   -5.8732   11.0812 H   0  0  0  0  0  0  0  0  0  0  0  0
    5.1027    5.1787   13.8499 C   0  0  0  0  0  0  0  0  0  0  0  0
    6.0075    4.4740   12.9539 N   0  0  0  0  0  0  0  0  0  0  0  0
    6.6053    3.8754   13.5236 H   0  0  0  0  0  0  0  0  0  0  0  0
    6.2582    1.4587   12.4605 O   0  0  0  0  0  0  0  0  0  0  0  0
    7.5623    1.1315   12.9219 C   0  0  0  0  0  0  0  0  0  0  0  0
    6.1082   -4.7047   11.1385 O   0  0  0  0  0  0  0  0  0  0  0  0
    6.3631   -6.0983   11.0526 C   0  0  0  0  0  0  0  0  0  0  0  0
 33 34  1  0
  1 34  1  0
  1  2  1  0
  3  2  1  0
  3  4  1  0
  4  5  1  0
  5  6  1  0
  5  7  1  0
  7 36  1  0
 36 37  1  0
  5  8  1  0
  8  9  1  0
  9 10  2  0
 10 11  1  0
 11 12  2  0
 12 13  1  0
 13 14  2  0
 14 15  1  0
 15 16  2  0
 16 17  1  0
 17 18  2  0
 18 19  1  0
 19 20  2  0
 20 21  1  0
 21 22  2  0
 22 23  1  0
 23 24  2  0
 24 25  1  0
 25 26  1  0
 26 27  2  0
 17 28  1  0
 28 29  2  0
 28 30  1  0
 30 31  1  0
 31 38  1  0
 38 39  1  0
  7  1  1  0
 27  8  1  0
 25  3  1  0
 14  9  1  0
 27 15  1  0
 31 16  1  0
 26 18  1  0
 24 19  1  0
 34 35  1  0
 30 32  1  0
M  END
> <minimizedAffinity>
-4.64399

> <CNNscore>
0.4296981096

> <CNNaffinity>
5.9027018547

> <CNN_VS>
2.5363798141

> <CNNaffinity_variance>
0.4613194168

$$$$



 39 46  0  0  0  0  0  0  0  0999 V2000
    7.8519    0.3726   11.4544 C   0  0  0  0  0  0  0  0  0  0  0  0
    8.1544   -0.6084   10.3164 C   0  0  0  0  0  0  0  0  0  0  0  0
    7.0206   -1.6231   10.1216 C   0  0  0  0  0  0  0  0  0  0  0  0
    6.0013   -1.5768   11.1170 O   0  0  0  0  0  0  0  0  0  0  0  0
    5.4183   -0.2872   11.4338 C   0  0  0  0  0  0  0  0  0  0  0  0
    5.1226   -0.4987   12.9381 C   0  0  0  0  0  0  0  0  0  0  0  0
    6.4148    0.9202   11.2694 C   0  0  0  0  0  0  0  0  0  0  0  0
    4.1960   -0.1267   10.6259 N   0  0  0  0  0  0  0  0  0  0  0  0
    3.0106    0.5332   10.9524 C   0  0  0  0  0  0  0  0  0  0  0  0
    2.5869    1.2248   12.1047 C   0  0  0  0  0  0  0  0  0  0  0  0
    1.3042    1.7824   12.1386 C   0  0  0  0  0  0  0  0  0  0  0  0
    0.4520    1.6766   11.0514 C   0  0  0  0  0  0  0  0  0  0  0  0
    0.8726    1.0181    9.8963 C   0  0  0  0  0  0  0  0  0  0  0  0
    2.1617    0.4435    9.8311 C   0  0  0  0  0  0  0  0  0  0  0  0
    2.8732   -0.2224    8.7953 C   0  0  0  0  0  0  0  0  0  0  0  0
    2.6448   -0.5794    7.4540 C   0  0  0  0  0  0  0  0  0  0  0  0
    3.6472   -1.2261    6.6675 C   0  0  0  0  0  0  0  0  0  0  0  0
    4.9308   -1.5704    7.1181 C   0  0  0  0  0  0  0  0  0  0  0  0
    6.1237   -2.1789    6.6192 C   0  0  0  0  0  0  0  0  0  0  0  0
    6.5170   -2.7063    5.3699 C   0  0  0  0  0  0  0  0  0  0  0  0
    7.7946   -3.2515    5.2050 C   0  0  0  0  0  0  0  0  0  0  0  0
    8.6904   -3.2826    6.2655 C   0  0  0  0  0  0  0  0  0  0  0  0
    8.3355   -2.7714    7.5155 C   0  0  0  0  0  0  0  0  0  0  0  0
    7.0499   -2.2220    7.6744 C   0  0  0  0  0  0  0  0  0  0  0  0
    6.4362   -1.6600    8.7846 N   0  0  0  0  0  0  0  0  0  0  0  0
    5.1828   -1.2551    8.4428 C   0  0  0  0  0  0  0  0  0  0  0  0
    4.1063   -0.5461    9.3211 C   0  0  0  0  0  0  0  0  0  0  0  0
    3.0694   -1.4463    5.3353 C   0  0  0  0  0  0  0  0  0  0  0  0
    3.6061   -1.9243    4.3562 O   0  0  0  0  0  0  0  0  0  0  0  0
    1.7678   -1.0065    5.3706 N   0  0  0  0  0  0  0  0  0  0  0  0
    1.4157   -0.3839    6.6070 C   0  0  0  0  0  0  0  0  0  0  0  0
    1.1407   -1.1103    4.6188 H   0  0  0  0  0  0  0  0  0  0  0  0
   10.0422    0.9964   12.4707 C   0  0  0  0  0  0  0  0  0  0  0  0
    8.8923    1.4020   11.6760 N   0  0  0  0  0  0  0  0  0  0  0  0
    9.2352    1.6988   10.7624 H   0  0  0  0  0  0  0  0  0  0  0  0
    6.3572    1.5073    9.9556 O   0  0  0  0  0  0  0  0  0  0  0  0
    5.9971    2.8825    9.9602 C   0  0  0  0  0  0  0  0  0  0  0  0
    1.1974    0.9936    6.3680 O   0  0  0  0  0  0  0  0  0  0  0  0
    0.5351    1.2376    5.1366 C   0  0  0  0  0  0  0  0  0  0  0  0
 33 34  1  0
  1 34  1  0
  1  2  1  0
  3  2  1  0
  3  4  1  0
  4  5  1  0
  5  6  1  0
  5  7  1  0
  7 36  1  0
 36 37  1  0
  5  8  1  0
  8  9  1  0
  9 10  2  0
 10 11  1  0
 11 12  2  0
 12 13  1  0
 13 14  2  0
 14 15  1  0
 15 16  2  0
 16 17  1  0
 17 18  2  0
 18 19  1  0
 19 20  2  0
 20 21  1  0
 21 22  2  0
 22 23  1  0
 23 24  2  0
 24 25  1  0
 25 26  1  0
 26 27  2  0
 17 28  1  0
 28 29  2  0
 28 30  1  0
 30 31  1  0
 31 38  1  0
 38 39  1  0
  7  1  1  0
 27  8  1  0
 25  3  1  0
 14  9  1  0
 27 15  1  0
 31 16  1  0
 26 18  1  0
 24 19  1  0
 34 35  1  0
 30 32  1  0
M  END
> <minimizedAffinity>
-5.54408

> <CNNscore>
0.4292319715

> <CNNaffinity>
5.7274055481

> <CNN_VS>
2.4583854675

> <CNNaffinity_variance>
0.0061933254

$$$$



 39 46  0  0  0  0  0  0  0  0999 V2000
    3.8795    3.2471   11.3652 C   0  0  0  0  0  0  0  0  0  0  0  0
    2.6365    2.5480   10.8041 C   0  0  0  0  0  0  0  0  0  0  0  0
    2.9826    1.6268    9.6273 C   0  0  0  0  0  0  0  0  0  0  0  0
    4.3311    1.7188    9.1745 O   0  0  0  0  0  0  0  0  0  0  0  0
    5.3882    1.6234   10.1629 C   0  0  0  0  0  0  0  0  0  0  0  0
    6.4336    2.5636    9.5161 C   0  0  0  0  0  0  0  0  0  0  0  0
    4.9913    2.1895   11.5770 C   0  0  0  0  0  0  0  0  0  0  0  0
    5.8361    0.2203   10.2199 N   0  0  0  0  0  0  0  0  0  0  0  0
    7.1139   -0.2818   10.4697 C   0  0  0  0  0  0  0  0  0  0  0  0
    8.3523    0.3393   10.7267 C   0  0  0  0  0  0  0  0  0  0  0  0
    9.4884   -0.4514   10.9304 C   0  0  0  0  0  0  0  0  0  0  0  0
    9.4096   -1.8343   10.8973 C   0  0  0  0  0  0  0  0  0  0  0  0
    8.1831   -2.4583   10.6714 C   0  0  0  0  0  0  0  0  0  0  0  0
    7.0178   -1.6877   10.4611 C   0  0  0  0  0  0  0  0  0  0  0  0
    5.6514   -2.0321   10.2687 C   0  0  0  0  0  0  0  0  0  0  0  0
    4.8840   -3.2098   10.2149 C   0  0  0  0  0  0  0  0  0  0  0  0
    3.4653   -3.1750   10.0484 C   0  0  0  0  0  0  0  0  0  0  0  0
    2.6943   -2.0092    9.9235 C   0  0  0  0  0  0  0  0  0  0  0  0
    1.3252   -1.6310    9.7669 C   0  0  0  0  0  0  0  0  0  0  0  0
    0.1071   -2.3398    9.6808 C   0  0  0  0  0  0  0  0  0  0  0  0
   -1.0999   -1.6513    9.5202 C   0  0  0  0  0  0  0  0  0  0  0  0
   -1.1160   -0.2650    9.4422 C   0  0  0  0  0  0  0  0  0  0  0  0
    0.0692    0.4688    9.5222 C   0  0  0  0  0  0  0  0  0  0  0  0
    1.2799   -0.2294    9.6862 C   0  0  0  0  0  0  0  0  0  0  0  0
    2.5847    0.2315    9.7863 N   0  0  0  0  0  0  0  0  0  0  0  0
    3.4204   -0.8302    9.9480 C   0  0  0  0  0  0  0  0  0  0  0  0
    4.9692   -0.8414   10.1320 C   0  0  0  0  0  0  0  0  0  0  0  0
    3.0020   -4.5687   10.0359 C   0  0  0  0  0  0  0  0  0  0  0  0
    1.8606   -4.9775    9.9631 O   0  0  0  0  0  0  0  0  0  0  0  0
    4.1116   -5.3748   10.1243 N   0  0  0  0  0  0  0  0  0  0  0  0
    5.3254   -4.6457   10.3129 C   0  0  0  0  0  0  0  0  0  0  0  0
    4.0737   -6.3567   10.0636 H   0  0  0  0  0  0  0  0  0  0  0  0
    4.7882    4.5495   13.2881 C   0  0  0  0  0  0  0  0  0  0  0  0
    3.6217    4.1282   12.5264 N   0  0  0  0  0  0  0  0  0  0  0  0
    3.1558    4.9677   12.1821 H   0  0  0  0  0  0  0  0  0  0  0  0
    4.4449    1.1764   12.4426 O   0  0  0  0  0  0  0  0  0  0  0  0
    5.1599    1.0206   13.6613 C   0  0  0  0  0  0  0  0  0  0  0  0
    5.8160   -4.9217   11.6111 O   0  0  0  0  0  0  0  0  0  0  0  0
    5.2528   -6.0983   12.1707 C   0  0  0  0  0  0  0  0  0  0  0  0
 33 34  1  0
  1 34  1  0
  1  2  1  0
  3  2  1  0
  3  4  1  0
  4  5  1  0
  5  6  1  0
  5  7  1  0
  7 36  1  0
 36 37  1  0
  5  8  1  0
  8  9  1  0
  9 10  2  0
 10 11  1  0
 11 12  2  0
 12 13  1  0
 13 14  2  0
 14 15  1  0
 15 16  2  0
 16 17  1  0
 17 18  2  0
 18 19  1  0
 19 20  2  0
 20 21  1  0
 21 22  2  0
 22 23  1  0
 23 24  2  0
 24 25  1  0
 25 26  1  0
 26 27  2  0
 17 28  1  0
 28 29  2  0
 28 30  1  0
 30 31  1  0
 31 38  1  0
 38 39  1  0
  7  1  1  0
 27  8  1  0
 25  3  1  0
 14  9  1  0
 27 15  1  0
 31 16  1  0
 26 18  1  0
 24 19  1  0
 34 35  1  0
 30 32  1  0
M  END
> <minimizedAffinity>
-5.66808

> <CNNscore>
0.4144186974

> <CNNaffinity>
5.5139966011

> <CNN_VS>
2.2851033211

> <CNNaffinity_variance>
0.3700611591

$$$$



 39 46  0  0  0  0  0  0  0  0999 V2000
    4.6112    2.8725   12.9833 C   0  0  0  0  0  0  0  0  0  0  0  0
    3.7555    1.6658   13.3837 C   0  0  0  0  0  0  0  0  0  0  0  0
    3.4783    0.7420   12.1908 C   0  0  0  0  0  0  0  0  0  0  0  0
    3.9101    1.2495   10.9307 O   0  0  0  0  0  0  0  0  0  0  0  0
    5.2695    1.7441   10.8265 C   0  0  0  0  0  0  0  0  0  0  0  0
    5.0564    2.8714    9.7877 C   0  0  0  0  0  0  0  0  0  0  0  0
    5.8236    2.3704   12.1601 C   0  0  0  0  0  0  0  0  0  0  0  0
    6.1171    0.6498   10.3198 N   0  0  0  0  0  0  0  0  0  0  0  0
    7.2380    0.7216    9.4918 C   0  0  0  0  0  0  0  0  0  0  0  0
    7.9050    1.7994    8.8761 C   0  0  0  0  0  0  0  0  0  0  0  0
    9.0222    1.5472    8.0725 C   0  0  0  0  0  0  0  0  0  0  0  0
    9.4893    0.2563    7.8860 C   0  0  0  0  0  0  0  0  0  0  0  0
    8.8526   -0.8139    8.5138 C   0  0  0  0  0  0  0  0  0  0  0  0
    7.7214   -0.5923    9.3307 C   0  0  0  0  0  0  0  0  0  0  0  0
    6.9181   -1.4552   10.1262 C   0  0  0  0  0  0  0  0  0  0  0  0
    6.8875   -2.8231   10.4527 C   0  0  0  0  0  0  0  0  0  0  0  0
    5.9248   -3.3566   11.3638 C   0  0  0  0  0  0  0  0  0  0  0  0
    4.9319   -2.6119   12.0185 C   0  0  0  0  0  0  0  0  0  0  0  0
    3.8719   -2.8133   12.9555 C   0  0  0  0  0  0  0  0  0  0  0  0
    3.3724   -3.9313   13.6585 C   0  0  0  0  0  0  0  0  0  0  0  0
    2.2841   -3.7907   14.5259 C   0  0  0  0  0  0  0  0  0  0  0  0
    1.6810   -2.5529   14.7057 C   0  0  0  0  0  0  0  0  0  0  0  0
    2.1471   -1.4258   14.0261 C   0  0  0  0  0  0  0  0  0  0  0  0
    3.2438   -1.5732   13.1569 C   0  0  0  0  0  0  0  0  0  0  0  0
    3.9002   -0.6449   12.3616 N   0  0  0  0  0  0  0  0  0  0  0  0
    4.9168   -1.2638   11.7020 C   0  0  0  0  0  0  0  0  0  0  0  0
    5.9591   -0.6566   10.7131 C   0  0  0  0  0  0  0  0  0  0  0  0
    6.1857   -4.7984   11.4657 C   0  0  0  0  0  0  0  0  0  0  0  0
    5.6242   -5.6128   12.1704 O   0  0  0  0  0  0  0  0  0  0  0  0
    7.2113   -5.0958   10.6004 N   0  0  0  0  0  0  0  0  0  0  0  0
    7.7732   -3.9420    9.9733 C   0  0  0  0  0  0  0  0  0  0  0  0
    7.5271   -6.0125   10.4299 H   0  0  0  0  0  0  0  0  0  0  0  0
    5.8553    4.8811   13.7814 C   0  0  0  0  0  0  0  0  0  0  0  0
    4.9445    3.7903   14.0958 N   0  0  0  0  0  0  0  0  0  0  0  0
    4.0732    4.2002   14.4321 H   0  0  0  0  0  0  0  0  0  0  0  0
    6.5129    1.4055   12.9773 O   0  0  0  0  0  0  0  0  0  0  0  0
    7.8478    1.7765   13.2953 C   0  0  0  0  0  0  0  0  0  0  0  0
    9.0914   -3.7672   10.4569 O   0  0  0  0  0  0  0  0  0  0  0  0
   10.0754   -4.2306    9.5449 C   0  0  0  0  0  0  0  0  0  0  0  0
 33 34  1  0
  1 34  1  0
  1  2  1  0
  3  2  1  0
  3  4  1  0
  4  5  1  0
  5  6  1  0
  5  7  1  0
  7 36  1  0
 36 37  1  0
  5  8  1  0
  8  9  1  0
  9 10  2  0
 10 11  1  0
 11 12  2  0
 12 13  1  0
 13 14  2  0
 14 15  1  0
 15 16  2  0
 16 17  1  0
 17 18  2  0
 18 19  1  0
 19 20  2  0
 20 21  1  0
 21 22  2  0
 22 23  1  0
 23 24  2  0
 24 25  1  0
 25 26  1  0
 26 27  2  0
 17 28  1  0
 28 29  2  0
 28 30  1  0
 30 31  1  0
 31 38  1  0
 38 39  1  0
  7  1  1  0
 27  8  1  0
 25  3  1  0
 14  9  1  0
 27 15  1  0
 31 16  1  0
 26 18  1  0
 24 19  1  0
 34 35  1  0
 30 32  1  0
M  END
> <minimizedAffinity>
-6.06401

> <CNNscore>
0.3428463638

> <CNNaffinity>
5.4841141701

> <CNN_VS>
1.8802086115

> <CNNaffinity_variance>
0.1839023083

$$$$



 39 46  0  0  0  0  0  0  0  0999 V2000
    2.7190    2.4012   13.0802 C   0  0  0  0  0  0  0  0  0  0  0  0
    2.1959    0.9769   13.2963 C   0  0  0  0  0  0  0  0  0  0  0  0
    2.3495    0.1155   12.0364 C   0  0  0  0  0  0  0  0  0  0  0  0
    2.7796    0.8253   10.8775 O   0  0  0  0  0  0  0  0  0  0  0  0
    3.9445    1.6809   10.9975 C   0  0  0  0  0  0  0  0  0  0  0  0
    3.5575    2.7891    9.9888 C   0  0  0  0  0  0  0  0  0  0  0  0
    4.1202    2.3216   12.4245 C   0  0  0  0  0  0  0  0  0  0  0  0
    5.1259    0.9075   10.5747 N   0  0  0  0  0  0  0  0  0  0  0  0
    6.2781    1.3530    9.9258 C   0  0  0  0  0  0  0  0  0  0  0  0
    6.6863    2.6199    9.4633 C   0  0  0  0  0  0  0  0  0  0  0  0
    7.9237    2.7520    8.8238 C   0  0  0  0  0  0  0  0  0  0  0  0
    8.7577    1.6591    8.6524 C   0  0  0  0  0  0  0  0  0  0  0  0
    8.3746    0.4067    9.1316 C   0  0  0  0  0  0  0  0  0  0  0  0
    7.1309    0.2404    9.7808 C   0  0  0  0  0  0  0  0  0  0  0  0
    6.5088   -0.8731   10.4101 C   0  0  0  0  0  0  0  0  0  0  0  0
    6.8252   -2.2191   10.6685 C   0  0  0  0  0  0  0  0  0  0  0  0
    5.9433   -3.0705   11.4027 C   0  0  0  0  0  0  0  0  0  0  0  0
    4.7037   -2.6842   11.9350 C   0  0  0  0  0  0  0  0  0  0  0  0
    3.6320   -3.2463   12.6949 C   0  0  0  0  0  0  0  0  0  0  0  0
    3.3830   -4.5131   13.2666 C   0  0  0  0  0  0  0  0  0  0  0  0
    2.1964   -4.7494   13.9685 C   0  0  0  0  0  0  0  0  0  0  0  0
    1.2491   -3.7442   14.1109 C   0  0  0  0  0  0  0  0  0  0  0  0
    1.4608   -2.4797   13.5578 C   0  0  0  0  0  0  0  0  0  0  0  0
    2.6575   -2.2474   12.8550 C   0  0  0  0  0  0  0  0  0  0  0  0
    3.1213   -1.1116   12.2070 N   0  0  0  0  0  0  0  0  0  0  0  0
    4.3484   -1.3705   11.6789 C   0  0  0  0  0  0  0  0  0  0  0  0
    5.2950   -0.4202   10.8828 C   0  0  0  0  0  0  0  0  0  0  0  0
    6.5867   -4.3886   11.4790 C   0  0  0  0  0  0  0  0  0  0  0  0
    6.1926   -5.3817   12.0565 O   0  0  0  0  0  0  0  0  0  0  0  0
    7.7579   -4.3199   10.7631 N   0  0  0  0  0  0  0  0  0  0  0  0
    8.0462   -3.0080   10.2771 C   0  0  0  0  0  0  0  0  0  0  0  0
    8.3400   -5.0972   10.6014 H   0  0  0  0  0  0  0  0  0  0  0  0
    3.2839    4.5754   14.1631 C   0  0  0  0  0  0  0  0  0  0  0  0
    2.6309    3.2790   14.2688 N   0  0  0  0  0  0  0  0  0  0  0  0
    1.6428    3.4435   14.4610 H   0  0  0  0  0  0  0  0  0  0  0  0
    4.9424    1.5181   13.2919 O   0  0  0  0  0  0  0  0  0  0  0  0
    6.1376    2.1663   13.7070 C   0  0  0  0  0  0  0  0  0  0  0  0
    9.1863   -2.5192   10.9578 O   0  0  0  0  0  0  0  0  0  0  0  0
   10.3633   -2.5775   10.1668 C   0  0  0  0  0  0  0  0  0  0  0  0
 33 34  1  0
  1 34  1  0
  1  2  1  0
  3  2  1  0
  3  4  1  0
  4  5  1  0
  5  6  1  0
  5  7  1  0
  7 36  1  0
 36 37  1  0
  5  8  1  0
  8  9  1  0
  9 10  2  0
 10 11  1  0
 11 12  2  0
 12 13  1  0
 13 14  2  0
 14 15  1  0
 15 16  2  0
 16 17  1  0
 17 18  2  0
 18 19  1  0
 19 20  2  0
 20 21  1  0
 21 22  2  0
 22 23  1  0
 23 24  2  0
 24 25  1  0
 25 26  1  0
 26 27  2  0
 17 28  1  0
 28 29  2  0
 28 30  1  0
 30 31  1  0
 31 38  1  0
 38 39  1  0
  7  1  1  0
 27  8  1  0
 25  3  1  0
 14  9  1  0
 27 15  1  0
 31 16  1  0
 26 18  1  0
 24 19  1  0
 34 35  1  0
 30 32  1  0
M  END
> <minimizedAffinity>
-6.22633

> <CNNscore>
0.3326616883

> <CNNaffinity>
5.5042362213

> <CNN_VS>
1.8310484886

> <CNNaffinity_variance>
0.0943253562

$$$$



 39 46  0  0  0  0  0  0  0  0999 V2000
    4.8726    2.3694   12.1832 C   0  0  0  0  0  0  0  0  0  0  0  0
    3.3428    2.3645   12.0910 C   0  0  0  0  0  0  0  0  0  0  0  0
    2.8592    2.3362   10.6356 C   0  0  0  0  0  0  0  0  0  0  0  0
    3.8890    2.4887    9.6619 O   0  0  0  0  0  0  0  0  0  0  0  0
    5.0628    1.6444    9.7756 C   0  0  0  0  0  0  0  0  0  0  0  0
    6.1347    2.6150    9.2240 C   0  0  0  0  0  0  0  0  0  0  0  0
    5.4297    1.2596   11.2572 C   0  0  0  0  0  0  0  0  0  0  0  0
    4.8620    0.4634    8.9169 N   0  0  0  0  0  0  0  0  0  0  0  0
    5.8081   -0.2672    8.1971 C   0  0  0  0  0  0  0  0  0  0  0  0
    7.2017   -0.1325    8.0377 C   0  0  0  0  0  0  0  0  0  0  0  0
    7.8903   -1.0356    7.2206 C   0  0  0  0  0  0  0  0  0  0  0  0
    7.2242   -2.0671    6.5788 C   0  0  0  0  0  0  0  0  0  0  0  0
    5.8496   -2.2251    6.7527 C   0  0  0  0  0  0  0  0  0  0  0  0
    5.1256   -1.3291    7.5706 C   0  0  0  0  0  0  0  0  0  0  0  0
    3.7628   -1.2722    7.9738 C   0  0  0  0  0  0  0  0  0  0  0  0
    2.5961   -2.0310    7.7699 C   0  0  0  0  0  0  0  0  0  0  0  0
    1.3592   -1.6907    8.3990 C   0  0  0  0  0  0  0  0  0  0  0  0
    1.1641   -0.6022    9.2628 C   0  0  0  0  0  0  0  0  0  0  0  0
    0.1185   -0.0113   10.0371 C   0  0  0  0  0  0  0  0  0  0  0  0
   -1.2396   -0.3226   10.2659 C   0  0  0  0  0  0  0  0  0  0  0  0
   -2.0174    0.4855   11.1017 C   0  0  0  0  0  0  0  0  0  0  0  0
   -1.4662    1.6027   11.7149 C   0  0  0  0  0  0  0  0  0  0  0  0
   -0.1272    1.9419   11.5105 C   0  0  0  0  0  0  0  0  0  0  0  0
    0.6508    1.1237   10.6708 C   0  0  0  0  0  0  0  0  0  0  0  0
    1.9810    1.2229   10.2891 N   0  0  0  0  0  0  0  0  0  0  0  0
    2.2870    0.1820    9.4678 C   0  0  0  0  0  0  0  0  0  0  0  0
    3.6496   -0.1703    8.7952 C   0  0  0  0  0  0  0  0  0  0  0  0
    0.3706   -2.6865    7.9650 C   0  0  0  0  0  0  0  0  0  0  0  0
   -0.7906   -2.7867    8.3066 O   0  0  0  0  0  0  0  0  0  0  0  0
    0.9927   -3.5257    7.0720 N   0  0  0  0  0  0  0  0  0  0  0  0
    2.3892   -3.2618    6.9281 C   0  0  0  0  0  0  0  0  0  0  0  0
    0.5228   -4.2377    6.5805 H   0  0  0  0  0  0  0  0  0  0  0  0
    6.0240    3.6003   14.0213 C   0  0  0  0  0  0  0  0  0  0  0  0
    5.4087    2.3636   13.5629 N   0  0  0  0  0  0  0  0  0  0  0  0
    4.6379    2.1473   14.1949 H   0  0  0  0  0  0  0  0  0  0  0  0
    4.8192    0.0232   11.6727 O   0  0  0  0  0  0  0  0  0  0  0  0
    5.7539   -1.0162   11.9310 C   0  0  0  0  0  0  0  0  0  0  0  0
    3.1088   -4.3537    7.4685 O   0  0  0  0  0  0  0  0  0  0  0  0
    3.4503   -5.3229    6.4894 C   0  0  0  0  0  0  0  0  0  0  0  0
 33 34  1  0
  1 34  1  0
  1  2  1  0
  3  2  1  0
  3  4  1  0
  4  5  1  0
  5  6  1  0
  5  7  1  0
  7 36  1  0
 36 37  1  0
  5  8  1  0
  8  9  1  0
  9 10  2  0
 10 11  1  0
 11 12  2  0
 12 13  1  0
 13 14  2  0
 14 15  1  0
 15 16  2  0
 16 17  1  0
 17 18  2  0
 18 19  1  0
 19 20  2  0
 20 21  1  0
 21 22  2  0
 22 23  1  0
 23 24  2  0
 24 25  1  0
 25 26  1  0
 26 27  2  0
 17 28  1  0
 28 29  2  0
 28 30  1  0
 30 31  1  0
 31 38  1  0
 38 39  1  0
  7  1  1  0
 27  8  1  0
 25  3  1  0
 14  9  1  0
 27 15  1  0
 31 16  1  0
 26 18  1  0
 24 19  1  0
 34 35  1  0
 30 32  1  0
M  END
> <minimizedAffinity>
-4.67681

> <CNNscore>
0.2554478049

> <CNNaffinity>
5.2897210121

> <CNN_VS>
1.3512476683

> <CNNaffinity_variance>
0.0636977851

$$$$
