


 33 36  0  0  0  0  0  0  0  0999 V2000
    4.9179    7.6194   25.3227 C   0  0  0  0  0  0  0  0  0  0  0  0
    4.3898    8.6265   24.5171 C   0  0  0  0  0  0  0  0  0  0  0  0
    5.1157    9.8027   24.3127 C   0  0  0  0  0  0  0  0  0  0  0  0
    4.3895   11.0422   23.3550 Cl  0  0  0  0  0  0  0  0  0  0  0  0
    6.3811    9.9627   24.8915 C   0  0  0  0  0  0  0  0  0  0  0  0
    6.8919    8.9532   25.7161 C   0  0  0  0  0  0  0  0  0  0  0  0
    8.4265    9.1170   26.4884 Cl  0  0  0  0  0  0  0  0  0  0  0  0
    6.1651    7.7793   25.9244 C   0  0  0  0  0  0  0  0  0  0  0  0
    4.1550    6.4460   25.5508 N   0  0  0  0  0  0  0  0  0  0  0  0
    3.1726    6.4846   25.5006 H   0  0  0  0  0  0  0  0  0  0  0  0
    4.0252    3.9609   25.4001 O   0  0  0  0  0  0  0  0  0  0  0  0
    4.9192    4.9826   25.9078 S   0  0  0  0  0  0  0  0  0  0  0  0
    6.2935    5.0295   25.4695 O   0  0  0  0  0  0  0  0  0  0  0  0
    4.8370    4.9014   27.6850 C   0  0  0  0  0  0  0  0  0  0  0  0
    6.0639    4.9322   28.3762 C   0  0  0  0  0  0  0  0  0  0  0  0
    6.0940    4.8933   29.7710 C   0  0  0  0  0  0  0  0  0  0  0  0
    4.9009    4.8319   30.4814 C   0  0  0  0  0  0  0  0  0  0  0  0
    4.9314    4.7795   32.1993 Cl  0  0  0  0  0  0  0  0  0  0  0  0
    3.6814    4.8127   29.8081 C   0  0  0  0  0  0  0  0  0  0  0  0
    3.6400    4.8528   28.4063 C   0  0  0  0  0  0  0  0  0  0  0  0
    2.0643    4.7987   27.7106 Cl  0  0  0  0  0  0  0  0  0  0  0  0
    7.0888   11.1311   24.7318 O   0  0  0  0  0  0  0  0  0  0  0  0
    6.8438   12.1524   25.6186 C   0  0  0  0  0  0  0  0  0  0  0  0
    6.9845   13.4432   25.1330 C   0  0  0  0  0  0  0  0  0  0  0  0
    6.7744   14.5642   25.8645 N   0  0  0  0  0  0  0  0  0  0  0  0
    6.3936   14.4149   27.1425 C   0  0  0  0  0  0  0  0  0  0  0  0
    6.1690   15.5430   27.9223 C   0  0  0  0  0  0  0  0  0  0  0  0
    5.7667   15.4421   29.2566 C   0  0  0  0  0  0  0  0  0  0  0  0
    5.5853   14.1879   29.8177 C   0  0  0  0  0  0  0  0  0  0  0  0
    5.1996   14.0829   31.0955 F   0  0  0  0  0  0  0  0  0  0  0  0
    5.7997   13.0372   29.0704 C   0  0  0  0  0  0  0  0  0  0  0  0
    6.2069   13.1417   27.7301 C   0  0  0  0  0  0  0  0  0  0  0  0
    6.4358   12.0037   26.9406 C   0  0  0  0  0  0  0  0  0  0  0  0
 11 12  2  0
 12 13  2  0
 12  9  1  0
  9  1  1  0
  1  2  2  0
  2  3  1  0
  3  4  1  0
  3  5  2  0
  5 22  1  0
 22 23  1  0
 23 24  2  0
 24 25  1  0
 25 26  2  0
 26 27  1  0
 27 28  2  0
 28 29  1  0
 29 30  1  0
 29 31  2  0
 31 32  1  0
 32 33  2  0
  5  6  1  0
  6  7  1  0
  6  8  2  0
 12 14  1  0
 14 15  2  0
 15 16  1  0
 16 17  2  0
 17 18  1  0
 17 19  1  0
 19 20  2  0
 20 21  1  0
  8  1  1  0
 20 14  1  0
 33 23  1  0
 32 26  1  0
  9 10  1  0
M  END
> <minimizedAffinity>
-11.62181

> <CNNscore>
0.9337441921

> <CNNaffinity>
8.3848638535

> <CNN_VS>
7.8293180466

> <CNNaffinity_variance>
0.1198607460

$$$$



 33 36  0  0  0  0  0  0  0  0999 V2000
    4.8491    7.6288   25.2398 C   0  0  0  0  0  0  0  0  0  0  0  0
    6.0872    7.7986   25.8566 C   0  0  0  0  0  0  0  0  0  0  0  0
    6.7928    8.9912   25.6780 C   0  0  0  0  0  0  0  0  0  0  0  0
    8.3482    9.1260   26.4154 Cl  0  0  0  0  0  0  0  0  0  0  0  0
    6.2500   10.0253   24.9047 C   0  0  0  0  0  0  0  0  0  0  0  0
    5.0154    9.8350   24.2727 C   0  0  0  0  0  0  0  0  0  0  0  0
    4.3212   11.0594   23.2740 Cl  0  0  0  0  0  0  0  0  0  0  0  0
    4.3117    8.6417   24.4470 C   0  0  0  0  0  0  0  0  0  0  0  0
    4.1602    6.3997   25.4002 N   0  0  0  0  0  0  0  0  0  0  0  0
    3.1832    6.3685   25.2833 H   0  0  0  0  0  0  0  0  0  0  0  0
    4.1859    3.9101   25.2717 O   0  0  0  0  0  0  0  0  0  0  0  0
    5.0032    4.9891   25.7903 S   0  0  0  0  0  0  0  0  0  0  0  0
    6.3824    5.1162   25.3845 O   0  0  0  0  0  0  0  0  0  0  0  0
    4.8826    4.9184   27.5657 C   0  0  0  0  0  0  0  0  0  0  0  0
    6.0929    4.9757   28.2838 C   0  0  0  0  0  0  0  0  0  0  0  0
    6.0925    4.9467   29.6792 C   0  0  0  0  0  0  0  0  0  0  0  0
    4.8849    4.8690   30.3632 C   0  0  0  0  0  0  0  0  0  0  0  0
    4.8778    4.8288   32.0817 Cl  0  0  0  0  0  0  0  0  0  0  0  0
    3.6814    4.8236   29.6631 C   0  0  0  0  0  0  0  0  0  0  0  0
    3.6708    4.8535   28.2604 C   0  0  0  0  0  0  0  0  0  0  0  0
    2.1122    4.7667   27.5302 Cl  0  0  0  0  0  0  0  0  0  0  0  0
    6.9513   11.1883   24.6875 O   0  0  0  0  0  0  0  0  0  0  0  0
    6.7740   12.2173   25.5814 C   0  0  0  0  0  0  0  0  0  0  0  0
    7.0113   13.4985   25.1079 C   0  0  0  0  0  0  0  0  0  0  0  0
    6.8772   14.6258   25.8476 N   0  0  0  0  0  0  0  0  0  0  0  0
    6.4767   14.4940   27.1215 C   0  0  0  0  0  0  0  0  0  0  0  0
    6.3283   15.6291   27.9094 C   0  0  0  0  0  0  0  0  0  0  0  0
    5.9094   15.5468   29.2399 C   0  0  0  0  0  0  0  0  0  0  0  0
    5.6335   14.3044   29.7888 C   0  0  0  0  0  0  0  0  0  0  0  0
    5.2313   14.2173   31.0628 F   0  0  0  0  0  0  0  0  0  0  0  0
    5.7699   13.1474   29.0331 C   0  0  0  0  0  0  0  0  0  0  0  0
    6.1939   13.2330   27.6967 C   0  0  0  0  0  0  0  0  0  0  0  0
    6.3460   12.0879   26.8991 C   0  0  0  0  0  0  0  0  0  0  0  0
 11 12  2  0
 12 13  2  0
 12  9  1  0
  9  1  1  0
  1  2  2  0
  2  3  1  0
  3  4  1  0
  3  5  2  0
  5 22  1  0
 22 23  1  0
 23 24  2  0
 24 25  1  0
 25 26  2  0
 26 27  1  0
 27 28  2  0
 28 29  1  0
 29 30  1  0
 29 31  2  0
 31 32  1  0
 32 33  2  0
  5  6  1  0
  6  7  1  0
  6  8  2  0
 12 14  1  0
 14 15  2  0
 15 16  1  0
 16 17  2  0
 17 18  1  0
 17 19  1  0
 19 20  2  0
 20 21  1  0
  8  1  1  0
 20 14  1  0
 33 23  1  0
 32 26  1  0
  9 10  1  0
M  END
> <minimizedAffinity>
-11.63235

> <CNNscore>
0.9311418533

> <CNNaffinity>
8.3814830780

> <CNN_VS>
7.8043498993

> <CNNaffinity_variance>
0.1096763387

$$$$



 33 36  0  0  0  0  0  0  0  0999 V2000
    4.2888    7.7798   25.1163 C   0  0  0  0  0  0  0  0  0  0  0  0
    3.3683    8.6933   24.6061 C   0  0  0  0  0  0  0  0  0  0  0  0
    3.7778    9.9945   24.3041 C   0  0  0  0  0  0  0  0  0  0  0  0
    2.5843   11.1029   23.7313 Cl  0  0  0  0  0  0  0  0  0  0  0  0
    5.1130   10.3764   24.4869 C   0  0  0  0  0  0  0  0  0  0  0  0
    6.0237    9.4565   25.0200 C   0  0  0  0  0  0  0  0  0  0  0  0
    7.6702    9.8874   25.3056 Cl  0  0  0  0  0  0  0  0  0  0  0  0
    5.6142    8.1572   25.3262 C   0  0  0  0  0  0  0  0  0  0  0  0
    3.8518    6.4732   25.4521 N   0  0  0  0  0  0  0  0  0  0  0  0
    2.8881    6.2806   25.5115 H   0  0  0  0  0  0  0  0  0  0  0  0
    4.3841    4.0540   25.1704 O   0  0  0  0  0  0  0  0  0  0  0  0
    4.9720    5.2450   25.7511 S   0  0  0  0  0  0  0  0  0  0  0  0
    6.2890    5.6763   25.3481 O   0  0  0  0  0  0  0  0  0  0  0  0
    4.8981    5.0456   27.5193 C   0  0  0  0  0  0  0  0  0  0  0  0
    6.1225    5.1029   28.2131 C   0  0  0  0  0  0  0  0  0  0  0  0
    6.1576    4.9766   29.6026 C   0  0  0  0  0  0  0  0  0  0  0  0
    4.9713    4.8013   30.3056 C   0  0  0  0  0  0  0  0  0  0  0  0
    5.0082    4.6410   32.0167 Cl  0  0  0  0  0  0  0  0  0  0  0  0
    3.7537    4.7550   29.6304 C   0  0  0  0  0  0  0  0  0  0  0  0
    3.7073    4.8821   28.2339 C   0  0  0  0  0  0  0  0  0  0  0  0
    2.1359    4.7819   27.5335 Cl  0  0  0  0  0  0  0  0  0  0  0  0
    5.5208   11.6649   24.2321 O   0  0  0  0  0  0  0  0  0  0  0  0
    5.4640   12.1075   22.9319 C   0  0  0  0  0  0  0  0  0  0  0  0
    6.3483   13.1155   22.5802 C   0  0  0  0  0  0  0  0  0  0  0  0
    6.4344   13.6623   21.3434 N   0  0  0  0  0  0  0  0  0  0  0  0
    5.6158   13.1882   20.3917 C   0  0  0  0  0  0  0  0  0  0  0  0
    5.6770   13.7255   19.1115 C   0  0  0  0  0  0  0  0  0  0  0  0
    4.8502   13.2640   18.0839 C   0  0  0  0  0  0  0  0  0  0  0  0
    3.9477   12.2451   18.3449 C   0  0  0  0  0  0  0  0  0  0  0  0
    3.1523   11.7973   17.3654 F   0  0  0  0  0  0  0  0  0  0  0  0
    3.8573   11.6828   19.6114 C   0  0  0  0  0  0  0  0  0  0  0  0
    4.6877   12.1506   20.6432 C   0  0  0  0  0  0  0  0  0  0  0  0
    4.6270   11.6106   21.9376 C   0  0  0  0  0  0  0  0  0  0  0  0
 11 12  2  0
 12 13  2  0
 12  9  1  0
  9  1  1  0
  1  2  2  0
  2  3  1  0
  3  4  1  0
  3  5  2  0
  5 22  1  0
 22 23  1  0
 23 24  2  0
 24 25  1  0
 25 26  2  0
 26 27  1  0
 27 28  2  0
 28 29  1  0
 29 30  1  0
 29 31  2  0
 31 32  1  0
 32 33  2  0
  5  6  1  0
  6  7  1  0
  6  8  2  0
 12 14  1  0
 14 15  2  0
 15 16  1  0
 16 17  2  0
 17 18  1  0
 17 19  1  0
 19 20  2  0
 20 21  1  0
  8  1  1  0
 20 14  1  0
 33 23  1  0
 32 26  1  0
  9 10  1  0
M  END
> <minimizedAffinity>
-10.80804

> <CNNscore>
0.9256145358

> <CNNaffinity>
8.2484092712

> <CNN_VS>
7.6348476410

> <CNNaffinity_variance>
0.2274305075

$$$$



 33 36  0  0  0  0  0  0  0  0999 V2000
    5.0147    7.4381   25.2645 C   0  0  0  0  0  0  0  0  0  0  0  0
    4.5168    8.5233   24.5457 C   0  0  0  0  0  0  0  0  0  0  0  0
    5.2230    9.7288   24.5328 C   0  0  0  0  0  0  0  0  0  0  0  0
    4.5318   11.0591   23.6763 Cl  0  0  0  0  0  0  0  0  0  0  0  0
    6.4404    9.8429   25.2162 C   0  0  0  0  0  0  0  0  0  0  0  0
    6.9198    8.7527   25.9521 C   0  0  0  0  0  0  0  0  0  0  0  0
    8.3920    8.8527   26.8470 Cl  0  0  0  0  0  0  0  0  0  0  0  0
    6.2123    7.5490   25.9691 C   0  0  0  0  0  0  0  0  0  0  0  0
    4.2698    6.2319   25.2985 N   0  0  0  0  0  0  0  0  0  0  0  0
    3.3153    6.2402   25.0578 H   0  0  0  0  0  0  0  0  0  0  0  0
    4.1213    3.7436   25.2604 O   0  0  0  0  0  0  0  0  0  0  0  0
    5.0080    4.7810   25.7489 S   0  0  0  0  0  0  0  0  0  0  0  0
    6.3962    4.7962   25.3545 O   0  0  0  0  0  0  0  0  0  0  0  0
    4.8671    4.7844   27.5242 C   0  0  0  0  0  0  0  0  0  0  0  0
    6.0721    4.7817   28.2535 C   0  0  0  0  0  0  0  0  0  0  0  0
    6.0573    4.8042   29.6489 C   0  0  0  0  0  0  0  0  0  0  0  0
    4.8413    4.8379   30.3215 C   0  0  0  0  0  0  0  0  0  0  0  0
    4.8163    4.8615   32.0402 Cl  0  0  0  0  0  0  0  0  0  0  0  0
    3.6438    4.8526   29.6099 C   0  0  0  0  0  0  0  0  0  0  0  0
    3.6477    4.8315   28.2070 C   0  0  0  0  0  0  0  0  0  0  0  0
    2.0933    4.8291   27.4627 Cl  0  0  0  0  0  0  0  0  0  0  0  0
    7.1256   11.0350   25.2453 O   0  0  0  0  0  0  0  0  0  0  0  0
    6.6698   12.0129   26.0970 C   0  0  0  0  0  0  0  0  0  0  0  0
    6.2302   11.5948   27.3435 C   0  0  0  0  0  0  0  0  0  0  0  0
    5.7582   12.4224   28.3069 N   0  0  0  0  0  0  0  0  0  0  0  0
    5.7244   13.7371   28.0405 C   0  0  0  0  0  0  0  0  0  0  0  0
    5.2465   14.6153   29.0057 C   0  0  0  0  0  0  0  0  0  0  0  0
    5.1950   15.9934   28.7801 C   0  0  0  0  0  0  0  0  0  0  0  0
    5.6317   16.4989   27.5658 C   0  0  0  0  0  0  0  0  0  0  0  0
    5.5858   17.8181   27.3421 F   0  0  0  0  0  0  0  0  0  0  0  0
    6.1160   15.6532   26.5766 C   0  0  0  0  0  0  0  0  0  0  0  0
    6.1640   14.2680   26.8051 C   0  0  0  0  0  0  0  0  0  0  0  0
    6.6449   13.3786   25.8313 C   0  0  0  0  0  0  0  0  0  0  0  0
 11 12  2  0
 12 13  2  0
 12  9  1  0
  9  1  1  0
  1  2  2  0
  2  3  1  0
  3  4  1  0
  3  5  2  0
  5 22  1  0
 22 23  1  0
 23 24  2  0
 24 25  1  0
 25 26  2  0
 26 27  1  0
 27 28  2  0
 28 29  1  0
 29 30  1  0
 29 31  2  0
 31 32  1  0
 32 33  2  0
  5  6  1  0
  6  7  1  0
  6  8  2  0
 12 14  1  0
 14 15  2  0
 15 16  1  0
 16 17  2  0
 17 18  1  0
 17 19  1  0
 19 20  2  0
 20 21  1  0
  8  1  1  0
 20 14  1  0
 33 23  1  0
 32 26  1  0
  9 10  1  0
M  END
> <minimizedAffinity>
-11.50788

> <CNNscore>
0.8314794302

> <CNNaffinity>
8.3644723892

> <CNN_VS>
6.9548869133

> <CNNaffinity_variance>
0.1205674410

$$$$



 33 36  0  0  0  0  0  0  0  0999 V2000
    5.9873    7.6122   25.5925 C   0  0  0  0  0  0  0  0  0  0  0  0
    4.9330    8.4085   25.1492 C   0  0  0  0  0  0  0  0  0  0  0  0
    4.9524    9.7838   25.3947 C   0  0  0  0  0  0  0  0  0  0  0  0
    3.5935   10.7146   24.8769 Cl  0  0  0  0  0  0  0  0  0  0  0  0
    6.0375   10.3684   26.0601 C   0  0  0  0  0  0  0  0  0  0  0  0
    7.0805    9.5554   26.5194 C   0  0  0  0  0  0  0  0  0  0  0  0
    8.4204   10.2177   27.3822 Cl  0  0  0  0  0  0  0  0  0  0  0  0
    7.0597    8.1803   26.2783 C   0  0  0  0  0  0  0  0  0  0  0  0
    5.9378    6.2129   25.3681 N   0  0  0  0  0  0  0  0  0  0  0  0
    6.7115    5.7547   24.9673 H   0  0  0  0  0  0  0  0  0  0  0  0
    3.4564    6.2478   25.6071 O   0  0  0  0  0  0  0  0  0  0  0  0
    4.5613    5.3263   25.7833 S   0  0  0  0  0  0  0  0  0  0  0  0
    4.5692    4.0597   25.0916 O   0  0  0  0  0  0  0  0  0  0  0  0
    4.7490    5.0772   27.5367 C   0  0  0  0  0  0  0  0  0  0  0  0
    6.0634    5.1076   28.0420 C   0  0  0  0  0  0  0  0  0  0  0  0
    6.3033    4.9417   29.4068 C   0  0  0  0  0  0  0  0  0  0  0  0
    5.2329    4.7533   30.2734 C   0  0  0  0  0  0  0  0  0  0  0  0
    5.5220    4.5442   31.9550 Cl  0  0  0  0  0  0  0  0  0  0  0  0
    3.9281    4.7333   29.7859 C   0  0  0  0  0  0  0  0  0  0  0  0
    3.6760    4.9004   28.4158 C   0  0  0  0  0  0  0  0  0  0  0  0
    2.0171    4.8292   27.9545 Cl  0  0  0  0  0  0  0  0  0  0  0  0
    6.0508   11.7141   26.3441 O   0  0  0  0  0  0  0  0  0  0  0  0
    6.3417   12.5805   25.3174 C   0  0  0  0  0  0  0  0  0  0  0  0
    6.9294   13.7856   25.6700 C   0  0  0  0  0  0  0  0  0  0  0  0
    7.2894   14.7495   24.7884 N   0  0  0  0  0  0  0  0  0  0  0  0
    7.0725   14.5172   23.4847 C   0  0  0  0  0  0  0  0  0  0  0  0
    7.4296   15.4839   22.5523 C   0  0  0  0  0  0  0  0  0  0  0  0
    7.2296   15.2892   21.1831 C   0  0  0  0  0  0  0  0  0  0  0  0
    6.6628   14.1039   20.7419 C   0  0  0  0  0  0  0  0  0  0  0  0
    6.4682   13.9099   19.4316 F   0  0  0  0  0  0  0  0  0  0  0  0
    6.2930   13.1142   21.6430 C   0  0  0  0  0  0  0  0  0  0  0  0
    6.4927   13.3138   23.0191 C   0  0  0  0  0  0  0  0  0  0  0  0
    6.1315   12.3396   23.9631 C   0  0  0  0  0  0  0  0  0  0  0  0
 11 12  2  0
 12 13  2  0
 12  9  1  0
  9  1  1  0
  1  2  2  0
  2  3  1  0
  3  4  1  0
  3  5  2  0
  5 22  1  0
 22 23  1  0
 23 24  2  0
 24 25  1  0
 25 26  2  0
 26 27  1  0
 27 28  2  0
 28 29  1  0
 29 30  1  0
 29 31  2  0
 31 32  1  0
 32 33  2  0
  5  6  1  0
  6  7  1  0
  6  8  2  0
 12 14  1  0
 14 15  2  0
 15 16  1  0
 16 17  2  0
 17 18  1  0
 17 19  1  0
 19 20  2  0
 20 21  1  0
  8  1  1  0
 20 14  1  0
 33 23  1  0
 32 26  1  0
  9 10  1  0
M  END
> <minimizedAffinity>
-8.74619

> <CNNscore>
0.7499160767

> <CNNaffinity>
7.8665337563

> <CNN_VS>
5.8992400169

> <CNNaffinity_variance>
0.2589068115

$$$$



 33 36  0  0  0  0  0  0  0  0999 V2000
    4.4858    8.8477   24.2920 C   0  0  0  0  0  0  0  0  0  0  0  0
    5.3882    7.7953   24.4355 C   0  0  0  0  0  0  0  0  0  0  0  0
    4.9700    6.5991   25.0238 C   0  0  0  0  0  0  0  0  0  0  0  0
    6.1432    5.3494   25.2316 Cl  0  0  0  0  0  0  0  0  0  0  0  0
    3.6432    6.4439   25.4453 C   0  0  0  0  0  0  0  0  0  0  0  0
    2.7515    7.5152   25.3155 C   0  0  0  0  0  0  0  0  0  0  0  0
    1.1176    7.3926   25.8573 Cl  0  0  0  0  0  0  0  0  0  0  0  0
    3.1698    8.7126   24.7316 C   0  0  0  0  0  0  0  0  0  0  0  0
    4.9328   10.0686   23.7260 N   0  0  0  0  0  0  0  0  0  0  0  0
    5.0352   10.1459   22.7499 H   0  0  0  0  0  0  0  0  0  0  0  0
    5.9307   12.3505   23.8356 O   0  0  0  0  0  0  0  0  0  0  0  0
    5.2908   11.3911   24.7137 S   0  0  0  0  0  0  0  0  0  0  0  0
    4.1209   11.7660   25.4711 O   0  0  0  0  0  0  0  0  0  0  0  0
    6.5562   10.7614   25.7973 C   0  0  0  0  0  0  0  0  0  0  0  0
    7.5382    9.9393   25.2110 C   0  0  0  0  0  0  0  0  0  0  0  0
    8.5792    9.4177   25.9805 C   0  0  0  0  0  0  0  0  0  0  0  0
    8.6492    9.7210   27.3352 C   0  0  0  0  0  0  0  0  0  0  0  0
    9.9266    9.0783   28.2893 Cl  0  0  0  0  0  0  0  0  0  0  0  0
    7.6898   10.5426   27.9228 C   0  0  0  0  0  0  0  0  0  0  0  0
    6.6401   11.0730   27.1579 C   0  0  0  0  0  0  0  0  0  0  0  0
    5.5157   12.0519   28.0224 Cl  0  0  0  0  0  0  0  0  0  0  0  0
    3.2285    5.2869   26.0625 O   0  0  0  0  0  0  0  0  0  0  0  0
    3.5928    5.0969   27.3742 C   0  0  0  0  0  0  0  0  0  0  0  0
    2.5702    5.1080   28.3102 C   0  0  0  0  0  0  0  0  0  0  0  0
    2.7480    4.9284   29.6414 N   0  0  0  0  0  0  0  0  0  0  0  0
    3.9971    4.7142   30.0823 C   0  0  0  0  0  0  0  0  0  0  0  0
    4.2163    4.5257   31.4416 C   0  0  0  0  0  0  0  0  0  0  0  0
    5.4967    4.2944   31.9512 C   0  0  0  0  0  0  0  0  0  0  0  0
    6.5752    4.2501   31.0819 C   0  0  0  0  0  0  0  0  0  0  0  0
    7.8051    4.0287   31.5625 F   0  0  0  0  0  0  0  0  0  0  0  0
    6.3962    4.4337   29.7171 C   0  0  0  0  0  0  0  0  0  0  0  0
    5.1082    4.6689   29.2080 C   0  0  0  0  0  0  0  0  0  0  0  0
    4.8842    4.8611   27.8356 C   0  0  0  0  0  0  0  0  0  0  0  0
 11 12  2  0
 12 13  2  0
 12  9  1  0
  9  1  1  0
  1  2  2  0
  2  3  1  0
  3  4  1  0
  3  5  2  0
  5 22  1  0
 22 23  1  0
 23 24  2  0
 24 25  1  0
 25 26  2  0
 26 27  1  0
 27 28  2  0
 28 29  1  0
 29 30  1  0
 29 31  2  0
 31 32  1  0
 32 33  2  0
  5  6  1  0
  6  7  1  0
  6  8  2  0
 12 14  1  0
 14 15  2  0
 15 16  1  0
 16 17  2  0
 17 18  1  0
 17 19  1  0
 19 20  2  0
 20 21  1  0
  8  1  1  0
 20 14  1  0
 33 23  1  0
 32 26  1  0
  9 10  1  0
M  END
> <minimizedAffinity>
-7.82182

> <CNNscore>
0.5860989690

> <CNNaffinity>
8.2400999069

> <CNN_VS>
4.8295140266

> <CNNaffinity_variance>
0.2264616042

$$$$



 33 36  0  0  0  0  0  0  0  0999 V2000
    5.6036    7.4984   25.3224 C   0  0  0  0  0  0  0  0  0  0  0  0
    4.3241    7.7314   24.8217 C   0  0  0  0  0  0  0  0  0  0  0  0
    3.9531    9.0238   24.4421 C   0  0  0  0  0  0  0  0  0  0  0  0
    2.3373    9.2679   23.8847 Cl  0  0  0  0  0  0  0  0  0  0  0  0
    4.8686   10.0795   24.5378 C   0  0  0  0  0  0  0  0  0  0  0  0
    6.1438    9.8374   25.0623 C   0  0  0  0  0  0  0  0  0  0  0  0
    7.2959   11.1097   25.2421 Cl  0  0  0  0  0  0  0  0  0  0  0  0
    6.5139    8.5469   25.4459 C   0  0  0  0  0  0  0  0  0  0  0  0
    5.9551    6.1888   25.7374 N   0  0  0  0  0  0  0  0  0  0  0  0
    6.9038    5.9304   25.7880 H   0  0  0  0  0  0  0  0  0  0  0  0
    3.5082    5.7152   25.7992 O   0  0  0  0  0  0  0  0  0  0  0  0
    4.7585    5.0687   26.1454 S   0  0  0  0  0  0  0  0  0  0  0  0
    5.0878    3.7780   25.5902 O   0  0  0  0  0  0  0  0  0  0  0  0
    4.8359    5.0174   27.9240 C   0  0  0  0  0  0  0  0  0  0  0  0
    3.6088    4.9086   28.6067 C   0  0  0  0  0  0  0  0  0  0  0  0
    3.5754    4.8416   30.0004 C   0  0  0  0  0  0  0  0  0  0  0  0
    4.7657    4.8744   30.7174 C   0  0  0  0  0  0  0  0  0  0  0  0
    4.7311    4.7964   32.4343 Cl  0  0  0  0  0  0  0  0  0  0  0  0
    5.9857    4.9701   30.0516 C   0  0  0  0  0  0  0  0  0  0  0  0
    6.0303    5.0367   28.6508 C   0  0  0  0  0  0  0  0  0  0  0  0
    7.6058    5.1765   27.9665 Cl  0  0  0  0  0  0  0  0  0  0  0  0
    4.5041   11.3635   24.2060 O   0  0  0  0  0  0  0  0  0  0  0  0
    4.5563   11.7195   22.8794 C   0  0  0  0  0  0  0  0  0  0  0  0
    3.5179   11.2742   22.0760 C   0  0  0  0  0  0  0  0  0  0  0  0
    3.4060   11.5387   20.7518 N   0  0  0  0  0  0  0  0  0  0  0  0
    4.3591   12.2919   20.1818 C   0  0  0  0  0  0  0  0  0  0  0  0
    4.2761   12.5833   18.8255 C   0  0  0  0  0  0  0  0  0  0  0  0
    5.2395   13.3671   18.1851 C   0  0  0  0  0  0  0  0  0  0  0  0
    6.3035   13.8681   18.9184 C   0  0  0  0  0  0  0  0  0  0  0  0
    7.2306   14.6201   18.3120 F   0  0  0  0  0  0  0  0  0  0  0  0
    6.4208   13.5988   20.2756 C   0  0  0  0  0  0  0  0  0  0  0  0
    5.4523   12.8083   20.9161 C   0  0  0  0  0  0  0  0  0  0  0  0
    5.5344   12.5113   22.2857 C   0  0  0  0  0  0  0  0  0  0  0  0
 11 12  2  0
 12 13  2  0
 12  9  1  0
  9  1  1  0
  1  2  2  0
  2  3  1  0
  3  4  1  0
  3  5  2  0
  5 22  1  0
 22 23  1  0
 23 24  2  0
 24 25  1  0
 25 26  2  0
 26 27  1  0
 27 28  2  0
 28 29  1  0
 29 30  1  0
 29 31  2  0
 31 32  1  0
 32 33  2  0
  5  6  1  0
  6  7  1  0
  6  8  2  0
 12 14  1  0
 14 15  2  0
 15 16  1  0
 16 17  2  0
 17 18  1  0
 17 19  1  0
 19 20  2  0
 20 21  1  0
  8  1  1  0
 20 14  1  0
 33 23  1  0
 32 26  1  0
  9 10  1  0
M  END
> <minimizedAffinity>
-9.10578

> <CNNscore>
0.5744465590

> <CNNaffinity>
7.6226944923

> <CNN_VS>
4.3788304329

> <CNNaffinity_variance>
0.3427716196

$$$$



 33 36  0  0  0  0  0  0  0  0999 V2000
    5.9704    7.7276   25.2450 C   0  0  0  0  0  0  0  0  0  0  0  0
    4.8071    8.4487   24.9829 C   0  0  0  0  0  0  0  0  0  0  0  0
    4.8363    9.8453   25.0105 C   0  0  0  0  0  0  0  0  0  0  0  0
    3.3544   10.6884   24.7377 Cl  0  0  0  0  0  0  0  0  0  0  0  0
    6.0336   10.5228   25.2740 C   0  0  0  0  0  0  0  0  0  0  0  0
    7.1909    9.7876   25.5568 C   0  0  0  0  0  0  0  0  0  0  0  0
    8.6824   10.5715   25.9302 Cl  0  0  0  0  0  0  0  0  0  0  0  0
    7.1615    8.3918   25.5338 C   0  0  0  0  0  0  0  0  0  0  0  0
    5.9186    6.3105   25.2491 N   0  0  0  0  0  0  0  0  0  0  0  0
    5.8617    5.8213   24.3966 H   0  0  0  0  0  0  0  0  0  0  0  0
    6.4994    4.1571   26.3631 O   0  0  0  0  0  0  0  0  0  0  0  0
    5.9535    5.4556   26.7054 S   0  0  0  0  0  0  0  0  0  0  0  0
    6.5770    6.2596   27.7289 O   0  0  0  0  0  0  0  0  0  0  0  0
    4.2292    5.2075   27.0754 C   0  0  0  0  0  0  0  0  0  0  0  0
    3.3249    5.3654   26.0071 C   0  0  0  0  0  0  0  0  0  0  0  0
    1.9565    5.1707   26.2008 C   0  0  0  0  0  0  0  0  0  0  0  0
    1.4862    4.8097   27.4580 C   0  0  0  0  0  0  0  0  0  0  0  0
   -0.1984    4.5724   27.7041 Cl  0  0  0  0  0  0  0  0  0  0  0  0
    2.3732    4.6395   28.5188 C   0  0  0  0  0  0  0  0  0  0  0  0
    3.7507    4.8315   28.3344 C   0  0  0  0  0  0  0  0  0  0  0  0
    4.7234    4.6096   29.7395 Cl  0  0  0  0  0  0  0  0  0  0  0  0
    6.0681   11.8959   25.3441 O   0  0  0  0  0  0  0  0  0  0  0  0
    6.1757   12.4692   26.5888 C   0  0  0  0  0  0  0  0  0  0  0  0
    6.4345   13.8307   26.6247 C   0  0  0  0  0  0  0  0  0  0  0  0
    6.5624   14.5567   27.7616 N   0  0  0  0  0  0  0  0  0  0  0  0
    6.4179   13.9165   28.9320 C   0  0  0  0  0  0  0  0  0  0  0  0
    6.5424   14.6298   30.1181 C   0  0  0  0  0  0  0  0  0  0  0  0
    6.3961   14.0116   31.3627 C   0  0  0  0  0  0  0  0  0  0  0  0
    6.1189   12.6548   31.4180 C   0  0  0  0  0  0  0  0  0  0  0  0
    5.9770   12.0553   32.6067 F   0  0  0  0  0  0  0  0  0  0  0  0
    5.9870   11.9083   30.2545 C   0  0  0  0  0  0  0  0  0  0  0  0
    6.1374   12.5319   29.0048 C   0  0  0  0  0  0  0  0  0  0  0  0
    6.0135   11.8133   27.8052 C   0  0  0  0  0  0  0  0  0  0  0  0
 11 12  2  0
 12 13  2  0
 12  9  1  0
  9  1  1  0
  1  2  2  0
  2  3  1  0
  3  4  1  0
  3  5  2  0
  5 22  1  0
 22 23  1  0
 23 24  2  0
 24 25  1  0
 25 26  2  0
 26 27  1  0
 27 28  2  0
 28 29  1  0
 29 30  1  0
 29 31  2  0
 31 32  1  0
 32 33  2  0
  5  6  1  0
  6  7  1  0
  6  8  2  0
 12 14  1  0
 14 15  2  0
 15 16  1  0
 16 17  2  0
 17 18  1  0
 17 19  1  0
 19 20  2  0
 20 21  1  0
  8  1  1  0
 20 14  1  0
 33 23  1  0
 32 26  1  0
  9 10  1  0
M  END
> <minimizedAffinity>
-8.35072

> <CNNscore>
0.5471185446

> <CNNaffinity>
7.8876781464

> <CNN_VS>
4.3154950142

> <CNNaffinity_variance>
0.1169918776

$$$$



 33 36  0  0  0  0  0  0  0  0999 V2000
    5.5171    7.6924   25.3989 C   0  0  0  0  0  0  0  0  0  0  0  0
    6.1095    8.9366   25.6068 C   0  0  0  0  0  0  0  0  0  0  0  0
    5.4577   10.0951   25.1764 C   0  0  0  0  0  0  0  0  0  0  0  0
    6.2627   11.6054   25.4049 Cl  0  0  0  0  0  0  0  0  0  0  0  0
    4.2018   10.0134   24.5617 C   0  0  0  0  0  0  0  0  0  0  0  0
    3.6265    8.7567   24.3391 C   0  0  0  0  0  0  0  0  0  0  0  0
    2.1012    8.5962   23.5478 Cl  0  0  0  0  0  0  0  0  0  0  0  0
    4.2792    7.5982   24.7649 C   0  0  0  0  0  0  0  0  0  0  0  0
    6.2058    6.5224   25.8084 N   0  0  0  0  0  0  0  0  0  0  0  0
    7.1758    6.5588   25.9727 H   0  0  0  0  0  0  0  0  0  0  0  0
    4.0632    5.3009   25.4448 O   0  0  0  0  0  0  0  0  0  0  0  0
    5.3745    5.0669   26.0165 S   0  0  0  0  0  0  0  0  0  0  0  0
    6.1865    3.9694   25.5485 O   0  0  0  0  0  0  0  0  0  0  0  0
    5.1564    4.9692   27.7813 C   0  0  0  0  0  0  0  0  0  0  0  0
    6.3200    5.0729   28.5682 C   0  0  0  0  0  0  0  0  0  0  0  0
    6.2415    5.0270   29.9609 C   0  0  0  0  0  0  0  0  0  0  0  0
    5.0019    4.8860   30.5738 C   0  0  0  0  0  0  0  0  0  0  0  0
    4.8989    4.8246   32.2886 Cl  0  0  0  0  0  0  0  0  0  0  0  0
    3.8435    4.7944   29.8053 C   0  0  0  0  0  0  0  0  0  0  0  0
    3.9113    4.8408   28.4047 C   0  0  0  0  0  0  0  0  0  0  0  0
    2.4025    4.6920   27.5854 Cl  0  0  0  0  0  0  0  0  0  0  0  0
    3.5675   11.1418   24.0969 O   0  0  0  0  0  0  0  0  0  0  0  0
    3.7868   11.5048   22.7894 C   0  0  0  0  0  0  0  0  0  0  0  0
    2.7782   11.2086   21.8856 C   0  0  0  0  0  0  0  0  0  0  0  0
    2.8234   11.5022   20.5636 N   0  0  0  0  0  0  0  0  0  0  0  0
    3.9136   12.1323   20.0998 C   0  0  0  0  0  0  0  0  0  0  0  0
    3.9938   12.4492   18.7491 C   0  0  0  0  0  0  0  0  0  0  0  0
    5.1046   13.1090   18.2169 C   0  0  0  0  0  0  0  0  0  0  0  0
    6.1522   13.4580   19.0546 C   0  0  0  0  0  0  0  0  0  0  0  0
    7.2199   14.0906   18.5523 F   0  0  0  0  0  0  0  0  0  0  0  0
    6.1086   13.1586   20.4099 C   0  0  0  0  0  0  0  0  0  0  0  0
    4.9919   12.4926   20.9415 C   0  0  0  0  0  0  0  0  0  0  0  0
    4.9089   12.1701   22.3053 C   0  0  0  0  0  0  0  0  0  0  0  0
 11 12  2  0
 12 13  2  0
 12  9  1  0
  9  1  1  0
  1  2  2  0
  2  3  1  0
  3  4  1  0
  3  5  2  0
  5 22  1  0
 22 23  1  0
 23 24  2  0
 24 25  1  0
 25 26  2  0
 26 27  1  0
 27 28  2  0
 28 29  1  0
 29 30  1  0
 29 31  2  0
 31 32  1  0
 32 33  2  0
  5  6  1  0
  6  7  1  0
  6  8  2  0
 12 14  1  0
 14 15  2  0
 15 16  1  0
 16 17  2  0
 17 18  1  0
 17 19  1  0
 19 20  2  0
 20 21  1  0
  8  1  1  0
 20 14  1  0
 33 23  1  0
 32 26  1  0
  9 10  1  0
M  END
> <minimizedAffinity>
-9.82739

> <CNNscore>
0.4646639824

> <CNNaffinity>
7.5787444115

> <CNN_VS>
3.5215694904

> <CNNaffinity_variance>
0.5012657642

$$$$
