


 14 14  0  0  0  0  0  0  0  0999 V2000
   32.9931   69.4164   18.6042 C   0  0  0  0  0  0  0  0  0  0  0  0
   33.9007   68.8516   17.4928 C   0  0  0  0  0  0  0  0  0  0  0  0
   32.8929   68.4319   16.3830 C   0  0  0  0  0  0  0  0  0  0  0  0
   32.6407   69.4669   15.3715 N   0  0  0  0  0  0  0  0  0  0  0  0
   31.6016   68.0787   17.1498 C   0  0  0  0  0  0  0  0  0  0  0  0
   31.9141   68.3147   18.6332 C   0  0  0  0  0  0  0  0  0  0  0  0
   32.2567   70.2971   15.8230 H   0  0  0  0  0  0  0  0  0  0  0  0
   31.9746   69.1151   14.6838 H   0  0  0  0  0  0  0  0  0  0  0  0
   32.3339   71.5905   19.3296 C   0  0  0  0  0  0  0  0  0  0  0  0
   32.3842   70.6690   18.2495 O   0  0  0  0  0  0  0  0  0  0  0  0
   34.9228   69.7664   17.1076 O   0  0  0  0  0  0  0  0  0  0  0  0
   35.9321   69.9253   18.0957 C   0  0  0  0  0  0  0  0  0  0  0  0
   30.7136   68.6231   19.3344 O   0  0  0  0  0  0  0  0  0  0  0  0
   29.5476   68.5100   18.5323 C   0  0  0  0  0  0  0  0  0  0  0  0
  9 10  1  0
  1 10  1  0
  1  2  1  0
  2 11  1  0
 11 12  1  0
  2  3  1  0
  3  4  1  0
  3  5  1  0
  5  6  1  0
  6 13  1  0
 13 14  1  0
  6  1  1  0
  4  7  1  0
  4  8  1  0
M  END
> <minimizedAffinity>
-2.20199

> <CNNscore>
0.3898866773

> <CNNaffinity>
2.8242223263

> <CNN_VS>
1.1011266708

> <CNNaffinity_variance>
0.6229984760

$$$$



 14 14  0  0  0  0  0  0  0  0999 V2000
   24.4663   65.3484   16.8663 C   0  0  0  0  0  0  0  0  0  0  0  0
   25.1561   65.4651   15.4920 C   0  0  0  0  0  0  0  0  0  0  0  0
   26.6484   65.1568   15.8105 C   0  0  0  0  0  0  0  0  0  0  0  0
   27.0221   63.7450   15.6521 N   0  0  0  0  0  0  0  0  0  0  0  0
   26.8336   65.6196   17.2706 C   0  0  0  0  0  0  0  0  0  0  0  0
   25.4673   66.1531   17.7203 C   0  0  0  0  0  0  0  0  0  0  0  0
   26.4596   63.1718   16.2809 H   0  0  0  0  0  0  0  0  0  0  0  0
   28.0100   63.6275   15.8771 H   0  0  0  0  0  0  0  0  0  0  0  0
   23.0878   63.5780   17.6744 C   0  0  0  0  0  0  0  0  0  0  0  0
   24.4063   63.9969   17.3515 O   0  0  0  0  0  0  0  0  0  0  0  0
   24.5378   64.6486   14.5017 O   0  0  0  0  0  0  0  0  0  0  0  0
   23.2285   65.0819   14.1579 C   0  0  0  0  0  0  0  0  0  0  0  0
   25.3415   66.0231   19.1329 O   0  0  0  0  0  0  0  0  0  0  0  0
   26.4260   66.5934   19.8500 C   0  0  0  0  0  0  0  0  0  0  0  0
  9 10  1  0
  1 10  1  0
  1  2  1  0
  2 11  1  0
 11 12  1  0
  2  3  1  0
  3  4  1  0
  3  5  1  0
  5  6  1  0
  6 13  1  0
 13 14  1  0
  6  1  1  0
  4  7  1  0
  4  8  1  0
M  END
> <minimizedAffinity>
-3.81010

> <CNNscore>
0.3393433094

> <CNNaffinity>
3.5052063465

> <CNN_VS>
1.1894682646

> <CNNaffinity_variance>
0.0579765402

$$$$



 14 14  0  0  0  0  0  0  0  0999 V2000
   27.4774   66.0430    9.3152 C   0  0  0  0  0  0  0  0  0  0  0  0
   28.9303   66.1690    8.8142 C   0  0  0  0  0  0  0  0  0  0  0  0
   29.7409   65.3293    9.8444 C   0  0  0  0  0  0  0  0  0  0  0  0
   29.9427   63.9267    9.4572 N   0  0  0  0  0  0  0  0  0  0  0  0
   28.9264   65.4328   11.1507 C   0  0  0  0  0  0  0  0  0  0  0  0
   27.7055   66.3005   10.8187 C   0  0  0  0  0  0  0  0  0  0  0  0
   29.0371   63.4702    9.3488 H   0  0  0  0  0  0  0  0  0  0  0  0
   30.4802   63.4484   10.1802 H   0  0  0  0  0  0  0  0  0  0  0  0
   25.6417   64.7295    8.5455 C   0  0  0  0  0  0  0  0  0  0  0  0
   26.9338   64.7247    9.1359 O   0  0  0  0  0  0  0  0  0  0  0  0
   29.0681   65.7976    7.4456 O   0  0  0  0  0  0  0  0  0  0  0  0
   30.1936   66.3943    6.8152 C   0  0  0  0  0  0  0  0  0  0  0  0
   26.6281   65.9675   11.6884 O   0  0  0  0  0  0  0  0  0  0  0  0
   26.9721   64.9970   12.6657 C   0  0  0  0  0  0  0  0  0  0  0  0
  9 10  1  0
  1 10  1  0
  1  2  1  0
  2 11  1  0
 11 12  1  0
  2  3  1  0
  3  4  1  0
  3  5  1  0
  5  6  1  0
  6 13  1  0
 13 14  1  0
  6  1  1  0
  4  7  1  0
  4  8  1  0
M  END
> <minimizedAffinity>
-4.61313

> <CNNscore>
0.3213009834

> <CNNaffinity>
3.5430088043

> <CNN_VS>
1.1383721828

> <CNNaffinity_variance>
0.7042257786

$$$$



 14 14  0  0  0  0  0  0  0  0999 V2000
   34.2852   71.1620   16.1511 C   0  0  0  0  0  0  0  0  0  0  0  0
   33.2747   70.2624   15.4112 C   0  0  0  0  0  0  0  0  0  0  0  0
   33.5302   70.5913   13.9112 C   0  0  0  0  0  0  0  0  0  0  0  0
   34.4965   69.7024   13.2525 N   0  0  0  0  0  0  0  0  0  0  0  0
   34.0326   72.0501   13.9176 C   0  0  0  0  0  0  0  0  0  0  0  0
   34.0524   72.4827   15.3893 C   0  0  0  0  0  0  0  0  0  0  0  0
   35.3965   69.7664   13.7282 H   0  0  0  0  0  0  0  0  0  0  0  0
   34.6064   69.9821   12.2778 H   0  0  0  0  0  0  0  0  0  0  0  0
   36.2588   70.2968   17.1727 C   0  0  0  0  0  0  0  0  0  0  0  0
   35.6479   70.7428   15.9702 O   0  0  0  0  0  0  0  0  0  0  0  0
   33.3877   68.8929   15.7877 O   0  0  0  0  0  0  0  0  0  0  0  0
   32.8321   68.6173   17.0666 C   0  0  0  0  0  0  0  0  0  0  0  0
   35.0286   73.5024   15.5777 O   0  0  0  0  0  0  0  0  0  0  0  0
   34.5210   74.8127   15.3753 C   0  0  0  0  0  0  0  0  0  0  0  0
  9 10  1  0
  1 10  1  0
  1  2  1  0
  2 11  1  0
 11 12  1  0
  2  3  1  0
  3  4  1  0
  3  5  1  0
  5  6  1  0
  6 13  1  0
 13 14  1  0
  6  1  1  0
  4  7  1  0
  4  8  1  0
M  END
> <minimizedAffinity>
-3.52191

> <CNNscore>
0.2225810140

> <CNNaffinity>
2.4802591801

> <CNN_VS>
0.5520585775

> <CNNaffinity_variance>
1.4017156363

$$$$



 14 14  0  0  0  0  0  0  0  0999 V2000
   26.1192   64.2090   11.4375 C   0  0  0  0  0  0  0  0  0  0  0  0
   26.8492   63.7354   12.7106 C   0  0  0  0  0  0  0  0  0  0  0  0
   28.1695   63.1202   12.1612 C   0  0  0  0  0  0  0  0  0  0  0  0
   29.2981   64.0589   12.1071 N   0  0  0  0  0  0  0  0  0  0  0  0
   27.8004   62.6142   10.7512 C   0  0  0  0  0  0  0  0  0  0  0  0
   26.3192   62.9616   10.5529 C   0  0  0  0  0  0  0  0  0  0  0  0
   29.0599   64.8424   11.4991 H   0  0  0  0  0  0  0  0  0  0  0  0
   30.1206   63.5808   11.7392 H   0  0  0  0  0  0  0  0  0  0  0  0
   25.8667   66.4320   10.6114 C   0  0  0  0  0  0  0  0  0  0  0  0
   26.7517   65.3396   10.8151 O   0  0  0  0  0  0  0  0  0  0  0  0
   26.9877   64.7736   13.6765 O   0  0  0  0  0  0  0  0  0  0  0  0
   27.0239   64.2920   15.0133 C   0  0  0  0  0  0  0  0  0  0  0  0
   26.0441   63.1196    9.1646 O   0  0  0  0  0  0  0  0  0  0  0  0
   24.6588   63.2290    8.8736 C   0  0  0  0  0  0  0  0  0  0  0  0
  9 10  1  0
  1 10  1  0
  1  2  1  0
  2 11  1  0
 11 12  1  0
  2  3  1  0
  3  4  1  0
  3  5  1  0
  5  6  1  0
  6 13  1  0
 13 14  1  0
  6  1  1  0
  4  7  1  0
  4  8  1  0
M  END
> <minimizedAffinity>
-4.28941

> <CNNscore>
0.1977344751

> <CNNaffinity>
2.8365962505

> <CNN_VS>
0.5608928800

> <CNNaffinity_variance>
0.8076074719

$$$$



 14 14  0  0  0  0  0  0  0  0999 V2000
   26.5718   64.7214   10.1969 C   0  0  0  0  0  0  0  0  0  0  0  0
   27.3890   65.1684   11.4259 C   0  0  0  0  0  0  0  0  0  0  0  0
   28.5883   64.1761   11.4415 C   0  0  0  0  0  0  0  0  0  0  0  0
   29.7796   64.6551   10.7279 N   0  0  0  0  0  0  0  0  0  0  0  0
   28.0326   62.8909   10.7937 C   0  0  0  0  0  0  0  0  0  0  0  0
   26.5731   63.1974   10.4336 C   0  0  0  0  0  0  0  0  0  0  0  0
   29.5454   64.8226    9.7494 H   0  0  0  0  0  0  0  0  0  0  0  0
   30.5162   63.9519   10.7856 H   0  0  0  0  0  0  0  0  0  0  0  0
   26.4916   65.9010    8.1257 C   0  0  0  0  0  0  0  0  0  0  0  0
   27.2280   65.0096    8.9511 O   0  0  0  0  0  0  0  0  0  0  0  0
   27.7142   66.5550   11.3881 O   0  0  0  0  0  0  0  0  0  0  0  0
   29.0560   66.8037   10.9907 C   0  0  0  0  0  0  0  0  0  0  0  0
   26.1682   62.3861    9.3354 O   0  0  0  0  0  0  0  0  0  0  0  0
   24.8539   61.8672    9.4725 C   0  0  0  0  0  0  0  0  0  0  0  0
  9 10  1  0
  1 10  1  0
  1  2  1  0
  2 11  1  0
 11 12  1  0
  2  3  1  0
  3  4  1  0
  3  5  1  0
  5  6  1  0
  6 13  1  0
 13 14  1  0
  6  1  1  0
  4  7  1  0
  4  8  1  0
M  END
> <minimizedAffinity>
-4.84466

> <CNNscore>
0.1853435785

> <CNNaffinity>
2.8967025280

> <CNN_VS>
0.5368852019

> <CNNaffinity_variance>
0.8063187599

$$$$



 14 14  0  0  0  0  0  0  0  0999 V2000
   27.9623   64.8397   11.7486 C   0  0  0  0  0  0  0  0  0  0  0  0
   27.7809   64.6948   10.2241 C   0  0  0  0  0  0  0  0  0  0  0  0
   29.0818   65.3237    9.6449 C   0  0  0  0  0  0  0  0  0  0  0  0
   30.1645   64.3607    9.4038 N   0  0  0  0  0  0  0  0  0  0  0  0
   29.4989   66.3772   10.6921 C   0  0  0  0  0  0  0  0  0  0  0  0
   28.4477   66.3025   11.8071 C   0  0  0  0  0  0  0  0  0  0  0  0
   30.4187   63.9081   10.2819 H   0  0  0  0  0  0  0  0  0  0  0  0
   30.9762   64.8492    9.0257 H   0  0  0  0  0  0  0  0  0  0  0  0
   28.4763   62.9826   13.1538 C   0  0  0  0  0  0  0  0  0  0  0  0
   28.9842   63.9782   12.2769 O   0  0  0  0  0  0  0  0  0  0  0  0
   27.4977   63.3538    9.8348 O   0  0  0  0  0  0  0  0  0  0  0  0
   26.1775   62.9432   10.1645 C   0  0  0  0  0  0  0  0  0  0  0  0
   29.0216   66.7299   13.0384 O   0  0  0  0  0  0  0  0  0  0  0  0
   29.5325   68.0537   12.9925 C   0  0  0  0  0  0  0  0  0  0  0  0
  9 10  1  0
  1 10  1  0
  1  2  1  0
  2 11  1  0
 11 12  1  0
  2  3  1  0
  3  4  1  0
  3  5  1  0
  5  6  1  0
  6 13  1  0
 13 14  1  0
  6  1  1  0
  4  7  1  0
  4  8  1  0
M  END
> <minimizedAffinity>
-4.33532

> <CNNscore>
0.1795876324

> <CNNaffinity>
2.8458225727

> <CNN_VS>
0.5110745430

> <CNNaffinity_variance>
1.1060138941

$$$$



 14 14  0  0  0  0  0  0  0  0999 V2000
   26.3341   64.6145   11.9878 C   0  0  0  0  0  0  0  0  0  0  0  0
   27.5066   65.5280   12.3987 C   0  0  0  0  0  0  0  0  0  0  0  0
   28.4003   64.5975   13.2698 C   0  0  0  0  0  0  0  0  0  0  0  0
   29.4629   63.9085   12.5255 N   0  0  0  0  0  0  0  0  0  0  0  0
   27.4131   63.5876   13.8910 C   0  0  0  0  0  0  0  0  0  0  0  0
   26.0272   63.9678   13.3539 C   0  0  0  0  0  0  0  0  0  0  0  0
   29.0464   63.3256   11.7994 H   0  0  0  0  0  0  0  0  0  0  0  0
   30.0008   63.3231   13.1644 H   0  0  0  0  0  0  0  0  0  0  0  0
   25.9588   63.6176    9.8541 C   0  0  0  0  0  0  0  0  0  0  0  0
   26.7192   63.5923   11.0538 O   0  0  0  0  0  0  0  0  0  0  0  0
   28.1356   66.1432   11.2781 O   0  0  0  0  0  0  0  0  0  0  0  0
   28.6845   67.4198   11.5765 C   0  0  0  0  0  0  0  0  0  0  0  0
   25.1867   62.8183   13.3354 O   0  0  0  0  0  0  0  0  0  0  0  0
   23.8252   63.1200   13.0696 C   0  0  0  0  0  0  0  0  0  0  0  0
  9 10  1  0
  1 10  1  0
  1  2  1  0
  2 11  1  0
 11 12  1  0
  2  3  1  0
  3  4  1  0
  3  5  1  0
  5  6  1  0
  6 13  1  0
 13 14  1  0
  6  1  1  0
  4  7  1  0
  4  8  1  0
M  END
> <minimizedAffinity>
-3.98108

> <CNNscore>
0.1789793521

> <CNNaffinity>
2.7354440689

> <CNN_VS>
0.4895879924

> <CNNaffinity_variance>
0.7825577259

$$$$



 14 14  0  0  0  0  0  0  0  0999 V2000
   27.1900   66.2980   11.9329 C   0  0  0  0  0  0  0  0  0  0  0  0
   27.9023   65.0923   12.5785 C   0  0  0  0  0  0  0  0  0  0  0  0
   28.4316   64.2887   11.3548 C   0  0  0  0  0  0  0  0  0  0  0  0
   29.8039   64.6281   10.9555 N   0  0  0  0  0  0  0  0  0  0  0  0
   27.4303   64.6054   10.2245 C   0  0  0  0  0  0  0  0  0  0  0  0
   26.3975   65.5634   10.8324 C   0  0  0  0  0  0  0  0  0  0  0  0
   29.8508   65.6157   10.7051 H   0  0  0  0  0  0  0  0  0  0  0  0
   30.0745   64.0605   10.1523 H   0  0  0  0  0  0  0  0  0  0  0  0
   27.9017   68.5670   11.7524 C   0  0  0  0  0  0  0  0  0  0  0  0
   28.1006   67.2276   11.3228 O   0  0  0  0  0  0  0  0  0  0  0  0
   28.8719   65.4867   13.5450 O   0  0  0  0  0  0  0  0  0  0  0  0
   28.2951   66.0113   14.7334 C   0  0  0  0  0  0  0  0  0  0  0  0
   25.8347   66.3768    9.8078 O   0  0  0  0  0  0  0  0  0  0  0  0
   26.2131   65.9769    8.4992 C   0  0  0  0  0  0  0  0  0  0  0  0
  9 10  1  0
  1 10  1  0
  1  2  1  0
  2 11  1  0
 11 12  1  0
  2  3  1  0
  3  4  1  0
  3  5  1  0
  5  6  1  0
  6 13  1  0
 13 14  1  0
  6  1  1  0
  4  7  1  0
  4  8  1  0
M  END
> <minimizedAffinity>
-3.33744

> <CNNscore>
0.1687614769

> <CNNaffinity>
2.5626454353

> <CNN_VS>
0.4324758351

> <CNNaffinity_variance>
1.0420290232

$$$$
