


 23 26  0  0  0  0  0  0  0  0999 V2000
    3.0529   66.1260   64.1392 C   0  0  0  0  0  0  0  0  0  0  0  0
    3.8691   66.5991   63.1777 C   0  0  0  0  0  0  0  0  0  0  0  0
    3.8778   68.0477   62.7379 C   0  0  0  0  0  0  0  0  0  0  0  0
    5.0345   68.8120   63.3986 C   0  0  0  0  0  0  0  0  0  0  0  0
    4.7760   69.1821   64.8427 C   0  0  0  0  0  0  0  0  0  0  0  0
    5.8518   69.6523   65.5172 N   0  0  0  0  0  0  0  0  0  0  0  0
    5.7024   70.0443   66.7877 C   0  0  0  0  0  0  0  0  0  0  0  0
    6.8197   70.5452   67.4383 C   0  0  0  0  0  0  0  0  0  0  0  0
    6.7500   70.9974   68.7523 C   0  0  0  0  0  0  0  0  0  0  0  0
    8.1582   71.6154   69.5237 Cl  0  0  0  0  0  0  0  0  0  0  0  0
    5.5481   70.9579   69.4427 C   0  0  0  0  0  0  0  0  0  0  0  0
    4.4135   70.4542   68.8070 C   0  0  0  0  0  0  0  0  0  0  0  0
    4.4689   69.9811   67.4717 C   0  0  0  0  0  0  0  0  0  0  0  0
    3.3601   69.4418   66.7663 C   0  0  0  0  0  0  0  0  0  0  0  0
    2.0561   69.4440   67.3276 N   0  0  0  0  0  0  0  0  0  0  0  0
    3.5017   69.0900   65.4116 C   0  0  0  0  0  0  0  0  0  0  0  0
    2.3282   68.5485   64.6025 C   0  0  0  0  0  0  0  0  0  0  0  0
    2.1007   67.0443   64.8862 C   0  0  0  0  0  0  0  0  0  0  0  0
    2.5639   68.7441   63.1003 C   0  0  0  0  0  0  0  0  0  0  0  0
    1.9276   69.6861   68.2732 H   0  0  0  0  0  0  0  0  0  0  0  0
    1.2803   69.2034   66.7713 H   0  0  0  0  0  0  0  0  0  0  0  0
    4.3815   63.9825   64.2061 C   0  0  0  0  0  0  0  0  0  0  0  0
    3.0740   64.6762   64.5600 C   0  0  0  0  0  0  0  0  0  0  0  0
 22 23  1  0
 23  1  1  0
  1  2  2  0
  2  3  1  0
  3  4  1  0
  4  5  1  0
  5  6  2  0
  6  7  1  0
  7  8  2  0
  8  9  1  0
  9 10  1  0
  9 11  2  0
 11 12  1  0
 12 13  2  0
 13 14  1  0
 14 15  1  0
 14 16  2  0
 16 17  1  0
 17 18  1  0
 17 19  1  0
 18  1  1  0
 19  3  1  0
 16  5  1  0
 13  7  1  0
 15 20  1  0
 15 21  1  0
M  END
> <minimizedAffinity>
-12.01178

> <CNNscore>
0.9798982739

> <CNNaffinity>
7.9892783165

> <CNN_VS>
7.8286800385

> <CNNaffinity_variance>
0.4085377157

$$$$



 23 26  0  0  0  0  0  0  0  0999 V2000
    3.1548   58.2578   74.5664 C   0  0  0  0  0  0  0  0  0  0  0  0
    3.2758   59.1020   73.5237 C   0  0  0  0  0  0  0  0  0  0  0  0
    2.4535   58.9784   72.2585 C   0  0  0  0  0  0  0  0  0  0  0  0
    1.2744   59.9623   72.2754 C   0  0  0  0  0  0  0  0  0  0  0  0
    0.1210   59.5186   73.1484 C   0  0  0  0  0  0  0  0  0  0  0  0
   -0.8309   60.4569   73.3641 N   0  0  0  0  0  0  0  0  0  0  0  0
   -1.9082   60.1356   74.0895 C   0  0  0  0  0  0  0  0  0  0  0  0
   -2.8749   61.1136   74.2673 C   0  0  0  0  0  0  0  0  0  0  0  0
   -4.0379   60.8593   74.9875 C   0  0  0  0  0  0  0  0  0  0  0  0
   -5.2154   62.0983   75.1826 Cl  0  0  0  0  0  0  0  0  0  0  0  0
   -4.2559   59.6085   75.5449 C   0  0  0  0  0  0  0  0  0  0  0  0
   -3.2939   58.6122   75.3804 C   0  0  0  0  0  0  0  0  0  0  0  0
   -2.0993   58.8570   74.6573 C   0  0  0  0  0  0  0  0  0  0  0  0
   -1.0702   57.8975   74.4620 C   0  0  0  0  0  0  0  0  0  0  0  0
   -1.2222   56.5536   74.8937 N   0  0  0  0  0  0  0  0  0  0  0  0
    0.0311   58.2147   73.6461 C   0  0  0  0  0  0  0  0  0  0  0  0
    1.1377   57.2019   73.3727 C   0  0  0  0  0  0  0  0  0  0  0  0
    2.1352   57.1317   74.5539 C   0  0  0  0  0  0  0  0  0  0  0  0
    1.9022   57.5602   72.0931 C   0  0  0  0  0  0  0  0  0  0  0  0
   -1.9836   56.3033   75.4654 H   0  0  0  0  0  0  0  0  0  0  0  0
   -0.5662   55.8719   74.6213 H   0  0  0  0  0  0  0  0  0  0  0  0
    4.4324   57.0768   76.3931 C   0  0  0  0  0  0  0  0  0  0  0  0
    3.9853   58.4128   75.8176 C   0  0  0  0  0  0  0  0  0  0  0  0
 22 23  1  0
 23  1  1  0
  1  2  2  0
  2  3  1  0
  3  4  1  0
  4  5  1  0
  5  6  2  0
  6  7  1  0
  7  8  2  0
  8  9  1  0
  9 10  1  0
  9 11  2  0
 11 12  1  0
 12 13  2  0
 13 14  1  0
 14 15  1  0
 14 16  2  0
 16 17  1  0
 17 18  1  0
 17 19  1  0
 18  1  1  0
 19  3  1  0
 16  5  1  0
 13  7  1  0
 15 20  1  0
 15 21  1  0
M  END
> <minimizedAffinity>
-6.40990

> <CNNscore>
0.7005208731

> <CNNaffinity>
5.5317177773

> <CNN_VS>
3.8750836849

> <CNNaffinity_variance>
0.1676033586

$$$$



 23 26  0  0  0  0  0  0  0  0999 V2000
    6.5450   70.5822   69.7711 C   0  0  0  0  0  0  0  0  0  0  0  0
    5.2570   70.4479   70.1417 C   0  0  0  0  0  0  0  0  0  0  0  0
    4.1100   71.1046   69.4032 C   0  0  0  0  0  0  0  0  0  0  0  0
    3.4230   70.1045   68.4617 C   0  0  0  0  0  0  0  0  0  0  0  0
    4.1874   69.8462   67.1819 C   0  0  0  0  0  0  0  0  0  0  0  0
    3.7304   68.8113   66.4380 N   0  0  0  0  0  0  0  0  0  0  0  0
    4.3212   68.5400   65.2687 C   0  0  0  0  0  0  0  0  0  0  0  0
    3.8094   67.4900   64.5216 C   0  0  0  0  0  0  0  0  0  0  0  0
    4.3471   67.1532   63.2833 C   0  0  0  0  0  0  0  0  0  0  0  0
    3.6815   65.8457   62.3849 Cl  0  0  0  0  0  0  0  0  0  0  0  0
    5.4149   67.8708   62.7660 C   0  0  0  0  0  0  0  0  0  0  0  0
    5.9463   68.9284   63.5037 C   0  0  0  0  0  0  0  0  0  0  0  0
    5.4164   69.2792   64.7709 C   0  0  0  0  0  0  0  0  0  0  0  0
    5.9147   70.3321   65.5840 C   0  0  0  0  0  0  0  0  0  0  0  0
    6.9348   71.2037   65.1201 N   0  0  0  0  0  0  0  0  0  0  0  0
    5.2537   70.6582   66.7823 C   0  0  0  0  0  0  0  0  0  0  0  0
    5.7263   71.8082   67.6650 C   0  0  0  0  0  0  0  0  0  0  0  0
    6.9307   71.3832   68.5391 C   0  0  0  0  0  0  0  0  0  0  0  0
    4.5950   72.2978   68.5764 C   0  0  0  0  0  0  0  0  0  0  0  0
    7.4139   71.0000   64.2846 H   0  0  0  0  0  0  0  0  0  0  0  0
    7.1631   72.0118   65.6340 H   0  0  0  0  0  0  0  0  0  0  0  0
    7.4351   69.8955   72.0294 C   0  0  0  0  0  0  0  0  0  0  0  0
    7.6657   69.9079   70.5252 C   0  0  0  0  0  0  0  0  0  0  0  0
 22 23  1  0
 23  1  1  0
  1  2  2  0
  2  3  1  0
  3  4  1  0
  4  5  1  0
  5  6  2  0
  6  7  1  0
  7  8  2  0
  8  9  1  0
  9 10  1  0
  9 11  2  0
 11 12  1  0
 12 13  2  0
 13 14  1  0
 14 15  1  0
 14 16  2  0
 16 17  1  0
 17 18  1  0
 17 19  1  0
 18  1  1  0
 19  3  1  0
 16  5  1  0
 13  7  1  0
 15 20  1  0
 15 21  1  0
M  END
> <minimizedAffinity>
-1.63508

> <CNNscore>
0.6983861923

> <CNNaffinity>
7.3238072395

> <CNN_VS>
5.1148457527

> <CNNaffinity_variance>
0.5781347752

$$$$



 23 26  0  0  0  0  0  0  0  0999 V2000
    6.1844   79.0878   66.7450 C   0  0  0  0  0  0  0  0  0  0  0  0
    6.4037   80.3405   66.3009 C   0  0  0  0  0  0  0  0  0  0  0  0
    7.5623   81.1945   66.7704 C   0  0  0  0  0  0  0  0  0  0  0  0
    8.7096   81.1670   65.7499 C   0  0  0  0  0  0  0  0  0  0  0  0
    9.5371   79.9011   65.7952 C   0  0  0  0  0  0  0  0  0  0  0  0
   10.4072   79.7459   64.7695 N   0  0  0  0  0  0  0  0  0  0  0  0
   11.2095   78.6754   64.7535 C   0  0  0  0  0  0  0  0  0  0  0  0
   12.1061   78.5633   63.7018 C   0  0  0  0  0  0  0  0  0  0  0  0
   12.9937   77.4950   63.6181 C   0  0  0  0  0  0  0  0  0  0  0  0
   14.0935   77.3936   62.2990 Cl  0  0  0  0  0  0  0  0  0  0  0  0
   13.0003   76.5129   64.5970 C   0  0  0  0  0  0  0  0  0  0  0  0
   12.1037   76.6057   65.6612 C   0  0  0  0  0  0  0  0  0  0  0  0
   11.1867   77.6826   65.7573 C   0  0  0  0  0  0  0  0  0  0  0  0
   10.2363   77.8347   66.8020 C   0  0  0  0  0  0  0  0  0  0  0  0
   10.2149   76.9533   67.9148 N   0  0  0  0  0  0  0  0  0  0  0  0
    9.4379   78.9919   66.8532 C   0  0  0  0  0  0  0  0  0  0  0  0
    8.4355   79.2187   67.9796 C   0  0  0  0  0  0  0  0  0  0  0  0
    7.1294   78.4258   67.7333 C   0  0  0  0  0  0  0  0  0  0  0  0
    8.0980   80.7076   68.1189 C   0  0  0  0  0  0  0  0  0  0  0  0
   10.7638   76.1360   67.9060 H   0  0  0  0  0  0  0  0  0  0  0  0
    9.6513   77.1594   68.6952 H   0  0  0  0  0  0  0  0  0  0  0  0
    4.0021   77.9724   67.3426 C   0  0  0  0  0  0  0  0  0  0  0  0
    5.0231   78.2592   66.2511 C   0  0  0  0  0  0  0  0  0  0  0  0
 22 23  1  0
 23  1  1  0
  1  2  2  0
  2  3  1  0
  3  4  1  0
  4  5  1  0
  5  6  2  0
  6  7  1  0
  7  8  2  0
  8  9  1  0
  9 10  1  0
  9 11  2  0
 11 12  1  0
 12 13  2  0
 13 14  1  0
 14 15  1  0
 14 16  2  0
 16 17  1  0
 17 18  1  0
 17 19  1  0
 18  1  1  0
 19  3  1  0
 16  5  1  0
 13  7  1  0
 15 20  1  0
 15 21  1  0
M  END
> <minimizedAffinity>
32.91848

> <CNNscore>
0.5703886747

> <CNNaffinity>
5.8946003914

> <CNN_VS>
3.3622133732

> <CNNaffinity_variance>
0.3233313262

$$$$



 23 26  0  0  0  0  0  0  0  0999 V2000
    8.3068   78.3936   67.3603 C   0  0  0  0  0  0  0  0  0  0  0  0
    8.0224   79.2624   68.3496 C   0  0  0  0  0  0  0  0  0  0  0  0
    7.9226   80.7577   68.1352 C   0  0  0  0  0  0  0  0  0  0  0  0
    6.4558   81.1944   68.0075 C   0  0  0  0  0  0  0  0  0  0  0  0
    5.8438   80.8922   66.6572 C   0  0  0  0  0  0  0  0  0  0  0  0
    4.5018   81.0557   66.5845 N   0  0  0  0  0  0  0  0  0  0  0  0
    3.8841   80.8521   65.4153 C   0  0  0  0  0  0  0  0  0  0  0  0
    2.5131   81.0548   65.3720 C   0  0  0  0  0  0  0  0  0  0  0  0
    1.7938   80.8890   64.1925 C   0  0  0  0  0  0  0  0  0  0  0  0
    0.0940   81.1536   64.1788 Cl  0  0  0  0  0  0  0  0  0  0  0  0
    2.4419   80.5164   63.0247 C   0  0  0  0  0  0  0  0  0  0  0  0
    3.8202   80.3042   63.0483 C   0  0  0  0  0  0  0  0  0  0  0  0
    4.5669   80.4600   64.2433 C   0  0  0  0  0  0  0  0  0  0  0  0
    5.9675   80.2468   64.3462 C   0  0  0  0  0  0  0  0  0  0  0  0
    6.7576   79.9647   63.2008 N   0  0  0  0  0  0  0  0  0  0  0  0
    6.6261   80.5230   65.5583 C   0  0  0  0  0  0  0  0  0  0  0  0
    8.1343   80.3508   65.7024 C   0  0  0  0  0  0  0  0  0  0  0  0
    8.5079   78.8664   65.9306 C   0  0  0  0  0  0  0  0  0  0  0  0
    8.6703   81.1866   66.8705 C   0  0  0  0  0  0  0  0  0  0  0  0
    6.3232   79.7679   62.3395 H   0  0  0  0  0  0  0  0  0  0  0  0
    7.7398   79.9659   63.2679 H   0  0  0  0  0  0  0  0  0  0  0  0
    7.2190   76.3790   68.4195 C   0  0  0  0  0  0  0  0  0  0  0  0
    8.3920   76.9064   67.6058 C   0  0  0  0  0  0  0  0  0  0  0  0
 22 23  1  0
 23  1  1  0
  1  2  2  0
  2  3  1  0
  3  4  1  0
  4  5  1  0
  5  6  2  0
  6  7  1  0
  7  8  2  0
  8  9  1  0
  9 10  1  0
  9 11  2  0
 11 12  1  0
 12 13  2  0
 13 14  1  0
 14 15  1  0
 14 16  2  0
 16 17  1  0
 17 18  1  0
 17 19  1  0
 18  1  1  0
 19  3  1  0
 16  5  1  0
 13  7  1  0
 15 20  1  0
 15 21  1  0
M  END
> <minimizedAffinity>
13.37165

> <CNNscore>
0.5591728091

> <CNNaffinity>
5.6584458351

> <CNN_VS>
3.1640491486

> <CNNaffinity_variance>
0.2529221177

$$$$



 23 26  0  0  0  0  0  0  0  0999 V2000
    3.9743   63.4328   67.0069 C   0  0  0  0  0  0  0  0  0  0  0  0
    4.7662   62.7461   66.1609 C   0  0  0  0  0  0  0  0  0  0  0  0
    4.4146   62.5062   64.7080 C   0  0  0  0  0  0  0  0  0  0  0  0
    5.1498   63.5002   63.7970 C   0  0  0  0  0  0  0  0  0  0  0  0
    4.5400   64.8848   63.7858 C   0  0  0  0  0  0  0  0  0  0  0  0
    5.2859   65.8367   63.1770 N   0  0  0  0  0  0  0  0  0  0  0  0
    4.8024   67.0807   63.0833 C   0  0  0  0  0  0  0  0  0  0  0  0
    5.5822   68.0228   62.4299 C   0  0  0  0  0  0  0  0  0  0  0  0
    5.1473   69.3343   62.2659 C   0  0  0  0  0  0  0  0  0  0  0  0
    6.1427   70.4730   61.4459 Cl  0  0  0  0  0  0  0  0  0  0  0  0
    3.9112   69.7277   62.7558 C   0  0  0  0  0  0  0  0  0  0  0  0
    3.1134   68.7958   63.4193 C   0  0  0  0  0  0  0  0  0  0  0  0
    3.5449   67.4579   63.6029 C   0  0  0  0  0  0  0  0  0  0  0  0
    2.7943   66.4599   64.2801 C   0  0  0  0  0  0  0  0  0  0  0  0
    1.4728   66.7109   64.7341 N   0  0  0  0  0  0  0  0  0  0  0  0
    3.2734   65.1378   64.3222 C   0  0  0  0  0  0  0  0  0  0  0  0
    2.4813   64.0249   64.9997 C   0  0  0  0  0  0  0  0  0  0  0  0
    2.6726   64.0579   66.5351 C   0  0  0  0  0  0  0  0  0  0  0  0
    2.9092   62.6507   64.4718 C   0  0  0  0  0  0  0  0  0  0  0  0
    1.1117   67.6266   64.7159 H   0  0  0  0  0  0  0  0  0  0  0  0
    0.9175   65.9693   65.0670 H   0  0  0  0  0  0  0  0  0  0  0  0
    3.2766   63.2096   69.4209 C   0  0  0  0  0  0  0  0  0  0  0  0
    4.3576   63.6608   68.4493 C   0  0  0  0  0  0  0  0  0  0  0  0
 22 23  1  0
 23  1  1  0
  1  2  2  0
  2  3  1  0
  3  4  1  0
  4  5  1  0
  5  6  2  0
  6  7  1  0
  7  8  2  0
  8  9  1  0
  9 10  1  0
  9 11  2  0
 11 12  1  0
 12 13  2  0
 13 14  1  0
 14 15  1  0
 14 16  2  0
 16 17  1  0
 17 18  1  0
 17 19  1  0
 18  1  1  0
 19  3  1  0
 16  5  1  0
 13  7  1  0
 15 20  1  0
 15 21  1  0
M  END
> <minimizedAffinity>
8.54136

> <CNNscore>
0.4624139667

> <CNNaffinity>
6.1202750206

> <CNN_VS>
2.8301005363

> <CNNaffinity_variance>
0.2625680268

$$$$



 23 26  0  0  0  0  0  0  0  0999 V2000
   13.3311   74.5851   64.0686 C   0  0  0  0  0  0  0  0  0  0  0  0
   13.1186   74.1317   65.3190 C   0  0  0  0  0  0  0  0  0  0  0  0
   13.4189   74.9481   66.5581 C   0  0  0  0  0  0  0  0  0  0  0  0
   12.1392   75.5930   67.1105 C   0  0  0  0  0  0  0  0  0  0  0  0
   11.6857   76.8111   66.3361 C   0  0  0  0  0  0  0  0  0  0  0  0
   10.4508   77.2669   66.6530 N   0  0  0  0  0  0  0  0  0  0  0  0
    9.9880   78.3663   66.0470 C   0  0  0  0  0  0  0  0  0  0  0  0
    8.7305   78.8191   66.4160 C   0  0  0  0  0  0  0  0  0  0  0  0
    8.1811   79.9675   65.8543 C   0  0  0  0  0  0  0  0  0  0  0  0
    6.6191   80.4990   66.3413 Cl  0  0  0  0  0  0  0  0  0  0  0  0
    8.8897   80.6902   64.9065 C   0  0  0  0  0  0  0  0  0  0  0  0
   10.1549   80.2492   64.5193 C   0  0  0  0  0  0  0  0  0  0  0  0
   10.7258   79.0765   65.0749 C   0  0  0  0  0  0  0  0  0  0  0  0
   12.0001   78.5596   64.7186 C   0  0  0  0  0  0  0  0  0  0  0  0
   12.8631   79.2646   63.8391 N   0  0  0  0  0  0  0  0  0  0  0  0
   12.5131   77.4417   65.4015 C   0  0  0  0  0  0  0  0  0  0  0  0
   13.8941   76.8790   65.0834 C   0  0  0  0  0  0  0  0  0  0  0  0
   13.8567   75.9883   63.8183 C   0  0  0  0  0  0  0  0  0  0  0  0
   14.4324   76.0554   66.2590 C   0  0  0  0  0  0  0  0  0  0  0  0
   12.5307   80.0506   63.3483 H   0  0  0  0  0  0  0  0  0  0  0  0
   13.7941   78.9675   63.7199 H   0  0  0  0  0  0  0  0  0  0  0  0
   14.2463   73.0722   62.2694 C   0  0  0  0  0  0  0  0  0  0  0  0
   13.0139   73.7481   62.8528 C   0  0  0  0  0  0  0  0  0  0  0  0
 22 23  1  0
 23  1  1  0
  1  2  2  0
  2  3  1  0
  3  4  1  0
  4  5  1  0
  5  6  2  0
  6  7  1  0
  7  8  2  0
  8  9  1  0
  9 10  1  0
  9 11  2  0
 11 12  1  0
 12 13  2  0
 13 14  1  0
 14 15  1  0
 14 16  2  0
 16 17  1  0
 17 18  1  0
 17 19  1  0
 18  1  1  0
 19  3  1  0
 16  5  1  0
 13  7  1  0
 15 20  1  0
 15 21  1  0
M  END
> <minimizedAffinity>
43.39037

> <CNNscore>
0.4463343024

> <CNNaffinity>
5.3772492409

> <CNN_VS>
2.4000508785

> <CNNaffinity_variance>
0.1572721004

$$$$



 23 26  0  0  0  0  0  0  0  0999 V2000
    4.5081   63.3945   63.4108 C   0  0  0  0  0  0  0  0  0  0  0  0
    3.8390   63.3071   64.5766 C   0  0  0  0  0  0  0  0  0  0  0  0
    3.8565   64.3989   65.6253 C   0  0  0  0  0  0  0  0  0  0  0  0
    2.5884   65.2609   65.5372 C   0  0  0  0  0  0  0  0  0  0  0  0
    2.6064   66.2594   64.4006 C   0  0  0  0  0  0  0  0  0  0  0  0
    1.4248   66.8737   64.1563 N   0  0  0  0  0  0  0  0  0  0  0  0
    1.3615   67.8037   63.1965 C   0  0  0  0  0  0  0  0  0  0  0  0
    0.1417   68.4306   62.9923 C   0  0  0  0  0  0  0  0  0  0  0  0
   -0.0087   69.4259   62.0316 C   0  0  0  0  0  0  0  0  0  0  0  0
   -1.5380   70.1825   61.8111 Cl  0  0  0  0  0  0  0  0  0  0  0  0
    1.0708   69.8157   61.2536 C   0  0  0  0  0  0  0  0  0  0  0  0
    2.3054   69.1947   61.4411 C   0  0  0  0  0  0  0  0  0  0  0  0
    2.4740   68.1728   62.4092 C   0  0  0  0  0  0  0  0  0  0  0  0
    3.6951   67.4865   62.6452 C   0  0  0  0  0  0  0  0  0  0  0  0
    4.8944   67.8659   61.9870 N   0  0  0  0  0  0  0  0  0  0  0  0
    3.7780   66.5555   63.6966 C   0  0  0  0  0  0  0  0  0  0  0  0
    5.0793   65.8272   64.0148 C   0  0  0  0  0  0  0  0  0  0  0  0
    5.3039   64.6375   63.0507 C   0  0  0  0  0  0  0  0  0  0  0  0
    5.0761   65.3082   65.4573 C   0  0  0  0  0  0  0  0  0  0  0  0
    4.8660   68.5156   61.2478 H   0  0  0  0  0  0  0  0  0  0  0  0
    5.7546   67.4793   62.2697 H   0  0  0  0  0  0  0  0  0  0  0  0
    5.7999   61.5765   62.2319 C   0  0  0  0  0  0  0  0  0  0  0  0
    4.4643   62.2903   62.3822 C   0  0  0  0  0  0  0  0  0  0  0  0
 22 23  1  0
 23  1  1  0
  1  2  2  0
  2  3  1  0
  3  4  1  0
  4  5  1  0
  5  6  2  0
  6  7  1  0
  7  8  2  0
  8  9  1  0
  9 10  1  0
  9 11  2  0
 11 12  1  0
 12 13  2  0
 13 14  1  0
 14 15  1  0
 14 16  2  0
 16 17  1  0
 17 18  1  0
 17 19  1  0
 18  1  1  0
 19  3  1  0
 16  5  1  0
 13  7  1  0
 15 20  1  0
 15 21  1  0
M  END
> <minimizedAffinity>
0.06855

> <CNNscore>
0.4421636164

> <CNNaffinity>
6.1038455963

> <CNN_VS>
2.6988985538

> <CNNaffinity_variance>
0.1274561435

$$$$



 23 26  0  0  0  0  0  0  0  0999 V2000
   -0.0201   69.0094   63.6698 C   0  0  0  0  0  0  0  0  0  0  0  0
   -0.6151   68.9135   64.8744 C   0  0  0  0  0  0  0  0  0  0  0  0
   -0.1852   67.9208   65.9336 C   0  0  0  0  0  0  0  0  0  0  0  0
    0.7077   68.5964   66.9848 C   0  0  0  0  0  0  0  0  0  0  0  0
    2.1308   68.8223   66.5233 C   0  0  0  0  0  0  0  0  0  0  0  0
    2.8787   69.6109   67.3307 N   0  0  0  0  0  0  0  0  0  0  0  0
    4.1620   69.8279   67.0205 C   0  0  0  0  0  0  0  0  0  0  0  0
    4.9042   70.6186   67.8845 C   0  0  0  0  0  0  0  0  0  0  0  0
    6.2515   70.8771   67.6521 C   0  0  0  0  0  0  0  0  0  0  0  0
    7.1391   71.8603   68.7498 Cl  0  0  0  0  0  0  0  0  0  0  0  0
    6.8851   70.3406   66.5415 C   0  0  0  0  0  0  0  0  0  0  0  0
    6.1549   69.5454   65.6584 C   0  0  0  0  0  0  0  0  0  0  0  0
    4.7794   69.2794   65.8753 C   0  0  0  0  0  0  0  0  0  0  0  0
    3.9699   68.4928   65.0128 C   0  0  0  0  0  0  0  0  0  0  0  0
    4.5258   67.8054   63.9020 N   0  0  0  0  0  0  0  0  0  0  0  0
    2.6391   68.2119   65.3722 C   0  0  0  0  0  0  0  0  0  0  0  0
    1.7464   67.3363   64.4997 C   0  0  0  0  0  0  0  0  0  0  0  0
    1.1706   68.1381   63.3078 C   0  0  0  0  0  0  0  0  0  0  0  0
    0.5876   66.7527   65.3163 C   0  0  0  0  0  0  0  0  0  0  0  0
    5.4548   67.9823   63.6283 H   0  0  0  0  0  0  0  0  0  0  0  0
    3.9824   67.1516   63.4055 H   0  0  0  0  0  0  0  0  0  0  0  0
    0.2736   69.8703   61.3168 C   0  0  0  0  0  0  0  0  0  0  0  0
   -0.4685   70.0157   62.6375 C   0  0  0  0  0  0  0  0  0  0  0  0
 22 23  1  0
 23  1  1  0
  1  2  2  0
  2  3  1  0
  3  4  1  0
  4  5  1  0
  5  6  2  0
  6  7  1  0
  7  8  2  0
  8  9  1  0
  9 10  1  0
  9 11  2  0
 11 12  1  0
 12 13  2  0
 13 14  1  0
 14 15  1  0
 14 16  2  0
 16 17  1  0
 17 18  1  0
 17 19  1  0
 18  1  1  0
 19  3  1  0
 16  5  1  0
 13  7  1  0
 15 20  1  0
 15 21  1  0
M  END
> <minimizedAffinity>
-8.61910

> <CNNscore>
0.3819606602

> <CNNaffinity>
7.0575919151

> <CNN_VS>
2.6957225800

> <CNNaffinity_variance>
0.4883580208

$$$$
