


 28 29  0  0  0  0  0  0  0  0999 V2000
   18.4597   51.4238   36.2714 C   0  0  0  0  0  0  0  0  0  0  0  0
   19.7999   51.2646   36.9991 C   0  0  0  0  0  0  0  0  0  0  0  0
   21.0221   51.7635   36.2215 C   0  0  0  0  0  0  0  0  0  0  0  0
   22.4177   49.3307   35.7782 O   0  0  0  0  0  0  0  0  0  0  0  0
   21.7525   50.5293   35.1946 P   0  0  0  0  0  0  0  0  0  0  0  0
   22.6486   51.2570   34.0843 O   0  0  0  0  0  0  0  0  0  0  0  0
   20.5550   50.0427   34.2315 O   0  0  0  0  0  0  0  0  0  0  0  0
   23.0576   50.5901   33.5108 H   0  0  0  0  0  0  0  0  0  0  0  0
   20.8825   49.3557   33.6301 H   0  0  0  0  0  0  0  0  0  0  0  0
   22.4150   52.1725   37.2422 S   0  0  0  0  0  0  0  0  0  0  0  0
   22.0833   53.1515   38.2496 O   0  0  0  0  0  0  0  0  0  0  0  0
   23.6281   52.2557   36.4617 O   0  0  0  0  0  0  0  0  0  0  0  0
   22.5394   50.7683   38.0356 O   0  0  0  0  0  0  0  0  0  0  0  0
   21.7530   50.6385   38.5885 H   0  0  0  0  0  0  0  0  0  0  0  0
   17.3599   52.0057   37.1661 C   0  0  0  0  0  0  0  0  0  0  0  0
   17.1822   53.4871   36.9409 C   0  0  0  0  0  0  0  0  0  0  0  0
   17.7123   54.1032   35.7979 C   0  0  0  0  0  0  0  0  0  0  0  0
   17.5517   55.4748   35.5911 C   0  0  0  0  0  0  0  0  0  0  0  0
   16.8517   56.2443   36.5193 C   0  0  0  0  0  0  0  0  0  0  0  0
   16.2977   55.6342   37.6461 C   0  0  0  0  0  0  0  0  0  0  0  0
   16.4766   54.2672   37.8667 C   0  0  0  0  0  0  0  0  0  0  0  0
   15.6244   56.3401   38.6173 O   0  0  0  0  0  0  0  0  0  0  0  0
   14.5566   57.1095   38.2136 C   0  0  0  0  0  0  0  0  0  0  0  0
   14.3037   58.2722   38.9422 C   0  0  0  0  0  0  0  0  0  0  0  0
   13.2166   59.0801   38.6074 C   0  0  0  0  0  0  0  0  0  0  0  0
   12.3754   58.7161   37.5554 C   0  0  0  0  0  0  0  0  0  0  0  0
   12.6155   57.5411   36.8417 C   0  0  0  0  0  0  0  0  0  0  0  0
   13.7022   56.7311   37.1746 C   0  0  0  0  0  0  0  0  0  0  0  0
  4  5  2  0
  5  6  1  0
  5  7  1  0
  5  3  1  0
  3  2  1  0
  2  1  1  0
  1 15  1  0
 15 16  1  0
 16 17  2  0
 17 18  1  0
 18 19  2  0
 19 20  1  0
 20 22  1  0
 22 23  1  0
 23 24  2  0
 24 25  1  0
 25 26  2  0
 26 27  1  0
 27 28  2  0
 20 21  2  0
  3 10  1  0
 10 11  2  0
 10 12  2  0
 10 13  1  0
 21 16  1  0
 28 23  1  0
  6  8  1  0
  7  9  1  0
 13 14  1  0
M  END
> <minimizedAffinity>
-8.32809

> <CNNscore>
0.6984086633

> <CNNaffinity>
5.9539456367

> <CNN_VS>
4.1582870483

> <CNNaffinity_variance>
0.1547562033

$$$$



 28 29  0  0  0  0  0  0  0  0999 V2000
   16.7040   54.3995   38.0927 C   0  0  0  0  0  0  0  0  0  0  0  0
   17.1165   53.3904   37.0144 C   0  0  0  0  0  0  0  0  0  0  0  0
   18.6182   53.0948   36.9448 C   0  0  0  0  0  0  0  0  0  0  0  0
   20.4186   50.9116   37.1777 O   0  0  0  0  0  0  0  0  0  0  0  0
   19.0179   51.4094   37.2775 P   0  0  0  0  0  0  0  0  0  0  0  0
   17.9713   50.4763   36.5033 O   0  0  0  0  0  0  0  0  0  0  0  0
   18.4801   51.1533   38.7754 O   0  0  0  0  0  0  0  0  0  0  0  0
   18.1786   49.5448   36.6769 H   0  0  0  0  0  0  0  0  0  0  0  0
   18.6657   50.2368   39.0333 H   0  0  0  0  0  0  0  0  0  0  0  0
   19.5743   53.8894   38.2112 S   0  0  0  0  0  0  0  0  0  0  0  0
   19.1206   53.5404   39.5361 O   0  0  0  0  0  0  0  0  0  0  0  0
   19.8990   55.2489   37.8449 O   0  0  0  0  0  0  0  0  0  0  0  0
   20.9553   53.0730   38.0035 O   0  0  0  0  0  0  0  0  0  0  0  0
   20.8171   52.1405   38.2318 H   0  0  0  0  0  0  0  0  0  0  0  0
   15.4919   55.2449   37.6869 C   0  0  0  0  0  0  0  0  0  0  0  0
   15.0422   56.1505   38.8069 C   0  0  0  0  0  0  0  0  0  0  0  0
   14.9856   55.6785   40.1264 C   0  0  0  0  0  0  0  0  0  0  0  0
   14.5656   56.5150   41.1626 C   0  0  0  0  0  0  0  0  0  0  0  0
   14.2064   57.8349   40.8934 C   0  0  0  0  0  0  0  0  0  0  0  0
   14.2857   58.3204   39.5870 C   0  0  0  0  0  0  0  0  0  0  0  0
   14.6833   57.4796   38.5458 C   0  0  0  0  0  0  0  0  0  0  0  0
   13.9147   59.6018   39.2472 O   0  0  0  0  0  0  0  0  0  0  0  0
   12.6665   59.7723   38.6922 C   0  0  0  0  0  0  0  0  0  0  0  0
   12.5452   59.5331   37.3230 C   0  0  0  0  0  0  0  0  0  0  0  0
   11.3157   59.7197   36.6905 C   0  0  0  0  0  0  0  0  0  0  0  0
   10.2139   60.1601   37.4247 C   0  0  0  0  0  0  0  0  0  0  0  0
   10.3414   60.4211   38.7896 C   0  0  0  0  0  0  0  0  0  0  0  0
   11.5703   60.2353   39.4247 C   0  0  0  0  0  0  0  0  0  0  0  0
  4  5  2  0
  5  6  1  0
  5  7  1  0
  5  3  1  0
  3  2  1  0
  2  1  1  0
  1 15  1  0
 15 16  1  0
 16 17  2  0
 17 18  1  0
 18 19  2  0
 19 20  1  0
 20 22  1  0
 22 23  1  0
 23 24  2  0
 24 25  1  0
 25 26  2  0
 26 27  1  0
 27 28  2  0
 20 21  2  0
  3 10  1  0
 10 11  2  0
 10 12  2  0
 10 13  1  0
 21 16  1  0
 28 23  1  0
  6  8  1  0
  7  9  1  0
 13 14  1  0
M  END
> <minimizedAffinity>
-9.79834

> <CNNscore>
0.6772077680

> <CNNaffinity>
5.9157166481

> <CNN_VS>
4.0061693192

> <CNNaffinity_variance>
0.0587631576

$$$$



 28 29  0  0  0  0  0  0  0  0999 V2000
   16.7586   52.5927   39.0657 C   0  0  0  0  0  0  0  0  0  0  0  0
   17.2903   51.8392   37.8407 C   0  0  0  0  0  0  0  0  0  0  0  0
   18.2855   52.6236   36.9796 C   0  0  0  0  0  0  0  0  0  0  0  0
   20.5665   51.0021   37.4593 O   0  0  0  0  0  0  0  0  0  0  0  0
   19.6763   51.6676   36.4671 P   0  0  0  0  0  0  0  0  0  0  0  0
   20.4881   52.5009   35.3662 O   0  0  0  0  0  0  0  0  0  0  0  0
   19.0585   50.5461   35.4878 O   0  0  0  0  0  0  0  0  0  0  0  0
   21.2573   51.9871   35.0742 H   0  0  0  0  0  0  0  0  0  0  0  0
   19.7707   49.9743   35.1611 H   0  0  0  0  0  0  0  0  0  0  0  0
   19.1178   53.9325   37.8418 S   0  0  0  0  0  0  0  0  0  0  0  0
   20.2440   53.4517   38.6058 O   0  0  0  0  0  0  0  0  0  0  0  0
   18.1747   54.8845   38.3821 O   0  0  0  0  0  0  0  0  0  0  0  0
   19.7596   54.6813   36.5596 O   0  0  0  0  0  0  0  0  0  0  0  0
   20.4106   54.0991   36.1375 H   0  0  0  0  0  0  0  0  0  0  0  0
   15.2602   52.3715   39.2988 C   0  0  0  0  0  0  0  0  0  0  0  0
   14.6181   53.5599   39.9713 C   0  0  0  0  0  0  0  0  0  0  0  0
   13.5805   53.3805   40.8975 C   0  0  0  0  0  0  0  0  0  0  0  0
   12.9831   54.4802   41.5170 C   0  0  0  0  0  0  0  0  0  0  0  0
   13.4222   55.7707   41.2248 C   0  0  0  0  0  0  0  0  0  0  0  0
   14.4726   55.9566   40.3242 C   0  0  0  0  0  0  0  0  0  0  0  0
   15.0560   54.8602   39.6864 C   0  0  0  0  0  0  0  0  0  0  0  0
   14.9320   57.2039   39.9663 O   0  0  0  0  0  0  0  0  0  0  0  0
   14.0761   58.0117   39.2523 C   0  0  0  0  0  0  0  0  0  0  0  0
   13.7759   59.2580   39.8030 C   0  0  0  0  0  0  0  0  0  0  0  0
   12.8888   60.1126   39.1478 C   0  0  0  0  0  0  0  0  0  0  0  0
   12.2914   59.7134   37.9517 C   0  0  0  0  0  0  0  0  0  0  0  0
   12.5744   58.4575   37.4131 C   0  0  0  0  0  0  0  0  0  0  0  0
   13.4614   57.6007   38.0665 C   0  0  0  0  0  0  0  0  0  0  0  0
  4  5  2  0
  5  6  1  0
  5  7  1  0
  5  3  1  0
  3  2  1  0
  2  1  1  0
  1 15  1  0
 15 16  1  0
 16 17  2  0
 17 18  1  0
 18 19  2  0
 19 20  1  0
 20 22  1  0
 22 23  1  0
 23 24  2  0
 24 25  1  0
 25 26  2  0
 26 27  1  0
 27 28  2  0
 20 21  2  0
  3 10  1  0
 10 11  2  0
 10 12  2  0
 10 13  1  0
 21 16  1  0
 28 23  1  0
  6  8  1  0
  7  9  1  0
 13 14  1  0
M  END
> <minimizedAffinity>
-9.14813

> <CNNscore>
0.6645650864

> <CNNaffinity>
5.9717736244

> <CNN_VS>
3.9686322212

> <CNNaffinity_variance>
0.0295148790

$$$$



 28 29  0  0  0  0  0  0  0  0999 V2000
   19.0665   52.1330   35.7275 C   0  0  0  0  0  0  0  0  0  0  0  0
   20.5139   52.1361   35.2215 C   0  0  0  0  0  0  0  0  0  0  0  0
   21.1527   50.7509   35.0779 C   0  0  0  0  0  0  0  0  0  0  0  0
   23.9038   50.0483   35.0848 O   0  0  0  0  0  0  0  0  0  0  0  0
   22.7480   50.6331   35.8209 P   0  0  0  0  0  0  0  0  0  0  0  0
   22.5793   50.0264   37.2936 O   0  0  0  0  0  0  0  0  0  0  0  0
   23.1113   52.1459   36.2428 O   0  0  0  0  0  0  0  0  0  0  0  0
   23.4498   49.9554   37.7157 H   0  0  0  0  0  0  0  0  0  0  0  0
   23.9853   52.1632   36.6633 H   0  0  0  0  0  0  0  0  0  0  0  0
   21.5617   50.3093   33.4085 S   0  0  0  0  0  0  0  0  0  0  0  0
   21.9827   48.9333   33.2966 O   0  0  0  0  0  0  0  0  0  0  0  0
   22.2621   51.3825   32.7410 O   0  0  0  0  0  0  0  0  0  0  0  0
   20.0689   50.3514   32.7868 O   0  0  0  0  0  0  0  0  0  0  0  0
   19.5310   49.6521   33.1898 H   0  0  0  0  0  0  0  0  0  0  0  0
   18.8991   52.8667   37.0625 C   0  0  0  0  0  0  0  0  0  0  0  0
   18.2778   54.2291   36.8770 C   0  0  0  0  0  0  0  0  0  0  0  0
   19.0254   55.2864   36.3383 C   0  0  0  0  0  0  0  0  0  0  0  0
   18.4522   56.5486   36.1703 C   0  0  0  0  0  0  0  0  0  0  0  0
   17.1228   56.7659   36.5300 C   0  0  0  0  0  0  0  0  0  0  0  0
   16.3637   55.7119   37.0418 C   0  0  0  0  0  0  0  0  0  0  0  0
   16.9413   54.4552   37.2321 C   0  0  0  0  0  0  0  0  0  0  0  0
   15.0573   55.8662   37.4474 O   0  0  0  0  0  0  0  0  0  0  0  0
   14.8422   56.4249   38.6870 C   0  0  0  0  0  0  0  0  0  0  0  0
   14.9413   55.5753   39.7893 C   0  0  0  0  0  0  0  0  0  0  0  0
   14.7020   56.0694   41.0720 C   0  0  0  0  0  0  0  0  0  0  0  0
   14.3487   57.4076   41.2488 C   0  0  0  0  0  0  0  0  0  0  0  0
   14.2273   58.2513   40.1439 C   0  0  0  0  0  0  0  0  0  0  0  0
   14.4662   57.7596   38.8597 C   0  0  0  0  0  0  0  0  0  0  0  0
  4  5  2  0
  5  6  1  0
  5  7  1  0
  5  3  1  0
  3  2  1  0
  2  1  1  0
  1 15  1  0
 15 16  1  0
 16 17  2  0
 17 18  1  0
 18 19  2  0
 19 20  1  0
 20 22  1  0
 22 23  1  0
 23 24  2  0
 24 25  1  0
 25 26  2  0
 26 27  1  0
 27 28  2  0
 20 21  2  0
  3 10  1  0
 10 11  2  0
 10 12  2  0
 10 13  1  0
 21 16  1  0
 28 23  1  0
  6  8  1  0
  7  9  1  0
 13 14  1  0
M  END
> <minimizedAffinity>
-8.99141

> <CNNscore>
0.5982660055

> <CNNaffinity>
5.8971772194

> <CNN_VS>
3.5280807018

> <CNNaffinity_variance>
0.0062550288

$$$$



 28 29  0  0  0  0  0  0  0  0999 V2000
   15.9616   53.9416   38.2297 C   0  0  0  0  0  0  0  0  0  0  0  0
   16.9244   53.2767   37.2387 C   0  0  0  0  0  0  0  0  0  0  0  0
   18.2803   52.8718   37.8258 C   0  0  0  0  0  0  0  0  0  0  0  0
   19.5321   55.3024   37.0592 O   0  0  0  0  0  0  0  0  0  0  0  0
   19.6281   53.8224   37.2006 P   0  0  0  0  0  0  0  0  0  0  0  0
   20.1843   53.1079   35.8793 O   0  0  0  0  0  0  0  0  0  0  0  0
   20.8599   53.4719   38.1795 O   0  0  0  0  0  0  0  0  0  0  0  0
   20.9272   53.6199   35.5232 H   0  0  0  0  0  0  0  0  0  0  0  0
   21.6474   53.9624   37.8966 H   0  0  0  0  0  0  0  0  0  0  0  0
   18.8155   51.2445   37.3625 S   0  0  0  0  0  0  0  0  0  0  0  0
   20.2195   51.0373   37.6255 O   0  0  0  0  0  0  0  0  0  0  0  0
   18.1962   50.8230   36.1270 O   0  0  0  0  0  0  0  0  0  0  0  0
   18.0381   50.4109   38.5103 O   0  0  0  0  0  0  0  0  0  0  0  0
   18.4012   50.6417   39.3797 H   0  0  0  0  0  0  0  0  0  0  0  0
   15.4315   55.2911   37.7332 C   0  0  0  0  0  0  0  0  0  0  0  0
   15.0195   56.1845   38.8772 C   0  0  0  0  0  0  0  0  0  0  0  0
   15.0051   55.6980   40.1924 C   0  0  0  0  0  0  0  0  0  0  0  0
   14.6199   56.5232   41.2510 C   0  0  0  0  0  0  0  0  0  0  0  0
   14.2537   57.8463   41.0082 C   0  0  0  0  0  0  0  0  0  0  0  0
   14.2910   58.3463   39.7053 C   0  0  0  0  0  0  0  0  0  0  0  0
   14.6537   57.5167   38.6425 C   0  0  0  0  0  0  0  0  0  0  0  0
   13.9106   59.6316   39.3920 O   0  0  0  0  0  0  0  0  0  0  0  0
   12.7422   59.7895   38.6814 C   0  0  0  0  0  0  0  0  0  0  0  0
   11.6307   60.2520   39.3867 C   0  0  0  0  0  0  0  0  0  0  0  0
   10.4065   60.4024   38.7346 C   0  0  0  0  0  0  0  0  0  0  0  0
   10.2917   60.0753   37.3831 C   0  0  0  0  0  0  0  0  0  0  0  0
   11.3981   59.5910   36.6838 C   0  0  0  0  0  0  0  0  0  0  0  0
   12.6239   59.4397   37.3337 C   0  0  0  0  0  0  0  0  0  0  0  0
  4  5  2  0
  5  6  1  0
  5  7  1  0
  5  3  1  0
  3  2  1  0
  2  1  1  0
  1 15  1  0
 15 16  1  0
 16 17  2  0
 17 18  1  0
 18 19  2  0
 19 20  1  0
 20 22  1  0
 22 23  1  0
 23 24  2  0
 24 25  1  0
 25 26  2  0
 26 27  1  0
 27 28  2  0
 20 21  2  0
  3 10  1  0
 10 11  2  0
 10 12  2  0
 10 13  1  0
 21 16  1  0
 28 23  1  0
  6  8  1  0
  7  9  1  0
 13 14  1  0
M  END
> <minimizedAffinity>
-9.81065

> <CNNscore>
0.5975805521

> <CNNaffinity>
5.9999423027

> <CNN_VS>
3.5854487419

> <CNNaffinity_variance>
0.0014212960

$$$$



 28 29  0  0  0  0  0  0  0  0999 V2000
   15.5297   53.8822   37.8026 C   0  0  0  0  0  0  0  0  0  0  0  0
   16.5365   53.0123   37.0405 C   0  0  0  0  0  0  0  0  0  0  0  0
   17.8588   52.7602   37.7722 C   0  0  0  0  0  0  0  0  0  0  0  0
   19.3582   54.9132   36.6866 O   0  0  0  0  0  0  0  0  0  0  0  0
   19.2585   53.4503   36.9503 P   0  0  0  0  0  0  0  0  0  0  0  0
   19.5755   52.5634   35.6547 O   0  0  0  0  0  0  0  0  0  0  0  0
   20.5193   52.9958   37.8460 O   0  0  0  0  0  0  0  0  0  0  0  0
   20.3442   52.9312   35.1913 H   0  0  0  0  0  0  0  0  0  0  0  0
   21.3362   53.3413   37.4533 H   0  0  0  0  0  0  0  0  0  0  0  0
   18.3468   51.0548   37.8234 S   0  0  0  0  0  0  0  0  0  0  0  0
   17.5734   50.2952   38.7762 O   0  0  0  0  0  0  0  0  0  0  0  0
   19.7814   50.9186   37.7174 O   0  0  0  0  0  0  0  0  0  0  0  0
   17.7895   50.6121   36.3707 O   0  0  0  0  0  0  0  0  0  0  0  0
   16.8217   50.6773   36.3620 H   0  0  0  0  0  0  0  0  0  0  0  0
   15.7704   55.3832   37.6085 C   0  0  0  0  0  0  0  0  0  0  0  0
   15.2072   56.1915   38.7514 C   0  0  0  0  0  0  0  0  0  0  0  0
   15.0701   55.6242   40.0266 C   0  0  0  0  0  0  0  0  0  0  0  0
   14.5451   56.3706   41.0835 C   0  0  0  0  0  0  0  0  0  0  0  0
   14.1598   57.6949   40.8802 C   0  0  0  0  0  0  0  0  0  0  0  0
   14.3180   58.2756   39.6206 C   0  0  0  0  0  0  0  0  0  0  0  0
   14.8212   57.5245   38.5567 C   0  0  0  0  0  0  0  0  0  0  0  0
   13.9275   59.5663   39.3436 O   0  0  0  0  0  0  0  0  0  0  0  0
   12.6922   59.7419   38.7620 C   0  0  0  0  0  0  0  0  0  0  0  0
   12.6021   59.5157   37.3882 C   0  0  0  0  0  0  0  0  0  0  0  0
   11.3871   59.7082   36.7298 C   0  0  0  0  0  0  0  0  0  0  0  0
   10.2688   60.1415   37.4429 C   0  0  0  0  0  0  0  0  0  0  0  0
   10.3653   60.3895   38.8128 C   0  0  0  0  0  0  0  0  0  0  0  0
   11.5795   60.1978   39.4738 C   0  0  0  0  0  0  0  0  0  0  0  0
  4  5  2  0
  5  6  1  0
  5  7  1  0
  5  3  1  0
  3  2  1  0
  2  1  1  0
  1 15  1  0
 15 16  1  0
 16 17  2  0
 17 18  1  0
 18 19  2  0
 19 20  1  0
 20 22  1  0
 22 23  1  0
 23 24  2  0
 24 25  1  0
 25 26  2  0
 26 27  1  0
 27 28  2  0
 20 21  2  0
  3 10  1  0
 10 11  2  0
 10 12  2  0
 10 13  1  0
 21 16  1  0
 28 23  1  0
  6  8  1  0
  7  9  1  0
 13 14  1  0
M  END
> <minimizedAffinity>
-9.63872

> <CNNscore>
0.5950421691

> <CNNaffinity>
5.9225201607

> <CNN_VS>
3.5241491795

> <CNNaffinity_variance>
0.0028230445

$$$$



 28 29  0  0  0  0  0  0  0  0999 V2000
   18.1528   56.8290   36.1017 C   0  0  0  0  0  0  0  0  0  0  0  0
   19.0470   55.5841   36.1434 C   0  0  0  0  0  0  0  0  0  0  0  0
   18.6618   54.5454   37.2016 C   0  0  0  0  0  0  0  0  0  0  0  0
   20.5531   55.5500   39.0659 O   0  0  0  0  0  0  0  0  0  0  0  0
   19.8639   54.3663   38.4799 P   0  0  0  0  0  0  0  0  0  0  0  0
   20.8799   53.2006   38.0625 O   0  0  0  0  0  0  0  0  0  0  0  0
   19.0914   53.5791   39.6554 O   0  0  0  0  0  0  0  0  0  0  0  0
   21.5481   53.0902   38.7569 H   0  0  0  0  0  0  0  0  0  0  0  0
   19.6943   53.4413   40.4027 H   0  0  0  0  0  0  0  0  0  0  0  0
   18.6103   52.8776   36.5973 S   0  0  0  0  0  0  0  0  0  0  0  0
   18.2558   51.9344   37.6306 O   0  0  0  0  0  0  0  0  0  0  0  0
   19.6857   52.6263   35.6654 O   0  0  0  0  0  0  0  0  0  0  0  0
   17.2923   53.0097   35.6687 O   0  0  0  0  0  0  0  0  0  0  0  0
   16.5186   53.1811   36.2281 H   0  0  0  0  0  0  0  0  0  0  0  0
   16.7728   56.5529   35.4952 C   0  0  0  0  0  0  0  0  0  0  0  0
   15.6682   56.7643   36.5011 C   0  0  0  0  0  0  0  0  0  0  0  0
   14.3787   57.1202   36.0799 C   0  0  0  0  0  0  0  0  0  0  0  0
   13.3571   57.3200   37.0106 C   0  0  0  0  0  0  0  0  0  0  0  0
   13.6103   57.1574   38.3719 C   0  0  0  0  0  0  0  0  0  0  0  0
   14.8842   56.7769   38.7978 C   0  0  0  0  0  0  0  0  0  0  0  0
   15.9130   56.5989   37.8709 C   0  0  0  0  0  0  0  0  0  0  0  0
   15.2101   56.6317   40.1273 O   0  0  0  0  0  0  0  0  0  0  0  0
   14.2520   56.0960   40.9581 C   0  0  0  0  0  0  0  0  0  0  0  0
   13.8573   54.7822   40.7035 C   0  0  0  0  0  0  0  0  0  0  0  0
   12.8662   54.1896   41.4865 C   0  0  0  0  0  0  0  0  0  0  0  0
   12.2605   54.9164   42.5120 C   0  0  0  0  0  0  0  0  0  0  0  0
   12.6396   56.2380   42.7514 C   0  0  0  0  0  0  0  0  0  0  0  0
   13.6308   56.8331   41.9696 C   0  0  0  0  0  0  0  0  0  0  0  0
  4  5  2  0
  5  6  1  0
  5  7  1  0
  5  3  1  0
  3  2  1  0
  2  1  1  0
  1 15  1  0
 15 16  1  0
 16 17  2  0
 17 18  1  0
 18 19  2  0
 19 20  1  0
 20 22  1  0
 22 23  1  0
 23 24  2  0
 24 25  1  0
 25 26  2  0
 26 27  1  0
 27 28  2  0
 20 21  2  0
  3 10  1  0
 10 11  2  0
 10 12  2  0
 10 13  1  0
 21 16  1  0
 28 23  1  0
  6  8  1  0
  7  9  1  0
 13 14  1  0
M  END
> <minimizedAffinity>
-9.03536

> <CNNscore>
0.5859138966

> <CNNaffinity>
5.8504929543

> <CNN_VS>
3.4278850555

> <CNNaffinity_variance>
0.0229237173

$$$$



 28 29  0  0  0  0  0  0  0  0999 V2000
   17.0608   54.6553   35.8426 C   0  0  0  0  0  0  0  0  0  0  0  0
   18.5276   54.2205   35.9453 C   0  0  0  0  0  0  0  0  0  0  0  0
   18.8278   53.2129   37.0597 C   0  0  0  0  0  0  0  0  0  0  0  0
   21.4018   53.3281   38.2527 O   0  0  0  0  0  0  0  0  0  0  0  0
   19.9903   53.8048   38.2468 P   0  0  0  0  0  0  0  0  0  0  0  0
   19.3104   53.7485   39.6959 O   0  0  0  0  0  0  0  0  0  0  0  0
   19.9824   55.4057   38.0585 O   0  0  0  0  0  0  0  0  0  0  0  0
   19.9387   54.0715   40.3606 H   0  0  0  0  0  0  0  0  0  0  0  0
   20.6048   55.8080   38.6844 H   0  0  0  0  0  0  0  0  0  0  0  0
   19.6721   51.7521   36.5099 S   0  0  0  0  0  0  0  0  0  0  0  0
   18.9390   51.0537   35.4813 O   0  0  0  0  0  0  0  0  0  0  0  0
   20.2906   51.0586   37.6164 O   0  0  0  0  0  0  0  0  0  0  0  0
   20.9023   52.4715   35.7443 O   0  0  0  0  0  0  0  0  0  0  0  0
   20.5640   52.9635   34.9799 H   0  0  0  0  0  0  0  0  0  0  0  0
   16.7936   56.0143   36.4987 C   0  0  0  0  0  0  0  0  0  0  0  0
   15.9629   55.8763   37.7508 C   0  0  0  0  0  0  0  0  0  0  0  0
   15.2230   56.9630   38.2390 C   0  0  0  0  0  0  0  0  0  0  0  0
   14.4574   56.8370   39.4000 C   0  0  0  0  0  0  0  0  0  0  0  0
   14.4153   55.6212   40.0809 C   0  0  0  0  0  0  0  0  0  0  0  0
   15.1275   54.5268   39.5868 C   0  0  0  0  0  0  0  0  0  0  0  0
   15.9119   54.6567   38.4391 C   0  0  0  0  0  0  0  0  0  0  0  0
   15.1561   53.3088   40.2276 O   0  0  0  0  0  0  0  0  0  0  0  0
   15.7065   52.2480   39.5443 C   0  0  0  0  0  0  0  0  0  0  0  0
   15.1851   51.9711   38.2802 C   0  0  0  0  0  0  0  0  0  0  0  0
   15.6743   50.8890   37.5478 C   0  0  0  0  0  0  0  0  0  0  0  0
   16.6724   50.0766   38.0869 C   0  0  0  0  0  0  0  0  0  0  0  0
   17.1774   50.3404   39.3608 C   0  0  0  0  0  0  0  0  0  0  0  0
   16.6898   51.4221   40.0955 C   0  0  0  0  0  0  0  0  0  0  0  0
  4  5  2  0
  5  6  1  0
  5  7  1  0
  5  3  1  0
  3  2  1  0
  2  1  1  0
  1 15  1  0
 15 16  1  0
 16 17  2  0
 17 18  1  0
 18 19  2  0
 19 20  1  0
 20 22  1  0
 22 23  1  0
 23 24  2  0
 24 25  1  0
 25 26  2  0
 26 27  1  0
 27 28  2  0
 20 21  2  0
  3 10  1  0
 10 11  2  0
 10 12  2  0
 10 13  1  0
 21 16  1  0
 28 23  1  0
  6  8  1  0
  7  9  1  0
 13 14  1  0
M  END
> <minimizedAffinity>
-8.67227

> <CNNscore>
0.5631738901

> <CNNaffinity>
5.7061762810

> <CNN_VS>
3.2135694027

> <CNNaffinity_variance>
0.1762736887

$$$$



 28 29  0  0  0  0  0  0  0  0999 V2000
   16.3597   52.9292   38.4453 C   0  0  0  0  0  0  0  0  0  0  0  0
   17.7985   52.4087   38.5457 C   0  0  0  0  0  0  0  0  0  0  0  0
   18.7979   53.0811   37.5991 C   0  0  0  0  0  0  0  0  0  0  0  0
   20.7570   51.0268   37.5339 O   0  0  0  0  0  0  0  0  0  0  0  0
   19.8591   51.9401   36.7727 P   0  0  0  0  0  0  0  0  0  0  0  0
   20.6171   52.7138   35.5928 O   0  0  0  0  0  0  0  0  0  0  0  0
   18.8692   51.0545   35.8593 O   0  0  0  0  0  0  0  0  0  0  0  0
   21.2055   52.0982   35.1282 H   0  0  0  0  0  0  0  0  0  0  0  0
   19.3850   50.3961   35.3680 H   0  0  0  0  0  0  0  0  0  0  0  0
   20.0106   54.0856   38.4175 S   0  0  0  0  0  0  0  0  0  0  0  0
   19.8300   54.0992   39.8494 O   0  0  0  0  0  0  0  0  0  0  0  0
   20.2837   55.2899   37.6673 O   0  0  0  0  0  0  0  0  0  0  0  0
   21.3012   53.1455   38.1584 O   0  0  0  0  0  0  0  0  0  0  0  0
   21.1919   52.3077   38.6350 H   0  0  0  0  0  0  0  0  0  0  0  0
   15.8768   53.0740   36.9981 C   0  0  0  0  0  0  0  0  0  0  0  0
   15.7432   54.5222   36.5962 C   0  0  0  0  0  0  0  0  0  0  0  0
   16.8209   55.2021   36.0104 C   0  0  0  0  0  0  0  0  0  0  0  0
   16.6990   56.5435   35.6421 C   0  0  0  0  0  0  0  0  0  0  0  0
   15.4961   57.2178   35.8464 C   0  0  0  0  0  0  0  0  0  0  0  0
   14.4099   56.5410   36.4042 C   0  0  0  0  0  0  0  0  0  0  0  0
   14.5364   55.2064   36.7943 C   0  0  0  0  0  0  0  0  0  0  0  0
   13.2057   57.1554   36.6635 O   0  0  0  0  0  0  0  0  0  0  0  0
   13.2121   58.2112   37.5469 C   0  0  0  0  0  0  0  0  0  0  0  0
   13.8876   58.0223   38.7531 C   0  0  0  0  0  0  0  0  0  0  0  0
   13.9045   59.0398   39.7075 C   0  0  0  0  0  0  0  0  0  0  0  0
   13.2331   60.2379   39.4611 C   0  0  0  0  0  0  0  0  0  0  0  0
   12.5385   60.4176   38.2642 C   0  0  0  0  0  0  0  0  0  0  0  0
   12.5200   59.4013   37.3077 C   0  0  0  0  0  0  0  0  0  0  0  0
  4  5  2  0
  5  6  1  0
  5  7  1  0
  5  3  1  0
  3  2  1  0
  2  1  1  0
  1 15  1  0
 15 16  1  0
 16 17  2  0
 17 18  1  0
 18 19  2  0
 19 20  1  0
 20 22  1  0
 22 23  1  0
 23 24  2  0
 24 25  1  0
 25 26  2  0
 26 27  1  0
 27 28  2  0
 20 21  2  0
  3 10  1  0
 10 11  2  0
 10 12  2  0
 10 13  1  0
 21 16  1  0
 28 23  1  0
  6  8  1  0
  7  9  1  0
 13 14  1  0
M  END
> <minimizedAffinity>
-9.34226

> <CNNscore>
0.5628092885

> <CNNaffinity>
5.8884239197

> <CNN_VS>
3.3140597343

> <CNNaffinity_variance>
0.1111571565

$$$$
