


 39 44  0  0  0  0  0  0  0  0999 V2000
   21.9081    0.0023    6.3656 C   0  0  0  0  0  0  0  0  0  0  0  0
   21.8955   -1.3954    6.1773 C   0  0  0  0  0  0  0  0  0  0  0  0
   23.0840   -1.9548    6.4286 N   0  0  0  0  0  0  0  0  0  0  0  0
   23.8729   -0.9059    6.7455 N   0  0  0  0  0  0  0  0  0  0  0  0
   23.1997    0.2897    6.7385 C   0  0  0  0  0  0  0  0  0  0  0  0
   19.7250    0.7645    5.5720 C   0  0  0  0  0  0  0  0  0  0  0  0
   19.4070   -0.2330    4.9315 O   0  0  0  0  0  0  0  0  0  0  0  0
   20.9158    0.9470    6.2441 N   0  0  0  0  0  0  0  0  0  0  0  0
   21.0672    1.8216    6.6699 H   0  0  0  0  0  0  0  0  0  0  0  0
   13.2775    3.0743    5.5125 C   0  0  0  0  0  0  0  0  0  0  0  0
   14.6862    2.9133    5.0107 C   0  0  0  0  0  0  0  0  0  0  0  0
   15.6983    3.8542    5.6581 C   0  0  0  0  0  0  0  0  0  0  0  0
   17.0576    3.2633    5.7638 C   0  0  0  0  0  0  0  0  0  0  0  0
   18.1529    3.8678    6.2935 N   0  0  0  0  0  0  0  0  0  0  0  0
   19.2493    3.0831    6.2842 N   0  0  0  0  0  0  0  0  0  0  0  0
   18.8269    1.9251    5.7204 C   0  0  0  0  0  0  0  0  0  0  0  0
   17.4566    2.0099    5.3618 C   0  0  0  0  0  0  0  0  0  0  0  0
   16.5529    1.0167    4.7202 C   0  0  0  0  0  0  0  0  0  0  0  0
   15.1365    1.5117    4.5341 C   0  0  0  0  0  0  0  0  0  0  0  0
   14.8631    2.6008    3.5598 C   0  0  0  0  0  0  0  0  0  0  0  0
   15.8772    3.1742    2.8286 F   0  0  0  0  0  0  0  0  0  0  0  0
   13.7687    2.5199    2.7265 F   0  0  0  0  0  0  0  0  0  0  0  0
   18.1467    4.7861    6.6483 H   0  0  0  0  0  0  0  0  0  0  0  0
   25.2998   -1.0985    7.0814 C   0  0  0  0  0  0  0  0  0  0  0  0
   25.6806   -2.5951    7.2006 C   0  0  0  0  0  0  0  0  0  0  0  0
   25.0976   -3.4346    8.3548 C   0  0  0  0  0  0  0  0  0  0  0  0
   23.7053   -4.0397    8.1564 C   0  0  0  0  0  0  0  0  0  0  0  0
   23.5927   -4.9120    6.9142 C   0  0  0  0  0  0  0  0  0  0  0  0
   23.8647   -4.1195    5.6510 C   0  0  0  0  0  0  0  0  0  0  0  0
   25.5116   -3.4499    5.6312 S   0  0  0  0  0  0  0  0  0  0  0  0
   25.5684   -2.4823    4.5501 O   0  0  0  0  0  0  0  0  0  0  0  0
   26.4334   -4.5716    5.6409 O   0  0  0  0  0  0  0  0  0  0  0  0
   26.1799   -0.2096    6.2092 C   0  0  0  0  0  0  0  0  0  0  0  0
   25.7582    0.1235    4.9066 C   0  0  0  0  0  0  0  0  0  0  0  0
   26.5457    0.9365    4.0868 C   0  0  0  0  0  0  0  0  0  0  0  0
   27.7590    1.4179    4.5600 C   0  0  0  0  0  0  0  0  0  0  0  0
   28.5073    2.2098    3.7783 F   0  0  0  0  0  0  0  0  0  0  0  0
   28.2060    1.0943    5.8338 C   0  0  0  0  0  0  0  0  0  0  0  0
   27.4225    0.2797    6.6536 C   0  0  0  0  0  0  0  0  0  0  0  0
 11 10  1  0
 11 12  1  0
 12 13  1  0
 13 14  1  0
 14 15  1  0
 15 16  2  0
 16  6  1  0
  6  7  2  0
  6  8  1  0
  8  1  1  0
  1  2  1  0
  2  3  2  0
  3  4  1  0
 24  4  1  0
 24 33  1  0
 33 34  2  0
 34 35  1  0
 35 36  2  0
 36 37  1  0
 36 38  1  0
 38 39  2  0
 24 25  1  0
 25 26  1  0
 26 27  1  0
 27 28  1  0
 28 29  1  0
 29 30  1  0
 30 31  2  0
 30 32  2  0
  4  5  1  0
 16 17  1  0
 17 18  1  0
 19 18  1  0
 19 20  1  0
 20 21  1  0
 20 22  1  0
 19 11  1  0
 20 11  1  0
 17 13  2  0
  5  1  2  0
 39 33  1  0
 30 25  1  0
 14 23  1  0
  8  9  1  0
M  END
> <minimizedAffinity>
-12.30207

> <CNNscore>
0.9822675586

> <CNNaffinity>
8.5423164368

> <CNN_VS>
8.3908405304

> <CNNaffinity_variance>
0.0616560988

$$$$



 39 44  0  0  0  0  0  0  0  0999 V2000
   21.8654   -0.3013    6.0774 C   0  0  0  0  0  0  0  0  0  0  0  0
   21.7586   -1.7054    6.1567 C   0  0  0  0  0  0  0  0  0  0  0  0
   22.9513   -2.3035    6.2467 N   0  0  0  0  0  0  0  0  0  0  0  0
   23.8299   -1.2799    6.1891 N   0  0  0  0  0  0  0  0  0  0  0  0
   23.2176   -0.0548    6.1061 C   0  0  0  0  0  0  0  0  0  0  0  0
   19.5726    0.4693    5.7225 C   0  0  0  0  0  0  0  0  0  0  0  0
   19.0607   -0.6099    5.4407 O   0  0  0  0  0  0  0  0  0  0  0  0
   20.9072    0.6824    5.9990 N   0  0  0  0  0  0  0  0  0  0  0  0
   21.1964    1.6109    6.1522 H   0  0  0  0  0  0  0  0  0  0  0  0
   13.3595    3.3498    5.6317 C   0  0  0  0  0  0  0  0  0  0  0  0
   14.7382    3.0355    5.1191 C   0  0  0  0  0  0  0  0  0  0  0  0
   15.8430    3.9128    5.7009 C   0  0  0  0  0  0  0  0  0  0  0  0
   17.1453    3.2071    5.8186 C   0  0  0  0  0  0  0  0  0  0  0  0
   18.3005    3.7360    6.2995 N   0  0  0  0  0  0  0  0  0  0  0  0
   19.3214    2.8555    6.3165 N   0  0  0  0  0  0  0  0  0  0  0  0
   18.7857    1.7130    5.8215 C   0  0  0  0  0  0  0  0  0  0  0  0
   17.4221    1.9033    5.4784 C   0  0  0  0  0  0  0  0  0  0  0  0
   16.4205    0.9645    4.9038 C   0  0  0  0  0  0  0  0  0  0  0  0
   15.0512    1.5760    4.7117 C   0  0  0  0  0  0  0  0  0  0  0  0
   14.8585    2.6334    3.6847 C   0  0  0  0  0  0  0  0  0  0  0  0
   15.9061    3.0734    2.9095 F   0  0  0  0  0  0  0  0  0  0  0  0
   13.7456    2.6092    2.8725 F   0  0  0  0  0  0  0  0  0  0  0  0
   18.3838    4.6683    6.6048 H   0  0  0  0  0  0  0  0  0  0  0  0
   25.2876   -1.5217    6.2418 C   0  0  0  0  0  0  0  0  0  0  0  0
   25.6693   -2.9351    5.7361 C   0  0  0  0  0  0  0  0  0  0  0  0
   25.7336   -3.2044    4.2194 C   0  0  0  0  0  0  0  0  0  0  0  0
   27.0305   -2.8422    3.4910 C   0  0  0  0  0  0  0  0  0  0  0  0
   28.2656   -3.5083    4.0808 C   0  0  0  0  0  0  0  0  0  0  0  0
   28.4892   -3.0907    5.5207 C   0  0  0  0  0  0  0  0  0  0  0  0
   27.1313   -3.5645    6.5660 S   0  0  0  0  0  0  0  0  0  0  0  0
   27.3006   -2.8706    7.8302 O   0  0  0  0  0  0  0  0  0  0  0  0
   27.0573   -5.0143    6.5462 O   0  0  0  0  0  0  0  0  0  0  0  0
   26.0488   -0.3325    5.6658 C   0  0  0  0  0  0  0  0  0  0  0  0
   27.0185    0.3201    6.4526 C   0  0  0  0  0  0  0  0  0  0  0  0
   27.7305    1.4121    5.9488 C   0  0  0  0  0  0  0  0  0  0  0  0
   27.4762    1.8613    4.6599 C   0  0  0  0  0  0  0  0  0  0  0  0
   28.1697    2.9000    4.1718 F   0  0  0  0  0  0  0  0  0  0  0  0
   26.5165    1.2465    3.8674 C   0  0  0  0  0  0  0  0  0  0  0  0
   25.8017    0.1572    4.3696 C   0  0  0  0  0  0  0  0  0  0  0  0
 11 10  1  0
 11 12  1  0
 12 13  1  0
 13 14  1  0
 14 15  1  0
 15 16  2  0
 16  6  1  0
  6  7  2  0
  6  8  1  0
  8  1  1  0
  1  2  1  0
  2  3  2  0
  3  4  1  0
 24  4  1  0
 24 33  1  0
 33 34  2  0
 34 35  1  0
 35 36  2  0
 36 37  1  0
 36 38  1  0
 38 39  2  0
 24 25  1  0
 25 26  1  0
 26 27  1  0
 27 28  1  0
 28 29  1  0
 29 30  1  0
 30 31  2  0
 30 32  2  0
  4  5  1  0
 16 17  1  0
 17 18  1  0
 19 18  1  0
 19 20  1  0
 20 21  1  0
 20 22  1  0
 19 11  1  0
 20 11  1  0
 17 13  2  0
  5  1  2  0
 39 33  1  0
 30 25  1  0
 14 23  1  0
  8  9  1  0
M  END
> <minimizedAffinity>
-11.96525

> <CNNscore>
0.9578384757

> <CNNaffinity>
8.2484703064

> <CNN_VS>
7.9007019997

> <CNNaffinity_variance>
0.1102122441

$$$$



 39 44  0  0  0  0  0  0  0  0999 V2000
   21.8185   -0.1209    6.3658 C   0  0  0  0  0  0  0  0  0  0  0  0
   23.1621   -0.0386    6.7868 C   0  0  0  0  0  0  0  0  0  0  0  0
   23.7740   -1.2276    6.7755 N   0  0  0  0  0  0  0  0  0  0  0  0
   22.8078   -2.0832    6.3788 N   0  0  0  0  0  0  0  0  0  0  0  0
   21.6193   -1.4556    6.1031 C   0  0  0  0  0  0  0  0  0  0  0  0
   19.5212    0.5997    5.9417 C   0  0  0  0  0  0  0  0  0  0  0  0
   19.0201   -0.5025    5.7412 O   0  0  0  0  0  0  0  0  0  0  0  0
   20.8525    0.8453    6.2075 N   0  0  0  0  0  0  0  0  0  0  0  0
   21.1329    1.7854    6.2903 H   0  0  0  0  0  0  0  0  0  0  0  0
   13.2835    3.4086    5.6124 C   0  0  0  0  0  0  0  0  0  0  0  0
   14.6662    3.0674    5.1289 C   0  0  0  0  0  0  0  0  0  0  0  0
   15.7618    3.9975    5.6421 C   0  0  0  0  0  0  0  0  0  0  0  0
   17.0699    3.3148    5.8175 C   0  0  0  0  0  0  0  0  0  0  0  0
   18.2191    3.8902    6.2576 N   0  0  0  0  0  0  0  0  0  0  0  0
   19.2476    3.0228    6.3459 N   0  0  0  0  0  0  0  0  0  0  0  0
   18.7232    1.8403    5.9411 C   0  0  0  0  0  0  0  0  0  0  0  0
   17.3589    1.9909    5.5814 C   0  0  0  0  0  0  0  0  0  0  0  0
   16.3672    1.0009    5.0804 C   0  0  0  0  0  0  0  0  0  0  0  0
   14.9930    1.5832    4.8381 C   0  0  0  0  0  0  0  0  0  0  0  0
   14.7939    2.5548    3.7307 C   0  0  0  0  0  0  0  0  0  0  0  0
   15.8397    2.9418    2.9254 F   0  0  0  0  0  0  0  0  0  0  0  0
   13.6835    2.4569    2.9207 F   0  0  0  0  0  0  0  0  0  0  0  0
   18.2935    4.8443    6.4889 H   0  0  0  0  0  0  0  0  0  0  0  0
   23.0768   -3.5313    6.2500 C   0  0  0  0  0  0  0  0  0  0  0  0
   24.2251   -3.8314    5.2548 C   0  0  0  0  0  0  0  0  0  0  0  0
   24.8082   -2.6852    4.4044 C   0  0  0  0  0  0  0  0  0  0  0  0
   25.8940   -1.8137    5.0411 C   0  0  0  0  0  0  0  0  0  0  0  0
   27.0929   -2.6059    5.5431 C   0  0  0  0  0  0  0  0  0  0  0  0
   26.6949   -3.5947    6.6209 C   0  0  0  0  0  0  0  0  0  0  0  0
   25.5310   -4.7967    6.0196 S   0  0  0  0  0  0  0  0  0  0  0  0
   24.9972   -5.4931    7.1765 O   0  0  0  0  0  0  0  0  0  0  0  0
   26.1926   -5.5498    4.9695 O   0  0  0  0  0  0  0  0  0  0  0  0
   23.1393   -4.1887    7.6246 C   0  0  0  0  0  0  0  0  0  0  0  0
   22.4987   -5.4261    7.8340 C   0  0  0  0  0  0  0  0  0  0  0  0
   22.5409   -6.0500    9.0838 C   0  0  0  0  0  0  0  0  0  0  0  0
   23.2183   -5.4415   10.1320 C   0  0  0  0  0  0  0  0  0  0  0  0
   23.2708   -6.0474   11.3270 F   0  0  0  0  0  0  0  0  0  0  0  0
   23.8465   -4.2157    9.9582 C   0  0  0  0  0  0  0  0  0  0  0  0
   23.8031   -3.5889    8.7113 C   0  0  0  0  0  0  0  0  0  0  0  0
 11 10  1  0
 11 12  1  0
 12 13  1  0
 13 14  1  0
 14 15  1  0
 15 16  2  0
 16  6  1  0
  6  7  2  0
  6  8  1  0
  8  1  1  0
  1  2  1  0
  2  3  2  0
  3  4  1  0
 24  4  1  0
 24 33  1  0
 33 34  2  0
 34 35  1  0
 35 36  2  0
 36 37  1  0
 36 38  1  0
 38 39  2  0
 24 25  1  0
 25 26  1  0
 26 27  1  0
 27 28  1  0
 28 29  1  0
 29 30  1  0
 30 31  2  0
 30 32  2  0
  4  5  1  0
 16 17  1  0
 17 18  1  0
 19 18  1  0
 19 20  1  0
 20 21  1  0
 20 22  1  0
 19 11  1  0
 20 11  1  0
 17 13  2  0
  5  1  2  0
 39 33  1  0
 30 25  1  0
 14 23  1  0
  8  9  1  0
M  END
> <minimizedAffinity>
-12.22838

> <CNNscore>
0.9576162696

> <CNNaffinity>
8.2171239853

> <CNN_VS>
7.8688516617

> <CNNaffinity_variance>
0.1669868827

$$$$



 39 44  0  0  0  0  0  0  0  0999 V2000
   21.9801   -0.2728    5.7992 C   0  0  0  0  0  0  0  0  0  0  0  0
   21.9169   -1.6816    5.8223 C   0  0  0  0  0  0  0  0  0  0  0  0
   23.1288   -2.2462    5.8537 N   0  0  0  0  0  0  0  0  0  0  0  0
   23.9749   -1.1948    5.8147 N   0  0  0  0  0  0  0  0  0  0  0  0
   23.3248    0.0134    5.8005 C   0  0  0  0  0  0  0  0  0  0  0  0
   19.6368    0.4238    5.7835 C   0  0  0  0  0  0  0  0  0  0  0  0
   19.1184   -0.6867    5.7178 O   0  0  0  0  0  0  0  0  0  0  0  0
   20.9916    0.6836    5.7891 N   0  0  0  0  0  0  0  0  0  0  0  0
   21.2729    1.6270    5.7856 H   0  0  0  0  0  0  0  0  0  0  0  0
   13.4046    3.2611    5.6523 C   0  0  0  0  0  0  0  0  0  0  0  0
   14.7914    2.9626    5.1526 C   0  0  0  0  0  0  0  0  0  0  0  0
   15.8830    3.8408    5.7574 C   0  0  0  0  0  0  0  0  0  0  0  0
   17.1889    3.1430    5.8824 C   0  0  0  0  0  0  0  0  0  0  0  0
   18.3345    3.6745    6.3830 N   0  0  0  0  0  0  0  0  0  0  0  0
   19.3614    2.8010    6.4020 N   0  0  0  0  0  0  0  0  0  0  0  0
   18.8398    1.6607    5.8874 C   0  0  0  0  0  0  0  0  0  0  0  0
   17.4790    1.8452    5.5305 C   0  0  0  0  0  0  0  0  0  0  0  0
   16.4910    0.9061    4.9333 C   0  0  0  0  0  0  0  0  0  0  0  0
   15.1197    1.5101    4.7321 C   0  0  0  0  0  0  0  0  0  0  0  0
   14.9315    2.5780    3.7151 C   0  0  0  0  0  0  0  0  0  0  0  0
   15.9849    3.0343    2.9575 F   0  0  0  0  0  0  0  0  0  0  0  0
   13.8284    2.5553    2.8896 F   0  0  0  0  0  0  0  0  0  0  0  0
   18.4075    4.6037    6.7000 H   0  0  0  0  0  0  0  0  0  0  0  0
   25.4399   -1.3940    5.8164 C   0  0  0  0  0  0  0  0  0  0  0  0
   26.2085   -0.1207    5.3840 C   0  0  0  0  0  0  0  0  0  0  0  0
   26.9667    0.7023    6.4445 C   0  0  0  0  0  0  0  0  0  0  0  0
   28.3820    0.2493    6.8127 C   0  0  0  0  0  0  0  0  0  0  0  0
   29.3198    0.1528    5.6177 C   0  0  0  0  0  0  0  0  0  0  0  0
   28.8287   -0.8629    4.6053 C   0  0  0  0  0  0  0  0  0  0  0  0
   27.2376   -0.4233    3.9447 S   0  0  0  0  0  0  0  0  0  0  0  0
   26.7340   -1.5832    3.2310 O   0  0  0  0  0  0  0  0  0  0  0  0
   27.3952    0.8388    3.2446 O   0  0  0  0  0  0  0  0  0  0  0  0
   25.8842   -2.0898    7.0986 C   0  0  0  0  0  0  0  0  0  0  0  0
   25.2548   -1.7698    8.3180 C   0  0  0  0  0  0  0  0  0  0  0  0
   25.6426   -2.3930    9.5073 C   0  0  0  0  0  0  0  0  0  0  0  0
   26.6624   -3.3350    9.4874 C   0  0  0  0  0  0  0  0  0  0  0  0
   27.0243   -3.9432   10.6263 F   0  0  0  0  0  0  0  0  0  0  0  0
   27.3097   -3.6595    8.3029 C   0  0  0  0  0  0  0  0  0  0  0  0
   26.9261   -3.0360    7.1139 C   0  0  0  0  0  0  0  0  0  0  0  0
 11 10  1  0
 11 12  1  0
 12 13  1  0
 13 14  1  0
 14 15  1  0
 15 16  2  0
 16  6  1  0
  6  7  2  0
  6  8  1  0
  8  1  1  0
  1  2  1  0
  2  3  2  0
  3  4  1  0
 24  4  1  0
 24 33  1  0
 33 34  2  0
 34 35  1  0
 35 36  2  0
 36 37  1  0
 36 38  1  0
 38 39  2  0
 24 25  1  0
 25 26  1  0
 26 27  1  0
 27 28  1  0
 28 29  1  0
 29 30  1  0
 30 31  2  0
 30 32  2  0
  4  5  1  0
 16 17  1  0
 17 18  1  0
 19 18  1  0
 19 20  1  0
 20 21  1  0
 20 22  1  0
 19 11  1  0
 20 11  1  0
 17 13  2  0
  5  1  2  0
 39 33  1  0
 30 25  1  0
 14 23  1  0
  8  9  1  0
M  END
> <minimizedAffinity>
-11.45261

> <CNNscore>
0.9529708028

> <CNNaffinity>
8.3755340576

> <CNN_VS>
7.9816393852

> <CNNaffinity_variance>
0.0377495512

$$$$



 39 44  0  0  0  0  0  0  0  0999 V2000
   22.2899   -0.0911    6.4599 C   0  0  0  0  0  0  0  0  0  0  0  0
   23.6681    0.0718    6.7112 C   0  0  0  0  0  0  0  0  0  0  0  0
   24.3222   -1.0942    6.7432 N   0  0  0  0  0  0  0  0  0  0  0  0
   23.3525   -2.0128    6.5465 N   0  0  0  0  0  0  0  0  0  0  0  0
   22.1160   -1.4507    6.3522 C   0  0  0  0  0  0  0  0  0  0  0  0
   20.0571    0.5779    5.7223 C   0  0  0  0  0  0  0  0  0  0  0  0
   19.7301   -0.4661    5.1660 O   0  0  0  0  0  0  0  0  0  0  0  0
   21.2740    0.8260    6.3230 N   0  0  0  0  0  0  0  0  0  0  0  0
   21.4272    1.7299    6.6817 H   0  0  0  0  0  0  0  0  0  0  0  0
   13.5737    2.7850    5.6799 C   0  0  0  0  0  0  0  0  0  0  0  0
   14.9756    2.6230    5.1597 C   0  0  0  0  0  0  0  0  0  0  0  0
   15.9840    3.6072    5.7455 C   0  0  0  0  0  0  0  0  0  0  0  0
   17.3542    3.0423    5.8521 C   0  0  0  0  0  0  0  0  0  0  0  0
   18.4491    3.6863    6.3338 N   0  0  0  0  0  0  0  0  0  0  0  0
   19.5575    2.9187    6.3392 N   0  0  0  0  0  0  0  0  0  0  0  0
   19.1435    1.7303    5.8355 C   0  0  0  0  0  0  0  0  0  0  0  0
   17.7659    1.7782    5.4990 C   0  0  0  0  0  0  0  0  0  0  0  0
   16.8667    0.7436    4.9193 C   0  0  0  0  0  0  0  0  0  0  0  0
   15.4395    1.2084    4.7377 C   0  0  0  0  0  0  0  0  0  0  0  0
   15.1314    2.2485    3.7211 C   0  0  0  0  0  0  0  0  0  0  0  0
   16.1230    2.8036    2.9463 F   0  0  0  0  0  0  0  0  0  0  0  0
   14.0237    2.1137    2.9127 F   0  0  0  0  0  0  0  0  0  0  0  0
   18.4346    4.6194    6.6474 H   0  0  0  0  0  0  0  0  0  0  0  0
   23.6632   -3.4582    6.5274 C   0  0  0  0  0  0  0  0  0  0  0  0
   22.5448   -4.3103    7.1770 C   0  0  0  0  0  0  0  0  0  0  0  0
   22.1304   -5.6423    6.5206 C   0  0  0  0  0  0  0  0  0  0  0  0
   22.9586   -6.8850    6.8578 C   0  0  0  0  0  0  0  0  0  0  0  0
   23.0465   -7.1706    8.3504 C   0  0  0  0  0  0  0  0  0  0  0  0
   23.7156   -6.0332    9.0963 C   0  0  0  0  0  0  0  0  0  0  0  0
   22.8054   -4.5138    8.9414 S   0  0  0  0  0  0  0  0  0  0  0  0
   23.6646   -3.4478    9.4248 O   0  0  0  0  0  0  0  0  0  0  0  0
   21.5068   -4.7245    9.5554 O   0  0  0  0  0  0  0  0  0  0  0  0
   24.1674   -3.8794    5.1512 C   0  0  0  0  0  0  0  0  0  0  0  0
   24.9607   -2.9906    4.3988 C   0  0  0  0  0  0  0  0  0  0  0  0
   25.4358   -3.3519    3.1350 C   0  0  0  0  0  0  0  0  0  0  0  0
   25.1190   -4.5992    2.6138 C   0  0  0  0  0  0  0  0  0  0  0  0
   25.5871   -4.9510    1.4075 F   0  0  0  0  0  0  0  0  0  0  0  0
   24.3277   -5.4894    3.3269 C   0  0  0  0  0  0  0  0  0  0  0  0
   23.8492   -5.1296    4.5883 C   0  0  0  0  0  0  0  0  0  0  0  0
 11 10  1  0
 11 12  1  0
 12 13  1  0
 13 14  1  0
 14 15  1  0
 15 16  2  0
 16  6  1  0
  6  7  2  0
  6  8  1  0
  8  1  1  0
  1  2  1  0
  2  3  2  0
  3  4  1  0
 24  4  1  0
 24 33  1  0
 33 34  2  0
 34 35  1  0
 35 36  2  0
 36 37  1  0
 36 38  1  0
 38 39  2  0
 24 25  1  0
 25 26  1  0
 26 27  1  0
 27 28  1  0
 28 29  1  0
 29 30  1  0
 30 31  2  0
 30 32  2  0
  4  5  1  0
 16 17  1  0
 17 18  1  0
 19 18  1  0
 19 20  1  0
 20 21  1  0
 20 22  1  0
 19 11  1  0
 20 11  1  0
 17 13  2  0
  5  1  2  0
 39 33  1  0
 30 25  1  0
 14 23  1  0
  8  9  1  0
M  END
> <minimizedAffinity>
-12.21969

> <CNNscore>
0.9512183070

> <CNNaffinity>
8.1336526871

> <CNN_VS>
7.7368793488

> <CNNaffinity_variance>
0.1684323102

$$$$



 39 44  0  0  0  0  0  0  0  0999 V2000
   21.8207   -0.1521    6.3030 C   0  0  0  0  0  0  0  0  0  0  0  0
   23.1987   -0.1144    6.0048 C   0  0  0  0  0  0  0  0  0  0  0  0
   23.7966   -1.2936    6.2055 N   0  0  0  0  0  0  0  0  0  0  0  0
   22.8041   -2.0831    6.6688 N   0  0  0  0  0  0  0  0  0  0  0  0
   21.5931   -1.4406    6.7250 C   0  0  0  0  0  0  0  0  0  0  0  0
   19.6602    0.6799    5.5177 C   0  0  0  0  0  0  0  0  0  0  0  0
   19.3392   -0.2789    4.8221 O   0  0  0  0  0  0  0  0  0  0  0  0
   20.8428    0.8112    6.2158 N   0  0  0  0  0  0  0  0  0  0  0  0
   20.9991    1.6606    6.6883 H   0  0  0  0  0  0  0  0  0  0  0  0
   13.2356    3.0515    5.6018 C   0  0  0  0  0  0  0  0  0  0  0  0
   14.6372    2.8932    5.0798 C   0  0  0  0  0  0  0  0  0  0  0  0
   15.6653    3.8034    5.7455 C   0  0  0  0  0  0  0  0  0  0  0  0
   17.0197    3.1967    5.8176 C   0  0  0  0  0  0  0  0  0  0  0  0
   18.1265    3.7736    6.3541 N   0  0  0  0  0  0  0  0  0  0  0  0
   19.2150    2.9792    6.3081 N   0  0  0  0  0  0  0  0  0  0  0  0
   18.7752    1.8438    5.7126 C   0  0  0  0  0  0  0  0  0  0  0  0
   17.4021    1.9528    5.3718 C   0  0  0  0  0  0  0  0  0  0  0  0
   16.4819    0.9891    4.7091 C   0  0  0  0  0  0  0  0  0  0  0  0
   15.0685    1.5033    4.5542 C   0  0  0  0  0  0  0  0  0  0  0  0
   14.7956    2.6253    3.6179 C   0  0  0  0  0  0  0  0  0  0  0  0
   15.8074    3.2118    2.8942 F   0  0  0  0  0  0  0  0  0  0  0  0
   13.6917    2.5812    2.7944 F   0  0  0  0  0  0  0  0  0  0  0  0
   18.1331    4.6802    6.7378 H   0  0  0  0  0  0  0  0  0  0  0  0
   23.0584   -3.4930    7.0345 C   0  0  0  0  0  0  0  0  0  0  0  0
   23.6761   -4.3025    5.8674 C   0  0  0  0  0  0  0  0  0  0  0  0
   25.2096   -4.3995    5.7421 C   0  0  0  0  0  0  0  0  0  0  0  0
   25.9198   -5.4779    6.5647 C   0  0  0  0  0  0  0  0  0  0  0  0
   25.3952   -6.8834    6.3069 C   0  0  0  0  0  0  0  0  0  0  0  0
   23.9293   -7.0062    6.6727 C   0  0  0  0  0  0  0  0  0  0  0  0
   22.9114   -5.9182    5.7025 S   0  0  0  0  0  0  0  0  0  0  0  0
   21.5987   -5.8924    6.3225 O   0  0  0  0  0  0  0  0  0  0  0  0
   23.0433   -6.3267    4.3156 O   0  0  0  0  0  0  0  0  0  0  0  0
   23.7397   -3.5785    8.3961 C   0  0  0  0  0  0  0  0  0  0  0  0
   23.3791   -4.6051    9.2913 C   0  0  0  0  0  0  0  0  0  0  0  0
   23.9882   -4.7062   10.5451 C   0  0  0  0  0  0  0  0  0  0  0  0
   24.9567   -3.7822   10.9140 C   0  0  0  0  0  0  0  0  0  0  0  0
   25.5511   -3.8882   12.1112 F   0  0  0  0  0  0  0  0  0  0  0  0
   25.3215   -2.7521   10.0577 C   0  0  0  0  0  0  0  0  0  0  0  0
   24.7121   -2.6471    8.8059 C   0  0  0  0  0  0  0  0  0  0  0  0
 11 10  1  0
 11 12  1  0
 12 13  1  0
 13 14  1  0
 14 15  1  0
 15 16  2  0
 16  6  1  0
  6  7  2  0
  6  8  1  0
  8  1  1  0
  1  2  1  0
  2  3  2  0
  3  4  1  0
 24  4  1  0
 24 33  1  0
 33 34  2  0
 34 35  1  0
 35 36  2  0
 36 37  1  0
 36 38  1  0
 38 39  2  0
 24 25  1  0
 25 26  1  0
 26 27  1  0
 27 28  1  0
 28 29  1  0
 29 30  1  0
 30 31  2  0
 30 32  2  0
  4  5  1  0
 16 17  1  0
 17 18  1  0
 19 18  1  0
 19 20  1  0
 20 21  1  0
 20 22  1  0
 19 11  1  0
 20 11  1  0
 17 13  2  0
  5  1  2  0
 39 33  1  0
 30 25  1  0
 14 23  1  0
  8  9  1  0
M  END
> <minimizedAffinity>
-12.05567

> <CNNscore>
0.9303081632

> <CNNaffinity>
8.1714105606

> <CNN_VS>
7.6019301414

> <CNNaffinity_variance>
0.1226629838

$$$$



 39 44  0  0  0  0  0  0  0  0999 V2000
   19.7062   -1.3635    6.5560 C   0  0  0  0  0  0  0  0  0  0  0  0
   19.2418   -2.6621    6.8515 C   0  0  0  0  0  0  0  0  0  0  0  0
   20.2198   -3.5736    6.8185 N   0  0  0  0  0  0  0  0  0  0  0  0
   21.3113   -2.8618    6.4652 N   0  0  0  0  0  0  0  0  0  0  0  0
   21.0504   -1.5231    6.3158 C   0  0  0  0  0  0  0  0  0  0  0  0
   19.6161    1.0311    6.0723 C   0  0  0  0  0  0  0  0  0  0  0  0
   20.7858    1.1921    5.7372 O   0  0  0  0  0  0  0  0  0  0  0  0
   19.0556   -0.1528    6.5050 N   0  0  0  0  0  0  0  0  0  0  0  0
   18.1167   -0.1292    6.8003 H   0  0  0  0  0  0  0  0  0  0  0  0
   13.0389    2.7939    5.3374 C   0  0  0  0  0  0  0  0  0  0  0  0
   14.4886    2.6948    4.9492 C   0  0  0  0  0  0  0  0  0  0  0  0
   15.3789    3.7776    5.5522 C   0  0  0  0  0  0  0  0  0  0  0  0
   16.7663    3.3129    5.8111 C   0  0  0  0  0  0  0  0  0  0  0  0
   17.7727    4.0564    6.3402 N   0  0  0  0  0  0  0  0  0  0  0  0
   18.9212    3.3662    6.4896 N   0  0  0  0  0  0  0  0  0  0  0  0
   18.6271    2.1247    6.0319 C   0  0  0  0  0  0  0  0  0  0  0  0
   17.2843    2.0602    5.5779 C   0  0  0  0  0  0  0  0  0  0  0  0
   16.5052    0.9349    4.9935 C   0  0  0  0  0  0  0  0  0  0  0  0
   15.0738    1.2916    4.6618 C   0  0  0  0  0  0  0  0  0  0  0  0
   14.7938    2.2457    3.5567 C   0  0  0  0  0  0  0  0  0  0  0  0
   15.8141    2.8183    2.8336 F   0  0  0  0  0  0  0  0  0  0  0  0
   13.7723    1.9889    2.6682 F   0  0  0  0  0  0  0  0  0  0  0  0
   17.6734    5.0037    6.5894 H   0  0  0  0  0  0  0  0  0  0  0  0
   22.6273   -3.5151    6.2996 C   0  0  0  0  0  0  0  0  0  0  0  0
   23.7869   -2.4918    6.2148 C   0  0  0  0  0  0  0  0  0  0  0  0
   24.5346   -2.0871    7.5009 C   0  0  0  0  0  0  0  0  0  0  0  0
   25.6735   -2.9950    7.9726 C   0  0  0  0  0  0  0  0  0  0  0  0
   26.7515   -3.2145    6.9207 C   0  0  0  0  0  0  0  0  0  0  0  0
   26.1929   -3.8888    5.6834 C   0  0  0  0  0  0  0  0  0  0  0  0
   24.9388   -2.9013    4.9004 S   0  0  0  0  0  0  0  0  0  0  0  0
   24.2728   -3.7472    3.9261 O   0  0  0  0  0  0  0  0  0  0  0  0
   25.5691   -1.6668    4.4687 O   0  0  0  0  0  0  0  0  0  0  0  0
   22.7756   -4.6761    7.2770 C   0  0  0  0  0  0  0  0  0  0  0  0
   22.4146   -4.4993    8.6274 C   0  0  0  0  0  0  0  0  0  0  0  0
   22.5405   -5.5471    9.5437 C   0  0  0  0  0  0  0  0  0  0  0  0
   23.0305   -6.7748    9.1190 C   0  0  0  0  0  0  0  0  0  0  0  0
   23.1374   -7.7841    9.9953 F   0  0  0  0  0  0  0  0  0  0  0  0
   23.4072   -6.9732    7.7976 C   0  0  0  0  0  0  0  0  0  0  0  0
   23.2854   -5.9270    6.8810 C   0  0  0  0  0  0  0  0  0  0  0  0
 11 10  1  0
 11 12  1  0
 12 13  1  0
 13 14  1  0
 14 15  1  0
 15 16  2  0
 16  6  1  0
  6  7  2  0
  6  8  1  0
  8  1  1  0
  1  2  1  0
  2  3  2  0
  3  4  1  0
 24  4  1  0
 24 33  1  0
 33 34  2  0
 34 35  1  0
 35 36  2  0
 36 37  1  0
 36 38  1  0
 38 39  2  0
 24 25  1  0
 25 26  1  0
 26 27  1  0
 27 28  1  0
 28 29  1  0
 29 30  1  0
 30 31  2  0
 30 32  2  0
  4  5  1  0
 16 17  1  0
 17 18  1  0
 19 18  1  0
 19 20  1  0
 20 21  1  0
 20 22  1  0
 19 11  1  0
 20 11  1  0
 17 13  2  0
  5  1  2  0
 39 33  1  0
 30 25  1  0
 14 23  1  0
  8  9  1  0
M  END
> <minimizedAffinity>
-11.51817

> <CNNscore>
0.9065988660

> <CNNaffinity>
8.3072624207

> <CNN_VS>
7.5313549042

> <CNNaffinity_variance>
0.0001943448

$$$$



 39 44  0  0  0  0  0  0  0  0999 V2000
   22.0322    0.0302    6.1985 C   0  0  0  0  0  0  0  0  0  0  0  0
   23.3661    0.0606    5.7415 C   0  0  0  0  0  0  0  0  0  0  0  0
   24.0224   -1.0740    6.0068 N   0  0  0  0  0  0  0  0  0  0  0  0
   23.1152   -1.8232    6.6691 N   0  0  0  0  0  0  0  0  0  0  0  0
   21.8969   -1.2036    6.7897 C   0  0  0  0  0  0  0  0  0  0  0  0
   19.7774    0.7248    5.5578 C   0  0  0  0  0  0  0  0  0  0  0  0
   19.4212   -0.3092    5.0008 O   0  0  0  0  0  0  0  0  0  0  0  0
   21.0186    0.9562    6.1137 N   0  0  0  0  0  0  0  0  0  0  0  0
   21.1925    1.8540    6.4782 H   0  0  0  0  0  0  0  0  0  0  0  0
   13.3212    3.0101    5.6079 C   0  0  0  0  0  0  0  0  0  0  0  0
   14.7219    2.8548    5.0825 C   0  0  0  0  0  0  0  0  0  0  0  0
   15.7411    3.7991    5.7136 C   0  0  0  0  0  0  0  0  0  0  0  0
   17.1042    3.2134    5.7961 C   0  0  0  0  0  0  0  0  0  0  0  0
   18.2059    3.8216    6.3078 N   0  0  0  0  0  0  0  0  0  0  0  0
   19.3050    3.0411    6.2796 N   0  0  0  0  0  0  0  0  0  0  0  0
   18.8776    1.8819    5.7221 C   0  0  0  0  0  0  0  0  0  0  0  0
   17.5012    1.9617    5.3865 C   0  0  0  0  0  0  0  0  0  0  0  0
   16.5907    0.9655    4.7594 C   0  0  0  0  0  0  0  0  0  0  0  0
   15.1694    1.4553    4.5974 C   0  0  0  0  0  0  0  0  0  0  0  0
   14.8757    2.5440    3.6286 C   0  0  0  0  0  0  0  0  0  0  0  0
   15.8753    3.1216    2.8810 F   0  0  0  0  0  0  0  0  0  0  0  0
   13.7679    2.4594    2.8136 F   0  0  0  0  0  0  0  0  0  0  0  0
   18.2022    4.7396    6.6633 H   0  0  0  0  0  0  0  0  0  0  0  0
   23.4563   -3.1743    7.1633 C   0  0  0  0  0  0  0  0  0  0  0  0
   22.6423   -4.2845    6.4535 C   0  0  0  0  0  0  0  0  0  0  0  0
   23.3607   -5.2522    5.4920 C   0  0  0  0  0  0  0  0  0  0  0  0
   24.0569   -6.4707    6.1041 C   0  0  0  0  0  0  0  0  0  0  0  0
   23.1340   -7.3379    6.9485 C   0  0  0  0  0  0  0  0  0  0  0  0
   22.5715   -6.5684    8.1272 C   0  0  0  0  0  0  0  0  0  0  0  0
   21.5942   -5.1781    7.6047 S   0  0  0  0  0  0  0  0  0  0  0  0
   21.3590   -4.3542    8.7770 O   0  0  0  0  0  0  0  0  0  0  0  0
   20.4658   -5.7012    6.8558 O   0  0  0  0  0  0  0  0  0  0  0  0
   24.9690   -3.3475    7.2476 C   0  0  0  0  0  0  0  0  0  0  0  0
   25.5555   -3.7610    8.4602 C   0  0  0  0  0  0  0  0  0  0  0  0
   26.9392   -3.9277    8.5643 C   0  0  0  0  0  0  0  0  0  0  0  0
   27.7452   -3.6789    7.4614 C   0  0  0  0  0  0  0  0  0  0  0  0
   29.0712   -3.8528    7.5576 F   0  0  0  0  0  0  0  0  0  0  0  0
   27.1960   -3.2567    6.2583 C   0  0  0  0  0  0  0  0  0  0  0  0
   25.8142   -3.0865    6.1527 C   0  0  0  0  0  0  0  0  0  0  0  0
 11 10  1  0
 11 12  1  0
 12 13  1  0
 13 14  1  0
 14 15  1  0
 15 16  2  0
 16  6  1  0
  6  7  2  0
  6  8  1  0
  8  1  1  0
  1  2  1  0
  2  3  2  0
  3  4  1  0
 24  4  1  0
 24 33  1  0
 33 34  2  0
 34 35  1  0
 35 36  2  0
 36 37  1  0
 36 38  1  0
 38 39  2  0
 24 25  1  0
 25 26  1  0
 26 27  1  0
 27 28  1  0
 28 29  1  0
 29 30  1  0
 30 31  2  0
 30 32  2  0
  4  5  1  0
 16 17  1  0
 17 18  1  0
 19 18  1  0
 19 20  1  0
 20 21  1  0
 20 22  1  0
 19 11  1  0
 20 11  1  0
 17 13  2  0
  5  1  2  0
 39 33  1  0
 30 25  1  0
 14 23  1  0
  8  9  1  0
M  END
> <minimizedAffinity>
-11.58526

> <CNNscore>
0.8996437788

> <CNNaffinity>
8.0858259201

> <CNN_VS>
7.2743630409

> <CNNaffinity_variance>
0.1180140078

$$$$



 39 44  0  0  0  0  0  0  0  0999 V2000
   21.9639   -0.8356    5.9719 C   0  0  0  0  0  0  0  0  0  0  0  0
   21.7565   -2.2305    5.9537 C   0  0  0  0  0  0  0  0  0  0  0  0
   22.9013   -2.9177    6.0305 N   0  0  0  0  0  0  0  0  0  0  0  0
   23.8509   -1.9584    6.0626 N   0  0  0  0  0  0  0  0  0  0  0  0
   23.3288   -0.6896    6.0485 C   0  0  0  0  0  0  0  0  0  0  0  0
   19.7374    0.1167    5.6370 C   0  0  0  0  0  0  0  0  0  0  0  0
   19.1534   -0.9058    5.2913 O   0  0  0  0  0  0  0  0  0  0  0  0
   21.0799    0.2175    5.9382 N   0  0  0  0  0  0  0  0  0  0  0  0
   21.4327    1.1131    6.1450 H   0  0  0  0  0  0  0  0  0  0  0  0
   13.7319    3.3992    5.8954 C   0  0  0  0  0  0  0  0  0  0  0  0
   15.0614    3.0065    5.3121 C   0  0  0  0  0  0  0  0  0  0  0  0
   16.2478    3.7968    5.8566 C   0  0  0  0  0  0  0  0  0  0  0  0
   17.5044    3.0049    5.8991 C   0  0  0  0  0  0  0  0  0  0  0  0
   18.7132    3.4465    6.3342 N   0  0  0  0  0  0  0  0  0  0  0  0
   19.6730    2.5008    6.2863 N   0  0  0  0  0  0  0  0  0  0  0  0
   19.0403    1.4069    5.7963 C   0  0  0  0  0  0  0  0  0  0  0  0
   17.6779    1.6934    5.5222 C   0  0  0  0  0  0  0  0  0  0  0  0
   16.5906    0.8348    4.9787 C   0  0  0  0  0  0  0  0  0  0  0  0
   15.2575    1.5387    4.8634 C   0  0  0  0  0  0  0  0  0  0  0  0
   15.0882    2.6283    3.8663 C   0  0  0  0  0  0  0  0  0  0  0  0
   16.1256    3.0153    3.0504 F   0  0  0  0  0  0  0  0  0  0  0  0
   13.9397    2.6945    3.1078 F   0  0  0  0  0  0  0  0  0  0  0  0
   18.8724    4.3645    6.6523 H   0  0  0  0  0  0  0  0  0  0  0  0
   25.2859   -2.3076    6.1324 C   0  0  0  0  0  0  0  0  0  0  0  0
   25.6281   -3.1463    7.3888 C   0  0  0  0  0  0  0  0  0  0  0  0
   25.0564   -2.7264    8.7577 C   0  0  0  0  0  0  0  0  0  0  0  0
   23.6424   -3.1973    9.1083 C   0  0  0  0  0  0  0  0  0  0  0  0
   23.4687   -4.7077    9.0345 C   0  0  0  0  0  0  0  0  0  0  0  0
   23.7253   -5.2298    7.6348 C   0  0  0  0  0  0  0  0  0  0  0  0
   25.3889   -4.9018    7.1003 S   0  0  0  0  0  0  0  0  0  0  0  0
   25.4407   -5.1641    5.6731 O   0  0  0  0  0  0  0  0  0  0  0  0
   26.2788   -5.6189    7.9956 O   0  0  0  0  0  0  0  0  0  0  0  0
   25.7792   -2.8178    4.7827 C   0  0  0  0  0  0  0  0  0  0  0  0
   27.1603   -2.8247    4.5038 C   0  0  0  0  0  0  0  0  0  0  0  0
   27.6388   -3.2873    3.2749 C   0  0  0  0  0  0  0  0  0  0  0  0
   26.7425   -3.7415    2.3166 C   0  0  0  0  0  0  0  0  0  0  0  0
   27.2029   -4.1987    1.1433 F   0  0  0  0  0  0  0  0  0  0  0  0
   25.3755   -3.7330    2.5587 C   0  0  0  0  0  0  0  0  0  0  0  0
   24.8949   -3.2683    3.7846 C   0  0  0  0  0  0  0  0  0  0  0  0
 11 10  1  0
 11 12  1  0
 12 13  1  0
 13 14  1  0
 14 15  1  0
 15 16  2  0
 16  6  1  0
  6  7  2  0
  6  8  1  0
  8  1  1  0
  1  2  1  0
  2  3  2  0
  3  4  1  0
 24  4  1  0
 24 33  1  0
 33 34  2  0
 34 35  1  0
 35 36  2  0
 36 37  1  0
 36 38  1  0
 38 39  2  0
 24 25  1  0
 25 26  1  0
 26 27  1  0
 27 28  1  0
 28 29  1  0
 29 30  1  0
 30 31  2  0
 30 32  2  0
  4  5  1  0
 16 17  1  0
 17 18  1  0
 19 18  1  0
 19 20  1  0
 20 21  1  0
 20 22  1  0
 19 11  1  0
 20 11  1  0
 17 13  2  0
  5  1  2  0
 39 33  1  0
 30 25  1  0
 14 23  1  0
  8  9  1  0
M  END
> <minimizedAffinity>
-10.75169

> <CNNscore>
0.8817394972

> <CNNaffinity>
7.9674744606

> <CNN_VS>
7.0252370834

> <CNNaffinity_variance>
0.0326990969

$$$$
