


 22 24  0  0  0  0  0  0  0  0999 V2000
    6.0316   69.8870   65.9594 C   0  0  0  0  0  0  0  0  0  0  0  0
    5.6568   69.4578   64.5747 C   0  0  0  0  0  0  0  0  0  0  0  0
    4.7468   68.5257   64.2081 C   0  0  0  0  0  0  0  0  0  0  0  0
    3.9389   67.6943   65.1895 C   0  0  0  0  0  0  0  0  0  0  0  0
    4.0676   66.2113   64.8952 C   0  0  0  0  0  0  0  0  0  0  0  0
    4.4972   65.7211   63.7172 C   0  0  0  0  0  0  0  0  0  0  0  0
    4.6502   64.2526   63.4570 C   0  0  0  0  0  0  0  0  0  0  0  0
    4.8479   66.6511   62.5669 C   0  0  0  0  0  0  0  0  0  0  0  0
    4.3542   68.1268   62.7595 C   0  0  0  0  0  0  0  0  0  0  0  0
    5.0412   69.0095   61.8053 N   0  0  0  0  0  0  0  0  0  0  0  0
    2.8053   68.2132   62.5684 C   0  0  0  0  0  0  0  0  0  0  0  0
    2.1488   68.2212   61.2407 C   0  0  0  0  0  0  0  0  0  0  0  0
    3.0848   67.9035   59.6392 Br  0  0  0  0  0  0  0  0  0  0  0  0
    0.8208   68.3978   61.1273 C   0  0  0  0  0  0  0  0  0  0  0  0
   -0.0193   68.5437   62.3246 C   0  0  0  0  0  0  0  0  0  0  0  0
   -1.2278   68.7242   62.2415 O   0  0  0  0  0  0  0  0  0  0  0  0
    0.6331   68.4365   63.5179 N   0  0  0  0  0  0  0  0  0  0  0  0
    1.9935   68.2770   63.6574 C   0  0  0  0  0  0  0  0  0  0  0  0
    2.4817   68.1660   65.0872 C   0  0  0  0  0  0  0  0  0  0  0  0
    4.7835   68.7478   60.8537 H   0  0  0  0  0  0  0  0  0  0  0  0
    6.0502   68.9168   61.9220 H   0  0  0  0  0  0  0  0  0  0  0  0
    0.0917   68.4761   64.3391 H   0  0  0  0  0  0  0  0  0  0  0  0
  1  2  1  0
  2  3  2  0
  3  4  1  0
  4  5  1  0
  5  6  2  0
  6  7  1  0
  6  8  1  0
  8  9  1  0
  9 10  1  0
  9 11  1  0
 11 12  1  0
 12 13  1  0
 12 14  2  0
 14 15  1  0
 15 16  2  0
 15 17  1  0
 17 18  1  0
 18 19  1  0
  9  3  1  0
 18 11  2  0
  4 19  1  0
 10 20  1  0
 10 21  1  0
 17 22  1  0
M  END
> <minimizedAffinity>
-9.95957

> <CNNscore>
0.9410412312

> <CNNaffinity>
7.3124127388

> <CNN_VS>
6.8812818527

> <CNNaffinity_variance>
0.2060109824

$$$$



 22 24  0  0  0  0  0  0  0  0999 V2000
    4.9607   63.5939   63.4639 C   0  0  0  0  0  0  0  0  0  0  0  0
    3.8887   64.4898   64.0028 C   0  0  0  0  0  0  0  0  0  0  0  0
    3.7464   65.8230   63.8204 C   0  0  0  0  0  0  0  0  0  0  0  0
    4.7172   66.6811   63.0279 C   0  0  0  0  0  0  0  0  0  0  0  0
    5.1917   67.8726   63.8390 C   0  0  0  0  0  0  0  0  0  0  0  0
    4.5552   68.3278   64.9345 C   0  0  0  0  0  0  0  0  0  0  0  0
    5.0586   69.4858   65.7427 C   0  0  0  0  0  0  0  0  0  0  0  0
    3.2642   67.6818   65.4110 C   0  0  0  0  0  0  0  0  0  0  0  0
    2.6015   66.7204   64.3647 C   0  0  0  0  0  0  0  0  0  0  0  0
    1.5946   65.8801   65.0291 N   0  0  0  0  0  0  0  0  0  0  0  0
    1.9508   67.5414   63.2047 C   0  0  0  0  0  0  0  0  0  0  0  0
    0.6432   68.2260   63.3270 C   0  0  0  0  0  0  0  0  0  0  0  0
   -0.2806   68.3744   64.9600 Br  0  0  0  0  0  0  0  0  0  0  0  0
    0.0803   68.8353   62.2689 C   0  0  0  0  0  0  0  0  0  0  0  0
    0.7722   68.8741   60.9727 C   0  0  0  0  0  0  0  0  0  0  0  0
    0.2677   69.4076   59.9925 O   0  0  0  0  0  0  0  0  0  0  0  0
    2.0118   68.3049   60.9502 N   0  0  0  0  0  0  0  0  0  0  0  0
    2.5982   67.6578   62.0145 C   0  0  0  0  0  0  0  0  0  0  0  0
    3.9900   67.1215   61.7498 C   0  0  0  0  0  0  0  0  0  0  0  0
    0.8425   66.4692   65.3867 H   0  0  0  0  0  0  0  0  0  0  0  0
    2.0288   65.3764   65.8025 H   0  0  0  0  0  0  0  0  0  0  0  0
    2.5245   68.3610   60.1116 H   0  0  0  0  0  0  0  0  0  0  0  0
  1  2  1  0
  2  3  2  0
  3  4  1  0
  4  5  1  0
  5  6  2  0
  6  7  1  0
  6  8  1  0
  8  9  1  0
  9 10  1  0
  9 11  1  0
 11 12  1  0
 12 13  1  0
 12 14  2  0
 14 15  1  0
 15 16  2  0
 15 17  1  0
 17 18  1  0
 18 19  1  0
  9  3  1  0
 18 11  2  0
  4 19  1  0
 10 20  1  0
 10 21  1  0
 17 22  1  0
M  END
> <minimizedAffinity>
-10.81291

> <CNNscore>
0.9204798341

> <CNNaffinity>
7.2524170876

> <CNN_VS>
6.6757035255

> <CNNaffinity_variance>
0.2616338432

$$$$



 22 24  0  0  0  0  0  0  0  0999 V2000
   -0.1771   64.3492   74.2696 C   0  0  0  0  0  0  0  0  0  0  0  0
    0.5647   63.0818   74.5617 C   0  0  0  0  0  0  0  0  0  0  0  0
    0.4845   61.8992   73.9089 C   0  0  0  0  0  0  0  0  0  0  0  0
   -0.4424   61.6376   72.7344 C   0  0  0  0  0  0  0  0  0  0  0  0
   -1.2970   60.4056   72.9679 C   0  0  0  0  0  0  0  0  0  0  0  0
   -1.0060   59.4605   73.8816 C   0  0  0  0  0  0  0  0  0  0  0  0
   -1.8813   58.2672   74.1213 C   0  0  0  0  0  0  0  0  0  0  0  0
    0.2540   59.5549   74.7268 C   0  0  0  0  0  0  0  0  0  0  0  0
    1.2947   60.6099   74.2146 C   0  0  0  0  0  0  0  0  0  0  0  0
    2.2799   60.8894   75.2695 N   0  0  0  0  0  0  0  0  0  0  0  0
    2.0068   60.0916   72.9234 C   0  0  0  0  0  0  0  0  0  0  0  0
    3.1031   59.0959   72.9432 C   0  0  0  0  0  0  0  0  0  0  0  0
    3.6143   58.1740   74.5023 Br  0  0  0  0  0  0  0  0  0  0  0  0
    3.7500   58.7575   71.8143 C   0  0  0  0  0  0  0  0  0  0  0  0
    3.3538   59.3369   70.5228 C   0  0  0  0  0  0  0  0  0  0  0  0
    3.9429   59.0558   69.4865 O   0  0  0  0  0  0  0  0  0  0  0  0
    2.2795   60.1769   70.5595 N   0  0  0  0  0  0  0  0  0  0  0  0
    1.6161   60.5535   71.7056 C   0  0  0  0  0  0  0  0  0  0  0  0
    0.4409   61.4844   71.4884 C   0  0  0  0  0  0  0  0  0  0  0  0
    2.8122   60.0428   75.4705 H   0  0  0  0  0  0  0  0  0  0  0  0
    1.7964   61.1955   76.1139 H   0  0  0  0  0  0  0  0  0  0  0  0
    1.9550   60.5403   69.7040 H   0  0  0  0  0  0  0  0  0  0  0  0
  1  2  1  0
  2  3  2  0
  3  4  1  0
  4  5  1  0
  5  6  2  0
  6  7  1  0
  6  8  1  0
  8  9  1  0
  9 10  1  0
  9 11  1  0
 11 12  1  0
 12 13  1  0
 12 14  2  0
 14 15  1  0
 15 16  2  0
 15 17  1  0
 17 18  1  0
 18 19  1  0
  9  3  1  0
 18 11  2  0
  4 19  1  0
 10 20  1  0
 10 21  1  0
 17 22  1  0
M  END
> <minimizedAffinity>
-7.00278

> <CNNscore>
0.6309468150

> <CNNaffinity>
5.8185939789

> <CNN_VS>
3.6712234020

> <CNNaffinity_variance>
0.1200038567

$$$$



 22 24  0  0  0  0  0  0  0  0999 V2000
    3.0123   68.1191   59.4101 C   0  0  0  0  0  0  0  0  0  0  0  0
    2.5791   68.1025   60.8433 C   0  0  0  0  0  0  0  0  0  0  0  0
    3.2854   67.6955   61.9234 C   0  0  0  0  0  0  0  0  0  0  0  0
    4.6924   67.1276   61.8544 C   0  0  0  0  0  0  0  0  0  0  0  0
    4.7836   65.7879   62.5612 C   0  0  0  0  0  0  0  0  0  0  0  0
    3.8737   65.3543   63.4537 C   0  0  0  0  0  0  0  0  0  0  0  0
    3.9630   64.0124   64.1164 C   0  0  0  0  0  0  0  0  0  0  0  0
    2.6911   66.2248   63.8474 C   0  0  0  0  0  0  0  0  0  0  0  0
    2.8201   67.7234   63.4049 C   0  0  0  0  0  0  0  0  0  0  0  0
    1.5091   68.3829   63.4940 N   0  0  0  0  0  0  0  0  0  0  0  0
    3.8688   68.4666   64.2943 C   0  0  0  0  0  0  0  0  0  0  0  0
    3.5772   68.9496   65.6637 C   0  0  0  0  0  0  0  0  0  0  0  0
    1.9854   68.5288   66.5753 Br  0  0  0  0  0  0  0  0  0  0  0  0
    4.4812   69.6710   66.3493 C   0  0  0  0  0  0  0  0  0  0  0  0
    5.8010   69.9608   65.7710 C   0  0  0  0  0  0  0  0  0  0  0  0
    6.6307   70.6321   66.3718 O   0  0  0  0  0  0  0  0  0  0  0  0
    6.0400   69.4112   64.5454 N   0  0  0  0  0  0  0  0  0  0  0  0
    5.1227   68.6878   63.8169 C   0  0  0  0  0  0  0  0  0  0  0  0
    5.6291   68.1655   62.4882 C   0  0  0  0  0  0  0  0  0  0  0  0
    1.2033   68.4014   64.4669 H   0  0  0  0  0  0  0  0  0  0  0  0
    0.8303   67.8672   62.9340 H   0  0  0  0  0  0  0  0  0  0  0  0
    6.9336   69.5414   64.1534 H   0  0  0  0  0  0  0  0  0  0  0  0
  1  2  1  0
  2  3  2  0
  3  4  1  0
  4  5  1  0
  5  6  2  0
  6  7  1  0
  6  8  1  0
  8  9  1  0
  9 10  1  0
  9 11  1  0
 11 12  1  0
 12 13  1  0
 12 14  2  0
 14 15  1  0
 15 16  2  0
 15 17  1  0
 17 18  1  0
 18 19  1  0
  9  3  1  0
 18 11  2  0
  4 19  1  0
 10 20  1  0
 10 21  1  0
 17 22  1  0
M  END
> <minimizedAffinity>
-9.00305

> <CNNscore>
0.6191157699

> <CNNaffinity>
6.7446608543

> <CNN_VS>
4.1757259369

> <CNNaffinity_variance>
0.0785070509

$$$$



 22 24  0  0  0  0  0  0  0  0999 V2000
    1.5288   69.5150   67.8944 C   0  0  0  0  0  0  0  0  0  0  0  0
    2.5968   69.2841   66.8706 C   0  0  0  0  0  0  0  0  0  0  0  0
    2.6231   68.3539   65.8882 C   0  0  0  0  0  0  0  0  0  0  0  0
    1.5358   67.3158   65.6710 C   0  0  0  0  0  0  0  0  0  0  0  0
    2.1129   65.9134   65.6166 C   0  0  0  0  0  0  0  0  0  0  0  0
    3.4144   65.6527   65.3916 C   0  0  0  0  0  0  0  0  0  0  0  0
    3.9720   64.2611   65.3755 C   0  0  0  0  0  0  0  0  0  0  0  0
    4.4013   66.7790   65.1297 C   0  0  0  0  0  0  0  0  0  0  0  0
    3.7313   68.1617   64.8173 C   0  0  0  0  0  0  0  0  0  0  0  0
    4.7265   69.2365   64.9440 N   0  0  0  0  0  0  0  0  0  0  0  0
    3.1113   68.1557   63.3825 C   0  0  0  0  0  0  0  0  0  0  0  0
    3.9137   68.3238   62.1490 C   0  0  0  0  0  0  0  0  0  0  0  0
    5.7957   68.3401   62.1520 Br  0  0  0  0  0  0  0  0  0  0  0  0
    3.3211   68.4114   60.9454 C   0  0  0  0  0  0  0  0  0  0  0  0
    1.8609   68.2980   60.8206 C   0  0  0  0  0  0  0  0  0  0  0  0
    1.3009   68.3941   59.7357 O   0  0  0  0  0  0  0  0  0  0  0  0
    1.1883   68.0534   61.9820 N   0  0  0  0  0  0  0  0  0  0  0  0
    1.7717   67.9810   63.2270 C   0  0  0  0  0  0  0  0  0  0  0  0
    0.8174   67.6820   64.3648 C   0  0  0  0  0  0  0  0  0  0  0  0
    5.4545   69.1105   64.2408 H   0  0  0  0  0  0  0  0  0  0  0  0
    5.1435   69.2058   65.8744 H   0  0  0  0  0  0  0  0  0  0  0  0
    0.2147   67.9188   61.9258 H   0  0  0  0  0  0  0  0  0  0  0  0
  1  2  1  0
  2  3  2  0
  3  4  1  0
  4  5  1  0
  5  6  2  0
  6  7  1  0
  6  8  1  0
  8  9  1  0
  9 10  1  0
  9 11  1  0
 11 12  1  0
 12 13  1  0
 12 14  2  0
 14 15  1  0
 15 16  2  0
 15 17  1  0
 17 18  1  0
 18 19  1  0
  9  3  1  0
 18 11  2  0
  4 19  1  0
 10 20  1  0
 10 21  1  0
 17 22  1  0
M  END
> <minimizedAffinity>
-9.71105

> <CNNscore>
0.6090750694

> <CNNaffinity>
6.9599099159

> <CNN_VS>
4.2391076088

> <CNNaffinity_variance>
0.3393758237

$$$$



 22 24  0  0  0  0  0  0  0  0999 V2000
    6.9588   70.4962   66.3142 C   0  0  0  0  0  0  0  0  0  0  0  0
    5.5700   70.0032   66.0491 C   0  0  0  0  0  0  0  0  0  0  0  0
    5.1802   69.0264   65.1977 C   0  0  0  0  0  0  0  0  0  0  0  0
    6.1297   68.2525   64.2997 C   0  0  0  0  0  0  0  0  0  0  0  0
    5.6759   68.2896   62.8521 C   0  0  0  0  0  0  0  0  0  0  0  0
    4.4245   68.6100   62.4728 C   0  0  0  0  0  0  0  0  0  0  0  0
    4.0040   68.6744   61.0352 C   0  0  0  0  0  0  0  0  0  0  0  0
    3.3524   68.9209   63.5048 C   0  0  0  0  0  0  0  0  0  0  0  0
    3.7324   68.5125   64.9701 C   0  0  0  0  0  0  0  0  0  0  0  0
    2.8242   69.1702   65.9211 N   0  0  0  0  0  0  0  0  0  0  0  0
    3.6698   66.9597   65.1374 C   0  0  0  0  0  0  0  0  0  0  0  0
    2.4039   66.2109   65.3117 C   0  0  0  0  0  0  0  0  0  0  0  0
    0.7115   67.0136   65.1286 Br  0  0  0  0  0  0  0  0  0  0  0  0
    2.4107   64.8880   65.5516 C   0  0  0  0  0  0  0  0  0  0  0  0
    3.6772   64.1437   65.6030 C   0  0  0  0  0  0  0  0  0  0  0  0
    3.7054   62.9422   65.8390 O   0  0  0  0  0  0  0  0  0  0  0  0
    4.7999   64.8742   65.3445 N   0  0  0  0  0  0  0  0  0  0  0  0
    4.8183   66.2320   65.1176 C   0  0  0  0  0  0  0  0  0  0  0  0
    6.1877   66.8156   64.8367 C   0  0  0  0  0  0  0  0  0  0  0  0
    1.8733   68.8329   65.7719 H   0  0  0  0  0  0  0  0  0  0  0  0
    2.8536   70.1795   65.7767 H   0  0  0  0  0  0  0  0  0  0  0  0
    5.6598   64.3954   65.3183 H   0  0  0  0  0  0  0  0  0  0  0  0
  1  2  1  0
  2  3  2  0
  3  4  1  0
  4  5  1  0
  5  6  2  0
  6  7  1  0
  6  8  1  0
  8  9  1  0
  9 10  1  0
  9 11  1  0
 11 12  1  0
 12 13  1  0
 12 14  2  0
 14 15  1  0
 15 16  2  0
 15 17  1  0
 17 18  1  0
 18 19  1  0
  9  3  1  0
 18 11  2  0
  4 19  1  0
 10 20  1  0
 10 21  1  0
 17 22  1  0
M  END
> <minimizedAffinity>
-6.30702

> <CNNscore>
0.5498079658

> <CNNaffinity>
6.8573012352

> <CNN_VS>
3.7701988220

> <CNNaffinity_variance>
0.4850050509

$$$$



 22 24  0  0  0  0  0  0  0  0999 V2000
    3.3944   63.2331   64.6227 C   0  0  0  0  0  0  0  0  0  0  0  0
    3.8901   64.3689   63.7821 C   0  0  0  0  0  0  0  0  0  0  0  0
    3.5552   65.6772   63.8670 C   0  0  0  0  0  0  0  0  0  0  0  0
    2.5453   66.2339   64.8554 C   0  0  0  0  0  0  0  0  0  0  0  0
    1.4802   67.0563   64.1540 C   0  0  0  0  0  0  0  0  0  0  0  0
    1.6230   67.5539   62.9112 C   0  0  0  0  0  0  0  0  0  0  0  0
    0.5454   68.3356   62.2216 C   0  0  0  0  0  0  0  0  0  0  0  0
    2.9130   67.3503   62.1331 C   0  0  0  0  0  0  0  0  0  0  0  0
    4.1143   66.8395   63.0017 C   0  0  0  0  0  0  0  0  0  0  0  0
    5.1797   66.3296   62.1263 N   0  0  0  0  0  0  0  0  0  0  0  0
    4.6565   67.9883   63.9124 C   0  0  0  0  0  0  0  0  0  0  0  0
    5.5402   69.0693   63.4183 C   0  0  0  0  0  0  0  0  0  0  0  0
    5.9312   69.3118   61.5934 Br  0  0  0  0  0  0  0  0  0  0  0  0
    6.0602   69.9772   64.2627 C   0  0  0  0  0  0  0  0  0  0  0  0
    5.7275   69.9442   65.6941 C   0  0  0  0  0  0  0  0  0  0  0  0
    6.2058   70.7506   66.4821 O   0  0  0  0  0  0  0  0  0  0  0  0
    4.8378   68.9805   66.0693 N   0  0  0  0  0  0  0  0  0  0  0  0
    4.3097   68.0284   65.2266 C   0  0  0  0  0  0  0  0  0  0  0  0
    3.3276   67.0741   65.8744 C   0  0  0  0  0  0  0  0  0  0  0  0
    5.5470   67.0928   61.5579 H   0  0  0  0  0  0  0  0  0  0  0  0
    4.8013   65.6039   61.5175 H   0  0  0  0  0  0  0  0  0  0  0  0
    4.5526   68.9647   67.0115 H   0  0  0  0  0  0  0  0  0  0  0  0
  1  2  1  0
  2  3  2  0
  3  4  1  0
  4  5  1  0
  5  6  2  0
  6  7  1  0
  6  8  1  0
  8  9  1  0
  9 10  1  0
  9 11  1  0
 11 12  1  0
 12 13  1  0
 12 14  2  0
 14 15  1  0
 15 16  2  0
 15 17  1  0
 17 18  1  0
 18 19  1  0
  9  3  1  0
 18 11  2  0
  4 19  1  0
 10 20  1  0
 10 21  1  0
 17 22  1  0
M  END
> <minimizedAffinity>
-7.16646

> <CNNscore>
0.4979315996

> <CNNaffinity>
6.5723323822

> <CNN_VS>
3.2725720406

> <CNNaffinity_variance>
0.0331228077

$$$$



 22 24  0  0  0  0  0  0  0  0999 V2000
   -0.3249   64.0761   74.9282 C   0  0  0  0  0  0  0  0  0  0  0  0
    0.7440   63.1042   74.5347 C   0  0  0  0  0  0  0  0  0  0  0  0
    0.7140   62.1903   73.5371 C   0  0  0  0  0  0  0  0  0  0  0  0
   -0.4811   61.9637   72.6275 C   0  0  0  0  0  0  0  0  0  0  0  0
   -0.8878   60.5020   72.6023 C   0  0  0  0  0  0  0  0  0  0  0  0
   -0.0821   59.4987   72.9982 C   0  0  0  0  0  0  0  0  0  0  0  0
   -0.5143   58.0631   72.9981 C   0  0  0  0  0  0  0  0  0  0  0  0
    1.3371   59.7769   73.4669 C   0  0  0  0  0  0  0  0  0  0  0  0
    1.8547   61.2181   73.1302 C   0  0  0  0  0  0  0  0  0  0  0  0
    3.0562   61.5132   73.9245 N   0  0  0  0  0  0  0  0  0  0  0  0
    2.1630   61.3443   71.6031 C   0  0  0  0  0  0  0  0  0  0  0  0
    3.3939   60.8112   70.9752 C   0  0  0  0  0  0  0  0  0  0  0  0
    4.6223   59.7263   71.9005 Br  0  0  0  0  0  0  0  0  0  0  0  0
    3.6590   61.0331   69.6759 C   0  0  0  0  0  0  0  0  0  0  0  0
    2.7088   61.7749   68.8348 C   0  0  0  0  0  0  0  0  0  0  0  0
    2.9409   62.0036   67.6542 O   0  0  0  0  0  0  0  0  0  0  0  0
    1.5539   62.1597   69.4505 N   0  0  0  0  0  0  0  0  0  0  0  0
    1.2711   61.9620   70.7833 C   0  0  0  0  0  0  0  0  0  0  0  0
   -0.0861   62.4641   71.2311 C   0  0  0  0  0  0  0  0  0  0  0  0
    3.8055   60.8749   73.6575 H   0  0  0  0  0  0  0  0  0  0  0  0
    2.8460   61.3952   74.9156 H   0  0  0  0  0  0  0  0  0  0  0  0
    0.8730   62.6118   68.9017 H   0  0  0  0  0  0  0  0  0  0  0  0
  1  2  1  0
  2  3  2  0
  3  4  1  0
  4  5  1  0
  5  6  2  0
  6  7  1  0
  6  8  1  0
  8  9  1  0
  9 10  1  0
  9 11  1  0
 11 12  1  0
 12 13  1  0
 12 14  2  0
 14 15  1  0
 15 16  2  0
 15 17  1  0
 17 18  1  0
 18 19  1  0
  9  3  1  0
 18 11  2  0
  4 19  1  0
 10 20  1  0
 10 21  1  0
 17 22  1  0
M  END
> <minimizedAffinity>
-7.44707

> <CNNscore>
0.4739835262

> <CNNaffinity>
5.8416676521

> <CNN_VS>
2.7688541412

> <CNNaffinity_variance>
0.0680861697

$$$$



 22 24  0  0  0  0  0  0  0  0999 V2000
   -1.7081   58.8495   73.8051 C   0  0  0  0  0  0  0  0  0  0  0  0
   -1.1457   59.9800   73.0002 C   0  0  0  0  0  0  0  0  0  0  0  0
   -0.0136   60.6848   73.2298 C   0  0  0  0  0  0  0  0  0  0  0  0
    0.9025   60.4578   74.4199 C   0  0  0  0  0  0  0  0  0  0  0  0
    1.1584   61.7489   75.1751 C   0  0  0  0  0  0  0  0  0  0  0  0
    0.9430   62.9712   74.6533 C   0  0  0  0  0  0  0  0  0  0  0  0
    1.1696   64.2350   75.4273 C   0  0  0  0  0  0  0  0  0  0  0  0
    0.4571   63.1335   73.2220 C   0  0  0  0  0  0  0  0  0  0  0  0
    0.5631   61.8312   72.3552 C   0  0  0  0  0  0  0  0  0  0  0  0
   -0.2502   61.9758   71.1390 N   0  0  0  0  0  0  0  0  0  0  0  0
    2.0540   61.5414   71.9860 C   0  0  0  0  0  0  0  0  0  0  0  0
    2.7788   62.2553   70.9096 C   0  0  0  0  0  0  0  0  0  0  0  0
    2.0607   63.7457   70.0123 Br  0  0  0  0  0  0  0  0  0  0  0  0
    4.0287   61.9000   70.5644 C   0  0  0  0  0  0  0  0  0  0  0  0
    4.7236   60.8199   71.2793 C   0  0  0  0  0  0  0  0  0  0  0  0
    5.8548   60.4690   70.9675 O   0  0  0  0  0  0  0  0  0  0  0  0
    4.0361   60.2646   72.3185 N   0  0  0  0  0  0  0  0  0  0  0  0
    2.7489   60.5978   72.6758 C   0  0  0  0  0  0  0  0  0  0  0  0
    2.2049   59.8531   73.8775 C   0  0  0  0  0  0  0  0  0  0  0  0
    0.1283   62.7287   70.5643 H   0  0  0  0  0  0  0  0  0  0  0  0
   -1.2121   62.1959   71.3973 H   0  0  0  0  0  0  0  0  0  0  0  0
    4.4937   59.5752   72.8519 H   0  0  0  0  0  0  0  0  0  0  0  0
  1  2  1  0
  2  3  2  0
  3  4  1  0
  4  5  1  0
  5  6  2  0
  6  7  1  0
  6  8  1  0
  8  9  1  0
  9 10  1  0
  9 11  1  0
 11 12  1  0
 12 13  1  0
 12 14  2  0
 14 15  1  0
 15 16  2  0
 15 17  1  0
 17 18  1  0
 18 19  1  0
  9  3  1  0
 18 11  2  0
  4 19  1  0
 10 20  1  0
 10 21  1  0
 17 22  1  0
M  END
> <minimizedAffinity>
-7.10185

> <CNNscore>
0.4208099842

> <CNNaffinity>
5.8330273628

> <CNN_VS>
2.4545960426

> <CNNaffinity_variance>
0.3333871067

$$$$
