


 31 32  0  0  0  0  0  0  0  0999 V2000
  -17.0919    7.8349   28.2755 C   0  0  0  0  0  0  0  0  0  0  0  0
  -18.4844    8.1331   27.7086 C   0  0  0  0  0  0  0  0  0  0  0  0
  -19.3243    8.5828   28.8862 C   0  0  0  0  0  0  0  0  0  0  0  0
  -20.2208    7.5691   29.3491 O   0  0  0  0  0  0  0  0  0  0  0  0
  -19.7027    6.6373   30.2980 C   0  0  0  0  0  0  0  0  0  0  0  0
  -19.0714    7.2956   31.5338 C   0  0  0  0  0  0  0  0  0  0  0  0
  -17.8392    6.6388   31.8811 O   0  0  0  0  0  0  0  0  0  0  0  0
  -18.8226    8.7949   31.3222 C   0  0  0  0  0  0  0  0  0  0  0  0
  -17.8927    9.2853   32.2935 O   0  0  0  0  0  0  0  0  0  0  0  0
  -18.3096    9.0503   29.9092 C   0  0  0  0  0  0  0  0  0  0  0  0
  -17.1101    8.2963   29.6579 O   0  0  0  0  0  0  0  0  0  0  0  0
  -17.2058    6.7336   31.1525 H   0  0  0  0  0  0  0  0  0  0  0  0
  -17.0472    8.8201   32.1954 H   0  0  0  0  0  0  0  0  0  0  0  0
  -16.7939    6.3318   28.3468 C   0  0  0  0  0  0  0  0  0  0  0  0
  -17.3829    5.4531   27.7332 O   0  0  0  0  0  0  0  0  0  0  0  0
  -15.7689    6.0089   29.1576 O   0  0  0  0  0  0  0  0  0  0  0  0
  -15.3153    6.6796   29.6292 H   0  0  0  0  0  0  0  0  0  0  0  0
  -15.9286    8.6007   27.6058 C   0  0  0  0  0  0  0  0  0  0  0  0
  -14.8027    9.1942   28.4871 C   0  0  0  0  0  0  0  0  0  0  0  0
  -15.4351   10.0808   29.4691 N   0  0  0  0  0  0  0  0  0  0  0  0
  -15.9185   10.8363   28.9833 H   0  0  0  0  0  0  0  0  0  0  0  0
  -14.7208   10.4732   30.0825 H   0  0  0  0  0  0  0  0  0  0  0  0
  -13.7247    9.9616   27.6881 C   0  0  0  0  0  0  0  0  0  0  0  0
  -13.1720    9.3467   26.3572 C   0  0  0  0  0  0  0  0  0  0  0  0
  -14.0547    8.1456   25.9313 C   0  0  0  0  0  0  0  0  0  0  0  0
  -11.7345    8.8328   26.5178 C   0  0  0  0  0  0  0  0  0  0  0  0
  -13.2786   10.3937   25.1869 C   0  0  0  0  0  0  0  0  0  0  0  0
  -14.6282   10.3912   22.9671 C   0  0  0  0  0  0  0  0  0  0  0  0
  -13.3237   10.0073   23.6731 C   0  0  0  0  0  0  0  0  0  0  0  0
  -12.1349   10.5946   22.8901 C   0  0  0  0  0  0  0  0  0  0  0  0
  -13.1910    8.4649   23.6008 C   0  0  0  0  0  0  0  0  0  0  0  0
 28 29  1  0
 29 30  1  0
 29 31  1  0
 29 27  1  0
 27 24  1  0
 24 25  1  0
 24 26  1  0
 24 23  1  0
 23 19  1  0
 19 20  1  0
 19 18  1  0
  1 18  1  0
  1 14  1  0
 14 15  2  0
 14 16  1  0
  1  2  1  0
  3  2  1  0
  3  4  1  0
  4  5  1  0
  5  6  1  0
  6  7  1  0
  6  8  1  0
  8  9  1  0
  8 10  1  0
 10 11  1  0
 11  1  1  0
 10  3  1  0
 20 21  1  0
 20 22  1  0
 16 17  1  0
  7 12  1  0
  9 13  1  0
M  END
> <minimizedAffinity>
-1.99882

> <CNNscore>
0.5811124444

> <CNNaffinity>
5.6820530891

> <CNN_VS>
3.3019118309

> <CNNaffinity_variance>
0.1363576502

$$$$



 31 32  0  0  0  0  0  0  0  0999 V2000
  -17.1173    6.8238   28.8908 C   0  0  0  0  0  0  0  0  0  0  0  0
  -18.1129    7.2092   29.9906 C   0  0  0  0  0  0  0  0  0  0  0  0
  -17.4901    6.7512   31.2933 C   0  0  0  0  0  0  0  0  0  0  0  0
  -18.0809    5.5515   31.8005 O   0  0  0  0  0  0  0  0  0  0  0  0
  -17.5501    4.3187   31.3154 C   0  0  0  0  0  0  0  0  0  0  0  0
  -16.0285    4.1902   31.4801 C   0  0  0  0  0  0  0  0  0  0  0  0
  -15.4383    3.6297   30.2936 O   0  0  0  0  0  0  0  0  0  0  0  0
  -15.3698    5.5375   31.8047 C   0  0  0  0  0  0  0  0  0  0  0  0
  -13.9616    5.4737   31.5569 O   0  0  0  0  0  0  0  0  0  0  0  0
  -16.0111    6.6500   30.9824 C   0  0  0  0  0  0  0  0  0  0  0  0
  -15.9155    6.3642   29.5754 O   0  0  0  0  0  0  0  0  0  0  0  0
  -15.5947    4.2239   29.5430 H   0  0  0  0  0  0  0  0  0  0  0  0
  -13.8068    5.2778   30.6195 H   0  0  0  0  0  0  0  0  0  0  0  0
  -17.5962    5.6308   28.0538 C   0  0  0  0  0  0  0  0  0  0  0  0
  -18.0601    4.5871   28.4908 O   0  0  0  0  0  0  0  0  0  0  0  0
  -17.4923    5.8108   26.7237 O   0  0  0  0  0  0  0  0  0  0  0  0
  -17.1373    6.6093   26.3854 H   0  0  0  0  0  0  0  0  0  0  0  0
  -16.6511    7.9862   27.9855 C   0  0  0  0  0  0  0  0  0  0  0  0
  -15.1609    8.4053   27.9943 C   0  0  0  0  0  0  0  0  0  0  0  0
  -15.0350    9.5604   28.8889 N   0  0  0  0  0  0  0  0  0  0  0  0
  -15.6011   10.3302   28.5320 H   0  0  0  0  0  0  0  0  0  0  0  0
  -14.0580    9.8497   28.9352 H   0  0  0  0  0  0  0  0  0  0  0  0
  -14.6014    8.7480   26.5947 C   0  0  0  0  0  0  0  0  0  0  0  0
  -13.0931    9.1454   26.4466 C   0  0  0  0  0  0  0  0  0  0  0  0
  -12.2481    8.3896   27.5040 C   0  0  0  0  0  0  0  0  0  0  0  0
  -12.8732   10.6488   26.6645 C   0  0  0  0  0  0  0  0  0  0  0  0
  -12.5419    8.6829   25.0467 C   0  0  0  0  0  0  0  0  0  0  0  0
  -14.2333    8.3747   23.0990 C   0  0  0  0  0  0  0  0  0  0  0  0
  -13.0859    9.2083   23.6789 C   0  0  0  0  0  0  0  0  0  0  0  0
  -13.5236   10.6826   23.7579 C   0  0  0  0  0  0  0  0  0  0  0  0
  -11.9079    9.1428   22.6739 C   0  0  0  0  0  0  0  0  0  0  0  0
 28 29  1  0
 29 30  1  0
 29 31  1  0
 29 27  1  0
 27 24  1  0
 24 25  1  0
 24 26  1  0
 24 23  1  0
 23 19  1  0
 19 20  1  0
 19 18  1  0
  1 18  1  0
  1 14  1  0
 14 15  2  0
 14 16  1  0
  1  2  1  0
  3  2  1  0
  3  4  1  0
  4  5  1  0
  5  6  1  0
  6  7  1  0
  6  8  1  0
  8  9  1  0
  8 10  1  0
 10 11  1  0
 11  1  1  0
 10  3  1  0
 20 21  1  0
 20 22  1  0
 16 17  1  0
  7 12  1  0
  9 13  1  0
M  END
> <minimizedAffinity>
-2.47065

> <CNNscore>
0.4757190347

> <CNNaffinity>
5.0766696930

> <CNN_VS>
2.4150683880

> <CNNaffinity_variance>
0.2917092144

$$$$



 31 32  0  0  0  0  0  0  0  0999 V2000
  -16.7807    8.5252   27.8428 C   0  0  0  0  0  0  0  0  0  0  0  0
  -18.1328    9.1491   27.4795 C   0  0  0  0  0  0  0  0  0  0  0  0
  -18.9385    9.1697   28.7620 C   0  0  0  0  0  0  0  0  0  0  0  0
  -19.9317    8.1417   28.8113 O   0  0  0  0  0  0  0  0  0  0  0  0
  -19.5140    6.8672   29.2994 C   0  0  0  0  0  0  0  0  0  0  0  0
  -18.8361    6.9215   30.6765 C   0  0  0  0  0  0  0  0  0  0  0  0
  -17.6752    6.0717   30.7010 O   0  0  0  0  0  0  0  0  0  0  0  0
  -18.4442    8.3524   31.0681 C   0  0  0  0  0  0  0  0  0  0  0  0
  -17.4822    8.3310   32.1276 O   0  0  0  0  0  0  0  0  0  0  0  0
  -17.8948    9.0991   29.8575 C   0  0  0  0  0  0  0  0  0  0  0  0
  -16.7695    8.4006   29.2950 O   0  0  0  0  0  0  0  0  0  0  0  0
  -17.0282    6.3893   30.0519 H   0  0  0  0  0  0  0  0  0  0  0  0
  -16.6836    7.8679   31.8299 H   0  0  0  0  0  0  0  0  0  0  0  0
  -16.6271    7.0966   27.3056 C   0  0  0  0  0  0  0  0  0  0  0  0
  -16.7836    6.7454   26.1447 O   0  0  0  0  0  0  0  0  0  0  0  0
  -16.2670    6.1918   28.2350 O   0  0  0  0  0  0  0  0  0  0  0  0
  -16.1462    6.4574   29.1254 H   0  0  0  0  0  0  0  0  0  0  0  0
  -15.5433    9.3844   27.4982 C   0  0  0  0  0  0  0  0  0  0  0  0
  -14.1431    8.7247   27.4748 C   0  0  0  0  0  0  0  0  0  0  0  0
  -13.9198    8.1217   28.7927 N   0  0  0  0  0  0  0  0  0  0  0  0
  -13.9392    8.8493   29.5072 H   0  0  0  0  0  0  0  0  0  0  0  0
  -13.0116    7.6575   28.8047 H   0  0  0  0  0  0  0  0  0  0  0  0
  -12.9978    9.7049   27.1329 C   0  0  0  0  0  0  0  0  0  0  0  0
  -11.5277    9.1696   27.0499 C   0  0  0  0  0  0  0  0  0  0  0  0
  -11.1741    8.8415   25.5766 C   0  0  0  0  0  0  0  0  0  0  0  0
  -11.3389    7.8857   27.8697 C   0  0  0  0  0  0  0  0  0  0  0  0
  -10.5137   10.2879   27.4955 C   0  0  0  0  0  0  0  0  0  0  0  0
   -8.0677   10.3469   26.6223 C   0  0  0  0  0  0  0  0  0  0  0  0
   -9.0020   10.0254   27.7933 C   0  0  0  0  0  0  0  0  0  0  0  0
   -8.5191   10.7805   29.0456 C   0  0  0  0  0  0  0  0  0  0  0  0
   -8.8624    8.5126   28.0994 C   0  0  0  0  0  0  0  0  0  0  0  0
 28 29  1  0
 29 30  1  0
 29 31  1  0
 29 27  1  0
 27 24  1  0
 24 25  1  0
 24 26  1  0
 24 23  1  0
 23 19  1  0
 19 20  1  0
 19 18  1  0
  1 18  1  0
  1 14  1  0
 14 15  2  0
 14 16  1  0
  1  2  1  0
  3  2  1  0
  3  4  1  0
  4  5  1  0
  5  6  1  0
  6  7  1  0
  6  8  1  0
  8  9  1  0
  8 10  1  0
 10 11  1  0
 11  1  1  0
 10  3  1  0
 20 21  1  0
 20 22  1  0
 16 17  1  0
  7 12  1  0
  9 13  1  0
M  END
> <minimizedAffinity>
0.01306

> <CNNscore>
0.4575489759

> <CNNaffinity>
5.6449408531

> <CNN_VS>
2.5828368664

> <CNNaffinity_variance>
0.1008951887

$$$$



 31 32  0  0  0  0  0  0  0  0999 V2000
  -17.4880    7.9095   27.6942 C   0  0  0  0  0  0  0  0  0  0  0  0
  -18.4754    8.8650   28.3734 C   0  0  0  0  0  0  0  0  0  0  0  0
  -18.8498    8.2103   29.6870 C   0  0  0  0  0  0  0  0  0  0  0  0
  -20.1461    7.6068   29.6580 O   0  0  0  0  0  0  0  0  0  0  0  0
  -20.2210    6.2677   29.1697 C   0  0  0  0  0  0  0  0  0  0  0  0
  -19.2729    5.2927   29.8833 C   0  0  0  0  0  0  0  0  0  0  0  0
  -18.6327    4.4241   28.9315 O   0  0  0  0  0  0  0  0  0  0  0  0
  -18.2133    6.0268   30.7156 C   0  0  0  0  0  0  0  0  0  0  0  0
  -17.1302    5.1453   31.0289 O   0  0  0  0  0  0  0  0  0  0  0  0
  -17.7085    7.2535   29.9636 C   0  0  0  0  0  0  0  0  0  0  0  0
  -17.1768    6.8813   28.6793 O   0  0  0  0  0  0  0  0  0  0  0  0
  -18.0930    4.9529   28.3232 H   0  0  0  0  0  0  0  0  0  0  0  0
  -16.7138    4.8401   30.2077 H   0  0  0  0  0  0  0  0  0  0  0  0
  -18.1100    7.1660   26.5053 C   0  0  0  0  0  0  0  0  0  0  0  0
  -17.5649    6.3007   25.8348 O   0  0  0  0  0  0  0  0  0  0  0  0
  -19.3788    7.5233   26.2318 O   0  0  0  0  0  0  0  0  0  0  0  0
  -19.7996    8.1859   26.7435 H   0  0  0  0  0  0  0  0  0  0  0  0
  -16.1263    8.5309   27.3100 C   0  0  0  0  0  0  0  0  0  0  0  0
  -15.0218    8.6654   28.3864 C   0  0  0  0  0  0  0  0  0  0  0  0
  -15.0833   10.0338   28.9098 N   0  0  0  0  0  0  0  0  0  0  0  0
  -14.9023   10.6951   28.1546 H   0  0  0  0  0  0  0  0  0  0  0  0
  -14.3804   10.1505   29.6397 H   0  0  0  0  0  0  0  0  0  0  0  0
  -13.6007    8.3549   27.8635 C   0  0  0  0  0  0  0  0  0  0  0  0
  -13.0610    9.1182   26.6063 C   0  0  0  0  0  0  0  0  0  0  0  0
  -11.5338    8.8881   26.4718 C   0  0  0  0  0  0  0  0  0  0  0  0
  -13.2952   10.6316   26.7113 C   0  0  0  0  0  0  0  0  0  0  0  0
  -13.7007    8.5293   25.2942 C   0  0  0  0  0  0  0  0  0  0  0  0
  -14.1022    8.3022   22.7376 C   0  0  0  0  0  0  0  0  0  0  0  0
  -13.4350    9.0992   23.8633 C   0  0  0  0  0  0  0  0  0  0  0  0
  -13.8443   10.5790   23.7444 C   0  0  0  0  0  0  0  0  0  0  0  0
  -11.9036    9.0371   23.6341 C   0  0  0  0  0  0  0  0  0  0  0  0
 28 29  1  0
 29 30  1  0
 29 31  1  0
 29 27  1  0
 27 24  1  0
 24 25  1  0
 24 26  1  0
 24 23  1  0
 23 19  1  0
 19 20  1  0
 19 18  1  0
  1 18  1  0
  1 14  1  0
 14 15  2  0
 14 16  1  0
  1  2  1  0
  3  2  1  0
  3  4  1  0
  4  5  1  0
  5  6  1  0
  6  7  1  0
  6  8  1  0
  8  9  1  0
  8 10  1  0
 10 11  1  0
 11  1  1  0
 10  3  1  0
 20 21  1  0
 20 22  1  0
 16 17  1  0
  7 12  1  0
  9 13  1  0
M  END
> <minimizedAffinity>
-3.92097

> <CNNscore>
0.3923256695

> <CNNaffinity>
5.2292156219

> <CNN_VS>
2.0515556335

> <CNNaffinity_variance>
0.2880208194

$$$$



 31 32  0  0  0  0  0  0  0  0999 V2000
   -8.9948    8.2148   28.5543 C   0  0  0  0  0  0  0  0  0  0  0  0
   -8.3796    6.9655   27.9141 C   0  0  0  0  0  0  0  0  0  0  0  0
   -8.8307    5.7973   28.7662 C   0  0  0  0  0  0  0  0  0  0  0  0
   -7.8023    5.3120   29.6337 O   0  0  0  0  0  0  0  0  0  0  0  0
   -7.6705    5.9588   30.8991 C   0  0  0  0  0  0  0  0  0  0  0  0
   -8.9740    6.0085   31.7099 C   0  0  0  0  0  0  0  0  0  0  0  0
   -9.1431    7.3033   32.3142 O   0  0  0  0  0  0  0  0  0  0  0  0
  -10.1988    5.6693   30.8501 C   0  0  0  0  0  0  0  0  0  0  0  0
  -11.3971    6.1064   31.4994 O   0  0  0  0  0  0  0  0  0  0  0  0
  -10.0695    6.3090   29.4720 C   0  0  0  0  0  0  0  0  0  0  0  0
   -9.9072    7.7343   29.5844 O   0  0  0  0  0  0  0  0  0  0  0  0
   -9.2130    7.9773   31.6202 H   0  0  0  0  0  0  0  0  0  0  0  0
  -11.3672    7.0685   31.6197 H   0  0  0  0  0  0  0  0  0  0  0  0
   -7.9572    9.0720   29.2904 C   0  0  0  0  0  0  0  0  0  0  0  0
   -7.5925    8.9214   30.4479 O   0  0  0  0  0  0  0  0  0  0  0  0
   -7.4168   10.0512   28.5413 O   0  0  0  0  0  0  0  0  0  0  0  0
   -7.6939   10.1694   27.6541 H   0  0  0  0  0  0  0  0  0  0  0  0
   -9.8628    9.0798   27.6128 C   0  0  0  0  0  0  0  0  0  0  0  0
  -10.9849    8.4088   26.7839 C   0  0  0  0  0  0  0  0  0  0  0  0
  -11.0008    9.0510   25.4657 N   0  0  0  0  0  0  0  0  0  0  0  0
  -11.2074   10.0440   25.5736 H   0  0  0  0  0  0  0  0  0  0  0  0
  -11.7170    8.6160   24.8841 H   0  0  0  0  0  0  0  0  0  0  0  0
  -12.3819    8.4967   27.4397 C   0  0  0  0  0  0  0  0  0  0  0  0
  -13.5785    9.0912   26.6215 C   0  0  0  0  0  0  0  0  0  0  0  0
  -14.1488    8.0087   25.6697 C   0  0  0  0  0  0  0  0  0  0  0  0
  -13.1454   10.2856   25.7600 C   0  0  0  0  0  0  0  0  0  0  0  0
  -14.7599    9.4795   27.5864 C   0  0  0  0  0  0  0  0  0  0  0  0
  -17.1977    9.1980   28.4389 C   0  0  0  0  0  0  0  0  0  0  0  0
  -15.9066    8.5006   27.9980 C   0  0  0  0  0  0  0  0  0  0  0  0
  -16.2346    7.4913   26.8821 C   0  0  0  0  0  0  0  0  0  0  0  0
  -15.3839    7.6812   29.2052 C   0  0  0  0  0  0  0  0  0  0  0  0
 28 29  1  0
 29 30  1  0
 29 31  1  0
 29 27  1  0
 27 24  1  0
 24 25  1  0
 24 26  1  0
 24 23  1  0
 23 19  1  0
 19 20  1  0
 19 18  1  0
  1 18  1  0
  1 14  1  0
 14 15  2  0
 14 16  1  0
  1  2  1  0
  3  2  1  0
  3  4  1  0
  4  5  1  0
  5  6  1  0
  6  7  1  0
  6  8  1  0
  8  9  1  0
  8 10  1  0
 10 11  1  0
 11  1  1  0
 10  3  1  0
 20 21  1  0
 20 22  1  0
 16 17  1  0
  7 12  1  0
  9 13  1  0
M  END
> <minimizedAffinity>
-3.41208

> <CNNscore>
0.3675275445

> <CNNaffinity>
5.3433227539

> <CNN_VS>
1.9638183117

> <CNNaffinity_variance>
0.1842091531

$$$$



 31 32  0  0  0  0  0  0  0  0999 V2000
   -5.9807   10.7735   30.1918 C   0  0  0  0  0  0  0  0  0  0  0  0
   -4.9769    9.6606   30.5130 C   0  0  0  0  0  0  0  0  0  0  0  0
   -3.8150   10.3381   31.2098 C   0  0  0  0  0  0  0  0  0  0  0  0
   -2.6772   10.5046   30.3593 O   0  0  0  0  0  0  0  0  0  0  0  0
   -2.6479   11.6780   29.5473 C   0  0  0  0  0  0  0  0  0  0  0  0
   -2.8309   12.9834   30.3356 C   0  0  0  0  0  0  0  0  0  0  0  0
   -3.7247   13.8712   29.6406 O   0  0  0  0  0  0  0  0  0  0  0  0
   -3.3488   12.7284   31.7573 C   0  0  0  0  0  0  0  0  0  0  0  0
   -3.8834   13.9336   32.3142 O   0  0  0  0  0  0  0  0  0  0  0  0
   -4.4035   11.6272   31.7450 C   0  0  0  0  0  0  0  0  0  0  0  0
   -5.4880   11.9695   30.8635 O   0  0  0  0  0  0  0  0  0  0  0  0
   -4.5990   13.4575   29.5671 H   0  0  0  0  0  0  0  0  0  0  0  0
   -4.6263   14.2393   31.7704 H   0  0  0  0  0  0  0  0  0  0  0  0
   -6.0146   11.1240   28.6988 C   0  0  0  0  0  0  0  0  0  0  0  0
   -6.9925   11.0568   27.9675 O   0  0  0  0  0  0  0  0  0  0  0  0
   -4.8397   11.5584   28.2057 O   0  0  0  0  0  0  0  0  0  0  0  0
   -4.0885   11.6112   28.7631 H   0  0  0  0  0  0  0  0  0  0  0  0
   -7.4076   10.5550   30.7437 C   0  0  0  0  0  0  0  0  0  0  0  0
   -7.8774    9.1208   31.0884 C   0  0  0  0  0  0  0  0  0  0  0  0
   -7.1806    8.7128   32.3124 N   0  0  0  0  0  0  0  0  0  0  0  0
   -6.1744    8.7084   32.1454 H   0  0  0  0  0  0  0  0  0  0  0  0
   -7.4848    7.7770   32.5810 H   0  0  0  0  0  0  0  0  0  0  0  0
   -7.6252    8.0942   29.9606 C   0  0  0  0  0  0  0  0  0  0  0  0
   -8.7521    7.0722   29.5861 C   0  0  0  0  0  0  0  0  0  0  0  0
   -9.2006    6.3021   30.8546 C   0  0  0  0  0  0  0  0  0  0  0  0
   -8.2685    6.0371   28.5610 C   0  0  0  0  0  0  0  0  0  0  0  0
  -10.0303    7.8334   29.0721 C   0  0  0  0  0  0  0  0  0  0  0  0
  -11.4240    8.7317   27.0722 C   0  0  0  0  0  0  0  0  0  0  0  0
  -10.0629    8.7051   27.7752 C   0  0  0  0  0  0  0  0  0  0  0  0
   -9.6028   10.1511   28.0379 C   0  0  0  0  0  0  0  0  0  0  0  0
   -9.0418    8.0808   26.7906 C   0  0  0  0  0  0  0  0  0  0  0  0
 28 29  1  0
 29 30  1  0
 29 31  1  0
 29 27  1  0
 27 24  1  0
 24 25  1  0
 24 26  1  0
 24 23  1  0
 23 19  1  0
 19 20  1  0
 19 18  1  0
  1 18  1  0
  1 14  1  0
 14 15  2  0
 14 16  1  0
  1  2  1  0
  3  2  1  0
  3  4  1  0
  4  5  1  0
  5  6  1  0
  6  7  1  0
  6  8  1  0
  8  9  1  0
  8 10  1  0
 10 11  1  0
 11  1  1  0
 10  3  1  0
 20 21  1  0
 20 22  1  0
 16 17  1  0
  7 12  1  0
  9 13  1  0
M  END
> <minimizedAffinity>
-0.71149

> <CNNscore>
0.3035813570

> <CNNaffinity>
4.2287955284

> <CNN_VS>
1.2837834358

> <CNNaffinity_variance>
0.1745057106

$$$$



 31 32  0  0  0  0  0  0  0  0999 V2000
   -9.6922    7.5986   28.5053 C   0  0  0  0  0  0  0  0  0  0  0  0
   -8.9329    6.3548   28.0303 C   0  0  0  0  0  0  0  0  0  0  0  0
   -8.9478    5.3886   29.1968 C   0  0  0  0  0  0  0  0  0  0  0  0
   -7.6987    5.3363   29.8914 O   0  0  0  0  0  0  0  0  0  0  0  0
   -7.4947    6.3036   30.9209 C   0  0  0  0  0  0  0  0  0  0  0  0
   -8.6099    6.3316   31.9765 C   0  0  0  0  0  0  0  0  0  0  0  0
   -8.9588    7.6881   32.3058 O   0  0  0  0  0  0  0  0  0  0  0  0
   -9.8583    5.5687   31.5139 C   0  0  0  0  0  0  0  0  0  0  0  0
  -10.9896    5.9409   32.3077 O   0  0  0  0  0  0  0  0  0  0  0  0
  -10.1248    5.8392   30.0371 C   0  0  0  0  0  0  0  0  0  0  0  0
  -10.2735    7.2499   29.7956 O   0  0  0  0  0  0  0  0  0  0  0  0
   -9.3024    8.1344   31.5160 H   0  0  0  0  0  0  0  0  0  0  0  0
  -11.1583    6.8906   32.2050 H   0  0  0  0  0  0  0  0  0  0  0  0
   -8.7628    8.7876   28.7801 C   0  0  0  0  0  0  0  0  0  0  0  0
   -8.5411    9.7170   28.0168 O   0  0  0  0  0  0  0  0  0  0  0  0
   -8.1805    8.7658   29.9936 O   0  0  0  0  0  0  0  0  0  0  0  0
   -8.3481    8.0553   30.5810 H   0  0  0  0  0  0  0  0  0  0  0  0
  -10.8873    8.0203   27.6209 C   0  0  0  0  0  0  0  0  0  0  0  0
  -12.1874    8.5264   28.2916 C   0  0  0  0  0  0  0  0  0  0  0  0
  -12.4101    7.7101   29.4893 N   0  0  0  0  0  0  0  0  0  0  0  0
  -12.5269    6.7337   29.2183 H   0  0  0  0  0  0  0  0  0  0  0  0
  -13.2503    8.0327   29.9692 H   0  0  0  0  0  0  0  0  0  0  0  0
  -13.4264    8.4733   27.3688 C   0  0  0  0  0  0  0  0  0  0  0  0
  -14.8583    8.5496   28.0003 C   0  0  0  0  0  0  0  0  0  0  0  0
  -15.1617   10.0076   28.4308 C   0  0  0  0  0  0  0  0  0  0  0  0
  -14.9824    7.6619   29.2464 C   0  0  0  0  0  0  0  0  0  0  0  0
  -15.9487    8.1840   26.9257 C   0  0  0  0  0  0  0  0  0  0  0  0
  -18.3198    9.1758   27.3041 C   0  0  0  0  0  0  0  0  0  0  0  0
  -17.4505    7.9147   27.2646 C   0  0  0  0  0  0  0  0  0  0  0  0
  -18.0868    6.8937   26.3033 C   0  0  0  0  0  0  0  0  0  0  0  0
  -17.4836    7.2813   28.6786 C   0  0  0  0  0  0  0  0  0  0  0  0
 28 29  1  0
 29 30  1  0
 29 31  1  0
 29 27  1  0
 27 24  1  0
 24 25  1  0
 24 26  1  0
 24 23  1  0
 23 19  1  0
 19 20  1  0
 19 18  1  0
  1 18  1  0
  1 14  1  0
 14 15  2  0
 14 16  1  0
  1  2  1  0
  3  2  1  0
  3  4  1  0
  4  5  1  0
  5  6  1  0
  6  7  1  0
  6  8  1  0
  8  9  1  0
  8 10  1  0
 10 11  1  0
 11  1  1  0
 10  3  1  0
 20 21  1  0
 20 22  1  0
 16 17  1  0
  7 12  1  0
  9 13  1  0
M  END
> <minimizedAffinity>
-1.31615

> <CNNscore>
0.2721028924

> <CNNaffinity>
5.1116371155

> <CNN_VS>
1.3908911943

> <CNNaffinity_variance>
0.0055068522

$$$$



 31 32  0  0  0  0  0  0  0  0999 V2000
  -16.4992    6.6907   29.3662 C   0  0  0  0  0  0  0  0  0  0  0  0
  -17.3052    7.3253   30.5051 C   0  0  0  0  0  0  0  0  0  0  0  0
  -17.0029    6.4990   31.7381 C   0  0  0  0  0  0  0  0  0  0  0  0
  -18.0657    5.6065   32.0836 O   0  0  0  0  0  0  0  0  0  0  0  0
  -18.0678    4.3310   31.4430 C   0  0  0  0  0  0  0  0  0  0  0  0
  -16.7486    3.5589   31.5924 C   0  0  0  0  0  0  0  0  0  0  0  0
  -16.3785    2.9465   30.3441 O   0  0  0  0  0  0  0  0  0  0  0  0
  -15.6097    4.4582   32.0910 C   0  0  0  0  0  0  0  0  0  0  0  0
  -14.3434    3.8403   31.8396 O   0  0  0  0  0  0  0  0  0  0  0  0
  -15.6843    5.8251   31.4195 C   0  0  0  0  0  0  0  0  0  0  0  0
  -15.6369    5.6932   29.9874 O   0  0  0  0  0  0  0  0  0  0  0  0
  -16.2318    3.6353   29.6770 H   0  0  0  0  0  0  0  0  0  0  0  0
  -14.2314    3.7093   30.8850 H   0  0  0  0  0  0  0  0  0  0  0  0
  -17.3819    5.9152   28.3800 C   0  0  0  0  0  0  0  0  0  0  0  0
  -18.4930    6.2502   27.9943 O   0  0  0  0  0  0  0  0  0  0  0  0
  -16.8260    4.7816   27.9131 O   0  0  0  0  0  0  0  0  0  0  0  0
  -15.9748    4.5219   28.2065 H   0  0  0  0  0  0  0  0  0  0  0  0
  -15.5426    7.6486   28.6209 C   0  0  0  0  0  0  0  0  0  0  0  0
  -15.9724    8.2425   27.2575 C   0  0  0  0  0  0  0  0  0  0  0  0
  -15.9066    7.1625   26.2678 N   0  0  0  0  0  0  0  0  0  0  0  0
  -14.9479    6.8206   26.2009 H   0  0  0  0  0  0  0  0  0  0  0  0
  -16.2058    7.5156   25.3588 H   0  0  0  0  0  0  0  0  0  0  0  0
  -15.1106    9.4416   26.8004 C   0  0  0  0  0  0  0  0  0  0  0  0
  -13.7101    9.1772   26.1497 C   0  0  0  0  0  0  0  0  0  0  0  0
  -13.3359   10.3587   25.2184 C   0  0  0  0  0  0  0  0  0  0  0  0
  -13.7055    7.8978   25.3015 C   0  0  0  0  0  0  0  0  0  0  0  0
  -12.5931    9.1339   27.2577 C   0  0  0  0  0  0  0  0  0  0  0  0
  -10.7387    8.7191   25.4862 C   0  0  0  0  0  0  0  0  0  0  0  0
  -11.0640    9.0322   26.9503 C   0  0  0  0  0  0  0  0  0  0  0  0
  -10.3024   10.3012   27.3758 C   0  0  0  0  0  0  0  0  0  0  0  0
  -10.5113    7.8672   27.8101 C   0  0  0  0  0  0  0  0  0  0  0  0
 28 29  1  0
 29 30  1  0
 29 31  1  0
 29 27  1  0
 27 24  1  0
 24 25  1  0
 24 26  1  0
 24 23  1  0
 23 19  1  0
 19 20  1  0
 19 18  1  0
  1 18  1  0
  1 14  1  0
 14 15  2  0
 14 16  1  0
  1  2  1  0
  3  2  1  0
  3  4  1  0
  4  5  1  0
  5  6  1  0
  6  7  1  0
  6  8  1  0
  8  9  1  0
  8 10  1  0
 10 11  1  0
 11  1  1  0
 10  3  1  0
 20 21  1  0
 20 22  1  0
 16 17  1  0
  7 12  1  0
  9 13  1  0
M  END
> <minimizedAffinity>
-0.12204

> <CNNscore>
0.2493599057

> <CNNaffinity>
4.6269049644

> <CNN_VS>
1.1537646055

> <CNNaffinity_variance>
0.1173685864

$$$$



 31 32  0  0  0  0  0  0  0  0999 V2000
   -9.5361    7.6193   28.4750 C   0  0  0  0  0  0  0  0  0  0  0  0
   -8.7128    6.4017   28.0401 C   0  0  0  0  0  0  0  0  0  0  0  0
   -8.7624    5.4309   29.2018 C   0  0  0  0  0  0  0  0  0  0  0  0
   -7.5528    5.4147   29.9649 O   0  0  0  0  0  0  0  0  0  0  0  0
   -7.4368    6.3838   31.0063 C   0  0  0  0  0  0  0  0  0  0  0  0
   -8.6094    6.3727   31.9982 C   0  0  0  0  0  0  0  0  0  0  0  0
   -9.0184    7.7164   32.3106 O   0  0  0  0  0  0  0  0  0  0  0  0
   -9.8056    5.5732   31.4650 C   0  0  0  0  0  0  0  0  0  0  0  0
  -10.9904    5.9067   32.1953 O   0  0  0  0  0  0  0  0  0  0  0  0
   -9.9978    5.8411   29.9762 C   0  0  0  0  0  0  0  0  0  0  0  0
  -10.1770    7.2475   29.7301 O   0  0  0  0  0  0  0  0  0  0  0  0
   -9.3314    8.1549   31.5039 H   0  0  0  0  0  0  0  0  0  0  0  0
  -11.1829    6.8510   32.0855 H   0  0  0  0  0  0  0  0  0  0  0  0
   -8.6612    8.8357   28.8039 C   0  0  0  0  0  0  0  0  0  0  0  0
   -7.6988    8.8449   29.5584 O   0  0  0  0  0  0  0  0  0  0  0  0
   -9.0173    9.9634   28.1608 O   0  0  0  0  0  0  0  0  0  0  0  0
   -9.7541    9.9600   27.5820 H   0  0  0  0  0  0  0  0  0  0  0  0
  -10.6927    8.0072   27.5263 C   0  0  0  0  0  0  0  0  0  0  0  0
  -12.0144    8.5498   28.1220 C   0  0  0  0  0  0  0  0  0  0  0  0
  -12.3473    7.7175   29.2825 N   0  0  0  0  0  0  0  0  0  0  0  0
  -12.4829    6.7525   28.9811 H   0  0  0  0  0  0  0  0  0  0  0  0
  -13.2048    8.0627   29.7138 H   0  0  0  0  0  0  0  0  0  0  0  0
  -13.1903    8.5655   27.1188 C   0  0  0  0  0  0  0  0  0  0  0  0
  -14.6540    8.7283   27.6535 C   0  0  0  0  0  0  0  0  0  0  0  0
  -15.6612    8.2970   26.5567 C   0  0  0  0  0  0  0  0  0  0  0  0
  -14.9686   10.1836   28.0266 C   0  0  0  0  0  0  0  0  0  0  0  0
  -14.9019    7.7590   28.8686 C   0  0  0  0  0  0  0  0  0  0  0  0
  -17.1988    6.8238   29.6424 C   0  0  0  0  0  0  0  0  0  0  0  0
  -16.1119    7.8835   29.8501 C   0  0  0  0  0  0  0  0  0  0  0  0
  -15.6658    7.8662   31.3239 C   0  0  0  0  0  0  0  0  0  0  0  0
  -16.7565    9.2691   29.5923 C   0  0  0  0  0  0  0  0  0  0  0  0
 28 29  1  0
 29 30  1  0
 29 31  1  0
 29 27  1  0
 27 24  1  0
 24 25  1  0
 24 26  1  0
 24 23  1  0
 23 19  1  0
 19 20  1  0
 19 18  1  0
  1 18  1  0
  1 14  1  0
 14 15  2  0
 14 16  1  0
  1  2  1  0
  3  2  1  0
  3  4  1  0
  4  5  1  0
  5  6  1  0
  6  7  1  0
  6  8  1  0
  8  9  1  0
  8 10  1  0
 10 11  1  0
 11  1  1  0
 10  3  1  0
 20 21  1  0
 20 22  1  0
 16 17  1  0
  7 12  1  0
  9 13  1  0
M  END
> <minimizedAffinity>
-0.31143

> <CNNscore>
0.2461718768

> <CNNaffinity>
5.0868797302

> <CNN_VS>
1.2522467375

> <CNNaffinity_variance>
0.2082938701

$$$$
