


 22 25  0  0  0  0  0  0  0  0999 V2000
   -4.4024   49.7724  163.2148 C   0  0  0  0  0  0  0  0  0  0  0  0
   -4.5520   50.4924  164.5796 C   0  0  0  0  0  0  0  0  0  0  0  0
   -4.0863   51.9467  164.4382 C   0  0  0  0  0  0  0  0  0  0  0  0
   -2.5613   52.0435  164.2401 C   0  0  0  0  0  0  0  0  0  0  0  0
   -1.7456   51.2697  165.3105 C   0  0  0  0  0  0  0  0  0  0  0  0
   -0.2306   51.3026  165.1198 C   0  0  0  0  0  0  0  0  0  0  0  0
    0.4076   52.4274  164.5663 C   0  0  0  0  0  0  0  0  0  0  0  0
    1.7964   52.4785  164.4298 C   0  0  0  0  0  0  0  0  0  0  0  0
    2.5680   51.4115  164.8573 C   0  0  0  0  0  0  0  0  0  0  0  0
    3.9195   51.4988  164.7027 O   0  0  0  0  0  0  0  0  0  0  0  0
    1.9722   50.2941  165.4286 C   0  0  0  0  0  0  0  0  0  0  0  0
    0.5743   50.2357  165.5792 C   0  0  0  0  0  0  0  0  0  0  0  0
   -0.0153   48.9858  166.1886 C   0  0  0  0  0  0  0  0  0  0  0  0
   -1.4816   49.1204  166.5878 C   0  0  0  0  0  0  0  0  0  0  0  0
   -2.2637   49.8079  165.4671 C   0  0  0  0  0  0  0  0  0  0  0  0
   -3.7673   49.8481  165.7399 C   0  0  0  0  0  0  0  0  0  0  0  0
   -4.5164   48.5429  165.9940 C   0  0  0  0  0  0  0  0  0  0  0  0
   -5.9886   48.8979  165.7158 C   0  0  0  0  0  0  0  0  0  0  0  0
   -5.9841   50.3200  165.1215 C   0  0  0  0  0  0  0  0  0  0  0  0
   -6.9749   50.4757  164.1247 O   0  0  0  0  0  0  0  0  0  0  0  0
    4.2982   52.2628  164.3145 H   0  0  0  0  0  0  0  0  0  0  0  0
   -6.8306   49.8242  163.4207 H   0  0  0  0  0  0  0  0  0  0  0  0
  2  1  1  0
  2  3  1  0
  3  4  1  0
  5  4  1  0
  5  6  1  0
  6  7  2  0
  7  8  1  0
  8  9  2  0
  9 10  1  0
  9 11  1  0
 11 12  2  0
 12 13  1  0
 13 14  1  0
 15 14  1  0
 15 16  1  0
 16 17  1  0
 17 18  1  0
 18 19  1  0
 19 20  1  0
 16  2  1  0
 19  2  1  0
 15  5  1  0
 12  6  1  0
 10 21  1  0
 20 22  1  0
M  END
> <minimizedAffinity>
-10.99460

> <CNNscore>
0.9771398306

> <CNNaffinity>
7.6534385681

> <CNN_VS>
7.4784798622

> <CNNaffinity_variance>
0.5630086660

$$$$



 22 25  0  0  0  0  0  0  0  0999 V2000
   -3.8784   51.7554  162.4316 C   0  0  0  0  0  0  0  0  0  0  0  0
   -4.1730   51.9191  163.9448 C   0  0  0  0  0  0  0  0  0  0  0  0
   -3.5193   53.2109  164.4507 C   0  0  0  0  0  0  0  0  0  0  0  0
   -1.9824   53.1029  164.4782 C   0  0  0  0  0  0  0  0  0  0  0  0
   -1.4613   51.8497  165.2318 C   0  0  0  0  0  0  0  0  0  0  0  0
    0.0569   51.6827  165.2393 C   0  0  0  0  0  0  0  0  0  0  0  0
    0.9106   52.8006  165.2573 C   0  0  0  0  0  0  0  0  0  0  0  0
    2.2982   52.6519  165.3074 C   0  0  0  0  0  0  0  0  0  0  0  0
    2.8516   51.3837  165.3539 C   0  0  0  0  0  0  0  0  0  0  0  0
    4.2101   51.2814  165.3979 O   0  0  0  0  0  0  0  0  0  0  0  0
    2.0372   50.2583  165.3597 C   0  0  0  0  0  0  0  0  0  0  0  0
    0.6374   50.3966  165.3185 C   0  0  0  0  0  0  0  0  0  0  0  0
   -0.1934   49.1353  165.3065 C   0  0  0  0  0  0  0  0  0  0  0  0
   -1.6797   49.3669  165.5612 C   0  0  0  0  0  0  0  0  0  0  0  0
   -2.1697   50.5547  164.7309 C   0  0  0  0  0  0  0  0  0  0  0  0
   -3.6820   50.7551  164.8287 C   0  0  0  0  0  0  0  0  0  0  0  0
   -4.6143   49.6065  164.4538 C   0  0  0  0  0  0  0  0  0  0  0  0
   -5.9636   50.2959  164.1800 C   0  0  0  0  0  0  0  0  0  0  0  0
   -5.6870   51.8118  164.2101 C   0  0  0  0  0  0  0  0  0  0  0  0
   -6.4660   52.5068  163.2563 O   0  0  0  0  0  0  0  0  0  0  0  0
    4.7386   52.0551  165.3930 H   0  0  0  0  0  0  0  0  0  0  0  0
   -6.2820   52.1559  162.3709 H   0  0  0  0  0  0  0  0  0  0  0  0
  2  1  1  0
  2  3  1  0
  3  4  1  0
  5  4  1  0
  5  6  1  0
  6  7  2  0
  7  8  1  0
  8  9  2  0
  9 10  1  0
  9 11  1  0
 11 12  2  0
 12 13  1  0
 13 14  1  0
 15 14  1  0
 15 16  1  0
 16 17  1  0
 17 18  1  0
 18 19  1  0
 19 20  1  0
 16  2  1  0
 19  2  1  0
 15  5  1  0
 12  6  1  0
 10 21  1  0
 20 22  1  0
M  END
> <minimizedAffinity>
-10.21938

> <CNNscore>
0.9664709568

> <CNNaffinity>
7.8638710976

> <CNN_VS>
7.6002030373

> <CNNaffinity_variance>
1.2761386633

$$$$



 22 25  0  0  0  0  0  0  0  0999 V2000
   -2.8057   49.3966  167.1414 C   0  0  0  0  0  0  0  0  0  0  0  0
   -2.6391   49.2086  165.6116 C   0  0  0  0  0  0  0  0  0  0  0  0
   -1.3635   48.4028  165.3368 C   0  0  0  0  0  0  0  0  0  0  0  0
   -0.0930   49.2143  165.6557 C   0  0  0  0  0  0  0  0  0  0  0  0
   -0.0608   50.6100  164.9767 C   0  0  0  0  0  0  0  0  0  0  0  0
    1.1617   51.4637  165.3077 C   0  0  0  0  0  0  0  0  0  0  0  0
    2.4170   50.8743  165.5438 C   0  0  0  0  0  0  0  0  0  0  0  0
    3.5459   51.6537  165.8045 C   0  0  0  0  0  0  0  0  0  0  0  0
    3.4388   53.0339  165.8195 C   0  0  0  0  0  0  0  0  0  0  0  0
    4.5632   53.7585  166.0818 O   0  0  0  0  0  0  0  0  0  0  0  0
    2.2191   53.6497  165.5688 C   0  0  0  0  0  0  0  0  0  0  0  0
    1.0768   52.8743  165.2961 C   0  0  0  0  0  0  0  0  0  0  0  0
   -0.2244   53.6014  165.0519 C   0  0  0  0  0  0  0  0  0  0  0  0
   -1.3301   52.7216  164.4767 C   0  0  0  0  0  0  0  0  0  0  0  0
   -1.3836   51.3935  165.2339 C   0  0  0  0  0  0  0  0  0  0  0  0
   -2.5616   50.5196  164.8037 C   0  0  0  0  0  0  0  0  0  0  0  0
   -3.9792   51.0775  164.8950 C   0  0  0  0  0  0  0  0  0  0  0  0
   -4.8740   49.8245  164.8887 C   0  0  0  0  0  0  0  0  0  0  0  0
   -3.9241   48.6160  165.0020 C   0  0  0  0  0  0  0  0  0  0  0  0
   -4.4824   47.5811  165.7875 O   0  0  0  0  0  0  0  0  0  0  0  0
    5.3747   53.3204  166.2479 H   0  0  0  0  0  0  0  0  0  0  0  0
   -4.6888   47.9219  166.6719 H   0  0  0  0  0  0  0  0  0  0  0  0
  2  1  1  0
  2  3  1  0
  3  4  1  0
  5  4  1  0
  5  6  1  0
  6  7  2  0
  7  8  1  0
  8  9  2  0
  9 10  1  0
  9 11  1  0
 11 12  2  0
 12 13  1  0
 13 14  1  0
 15 14  1  0
 15 16  1  0
 16 17  1  0
 17 18  1  0
 18 19  1  0
 19 20  1  0
 16  2  1  0
 19  2  1  0
 15  5  1  0
 12  6  1  0
 10 21  1  0
 20 22  1  0
M  END
> <minimizedAffinity>
-8.38681

> <CNNscore>
0.7787232399

> <CNNaffinity>
7.0618948936

> <CNN_VS>
5.4992618561

> <CNNaffinity_variance>
0.4922600687

$$$$



 22 25  0  0  0  0  0  0  0  0999 V2000
    0.3629   52.6537  165.6120 C   0  0  0  0  0  0  0  0  0  0  0  0
    0.4214   51.5220  164.5540 C   0  0  0  0  0  0  0  0  0  0  0  0
   -0.0843   52.0596  163.2097 C   0  0  0  0  0  0  0  0  0  0  0  0
   -1.6001   52.3354  163.2363 C   0  0  0  0  0  0  0  0  0  0  0  0
   -2.4417   51.1315  163.7386 C   0  0  0  0  0  0  0  0  0  0  0  0
   -3.9458   51.3829  163.8243 C   0  0  0  0  0  0  0  0  0  0  0  0
   -4.5925   52.2376  162.9132 C   0  0  0  0  0  0  0  0  0  0  0  0
   -5.9737   52.4367  162.9616 C   0  0  0  0  0  0  0  0  0  0  0  0
   -6.7301   51.7736  163.9129 C   0  0  0  0  0  0  0  0  0  0  0  0
   -8.0744   51.9981  163.9295 O   0  0  0  0  0  0  0  0  0  0  0  0
   -6.1268   50.9053  164.8141 C   0  0  0  0  0  0  0  0  0  0  0  0
   -4.7369   50.6904  164.7686 C   0  0  0  0  0  0  0  0  0  0  0  0
   -4.1372   49.7507  165.7879 C   0  0  0  0  0  0  0  0  0  0  0  0
   -2.6976   49.3444  165.4882 C   0  0  0  0  0  0  0  0  0  0  0  0
   -1.8842   50.5753  165.0838 C   0  0  0  0  0  0  0  0  0  0  0  0
   -0.3981   50.2645  164.9065 C   0  0  0  0  0  0  0  0  0  0  0  0
    0.3800   49.6465  166.0649 C   0  0  0  0  0  0  0  0  0  0  0  0
    1.8517   49.9509  165.7298 C   0  0  0  0  0  0  0  0  0  0  0  0
    1.8298   50.8986  164.5145 C   0  0  0  0  0  0  0  0  0  0  0  0
    2.8629   51.8619  164.5810 O   0  0  0  0  0  0  0  0  0  0  0  0
   -8.4585   52.5884  163.3114 H   0  0  0  0  0  0  0  0  0  0  0  0
    2.7749   52.3743  165.3999 H   0  0  0  0  0  0  0  0  0  0  0  0
  2  1  1  0
  2  3  1  0
  3  4  1  0
  5  4  1  0
  5  6  1  0
  6  7  2  0
  7  8  1  0
  8  9  2  0
  9 10  1  0
  9 11  1  0
 11 12  2  0
 12 13  1  0
 13 14  1  0
 15 14  1  0
 15 16  1  0
 16 17  1  0
 17 18  1  0
 18 19  1  0
 19 20  1  0
 16  2  1  0
 19  2  1  0
 15  5  1  0
 12  6  1  0
 10 21  1  0
 20 22  1  0
M  END
> <minimizedAffinity>
-8.66511

> <CNNscore>
0.7573698759

> <CNNaffinity>
7.3793296814

> <CNN_VS>
5.5888819695

> <CNNaffinity_variance>
0.9404888749

$$$$



 22 25  0  0  0  0  0  0  0  0999 V2000
   -4.8985   50.5488  166.0217 C   0  0  0  0  0  0  0  0  0  0  0  0
   -4.6606   50.4741  164.4916 C   0  0  0  0  0  0  0  0  0  0  0  0
   -3.8736   49.1994  164.1635 C   0  0  0  0  0  0  0  0  0  0  0  0
   -2.4191   49.2784  164.6661 C   0  0  0  0  0  0  0  0  0  0  0  0
   -1.6728   50.5605  164.2086 C   0  0  0  0  0  0  0  0  0  0  0  0
   -0.2427   50.6977  164.7270 C   0  0  0  0  0  0  0  0  0  0  0  0
    0.5664   49.5658  164.9349 C   0  0  0  0  0  0  0  0  0  0  0  0
    1.8881   49.6897  165.3679 C   0  0  0  0  0  0  0  0  0  0  0  0
    2.4243   50.9473  165.5861 C   0  0  0  0  0  0  0  0  0  0  0  0
    3.7167   51.0251  166.0121 O   0  0  0  0  0  0  0  0  0  0  0  0
    1.6603   52.0872  165.3695 C   0  0  0  0  0  0  0  0  0  0  0  0
    0.3300   51.9745  164.9247 C   0  0  0  0  0  0  0  0  0  0  0  0
   -0.4555   53.2494  164.7272 C   0  0  0  0  0  0  0  0  0  0  0  0
   -1.7664   53.0614  163.9698 C   0  0  0  0  0  0  0  0  0  0  0  0
   -2.5095   51.8398  164.5135 C   0  0  0  0  0  0  0  0  0  0  0  0
   -3.8983   51.6749  163.8965 C   0  0  0  0  0  0  0  0  0  0  0  0
   -4.9027   52.8194  163.9986 C   0  0  0  0  0  0  0  0  0  0  0  0
   -6.2646   52.1428  163.7571 C   0  0  0  0  0  0  0  0  0  0  0  0
   -5.9940   50.6256  163.7346 C   0  0  0  0  0  0  0  0  0  0  0  0
   -7.0511   49.8950  164.3249 O   0  0  0  0  0  0  0  0  0  0  0  0
    4.2121   50.2420  166.1512 H   0  0  0  0  0  0  0  0  0  0  0  0
   -7.1793   50.1931  165.2390 H   0  0  0  0  0  0  0  0  0  0  0  0
  2  1  1  0
  2  3  1  0
  3  4  1  0
  5  4  1  0
  5  6  1  0
  6  7  2  0
  7  8  1  0
  8  9  2  0
  9 10  1  0
  9 11  1  0
 11 12  2  0
 12 13  1  0
 13 14  1  0
 15 14  1  0
 15 16  1  0
 16 17  1  0
 17 18  1  0
 18 19  1  0
 19 20  1  0
 16  2  1  0
 19  2  1  0
 15  5  1  0
 12  6  1  0
 10 21  1  0
 20 22  1  0
M  END
> <minimizedAffinity>
-9.69825

> <CNNscore>
0.7401767373

> <CNNaffinity>
7.0421485901

> <CNN_VS>
5.2124347687

> <CNNaffinity_variance>
0.3892480433

$$$$



 22 25  0  0  0  0  0  0  0  0999 V2000
    1.2983   50.0247  164.0458 C   0  0  0  0  0  0  0  0  0  0  0  0
    1.0891   50.7125  165.4194 C   0  0  0  0  0  0  0  0  0  0  0  0
    0.3919   49.7352  166.3737 C   0  0  0  0  0  0  0  0  0  0  0  0
   -1.0722   49.4817  165.9655 C   0  0  0  0  0  0  0  0  0  0  0  0
   -1.8933   50.7827  165.7581 C   0  0  0  0  0  0  0  0  0  0  0  0
   -3.3371   50.5728  165.3062 C   0  0  0  0  0  0  0  0  0  0  0  0
   -4.0738   49.4504  165.7261 C   0  0  0  0  0  0  0  0  0  0  0  0
   -5.4073   49.2768  165.3499 C   0  0  0  0  0  0  0  0  0  0  0  0
   -6.0274   50.2296  164.5597 C   0  0  0  0  0  0  0  0  0  0  0  0
   -7.3285   50.0210  164.2110 O   0  0  0  0  0  0  0  0  0  0  0  0
   -5.3360   51.3610  164.1453 C   0  0  0  0  0  0  0  0  0  0  0  0
   -3.9946   51.5506  164.5259 C   0  0  0  0  0  0  0  0  0  0  0  0
   -3.2908   52.7904  164.0268 C   0  0  0  0  0  0  0  0  0  0  0  0
   -1.9591   53.0699  164.7166 C   0  0  0  0  0  0  0  0  0  0  0  0
   -1.1463   51.7779  164.8193 C   0  0  0  0  0  0  0  0  0  0  0  0
    0.2594   52.0112  165.3724 C   0  0  0  0  0  0  0  0  0  0  0  0
    1.1855   52.9993  164.6687 C   0  0  0  0  0  0  0  0  0  0  0  0
    2.5921   52.6010  165.1522 C   0  0  0  0  0  0  0  0  0  0  0  0
    2.4213   51.2867  165.9388 C   0  0  0  0  0  0  0  0  0  0  0  0
    3.5145   50.4114  165.7426 O   0  0  0  0  0  0  0  0  0  0  0  0
   -7.7739   49.2500  164.5027 H   0  0  0  0  0  0  0  0  0  0  0  0
    3.6090   50.2192  164.7966 H   0  0  0  0  0  0  0  0  0  0  0  0
  2  1  1  0
  2  3  1  0
  3  4  1  0
  5  4  1  0
  5  6  1  0
  6  7  2  0
  7  8  1  0
  8  9  2  0
  9 10  1  0
  9 11  1  0
 11 12  2  0
 12 13  1  0
 13 14  1  0
 15 14  1  0
 15 16  1  0
 16 17  1  0
 17 18  1  0
 18 19  1  0
 19 20  1  0
 16  2  1  0
 19  2  1  0
 15  5  1  0
 12  6  1  0
 10 21  1  0
 20 22  1  0
M  END
> <minimizedAffinity>
-9.06714

> <CNNscore>
0.6350857615

> <CNNaffinity>
7.0233969688

> <CNN_VS>
4.4604592323

> <CNNaffinity_variance>
0.3452010155

$$$$



 22 25  0  0  0  0  0  0  0  0999 V2000
    0.1581   51.8619  165.7497 C   0  0  0  0  0  0  0  0  0  0  0  0
    0.0051   50.6764  164.7626 C   0  0  0  0  0  0  0  0  0  0  0  0
   -0.1573   51.2216  163.3384 C   0  0  0  0  0  0  0  0  0  0  0  0
   -1.5166   51.9209  163.1438 C   0  0  0  0  0  0  0  0  0  0  0  0
   -2.7287   51.0546  163.5802 C   0  0  0  0  0  0  0  0  0  0  0  0
   -4.0910   51.7322  163.4469 C   0  0  0  0  0  0  0  0  0  0  0  0
   -4.3448   52.6568  162.4175 C   0  0  0  0  0  0  0  0  0  0  0  0
   -5.6017   53.2461  162.2666 C   0  0  0  0  0  0  0  0  0  0  0  0
   -6.6267   52.9093  163.1342 C   0  0  0  0  0  0  0  0  0  0  0  0
   -7.8372   53.5097  162.9557 O   0  0  0  0  0  0  0  0  0  0  0  0
   -6.4168   51.9833  164.1484 C   0  0  0  0  0  0  0  0  0  0  0  0
   -5.1567   51.3766  164.3042 C   0  0  0  0  0  0  0  0  0  0  0  0
   -4.9853   50.3934  165.4379 C   0  0  0  0  0  0  0  0  0  0  0  0
   -3.7045   49.5685  165.3577 C   0  0  0  0  0  0  0  0  0  0  0  0
   -2.5228   50.4768  165.0132 C   0  0  0  0  0  0  0  0  0  0  0  0
   -1.1841   49.7400  165.0562 C   0  0  0  0  0  0  0  0  0  0  0  0
   -0.7651   49.0245  166.3374 C   0  0  0  0  0  0  0  0  0  0  0  0
    0.7597   48.8659  166.1941 C   0  0  0  0  0  0  0  0  0  0  0  0
    1.1617   49.6749  164.9453 C   0  0  0  0  0  0  0  0  0  0  0  0
    2.4173   50.3043  165.1092 O   0  0  0  0  0  0  0  0  0  0  0  0
   -7.9545   54.1313  162.2644 H   0  0  0  0  0  0  0  0  0  0  0  0
    2.3882   50.8872  165.8840 H   0  0  0  0  0  0  0  0  0  0  0  0
  2  1  1  0
  2  3  1  0
  3  4  1  0
  5  4  1  0
  5  6  1  0
  6  7  2  0
  7  8  1  0
  8  9  2  0
  9 10  1  0
  9 11  1  0
 11 12  2  0
 12 13  1  0
 13 14  1  0
 15 14  1  0
 15 16  1  0
 16 17  1  0
 17 18  1  0
 18 19  1  0
 19 20  1  0
 16  2  1  0
 19  2  1  0
 15  5  1  0
 12  6  1  0
 10 21  1  0
 20 22  1  0
M  END
> <minimizedAffinity>
-8.93135

> <CNNscore>
0.6046584249

> <CNNaffinity>
6.7482438087

> <CNN_VS>
4.0803823471

> <CNNaffinity_variance>
0.2838422358

$$$$



 22 25  0  0  0  0  0  0  0  0999 V2000
    0.0735   53.4326  165.8707 C   0  0  0  0  0  0  0  0  0  0  0  0
    0.4484   52.5060  164.6857 C   0  0  0  0  0  0  0  0  0  0  0  0
   -0.5226   52.7519  163.5243 C   0  0  0  0  0  0  0  0  0  0  0  0
   -1.9390   52.2351  163.8423 C   0  0  0  0  0  0  0  0  0  0  0  0
   -1.9678   50.7604  164.3264 C   0  0  0  0  0  0  0  0  0  0  0  0
   -3.3502   50.2269  164.6971 C   0  0  0  0  0  0  0  0  0  0  0  0
   -4.5036   50.6672  164.0228 C   0  0  0  0  0  0  0  0  0  0  0  0
   -5.7639   50.1503  164.3297 C   0  0  0  0  0  0  0  0  0  0  0  0
   -5.8876   49.1761  165.3056 C   0  0  0  0  0  0  0  0  0  0  0  0
   -7.1356   48.7006  165.5783 O   0  0  0  0  0  0  0  0  0  0  0  0
   -4.7667   48.7028  165.9759 C   0  0  0  0  0  0  0  0  0  0  0  0
   -3.4906   49.2101  165.6685 C   0  0  0  0  0  0  0  0  0  0  0  0
   -2.3135   48.6702  166.4460 C   0  0  0  0  0  0  0  0  0  0  0  0
   -0.9560   49.0424  165.8577 C   0  0  0  0  0  0  0  0  0  0  0  0
   -0.9436   50.5241  165.4775 C   0  0  0  0  0  0  0  0  0  0  0  0
    0.4329   50.9994  165.0129 C   0  0  0  0  0  0  0  0  0  0  0  0
    1.6355   50.8240  165.9361 C   0  0  0  0  0  0  0  0  0  0  0  0
    2.6695   51.8290  165.3963 C   0  0  0  0  0  0  0  0  0  0  0  0
    1.9388   52.6683  164.3300 C   0  0  0  0  0  0  0  0  0  0  0  0
    2.3658   54.0164  164.3394 O   0  0  0  0  0  0  0  0  0  0  0  0
   -7.8766   49.0355  165.1128 H   0  0  0  0  0  0  0  0  0  0  0  0
    2.2149   54.3972  165.2187 H   0  0  0  0  0  0  0  0  0  0  0  0
  2  1  1  0
  2  3  1  0
  3  4  1  0
  5  4  1  0
  5  6  1  0
  6  7  2  0
  7  8  1  0
  8  9  2  0
  9 10  1  0
  9 11  1  0
 11 12  2  0
 12 13  1  0
 13 14  1  0
 15 14  1  0
 15 16  1  0
 16 17  1  0
 17 18  1  0
 18 19  1  0
 19 20  1  0
 16  2  1  0
 19  2  1  0
 15  5  1  0
 12  6  1  0
 10 21  1  0
 20 22  1  0
M  END
> <minimizedAffinity>
-8.12678

> <CNNscore>
0.5337054729

> <CNNaffinity>
6.7923393250

> <CNN_VS>
3.6251087189

> <CNNaffinity_variance>
0.2658217847

$$$$



 22 25  0  0  0  0  0  0  0  0999 V2000
    6.4253   60.3450  165.5493 C   0  0  0  0  0  0  0  0  0  0  0  0
    5.2605   59.3292  165.4271 C   0  0  0  0  0  0  0  0  0  0  0  0
    5.3153   58.3521  166.6078 C   0  0  0  0  0  0  0  0  0  0  0  0
    6.5235   57.4008  166.5089 C   0  0  0  0  0  0  0  0  0  0  0  0
    6.6305   56.6728  165.1420 C   0  0  0  0  0  0  0  0  0  0  0  0
    7.8431   55.7569  164.9887 C   0  0  0  0  0  0  0  0  0  0  0  0
    8.3708   55.0597  166.0907 C   0  0  0  0  0  0  0  0  0  0  0  0
    9.4525   54.1885  165.9464 C   0  0  0  0  0  0  0  0  0  0  0  0
   10.0134   53.9913  164.6961 C   0  0  0  0  0  0  0  0  0  0  0  0
   11.0702   53.1360  164.5984 O   0  0  0  0  0  0  0  0  0  0  0  0
    9.5032   54.6469  163.5827 C   0  0  0  0  0  0  0  0  0  0  0  0
    8.4077   55.5202  163.7149 C   0  0  0  0  0  0  0  0  0  0  0  0
    7.9117   56.2189  162.4711 C   0  0  0  0  0  0  0  0  0  0  0  0
    6.5584   56.9027  162.6395 C   0  0  0  0  0  0  0  0  0  0  0  0
    6.5299   57.6802  163.9567 C   0  0  0  0  0  0  0  0  0  0  0  0
    5.2545   58.5062  164.1233 C   0  0  0  0  0  0  0  0  0  0  0  0
    4.8838   59.5329  163.0567 C   0  0  0  0  0  0  0  0  0  0  0  0
    3.9021   60.4776  163.7740 C   0  0  0  0  0  0  0  0  0  0  0  0
    3.9197   60.0698  165.2603 C   0  0  0  0  0  0  0  0  0  0  0  0
    3.7973   61.1906  166.1138 O   0  0  0  0  0  0  0  0  0  0  0  0
   11.3968   52.7054  165.3638 H   0  0  0  0  0  0  0  0  0  0  0  0
    4.5187   61.8138  165.9347 H   0  0  0  0  0  0  0  0  0  0  0  0
  2  1  1  0
  2  3  1  0
  3  4  1  0
  5  4  1  0
  5  6  1  0
  6  7  2  0
  7  8  1  0
  8  9  2  0
  9 10  1  0
  9 11  1  0
 11 12  2  0
 12 13  1  0
 13 14  1  0
 15 14  1  0
 15 16  1  0
 16 17  1  0
 17 18  1  0
 18 19  1  0
 19 20  1  0
 16  2  1  0
 19  2  1  0
 15  5  1  0
 12  6  1  0
 10 21  1  0
 20 22  1  0
M  END
> <minimizedAffinity>
81.21666

> <CNNscore>
0.3881643713

> <CNNaffinity>
4.3366513252

> <CNN_VS>
1.6833335161

> <CNNaffinity_variance>
0.3333450556

$$$$
