


 88 90  0  0  0  0  0  0  0  0999 V2000
   16.4923    4.3024    4.2760 C   0  0  0  0  0  0  0  0  0  0  0  0
   16.4228    4.2573    3.0492 O   0  0  0  0  0  0  0  0  0  0  0  0
   15.7939    5.2096    5.0425 N   0  0  0  0  0  0  0  0  0  0  0  0
   15.9021    5.1905    6.0208 H   0  0  0  0  0  0  0  0  0  0  0  0
   17.3519    3.3097    5.0828 C   0  0  0  0  0  0  0  0  0  0  0  0
   15.8773    1.4775    5.8814 C   0  0  0  0  0  0  0  0  0  0  0  0
   15.9583    0.8344    4.8432 O   0  0  0  0  0  0  0  0  0  0  0  0
   16.5004    2.6825    6.0810 N   0  0  0  0  0  0  0  0  0  0  0  0
   16.3651    3.1444    6.9398 H   0  0  0  0  0  0  0  0  0  0  0  0
   15.1062    1.0192    7.1038 C   0  0  0  0  0  0  0  0  0  0  0  0
   14.1243    2.0760    7.6051 C   0  0  0  0  0  0  0  0  0  0  0  0
   12.6594    1.6598    7.4358 C   0  0  0  0  0  0  0  0  0  0  0  0
   11.6231    2.7177    7.8433 C   0  0  0  0  0  0  0  0  0  0  0  0
   12.1582    4.1486    7.8746 C   0  0  0  0  0  0  0  0  0  0  0  0
   11.8914    5.6323    9.8464 C   0  0  0  0  0  0  0  0  0  0  0  0
   13.0465    5.4737   10.2292 O   0  0  0  0  0  0  0  0  0  0  0  0
   11.3641    4.9866    8.7452 N   0  0  0  0  0  0  0  0  0  0  0  0
   10.4071    5.1018    8.5445 H   0  0  0  0  0  0  0  0  0  0  0  0
   10.4633    7.8741   12.4427 C   0  0  0  0  0  0  0  0  0  0  0  0
   11.6129    7.5104   11.5031 C   0  0  0  0  0  0  0  0  0  0  0  0
   10.9031    6.5964   10.5106 C   0  0  0  0  0  0  0  0  0  0  0  0
    9.9082    5.8610   11.2581 O   0  0  0  0  0  0  0  0  0  0  0  0
    9.7294    6.5315   12.5312 C   0  0  0  0  0  0  0  0  0  0  0  0
   10.2065    5.6743   13.6024 N   0  0  0  0  0  0  0  0  0  0  0  0
   11.4324    5.0759   13.7248 C   0  0  0  0  0  0  0  0  0  0  0  0
   11.5340    4.3831   14.8396 N   0  0  0  0  0  0  0  0  0  0  0  0
   10.3087    4.5241   15.4563 C   0  0  0  0  0  0  0  0  0  0  0  0
    9.7904    4.0286   16.6634 C   0  0  0  0  0  0  0  0  0  0  0  0
   10.5228    3.2371   17.5353 N   0  0  0  0  0  0  0  0  0  0  0  0
    8.5108    4.3307   16.9862 N   0  0  0  0  0  0  0  0  0  0  0  0
    7.8010    5.1118   16.1429 C   0  0  0  0  0  0  0  0  0  0  0  0
    8.1957    5.6576   14.9742 N   0  0  0  0  0  0  0  0  0  0  0  0
    9.4637    5.3115   14.6939 C   0  0  0  0  0  0  0  0  0  0  0  0
   11.4553    3.0035   17.3230 H   0  0  0  0  0  0  0  0  0  0  0  0
   10.1101    2.9087   18.3667 H   0  0  0  0  0  0  0  0  0  0  0  0
    8.3071    8.8942   12.5295 C   0  0  0  0  0  0  0  0  0  0  0  0
    9.5541    8.8250   11.8537 O   0  0  0  0  0  0  0  0  0  0  0  0
   12.1932    8.6549   10.8853 O   0  0  0  0  0  0  0  0  0  0  0  0
   13.6178    8.6287   10.9184 C   0  0  0  0  0  0  0  0  0  0  0  0
   18.5726    4.0073    5.7099 C   0  0  0  0  0  0  0  0  0  0  0  0
   18.5382    4.0385    7.2457 C   0  0  0  0  0  0  0  0  0  0  0  0
   19.8716    4.3983    7.9142 C   0  0  0  0  0  0  0  0  0  0  0  0
   20.8601    3.2410    8.0635 C   0  0  0  0  0  0  0  0  0  0  0  0
   20.4250    2.2782    9.0673 N   0  0  0  0  0  0  0  0  0  0  0  0
   20.3600    2.7392    9.9748 H   0  0  0  0  0  0  0  0  0  0  0  0
   21.0995    1.5150    9.1212 H   0  0  0  0  0  0  0  0  0  0  0  0
   14.9073    6.1885    4.4554 C   0  0  0  0  0  0  0  0  0  0  0  0
   14.5752    7.3474    5.3927 C   0  0  0  0  0  0  0  0  0  0  0  0
   14.1524    8.6541    4.7083 C   0  0  0  0  0  0  0  0  0  0  0  0
   14.9616    9.9062    5.0667 C   0  0  0  0  0  0  0  0  0  0  0  0
   14.6854   11.1356    4.2034 C   0  0  0  0  0  0  0  0  0  0  0  0
   15.6491   11.3149    3.0474 C   0  0  0  0  0  0  0  0  0  0  0  0
   15.5620   10.7211    1.9804 O   0  0  0  0  0  0  0  0  0  0  0  0
   16.6618   12.1933    3.3462 N   0  0  0  0  0  0  0  0  0  0  0  0
   16.6905   12.5833    4.2497 H   0  0  0  0  0  0  0  0  0  0  0  0
   17.6992   12.5787    2.3911 C   0  0  0  0  0  0  0  0  0  0  0  0
   17.8837   14.1029    2.5304 C   0  0  0  0  0  0  0  0  0  0  0  0
   17.2482   14.9087    1.8493 O   0  0  0  0  0  0  0  0  0  0  0  0
   18.8025   14.4920    3.4864 N   0  0  0  0  0  0  0  0  0  0  0  0
   19.4054   13.8298    3.8954 H   0  0  0  0  0  0  0  0  0  0  0  0
   18.8700   15.8917    3.8827 C   0  0  0  0  0  0  0  0  0  0  0  0
   19.8166   16.6453    2.9279 C   0  0  0  0  0  0  0  0  0  0  0  0
   19.2074   17.4282    1.9835 N   0  0  0  0  0  0  0  0  0  0  0  0
   21.0394   16.5230    2.9366 O   0  0  0  0  0  0  0  0  0  0  0  0
   18.2275   17.5232    1.9804 H   0  0  0  0  0  0  0  0  0  0  0  0
   19.7494   17.8959    1.3076 H   0  0  0  0  0  0  0  0  0  0  0  0
   17.4920   16.5726    3.9330 C   0  0  0  0  0  0  0  0  0  0  0  0
   17.0845   17.0227    5.3405 C   0  0  0  0  0  0  0  0  0  0  0  0
   18.2330   17.5934    6.1660 C   0  0  0  0  0  0  0  0  0  0  0  0
   17.9437   17.5641    7.5861 N   0  0  0  0  0  0  0  0  0  0  0  0
   18.2597   16.7953    8.1137 H   0  0  0  0  0  0  0  0  0  0  0  0
   17.2609   18.5422    8.2189 C   0  0  0  0  0  0  0  0  0  0  0  0
   16.9242   19.6733    7.7143 N   0  0  0  0  0  0  0  0  0  0  0  0
   16.9857   18.1932    9.4905 N   0  0  0  0  0  0  0  0  0  0  0  0
   17.1487   19.8812    6.7785 H   0  0  0  0  0  0  0  0  0  0  0  0
   17.2656   17.3128    9.8308 H   0  0  0  0  0  0  0  0  0  0  0  0
   16.5049   18.8185   10.0795 H   0  0  0  0  0  0  0  0  0  0  0  0
   19.0174   11.8442    2.6884 C   0  0  0  0  0  0  0  0  0  0  0  0
   19.0425   11.0874    4.0219 C   0  0  0  0  0  0  0  0  0  0  0  0
   20.3120   10.2744    4.2702 C   0  0  0  0  0  0  0  0  0  0  0  0
   20.3530    9.8001    5.6523 N   0  0  0  0  0  0  0  0  0  0  0  0
   19.5294    9.4985    6.0994 H   0  0  0  0  0  0  0  0  0  0  0  0
   21.5387    9.7800    6.3123 C   0  0  0  0  0  0  0  0  0  0  0  0
   21.7262   10.2521    7.4939 N   0  0  0  0  0  0  0  0  0  0  0  0
   22.5112    9.1934    5.5928 N   0  0  0  0  0  0  0  0  0  0  0  0
   20.9806   10.6728    7.9800 H   0  0  0  0  0  0  0  0  0  0  0  0
   22.3166    8.8476    4.6918 H   0  0  0  0  0  0  0  0  0  0  0  0
   23.4180    9.1097    5.9669 H   0  0  0  0  0  0  0  0  0  0  0  0
 36 37  1  0
 19 37  1  0
 19 20  1  0
 20 38  1  0
 38 39  1  0
 20 21  1  0
 21 15  1  0
 15 16  2  0
 15 17  1  0
 17 14  1  0
 14 13  1  0
 13 12  1  0
 12 11  1  0
 11 10  1  0
 10  6  1  0
  6  7  2  0
  6  8  1  0
  8  5  1  0
  5 40  1  0
 40 41  1  0
 41 42  1  0
 42 43  1  0
 43 44  1  0
  5  1  1  0
  1  2  2  0
  1  3  1  0
  3 47  1  0
 47 48  1  0
 48 49  1  0
 49 50  1  0
 50 51  1  0
 51 52  1  0
 52 53  2  0
 52 54  1  0
 54 56  1  0
 56 78  1  0
 78 79  1  0
 79 80  1  0
 80 81  1  0
 81 83  1  0
 83 84  2  0
 83 85  1  0
 56 57  1  0
 57 58  2  0
 57 59  1  0
 59 61  1  0
 61 67  1  0
 67 68  1  0
 68 69  1  0
 69 70  1  0
 70 72  1  0
 72 73  2  0
 72 74  1  0
 61 62  1  0
 62 63  1  0
 62 64  2  0
 21 22  1  0
 22 23  1  0
 23 24  1  0
 24 25  1  0
 25 26  2  0
 26 27  1  0
 27 28  2  0
 28 29  1  0
 28 30  1  0
 30 31  2  0
 31 32  1  0
 32 33  2  0
 23 19  1  0
 33 24  1  0
 33 27  1  0
 17 18  1  0
  8  9  1  0
 44 45  1  0
 44 46  1  0
  3  4  1  0
 54 55  1  0
 81 82  1  0
 84 86  1  0
 85 87  1  0
 85 88  1  0
 59 60  1  0
 70 71  1  0
 73 75  1  0
 74 76  1  0
 74 77  1  0
 63 65  1  0
 63 66  1  0
 29 34  1  0
 29 35  1  0
M  END
> <minimizedAffinity>
-7.23095

> <CNNscore>
0.5937314034

> <CNNaffinity>
7.7956423759

> <CNN_VS>
4.6285176277

> <CNNaffinity_variance>
1.7211080790

$$$$



 88 90  0  0  0  0  0  0  0  0999 V2000
   19.7086    3.6711    8.4604 C   0  0  0  0  0  0  0  0  0  0  0  0
   20.9238    3.5729    8.6199 O   0  0  0  0  0  0  0  0  0  0  0  0
   19.0898    4.8282    8.0403 N   0  0  0  0  0  0  0  0  0  0  0  0
   18.1105    4.8354    7.9388 H   0  0  0  0  0  0  0  0  0  0  0  0
   18.7561    2.4802    8.6841 C   0  0  0  0  0  0  0  0  0  0  0  0
   16.3010    2.3045    8.3523 C   0  0  0  0  0  0  0  0  0  0  0  0
   16.3580    1.2037    7.8205 O   0  0  0  0  0  0  0  0  0  0  0  0
   17.4012    2.9985    8.7857 N   0  0  0  0  0  0  0  0  0  0  0  0
   17.2678    3.8888    9.1841 H   0  0  0  0  0  0  0  0  0  0  0  0
   15.0069    3.0414    8.6377 C   0  0  0  0  0  0  0  0  0  0  0  0
   13.8122    2.0980    8.7598 C   0  0  0  0  0  0  0  0  0  0  0  0
   12.7950    2.2712    7.6271 C   0  0  0  0  0  0  0  0  0  0  0  0
   11.5391    3.0786    7.9878 C   0  0  0  0  0  0  0  0  0  0  0  0
   11.5873    4.5462    7.5651 C   0  0  0  0  0  0  0  0  0  0  0  0
   11.4002    5.7692    9.7167 C   0  0  0  0  0  0  0  0  0  0  0  0
   12.4741    5.3562   10.1432 O   0  0  0  0  0  0  0  0  0  0  0  0
   10.8712    5.3851    8.5000 N   0  0  0  0  0  0  0  0  0  0  0  0
    9.9685    5.6956    8.2592 H   0  0  0  0  0  0  0  0  0  0  0  0
   10.3423    8.1082   12.4030 C   0  0  0  0  0  0  0  0  0  0  0  0
   11.3801    7.6716   11.3691 C   0  0  0  0  0  0  0  0  0  0  0  0
   10.5326    6.7940   10.4548 C   0  0  0  0  0  0  0  0  0  0  0  0
    9.5680    6.1231   11.2967 O   0  0  0  0  0  0  0  0  0  0  0  0
    9.5431    6.8115   12.5725 C   0  0  0  0  0  0  0  0  0  0  0  0
   10.0640    5.9351   13.6071 N   0  0  0  0  0  0  0  0  0  0  0  0
   11.3371    5.4481   13.7413 C   0  0  0  0  0  0  0  0  0  0  0  0
   11.4672    4.6968   14.8145 N   0  0  0  0  0  0  0  0  0  0  0  0
   10.2137    4.6812   15.3892 C   0  0  0  0  0  0  0  0  0  0  0  0
    9.7051    4.0615   16.5419 C   0  0  0  0  0  0  0  0  0  0  0  0
   10.4803    3.2874   17.3919 N   0  0  0  0  0  0  0  0  0  0  0  0
    8.3920    4.2201   16.8312 N   0  0  0  0  0  0  0  0  0  0  0  0
    7.6392    4.9842   16.0098 C   0  0  0  0  0  0  0  0  0  0  0  0
    8.0188    5.6397   14.8937 N   0  0  0  0  0  0  0  0  0  0  0  0
    9.3231    5.4336   14.6436 C   0  0  0  0  0  0  0  0  0  0  0  0
   11.4377    3.1570   17.2031 H   0  0  0  0  0  0  0  0  0  0  0  0
   10.0734    2.8682   18.1843 H   0  0  0  0  0  0  0  0  0  0  0  0
    8.2683    9.2584   12.6734 C   0  0  0  0  0  0  0  0  0  0  0  0
    9.4403    9.1067   11.8861 O   0  0  0  0  0  0  0  0  0  0  0  0
   11.9677    8.7759   10.6884 O   0  0  0  0  0  0  0  0  0  0  0  0
   13.3914    8.7112   10.6721 C   0  0  0  0  0  0  0  0  0  0  0  0
   19.1642    1.6620    9.9227 C   0  0  0  0  0  0  0  0  0  0  0  0
   19.4175    0.1772    9.6194 C   0  0  0  0  0  0  0  0  0  0  0  0
   20.8174   -0.3283    9.9924 C   0  0  0  0  0  0  0  0  0  0  0  0
   21.9588    0.2174    9.1332 C   0  0  0  0  0  0  0  0  0  0  0  0
   22.4169   -0.7576    8.1518 N   0  0  0  0  0  0  0  0  0  0  0  0
   22.7697   -1.5847    8.6333 H   0  0  0  0  0  0  0  0  0  0  0  0
   23.1621   -0.3484    7.5882 H   0  0  0  0  0  0  0  0  0  0  0  0
   19.8330    6.0318    7.7439 C   0  0  0  0  0  0  0  0  0  0  0  0
   19.6685    6.5083    6.3025 C   0  0  0  0  0  0  0  0  0  0  0  0
   20.9458    7.0200    5.6230 C   0  0  0  0  0  0  0  0  0  0  0  0
   20.8760    8.4206    5.0032 C   0  0  0  0  0  0  0  0  0  0  0  0
   22.2230    9.0973    4.7570 C   0  0  0  0  0  0  0  0  0  0  0  0
   22.1281   10.5740    4.4286 C   0  0  0  0  0  0  0  0  0  0  0  0
   21.5971   11.4069    5.1517 O   0  0  0  0  0  0  0  0  0  0  0  0
   22.6715   10.8700    3.2024 N   0  0  0  0  0  0  0  0  0  0  0  0
   23.0262   10.1305    2.6579 H   0  0  0  0  0  0  0  0  0  0  0  0
   22.7501   12.2270    2.6647 C   0  0  0  0  0  0  0  0  0  0  0  0
   24.0280   12.2880    1.8045 C   0  0  0  0  0  0  0  0  0  0  0  0
   24.0895   12.9393    0.7608 O   0  0  0  0  0  0  0  0  0  0  0  0
   25.0987   11.5706    2.3028 N   0  0  0  0  0  0  0  0  0  0  0  0
   24.9703   10.9365    3.0449 H   0  0  0  0  0  0  0  0  0  0  0  0
   26.4190   11.7619    1.7191 C   0  0  0  0  0  0  0  0  0  0  0  0
   27.4938   11.4147    2.7679 C   0  0  0  0  0  0  0  0  0  0  0  0
   27.7703   12.3964    3.6821 N   0  0  0  0  0  0  0  0  0  0  0  0
   28.1325   10.3648    2.7737 O   0  0  0  0  0  0  0  0  0  0  0  0
   27.2560   13.2359    3.6737 H   0  0  0  0  0  0  0  0  0  0  0  0
   28.4833   12.2626    4.3477 H   0  0  0  0  0  0  0  0  0  0  0  0
   26.6335   10.9505    0.4305 C   0  0  0  0  0  0  0  0  0  0  0  0
   27.4593   11.6915   -0.6272 C   0  0  0  0  0  0  0  0  0  0  0  0
   28.2467   12.8777   -0.0802 C   0  0  0  0  0  0  0  0  0  0  0  0
   27.9232   14.1074   -0.7763 N   0  0  0  0  0  0  0  0  0  0  0  0
   28.6359   14.5632   -1.2797 H   0  0  0  0  0  0  0  0  0  0  0  0
   26.6897   14.6567   -0.7661 C   0  0  0  0  0  0  0  0  0  0  0  0
   25.7068   14.3147   -1.5173 N   0  0  0  0  0  0  0  0  0  0  0  0
   26.6135   15.6544    0.1357 N   0  0  0  0  0  0  0  0  0  0  0  0
   25.8128   13.5778   -2.1616 H   0  0  0  0  0  0  0  0  0  0  0  0
   27.3964   15.8787    0.6889 H   0  0  0  0  0  0  0  0  0  0  0  0
   25.7750   16.1593    0.2415 H   0  0  0  0  0  0  0  0  0  0  0  0
   21.5097   12.5523    1.8157 C   0  0  0  0  0  0  0  0  0  0  0  0
   21.0547   14.0153    1.8803 C   0  0  0  0  0  0  0  0  0  0  0  0
   20.5363   14.4625    3.2462 C   0  0  0  0  0  0  0  0  0  0  0  0
   19.6753   15.6355    3.1070 N   0  0  0  0  0  0  0  0  0  0  0  0
   18.7230   15.5856    3.3518 H   0  0  0  0  0  0  0  0  0  0  0  0
   20.2028   16.7941    2.6368 C   0  0  0  0  0  0  0  0  0  0  0  0
   21.4594   17.0100    2.4671 N   0  0  0  0  0  0  0  0  0  0  0  0
   19.2560   17.7047    2.3508 N   0  0  0  0  0  0  0  0  0  0  0  0
   22.1139   16.3099    2.6921 H   0  0  0  0  0  0  0  0  0  0  0  0
   18.3065   17.4906    2.4987 H   0  0  0  0  0  0  0  0  0  0  0  0
   19.5121   18.5856    1.9934 H   0  0  0  0  0  0  0  0  0  0  0  0
 36 37  1  0
 19 37  1  0
 19 20  1  0
 20 38  1  0
 38 39  1  0
 20 21  1  0
 21 15  1  0
 15 16  2  0
 15 17  1  0
 17 14  1  0
 14 13  1  0
 13 12  1  0
 12 11  1  0
 11 10  1  0
 10  6  1  0
  6  7  2  0
  6  8  1  0
  8  5  1  0
  5 40  1  0
 40 41  1  0
 41 42  1  0
 42 43  1  0
 43 44  1  0
  5  1  1  0
  1  2  2  0
  1  3  1  0
  3 47  1  0
 47 48  1  0
 48 49  1  0
 49 50  1  0
 50 51  1  0
 51 52  1  0
 52 53  2  0
 52 54  1  0
 54 56  1  0
 56 78  1  0
 78 79  1  0
 79 80  1  0
 80 81  1  0
 81 83  1  0
 83 84  2  0
 83 85  1  0
 56 57  1  0
 57 58  2  0
 57 59  1  0
 59 61  1  0
 61 67  1  0
 67 68  1  0
 68 69  1  0
 69 70  1  0
 70 72  1  0
 72 73  2  0
 72 74  1  0
 61 62  1  0
 62 63  1  0
 62 64  2  0
 21 22  1  0
 22 23  1  0
 23 24  1  0
 24 25  1  0
 25 26  2  0
 26 27  1  0
 27 28  2  0
 28 29  1  0
 28 30  1  0
 30 31  2  0
 31 32  1  0
 32 33  2  0
 23 19  1  0
 33 24  1  0
 33 27  1  0
 17 18  1  0
  8  9  1  0
 44 45  1  0
 44 46  1  0
  3  4  1  0
 54 55  1  0
 81 82  1  0
 84 86  1  0
 85 87  1  0
 85 88  1  0
 59 60  1  0
 70 71  1  0
 73 75  1  0
 74 76  1  0
 74 77  1  0
 63 65  1  0
 63 66  1  0
 29 34  1  0
 29 35  1  0
M  END
> <minimizedAffinity>
-7.32012

> <CNNscore>
0.5774086118

> <CNNaffinity>
7.3042545319

> <CNN_VS>
4.2175393105

> <CNNaffinity_variance>
1.2531932592

$$$$



 88 90  0  0  0  0  0  0  0  0999 V2000
   18.8371    5.2121    3.7837 C   0  0  0  0  0  0  0  0  0  0  0  0
   18.0496    4.7695    2.9497 O   0  0  0  0  0  0  0  0  0  0  0  0
   19.2179    6.5351    3.8404 N   0  0  0  0  0  0  0  0  0  0  0  0
   19.8572    6.8179    4.5336 H   0  0  0  0  0  0  0  0  0  0  0  0
   19.4515    4.3212    4.8812 C   0  0  0  0  0  0  0  0  0  0  0  0
   17.9904    5.0890    6.7371 C   0  0  0  0  0  0  0  0  0  0  0  0
   18.4140    6.2372    6.7194 O   0  0  0  0  0  0  0  0  0  0  0  0
   18.4395    4.0990    5.9016 N   0  0  0  0  0  0  0  0  0  0  0  0
   18.0593    3.1959    5.9969 H   0  0  0  0  0  0  0  0  0  0  0  0
   16.8879    4.6069    7.6597 C   0  0  0  0  0  0  0  0  0  0  0  0
   17.1917    3.2395    8.2681 C   0  0  0  0  0  0  0  0  0  0  0  0
   16.0820    2.7388    9.1985 C   0  0  0  0  0  0  0  0  0  0  0  0
   14.9261    3.7226    9.4335 C   0  0  0  0  0  0  0  0  0  0  0  0
   14.0234    3.3680   10.6143 C   0  0  0  0  0  0  0  0  0  0  0  0
   11.8088    4.2726    9.9528 C   0  0  0  0  0  0  0  0  0  0  0  0
   11.6765    3.4951    9.0127 O   0  0  0  0  0  0  0  0  0  0  0  0
   12.9379    4.3139   10.7472 N   0  0  0  0  0  0  0  0  0  0  0  0
   13.0065    5.0170   11.4329 H   0  0  0  0  0  0  0  0  0  0  0  0
   10.1181    6.8522   12.0249 C   0  0  0  0  0  0  0  0  0  0  0  0
   11.3261    6.4084   11.1998 C   0  0  0  0  0  0  0  0  0  0  0  0
   10.7255    5.2628   10.3928 C   0  0  0  0  0  0  0  0  0  0  0  0
    9.7633    4.6078   11.2498 O   0  0  0  0  0  0  0  0  0  0  0  0
    9.4868    5.4967   12.3613 C   0  0  0  0  0  0  0  0  0  0  0  0
    9.9887    4.9075   13.5905 N   0  0  0  0  0  0  0  0  0  0  0  0
   11.2435    4.4207   13.8446 C   0  0  0  0  0  0  0  0  0  0  0  0
   11.3603    3.9787   15.0791 N   0  0  0  0  0  0  0  0  0  0  0  0
   10.1163    4.1702   15.6425 C   0  0  0  0  0  0  0  0  0  0  0  0
    9.6015    3.9032   16.9212 C   0  0  0  0  0  0  0  0  0  0  0  0
   10.3586    3.3523   17.9440 N   0  0  0  0  0  0  0  0  0  0  0  0
    8.3004    4.1887   17.1632 N   0  0  0  0  0  0  0  0  0  0  0  0
    7.5657    4.7366   16.1706 C   0  0  0  0  0  0  0  0  0  0  0  0
    7.9536    5.0534   14.9181 N   0  0  0  0  0  0  0  0  0  0  0  0
    9.2447    4.7330   14.7266 C   0  0  0  0  0  0  0  0  0  0  0  0
   11.3070    3.1359   17.7928 H   0  0  0  0  0  0  0  0  0  0  0  0
    9.9477    3.1777   18.8215 H   0  0  0  0  0  0  0  0  0  0  0  0
    9.7682    8.4856   10.3199 C   0  0  0  0  0  0  0  0  0  0  0  0
    9.1607    7.5915   11.2408 O   0  0  0  0  0  0  0  0  0  0  0  0
   11.8389    7.4542   10.3805 O   0  0  0  0  0  0  0  0  0  0  0  0
   13.1595    7.8401   10.7524 C   0  0  0  0  0  0  0  0  0  0  0  0
   20.7353    4.9467    5.4564 C   0  0  0  0  0  0  0  0  0  0  0  0
   21.9832    4.0717    5.2618 C   0  0  0  0  0  0  0  0  0  0  0  0
   22.4251    3.8927    3.8033 C   0  0  0  0  0  0  0  0  0  0  0  0
   22.9614    5.1537    3.1243 C   0  0  0  0  0  0  0  0  0  0  0  0
   23.9236    5.8572    3.9626 N   0  0  0  0  0  0  0  0  0  0  0  0
   23.4704    6.1495    4.8284 H   0  0  0  0  0  0  0  0  0  0  0  0
   24.2705    6.6781    3.4665 H   0  0  0  0  0  0  0  0  0  0  0  0
   18.7082    7.5206    2.9142 C   0  0  0  0  0  0  0  0  0  0  0  0
   19.5137    8.8178    2.9028 C   0  0  0  0  0  0  0  0  0  0  0  0
   20.1552    9.2124    4.2398 C   0  0  0  0  0  0  0  0  0  0  0  0
   19.4222   10.2798    5.0608 C   0  0  0  0  0  0  0  0  0  0  0  0
   18.7576   11.3903    4.2495 C   0  0  0  0  0  0  0  0  0  0  0  0
   18.8742   12.7693    4.8677 C   0  0  0  0  0  0  0  0  0  0  0  0
   18.9105   12.9823    6.0727 O   0  0  0  0  0  0  0  0  0  0  0  0
   18.8938   13.7638    3.9206 N   0  0  0  0  0  0  0  0  0  0  0  0
   18.8011   13.5093    2.9741 H   0  0  0  0  0  0  0  0  0  0  0  0
   19.0452   15.1808    4.2462 C   0  0  0  0  0  0  0  0  0  0  0  0
   19.8933   15.8047    3.1201 C   0  0  0  0  0  0  0  0  0  0  0  0
   20.9280   16.4337    3.3455 O   0  0  0  0  0  0  0  0  0  0  0  0
   19.4116   15.5897    1.8428 N   0  0  0  0  0  0  0  0  0  0  0  0
   18.5066   15.2268    1.7071 H   0  0  0  0  0  0  0  0  0  0  0  0
   20.2565   15.9054    0.6995 C   0  0  0  0  0  0  0  0  0  0  0  0
   20.1550   14.7690   -0.3369 C   0  0  0  0  0  0  0  0  0  0  0  0
   19.4601   13.6593    0.0650 N   0  0  0  0  0  0  0  0  0  0  0  0
   20.7066   14.7908   -1.4348 O   0  0  0  0  0  0  0  0  0  0  0  0
   19.0197   13.6464    0.9455 H   0  0  0  0  0  0  0  0  0  0  0  0
   19.4009   12.8745   -0.5265 H   0  0  0  0  0  0  0  0  0  0  0  0
   19.9205   17.2610    0.0558 C   0  0  0  0  0  0  0  0  0  0  0  0
   21.1568   18.1123   -0.2552 C   0  0  0  0  0  0  0  0  0  0  0  0
   21.3482   18.4090   -1.7390 C   0  0  0  0  0  0  0  0  0  0  0  0
   21.2822   19.8299   -2.0181 N   0  0  0  0  0  0  0  0  0  0  0  0
   21.7932   20.1824   -2.7823 H   0  0  0  0  0  0  0  0  0  0  0  0
   20.5525   20.6925   -1.2788 C   0  0  0  0  0  0  0  0  0  0  0  0
   20.6695   20.8877   -0.0156 N   0  0  0  0  0  0  0  0  0  0  0  0
   19.6405   21.3280   -2.0396 N   0  0  0  0  0  0  0  0  0  0  0  0
   21.3527   20.3980    0.4970 H   0  0  0  0  0  0  0  0  0  0  0  0
   19.5906   21.1435   -3.0054 H   0  0  0  0  0  0  0  0  0  0  0  0
   19.0240   21.9771   -1.6300 H   0  0  0  0  0  0  0  0  0  0  0  0
   17.6740   15.8712    4.3374 C   0  0  0  0  0  0  0  0  0  0  0  0
   17.4541   16.6934    5.6131 C   0  0  0  0  0  0  0  0  0  0  0  0
   18.2385   18.0033    5.6710 C   0  0  0  0  0  0  0  0  0  0  0  0
   19.1099   18.0257    6.8443 N   0  0  0  0  0  0  0  0  0  0  0  0
   20.0784   17.8779    6.7477 H   0  0  0  0  0  0  0  0  0  0  0  0
   18.5695   18.2526    8.0683 C   0  0  0  0  0  0  0  0  0  0  0  0
   18.2377   19.4110    8.5182 N   0  0  0  0  0  0  0  0  0  0  0  0
   18.4034   17.1174    8.7691 N   0  0  0  0  0  0  0  0  0  0  0  0
   18.3799   20.2130    7.9653 H   0  0  0  0  0  0  0  0  0  0  0  0
   18.6739   16.2545    8.3798 H   0  0  0  0  0  0  0  0  0  0  0  0
   18.0114   17.1489    9.6717 H   0  0  0  0  0  0  0  0  0  0  0  0
 36 37  1  0
 19 37  1  0
 19 20  1  0
 20 38  1  0
 38 39  1  0
 20 21  1  0
 21 15  1  0
 15 16  2  0
 15 17  1  0
 17 14  1  0
 14 13  1  0
 13 12  1  0
 12 11  1  0
 11 10  1  0
 10  6  1  0
  6  7  2  0
  6  8  1  0
  8  5  1  0
  5 40  1  0
 40 41  1  0
 41 42  1  0
 42 43  1  0
 43 44  1  0
  5  1  1  0
  1  2  2  0
  1  3  1  0
  3 47  1  0
 47 48  1  0
 48 49  1  0
 49 50  1  0
 50 51  1  0
 51 52  1  0
 52 53  2  0
 52 54  1  0
 54 56  1  0
 56 78  1  0
 78 79  1  0
 79 80  1  0
 80 81  1  0
 81 83  1  0
 83 84  2  0
 83 85  1  0
 56 57  1  0
 57 58  2  0
 57 59  1  0
 59 61  1  0
 61 67  1  0
 67 68  1  0
 68 69  1  0
 69 70  1  0
 70 72  1  0
 72 73  2  0
 72 74  1  0
 61 62  1  0
 62 63  1  0
 62 64  2  0
 21 22  1  0
 22 23  1  0
 23 24  1  0
 24 25  1  0
 25 26  2  0
 26 27  1  0
 27 28  2  0
 28 29  1  0
 28 30  1  0
 30 31  2  0
 31 32  1  0
 32 33  2  0
 23 19  1  0
 33 24  1  0
 33 27  1  0
 17 18  1  0
  8  9  1  0
 44 45  1  0
 44 46  1  0
  3  4  1  0
 54 55  1  0
 81 82  1  0
 84 86  1  0
 85 87  1  0
 85 88  1  0
 59 60  1  0
 70 71  1  0
 73 75  1  0
 74 76  1  0
 74 77  1  0
 63 65  1  0
 63 66  1  0
 29 34  1  0
 29 35  1  0
M  END
> <minimizedAffinity>
-6.45608

> <CNNscore>
0.5241094232

> <CNNaffinity>
6.8594450951

> <CNN_VS>
3.5950999260

> <CNNaffinity_variance>
1.5641981363

$$$$



 88 90  0  0  0  0  0  0  0  0999 V2000
    9.9555   11.5300    6.8054 C   0  0  0  0  0  0  0  0  0  0  0  0
    9.5787   11.6473    5.6408 O   0  0  0  0  0  0  0  0  0  0  0  0
   10.7377   12.4651    7.4475 N   0  0  0  0  0  0  0  0  0  0  0  0
   11.0060   12.3024    8.3806 H   0  0  0  0  0  0  0  0  0  0  0  0
    9.5510   10.3256    7.6778 C   0  0  0  0  0  0  0  0  0  0  0  0
   10.9290    8.3834    6.9723 C   0  0  0  0  0  0  0  0  0  0  0  0
   11.8888    8.6943    7.6651 O   0  0  0  0  0  0  0  0  0  0  0  0
    9.7706    9.1137    6.9046 N   0  0  0  0  0  0  0  0  0  0  0  0
    9.0543    8.8034    6.3047 H   0  0  0  0  0  0  0  0  0  0  0  0
   10.8707    7.1318    6.1183 C   0  0  0  0  0  0  0  0  0  0  0  0
   10.4417    5.9011    6.9142 C   0  0  0  0  0  0  0  0  0  0  0  0
   11.6272    5.0709    7.4174 C   0  0  0  0  0  0  0  0  0  0  0  0
   11.2912    3.6336    7.8424 C   0  0  0  0  0  0  0  0  0  0  0  0
   12.3885    2.6128    7.5447 C   0  0  0  0  0  0  0  0  0  0  0  0
   14.7165    2.7035    6.6889 C   0  0  0  0  0  0  0  0  0  0  0  0
   14.6610    1.5916    6.1729 O   0  0  0  0  0  0  0  0  0  0  0  0
   13.6791    3.2523    7.4171 N   0  0  0  0  0  0  0  0  0  0  0  0
   13.8245    4.1151    7.8682 H   0  0  0  0  0  0  0  0  0  0  0  0
   18.2523    3.7439    6.2177 C   0  0  0  0  0  0  0  0  0  0  0  0
   17.0153    3.0080    5.7028 C   0  0  0  0  0  0  0  0  0  0  0  0
   15.9211    3.6409    6.5551 C   0  0  0  0  0  0  0  0  0  0  0  0
   16.5016    3.9024    7.8528 O   0  0  0  0  0  0  0  0  0  0  0  0
   17.9423    3.8120    7.7170 C   0  0  0  0  0  0  0  0  0  0  0  0
   18.4295    2.6673    8.4669 N   0  0  0  0  0  0  0  0  0  0  0  0
   17.7008    1.7389    9.1620 C   0  0  0  0  0  0  0  0  0  0  0  0
   18.4673    0.8176    9.7068 N   0  0  0  0  0  0  0  0  0  0  0  0
   19.7531    1.1797    9.3645 C   0  0  0  0  0  0  0  0  0  0  0  0
   21.0059    0.6093    9.6411 C   0  0  0  0  0  0  0  0  0  0  0  0
   21.1634   -0.5548   10.3779 N   0  0  0  0  0  0  0  0  0  0  0  0
   22.1134    1.2319    9.1735 N   0  0  0  0  0  0  0  0  0  0  0  0
   21.9596    2.3594    8.4453 C   0  0  0  0  0  0  0  0  0  0  0  0
   20.8151    2.9852    8.1018 N   0  0  0  0  0  0  0  0  0  0  0  0
   19.7510    2.3372    8.6059 C   0  0  0  0  0  0  0  0  0  0  0  0
   20.3734   -1.0260   10.7288 H   0  0  0  0  0  0  0  0  0  0  0  0
   22.0653   -0.9101   10.5502 H   0  0  0  0  0  0  0  0  0  0  0  0
   19.5589    5.3922    5.0891 C   0  0  0  0  0  0  0  0  0  0  0  0
   18.3264    5.0986    5.7304 O   0  0  0  0  0  0  0  0  0  0  0  0
   16.8105    3.1995    4.3065 O   0  0  0  0  0  0  0  0  0  0  0  0
   16.1109    4.4074    4.0188 C   0  0  0  0  0  0  0  0  0  0  0  0
    8.0968   10.4522    8.1672 C   0  0  0  0  0  0  0  0  0  0  0  0
    7.0741   10.5633    7.0259 C   0  0  0  0  0  0  0  0  0  0  0  0
    6.0863    9.3932    6.9279 C   0  0  0  0  0  0  0  0  0  0  0  0
    6.5437    8.0953    7.5951 C   0  0  0  0  0  0  0  0  0  0  0  0
    6.1555    6.9203    6.8254 N   0  0  0  0  0  0  0  0  0  0  0  0
    5.1387    6.8815    6.7538 H   0  0  0  0  0  0  0  0  0  0  0  0
    6.4958    6.0800    7.2928 H   0  0  0  0  0  0  0  0  0  0  0  0
   11.1765   13.6773    6.7941 C   0  0  0  0  0  0  0  0  0  0  0  0
   12.6929   13.7696    6.6394 C   0  0  0  0  0  0  0  0  0  0  0  0
   13.1944   14.1732    5.2464 C   0  0  0  0  0  0  0  0  0  0  0  0
   14.0991   15.4091    5.1773 C   0  0  0  0  0  0  0  0  0  0  0  0
   15.2886   15.2994    4.2254 C   0  0  0  0  0  0  0  0  0  0  0  0
   16.4465   16.2161    4.5663 C   0  0  0  0  0  0  0  0  0  0  0  0
   17.3316   15.9387    5.3651 O   0  0  0  0  0  0  0  0  0  0  0  0
   16.3702   17.4179    3.9056 N   0  0  0  0  0  0  0  0  0  0  0  0
   15.5927   17.5831    3.3247 H   0  0  0  0  0  0  0  0  0  0  0  0
   17.3846   18.4641    4.0210 C   0  0  0  0  0  0  0  0  0  0  0  0
   18.0288   18.6103    2.6280 C   0  0  0  0  0  0  0  0  0  0  0  0
   17.8139   19.5812    1.9011 O   0  0  0  0  0  0  0  0  0  0  0  0
   18.8748   17.5787    2.2679 N   0  0  0  0  0  0  0  0  0  0  0  0
   18.8988   16.7480    2.7957 H   0  0  0  0  0  0  0  0  0  0  0  0
   19.7304   17.7329    1.0997 C   0  0  0  0  0  0  0  0  0  0  0  0
   21.1975   17.4967    1.5093 C   0  0  0  0  0  0  0  0  0  0  0  0
   22.1412   17.9872    0.6462 N   0  0  0  0  0  0  0  0  0  0  0  0
   21.5380   16.8543    2.5001 O   0  0  0  0  0  0  0  0  0  0  0  0
   21.8637   18.5012   -0.1462 H   0  0  0  0  0  0  0  0  0  0  0  0
   23.0970   17.8257    0.8184 H   0  0  0  0  0  0  0  0  0  0  0  0
   19.3349   16.8101   -0.0652 C   0  0  0  0  0  0  0  0  0  0  0  0
   18.8093   17.5655   -1.2911 C   0  0  0  0  0  0  0  0  0  0  0  0
   19.8953   18.2684   -2.0990 C   0  0  0  0  0  0  0  0  0  0  0  0
   19.7072   19.7056   -2.1202 N   0  0  0  0  0  0  0  0  0  0  0  0
   19.1362   20.0940   -2.8219 H   0  0  0  0  0  0  0  0  0  0  0  0
   20.2789   20.5364   -1.2223 C   0  0  0  0  0  0  0  0  0  0  0  0
   19.6687   21.1705   -0.2880 N   0  0  0  0  0  0  0  0  0  0  0  0
   21.6033   20.6463   -1.4420 N   0  0  0  0  0  0  0  0  0  0  0  0
   18.6982   21.0562   -0.1680 H   0  0  0  0  0  0  0  0  0  0  0  0
   22.0250   20.1384   -2.1725 H   0  0  0  0  0  0  0  0  0  0  0  0
   22.1497   21.2346   -0.8722 H   0  0  0  0  0  0  0  0  0  0  0  0
   16.7522   19.7931    4.4673 C   0  0  0  0  0  0  0  0  0  0  0  0
   17.5958   20.6028    5.4594 C   0  0  0  0  0  0  0  0  0  0  0  0
   18.2941   19.7689    6.5324 C   0  0  0  0  0  0  0  0  0  0  0  0
   17.4388   19.6311    7.7097 N   0  0  0  0  0  0  0  0  0  0  0  0
   16.8653   20.3775    7.9982 H   0  0  0  0  0  0  0  0  0  0  0  0
   17.4437   18.4631    8.4007 C   0  0  0  0  0  0  0  0  0  0  0  0
   16.9173   18.2983    9.5626 N   0  0  0  0  0  0  0  0  0  0  0  0
   18.0573   17.4755    7.7257 N   0  0  0  0  0  0  0  0  0  0  0  0
   16.4788   19.0542   10.0160 H   0  0  0  0  0  0  0  0  0  0  0  0
   18.4448   17.6528    6.8382 H   0  0  0  0  0  0  0  0  0  0  0  0
   18.1192   16.5751    8.1189 H   0  0  0  0  0  0  0  0  0  0  0  0
 36 37  1  0
 19 37  1  0
 19 20  1  0
 20 38  1  0
 38 39  1  0
 20 21  1  0
 21 15  1  0
 15 16  2  0
 15 17  1  0
 17 14  1  0
 14 13  1  0
 13 12  1  0
 12 11  1  0
 11 10  1  0
 10  6  1  0
  6  7  2  0
  6  8  1  0
  8  5  1  0
  5 40  1  0
 40 41  1  0
 41 42  1  0
 42 43  1  0
 43 44  1  0
  5  1  1  0
  1  2  2  0
  1  3  1  0
  3 47  1  0
 47 48  1  0
 48 49  1  0
 49 50  1  0
 50 51  1  0
 51 52  1  0
 52 53  2  0
 52 54  1  0
 54 56  1  0
 56 78  1  0
 78 79  1  0
 79 80  1  0
 80 81  1  0
 81 83  1  0
 83 84  2  0
 83 85  1  0
 56 57  1  0
 57 58  2  0
 57 59  1  0
 59 61  1  0
 61 67  1  0
 67 68  1  0
 68 69  1  0
 69 70  1  0
 70 72  1  0
 72 73  2  0
 72 74  1  0
 61 62  1  0
 62 63  1  0
 62 64  2  0
 21 22  1  0
 22 23  1  0
 23 24  1  0
 24 25  1  0
 25 26  2  0
 26 27  1  0
 27 28  2  0
 28 29  1  0
 28 30  1  0
 30 31  2  0
 31 32  1  0
 32 33  2  0
 23 19  1  0
 33 24  1  0
 33 27  1  0
 17 18  1  0
  8  9  1  0
 44 45  1  0
 44 46  1  0
  3  4  1  0
 54 55  1  0
 81 82  1  0
 84 86  1  0
 85 87  1  0
 85 88  1  0
 59 60  1  0
 70 71  1  0
 73 75  1  0
 74 76  1  0
 74 77  1  0
 63 65  1  0
 63 66  1  0
 29 34  1  0
 29 35  1  0
M  END
> <minimizedAffinity>
-6.64045

> <CNNscore>
0.3990426064

> <CNNaffinity>
6.5627188683

> <CNN_VS>
2.6188044548

> <CNNaffinity_variance>
3.0079586506

$$$$



 88 90  0  0  0  0  0  0  0  0999 V2000
   13.1672    5.4150    9.6954 C   0  0  0  0  0  0  0  0  0  0  0  0
   14.2032    5.6991    9.0972 O   0  0  0  0  0  0  0  0  0  0  0  0
   12.7360    6.0790   10.8231 N   0  0  0  0  0  0  0  0  0  0  0  0
   11.8977    5.7936   11.2531 H   0  0  0  0  0  0  0  0  0  0  0  0
   12.2235    4.2974    9.2101 C   0  0  0  0  0  0  0  0  0  0  0  0
   13.3090    2.7693    7.5806 C   0  0  0  0  0  0  0  0  0  0  0  0
   12.8822    3.3626    6.5988 O   0  0  0  0  0  0  0  0  0  0  0  0
   13.0331    3.1376    8.8721 N   0  0  0  0  0  0  0  0  0  0  0  0
   13.4001    2.5917    9.6046 H   0  0  0  0  0  0  0  0  0  0  0  0
   14.2288    1.5659    7.5096 C   0  0  0  0  0  0  0  0  0  0  0  0
   15.3332    1.6120    8.5633 C   0  0  0  0  0  0  0  0  0  0  0  0
   16.7240    1.3312    7.9849 C   0  0  0  0  0  0  0  0  0  0  0  0
   17.7549    2.4540    8.1745 C   0  0  0  0  0  0  0  0  0  0  0  0
   17.4053    3.7606    7.4636 C   0  0  0  0  0  0  0  0  0  0  0  0
   19.0702    4.6155    5.8334 C   0  0  0  0  0  0  0  0  0  0  0  0
   18.5792    4.0108    4.8852 O   0  0  0  0  0  0  0  0  0  0  0  0
   18.5957    4.5088    7.1261 N   0  0  0  0  0  0  0  0  0  0  0  0
   19.0888    4.9612    7.8482 H   0  0  0  0  0  0  0  0  0  0  0  0
   21.6450    6.7199    4.1757 C   0  0  0  0  0  0  0  0  0  0  0  0
   20.1761    6.3455    4.3727 C   0  0  0  0  0  0  0  0  0  0  0  0
   20.2391    5.5969    5.6993 C   0  0  0  0  0  0  0  0  0  0  0  0
   21.4975    4.8860    5.7181 O   0  0  0  0  0  0  0  0  0  0  0  0
   22.3353    5.4461    4.6757 C   0  0  0  0  0  0  0  0  0  0  0  0
   22.5492    4.4520    3.6384 N   0  0  0  0  0  0  0  0  0  0  0  0
   21.7853    3.3524    3.3500 C   0  0  0  0  0  0  0  0  0  0  0  0
   22.2600    2.6773    2.3243 N   0  0  0  0  0  0  0  0  0  0  0  0
   23.3955    3.3620    1.9455 C   0  0  0  0  0  0  0  0  0  0  0  0
   24.3385    3.1477    0.9275 C   0  0  0  0  0  0  0  0  0  0  0  0
   24.2573    2.0961    0.0272 N   0  0  0  0  0  0  0  0  0  0  0  0
   25.3823    4.0040    0.8270 N   0  0  0  0  0  0  0  0  0  0  0  0
   25.4552    5.0357    1.6963 C   0  0  0  0  0  0  0  0  0  0  0  0
   24.6052    5.3513    2.6950 N   0  0  0  0  0  0  0  0  0  0  0  0
   23.6007    4.4608    2.7615 C   0  0  0  0  0  0  0  0  0  0  0  0
   23.5078    1.4599    0.0798 H   0  0  0  0  0  0  0  0  0  0  0  0
   24.9491    1.9857   -0.6645 H   0  0  0  0  0  0  0  0  0  0  0  0
   22.9519    8.7037    4.4083 C   0  0  0  0  0  0  0  0  0  0  0  0
   22.0556    7.8000    5.0377 O   0  0  0  0  0  0  0  0  0  0  0  0
   19.3256    7.4868    4.4204 O   0  0  0  0  0  0  0  0  0  0  0  0
   18.9931    7.8635    5.7540 C   0  0  0  0  0  0  0  0  0  0  0  0
   11.3566    4.7703    8.0289 C   0  0  0  0  0  0  0  0  0  0  0  0
   11.5679    6.2487    7.6677 C   0  0  0  0  0  0  0  0  0  0  0  0
   10.3968    7.1741    8.0238 C   0  0  0  0  0  0  0  0  0  0  0  0
   10.7618    8.3903    8.8761 C   0  0  0  0  0  0  0  0  0  0  0  0
    9.8862    9.5246    8.6109 N   0  0  0  0  0  0  0  0  0  0  0  0
    9.9761    9.8023    7.6335 H   0  0  0  0  0  0  0  0  0  0  0  0
   10.1498   10.3055    9.2118 H   0  0  0  0  0  0  0  0  0  0  0  0
   13.4758    7.1812   11.3945 C   0  0  0  0  0  0  0  0  0  0  0  0
   12.7660    7.8437   12.5731 C   0  0  0  0  0  0  0  0  0  0  0  0
   11.3998    8.4680   12.2591 C   0  0  0  0  0  0  0  0  0  0  0  0
   10.1664    7.6439   12.6470 C   0  0  0  0  0  0  0  0  0  0  0  0
    8.8294    8.1895   12.1494 C   0  0  0  0  0  0  0  0  0  0  0  0
    7.6200    7.4184   12.6397 C   0  0  0  0  0  0  0  0  0  0  0  0
    7.0486    6.5505   11.9925 O   0  0  0  0  0  0  0  0  0  0  0  0
    7.2083    7.8325   13.8828 N   0  0  0  0  0  0  0  0  0  0  0  0
    7.6891    8.5780   14.3098 H   0  0  0  0  0  0  0  0  0  0  0  0
    6.0928    7.2227   14.6043 C   0  0  0  0  0  0  0  0  0  0  0  0
    4.8028    7.8314   14.0193 C   0  0  0  0  0  0  0  0  0  0  0  0
    4.3172    8.8804   14.4446 O   0  0  0  0  0  0  0  0  0  0  0  0
    4.2460    7.1188   12.9744 N   0  0  0  0  0  0  0  0  0  0  0  0
    4.5632    6.2101   12.7674 H   0  0  0  0  0  0  0  0  0  0  0  0
    3.1852    7.7258   12.1826 C   0  0  0  0  0  0  0  0  0  0  0  0
    3.7504    8.1439   10.8109 C   0  0  0  0  0  0  0  0  0  0  0  0
    4.7561    7.3555   10.3178 N   0  0  0  0  0  0  0  0  0  0  0  0
    3.3974    9.1512   10.2018 O   0  0  0  0  0  0  0  0  0  0  0  0
    5.0355    6.5495   10.8092 H   0  0  0  0  0  0  0  0  0  0  0  0
    5.1994    7.5948    9.4720 H   0  0  0  0  0  0  0  0  0  0  0  0
    1.9605    6.8117   12.0111 C   0  0  0  0  0  0  0  0  0  0  0  0
    1.4304    6.2469   13.3339 C   0  0  0  0  0  0  0  0  0  0  0  0
    0.3643    7.1140   13.9956 C   0  0  0  0  0  0  0  0  0  0  0  0
    0.6497    7.3441   15.3980 N   0  0  0  0  0  0  0  0  0  0  0  0
    0.7598    6.5643   15.9887 H   0  0  0  0  0  0  0  0  0  0  0  0
    0.7716    8.5784   15.9318 C   0  0  0  0  0  0  0  0  0  0  0  0
    1.7750    9.3656   15.7874 N   0  0  0  0  0  0  0  0  0  0  0  0
   -0.3056    8.8895   16.6783 N   0  0  0  0  0  0  0  0  0  0  0  0
    2.5394    9.0918   15.2306 H   0  0  0  0  0  0  0  0  0  0  0  0
   -1.0506    8.2508   16.7577 H   0  0  0  0  0  0  0  0  0  0  0  0
   -0.3480    9.7557   17.1444 H   0  0  0  0  0  0  0  0  0  0  0  0
    6.0979    5.6946   14.4301 C   0  0  0  0  0  0  0  0  0  0  0  0
    6.8431    4.9270   15.5288 C   0  0  0  0  0  0  0  0  0  0  0  0
    8.1103    4.2131   15.0610 C   0  0  0  0  0  0  0  0  0  0  0  0
    9.2869    4.7752   15.7216 N   0  0  0  0  0  0  0  0  0  0  0  0
    9.6548    5.6408   15.4307 H   0  0  0  0  0  0  0  0  0  0  0  0
    9.8666    4.0910   16.7402 C   0  0  0  0  0  0  0  0  0  0  0  0
    9.2728    3.7643   17.8333 N   0  0  0  0  0  0  0  0  0  0  0  0
   11.1465    3.7747   16.4767 N   0  0  0  0  0  0  0  0  0  0  0  0
    8.3333    4.0200   17.9785 H   0  0  0  0  0  0  0  0  0  0  0  0
   11.5557    4.0483   15.6241 H   0  0  0  0  0  0  0  0  0  0  0  0
   11.6745    3.2695   17.1364 H   0  0  0  0  0  0  0  0  0  0  0  0
 36 37  1  0
 19 37  1  0
 19 20  1  0
 20 38  1  0
 38 39  1  0
 20 21  1  0
 21 15  1  0
 15 16  2  0
 15 17  1  0
 17 14  1  0
 14 13  1  0
 13 12  1  0
 12 11  1  0
 11 10  1  0
 10  6  1  0
  6  7  2  0
  6  8  1  0
  8  5  1  0
  5 40  1  0
 40 41  1  0
 41 42  1  0
 42 43  1  0
 43 44  1  0
  5  1  1  0
  1  2  2  0
  1  3  1  0
  3 47  1  0
 47 48  1  0
 48 49  1  0
 49 50  1  0
 50 51  1  0
 51 52  1  0
 52 53  2  0
 52 54  1  0
 54 56  1  0
 56 78  1  0
 78 79  1  0
 79 80  1  0
 80 81  1  0
 81 83  1  0
 83 84  2  0
 83 85  1  0
 56 57  1  0
 57 58  2  0
 57 59  1  0
 59 61  1  0
 61 67  1  0
 67 68  1  0
 68 69  1  0
 69 70  1  0
 70 72  1  0
 72 73  2  0
 72 74  1  0
 61 62  1  0
 62 63  1  0
 62 64  2  0
 21 22  1  0
 22 23  1  0
 23 24  1  0
 24 25  1  0
 25 26  2  0
 26 27  1  0
 27 28  2  0
 28 29  1  0
 28 30  1  0
 30 31  2  0
 31 32  1  0
 32 33  2  0
 23 19  1  0
 33 24  1  0
 33 27  1  0
 17 18  1  0
  8  9  1  0
 44 45  1  0
 44 46  1  0
  3  4  1  0
 54 55  1  0
 81 82  1  0
 84 86  1  0
 85 87  1  0
 85 88  1  0
 59 60  1  0
 70 71  1  0
 73 75  1  0
 74 76  1  0
 74 77  1  0
 63 65  1  0
 63 66  1  0
 29 34  1  0
 29 35  1  0
M  END
> <minimizedAffinity>
-6.27392

> <CNNscore>
0.3029806614

> <CNNaffinity>
6.7490334511

> <CNN_VS>
2.0448265076

> <CNNaffinity_variance>
1.8348131180

$$$$



 88 90  0  0  0  0  0  0  0  0999 V2000
   10.7584    4.6432    9.9914 C   0  0  0  0  0  0  0  0  0  0  0  0
    9.5851    4.6834    9.6258 O   0  0  0  0  0  0  0  0  0  0  0  0
   11.7693    4.0881    9.2374 N   0  0  0  0  0  0  0  0  0  0  0  0
   12.6861    4.0869    9.5962 H   0  0  0  0  0  0  0  0  0  0  0  0
   11.2184    5.2519   11.3305 C   0  0  0  0  0  0  0  0  0  0  0  0
   11.2652    4.1081   13.5347 C   0  0  0  0  0  0  0  0  0  0  0  0
   12.4535    4.3284   13.7280 O   0  0  0  0  0  0  0  0  0  0  0  0
   10.5918    4.5012   12.4068 N   0  0  0  0  0  0  0  0  0  0  0  0
    9.6400    4.2643   12.3218 H   0  0  0  0  0  0  0  0  0  0  0  0
   10.3624    3.4008   14.5264 C   0  0  0  0  0  0  0  0  0  0  0  0
    9.7588    4.3575   15.5523 C   0  0  0  0  0  0  0  0  0  0  0  0
    8.2355    4.2334   15.6626 C   0  0  0  0  0  0  0  0  0  0  0  0
    7.4343    4.9871   14.5906 C   0  0  0  0  0  0  0  0  0  0  0  0
    7.2229    6.4714   14.8855 C   0  0  0  0  0  0  0  0  0  0  0  0
    5.2057    7.8589   14.4784 C   0  0  0  0  0  0  0  0  0  0  0  0
    5.8126    8.7020   13.8252 O   0  0  0  0  0  0  0  0  0  0  0  0
    5.8215    6.7747   15.0723 N   0  0  0  0  0  0  0  0  0  0  0  0
    5.2837    6.1833   15.6470 H   0  0  0  0  0  0  0  0  0  0  0  0
    1.6286    8.5591   13.7569 C   0  0  0  0  0  0  0  0  0  0  0  0
    2.9566    7.9246   13.3439 C   0  0  0  0  0  0  0  0  0  0  0  0
    3.6871    7.8755   14.6812 C   0  0  0  0  0  0  0  0  0  0  0  0
    3.2907    9.0548   15.4170 O   0  0  0  0  0  0  0  0  0  0  0  0
    2.1117    9.6001   14.7728 C   0  0  0  0  0  0  0  0  0  0  0  0
    2.4330   10.8876   14.1821 N   0  0  0  0  0  0  0  0  0  0  0  0
    3.2198   11.1452   13.0911 C   0  0  0  0  0  0  0  0  0  0  0  0
    3.2762   12.4314   12.8162 N   0  0  0  0  0  0  0  0  0  0  0  0
    2.5060   13.0347   13.7880 C   0  0  0  0  0  0  0  0  0  0  0  0
    2.1760   14.3756   14.0417 C   0  0  0  0  0  0  0  0  0  0  0  0
    2.6140   15.4273   13.2512 N   0  0  0  0  0  0  0  0  0  0  0  0
    1.4007   14.6551   15.1158 N   0  0  0  0  0  0  0  0  0  0  0  0
    0.9638   13.6296   15.8792 C   0  0  0  0  0  0  0  0  0  0  0  0
    1.1979   12.3103   15.7236 N   0  0  0  0  0  0  0  0  0  0  0  0
    1.9854   12.0914   14.6567 C   0  0  0  0  0  0  0  0  0  0  0  0
    3.1789   15.2499   12.4646 H   0  0  0  0  0  0  0  0  0  0  0  0
    2.3601   16.3515   13.4765 H   0  0  0  0  0  0  0  0  0  0  0  0
   -0.3030    7.1598   13.6655 C   0  0  0  0  0  0  0  0  0  0  0  0
    0.7745    7.6345   14.4594 O   0  0  0  0  0  0  0  0  0  0  0  0
    2.7857    6.6377   12.7583 O   0  0  0  0  0  0  0  0  0  0  0  0
    3.1465    6.6139   11.3798 C   0  0  0  0  0  0  0  0  0  0  0  0
   10.8970    6.7558   11.4015 C   0  0  0  0  0  0  0  0  0  0  0  0
   12.1460    7.6447   11.5050 C   0  0  0  0  0  0  0  0  0  0  0  0
   12.8910    7.8679   10.1823 C   0  0  0  0  0  0  0  0  0  0  0  0
   13.4944    9.2613   10.0000 C   0  0  0  0  0  0  0  0  0  0  0  0
   12.7210   10.0728    9.0688 N   0  0  0  0  0  0  0  0  0  0  0  0
   12.7130    9.6245    8.1527 H   0  0  0  0  0  0  0  0  0  0  0  0
   13.1442   10.9976    8.9912 H   0  0  0  0  0  0  0  0  0  0  0  0
   11.5261    3.5075    7.9365 C   0  0  0  0  0  0  0  0  0  0  0  0
   12.1283    2.1141    7.7704 C   0  0  0  0  0  0  0  0  0  0  0  0
   13.5379    1.9274    8.3476 C   0  0  0  0  0  0  0  0  0  0  0  0
   14.4615    0.9614    7.5963 C   0  0  0  0  0  0  0  0  0  0  0  0
   14.6622    1.2651    6.1129 C   0  0  0  0  0  0  0  0  0  0  0  0
   16.0135    1.8637    5.7764 C   0  0  0  0  0  0  0  0  0  0  0  0
   16.5641    1.7515    4.6888 O   0  0  0  0  0  0  0  0  0  0  0  0
   16.5744    2.5161    6.8470 N   0  0  0  0  0  0  0  0  0  0  0  0
   16.0902    2.5092    7.7041 H   0  0  0  0  0  0  0  0  0  0  0  0
   17.8536    3.2202    6.7786 C   0  0  0  0  0  0  0  0  0  0  0  0
   17.5255    4.7195    6.6340 C   0  0  0  0  0  0  0  0  0  0  0  0
   17.6991    5.3337    5.5805 O   0  0  0  0  0  0  0  0  0  0  0  0
   17.0085    5.3134    7.7697 N   0  0  0  0  0  0  0  0  0  0  0  0
   17.0335    4.8411    8.6331 H   0  0  0  0  0  0  0  0  0  0  0  0
   16.4264    6.6449    7.6762 C   0  0  0  0  0  0  0  0  0  0  0  0
   17.5565    7.6922    7.6365 C   0  0  0  0  0  0  0  0  0  0  0  0
   17.8110    8.2449    6.4094 N   0  0  0  0  0  0  0  0  0  0  0  0
   18.2527    7.9870    8.6054 O   0  0  0  0  0  0  0  0  0  0  0  0
   17.2506    8.0058    5.6361 H   0  0  0  0  0  0  0  0  0  0  0  0
   18.5542    8.8813    6.3007 H   0  0  0  0  0  0  0  0  0  0  0  0
   15.4877    6.8108    6.4694 C   0  0  0  0  0  0  0  0  0  0  0  0
   14.2725    7.6992    6.7587 C   0  0  0  0  0  0  0  0  0  0  0  0
   13.0600    7.3953    5.8849 C   0  0  0  0  0  0  0  0  0  0  0  0
   13.4443    6.8359    4.6040 N   0  0  0  0  0  0  0  0  0  0  0  0
   14.3966    6.6467    4.4412 H   0  0  0  0  0  0  0  0  0  0  0  0
   12.5568    6.5623    3.6238 C   0  0  0  0  0  0  0  0  0  0  0  0
   12.8313    6.0420    2.4831 N   0  0  0  0  0  0  0  0  0  0  0  0
   11.3125    6.9331    3.9827 N   0  0  0  0  0  0  0  0  0  0  0  0
   13.7577    5.7876    2.2682 H   0  0  0  0  0  0  0  0  0  0  0  0
   11.1533    7.3282    4.8703 H   0  0  0  0  0  0  0  0  0  0  0  0
   10.5623    6.8089    3.3574 H   0  0  0  0  0  0  0  0  0  0  0  0
   18.6860    2.9679    8.0470 C   0  0  0  0  0  0  0  0  0  0  0  0
   17.9368    2.2425    9.1713 C   0  0  0  0  0  0  0  0  0  0  0  0
   18.6047    0.9572    9.6573 C   0  0  0  0  0  0  0  0  0  0  0  0
   20.0275    1.1827    9.9050 N   0  0  0  0  0  0  0  0  0  0  0  0
   20.3404    2.0474   10.2566 H   0  0  0  0  0  0  0  0  0  0  0  0
   20.9125    0.1872    9.6450 C   0  0  0  0  0  0  0  0  0  0  0  0
   20.7689   -1.0352   10.0181 N   0  0  0  0  0  0  0  0  0  0  0  0
   21.9684    0.6187    8.9333 N   0  0  0  0  0  0  0  0  0  0  0  0
   19.9766   -1.3012   10.5384 H   0  0  0  0  0  0  0  0  0  0  0  0
   22.0319    1.5657    8.6718 H   0  0  0  0  0  0  0  0  0  0  0  0
   22.6781   -0.0123    8.6738 H   0  0  0  0  0  0  0  0  0  0  0  0
 36 37  1  0
 19 37  1  0
 19 20  1  0
 20 38  1  0
 38 39  1  0
 20 21  1  0
 21 15  1  0
 15 16  2  0
 15 17  1  0
 17 14  1  0
 14 13  1  0
 13 12  1  0
 12 11  1  0
 11 10  1  0
 10  6  1  0
  6  7  2  0
  6  8  1  0
  8  5  1  0
  5 40  1  0
 40 41  1  0
 41 42  1  0
 42 43  1  0
 43 44  1  0
  5  1  1  0
  1  2  2  0
  1  3  1  0
  3 47  1  0
 47 48  1  0
 48 49  1  0
 49 50  1  0
 50 51  1  0
 51 52  1  0
 52 53  2  0
 52 54  1  0
 54 56  1  0
 56 78  1  0
 78 79  1  0
 79 80  1  0
 80 81  1  0
 81 83  1  0
 83 84  2  0
 83 85  1  0
 56 57  1  0
 57 58  2  0
 57 59  1  0
 59 61  1  0
 61 67  1  0
 67 68  1  0
 68 69  1  0
 69 70  1  0
 70 72  1  0
 72 73  2  0
 72 74  1  0
 61 62  1  0
 62 63  1  0
 62 64  2  0
 21 22  1  0
 22 23  1  0
 23 24  1  0
 24 25  1  0
 25 26  2  0
 26 27  1  0
 27 28  2  0
 28 29  1  0
 28 30  1  0
 30 31  2  0
 31 32  1  0
 32 33  2  0
 23 19  1  0
 33 24  1  0
 33 27  1  0
 17 18  1  0
  8  9  1  0
 44 45  1  0
 44 46  1  0
  3  4  1  0
 54 55  1  0
 81 82  1  0
 84 86  1  0
 85 87  1  0
 85 88  1  0
 59 60  1  0
 70 71  1  0
 73 75  1  0
 74 76  1  0
 74 77  1  0
 63 65  1  0
 63 66  1  0
 29 34  1  0
 29 35  1  0
M  END
> <minimizedAffinity>
-7.26869

> <CNNscore>
0.2566699088

> <CNNaffinity>
6.9332370758

> <CNN_VS>
1.7795532942

> <CNNaffinity_variance>
3.8371531963

$$$$



 88 90  0  0  0  0  0  0  0  0999 V2000
   17.2099    5.4012    5.7920 C   0  0  0  0  0  0  0  0  0  0  0  0
   17.2912    5.9200    4.6802 O   0  0  0  0  0  0  0  0  0  0  0  0
   16.8256    6.0877    6.9231 N   0  0  0  0  0  0  0  0  0  0  0  0
   16.7874    5.6081    7.7820 H   0  0  0  0  0  0  0  0  0  0  0  0
   17.4999    3.9046    6.0187 C   0  0  0  0  0  0  0  0  0  0  0  0
   15.7951    2.1133    5.7872 C   0  0  0  0  0  0  0  0  0  0  0  0
   16.3738    1.5532    4.8657 O   0  0  0  0  0  0  0  0  0  0  0  0
   16.2539    3.2547    6.3927 N   0  0  0  0  0  0  0  0  0  0  0  0
   15.7148    3.6528    7.1139 H   0  0  0  0  0  0  0  0  0  0  0  0
   14.5093    1.6078    6.4119 C   0  0  0  0  0  0  0  0  0  0  0  0
   14.6912    1.1965    7.8714 C   0  0  0  0  0  0  0  0  0  0  0  0
   14.0074    2.1543    8.8526 C   0  0  0  0  0  0  0  0  0  0  0  0
   14.9181    3.2272    9.4681 C   0  0  0  0  0  0  0  0  0  0  0  0
   14.5962    3.5726   10.9213 C   0  0  0  0  0  0  0  0  0  0  0  0
   12.8742    5.3555   10.7932 C   0  0  0  0  0  0  0  0  0  0  0  0
   13.6828    6.2350   10.5131 O   0  0  0  0  0  0  0  0  0  0  0  0
   13.2382    4.0499   11.0586 N   0  0  0  0  0  0  0  0  0  0  0  0
   12.5438    3.4175   11.3537 H   0  0  0  0  0  0  0  0  0  0  0  0
    9.5770    6.4175   12.1375 C   0  0  0  0  0  0  0  0  0  0  0  0
   11.0097    6.7657   11.7338 C   0  0  0  0  0  0  0  0  0  0  0  0
   11.3594    5.5806   10.8406 C   0  0  0  0  0  0  0  0  0  0  0  0
   10.6964    4.4251   11.4015 O   0  0  0  0  0  0  0  0  0  0  0  0
    9.6949    4.9022   12.3351 C   0  0  0  0  0  0  0  0  0  0  0  0
   10.0669    4.5163   13.6852 N   0  0  0  0  0  0  0  0  0  0  0  0
   11.2901    4.0998   14.1393 C   0  0  0  0  0  0  0  0  0  0  0  0
   11.2781    3.8522   15.4322 N   0  0  0  0  0  0  0  0  0  0  0  0
    9.9806    4.1009   15.8277 C   0  0  0  0  0  0  0  0  0  0  0  0
    9.3349    4.0197   17.0718 C   0  0  0  0  0  0  0  0  0  0  0  0
    9.9824    3.6459   18.2397 N   0  0  0  0  0  0  0  0  0  0  0  0
    8.0142    4.3115   17.1312 N   0  0  0  0  0  0  0  0  0  0  0  0
    7.3858    4.6875   15.9959 C   0  0  0  0  0  0  0  0  0  0  0  0
    7.9023    4.8190   14.7568 N   0  0  0  0  0  0  0  0  0  0  0  0
    9.2079    4.5003   14.7513 C   0  0  0  0  0  0  0  0  0  0  0  0
   10.9425    3.4288   18.2224 H   0  0  0  0  0  0  0  0  0  0  0  0
    9.4820    3.5975   19.0861 H   0  0  0  0  0  0  0  0  0  0  0  0
    7.2836    6.5611   11.4917 C   0  0  0  0  0  0  0  0  0  0  0  0
    8.6366    6.6414   11.0682 O   0  0  0  0  0  0  0  0  0  0  0  0
   11.0952    8.0150   11.0555 O   0  0  0  0  0  0  0  0  0  0  0  0
   10.9145    7.8845    9.6479 C   0  0  0  0  0  0  0  0  0  0  0  0
   18.6048    3.7016    7.0714 C   0  0  0  0  0  0  0  0  0  0  0  0
   19.9941    4.1539    6.5959 C   0  0  0  0  0  0  0  0  0  0  0  0
   21.1722    3.4988    7.3289 C   0  0  0  0  0  0  0  0  0  0  0  0
   20.9674    3.2794    8.8284 C   0  0  0  0  0  0  0  0  0  0  0  0
   20.9197    4.5376    9.5621 N   0  0  0  0  0  0  0  0  0  0  0  0
   21.8043    5.0321    9.4470 H   0  0  0  0  0  0  0  0  0  0  0  0
   20.7623    4.3482   10.5520 H   0  0  0  0  0  0  0  0  0  0  0  0
   16.4766    7.4898    6.8883 C   0  0  0  0  0  0  0  0  0  0  0  0
   14.9990    7.7413    6.5960 C   0  0  0  0  0  0  0  0  0  0  0  0
   14.5208    9.1865    6.7902 C   0  0  0  0  0  0  0  0  0  0  0  0
   15.5929   10.2789    6.7006 C   0  0  0  0  0  0  0  0  0  0  0  0
   15.1951   11.5261    5.9137 C   0  0  0  0  0  0  0  0  0  0  0  0
   16.3521   12.2281    5.2313 C   0  0  0  0  0  0  0  0  0  0  0  0
   16.6173   12.1198    4.0411 O   0  0  0  0  0  0  0  0  0  0  0  0
   17.1000   12.9725    6.1104 N   0  0  0  0  0  0  0  0  0  0  0  0
   16.8520   12.9586    7.0630 H   0  0  0  0  0  0  0  0  0  0  0  0
   18.2456   13.7845    5.7038 C   0  0  0  0  0  0  0  0  0  0  0  0
   19.2635   12.8216    5.0608 C   0  0  0  0  0  0  0  0  0  0  0  0
   19.7096   11.8401    5.6565 O   0  0  0  0  0  0  0  0  0  0  0  0
   19.6220   13.1363    3.7639 N   0  0  0  0  0  0  0  0  0  0  0  0
   19.3755   14.0075    3.3772 H   0  0  0  0  0  0  0  0  0  0  0  0
   20.3682   12.1660    2.9749 C   0  0  0  0  0  0  0  0  0  0  0  0
   19.8669   12.2024    1.5177 C   0  0  0  0  0  0  0  0  0  0  0  0
   19.8094   10.9921    0.8793 N   0  0  0  0  0  0  0  0  0  0  0  0
   19.5946   13.2363    0.9118 O   0  0  0  0  0  0  0  0  0  0  0  0
   20.0285   10.1664    1.3688 H   0  0  0  0  0  0  0  0  0  0  0  0
   19.5491   10.9477   -0.0691 H   0  0  0  0  0  0  0  0  0  0  0  0
   21.8897   12.3819    3.0328 C   0  0  0  0  0  0  0  0  0  0  0  0
   22.6759   11.4346    2.1195 C   0  0  0  0  0  0  0  0  0  0  0  0
   23.1053   10.1363    2.7949 C   0  0  0  0  0  0  0  0  0  0  0  0
   24.5396   10.0818    2.9973 N   0  0  0  0  0  0  0  0  0  0  0  0
   24.8790    9.8306    3.8866 H   0  0  0  0  0  0  0  0  0  0  0  0
   25.4319   10.3598    2.0226 C   0  0  0  0  0  0  0  0  0  0  0  0
   25.5553    9.7281    0.9121 N   0  0  0  0  0  0  0  0  0  0  0  0
   26.2203   11.3948    2.3714 N   0  0  0  0  0  0  0  0  0  0  0  0
   24.9536    8.9773    0.7034 H   0  0  0  0  0  0  0  0  0  0  0  0
   26.0854   11.8469    3.2355 H   0  0  0  0  0  0  0  0  0  0  0  0
   26.9313   11.6991    1.7623 H   0  0  0  0  0  0  0  0  0  0  0  0
   17.8191   14.8700    4.7012 C   0  0  0  0  0  0  0  0  0  0  0  0
   17.1765   16.1101    5.3344 C   0  0  0  0  0  0  0  0  0  0  0  0
   18.1675   17.1056    5.9356 C   0  0  0  0  0  0  0  0  0  0  0  0
   18.2178   16.9618    7.3893 N   0  0  0  0  0  0  0  0  0  0  0  0
   18.4054   16.0853    7.7964 H   0  0  0  0  0  0  0  0  0  0  0  0
   18.0033   18.0497    8.1718 C   0  0  0  0  0  0  0  0  0  0  0  0
   17.0349   18.1686    9.0098 N   0  0  0  0  0  0  0  0  0  0  0  0
   18.9331   19.0025    7.9839 N   0  0  0  0  0  0  0  0  0  0  0  0
   16.3790   17.4413    9.1105 H   0  0  0  0  0  0  0  0  0  0  0  0
   19.6553   18.8632    7.3296 H   0  0  0  0  0  0  0  0  0  0  0  0
   18.8916   19.8394    8.5006 H   0  0  0  0  0  0  0  0  0  0  0  0
 36 37  1  0
 19 37  1  0
 19 20  1  0
 20 38  1  0
 38 39  1  0
 20 21  1  0
 21 15  1  0
 15 16  2  0
 15 17  1  0
 17 14  1  0
 14 13  1  0
 13 12  1  0
 12 11  1  0
 11 10  1  0
 10  6  1  0
  6  7  2  0
  6  8  1  0
  8  5  1  0
  5 40  1  0
 40 41  1  0
 41 42  1  0
 42 43  1  0
 43 44  1  0
  5  1  1  0
  1  2  2  0
  1  3  1  0
  3 47  1  0
 47 48  1  0
 48 49  1  0
 49 50  1  0
 50 51  1  0
 51 52  1  0
 52 53  2  0
 52 54  1  0
 54 56  1  0
 56 78  1  0
 78 79  1  0
 79 80  1  0
 80 81  1  0
 81 83  1  0
 83 84  2  0
 83 85  1  0
 56 57  1  0
 57 58  2  0
 57 59  1  0
 59 61  1  0
 61 67  1  0
 67 68  1  0
 68 69  1  0
 69 70  1  0
 70 72  1  0
 72 73  2  0
 72 74  1  0
 61 62  1  0
 62 63  1  0
 62 64  2  0
 21 22  1  0
 22 23  1  0
 23 24  1  0
 24 25  1  0
 25 26  2  0
 26 27  1  0
 27 28  2  0
 28 29  1  0
 28 30  1  0
 30 31  2  0
 31 32  1  0
 32 33  2  0
 23 19  1  0
 33 24  1  0
 33 27  1  0
 17 18  1  0
  8  9  1  0
 44 45  1  0
 44 46  1  0
  3  4  1  0
 54 55  1  0
 81 82  1  0
 84 86  1  0
 85 87  1  0
 85 88  1  0
 59 60  1  0
 70 71  1  0
 73 75  1  0
 74 76  1  0
 74 77  1  0
 63 65  1  0
 63 66  1  0
 29 34  1  0
 29 35  1  0
M  END
> <minimizedAffinity>
-6.98034

> <CNNscore>
0.2087513655

> <CNNaffinity>
7.0359959602

> <CNN_VS>
1.4687737226

> <CNNaffinity_variance>
3.4218738079

$$$$



 88 90  0  0  0  0  0  0  0  0999 V2000
   14.5671    5.9369    7.3617 C   0  0  0  0  0  0  0  0  0  0  0  0
   13.6772    5.8846    6.5148 O   0  0  0  0  0  0  0  0  0  0  0  0
   15.0941    7.1181    7.8363 N   0  0  0  0  0  0  0  0  0  0  0  0
   15.8093    7.0837    8.5120 H   0  0  0  0  0  0  0  0  0  0  0  0
   15.1578    4.6674    8.0059 C   0  0  0  0  0  0  0  0  0  0  0  0
   14.2938    4.0032   10.2378 C   0  0  0  0  0  0  0  0  0  0  0  0
   13.5847    3.1070    9.7996 O   0  0  0  0  0  0  0  0  0  0  0  0
   15.0719    4.8122    9.4504 N   0  0  0  0  0  0  0  0  0  0  0  0
   15.5968    5.5240    9.8829 H   0  0  0  0  0  0  0  0  0  0  0  0
   14.4390    4.3242   11.7126 C   0  0  0  0  0  0  0  0  0  0  0  0
   14.5045    5.8264   11.9796 C   0  0  0  0  0  0  0  0  0  0  0  0
   13.1435    6.5176   11.8470 C   0  0  0  0  0  0  0  0  0  0  0  0
   13.0215    7.5137   10.6842 C   0  0  0  0  0  0  0  0  0  0  0  0
   11.9064    7.1924    9.6901 C   0  0  0  0  0  0  0  0  0  0  0  0
    9.7937    5.9309   10.0143 C   0  0  0  0  0  0  0  0  0  0  0  0
    9.9776    5.2053    9.0420 O   0  0  0  0  0  0  0  0  0  0  0  0
   10.6519    6.9535   10.3683 N   0  0  0  0  0  0  0  0  0  0  0  0
   10.3989    7.5447   11.1138 H   0  0  0  0  0  0  0  0  0  0  0  0
    7.9060    6.0528   13.2125 C   0  0  0  0  0  0  0  0  0  0  0  0
    8.7085    6.7711   12.1276 C   0  0  0  0  0  0  0  0  0  0  0  0
    8.6174    5.7686   10.9827 C   0  0  0  0  0  0  0  0  0  0  0  0
    8.6343    4.4517   11.5784 O   0  0  0  0  0  0  0  0  0  0  0  0
    8.3595    4.6052   12.9937 C   0  0  0  0  0  0  0  0  0  0  0  0
    9.5388    4.2404   13.7594 N   0  0  0  0  0  0  0  0  0  0  0  0
   10.7979    3.9671   13.2949 C   0  0  0  0  0  0  0  0  0  0  0  0
   11.6359    3.6939   14.2728 N   0  0  0  0  0  0  0  0  0  0  0  0
   10.8771    3.7745   15.4214 C   0  0  0  0  0  0  0  0  0  0  0  0
   11.1860    3.5902   16.7786 C   0  0  0  0  0  0  0  0  0  0  0  0
   12.4582    3.2746   17.2311 N   0  0  0  0  0  0  0  0  0  0  0  0
   10.1909    3.7175   17.6878 N   0  0  0  0  0  0  0  0  0  0  0  0
    8.9539    4.0369   17.2485 C   0  0  0  0  0  0  0  0  0  0  0  0
    8.5453    4.2554   15.9817 N   0  0  0  0  0  0  0  0  0  0  0  0
    9.5655    4.0983   15.1209 C   0  0  0  0  0  0  0  0  0  0  0  0
   13.1986    3.1766   16.5896 H   0  0  0  0  0  0  0  0  0  0  0  0
   12.6211    3.1486   18.1938 H   0  0  0  0  0  0  0  0  0  0  0  0
    5.7133    5.7305   14.0988 C   0  0  0  0  0  0  0  0  0  0  0  0
    6.4864    6.1020   12.9671 O   0  0  0  0  0  0  0  0  0  0  0  0
    8.1586    8.0423   11.7962 O   0  0  0  0  0  0  0  0  0  0  0  0
    8.8613    9.1178   12.4132 C   0  0  0  0  0  0  0  0  0  0  0  0
   16.5993    4.4157    7.5275 C   0  0  0  0  0  0  0  0  0  0  0  0
   17.2133    3.1232    8.0872 C   0  0  0  0  0  0  0  0  0  0  0  0
   18.7027    3.2177    8.4437 C   0  0  0  0  0  0  0  0  0  0  0  0
   19.2776    2.0027    9.1732 C   0  0  0  0  0  0  0  0  0  0  0  0
   18.2355    1.0723    9.5881 N   0  0  0  0  0  0  0  0  0  0  0  0
   17.5997    1.5400   10.2342 H   0  0  0  0  0  0  0  0  0  0  0  0
   18.6612    0.2695   10.0514 H   0  0  0  0  0  0  0  0  0  0  0  0
   14.6301    8.4062    7.3734 C   0  0  0  0  0  0  0  0  0  0  0  0
   15.7615    9.3667    7.0139 C   0  0  0  0  0  0  0  0  0  0  0  0
   15.3285   10.6915    6.3719 C   0  0  0  0  0  0  0  0  0  0  0  0
   16.4106   11.4695    5.6140 C   0  0  0  0  0  0  0  0  0  0  0  0
   16.3303   12.9902    5.7325 C   0  0  0  0  0  0  0  0  0  0  0  0
   17.6771   13.6824    5.7985 C   0  0  0  0  0  0  0  0  0  0  0  0
   18.6755   13.1972    6.3146 O   0  0  0  0  0  0  0  0  0  0  0  0
   17.6429   14.9400    5.2475 N   0  0  0  0  0  0  0  0  0  0  0  0
   16.7833   15.2772    4.9062 H   0  0  0  0  0  0  0  0  0  0  0  0
   18.8178   15.8033    5.1419 C   0  0  0  0  0  0  0  0  0  0  0  0
   19.1865   15.8668    3.6463 C   0  0  0  0  0  0  0  0  0  0  0  0
   18.9600   14.9363    2.8716 O   0  0  0  0  0  0  0  0  0  0  0  0
   19.7736   17.0507    3.2423 N   0  0  0  0  0  0  0  0  0  0  0  0
   20.0857   17.7040    3.9094 H   0  0  0  0  0  0  0  0  0  0  0  0
   19.9261   17.3220    1.8197 C   0  0  0  0  0  0  0  0  0  0  0  0
   21.3296   16.8762    1.3647 C   0  0  0  0  0  0  0  0  0  0  0  0
   22.1348   17.8663    0.8672 N   0  0  0  0  0  0  0  0  0  0  0  0
   21.7125   15.7085    1.3667 O   0  0  0  0  0  0  0  0  0  0  0  0
   21.8238   18.8004    0.8677 H   0  0  0  0  0  0  0  0  0  0  0  0
   23.0245   17.6439    0.5092 H   0  0  0  0  0  0  0  0  0  0  0  0
   18.8382   16.6592    0.9581 C   0  0  0  0  0  0  0  0  0  0  0  0
   18.7481   17.2343   -0.4600 C   0  0  0  0  0  0  0  0  0  0  0  0
   18.5249   18.7423   -0.5047 C   0  0  0  0  0  0  0  0  0  0  0  0
   19.4775   19.4034   -1.3747 N   0  0  0  0  0  0  0  0  0  0  0  0
   19.6161   19.0418   -2.2798 H   0  0  0  0  0  0  0  0  0  0  0  0
   20.1837   20.4921   -1.0012 C   0  0  0  0  0  0  0  0  0  0  0  0
   21.3661   20.4879   -0.5019 N   0  0  0  0  0  0  0  0  0  0  0  0
   19.4719   21.6188   -1.1964 N   0  0  0  0  0  0  0  0  0  0  0  0
   21.8456   19.6369   -0.3791 H   0  0  0  0  0  0  0  0  0  0  0  0
   18.5679   21.5692   -1.5831 H   0  0  0  0  0  0  0  0  0  0  0  0
   19.8556   22.4920   -0.9523 H   0  0  0  0  0  0  0  0  0  0  0  0
   18.5145   17.2098    5.6850 C   0  0  0  0  0  0  0  0  0  0  0  0
   17.0416   17.6274    5.5952 C   0  0  0  0  0  0  0  0  0  0  0  0
   16.8139   19.0715    5.1512 C   0  0  0  0  0  0  0  0  0  0  0  0
   17.7549   19.9668    5.8217 N   0  0  0  0  0  0  0  0  0  0  0  0
   18.6135   20.1946    5.3972 H   0  0  0  0  0  0  0  0  0  0  0  0
   17.4323   20.4806    7.0356 C   0  0  0  0  0  0  0  0  0  0  0  0
   16.4269   21.2507    7.2603 N   0  0  0  0  0  0  0  0  0  0  0  0
   18.2826   20.0832    7.9982 N   0  0  0  0  0  0  0  0  0  0  0  0
   15.8330   21.5134    6.5203 H   0  0  0  0  0  0  0  0  0  0  0  0
   19.0379   19.4926    7.7747 H   0  0  0  0  0  0  0  0  0  0  0  0
   18.1500   20.3829    8.9265 H   0  0  0  0  0  0  0  0  0  0  0  0
 36 37  1  0
 19 37  1  0
 19 20  1  0
 20 38  1  0
 38 39  1  0
 20 21  1  0
 21 15  1  0
 15 16  2  0
 15 17  1  0
 17 14  1  0
 14 13  1  0
 13 12  1  0
 12 11  1  0
 11 10  1  0
 10  6  1  0
  6  7  2  0
  6  8  1  0
  8  5  1  0
  5 40  1  0
 40 41  1  0
 41 42  1  0
 42 43  1  0
 43 44  1  0
  5  1  1  0
  1  2  2  0
  1  3  1  0
  3 47  1  0
 47 48  1  0
 48 49  1  0
 49 50  1  0
 50 51  1  0
 51 52  1  0
 52 53  2  0
 52 54  1  0
 54 56  1  0
 56 78  1  0
 78 79  1  0
 79 80  1  0
 80 81  1  0
 81 83  1  0
 83 84  2  0
 83 85  1  0
 56 57  1  0
 57 58  2  0
 57 59  1  0
 59 61  1  0
 61 67  1  0
 67 68  1  0
 68 69  1  0
 69 70  1  0
 70 72  1  0
 72 73  2  0
 72 74  1  0
 61 62  1  0
 62 63  1  0
 62 64  2  0
 21 22  1  0
 22 23  1  0
 23 24  1  0
 24 25  1  0
 25 26  2  0
 26 27  1  0
 27 28  2  0
 28 29  1  0
 28 30  1  0
 30 31  2  0
 31 32  1  0
 32 33  2  0
 23 19  1  0
 33 24  1  0
 33 27  1  0
 17 18  1  0
  8  9  1  0
 44 45  1  0
 44 46  1  0
  3  4  1  0
 54 55  1  0
 81 82  1  0
 84 86  1  0
 85 87  1  0
 85 88  1  0
 59 60  1  0
 70 71  1  0
 73 75  1  0
 74 76  1  0
 74 77  1  0
 63 65  1  0
 63 66  1  0
 29 34  1  0
 29 35  1  0
M  END
> <minimizedAffinity>
-6.88272

> <CNNscore>
0.1950151473

> <CNNaffinity>
6.9023056030

> <CNN_VS>
1.3460541964

> <CNNaffinity_variance>
2.6673927307

$$$$



 88 90  0  0  0  0  0  0  0  0999 V2000
   16.3029    4.3178    6.9193 C   0  0  0  0  0  0  0  0  0  0  0  0
   16.2358    4.6172    5.7286 O   0  0  0  0  0  0  0  0  0  0  0  0
   16.9384    5.0957    7.8625 N   0  0  0  0  0  0  0  0  0  0  0  0
   16.9567    4.7906    8.7983 H   0  0  0  0  0  0  0  0  0  0  0  0
   15.6409    3.0441    7.4803 C   0  0  0  0  0  0  0  0  0  0  0  0
   13.8542    3.3632    9.1758 C   0  0  0  0  0  0  0  0  0  0  0  0
   12.9402    3.1799    8.3827 O   0  0  0  0  0  0  0  0  0  0  0  0
   15.1804    3.3310    8.8295 N   0  0  0  0  0  0  0  0  0  0  0  0
   15.8521    3.5105    9.5265 H   0  0  0  0  0  0  0  0  0  0  0  0
   13.6524    3.6178   10.6568 C   0  0  0  0  0  0  0  0  0  0  0  0
   14.4694    4.8050   11.1621 C   0  0  0  0  0  0  0  0  0  0  0  0
   13.7096    5.6657   12.1768 C   0  0  0  0  0  0  0  0  0  0  0  0
   12.3620    6.2202   11.6914 C   0  0  0  0  0  0  0  0  0  0  0  0
   11.7224    7.2412   12.6312 C   0  0  0  0  0  0  0  0  0  0  0  0
    9.3057    7.4785   12.1180 C   0  0  0  0  0  0  0  0  0  0  0  0
    9.4852    8.3330   11.2558 O   0  0  0  0  0  0  0  0  0  0  0  0
   10.3294    6.9348   12.8689 N   0  0  0  0  0  0  0  0  0  0  0  0
   10.1011    6.3124   13.5968 H   0  0  0  0  0  0  0  0  0  0  0  0
    6.4062    6.3815   14.1664 C   0  0  0  0  0  0  0  0  0  0  0  0
    7.3474    7.4937   13.7037 C   0  0  0  0  0  0  0  0  0  0  0  0
    7.9350    6.8745   12.4405 C   0  0  0  0  0  0  0  0  0  0  0  0
    8.0562    5.4557   12.6884 O   0  0  0  0  0  0  0  0  0  0  0  0
    7.2509    5.1418   13.8526 C   0  0  0  0  0  0  0  0  0  0  0  0
    8.1161    4.7324   14.9452 N   0  0  0  0  0  0  0  0  0  0  0  0
    7.8685    4.7982   16.2906 C   0  0  0  0  0  0  0  0  0  0  0  0
    8.8673    4.3162   17.0000 N   0  0  0  0  0  0  0  0  0  0  0  0
    9.8129    3.9403   16.0694 C   0  0  0  0  0  0  0  0  0  0  0  0
   11.0885    3.3661   16.1901 C   0  0  0  0  0  0  0  0  0  0  0  0
   11.6587    3.0343   17.4099 N   0  0  0  0  0  0  0  0  0  0  0  0
   11.7991    3.1344   15.0613 N   0  0  0  0  0  0  0  0  0  0  0  0
   11.2389    3.4463   13.8721 C   0  0  0  0  0  0  0  0  0  0  0  0
   10.0233    3.9798   13.6329 N   0  0  0  0  0  0  0  0  0  0  0  0
    9.3699    4.2060   14.7855 C   0  0  0  0  0  0  0  0  0  0  0  0
   11.1620    3.1931   18.2449 H   0  0  0  0  0  0  0  0  0  0  0  0
   12.5603    2.6400   17.4407 H   0  0  0  0  0  0  0  0  0  0  0  0
    4.0271    6.5644   14.1014 C   0  0  0  0  0  0  0  0  0  0  0  0
    5.2119    6.3047   13.3628 O   0  0  0  0  0  0  0  0  0  0  0  0
    6.6624    8.7171   13.4543 O   0  0  0  0  0  0  0  0  0  0  0  0
    6.2517    8.8446   12.0955 C   0  0  0  0  0  0  0  0  0  0  0  0
   16.6052    1.8449    7.4336 C   0  0  0  0  0  0  0  0  0  0  0  0
   17.0366    1.3515    8.8233 C   0  0  0  0  0  0  0  0  0  0  0  0
   18.3253    1.9864    9.3625 C   0  0  0  0  0  0  0  0  0  0  0  0
   19.4463    1.0023    9.6996 C   0  0  0  0  0  0  0  0  0  0  0  0
   18.9287   -0.3123   10.0566 N   0  0  0  0  0  0  0  0  0  0  0  0
   18.3380   -0.2319   10.8843 H   0  0  0  0  0  0  0  0  0  0  0  0
   19.7066   -0.9419   10.2540 H   0  0  0  0  0  0  0  0  0  0  0  0
   17.5790    6.3454    7.5211 C   0  0  0  0  0  0  0  0  0  0  0  0
   19.0784    6.2101    7.2659 C   0  0  0  0  0  0  0  0  0  0  0  0
   19.7526    4.9886    7.9048 C   0  0  0  0  0  0  0  0  0  0  0  0
   20.0176    3.7935    6.9816 C   0  0  0  0  0  0  0  0  0  0  0  0
   21.4633    3.6315    6.5161 C   0  0  0  0  0  0  0  0  0  0  0  0
   21.7776    4.3245    5.2053 C   0  0  0  0  0  0  0  0  0  0  0  0
   21.7657    5.5385    5.0486 O   0  0  0  0  0  0  0  0  0  0  0  0
   22.0394    3.4317    4.1949 N   0  0  0  0  0  0  0  0  0  0  0  0
   21.9704    2.4697    4.3920 H   0  0  0  0  0  0  0  0  0  0  0  0
   22.4152    3.8372    2.8416 C   0  0  0  0  0  0  0  0  0  0  0  0
   21.1294    4.3456    2.1597 C   0  0  0  0  0  0  0  0  0  0  0  0
   20.3977    3.6073    1.4989 O   0  0  0  0  0  0  0  0  0  0  0  0
   20.8556    5.6851    2.3608 N   0  0  0  0  0  0  0  0  0  0  0  0
   21.5363    6.2783    2.7532 H   0  0  0  0  0  0  0  0  0  0  0  0
   19.5500    6.2102    1.9864 C   0  0  0  0  0  0  0  0  0  0  0  0
   18.5512    5.9534    3.1320 C   0  0  0  0  0  0  0  0  0  0  0  0
   17.9483    4.7236    3.1296 N   0  0  0  0  0  0  0  0  0  0  0  0
   18.2375    6.7958    3.9700 O   0  0  0  0  0  0  0  0  0  0  0  0
   18.2029    4.0519    2.4563 H   0  0  0  0  0  0  0  0  0  0  0  0
   17.2604    4.5113    3.8010 H   0  0  0  0  0  0  0  0  0  0  0  0
   19.5821    7.7025    1.6163 C   0  0  0  0  0  0  0  0  0  0  0  0
   20.8207    8.4356    2.1437 C   0  0  0  0  0  0  0  0  0  0  0  0
   20.5100    9.5155    3.1749 C   0  0  0  0  0  0  0  0  0  0  0  0
   21.6037    9.7015    4.1079 N   0  0  0  0  0  0  0  0  0  0  0  0
   22.4104    9.1471    4.0022 H   0  0  0  0  0  0  0  0  0  0  0  0
   21.5674   10.5997    5.1155 C   0  0  0  0  0  0  0  0  0  0  0  0
   21.7769   10.3481    6.3566 N   0  0  0  0  0  0  0  0  0  0  0  0
   21.2514   11.8262    4.6570 N   0  0  0  0  0  0  0  0  0  0  0  0
   22.0053    9.4340    6.6418 H   0  0  0  0  0  0  0  0  0  0  0  0
   21.1001   11.9680    3.6945 H   0  0  0  0  0  0  0  0  0  0  0  0
   21.1717   12.5808    5.2842 H   0  0  0  0  0  0  0  0  0  0  0  0
   23.4826    4.9439    2.8782 C   0  0  0  0  0  0  0  0  0  0  0  0
   24.8707    4.4803    3.3363 C   0  0  0  0  0  0  0  0  0  0  0  0
   25.9719    4.6312    2.2880 C   0  0  0  0  0  0  0  0  0  0  0  0
   26.7708    5.8260    2.5544 N   0  0  0  0  0  0  0  0  0  0  0  0
   26.3415    6.6483    2.8842 H   0  0  0  0  0  0  0  0  0  0  0  0
   28.1108    5.7895    2.3421 C   0  0  0  0  0  0  0  0  0  0  0  0
   28.7152    4.9029    1.6330 N   0  0  0  0  0  0  0  0  0  0  0  0
   28.7500    6.8026    2.9524 N   0  0  0  0  0  0  0  0  0  0  0  0
   28.2012    4.1798    1.2062 H   0  0  0  0  0  0  0  0  0  0  0  0
   28.2413    7.4562    3.4846 H   0  0  0  0  0  0  0  0  0  0  0  0
   29.7268    6.8910    2.8670 H   0  0  0  0  0  0  0  0  0  0  0  0
 36 37  1  0
 19 37  1  0
 19 20  1  0
 20 38  1  0
 38 39  1  0
 20 21  1  0
 21 15  1  0
 15 16  2  0
 15 17  1  0
 17 14  1  0
 14 13  1  0
 13 12  1  0
 12 11  1  0
 11 10  1  0
 10  6  1  0
  6  7  2  0
  6  8  1  0
  8  5  1  0
  5 40  1  0
 40 41  1  0
 41 42  1  0
 42 43  1  0
 43 44  1  0
  5  1  1  0
  1  2  2  0
  1  3  1  0
  3 47  1  0
 47 48  1  0
 48 49  1  0
 49 50  1  0
 50 51  1  0
 51 52  1  0
 52 53  2  0
 52 54  1  0
 54 56  1  0
 56 78  1  0
 78 79  1  0
 79 80  1  0
 80 81  1  0
 81 83  1  0
 83 84  2  0
 83 85  1  0
 56 57  1  0
 57 58  2  0
 57 59  1  0
 59 61  1  0
 61 67  1  0
 67 68  1  0
 68 69  1  0
 69 70  1  0
 70 72  1  0
 72 73  2  0
 72 74  1  0
 61 62  1  0
 62 63  1  0
 62 64  2  0
 21 22  1  0
 22 23  1  0
 23 24  1  0
 24 25  1  0
 25 26  2  0
 26 27  1  0
 27 28  2  0
 28 29  1  0
 28 30  1  0
 30 31  2  0
 31 32  1  0
 32 33  2  0
 23 19  1  0
 33 24  1  0
 33 27  1  0
 17 18  1  0
  8  9  1  0
 44 45  1  0
 44 46  1  0
  3  4  1  0
 54 55  1  0
 81 82  1  0
 84 86  1  0
 85 87  1  0
 85 88  1  0
 59 60  1  0
 70 71  1  0
 73 75  1  0
 74 76  1  0
 74 77  1  0
 63 65  1  0
 63 66  1  0
 29 34  1  0
 29 35  1  0
M  END
> <minimizedAffinity>
-6.88057

> <CNNscore>
0.1945689023

> <CNNaffinity>
7.0797295570

> <CNN_VS>
1.3774951696

> <CNNaffinity_variance>
2.5560133457

$$$$
