


 27 29  0  0  0  0  0  0  0  0999 V2000
  -12.3000   57.3047   10.0827 C   0  0  0  0  0  0  0  0  0  0  0  0
  -12.6175   56.2065    9.6441 O   0  0  0  0  0  0  0  0  0  0  0  0
  -11.0225   57.7358   10.3943 N   0  0  0  0  0  0  0  0  0  0  0  0
  -10.9487   58.6326   10.7937 H   0  0  0  0  0  0  0  0  0  0  0  0
  -14.8594   60.0400    9.5158 C   0  0  0  0  0  0  0  0  0  0  0  0
  -15.3965   60.1802   10.8029 C   0  0  0  0  0  0  0  0  0  0  0  0
  -14.9149   59.3986   11.8536 C   0  0  0  0  0  0  0  0  0  0  0  0
  -15.5713   59.5999   13.4322 Cl  0  0  0  0  0  0  0  0  0  0  0  0
  -13.9078   58.4587   11.6435 C   0  0  0  0  0  0  0  0  0  0  0  0
  -13.3786   58.2948   10.3589 C   0  0  0  0  0  0  0  0  0  0  0  0
  -13.8438   59.0928    9.3050 C   0  0  0  0  0  0  0  0  0  0  0  0
  -15.3700   60.8869    8.3682 C   0  0  0  0  0  0  0  0  0  0  0  0
  -14.5008   63.1117    8.6566 C   0  0  0  0  0  0  0  0  0  0  0  0
  -15.6910   62.2665    8.7656 N   0  0  0  0  0  0  0  0  0  0  0  0
  -16.7741   62.8266    7.9538 C   0  0  0  0  0  0  0  0  0  0  0  0
   -9.8135   57.0332   10.2035 C   0  0  0  0  0  0  0  0  0  0  0  0
   -9.3337   56.6293    8.9594 C   0  0  0  0  0  0  0  0  0  0  0  0
   -8.1223   55.9415    8.8590 C   0  0  0  0  0  0  0  0  0  0  0  0
   -7.3758   55.6519   10.0028 C   0  0  0  0  0  0  0  0  0  0  0  0
   -7.8335   56.0495   11.2651 C   0  0  0  0  0  0  0  0  0  0  0  0
   -9.0553   56.7415   11.3464 C   0  0  0  0  0  0  0  0  0  0  0  0
   -7.0917   55.7739   12.4939 C   0  0  0  0  0  0  0  0  0  0  0  0
   -7.5565   55.7959   13.7310 N   0  0  0  0  0  0  0  0  0  0  0  0
   -6.5063   55.4737   14.5545 N   0  0  0  0  0  0  0  0  0  0  0  0
   -5.4061   55.2529   13.8527 N   0  0  0  0  0  0  0  0  0  0  0  0
   -5.7670   55.4377   12.5770 N   0  0  0  0  0  0  0  0  0  0  0  0
   -5.1631   55.3448   11.8050 H   0  0  0  0  0  0  0  0  0  0  0  0
 13 14  1  0
 14 15  1  0
 14 12  1  0
 12  5  1  0
  5  6  2  0
  6  7  1  0
  7  8  1  0
  7  9  2  0
  9 10  1  0
 10  1  1  0
  1  2  2  0
  1  3  1  0
  3 16  1  0
 16 17  2  0
 17 18  1  0
 18 19  2  0
 19 20  1  0
 20 22  1  0
 22 23  2  0
 23 24  1  0
 24 25  2  0
 25 26  1  0
 20 21  2  0
 10 11  2  0
 11  5  1  0
 21 16  1  0
 26 22  1  0
  3  4  1  0
 26 27  1  0
M  END
> <minimizedAffinity>
-6.14559

> <CNNscore>
0.4964960217

> <CNNaffinity>
4.9674749374

> <CNN_VS>
2.4663314819

> <CNNaffinity_variance>
0.4136564732

$$$$



 27 29  0  0  0  0  0  0  0  0999 V2000
   -8.8745   55.9447   12.5471 C   0  0  0  0  0  0  0  0  0  0  0  0
   -9.2332   56.0669   13.7115 O   0  0  0  0  0  0  0  0  0  0  0  0
   -7.7733   55.2439   12.0876 N   0  0  0  0  0  0  0  0  0  0  0  0
   -7.5942   55.2955   11.1209 H   0  0  0  0  0  0  0  0  0  0  0  0
  -10.2786   56.8065    9.1355 C   0  0  0  0  0  0  0  0  0  0  0  0
  -11.0955   57.9021    9.4470 C   0  0  0  0  0  0  0  0  0  0  0  0
  -11.1751   58.3678   10.7599 C   0  0  0  0  0  0  0  0  0  0  0  0
  -12.1666   59.7282   11.1200 Cl  0  0  0  0  0  0  0  0  0  0  0  0
  -10.4610   57.7485   11.7837 C   0  0  0  0  0  0  0  0  0  0  0  0
   -9.6587   56.6410   11.4887 C   0  0  0  0  0  0  0  0  0  0  0  0
   -9.5585   56.1833   10.1680 C   0  0  0  0  0  0  0  0  0  0  0  0
  -10.1795   56.2954    7.7129 C   0  0  0  0  0  0  0  0  0  0  0  0
   -7.8434   55.8379    7.3647 C   0  0  0  0  0  0  0  0  0  0  0  0
   -8.9533   56.7302    7.0262 N   0  0  0  0  0  0  0  0  0  0  0  0
   -9.1315   56.7721    5.5728 C   0  0  0  0  0  0  0  0  0  0  0  0
   -6.8782   54.4636   12.8502 C   0  0  0  0  0  0  0  0  0  0  0  0
   -7.2399   53.7555   13.9943 C   0  0  0  0  0  0  0  0  0  0  0  0
   -6.2906   53.0018   14.6880 C   0  0  0  0  0  0  0  0  0  0  0  0
   -4.9683   52.9462   14.2432 C   0  0  0  0  0  0  0  0  0  0  0  0
   -4.5790   53.6457   13.0944 C   0  0  0  0  0  0  0  0  0  0  0  0
   -5.5490   54.3989   12.4086 C   0  0  0  0  0  0  0  0  0  0  0  0
   -3.2095   53.6211   12.5842 C   0  0  0  0  0  0  0  0  0  0  0  0
   -2.0939   53.7542   13.2804 N   0  0  0  0  0  0  0  0  0  0  0  0
   -1.0560   53.6648   12.3862 N   0  0  0  0  0  0  0  0  0  0  0  0
   -1.5070   53.4788   11.1559 N   0  0  0  0  0  0  0  0  0  0  0  0
   -2.8397   53.4509   11.2769 N   0  0  0  0  0  0  0  0  0  0  0  0
   -3.4675   53.3253   10.5290 H   0  0  0  0  0  0  0  0  0  0  0  0
 13 14  1  0
 14 15  1  0
 14 12  1  0
 12  5  1  0
  5  6  2  0
  6  7  1  0
  7  8  1  0
  7  9  2  0
  9 10  1  0
 10  1  1  0
  1  2  2  0
  1  3  1  0
  3 16  1  0
 16 17  2  0
 17 18  1  0
 18 19  2  0
 19 20  1  0
 20 22  1  0
 22 23  2  0
 23 24  1  0
 24 25  2  0
 25 26  1  0
 20 21  2  0
 10 11  2  0
 11  5  1  0
 21 16  1  0
 26 22  1  0
  3  4  1  0
 26 27  1  0
M  END
> <minimizedAffinity>
-8.22585

> <CNNscore>
0.3066262603

> <CNNaffinity>
4.6980857849

> <CNN_VS>
1.4405565262

> <CNNaffinity_variance>
0.8610016704

$$$$



 27 29  0  0  0  0  0  0  0  0999 V2000
   -8.6085   54.8920    8.4917 C   0  0  0  0  0  0  0  0  0  0  0  0
   -8.9851   53.7535    8.2445 O   0  0  0  0  0  0  0  0  0  0  0  0
   -8.1844   55.8419    7.5792 N   0  0  0  0  0  0  0  0  0  0  0  0
   -7.8584   56.6924    7.9528 H   0  0  0  0  0  0  0  0  0  0  0  0
   -7.3886   55.2561   12.0601 C   0  0  0  0  0  0  0  0  0  0  0  0
   -8.3785   56.0876   12.6018 C   0  0  0  0  0  0  0  0  0  0  0  0
   -9.4470   56.5138   11.8121 C   0  0  0  0  0  0  0  0  0  0  0  0
  -10.6650   57.5168   12.5005 Cl  0  0  0  0  0  0  0  0  0  0  0  0
   -9.5436   56.1364   10.4742 C   0  0  0  0  0  0  0  0  0  0  0  0
   -8.5505   55.3241    9.9165 C   0  0  0  0  0  0  0  0  0  0  0  0
   -7.4871   54.8757   10.7115 C   0  0  0  0  0  0  0  0  0  0  0  0
   -6.2269   54.7823   12.9090 C   0  0  0  0  0  0  0  0  0  0  0  0
   -5.5199   52.5087   12.5643 C   0  0  0  0  0  0  0  0  0  0  0  0
   -6.3722   53.3907   13.3633 N   0  0  0  0  0  0  0  0  0  0  0  0
   -6.0431   53.2467   14.7835 C   0  0  0  0  0  0  0  0  0  0  0  0
   -8.1672   55.7275    6.1727 C   0  0  0  0  0  0  0  0  0  0  0  0
   -9.0005   56.4494    5.3208 C   0  0  0  0  0  0  0  0  0  0  0  0
   -8.9140   56.2794    3.9372 C   0  0  0  0  0  0  0  0  0  0  0  0
   -7.9907   55.3865    3.3900 C   0  0  0  0  0  0  0  0  0  0  0  0
   -7.1391   54.6511    4.2235 C   0  0  0  0  0  0  0  0  0  0  0  0
   -7.2403   54.8359    5.6142 C   0  0  0  0  0  0  0  0  0  0  0  0
   -6.1539   53.7047    3.7040 C   0  0  0  0  0  0  0  0  0  0  0  0
   -5.6295   53.6808    2.4910 N   0  0  0  0  0  0  0  0  0  0  0  0
   -4.7552   52.6227    2.4582 N   0  0  0  0  0  0  0  0  0  0  0  0
   -4.7286   51.9955    3.6233 N   0  0  0  0  0  0  0  0  0  0  0  0
   -5.5933   52.6643    4.3957 N   0  0  0  0  0  0  0  0  0  0  0  0
   -5.7981   52.4393    5.3320 H   0  0  0  0  0  0  0  0  0  0  0  0
 13 14  1  0
 14 15  1  0
 14 12  1  0
 12  5  1  0
  5  6  2  0
  6  7  1  0
  7  8  1  0
  7  9  2  0
  9 10  1  0
 10  1  1  0
  1  2  2  0
  1  3  1  0
  3 16  1  0
 16 17  2  0
 17 18  1  0
 18 19  2  0
 19 20  1  0
 20 22  1  0
 22 23  2  0
 23 24  1  0
 24 25  2  0
 25 26  1  0
 20 21  2  0
 10 11  2  0
 11  5  1  0
 21 16  1  0
 26 22  1  0
  3  4  1  0
 26 27  1  0
M  END
> <minimizedAffinity>
-6.27952

> <CNNscore>
0.2664393783

> <CNNaffinity>
4.8558030128

> <CNN_VS>
1.2937771082

> <CNNaffinity_variance>
0.1185185984

$$$$



 27 29  0  0  0  0  0  0  0  0999 V2000
   -8.6552   55.7546   12.5851 C   0  0  0  0  0  0  0  0  0  0  0  0
   -9.0597   55.7219   13.7404 O   0  0  0  0  0  0  0  0  0  0  0  0
   -7.5516   55.0946   12.0737 N   0  0  0  0  0  0  0  0  0  0  0  0
   -7.3311   55.2765   11.1316 H   0  0  0  0  0  0  0  0  0  0  0  0
   -9.7374   57.2646    9.2832 C   0  0  0  0  0  0  0  0  0  0  0  0
  -10.6904   58.1990    9.7114 C   0  0  0  0  0  0  0  0  0  0  0  0
  -10.9666   58.3475   11.0711 C   0  0  0  0  0  0  0  0  0  0  0  0
  -12.1243   59.5155   11.5800 Cl  0  0  0  0  0  0  0  0  0  0  0  0
  -10.3163   57.5652   12.0233 C   0  0  0  0  0  0  0  0  0  0  0  0
   -9.3785   56.6144   11.6066 C   0  0  0  0  0  0  0  0  0  0  0  0
   -9.0818   56.4768   10.2439 C   0  0  0  0  0  0  0  0  0  0  0  0
   -9.4248   57.0982    7.8103 C   0  0  0  0  0  0  0  0  0  0  0  0
  -11.0225   55.5023    6.9804 C   0  0  0  0  0  0  0  0  0  0  0  0
   -9.6180   55.7212    7.3300 N   0  0  0  0  0  0  0  0  0  0  0  0
   -8.7666   55.4252    6.1752 C   0  0  0  0  0  0  0  0  0  0  0  0
   -6.7071   54.1900   12.7519 C   0  0  0  0  0  0  0  0  0  0  0  0
   -6.1715   54.4213   14.0171 C   0  0  0  0  0  0  0  0  0  0  0  0
   -5.3473   53.4685   14.6201 C   0  0  0  0  0  0  0  0  0  0  0  0
   -5.0515   52.2719   13.9645 C   0  0  0  0  0  0  0  0  0  0  0  0
   -5.5795   52.0128   12.6937 C   0  0  0  0  0  0  0  0  0  0  0  0
   -6.4078   52.9838   12.1026 C   0  0  0  0  0  0  0  0  0  0  0  0
   -5.3035   50.7770   11.9638 C   0  0  0  0  0  0  0  0  0  0  0  0
   -4.2218   50.0223   12.0485 N   0  0  0  0  0  0  0  0  0  0  0  0
   -4.4043   48.9701   11.1856 N   0  0  0  0  0  0  0  0  0  0  0  0
   -5.5738   49.0593   10.5725 N   0  0  0  0  0  0  0  0  0  0  0  0
   -6.1319   50.1768   11.0535 N   0  0  0  0  0  0  0  0  0  0  0  0
   -7.0160   50.5199   10.7893 H   0  0  0  0  0  0  0  0  0  0  0  0
 13 14  1  0
 14 15  1  0
 14 12  1  0
 12  5  1  0
  5  6  2  0
  6  7  1  0
  7  8  1  0
  7  9  2  0
  9 10  1  0
 10  1  1  0
  1  2  2  0
  1  3  1  0
  3 16  1  0
 16 17  2  0
 17 18  1  0
 18 19  2  0
 19 20  1  0
 20 22  1  0
 22 23  2  0
 23 24  1  0
 24 25  2  0
 25 26  1  0
 20 21  2  0
 10 11  2  0
 11  5  1  0
 21 16  1  0
 26 22  1  0
  3  4  1  0
 26 27  1  0
M  END
> <minimizedAffinity>
-6.96623

> <CNNscore>
0.2616994977

> <CNNaffinity>
4.2016348839

> <CNN_VS>
1.0995657444

> <CNNaffinity_variance>
1.2324031591

$$$$



 27 29  0  0  0  0  0  0  0  0999 V2000
   -2.7522   49.3525   11.1903 C   0  0  0  0  0  0  0  0  0  0  0  0
   -2.6524   49.8426   10.0727 O   0  0  0  0  0  0  0  0  0  0  0  0
   -2.8072   50.0344   12.3932 N   0  0  0  0  0  0  0  0  0  0  0  0
   -2.8288   49.4826   13.2082 H   0  0  0  0  0  0  0  0  0  0  0  0
   -1.7736   45.8387   12.2148 C   0  0  0  0  0  0  0  0  0  0  0  0
   -2.7683   45.0835   11.5785 C   0  0  0  0  0  0  0  0  0  0  0  0
   -3.7433   45.7154   10.8058 C   0  0  0  0  0  0  0  0  0  0  0  0
   -4.9442   44.7699   10.0139 Cl  0  0  0  0  0  0  0  0  0  0  0  0
   -3.7569   47.1016   10.6640 C   0  0  0  0  0  0  0  0  0  0  0  0
   -2.7819   47.8678   11.3115 C   0  0  0  0  0  0  0  0  0  0  0  0
   -1.7877   47.2359   12.0707 C   0  0  0  0  0  0  0  0  0  0  0  0
   -0.7065   45.1636   13.0516 C   0  0  0  0  0  0  0  0  0  0  0  0
   -1.8941   45.9074   15.0071 C   0  0  0  0  0  0  0  0  0  0  0  0
   -1.1756   44.7889   14.3946 N   0  0  0  0  0  0  0  0  0  0  0  0
   -2.0379   43.6052   14.3571 C   0  0  0  0  0  0  0  0  0  0  0  0
   -2.8359   51.4327   12.5819 C   0  0  0  0  0  0  0  0  0  0  0  0
   -1.7292   52.2642   12.4246 C   0  0  0  0  0  0  0  0  0  0  0  0
   -1.8462   53.6413   12.6258 C   0  0  0  0  0  0  0  0  0  0  0  0
   -3.0731   54.2025   12.9848 C   0  0  0  0  0  0  0  0  0  0  0  0
   -4.2020   53.3899   13.1462 C   0  0  0  0  0  0  0  0  0  0  0  0
   -4.0651   52.0055   12.9388 C   0  0  0  0  0  0  0  0  0  0  0  0
   -5.5100   53.9248   13.5192 C   0  0  0  0  0  0  0  0  0  0  0  0
   -6.6679   53.2875   13.5079 N   0  0  0  0  0  0  0  0  0  0  0  0
   -7.6170   54.1828   13.9353 N   0  0  0  0  0  0  0  0  0  0  0  0
   -7.0698   55.3561   14.2103 N   0  0  0  0  0  0  0  0  0  0  0  0
   -5.7656   55.1979   13.9539 N   0  0  0  0  0  0  0  0  0  0  0  0
   -5.0842   55.9000   14.0628 H   0  0  0  0  0  0  0  0  0  0  0  0
 13 14  1  0
 14 15  1  0
 14 12  1  0
 12  5  1  0
  5  6  2  0
  6  7  1  0
  7  8  1  0
  7  9  2  0
  9 10  1  0
 10  1  1  0
  1  2  2  0
  1  3  1  0
  3 16  1  0
 16 17  2  0
 17 18  1  0
 18 19  2  0
 19 20  1  0
 20 22  1  0
 22 23  2  0
 23 24  1  0
 24 25  2  0
 25 26  1  0
 20 21  2  0
 10 11  2  0
 11  5  1  0
 21 16  1  0
 26 22  1  0
  3  4  1  0
 26 27  1  0
M  END
> <minimizedAffinity>
-6.65883

> <CNNscore>
0.2591855228

> <CNNaffinity>
4.8689384460

> <CNN_VS>
1.2619583607

> <CNNaffinity_variance>
0.5748739243

$$$$



 27 29  0  0  0  0  0  0  0  0999 V2000
   -8.8730   55.9387   12.6131 C   0  0  0  0  0  0  0  0  0  0  0  0
   -9.2436   56.0126   13.7778 O   0  0  0  0  0  0  0  0  0  0  0  0
   -7.7552   55.2750   12.1388 N   0  0  0  0  0  0  0  0  0  0  0  0
   -7.5691   55.3644   11.1762 H   0  0  0  0  0  0  0  0  0  0  0  0
  -11.3741   58.3111   11.0412 C   0  0  0  0  0  0  0  0  0  0  0  0
  -11.1833   58.0430    9.6787 C   0  0  0  0  0  0  0  0  0  0  0  0
  -10.2557   57.0817    9.2754 C   0  0  0  0  0  0  0  0  0  0  0  0
  -10.0505   56.7502    7.5987 Cl  0  0  0  0  0  0  0  0  0  0  0  0
   -9.4948   56.3841   10.2114 C   0  0  0  0  0  0  0  0  0  0  0  0
   -9.6612   56.6580   11.5732 C   0  0  0  0  0  0  0  0  0  0  0  0
  -10.6071   57.6069   11.9841 C   0  0  0  0  0  0  0  0  0  0  0  0
  -12.3821   59.3483   11.4917 C   0  0  0  0  0  0  0  0  0  0  0  0
  -14.0915   59.9197   13.0853 C   0  0  0  0  0  0  0  0  0  0  0  0
  -13.3704   58.8189   12.4441 N   0  0  0  0  0  0  0  0  0  0  0  0
  -14.3213   57.9149   11.7925 C   0  0  0  0  0  0  0  0  0  0  0  0
   -6.8522   54.4843   12.8811 C   0  0  0  0  0  0  0  0  0  0  0  0
   -7.1970   53.7775   14.0311 C   0  0  0  0  0  0  0  0  0  0  0  0
   -6.2409   53.0131   14.7035 C   0  0  0  0  0  0  0  0  0  0  0  0
   -4.9288   52.9454   14.2311 C   0  0  0  0  0  0  0  0  0  0  0  0
   -4.5566   53.6433   13.0756 C   0  0  0  0  0  0  0  0  0  0  0  0
   -5.5332   54.4074   12.4117 C   0  0  0  0  0  0  0  0  0  0  0  0
   -3.1984   53.6061   12.5369 C   0  0  0  0  0  0  0  0  0  0  0  0
   -2.0687   53.7694   13.2032 N   0  0  0  0  0  0  0  0  0  0  0  0
   -1.0499   53.6521   12.2904 N   0  0  0  0  0  0  0  0  0  0  0  0
   -1.5265   53.4194   11.0778 N   0  0  0  0  0  0  0  0  0  0  0  0
   -2.8562   53.3900   11.2288 N   0  0  0  0  0  0  0  0  0  0  0  0
   -3.4994   53.2344   10.4999 H   0  0  0  0  0  0  0  0  0  0  0  0
 13 14  1  0
 14 15  1  0
 14 12  1  0
 12  5  1  0
  5  6  2  0
  6  7  1  0
  7  8  1  0
  7  9  2  0
  9 10  1  0
 10  1  1  0
  1  2  2  0
  1  3  1  0
  3 16  1  0
 16 17  2  0
 17 18  1  0
 18 19  2  0
 19 20  1  0
 20 22  1  0
 22 23  2  0
 23 24  1  0
 24 25  2  0
 25 26  1  0
 20 21  2  0
 10 11  2  0
 11  5  1  0
 21 16  1  0
 26 22  1  0
  3  4  1  0
 26 27  1  0
M  END
> <minimizedAffinity>
-8.23801

> <CNNscore>
0.2541058958

> <CNNaffinity>
4.4467258453

> <CNN_VS>
1.1299391985

> <CNNaffinity_variance>
1.0334388018

$$$$



 27 29  0  0  0  0  0  0  0  0999 V2000
   -9.1813   55.7088   12.0268 C   0  0  0  0  0  0  0  0  0  0  0  0
   -8.9947   55.8386   13.2300 O   0  0  0  0  0  0  0  0  0  0  0  0
   -8.5975   54.7711   11.1933 N   0  0  0  0  0  0  0  0  0  0  0  0
   -8.8137   54.8424   10.2355 H   0  0  0  0  0  0  0  0  0  0  0  0
  -11.4965   57.1852    9.4165 C   0  0  0  0  0  0  0  0  0  0  0  0
  -11.8174   58.4168   10.0037 C   0  0  0  0  0  0  0  0  0  0  0  0
  -11.2685   58.7711   11.2367 C   0  0  0  0  0  0  0  0  0  0  0  0
  -11.6567   60.2971   11.9323 Cl  0  0  0  0  0  0  0  0  0  0  0  0
  -10.4080   57.9077   11.9118 C   0  0  0  0  0  0  0  0  0  0  0  0
  -10.0969   56.6667   11.3458 C   0  0  0  0  0  0  0  0  0  0  0  0
  -10.6284   56.3157   10.0975 C   0  0  0  0  0  0  0  0  0  0  0  0
  -12.0815   56.7918    8.0757 C   0  0  0  0  0  0  0  0  0  0  0  0
  -13.6563   55.5686    9.4218 C   0  0  0  0  0  0  0  0  0  0  0  0
  -13.4657   56.3026    8.1697 N   0  0  0  0  0  0  0  0  0  0  0  0
  -14.4349   57.3976    8.0832 C   0  0  0  0  0  0  0  0  0  0  0  0
   -7.7267   53.7239   11.5631 C   0  0  0  0  0  0  0  0  0  0  0  0
   -8.1101   52.3880   11.6611 C   0  0  0  0  0  0  0  0  0  0  0  0
   -7.1814   51.4119   12.0291 C   0  0  0  0  0  0  0  0  0  0  0  0
   -5.8574   51.7614   12.3011 C   0  0  0  0  0  0  0  0  0  0  0  0
   -5.4448   53.0962   12.2067 C   0  0  0  0  0  0  0  0  0  0  0  0
   -6.3939   54.0651   11.8342 C   0  0  0  0  0  0  0  0  0  0  0  0
   -4.0717   53.5167   12.4787 C   0  0  0  0  0  0  0  0  0  0  0  0
   -3.1091   53.7244   11.5971 N   0  0  0  0  0  0  0  0  0  0  0  0
   -1.9974   54.1054   12.3069 N   0  0  0  0  0  0  0  0  0  0  0  0
   -2.2539   54.1379   13.6049 N   0  0  0  0  0  0  0  0  0  0  0  0
   -3.5375   53.7744   13.7128 N   0  0  0  0  0  0  0  0  0  0  0  0
   -4.0297   53.7022   14.5624 H   0  0  0  0  0  0  0  0  0  0  0  0
 13 14  1  0
 14 15  1  0
 14 12  1  0
 12  5  1  0
  5  6  2  0
  6  7  1  0
  7  8  1  0
  7  9  2  0
  9 10  1  0
 10  1  1  0
  1  2  2  0
  1  3  1  0
  3 16  1  0
 16 17  2  0
 17 18  1  0
 18 19  2  0
 19 20  1  0
 20 22  1  0
 22 23  2  0
 23 24  1  0
 24 25  2  0
 25 26  1  0
 20 21  2  0
 10 11  2  0
 11  5  1  0
 21 16  1  0
 26 22  1  0
  3  4  1  0
 26 27  1  0
M  END
> <minimizedAffinity>
-6.95614

> <CNNscore>
0.2440203279

> <CNNaffinity>
4.6749439240

> <CNN_VS>
1.1407814026

> <CNNaffinity_variance>
0.5437887907

$$$$



 27 29  0  0  0  0  0  0  0  0999 V2000
   -2.4988   53.2763   12.3401 C   0  0  0  0  0  0  0  0  0  0  0  0
   -2.1081   53.8931   13.3231 O   0  0  0  0  0  0  0  0  0  0  0  0
   -3.8056   52.9313   12.0428 N   0  0  0  0  0  0  0  0  0  0  0  0
   -3.9403   52.3815   11.2373 H   0  0  0  0  0  0  0  0  0  0  0  0
   -0.3116   50.9180   10.3380 C   0  0  0  0  0  0  0  0  0  0  0  0
    0.4035   51.8222    9.5406 C   0  0  0  0  0  0  0  0  0  0  0  0
    0.1855   53.1946    9.6670 C   0  0  0  0  0  0  0  0  0  0  0  0
    1.0888   54.2911    8.6949 Cl  0  0  0  0  0  0  0  0  0  0  0  0
   -0.7515   53.6903   10.5714 C   0  0  0  0  0  0  0  0  0  0  0  0
   -1.4866   52.7967   11.3577 C   0  0  0  0  0  0  0  0  0  0  0  0
   -1.2555   51.4187   11.2499 C   0  0  0  0  0  0  0  0  0  0  0  0
   -0.0797   49.4262   10.2140 C   0  0  0  0  0  0  0  0  0  0  0  0
   -1.4219   47.5125    9.6443 C   0  0  0  0  0  0  0  0  0  0  0  0
   -0.9044   48.7973    9.1707 N   0  0  0  0  0  0  0  0  0  0  0  0
   -2.0155   49.6610    8.7639 C   0  0  0  0  0  0  0  0  0  0  0  0
   -4.9667   53.2797   12.7654 C   0  0  0  0  0  0  0  0  0  0  0  0
   -5.3004   52.7484   14.0093 C   0  0  0  0  0  0  0  0  0  0  0  0
   -6.4682   53.1530   14.6598 C   0  0  0  0  0  0  0  0  0  0  0  0
   -7.3145   54.0960   14.0737 C   0  0  0  0  0  0  0  0  0  0  0  0
   -7.0009   54.6483   12.8257 C   0  0  0  0  0  0  0  0  0  0  0  0
   -5.8205   54.2291   12.1860 C   0  0  0  0  0  0  0  0  0  0  0  0
   -7.8501   55.6394   12.1679 C   0  0  0  0  0  0  0  0  0  0  0  0
   -8.9983   56.1262   12.6058 N   0  0  0  0  0  0  0  0  0  0  0  0
   -9.4331   57.0244   11.6629 N   0  0  0  0  0  0  0  0  0  0  0  0
   -8.5785   57.1025   10.6553 N   0  0  0  0  0  0  0  0  0  0  0  0
   -7.5979   56.2463   10.9666 N   0  0  0  0  0  0  0  0  0  0  0  0
   -6.8046   56.0764   10.4088 H   0  0  0  0  0  0  0  0  0  0  0  0
 13 14  1  0
 14 15  1  0
 14 12  1  0
 12  5  1  0
  5  6  2  0
  6  7  1  0
  7  8  1  0
  7  9  2  0
  9 10  1  0
 10  1  1  0
  1  2  2  0
  1  3  1  0
  3 16  1  0
 16 17  2  0
 17 18  1  0
 18 19  2  0
 19 20  1  0
 20 22  1  0
 22 23  2  0
 23 24  1  0
 24 25  2  0
 25 26  1  0
 20 21  2  0
 10 11  2  0
 11  5  1  0
 21 16  1  0
 26 22  1  0
  3  4  1  0
 26 27  1  0
M  END
> <minimizedAffinity>
-7.89374

> <CNNscore>
0.2432825565

> <CNNaffinity>
4.7012495995

> <CNN_VS>
1.1437320709

> <CNNaffinity_variance>
0.5902068019

$$$$



 27 29  0  0  0  0  0  0  0  0999 V2000
   -5.4315   52.7728    7.5641 C   0  0  0  0  0  0  0  0  0  0  0  0
   -4.2237   52.6887    7.7468 O   0  0  0  0  0  0  0  0  0  0  0  0
   -6.4293   52.5404    8.4945 N   0  0  0  0  0  0  0  0  0  0  0  0
   -7.3555   52.5959    8.1655 H   0  0  0  0  0  0  0  0  0  0  0  0
   -6.9746   54.7559    4.7286 C   0  0  0  0  0  0  0  0  0  0  0  0
   -6.8605   53.8466    3.6680 C   0  0  0  0  0  0  0  0  0  0  0  0
   -6.2985   52.5872    3.8801 C   0  0  0  0  0  0  0  0  0  0  0  0
   -6.1866   51.4755    2.5706 Cl  0  0  0  0  0  0  0  0  0  0  0  0
   -5.8288   52.2156    5.1383 C   0  0  0  0  0  0  0  0  0  0  0  0
   -5.9179   53.1223    6.1999 C   0  0  0  0  0  0  0  0  0  0  0  0
   -6.5015   54.3802    5.9968 C   0  0  0  0  0  0  0  0  0  0  0  0
   -7.5881   56.1239    4.5120 C   0  0  0  0  0  0  0  0  0  0  0  0
   -9.8344   55.6731    5.2463 C   0  0  0  0  0  0  0  0  0  0  0  0
   -9.0016   56.0666    4.1085 N   0  0  0  0  0  0  0  0  0  0  0  0
   -9.4653   57.3490    3.5735 C   0  0  0  0  0  0  0  0  0  0  0  0
   -6.2671   52.2327    9.8622 C   0  0  0  0  0  0  0  0  0  0  0  0
   -6.0808   50.9430   10.3551 C   0  0  0  0  0  0  0  0  0  0  0  0
   -5.9225   50.7268   11.7258 C   0  0  0  0  0  0  0  0  0  0  0  0
   -5.9467   51.7996   12.6190 C   0  0  0  0  0  0  0  0  0  0  0  0
   -6.1289   53.1063   12.1497 C   0  0  0  0  0  0  0  0  0  0  0  0
   -6.2861   53.3045   10.7661 C   0  0  0  0  0  0  0  0  0  0  0  0
   -6.1607   54.2650   13.0400 C   0  0  0  0  0  0  0  0  0  0  0  0
   -7.0119   54.4941   14.0248 N   0  0  0  0  0  0  0  0  0  0  0  0
   -6.6587   55.6984   14.5815 N   0  0  0  0  0  0  0  0  0  0  0  0
   -5.6092   56.2152   13.9627 N   0  0  0  0  0  0  0  0  0  0  0  0
   -5.2994   55.3289   13.0087 N   0  0  0  0  0  0  0  0  0  0  0  0
   -4.5548   55.4283   12.3722 H   0  0  0  0  0  0  0  0  0  0  0  0
 13 14  1  0
 14 15  1  0
 14 12  1  0
 12  5  1  0
  5  6  2  0
  6  7  1  0
  7  8  1  0
  7  9  2  0
  9 10  1  0
 10  1  1  0
  1  2  2  0
  1  3  1  0
  3 16  1  0
 16 17  2  0
 17 18  1  0
 18 19  2  0
 19 20  1  0
 20 22  1  0
 22 23  2  0
 23 24  1  0
 24 25  2  0
 25 26  1  0
 20 21  2  0
 10 11  2  0
 11  5  1  0
 21 16  1  0
 26 22  1  0
  3  4  1  0
 26 27  1  0
M  END
> <minimizedAffinity>
-6.65807

> <CNNscore>
0.2272501588

> <CNNaffinity>
4.1625170708

> <CNN_VS>
0.9459326863

> <CNNaffinity_variance>
1.2866185904

$$$$
