


 26 28  0  0  0  0  0  0  0  0999 V2000
   30.6924   -5.6866   16.4935 C   0  0  0  0  0  0  0  0  0  0  0  0
   31.0143   -5.1034   17.8636 C   0  0  0  0  0  0  0  0  0  0  0  0
   31.9779   -3.9572   17.7691 C   0  0  0  0  0  0  0  0  0  0  0  0
   33.2962   -4.0005   17.7414 N   0  0  0  0  0  0  0  0  0  0  0  0
   33.7107   -2.6956   17.6193 C   0  0  0  0  0  0  0  0  0  0  0  0
   35.0071   -2.1748   17.5233 C   0  0  0  0  0  0  0  0  0  0  0  0
   35.1444   -0.7946   17.3820 C   0  0  0  0  0  0  0  0  0  0  0  0
   36.3737   -0.2703   17.2728 F   0  0  0  0  0  0  0  0  0  0  0  0
   34.0425    0.0576   17.3423 C   0  0  0  0  0  0  0  0  0  0  0  0
   32.7401   -0.4460   17.4400 C   0  0  0  0  0  0  0  0  0  0  0  0
   32.6220   -1.8310   17.5793 C   0  0  0  0  0  0  0  0  0  0  0  0
   31.5334   -2.6556   17.6858 N   0  0  0  0  0  0  0  0  0  0  0  0
   30.5923   -2.3670   17.7003 H   0  0  0  0  0  0  0  0  0  0  0  0
   29.7803   -4.6026   18.4163 O   0  0  0  0  0  0  0  0  0  0  0  0
   29.5190   -4.9545   19.7004 C   0  0  0  0  0  0  0  0  0  0  0  0
   29.7410   -6.0652   20.1604 O   0  0  0  0  0  0  0  0  0  0  0  0
   29.0098   -3.8649   20.3457 N   0  0  0  0  0  0  0  0  0  0  0  0
   28.9095   -3.0524   19.7989 H   0  0  0  0  0  0  0  0  0  0  0  0
   28.6101   -3.7505   21.6872 C   0  0  0  0  0  0  0  0  0  0  0  0
   29.5970   -3.9416   22.6625 C   0  0  0  0  0  0  0  0  0  0  0  0
   29.2872   -3.8418   24.0223 C   0  0  0  0  0  0  0  0  0  0  0  0
   27.9835   -3.5457   24.4216 C   0  0  0  0  0  0  0  0  0  0  0  0
   27.6686   -3.4301   26.1158 Cl  0  0  0  0  0  0  0  0  0  0  0  0
   26.9907   -3.3574   23.4551 C   0  0  0  0  0  0  0  0  0  0  0  0
   25.3506   -3.0014   23.8795 Cl  0  0  0  0  0  0  0  0  0  0  0  0
   27.3054   -3.4611   22.0919 C   0  0  0  0  0  0  0  0  0  0  0  0
  2  1  1  0
  2 14  1  0
 14 15  1  0
 15 16  2  0
 15 17  1  0
 17 19  1  0
 19 20  2  0
 20 21  1  0
 21 22  2  0
 22 23  1  0
 22 24  1  0
 24 25  1  0
 24 26  2  0
  2  3  1  0
  3  4  2  0
  4  5  1  0
  5  6  2  0
  6  7  1  0
  7  8  1  0
  7  9  2  0
  9 10  1  0
 10 11  2  0
 11 12  1  0
 26 19  1  0
 12  3  1  0
 11  5  1  0
 17 18  1  0
 12 13  1  0
M  END
> <minimizedAffinity>
-7.88369

> <CNNscore>
0.9754102230

> <CNNaffinity>
5.8713836670

> <CNN_VS>
5.7270078659

> <CNNaffinity_variance>
0.6913425326

$$$$



 26 28  0  0  0  0  0  0  0  0999 V2000
   29.3943   -4.3271   18.7393 C   0  0  0  0  0  0  0  0  0  0  0  0
   29.9580   -5.0053   19.9816 C   0  0  0  0  0  0  0  0  0  0  0  0
   29.2948   -4.5137   21.2346 C   0  0  0  0  0  0  0  0  0  0  0  0
   29.7962   -4.4556   22.4534 N   0  0  0  0  0  0  0  0  0  0  0  0
   28.8099   -3.9060   23.2375 C   0  0  0  0  0  0  0  0  0  0  0  0
   28.8202   -3.6026   24.6046 C   0  0  0  0  0  0  0  0  0  0  0  0
   27.6767   -3.0202   25.1498 C   0  0  0  0  0  0  0  0  0  0  0  0
   27.6644   -2.7055   26.4532 F   0  0  0  0  0  0  0  0  0  0  0  0
   26.5476   -2.7471   24.3801 C   0  0  0  0  0  0  0  0  0  0  0  0
   26.5194   -3.0468   23.0131 C   0  0  0  0  0  0  0  0  0  0  0  0
   27.6744   -3.6281   22.4841 C   0  0  0  0  0  0  0  0  0  0  0  0
   28.0040   -4.0319   21.2174 N   0  0  0  0  0  0  0  0  0  0  0  0
   27.4176   -3.9856   20.4279 H   0  0  0  0  0  0  0  0  0  0  0  0
   29.6871   -6.4162   19.8591 O   0  0  0  0  0  0  0  0  0  0  0  0
   29.8834   -7.1577   20.9783 C   0  0  0  0  0  0  0  0  0  0  0  0
   30.9825   -7.5264   21.3664 O   0  0  0  0  0  0  0  0  0  0  0  0
   28.6701   -7.3733   21.5650 N   0  0  0  0  0  0  0  0  0  0  0  0
   27.8944   -6.9875   21.0973 H   0  0  0  0  0  0  0  0  0  0  0  0
   28.3826   -8.0732   22.7482 C   0  0  0  0  0  0  0  0  0  0  0  0
   28.4688   -9.4703   22.6968 C   0  0  0  0  0  0  0  0  0  0  0  0
   28.2031  -10.2452   23.8298 C   0  0  0  0  0  0  0  0  0  0  0  0
   27.8506   -9.6285   25.0307 C   0  0  0  0  0  0  0  0  0  0  0  0
   27.5420  -10.6423   26.3944 Cl  0  0  0  0  0  0  0  0  0  0  0  0
   27.7580   -8.2345   25.0905 C   0  0  0  0  0  0  0  0  0  0  0  0
   27.3126   -7.4045   26.5429 Cl  0  0  0  0  0  0  0  0  0  0  0  0
   28.0228   -7.4610   23.9505 C   0  0  0  0  0  0  0  0  0  0  0  0
  2  1  1  0
  2 14  1  0
 14 15  1  0
 15 16  2  0
 15 17  1  0
 17 19  1  0
 19 20  2  0
 20 21  1  0
 21 22  2  0
 22 23  1  0
 22 24  1  0
 24 25  1  0
 24 26  2  0
  2  3  1  0
  3  4  2  0
  4  5  1  0
  5  6  2  0
  6  7  1  0
  7  8  1  0
  7  9  2  0
  9 10  1  0
 10 11  2  0
 11 12  1  0
 26 19  1  0
 12  3  1  0
 11  5  1  0
 17 18  1  0
 12 13  1  0
M  END
> <minimizedAffinity>
-6.07869

> <CNNscore>
0.8726035953

> <CNNaffinity>
5.4909558296

> <CNN_VS>
4.7914276123

> <CNNaffinity_variance>
0.1536293477

$$$$



 26 28  0  0  0  0  0  0  0  0999 V2000
   29.6664   -5.1655   15.9497 C   0  0  0  0  0  0  0  0  0  0  0  0
   30.4296   -4.7257   17.1928 C   0  0  0  0  0  0  0  0  0  0  0  0
   31.4363   -3.6579   16.8801 C   0  0  0  0  0  0  0  0  0  0  0  0
   32.2432   -3.5778   15.8395 N   0  0  0  0  0  0  0  0  0  0  0  0
   32.9437   -2.4059   15.9988 C   0  0  0  0  0  0  0  0  0  0  0  0
   33.9147   -1.8256   15.1733 C   0  0  0  0  0  0  0  0  0  0  0  0
   34.4550   -0.6019   15.5663 C   0  0  0  0  0  0  0  0  0  0  0  0
   35.3759   -0.0163   14.7871 F   0  0  0  0  0  0  0  0  0  0  0  0
   34.0618    0.0367   16.7408 C   0  0  0  0  0  0  0  0  0  0  0  0
   33.0949   -0.5309   17.5789 C   0  0  0  0  0  0  0  0  0  0  0  0
   32.5635   -1.7559   17.1682 C   0  0  0  0  0  0  0  0  0  0  0  0
   31.6121   -2.5758   17.7148 N   0  0  0  0  0  0  0  0  0  0  0  0
   31.1344   -2.4184   18.5612 H   0  0  0  0  0  0  0  0  0  0  0  0
   29.4667   -4.1734   18.1130 O   0  0  0  0  0  0  0  0  0  0  0  0
   29.3642   -4.8001   19.3121 C   0  0  0  0  0  0  0  0  0  0  0  0
   29.6197   -5.9830   19.4858 O   0  0  0  0  0  0  0  0  0  0  0  0
   28.9648   -3.8824   20.2400 N   0  0  0  0  0  0  0  0  0  0  0  0
   28.8126   -2.9705   19.9015 H   0  0  0  0  0  0  0  0  0  0  0  0
   28.7423   -4.0678   21.6142 C   0  0  0  0  0  0  0  0  0  0  0  0
   27.5458   -3.5620   22.1379 C   0  0  0  0  0  0  0  0  0  0  0  0
   27.2420   -3.7061   23.4950 C   0  0  0  0  0  0  0  0  0  0  0  0
   28.1332   -4.3629   24.3444 C   0  0  0  0  0  0  0  0  0  0  0  0
   27.6950   -4.5131   26.0081 Cl  0  0  0  0  0  0  0  0  0  0  0  0
   29.3321   -4.8675   23.8313 C   0  0  0  0  0  0  0  0  0  0  0  0
   30.4892   -5.6803   24.8299 Cl  0  0  0  0  0  0  0  0  0  0  0  0
   29.6342   -4.7182   22.4695 C   0  0  0  0  0  0  0  0  0  0  0  0
  2  1  1  0
  2 14  1  0
 14 15  1  0
 15 16  2  0
 15 17  1  0
 17 19  1  0
 19 20  2  0
 20 21  1  0
 21 22  2  0
 22 23  1  0
 22 24  1  0
 24 25  1  0
 24 26  2  0
  2  3  1  0
  3  4  2  0
  4  5  1  0
  5  6  2  0
  6  7  1  0
  7  8  1  0
  7  9  2  0
  9 10  1  0
 10 11  2  0
 11 12  1  0
 26 19  1  0
 12  3  1  0
 11  5  1  0
 17 18  1  0
 12 13  1  0
M  END
> <minimizedAffinity>
-6.71502

> <CNNscore>
0.8297466636

> <CNNaffinity>
5.9635376930

> <CNN_VS>
4.9482254982

> <CNNaffinity_variance>
0.0333537422

$$$$



 26 28  0  0  0  0  0  0  0  0999 V2000
   29.7452   -4.4954   18.4774 C   0  0  0  0  0  0  0  0  0  0  0  0
   30.2926   -5.1760   19.7257 C   0  0  0  0  0  0  0  0  0  0  0  0
   29.6065   -4.6935   20.9699 C   0  0  0  0  0  0  0  0  0  0  0  0
   30.0759   -4.6694   22.2026 N   0  0  0  0  0  0  0  0  0  0  0  0
   29.0810   -4.1131   22.9707 C   0  0  0  0  0  0  0  0  0  0  0  0
   29.0609   -3.8357   24.3432 C   0  0  0  0  0  0  0  0  0  0  0  0
   27.9159   -3.2386   24.8690 C   0  0  0  0  0  0  0  0  0  0  0  0
   27.8752   -2.9483   26.1775 F   0  0  0  0  0  0  0  0  0  0  0  0
   26.8142   -2.9261   24.0750 C   0  0  0  0  0  0  0  0  0  0  0  0
   26.8165   -3.1993   22.7021 C   0  0  0  0  0  0  0  0  0  0  0  0
   27.9725   -3.7959   22.1929 C   0  0  0  0  0  0  0  0  0  0  0  0
   28.3274   -4.1830   20.9278 N   0  0  0  0  0  0  0  0  0  0  0  0
   27.7637   -4.1089   20.1240 H   0  0  0  0  0  0  0  0  0  0  0  0
   30.0315   -6.5878   19.5928 O   0  0  0  0  0  0  0  0  0  0  0  0
   31.0498   -7.4149   19.9390 C   0  0  0  0  0  0  0  0  0  0  0  0
   32.0827   -7.5292   19.2951 O   0  0  0  0  0  0  0  0  0  0  0  0
   30.7139   -8.0396   21.1051 N   0  0  0  0  0  0  0  0  0  0  0  0
   29.8310   -7.8092   21.4746 H   0  0  0  0  0  0  0  0  0  0  0  0
   31.4622   -8.9680   21.8471 C   0  0  0  0  0  0  0  0  0  0  0  0
   31.2595  -10.3234   21.5581 C   0  0  0  0  0  0  0  0  0  0  0  0
   31.9658  -11.3145   22.2463 C   0  0  0  0  0  0  0  0  0  0  0  0
   32.8876  -10.9589   23.2314 C   0  0  0  0  0  0  0  0  0  0  0  0
   33.7315  -12.2309   24.0392 Cl  0  0  0  0  0  0  0  0  0  0  0  0
   33.0936   -9.6084   23.5297 C   0  0  0  0  0  0  0  0  0  0  0  0
   34.2108   -9.0965   24.7490 Cl  0  0  0  0  0  0  0  0  0  0  0  0
   32.3808   -8.6172   22.8387 C   0  0  0  0  0  0  0  0  0  0  0  0
  2  1  1  0
  2 14  1  0
 14 15  1  0
 15 16  2  0
 15 17  1  0
 17 19  1  0
 19 20  2  0
 20 21  1  0
 21 22  2  0
 22 23  1  0
 22 24  1  0
 24 25  1  0
 24 26  2  0
  2  3  1  0
  3  4  2  0
  4  5  1  0
  5  6  2  0
  6  7  1  0
  7  8  1  0
  7  9  2  0
  9 10  1  0
 10 11  2  0
 11 12  1  0
 26 19  1  0
 12  3  1  0
 11  5  1  0
 17 18  1  0
 12 13  1  0
M  END
> <minimizedAffinity>
-5.51249

> <CNNscore>
0.7637435198

> <CNNaffinity>
5.5893001556

> <CNN_VS>
4.2687916756

> <CNNaffinity_variance>
0.2930445075

$$$$



 26 28  0  0  0  0  0  0  0  0999 V2000
   30.1466   -6.5127   18.6759 C   0  0  0  0  0  0  0  0  0  0  0  0
   30.1143   -5.0101   18.9255 C   0  0  0  0  0  0  0  0  0  0  0  0
   29.6061   -4.6841   20.2991 C   0  0  0  0  0  0  0  0  0  0  0  0
   30.1814   -4.9293   21.4607 N   0  0  0  0  0  0  0  0  0  0  0  0
   29.3353   -4.4133   22.4133 C   0  0  0  0  0  0  0  0  0  0  0  0
   29.4708   -4.3826   23.8068 C   0  0  0  0  0  0  0  0  0  0  0  0
   28.4603   -3.7676   24.5448 C   0  0  0  0  0  0  0  0  0  0  0  0
   28.5715   -3.7107   25.8798 F   0  0  0  0  0  0  0  0  0  0  0  0
   27.3408   -3.2024   23.9372 C   0  0  0  0  0  0  0  0  0  0  0  0
   27.1881   -3.2271   22.5460 C   0  0  0  0  0  0  0  0  0  0  0  0
   28.2112   -3.8457   21.8231 C   0  0  0  0  0  0  0  0  0  0  0  0
   28.4022   -4.0389   20.4806 N   0  0  0  0  0  0  0  0  0  0  0  0
   27.7836   -3.7633   19.7659 H   0  0  0  0  0  0  0  0  0  0  0  0
   31.4708   -4.5309   18.8278 O   0  0  0  0  0  0  0  0  0  0  0  0
   31.7896   -3.8816   17.6798 C   0  0  0  0  0  0  0  0  0  0  0  0
   31.4662   -4.2690   16.5663 O   0  0  0  0  0  0  0  0  0  0  0  0
   32.4850   -2.7536   18.0072 N   0  0  0  0  0  0  0  0  0  0  0  0
   32.6429   -2.6127   18.9686 H   0  0  0  0  0  0  0  0  0  0  0  0
   33.0048   -1.7677   17.1528 C   0  0  0  0  0  0  0  0  0  0  0  0
   33.8656   -2.1984   16.1353 C   0  0  0  0  0  0  0  0  0  0  0  0
   34.4250   -1.2843   15.2374 C   0  0  0  0  0  0  0  0  0  0  0  0
   34.1256    0.0741   15.3463 C   0  0  0  0  0  0  0  0  0  0  0  0
   34.8440    1.1497   14.2018 Cl  0  0  0  0  0  0  0  0  0  0  0  0
   33.2705    0.5140   16.3615 C   0  0  0  0  0  0  0  0  0  0  0  0
   32.8672    2.1853   16.5636 Cl  0  0  0  0  0  0  0  0  0  0  0  0
   32.7135   -0.4064   17.2619 C   0  0  0  0  0  0  0  0  0  0  0  0
  2  1  1  0
  2 14  1  0
 14 15  1  0
 15 16  2  0
 15 17  1  0
 17 19  1  0
 19 20  2  0
 20 21  1  0
 21 22  2  0
 22 23  1  0
 22 24  1  0
 24 25  1  0
 24 26  2  0
  2  3  1  0
  3  4  2  0
  4  5  1  0
  5  6  2  0
  6  7  1  0
  7  8  1  0
  7  9  2  0
  9 10  1  0
 10 11  2  0
 11 12  1  0
 26 19  1  0
 12  3  1  0
 11  5  1  0
 17 18  1  0
 12 13  1  0
M  END
> <minimizedAffinity>
-6.30152

> <CNNscore>
0.7548273802

> <CNNaffinity>
5.7843165398

> <CNN_VS>
4.3661603928

> <CNNaffinity_variance>
0.1352670044

$$$$



 26 28  0  0  0  0  0  0  0  0999 V2000
   30.4787   -6.8257   20.0426 C   0  0  0  0  0  0  0  0  0  0  0  0
   29.7976   -5.4811   19.8202 C   0  0  0  0  0  0  0  0  0  0  0  0
   29.2105   -4.9370   21.0893 C   0  0  0  0  0  0  0  0  0  0  0  0
   29.6550   -5.0855   22.3225 N   0  0  0  0  0  0  0  0  0  0  0  0
   28.7893   -4.3757   23.1201 C   0  0  0  0  0  0  0  0  0  0  0  0
   28.8071   -4.1811   24.5068 C   0  0  0  0  0  0  0  0  0  0  0  0
   27.8073   -3.3853   25.0644 C   0  0  0  0  0  0  0  0  0  0  0  0
   27.8088   -3.1700   26.3879 F   0  0  0  0  0  0  0  0  0  0  0  0
   26.8097   -2.7993   24.2876 C   0  0  0  0  0  0  0  0  0  0  0  0
   26.7753   -2.9862   22.9008 C   0  0  0  0  0  0  0  0  0  0  0  0
   27.7858   -3.7847   22.3597 C   0  0  0  0  0  0  0  0  0  0  0  0
   28.0700   -4.1639   21.0745 N   0  0  0  0  0  0  0  0  0  0  0  0
   27.5475   -3.9246   20.2751 H   0  0  0  0  0  0  0  0  0  0  0  0
   30.8091   -4.5589   19.3669 O   0  0  0  0  0  0  0  0  0  0  0  0
   30.7613   -4.2243   18.0528 C   0  0  0  0  0  0  0  0  0  0  0  0
   29.7295   -4.1814   17.3985 O   0  0  0  0  0  0  0  0  0  0  0  0
   32.0297   -3.9351   17.6402 N   0  0  0  0  0  0  0  0  0  0  0  0
   32.7326   -4.0251   18.3236 H   0  0  0  0  0  0  0  0  0  0  0  0
   32.4641   -3.5260   16.3688 C   0  0  0  0  0  0  0  0  0  0  0  0
   32.8725   -2.1928   16.2357 C   0  0  0  0  0  0  0  0  0  0  0  0
   33.3234   -1.7026   15.0064 C   0  0  0  0  0  0  0  0  0  0  0  0
   33.3739   -2.5445   13.8948 C   0  0  0  0  0  0  0  0  0  0  0  0
   33.9469   -1.8787   12.4079 Cl  0  0  0  0  0  0  0  0  0  0  0  0
   32.9643   -3.8758   14.0172 C   0  0  0  0  0  0  0  0  0  0  0  0
   32.9873   -4.9714   12.6771 Cl  0  0  0  0  0  0  0  0  0  0  0  0
   32.5099   -4.3628   15.2519 C   0  0  0  0  0  0  0  0  0  0  0  0
  2  1  1  0
  2 14  1  0
 14 15  1  0
 15 16  2  0
 15 17  1  0
 17 19  1  0
 19 20  2  0
 20 21  1  0
 21 22  2  0
 22 23  1  0
 22 24  1  0
 24 25  1  0
 24 26  2  0
  2  3  1  0
  3  4  2  0
  4  5  1  0
  5  6  2  0
  6  7  1  0
  7  8  1  0
  7  9  2  0
  9 10  1  0
 10 11  2  0
 11 12  1  0
 26 19  1  0
 12  3  1  0
 11  5  1  0
 17 18  1  0
 12 13  1  0
M  END
> <minimizedAffinity>
-5.74360

> <CNNscore>
0.6200091243

> <CNNaffinity>
5.6319231987

> <CNN_VS>
3.4918437004

> <CNNaffinity_variance>
0.0103583159

$$$$



 26 28  0  0  0  0  0  0  0  0999 V2000
   29.7193   -5.4262   18.6861 C   0  0  0  0  0  0  0  0  0  0  0  0
   30.4313   -5.3876   20.0324 C   0  0  0  0  0  0  0  0  0  0  0  0
   29.5809   -4.7554   21.0948 C   0  0  0  0  0  0  0  0  0  0  0  0
   28.3833   -4.2169   20.9672 N   0  0  0  0  0  0  0  0  0  0  0  0
   28.0216   -3.8066   22.2282 C   0  0  0  0  0  0  0  0  0  0  0  0
   26.8412   -3.1916   22.6639 C   0  0  0  0  0  0  0  0  0  0  0  0
   26.7236   -2.8992   24.0220 C   0  0  0  0  0  0  0  0  0  0  0  0
   25.5979   -2.3239   24.4691 F   0  0  0  0  0  0  0  0  0  0  0  0
   27.7370   -3.1938   24.9320 C   0  0  0  0  0  0  0  0  0  0  0  0
   28.9243   -3.8055   24.5130 C   0  0  0  0  0  0  0  0  0  0  0  0
   29.0236   -4.0926   23.1494 C   0  0  0  0  0  0  0  0  0  0  0  0
   30.0071   -4.6862   22.4033 N   0  0  0  0  0  0  0  0  0  0  0  0
   30.8724   -5.0089   22.7444 H   0  0  0  0  0  0  0  0  0  0  0  0
   30.6866   -6.7525   20.4209 O   0  0  0  0  0  0  0  0  0  0  0  0
   29.6063   -7.5729   20.4514 C   0  0  0  0  0  0  0  0  0  0  0  0
   28.7128   -7.4911   21.2817 O   0  0  0  0  0  0  0  0  0  0  0  0
   29.7032   -8.4443   19.4053 N   0  0  0  0  0  0  0  0  0  0  0  0
   30.5038   -8.3471   18.8407 H   0  0  0  0  0  0  0  0  0  0  0  0
   28.8109   -9.4613   19.0286 C   0  0  0  0  0  0  0  0  0  0  0  0
   27.6512   -9.0690   18.3483 C   0  0  0  0  0  0  0  0  0  0  0  0
   26.7109  -10.0167   17.9328 C   0  0  0  0  0  0  0  0  0  0  0  0
   26.9233  -11.3712   18.1914 C   0  0  0  0  0  0  0  0  0  0  0  0
   25.7268  -12.4908   17.6458 Cl  0  0  0  0  0  0  0  0  0  0  0  0
   28.0763  -11.7719   18.8736 C   0  0  0  0  0  0  0  0  0  0  0  0
   28.3967  -13.4332   19.2401 Cl  0  0  0  0  0  0  0  0  0  0  0  0
   29.0158  -10.8174   19.2911 C   0  0  0  0  0  0  0  0  0  0  0  0
  2  1  1  0
  2 14  1  0
 14 15  1  0
 15 16  2  0
 15 17  1  0
 17 19  1  0
 19 20  2  0
 20 21  1  0
 21 22  2  0
 22 23  1  0
 22 24  1  0
 24 25  1  0
 24 26  2  0
  2  3  1  0
  3  4  2  0
  4  5  1  0
  5  6  2  0
  6  7  1  0
  7  8  1  0
  7  9  2  0
  9 10  1  0
 10 11  2  0
 11 12  1  0
 26 19  1  0
 12  3  1  0
 11  5  1  0
 17 18  1  0
 12 13  1  0
M  END
> <minimizedAffinity>
-5.12537

> <CNNscore>
0.6199444532

> <CNNaffinity>
5.3652687073

> <CNN_VS>
3.3261685371

> <CNNaffinity_variance>
0.1625022739

$$$$



 26 28  0  0  0  0  0  0  0  0999 V2000
   30.0626   -9.2904   21.7075 C   0  0  0  0  0  0  0  0  0  0  0  0
   28.9054   -8.4273   21.2205 C   0  0  0  0  0  0  0  0  0  0  0  0
   28.6116   -7.3023   22.1688 C   0  0  0  0  0  0  0  0  0  0  0  0
   28.3947   -7.3672   23.4685 N   0  0  0  0  0  0  0  0  0  0  0  0
   28.2042   -6.0699   23.8810 C   0  0  0  0  0  0  0  0  0  0  0  0
   27.9583   -5.5671   25.1647 C   0  0  0  0  0  0  0  0  0  0  0  0
   27.8259   -4.1865   25.3078 C   0  0  0  0  0  0  0  0  0  0  0  0
   27.6049   -3.6766   26.5281 F   0  0  0  0  0  0  0  0  0  0  0  0
   27.9244   -3.3181   24.2224 C   0  0  0  0  0  0  0  0  0  0  0  0
   28.1667   -3.8041   22.9322 C   0  0  0  0  0  0  0  0  0  0  0  0
   28.2983   -5.1895   22.8084 C   0  0  0  0  0  0  0  0  0  0  0  0
   28.5479   -5.9974   21.7309 N   0  0  0  0  0  0  0  0  0  0  0  0
   28.6624   -5.6965   20.8005 H   0  0  0  0  0  0  0  0  0  0  0  0
   29.3013   -7.8533   19.9584 O   0  0  0  0  0  0  0  0  0  0  0  0
   30.4892   -7.1977   19.9511 C   0  0  0  0  0  0  0  0  0  0  0  0
   31.3085   -7.2633   20.8562 O   0  0  0  0  0  0  0  0  0  0  0  0
   30.5884   -6.5082   18.7773 N   0  0  0  0  0  0  0  0  0  0  0  0
   29.8178   -6.5859   18.1695 H   0  0  0  0  0  0  0  0  0  0  0  0
   31.6450   -5.7025   18.3227 C   0  0  0  0  0  0  0  0  0  0  0  0
   31.3767   -4.3381   18.1549 C   0  0  0  0  0  0  0  0  0  0  0  0
   32.3723   -3.4631   17.7099 C   0  0  0  0  0  0  0  0  0  0  0  0
   33.6517   -3.9449   17.4305 C   0  0  0  0  0  0  0  0  0  0  0  0
   34.8373   -2.8110   16.8910 Cl  0  0  0  0  0  0  0  0  0  0  0  0
   33.9276   -5.3063   17.5910 C   0  0  0  0  0  0  0  0  0  0  0  0
   35.4877   -5.9743   17.2495 Cl  0  0  0  0  0  0  0  0  0  0  0  0
   32.9249   -6.1812   18.0351 C   0  0  0  0  0  0  0  0  0  0  0  0
  2  1  1  0
  2 14  1  0
 14 15  1  0
 15 16  2  0
 15 17  1  0
 17 19  1  0
 19 20  2  0
 20 21  1  0
 21 22  2  0
 22 23  1  0
 22 24  1  0
 24 25  1  0
 24 26  2  0
  2  3  1  0
  3  4  2  0
  4  5  1  0
  5  6  2  0
  6  7  1  0
  7  8  1  0
  7  9  2  0
  9 10  1  0
 10 11  2  0
 11 12  1  0
 26 19  1  0
 12  3  1  0
 11  5  1  0
 17 18  1  0
 12 13  1  0
M  END
> <minimizedAffinity>
-4.48886

> <CNNscore>
0.6146321297

> <CNNaffinity>
5.8693776131

> <CNN_VS>
3.6075079441

> <CNNaffinity_variance>
0.3303797543

$$$$



 26 28  0  0  0  0  0  0  0  0999 V2000
   32.5296   -5.1895   16.8519 C   0  0  0  0  0  0  0  0  0  0  0  0
   31.9928   -4.0990   17.7703 C   0  0  0  0  0  0  0  0  0  0  0  0
   32.7996   -2.8379   17.6691 C   0  0  0  0  0  0  0  0  0  0  0  0
   34.1115   -2.7119   17.6115 N   0  0  0  0  0  0  0  0  0  0  0  0
   34.3529   -1.3635   17.4970 C   0  0  0  0  0  0  0  0  0  0  0  0
   35.5696   -0.6802   17.3789 C   0  0  0  0  0  0  0  0  0  0  0  0
   35.5260    0.7076   17.2523 C   0  0  0  0  0  0  0  0  0  0  0  0
   36.6753    1.3861   17.1225 F   0  0  0  0  0  0  0  0  0  0  0  0
   34.3237    1.4121   17.2481 C   0  0  0  0  0  0  0  0  0  0  0  0
   33.0989    0.7450   17.3684 C   0  0  0  0  0  0  0  0  0  0  0  0
   33.1621   -0.6450   17.4924 C   0  0  0  0  0  0  0  0  0  0  0  0
   32.1906   -1.6032   17.6125 N   0  0  0  0  0  0  0  0  0  0  0  0
   31.2209   -1.4376   17.6517 H   0  0  0  0  0  0  0  0  0  0  0  0
   30.6483   -3.8023   17.3421 O   0  0  0  0  0  0  0  0  0  0  0  0
   29.6540   -4.3202   18.1065 C   0  0  0  0  0  0  0  0  0  0  0  0
   28.6124   -4.7723   17.6536 O   0  0  0  0  0  0  0  0  0  0  0  0
   30.0455   -4.2605   19.4127 N   0  0  0  0  0  0  0  0  0  0  0  0
   30.9304   -3.8612   19.5760 H   0  0  0  0  0  0  0  0  0  0  0  0
   29.3518   -4.6937   20.5544 C   0  0  0  0  0  0  0  0  0  0  0  0
   29.5633   -6.0169   20.9621 C   0  0  0  0  0  0  0  0  0  0  0  0
   28.9161   -6.5294   22.0906 C   0  0  0  0  0  0  0  0  0  0  0  0
   28.0507   -5.7200   22.8272 C   0  0  0  0  0  0  0  0  0  0  0  0
   27.2884   -6.4118   24.2140 Cl  0  0  0  0  0  0  0  0  0  0  0  0
   27.8302   -4.3989   22.4254 C   0  0  0  0  0  0  0  0  0  0  0  0
   26.7594   -3.3437   23.2837 Cl  0  0  0  0  0  0  0  0  0  0  0  0
   28.4795   -3.8896   21.2909 C   0  0  0  0  0  0  0  0  0  0  0  0
  2  1  1  0
  2 14  1  0
 14 15  1  0
 15 16  2  0
 15 17  1  0
 17 19  1  0
 19 20  2  0
 20 21  1  0
 21 22  2  0
 22 23  1  0
 22 24  1  0
 24 25  1  0
 24 26  2  0
  2  3  1  0
  3  4  2  0
  4  5  1  0
  5  6  2  0
  6  7  1  0
  7  8  1  0
  7  9  2  0
  9 10  1  0
 10 11  2  0
 11 12  1  0
 26 19  1  0
 12  3  1  0
 11  5  1  0
 17 18  1  0
 12 13  1  0
M  END
> <minimizedAffinity>
-6.77380

> <CNNscore>
0.5764660239

> <CNNaffinity>
5.7339501381

> <CNN_VS>
3.3054275513

> <CNNaffinity_variance>
0.1454318613

$$$$
