


 28 28  0  0  0  0  0  0  0  0999 V2000
   19.4355   69.5116   19.0398 C   0  0  0  0  0  0  0  0  0  0  0  0
   20.8053   69.5430   18.4506 N   0  0  0  0  0  0  0  0  0  0  0  0
   21.4895   69.7064   19.1892 H   0  0  0  0  0  0  0  0  0  0  0  0
   20.8622   70.2935   17.7622 H   0  0  0  0  0  0  0  0  0  0  0  0
   19.0567   70.8849   19.6800 C   0  0  0  0  0  0  0  0  0  0  0  0
   18.1503   71.8571   18.7427 N   0  0  0  0  0  0  0  0  0  0  0  0
   19.1138   72.5496   17.7704 C   0  0  0  0  0  0  0  0  0  0  0  0
   17.3024   70.8618   17.9492 C   0  0  0  0  0  0  0  0  0  0  0  0
   17.4133   72.8144   19.6656 C   0  0  0  0  0  0  0  0  0  0  0  0
   16.1976   72.3932   20.5537 N   0  0  0  0  0  0  0  0  0  0  0  0
   16.4739   72.7623   22.0103 C   0  0  0  0  0  0  0  0  0  0  0  0
   15.8996   70.9257   20.4277 C   0  0  0  0  0  0  0  0  0  0  0  0
   15.0411   73.2895   20.0178 C   0  0  0  0  0  0  0  0  0  0  0  0
   13.2528   72.0581   21.4546 C   0  0  0  0  0  0  0  0  0  0  0  0
   13.6280   73.2477   20.5787 N   0  0  0  0  0  0  0  0  0  0  0  0
   12.5256   73.4713   19.5300 C   0  0  0  0  0  0  0  0  0  0  0  0
   13.5159   74.4973   21.5311 C   0  0  0  0  0  0  0  0  0  0  0  0
   19.2404   68.3218   20.0368 C   0  0  0  0  0  0  0  0  0  0  0  0
   18.5458   67.1532   19.4805 N   0  0  0  0  0  0  0  0  0  0  0  0
   18.0864   67.1867   18.1725 C   0  0  0  0  0  0  0  0  0  0  0  0
   17.4178   66.1635   17.6391 C   0  0  0  0  0  0  0  0  0  0  0  0
   17.0167   66.1584   16.3568 F   0  0  0  0  0  0  0  0  0  0  0  0
   17.1464   64.9649   18.4532 C   0  0  0  0  0  0  0  0  0  0  0  0
   16.7289   63.9173   17.9821 O   0  0  0  0  0  0  0  0  0  0  0  0
   17.4667   65.0915   19.7814 N   0  0  0  0  0  0  0  0  0  0  0  0
   18.2287   66.0882   20.3258 C   0  0  0  0  0  0  0  0  0  0  0  0
   18.6715   66.0131   21.4707 O   0  0  0  0  0  0  0  0  0  0  0  0
   17.1179   64.4056   20.3955 H   0  0  0  0  0  0  0  0  0  0  0  0
 14 15  1  0
 15 16  1  0
 15 17  1  0
 15 13  1  0
 13 10  1  0
 10 11  1  0
 10 12  1  0
 10  9  1  0
  9  6  1  0
  6  7  1  0
  6  8  1  0
  6  5  1  0
  5  1  1  0
  1  2  1  0
  1 18  1  0
 18 19  1  0
 19 20  1  0
 20 21  2  0
 21 22  1  0
 21 23  1  0
 23 24  2  0
 23 25  1  0
 25 26  1  0
 26 27  2  0
 26 19  1  0
  2  3  1  0
  2  4  1  0
 25 28  1  0
M  CHG 1   6   1
M  CHG 1  10   1
M  CHG 1  15   1
M  END
> <minimizedAffinity>
-4.53454

> <CNNscore>
0.2115085870

> <CNNaffinity>
4.3676300049

> <CNN_VS>
0.9237912297

> <CNNaffinity_variance>
0.6137209535

$$$$



 28 28  0  0  0  0  0  0  0  0999 V2000
   16.9217   64.3283   19.0736 C   0  0  0  0  0  0  0  0  0  0  0  0
   17.9559   64.6869   20.0867 N   0  0  0  0  0  0  0  0  0  0  0  0
   17.9881   65.7005   20.1956 H   0  0  0  0  0  0  0  0  0  0  0  0
   18.8670   64.3492   19.7766 H   0  0  0  0  0  0  0  0  0  0  0  0
   17.2783   64.9006   17.6649 C   0  0  0  0  0  0  0  0  0  0  0  0
   17.5429   66.5047   17.6181 N   0  0  0  0  0  0  0  0  0  0  0  0
   18.7533   66.7217   16.7010 C   0  0  0  0  0  0  0  0  0  0  0  0
   16.2981   67.0287   16.9006 C   0  0  0  0  0  0  0  0  0  0  0  0
   17.7643   66.9671   19.0494 C   0  0  0  0  0  0  0  0  0  0  0  0
   17.1931   68.3049   19.6224 N   0  0  0  0  0  0  0  0  0  0  0  0
   17.6023   68.4519   21.0871 C   0  0  0  0  0  0  0  0  0  0  0  0
   15.6988   68.3764   19.4814 C   0  0  0  0  0  0  0  0  0  0  0  0
   17.9288   69.3917   18.7826 C   0  0  0  0  0  0  0  0  0  0  0  0
   19.6134   70.8250   20.1562 C   0  0  0  0  0  0  0  0  0  0  0  0
   18.3264   70.7485   19.3434 N   0  0  0  0  0  0  0  0  0  0  0  0
   17.2028   71.4702   20.1062 C   0  0  0  0  0  0  0  0  0  0  0  0
   18.5909   71.6619   18.0877 C   0  0  0  0  0  0  0  0  0  0  0  0
   15.4782   64.7286   19.5250 C   0  0  0  0  0  0  0  0  0  0  0  0
   14.6987   63.6476   20.1429 N   0  0  0  0  0  0  0  0  0  0  0  0
   14.8377   63.3902   21.4984 C   0  0  0  0  0  0  0  0  0  0  0  0
   14.1787   62.3948   22.0928 C   0  0  0  0  0  0  0  0  0  0  0  0
   14.2592   62.1691   23.4149 F   0  0  0  0  0  0  0  0  0  0  0  0
   13.2839   61.5343   21.2979 C   0  0  0  0  0  0  0  0  0  0  0  0
   12.4968   60.7447   21.7987 O   0  0  0  0  0  0  0  0  0  0  0  0
   13.3510   61.7374   19.9425 N   0  0  0  0  0  0  0  0  0  0  0  0
   13.9460   62.8029   19.3250 C   0  0  0  0  0  0  0  0  0  0  0  0
   13.7654   63.0440   18.1326 O   0  0  0  0  0  0  0  0  0  0  0  0
   12.9348   61.0576   19.3647 H   0  0  0  0  0  0  0  0  0  0  0  0
 14 15  1  0
 15 16  1  0
 15 17  1  0
 15 13  1  0
 13 10  1  0
 10 11  1  0
 10 12  1  0
 10  9  1  0
  9  6  1  0
  6  7  1  0
  6  8  1  0
  6  5  1  0
  5  1  1  0
  1  2  1  0
  1 18  1  0
 18 19  1  0
 19 20  1  0
 20 21  2  0
 21 22  1  0
 21 23  1  0
 23 24  2  0
 23 25  1  0
 25 26  1  0
 26 27  2  0
 26 19  1  0
  2  3  1  0
  2  4  1  0
 25 28  1  0
M  CHG 1   6   1
M  CHG 1  10   1
M  CHG 1  15   1
M  END
> <minimizedAffinity>
-5.57753

> <CNNscore>
0.1686004549

> <CNNaffinity>
4.5788054466

> <CNN_VS>
0.7719886899

> <CNNaffinity_variance>
0.6464815736

$$$$



 28 28  0  0  0  0  0  0  0  0999 V2000
   18.4810   67.9839   17.5692 C   0  0  0  0  0  0  0  0  0  0  0  0
   18.3034   68.3408   16.1320 N   0  0  0  0  0  0  0  0  0  0  0  0
   19.1857   68.2091   15.6374 H   0  0  0  0  0  0  0  0  0  0  0  0
   18.0139   69.3160   16.0571 H   0  0  0  0  0  0  0  0  0  0  0  0
   19.5110   68.9263   18.2695 C   0  0  0  0  0  0  0  0  0  0  0  0
   18.9259   70.3756   18.7193 N   0  0  0  0  0  0  0  0  0  0  0  0
   19.5881   70.7176   20.0601 C   0  0  0  0  0  0  0  0  0  0  0  0
   19.4939   71.3121   17.6519 C   0  0  0  0  0  0  0  0  0  0  0  0
   17.4128   70.2474   18.7949 C   0  0  0  0  0  0  0  0  0  0  0  0
   16.6495   69.7726   20.0740 N   0  0  0  0  0  0  0  0  0  0  0  0
   17.6393   69.1631   21.0656 C   0  0  0  0  0  0  0  0  0  0  0  0
   15.5632   68.7897   19.7398 C   0  0  0  0  0  0  0  0  0  0  0  0
   16.0952   71.1020   20.6686 C   0  0  0  0  0  0  0  0  0  0  0  0
   15.0920   73.1824   19.4667 C   0  0  0  0  0  0  0  0  0  0  0  0
   14.8750   71.8179   20.1102 N   0  0  0  0  0  0  0  0  0  0  0  0
   13.6903   71.9021   21.0872 C   0  0  0  0  0  0  0  0  0  0  0  0
   14.3486   70.9030   18.9409 C   0  0  0  0  0  0  0  0  0  0  0  0
   18.8317   66.4726   17.7712 C   0  0  0  0  0  0  0  0  0  0  0  0
   17.9687   65.7565   18.7201 N   0  0  0  0  0  0  0  0  0  0  0  0
   16.7475   65.2565   18.2939 C   0  0  0  0  0  0  0  0  0  0  0  0
   15.9162   64.6336   19.1301 C   0  0  0  0  0  0  0  0  0  0  0  0
   14.7560   64.0941   18.7197 F   0  0  0  0  0  0  0  0  0  0  0  0
   16.2896   64.4743   20.5471 C   0  0  0  0  0  0  0  0  0  0  0  0
   15.6862   63.7442   21.3196 O   0  0  0  0  0  0  0  0  0  0  0  0
   17.4183   65.1590   20.9213 N   0  0  0  0  0  0  0  0  0  0  0  0
   18.3267   65.7239   20.0691 C   0  0  0  0  0  0  0  0  0  0  0  0
   19.4267   66.1117   20.4593 O   0  0  0  0  0  0  0  0  0  0  0  0
   17.5890   65.2516   21.8865 H   0  0  0  0  0  0  0  0  0  0  0  0
 14 15  1  0
 15 16  1  0
 15 17  1  0
 15 13  1  0
 13 10  1  0
 10 11  1  0
 10 12  1  0
 10  9  1  0
  9  6  1  0
  6  7  1  0
  6  8  1  0
  6  5  1  0
  5  1  1  0
  1  2  1  0
  1 18  1  0
 18 19  1  0
 19 20  1  0
 20 21  2  0
 21 22  1  0
 21 23  1  0
 23 24  2  0
 23 25  1  0
 25 26  1  0
 26 27  2  0
 26 19  1  0
  2  3  1  0
  2  4  1  0
 25 28  1  0
M  CHG 1   6   1
M  CHG 1  10   1
M  CHG 1  15   1
M  END
> <minimizedAffinity>
-5.19648

> <CNNscore>
0.1664674431

> <CNNaffinity>
4.0010213852

> <CNN_VS>
0.6660398245

> <CNNaffinity_variance>
1.2481907606

$$$$



 28 28  0  0  0  0  0  0  0  0999 V2000
   16.7175   64.3190   18.7037 C   0  0  0  0  0  0  0  0  0  0  0  0
   17.6776   64.4016   19.8421 N   0  0  0  0  0  0  0  0  0  0  0  0
   17.7180   65.3618   20.1838 H   0  0  0  0  0  0  0  0  0  0  0  0
   18.6040   64.1135   19.5271 H   0  0  0  0  0  0  0  0  0  0  0  0
   17.1894   65.1862   17.4934 C   0  0  0  0  0  0  0  0  0  0  0  0
   16.9550   66.7872   17.6582 N   0  0  0  0  0  0  0  0  0  0  0  0
   16.0468   67.2178   16.4994 C   0  0  0  0  0  0  0  0  0  0  0  0
   16.1504   66.8760   18.9559 C   0  0  0  0  0  0  0  0  0  0  0  0
   18.3245   67.4472   17.6452 C   0  0  0  0  0  0  0  0  0  0  0  0
   18.8146   68.4406   18.7485 N   0  0  0  0  0  0  0  0  0  0  0  0
   20.0618   69.1754   18.2600 C   0  0  0  0  0  0  0  0  0  0  0  0
   19.0905   67.7364   20.0470 C   0  0  0  0  0  0  0  0  0  0  0  0
   17.6396   69.4585   18.8547 C   0  0  0  0  0  0  0  0  0  0  0  0
   17.3689   69.3079   21.4398 C   0  0  0  0  0  0  0  0  0  0  0  0
   17.2308   70.1238   20.1599 N   0  0  0  0  0  0  0  0  0  0  0  0
   15.8402   70.7797   20.1257 C   0  0  0  0  0  0  0  0  0  0  0  0
   18.2245   71.3318   20.3459 C   0  0  0  0  0  0  0  0  0  0  0  0
   15.2506   64.6534   19.1329 C   0  0  0  0  0  0  0  0  0  0  0  0
   14.5875   63.6179   19.9364 N   0  0  0  0  0  0  0  0  0  0  0  0
   14.8228   63.5535   21.3015 C   0  0  0  0  0  0  0  0  0  0  0  0
   14.2720   62.6070   22.0626 C   0  0  0  0  0  0  0  0  0  0  0  0
   14.4449   62.5659   23.3944 F   0  0  0  0  0  0  0  0  0  0  0  0
   13.3965   61.5931   21.4475 C   0  0  0  0  0  0  0  0  0  0  0  0
   12.6980   60.8296   22.0980 O   0  0  0  0  0  0  0  0  0  0  0  0
   13.3702   61.6168   20.0759 N   0  0  0  0  0  0  0  0  0  0  0  0
   13.8508   62.6255   19.2871 C   0  0  0  0  0  0  0  0  0  0  0  0
   13.5848   62.6929   18.0883 O   0  0  0  0  0  0  0  0  0  0  0  0
   12.9708   60.8409   19.6201 H   0  0  0  0  0  0  0  0  0  0  0  0
 14 15  1  0
 15 16  1  0
 15 17  1  0
 15 13  1  0
 13 10  1  0
 10 11  1  0
 10 12  1  0
 10  9  1  0
  9  6  1  0
  6  7  1  0
  6  8  1  0
  6  5  1  0
  5  1  1  0
  1  2  1  0
  1 18  1  0
 18 19  1  0
 19 20  1  0
 20 21  2  0
 21 22  1  0
 21 23  1  0
 23 24  2  0
 23 25  1  0
 25 26  1  0
 26 27  2  0
 26 19  1  0
  2  3  1  0
  2  4  1  0
 25 28  1  0
M  CHG 1   6   1
M  CHG 1  10   1
M  CHG 1  15   1
M  END
> <minimizedAffinity>
-5.68998

> <CNNscore>
0.1474582851

> <CNNaffinity>
4.4762358665

> <CNN_VS>
0.6600580812

> <CNNaffinity_variance>
0.8792352676

$$$$



 28 28  0  0  0  0  0  0  0  0999 V2000
   18.9088   68.1903   18.9320 C   0  0  0  0  0  0  0  0  0  0  0  0
   19.5570   67.7846   20.2125 N   0  0  0  0  0  0  0  0  0  0  0  0
   19.4993   68.5527   20.8811 H   0  0  0  0  0  0  0  0  0  0  0  0
   20.5361   67.5563   20.0405 H   0  0  0  0  0  0  0  0  0  0  0  0
   19.6535   69.3929   18.2698 C   0  0  0  0  0  0  0  0  0  0  0  0
   19.3849   70.8386   18.9650 N   0  0  0  0  0  0  0  0  0  0  0  0
   20.2749   70.8959   20.2131 C   0  0  0  0  0  0  0  0  0  0  0  0
   19.9456   71.8166   17.9314 C   0  0  0  0  0  0  0  0  0  0  0  0
   17.8970   70.9250   19.2653 C   0  0  0  0  0  0  0  0  0  0  0  0
   17.1707   72.2536   19.6546 N   0  0  0  0  0  0  0  0  0  0  0  0
   16.8973   73.0766   18.3967 C   0  0  0  0  0  0  0  0  0  0  0  0
   17.9683   73.0528   20.6461 C   0  0  0  0  0  0  0  0  0  0  0  0
   15.8131   71.7569   20.2362 C   0  0  0  0  0  0  0  0  0  0  0  0
   15.4398   73.2265   22.3527 C   0  0  0  0  0  0  0  0  0  0  0  0
   14.8876   72.6401   21.0588 N   0  0  0  0  0  0  0  0  0  0  0  0
   13.5052   72.0242   21.3321 C   0  0  0  0  0  0  0  0  0  0  0  0
   14.5821   73.8905   20.1509 C   0  0  0  0  0  0  0  0  0  0  0  0
   17.3772   68.4633   19.0971 C   0  0  0  0  0  0  0  0  0  0  0  0
   16.5121   67.2946   18.8882 N   0  0  0  0  0  0  0  0  0  0  0  0
   17.0718   66.0888   18.4936 C   0  0  0  0  0  0  0  0  0  0  0  0
   16.3204   65.0131   18.2559 C   0  0  0  0  0  0  0  0  0  0  0  0
   16.8526   63.8236   17.9286 F   0  0  0  0  0  0  0  0  0  0  0  0
   14.8562   65.0979   18.4044 C   0  0  0  0  0  0  0  0  0  0  0  0
   14.1266   64.1173   18.4075 O   0  0  0  0  0  0  0  0  0  0  0  0
   14.3751   66.3662   18.6111 N   0  0  0  0  0  0  0  0  0  0  0  0
   15.1269   67.4588   18.9450 C   0  0  0  0  0  0  0  0  0  0  0  0
   14.6118   68.5017   19.3448 O   0  0  0  0  0  0  0  0  0  0  0  0
   13.4052   66.5013   18.5104 H   0  0  0  0  0  0  0  0  0  0  0  0
 14 15  1  0
 15 16  1  0
 15 17  1  0
 15 13  1  0
 13 10  1  0
 10 11  1  0
 10 12  1  0
 10  9  1  0
  9  6  1  0
  6  7  1  0
  6  8  1  0
  6  5  1  0
  5  1  1  0
  1  2  1  0
  1 18  1  0
 18 19  1  0
 19 20  1  0
 20 21  2  0
 21 22  1  0
 21 23  1  0
 23 24  2  0
 23 25  1  0
 25 26  1  0
 26 27  2  0
 26 19  1  0
  2  3  1  0
  2  4  1  0
 25 28  1  0
M  CHG 1   6   1
M  CHG 1  10   1
M  CHG 1  15   1
M  END
> <minimizedAffinity>
-4.79010

> <CNNscore>
0.1122648269

> <CNNaffinity>
3.8810489178

> <CNN_VS>
0.4357052743

> <CNNaffinity_variance>
1.3028413057

$$$$



 28 28  0  0  0  0  0  0  0  0999 V2000
   18.5612   66.9377   19.4537 C   0  0  0  0  0  0  0  0  0  0  0  0
   19.6288   67.4060   20.3838 N   0  0  0  0  0  0  0  0  0  0  0  0
   19.4625   68.3822   20.6284 H   0  0  0  0  0  0  0  0  0  0  0  0
   20.5378   67.3196   19.9292 H   0  0  0  0  0  0  0  0  0  0  0  0
   18.5884   67.7285   18.1071 C   0  0  0  0  0  0  0  0  0  0  0  0
   18.8234   69.3313   18.2525 N   0  0  0  0  0  0  0  0  0  0  0  0
   20.3406   69.5461   18.3243 C   0  0  0  0  0  0  0  0  0  0  0  0
   18.3270   69.8659   16.9082 C   0  0  0  0  0  0  0  0  0  0  0  0
   18.0777   69.7855   19.4971 C   0  0  0  0  0  0  0  0  0  0  0  0
   17.3828   71.1799   19.6265 N   0  0  0  0  0  0  0  0  0  0  0  0
   16.9308   71.3961   21.0698 C   0  0  0  0  0  0  0  0  0  0  0  0
   16.2203   71.3108   18.6833 C   0  0  0  0  0  0  0  0  0  0  0  0
   18.5337   72.1796   19.3042 C   0  0  0  0  0  0  0  0  0  0  0  0
   17.6829   73.6540   17.3341 C   0  0  0  0  0  0  0  0  0  0  0  0
   18.2938   73.5665   18.7277 N   0  0  0  0  0  0  0  0  0  0  0  0
   19.5120   74.5020   18.8056 C   0  0  0  0  0  0  0  0  0  0  0  0
   17.2288   74.2375   19.6746 C   0  0  0  0  0  0  0  0  0  0  0  0
   17.1438   66.9486   20.1159 C   0  0  0  0  0  0  0  0  0  0  0  0
   16.0917   66.2765   19.3419 N   0  0  0  0  0  0  0  0  0  0  0  0
   16.2778   64.9673   18.9241 C   0  0  0  0  0  0  0  0  0  0  0  0
   15.3659   64.3315   18.1875 C   0  0  0  0  0  0  0  0  0  0  0  0
   15.5064   63.0458   17.8237 F   0  0  0  0  0  0  0  0  0  0  0  0
   14.1290   65.0302   17.7939 C   0  0  0  0  0  0  0  0  0  0  0  0
   13.1658   64.4594   17.3036 O   0  0  0  0  0  0  0  0  0  0  0  0
   14.1119   66.3707   18.0860 N   0  0  0  0  0  0  0  0  0  0  0  0
   14.9887   67.0171   18.9131 C   0  0  0  0  0  0  0  0  0  0  0  0
   14.7768   68.1598   19.3156 O   0  0  0  0  0  0  0  0  0  0  0  0
   13.4079   66.9142   17.6639 H   0  0  0  0  0  0  0  0  0  0  0  0
 14 15  1  0
 15 16  1  0
 15 17  1  0
 15 13  1  0
 13 10  1  0
 10 11  1  0
 10 12  1  0
 10  9  1  0
  9  6  1  0
  6  7  1  0
  6  8  1  0
  6  5  1  0
  5  1  1  0
  1  2  1  0
  1 18  1  0
 18 19  1  0
 19 20  1  0
 20 21  2  0
 21 22  1  0
 21 23  1  0
 23 24  2  0
 23 25  1  0
 25 26  1  0
 26 27  2  0
 26 19  1  0
  2  3  1  0
  2  4  1  0
 25 28  1  0
M  CHG 1   6   1
M  CHG 1  10   1
M  CHG 1  15   1
M  END
> <minimizedAffinity>
-4.37225

> <CNNscore>
0.1053056717

> <CNNaffinity>
4.1403698921

> <CNN_VS>
0.4360044301

> <CNNaffinity_variance>
0.6089859605

$$$$



 28 28  0  0  0  0  0  0  0  0999 V2000
   14.5409   65.2656   18.8740 C   0  0  0  0  0  0  0  0  0  0  0  0
   13.3144   66.0904   19.0737 N   0  0  0  0  0  0  0  0  0  0  0  0
   12.8053   66.1613   18.1927 H   0  0  0  0  0  0  0  0  0  0  0  0
   13.5797   67.0234   19.3891 H   0  0  0  0  0  0  0  0  0  0  0  0
   15.5236   65.9374   17.8628 C   0  0  0  0  0  0  0  0  0  0  0  0
   17.1005   65.7974   18.2358 N   0  0  0  0  0  0  0  0  0  0  0  0
   17.1860   64.8190   19.4142 C   0  0  0  0  0  0  0  0  0  0  0  0
   17.6775   65.1086   16.9983 C   0  0  0  0  0  0  0  0  0  0  0  0
   17.6138   67.1924   18.5554 C   0  0  0  0  0  0  0  0  0  0  0  0
   17.8975   67.6961   20.0079 N   0  0  0  0  0  0  0  0  0  0  0  0
   18.0834   66.4991   20.9390 C   0  0  0  0  0  0  0  0  0  0  0  0
   16.7995   68.5907   20.5099 C   0  0  0  0  0  0  0  0  0  0  0  0
   19.2597   68.4389   19.8646 C   0  0  0  0  0  0  0  0  0  0  0  0
   19.8021   70.9697   20.1473 C   0  0  0  0  0  0  0  0  0  0  0  0
   19.3933   69.8178   19.2368 N   0  0  0  0  0  0  0  0  0  0  0  0
   18.1823   70.2466   18.3914 C   0  0  0  0  0  0  0  0  0  0  0  0
   20.5685   69.6941   18.1953 C   0  0  0  0  0  0  0  0  0  0  0  0
   14.2105   63.7874   18.4823 C   0  0  0  0  0  0  0  0  0  0  0  0
   13.8419   62.9152   19.6053 N   0  0  0  0  0  0  0  0  0  0  0  0
   14.3314   63.1866   20.8740 C   0  0  0  0  0  0  0  0  0  0  0  0
   14.0533   62.4001   21.9144 C   0  0  0  0  0  0  0  0  0  0  0  0
   14.4730   62.6813   23.1594 F   0  0  0  0  0  0  0  0  0  0  0  0
   13.2129   61.2044   21.7218 C   0  0  0  0  0  0  0  0  0  0  0  0
   12.7476   60.5578   22.6487 O   0  0  0  0  0  0  0  0  0  0  0  0
   12.9310   60.9089   20.4118 N   0  0  0  0  0  0  0  0  0  0  0  0
   13.1278   61.7437   19.3466 C   0  0  0  0  0  0  0  0  0  0  0  0
   12.6386   61.5111   18.2424 O   0  0  0  0  0  0  0  0  0  0  0  0
   12.5545   60.0191   20.2224 H   0  0  0  0  0  0  0  0  0  0  0  0
 14 15  1  0
 15 16  1  0
 15 17  1  0
 15 13  1  0
 13 10  1  0
 10 11  1  0
 10 12  1  0
 10  9  1  0
  9  6  1  0
  6  7  1  0
  6  8  1  0
  6  5  1  0
  5  1  1  0
  1  2  1  0
  1 18  1  0
 18 19  1  0
 19 20  1  0
 20 21  2  0
 21 22  1  0
 21 23  1  0
 23 24  2  0
 23 25  1  0
 25 26  1  0
 26 27  2  0
 26 19  1  0
  2  3  1  0
  2  4  1  0
 25 28  1  0
M  CHG 1   6   1
M  CHG 1  10   1
M  CHG 1  15   1
M  END
> <minimizedAffinity>
-5.76556

> <CNNscore>
0.1013813391

> <CNNaffinity>
4.2007813454

> <CNN_VS>
0.4258808494

> <CNNaffinity_variance>
1.0196170807

$$$$



 28 28  0  0  0  0  0  0  0  0999 V2000
   16.2762   64.1360   19.3227 C   0  0  0  0  0  0  0  0  0  0  0  0
   17.6326   64.3780   19.8937 N   0  0  0  0  0  0  0  0  0  0  0  0
   17.6911   65.3368   20.2366 H   0  0  0  0  0  0  0  0  0  0  0  0
   18.3369   64.2319   19.1705 H   0  0  0  0  0  0  0  0  0  0  0  0
   16.0042   65.0515   18.0869 C   0  0  0  0  0  0  0  0  0  0  0  0
   16.1750   66.6461   18.3580 N   0  0  0  0  0  0  0  0  0  0  0  0
   16.4744   67.2912   16.9989 C   0  0  0  0  0  0  0  0  0  0  0  0
   14.7683   67.0653   18.7877 C   0  0  0  0  0  0  0  0  0  0  0  0
   17.2900   66.8132   19.3779 C   0  0  0  0  0  0  0  0  0  0  0  0
   17.5877   68.1572   20.1191 N   0  0  0  0  0  0  0  0  0  0  0  0
   17.7755   67.8894   21.6115 C   0  0  0  0  0  0  0  0  0  0  0  0
   16.4978   69.1675   19.8964 C   0  0  0  0  0  0  0  0  0  0  0  0
   18.9521   68.6011   19.5116 C   0  0  0  0  0  0  0  0  0  0  0  0
   19.4271   71.1105   20.0180 C   0  0  0  0  0  0  0  0  0  0  0  0
   19.2127   70.0059   18.9900 N   0  0  0  0  0  0  0  0  0  0  0  0
   18.2011   70.4857   17.9356 C   0  0  0  0  0  0  0  0  0  0  0  0
   20.5764   69.9179   18.2066 C   0  0  0  0  0  0  0  0  0  0  0  0
   15.1458   64.2462   20.3988 C   0  0  0  0  0  0  0  0  0  0  0  0
   14.3515   63.0258   20.5920 N   0  0  0  0  0  0  0  0  0  0  0  0
   13.7230   62.4373   19.5049 C   0  0  0  0  0  0  0  0  0  0  0  0
   12.9614   61.3510   19.6407 C   0  0  0  0  0  0  0  0  0  0  0  0
   12.3930   60.7368   18.5895 F   0  0  0  0  0  0  0  0  0  0  0  0
   12.7681   60.7570   20.9759 C   0  0  0  0  0  0  0  0  0  0  0  0
   12.2629   59.6581   21.1520 O   0  0  0  0  0  0  0  0  0  0  0  0
   13.2659   61.5059   22.0122 N   0  0  0  0  0  0  0  0  0  0  0  0
   14.1207   62.5665   21.8900 C   0  0  0  0  0  0  0  0  0  0  0  0
   14.7099   63.0386   22.8609 O   0  0  0  0  0  0  0  0  0  0  0  0
   12.9833   61.2585   22.9223 H   0  0  0  0  0  0  0  0  0  0  0  0
 14 15  1  0
 15 16  1  0
 15 17  1  0
 15 13  1  0
 13 10  1  0
 10 11  1  0
 10 12  1  0
 10  9  1  0
  9  6  1  0
  6  7  1  0
  6  8  1  0
  6  5  1  0
  5  1  1  0
  1  2  1  0
  1 18  1  0
 18 19  1  0
 19 20  1  0
 20 21  2  0
 21 22  1  0
 21 23  1  0
 23 24  2  0
 23 25  1  0
 25 26  1  0
 26 27  2  0
 26 19  1  0
  2  3  1  0
  2  4  1  0
 25 28  1  0
M  CHG 1   6   1
M  CHG 1  10   1
M  CHG 1  15   1
M  END
> <minimizedAffinity>
-5.49172

> <CNNscore>
0.0992731676

> <CNNaffinity>
4.2639169693

> <CNN_VS>
0.4232925475

> <CNNaffinity_variance>
1.1391913891

$$$$



 28 28  0  0  0  0  0  0  0  0999 V2000
   16.9058   64.7589   18.8939 C   0  0  0  0  0  0  0  0  0  0  0  0
   17.7142   64.3509   20.0790 N   0  0  0  0  0  0  0  0  0  0  0  0
   17.6969   65.0961   20.7752 H   0  0  0  0  0  0  0  0  0  0  0  0
   18.6770   64.1774   19.7904 H   0  0  0  0  0  0  0  0  0  0  0  0
   17.5125   66.0158   18.1929 C   0  0  0  0  0  0  0  0  0  0  0  0
   17.3856   67.4031   19.0323 N   0  0  0  0  0  0  0  0  0  0  0  0
   16.0054   67.3846   19.7017 C   0  0  0  0  0  0  0  0  0  0  0  0
   18.4477   67.2349   20.1198 C   0  0  0  0  0  0  0  0  0  0  0  0
   17.5769   68.5453   18.0473 C   0  0  0  0  0  0  0  0  0  0  0  0
   18.9782   69.0891   17.6176 N   0  0  0  0  0  0  0  0  0  0  0  0
   19.5384   68.2274   16.4872 C   0  0  0  0  0  0  0  0  0  0  0  0
   19.9362   69.1314   18.7745 C   0  0  0  0  0  0  0  0  0  0  0  0
   18.6507   70.5053   17.0563 C   0  0  0  0  0  0  0  0  0  0  0  0
   20.3648   71.9583   18.3716 C   0  0  0  0  0  0  0  0  0  0  0  0
   19.6486   71.6532   17.0613 N   0  0  0  0  0  0  0  0  0  0  0  0
   19.1073   72.9629   16.4638 C   0  0  0  0  0  0  0  0  0  0  0  0
   20.7939   71.2197   16.0705 C   0  0  0  0  0  0  0  0  0  0  0  0
   15.3918   64.9492   19.2393 C   0  0  0  0  0  0  0  0  0  0  0  0
   14.6257   63.7037   19.3794 N   0  0  0  0  0  0  0  0  0  0  0  0
   13.9873   63.1630   18.2734 C   0  0  0  0  0  0  0  0  0  0  0  0
   13.2502   62.0553   18.3630 C   0  0  0  0  0  0  0  0  0  0  0  0
   12.6731   61.4883   17.2902 F   0  0  0  0  0  0  0  0  0  0  0  0
   13.0954   61.3847   19.6665 C   0  0  0  0  0  0  0  0  0  0  0  0
   12.6156   60.2675   19.7909 O   0  0  0  0  0  0  0  0  0  0  0  0
   13.5989   62.0856   20.7333 N   0  0  0  0  0  0  0  0  0  0  0  0
   14.4300   63.1689   20.6541 C   0  0  0  0  0  0  0  0  0  0  0  0
   15.0290   63.5989   21.6384 O   0  0  0  0  0  0  0  0  0  0  0  0
   13.3395   61.7826   21.6334 H   0  0  0  0  0  0  0  0  0  0  0  0
 14 15  1  0
 15 16  1  0
 15 17  1  0
 15 13  1  0
 13 10  1  0
 10 11  1  0
 10 12  1  0
 10  9  1  0
  9  6  1  0
  6  7  1  0
  6  8  1  0
  6  5  1  0
  5  1  1  0
  1  2  1  0
  1 18  1  0
 18 19  1  0
 19 20  1  0
 20 21  2  0
 21 22  1  0
 21 23  1  0
 23 24  2  0
 23 25  1  0
 25 26  1  0
 26 27  2  0
 26 19  1  0
  2  3  1  0
  2  4  1  0
 25 28  1  0
M  CHG 1   6   1
M  CHG 1  10   1
M  CHG 1  15   1
M  END
> <minimizedAffinity>
-5.06587

> <CNNscore>
0.0864497051

> <CNNaffinity>
3.7145671844

> <CNN_VS>
0.3211232424

> <CNNaffinity_variance>
1.1697713137

$$$$
