


 36 38  0  0  0  0  0  0  0  0999 V2000
   36.2837   -2.2001  -10.0400 C   0  0  0  0  0  0  0  0  0  0  0  0
   37.3127   -2.5768   -9.2618 C   0  0  0  0  0  0  0  0  0  0  0  0
   36.5293   -1.2291  -13.6591 C   0  0  0  0  0  0  0  0  0  0  0  0
   37.2394   -1.4086  -12.3271 C   0  0  0  0  0  0  0  0  0  0  0  0
   38.5008   -2.0568  -12.4802 O   0  0  0  0  0  0  0  0  0  0  0  0
   36.2148   -2.2328  -11.5415 C   0  0  0  0  0  0  0  0  0  0  0  0
   34.9264   -1.7181  -11.9219 O   0  0  0  0  0  0  0  0  0  0  0  0
   35.0622   -1.0786  -13.2066 C   0  0  0  0  0  0  0  0  0  0  0  0
   38.3741   -2.9102  -12.9236 H   0  0  0  0  0  0  0  0  0  0  0  0
   34.6541    0.3449  -13.1589 N   0  0  0  0  0  0  0  0  0  0  0  0
   35.1752    1.1903  -12.1811 C   0  0  0  0  0  0  0  0  0  0  0  0
   34.8381    2.4776  -12.0314 C   0  0  0  0  0  0  0  0  0  0  0  0
   33.8422    3.0513  -12.9668 C   0  0  0  0  0  0  0  0  0  0  0  0
   33.4815    4.2185  -12.8722 O   0  0  0  0  0  0  0  0  0  0  0  0
   33.2982    2.1566  -14.0143 C   0  0  0  0  0  0  0  0  0  0  0  0
   33.7262    0.8882  -14.0445 C   0  0  0  0  0  0  0  0  0  0  0  0
   37.6634   -3.3221  -13.8100 C   0  0  0  0  0  0  0  0  0  0  0  0
   36.7484   -2.4301  -14.4378 O   0  0  0  0  0  0  0  0  0  0  0  0
   37.2957   -2.5165   -7.7672 C   0  0  0  0  0  0  0  0  0  0  0  0
   36.9674   -3.8263   -7.2732 N   0  0  0  0  0  0  0  0  0  0  0  0
   37.7878   -4.4859   -6.3922 C   0  0  0  0  0  0  0  0  0  0  0  0
   38.7879   -3.9732   -5.8996 O   0  0  0  0  0  0  0  0  0  0  0  0
   36.1359   -4.2596   -7.5733 H   0  0  0  0  0  0  0  0  0  0  0  0
   37.4189   -5.8902   -6.0356 C   0  0  0  0  0  0  0  0  0  0  0  0
   38.3289   -6.6140   -5.2444 C   0  0  0  0  0  0  0  0  0  0  0  0
   38.0452   -7.9385   -4.8746 C   0  0  0  0  0  0  0  0  0  0  0  0
   36.8603   -8.5644   -5.2841 C   0  0  0  0  0  0  0  0  0  0  0  0
   35.9688   -7.8435   -6.0662 C   0  0  0  0  0  0  0  0  0  0  0  0
   34.7928   -8.3916   -6.5051 O   0  0  0  0  0  0  0  0  0  0  0  0
   36.2373   -6.5222   -6.4425 C   0  0  0  0  0  0  0  0  0  0  0  0
   35.3027   -5.8898   -7.2242 O   0  0  0  0  0  0  0  0  0  0  0  0
   34.5729   -9.2734   -6.2767 H   0  0  0  0  0  0  0  0  0  0  0  0
   34.5222   -6.3413   -7.4791 H   0  0  0  0  0  0  0  0  0  0  0  0
   39.0021   -8.6835   -4.0461 N   0  0  0  0  0  0  0  0  0  0  0  0
   40.1651   -8.2577   -3.9964 O   0  0  0  0  0  0  0  0  0  0  0  0
   38.5944   -9.6899   -3.4520 O   0  0  0  0  0  0  0  0  0  0  0  0
 17 18  1  0
  3 18  1  0
  3  4  1  0
  4  5  1  0
  4  6  1  0
  6  1  1  0
  1  2  2  0
  2 19  1  0
 19 20  1  0
 20 21  1  0
 21 22  2  0
 21 24  1  0
 24 25  2  0
 25 26  1  0
 26 34  1  0
 34 35  2  0
 34 36  1  0
 26 27  2  0
 27 28  1  0
 28 29  1  0
 28 30  2  0
 30 31  1  0
  6  7  1  0
  7  8  1  0
  8 10  1  0
 10 11  1  0
 11 12  2  0
 12 13  1  0
 13 14  2  0
 13 15  1  0
 15 16  2  0
  8  3  1  0
 16 10  1  0
 30 24  1  0
  5  9  1  0
 20 23  1  0
 29 32  1  0
 31 33  1  0
M  CHG 1  34   1
M  CHG 1  36  -1
M  END
> <minimizedAffinity>
-10.47038

> <CNNscore>
0.9665548801

> <CNNaffinity>
6.8640131950

> <CNN_VS>
6.6344456673

> <CNNaffinity_variance>
0.3797986805

$$$$



 36 38  0  0  0  0  0  0  0  0999 V2000
   35.4819   -3.0079  -11.0428 C   0  0  0  0  0  0  0  0  0  0  0  0
   35.9875   -3.2318   -9.8177 C   0  0  0  0  0  0  0  0  0  0  0  0
   37.2379   -0.5679  -13.2930 C   0  0  0  0  0  0  0  0  0  0  0  0
   37.2059   -1.2845  -11.9528 C   0  0  0  0  0  0  0  0  0  0  0  0
   38.4938   -1.7704  -11.5788 O   0  0  0  0  0  0  0  0  0  0  0  0
   36.1836   -2.3931  -12.2216 C   0  0  0  0  0  0  0  0  0  0  0  0
   35.1749   -1.7987  -13.0576 O   0  0  0  0  0  0  0  0  0  0  0  0
   35.7611   -0.6652  -13.7281 C   0  0  0  0  0  0  0  0  0  0  0  0
   38.8344   -2.3529  -12.2756 H   0  0  0  0  0  0  0  0  0  0  0  0
   35.0271    0.5880  -13.4350 N   0  0  0  0  0  0  0  0  0  0  0  0
   35.4181    1.3953  -12.3683 C   0  0  0  0  0  0  0  0  0  0  0  0
   34.7952    2.5220  -12.0000 C   0  0  0  0  0  0  0  0  0  0  0  0
   33.6063    2.9475  -12.7757 C   0  0  0  0  0  0  0  0  0  0  0  0
   32.9845    3.9608  -12.4790 O   0  0  0  0  0  0  0  0  0  0  0  0
   33.1986    2.0967  -13.9174 C   0  0  0  0  0  0  0  0  0  0  0  0
   33.9160    0.9947  -14.1702 C   0  0  0  0  0  0  0  0  0  0  0  0
   39.3397   -0.6168  -14.4197 C   0  0  0  0  0  0  0  0  0  0  0  0
   38.1228   -1.3107  -14.1659 O   0  0  0  0  0  0  0  0  0  0  0  0
   35.2177   -3.8569   -8.6977 C   0  0  0  0  0  0  0  0  0  0  0  0
   36.1357   -4.6271   -7.9029 N   0  0  0  0  0  0  0  0  0  0  0  0
   35.7744   -5.8352   -7.3605 C   0  0  0  0  0  0  0  0  0  0  0  0
   34.6980   -6.3763   -7.5934 O   0  0  0  0  0  0  0  0  0  0  0  0
   37.0433   -4.2804   -7.7443 H   0  0  0  0  0  0  0  0  0  0  0  0
   36.7586   -6.4971   -6.4502 C   0  0  0  0  0  0  0  0  0  0  0  0
   37.9788   -5.8334   -6.2293 C   0  0  0  0  0  0  0  0  0  0  0  0
   38.9484   -6.4004   -5.3867 C   0  0  0  0  0  0  0  0  0  0  0  0
   38.7251   -7.6307   -4.7544 C   0  0  0  0  0  0  0  0  0  0  0  0
   37.5191   -8.2796   -4.9795 C   0  0  0  0  0  0  0  0  0  0  0  0
   37.2333   -9.4861   -4.3973 O   0  0  0  0  0  0  0  0  0  0  0  0
   36.5425   -7.7269   -5.8163 C   0  0  0  0  0  0  0  0  0  0  0  0
   35.3839   -8.4431   -5.9875 O   0  0  0  0  0  0  0  0  0  0  0  0
   37.8586   -9.8923   -3.8299 H   0  0  0  0  0  0  0  0  0  0  0  0
   35.2709   -9.2632   -5.5485 H   0  0  0  0  0  0  0  0  0  0  0  0
   40.2179   -5.6969   -5.1617 N   0  0  0  0  0  0  0  0  0  0  0  0
   40.4545   -4.7078   -5.8703 O   0  0  0  0  0  0  0  0  0  0  0  0
   40.9750   -6.1326   -4.2848 O   0  0  0  0  0  0  0  0  0  0  0  0
 17 18  1  0
  3 18  1  0
  3  4  1  0
  4  5  1  0
  4  6  1  0
  6  1  1  0
  1  2  2  0
  2 19  1  0
 19 20  1  0
 20 21  1  0
 21 22  2  0
 21 24  1  0
 24 25  2  0
 25 26  1  0
 26 34  1  0
 34 35  2  0
 34 36  1  0
 26 27  2  0
 27 28  1  0
 28 29  1  0
 28 30  2  0
 30 31  1  0
  6  7  1  0
  7  8  1  0
  8 10  1  0
 10 11  1  0
 11 12  2  0
 12 13  1  0
 13 14  2  0
 13 15  1  0
 15 16  2  0
  8  3  1  0
 16 10  1  0
 30 24  1  0
  5  9  1  0
 20 23  1  0
 29 32  1  0
 31 33  1  0
M  CHG 1  34   1
M  CHG 1  36  -1
M  END
> <minimizedAffinity>
-8.85726

> <CNNscore>
0.8162338138

> <CNNaffinity>
6.5730271339

> <CNN_VS>
5.3651270866

> <CNNaffinity_variance>
0.3485882282

$$$$



 36 38  0  0  0  0  0  0  0  0999 V2000
   35.6099   -4.4229  -12.0564 C   0  0  0  0  0  0  0  0  0  0  0  0
   34.5920   -4.5830  -11.1934 C   0  0  0  0  0  0  0  0  0  0  0  0
   38.0444   -1.9361  -13.4668 C   0  0  0  0  0  0  0  0  0  0  0  0
   37.1395   -3.1313  -13.7184 C   0  0  0  0  0  0  0  0  0  0  0  0
   36.3896   -2.9861  -14.9231 O   0  0  0  0  0  0  0  0  0  0  0  0
   36.2769   -3.1352  -12.4526 C   0  0  0  0  0  0  0  0  0  0  0  0
   37.1587   -2.7621  -11.3789 O   0  0  0  0  0  0  0  0  0  0  0  0
   38.2687   -2.0365  -11.9439 C   0  0  0  0  0  0  0  0  0  0  0  0
   35.8763   -2.1638  -14.8873 H   0  0  0  0  0  0  0  0  0  0  0  0
   39.5652   -2.6812  -11.6293 N   0  0  0  0  0  0  0  0  0  0  0  0
   40.1603   -2.4860  -10.3843 C   0  0  0  0  0  0  0  0  0  0  0  0
   41.3462   -2.9912  -10.0215 C   0  0  0  0  0  0  0  0  0  0  0  0
   42.0837   -3.8168  -11.0066 C   0  0  0  0  0  0  0  0  0  0  0  0
   43.1800   -4.2946  -10.7399 O   0  0  0  0  0  0  0  0  0  0  0  0
   41.4452   -4.0352  -12.3251 C   0  0  0  0  0  0  0  0  0  0  0  0
   40.2542   -3.4664  -12.5507 C   0  0  0  0  0  0  0  0  0  0  0  0
   36.5655   -0.2051  -12.7555 C   0  0  0  0  0  0  0  0  0  0  0  0
   37.3113   -0.7449  -13.8415 O   0  0  0  0  0  0  0  0  0  0  0  0
   33.9884   -5.9080  -10.8500 C   0  0  0  0  0  0  0  0  0  0  0  0
   34.6004   -6.3737   -9.6350 N   0  0  0  0  0  0  0  0  0  0  0  0
   34.9773   -5.5028   -8.6432 C   0  0  0  0  0  0  0  0  0  0  0  0
   34.7333   -4.3009   -8.6821 O   0  0  0  0  0  0  0  0  0  0  0  0
   34.7525   -7.3386   -9.5118 H   0  0  0  0  0  0  0  0  0  0  0  0
   35.7154   -6.0750   -7.4757 C   0  0  0  0  0  0  0  0  0  0  0  0
   36.8012   -5.3347   -6.9747 C   0  0  0  0  0  0  0  0  0  0  0  0
   37.5387   -5.8154   -5.8808 C   0  0  0  0  0  0  0  0  0  0  0  0
   37.2138   -7.0342   -5.2705 C   0  0  0  0  0  0  0  0  0  0  0  0
   36.1421   -7.7591   -5.7725 C   0  0  0  0  0  0  0  0  0  0  0  0
   35.7691   -8.9593   -5.2281 O   0  0  0  0  0  0  0  0  0  0  0  0
   35.3969   -7.2928   -6.8619 C   0  0  0  0  0  0  0  0  0  0  0  0
   34.3598   -8.0803   -7.2963 O   0  0  0  0  0  0  0  0  0  0  0  0
   36.2402   -9.3090   -4.4975 H   0  0  0  0  0  0  0  0  0  0  0  0
   34.1730   -8.8899   -6.8633 H   0  0  0  0  0  0  0  0  0  0  0  0
   38.6692   -5.0324   -5.3650 N   0  0  0  0  0  0  0  0  0  0  0  0
   38.5241   -3.8037   -5.2900 O   0  0  0  0  0  0  0  0  0  0  0  0
   39.6965   -5.6415   -5.0403 O   0  0  0  0  0  0  0  0  0  0  0  0
 17 18  1  0
  3 18  1  0
  3  4  1  0
  4  5  1  0
  4  6  1  0
  6  1  1  0
  1  2  2  0
  2 19  1  0
 19 20  1  0
 20 21  1  0
 21 22  2  0
 21 24  1  0
 24 25  2  0
 25 26  1  0
 26 34  1  0
 34 35  2  0
 34 36  1  0
 26 27  2  0
 27 28  1  0
 28 29  1  0
 28 30  2  0
 30 31  1  0
  6  7  1  0
  7  8  1  0
  8 10  1  0
 10 11  1  0
 11 12  2  0
 12 13  1  0
 13 14  2  0
 13 15  1  0
 15 16  2  0
  8  3  1  0
 16 10  1  0
 30 24  1  0
  5  9  1  0
 20 23  1  0
 29 32  1  0
 31 33  1  0
M  CHG 1  34   1
M  CHG 1  36  -1
M  END
> <minimizedAffinity>
-7.49338

> <CNNscore>
0.7804968953

> <CNNaffinity>
6.5334777832

> <CNN_VS>
5.0993590355

> <CNNaffinity_variance>
0.0808113441

$$$$



 36 38  0  0  0  0  0  0  0  0999 V2000
   39.7169   -0.5043   -5.9395 C   0  0  0  0  0  0  0  0  0  0  0  0
   38.8105   -1.4793   -6.1250 C   0  0  0  0  0  0  0  0  0  0  0  0
   39.8137    2.5171   -3.7119 C   0  0  0  0  0  0  0  0  0  0  0  0
   39.0114    1.6579   -4.6757 C   0  0  0  0  0  0  0  0  0  0  0  0
   37.6828    1.4332   -4.2079 O   0  0  0  0  0  0  0  0  0  0  0  0
   39.8653    0.3878   -4.7386 C   0  0  0  0  0  0  0  0  0  0  0  0
   41.2322    0.8350   -4.7042 O   0  0  0  0  0  0  0  0  0  0  0  0
   41.2596    2.1425   -4.0979 C   0  0  0  0  0  0  0  0  0  0  0  0
   37.7143    1.0290   -3.3267 H   0  0  0  0  0  0  0  0  0  0  0  0
   41.8585    3.1548   -4.9990 N   0  0  0  0  0  0  0  0  0  0  0  0
   41.4627    4.4884   -4.9150 C   0  0  0  0  0  0  0  0  0  0  0  0
   41.9145    5.4666   -5.7101 C   0  0  0  0  0  0  0  0  0  0  0  0
   42.9049    5.1149   -6.7548 C   0  0  0  0  0  0  0  0  0  0  0  0
   43.3448    5.9622   -7.5229 O   0  0  0  0  0  0  0  0  0  0  0  0
   43.3355    3.7001   -6.8355 C   0  0  0  0  0  0  0  0  0  0  0  0
   42.7977    2.8274   -5.9741 C   0  0  0  0  0  0  0  0  0  0  0  0
   40.5520    2.2846   -1.4557 C   0  0  0  0  0  0  0  0  0  0  0  0
   39.4739    2.1011   -2.3672 O   0  0  0  0  0  0  0  0  0  0  0  0
   38.7361   -2.3279   -7.3547 C   0  0  0  0  0  0  0  0  0  0  0  0
   38.4993   -3.6855   -6.9442 N   0  0  0  0  0  0  0  0  0  0  0  0
   37.2707   -4.2773   -7.1012 C   0  0  0  0  0  0  0  0  0  0  0  0
   36.3364   -3.7323   -7.6806 O   0  0  0  0  0  0  0  0  0  0  0  0
   39.2345   -4.2019   -6.5417 H   0  0  0  0  0  0  0  0  0  0  0  0
   37.0948   -5.6481   -6.5308 C   0  0  0  0  0  0  0  0  0  0  0  0
   38.1518   -6.1657   -5.7608 C   0  0  0  0  0  0  0  0  0  0  0  0
   38.0528   -7.4478   -5.1970 C   0  0  0  0  0  0  0  0  0  0  0  0
   36.9094   -8.2347   -5.3892 C   0  0  0  0  0  0  0  0  0  0  0  0
   35.8720   -7.7169   -6.1519 C   0  0  0  0  0  0  0  0  0  0  0  0
   34.7259   -8.4302   -6.3839 O   0  0  0  0  0  0  0  0  0  0  0  0
   35.9556   -6.4403   -6.7200 C   0  0  0  0  0  0  0  0  0  0  0  0
   34.8853   -6.0137   -7.4662 O   0  0  0  0  0  0  0  0  0  0  0  0
   34.6276   -9.2892   -6.0227 H   0  0  0  0  0  0  0  0  0  0  0  0
   34.1379   -6.5686   -7.5733 H   0  0  0  0  0  0  0  0  0  0  0  0
   39.1622   -7.9768   -4.3929 N   0  0  0  0  0  0  0  0  0  0  0  0
   38.9268   -8.9578   -3.6729 O   0  0  0  0  0  0  0  0  0  0  0  0
   40.2607   -7.4128   -4.4781 O   0  0  0  0  0  0  0  0  0  0  0  0
 17 18  1  0
  3 18  1  0
  3  4  1  0
  4  5  1  0
  4  6  1  0
  6  1  1  0
  1  2  2  0
  2 19  1  0
 19 20  1  0
 20 21  1  0
 21 22  2  0
 21 24  1  0
 24 25  2  0
 25 26  1  0
 26 34  1  0
 34 35  2  0
 34 36  1  0
 26 27  2  0
 27 28  1  0
 28 29  1  0
 28 30  2  0
 30 31  1  0
  6  7  1  0
  7  8  1  0
  8 10  1  0
 10 11  1  0
 11 12  2  0
 12 13  1  0
 13 14  2  0
 13 15  1  0
 15 16  2  0
  8  3  1  0
 16 10  1  0
 30 24  1  0
  5  9  1  0
 20 23  1  0
 29 32  1  0
 31 33  1  0
M  CHG 1  34   1
M  CHG 1  36  -1
M  END
> <minimizedAffinity>
-6.81866

> <CNNscore>
0.6603563428

> <CNNaffinity>
5.5891189575

> <CNN_VS>
3.6908102036

> <CNNaffinity_variance>
0.2145061344

$$$$



 36 38  0  0  0  0  0  0  0  0999 V2000
   36.6337   -2.5274   -9.3373 C   0  0  0  0  0  0  0  0  0  0  0  0
   37.9063   -2.4500   -8.9120 C   0  0  0  0  0  0  0  0  0  0  0  0
   36.0352   -2.8059  -13.0340 C   0  0  0  0  0  0  0  0  0  0  0  0
   36.0074   -3.4850  -11.6743 C   0  0  0  0  0  0  0  0  0  0  0  0
   34.8199   -4.2527  -11.4876 O   0  0  0  0  0  0  0  0  0  0  0  0
   36.1198   -2.2848  -10.7292 C   0  0  0  0  0  0  0  0  0  0  0  0
   37.0285   -1.3700  -11.3672 O   0  0  0  0  0  0  0  0  0  0  0  0
   37.0284   -1.6530  -12.7806 C   0  0  0  0  0  0  0  0  0  0  0  0
   34.0442   -3.6825  -11.6064 H   0  0  0  0  0  0  0  0  0  0  0  0
   38.3843   -1.9887  -13.2750 N   0  0  0  0  0  0  0  0  0  0  0  0
   39.2997   -0.9748  -13.5512 C   0  0  0  0  0  0  0  0  0  0  0  0
   40.5308   -1.1747  -14.0385 C   0  0  0  0  0  0  0  0  0  0  0  0
   40.9577   -2.5685  -14.3052 C   0  0  0  0  0  0  0  0  0  0  0  0
   42.0663   -2.8156  -14.7651 O   0  0  0  0  0  0  0  0  0  0  0  0
   39.9898   -3.6469  -13.9993 C   0  0  0  0  0  0  0  0  0  0  0  0
   38.7906   -3.2991  -13.5158 C   0  0  0  0  0  0  0  0  0  0  0  0
   34.6386   -0.9144  -13.4360 C   0  0  0  0  0  0  0  0  0  0  0  0
   34.6960   -2.3317  -13.3143 O   0  0  0  0  0  0  0  0  0  0  0  0
   38.3339   -2.7141   -7.5031 C   0  0  0  0  0  0  0  0  0  0  0  0
   37.8514   -4.0159   -7.1288 N   0  0  0  0  0  0  0  0  0  0  0  0
   38.1983   -4.5915   -5.9319 C   0  0  0  0  0  0  0  0  0  0  0  0
   38.8510   -4.0056   -5.0737 O   0  0  0  0  0  0  0  0  0  0  0  0
   37.2591   -4.5052   -7.7445 H   0  0  0  0  0  0  0  0  0  0  0  0
   37.7446   -5.9959   -5.6923 C   0  0  0  0  0  0  0  0  0  0  0  0
   38.5835   -6.8210   -4.9219 C   0  0  0  0  0  0  0  0  0  0  0  0
   38.2184   -8.1513   -4.6601 C   0  0  0  0  0  0  0  0  0  0  0  0
   37.0214   -8.6828   -5.1583 C   0  0  0  0  0  0  0  0  0  0  0  0
   36.2005   -7.8622   -5.9191 C   0  0  0  0  0  0  0  0  0  0  0  0
   35.0175   -8.3146   -6.4406 O   0  0  0  0  0  0  0  0  0  0  0  0
   36.5506   -6.5338   -6.1882 C   0  0  0  0  0  0  0  0  0  0  0  0
   35.6822   -5.7990   -6.9566 O   0  0  0  0  0  0  0  0  0  0  0  0
   34.7442   -9.1973   -6.2853 H   0  0  0  0  0  0  0  0  0  0  0  0
   34.8912   -6.1892   -7.2728 H   0  0  0  0  0  0  0  0  0  0  0  0
   39.1014   -9.0027   -3.8524 N   0  0  0  0  0  0  0  0  0  0  0  0
   38.5653   -9.8486   -3.1221 O   0  0  0  0  0  0  0  0  0  0  0  0
   40.3227   -8.8245   -3.9450 O   0  0  0  0  0  0  0  0  0  0  0  0
 17 18  1  0
  3 18  1  0
  3  4  1  0
  4  5  1  0
  4  6  1  0
  6  1  1  0
  1  2  2  0
  2 19  1  0
 19 20  1  0
 20 21  1  0
 21 22  2  0
 21 24  1  0
 24 25  2  0
 25 26  1  0
 26 34  1  0
 34 35  2  0
 34 36  1  0
 26 27  2  0
 27 28  1  0
 28 29  1  0
 28 30  2  0
 30 31  1  0
  6  7  1  0
  7  8  1  0
  8 10  1  0
 10 11  1  0
 11 12  2  0
 12 13  1  0
 13 14  2  0
 13 15  1  0
 15 16  2  0
  8  3  1  0
 16 10  1  0
 30 24  1  0
  5  9  1  0
 20 23  1  0
 29 32  1  0
 31 33  1  0
M  CHG 1  34   1
M  CHG 1  36  -1
M  END
> <minimizedAffinity>
-8.35469

> <CNNscore>
0.6340280771

> <CNNaffinity>
5.9446330070

> <CNN_VS>
3.7690641880

> <CNNaffinity_variance>
0.1170494333

$$$$



 36 38  0  0  0  0  0  0  0  0999 V2000
   36.2804   -1.9818   -9.9627 C   0  0  0  0  0  0  0  0  0  0  0  0
   37.1162   -2.5793   -9.0961 C   0  0  0  0  0  0  0  0  0  0  0  0
   36.7995   -0.8890  -13.5176 C   0  0  0  0  0  0  0  0  0  0  0  0
   37.3826   -1.0355  -12.1214 C   0  0  0  0  0  0  0  0  0  0  0  0
   38.7119   -1.5518  -12.1520 O   0  0  0  0  0  0  0  0  0  0  0  0
   36.3706   -1.9785  -11.4634 C   0  0  0  0  0  0  0  0  0  0  0  0
   35.0831   -1.5824  -11.9684 O   0  0  0  0  0  0  0  0  0  0  0  0
   35.2858   -0.8965  -13.2200 C   0  0  0  0  0  0  0  0  0  0  0  0
   38.7184   -2.4006  -12.6215 H   0  0  0  0  0  0  0  0  0  0  0  0
   34.7335    0.4781  -13.1901 N   0  0  0  0  0  0  0  0  0  0  0  0
   35.1754    1.3895  -12.2328 C   0  0  0  0  0  0  0  0  0  0  0  0
   34.7089    2.6376  -12.0996 C   0  0  0  0  0  0  0  0  0  0  0  0
   33.6489    3.0894  -13.0315 C   0  0  0  0  0  0  0  0  0  0  0  0
   33.1708    4.2147  -12.9511 O   0  0  0  0  0  0  0  0  0  0  0  0
   33.1886    2.1253  -14.0573 C   0  0  0  0  0  0  0  0  0  0  0  0
   33.7449    0.9074  -14.0725 C   0  0  0  0  0  0  0  0  0  0  0  0
   38.4416   -1.8118  -14.9809 C   0  0  0  0  0  0  0  0  0  0  0  0
   37.2178   -2.0400  -14.2902 O   0  0  0  0  0  0  0  0  0  0  0  0
   36.9489   -2.5372   -7.6102 C   0  0  0  0  0  0  0  0  0  0  0  0
   37.3733   -3.8043   -7.0791 N   0  0  0  0  0  0  0  0  0  0  0  0
   38.2094   -3.8820   -5.9931 C   0  0  0  0  0  0  0  0  0  0  0  0
   38.5660   -2.8974   -5.3535 O   0  0  0  0  0  0  0  0  0  0  0  0
   37.0572   -4.6344   -7.5036 H   0  0  0  0  0  0  0  0  0  0  0  0
   38.6888   -5.2413   -5.5959 C   0  0  0  0  0  0  0  0  0  0  0  0
   37.7179   -6.2473   -5.4427 C   0  0  0  0  0  0  0  0  0  0  0  0
   38.0995   -7.5459   -5.0695 C   0  0  0  0  0  0  0  0  0  0  0  0
   39.4445   -7.8656   -4.8411 C   0  0  0  0  0  0  0  0  0  0  0  0
   40.3957   -6.8665   -4.9927 C   0  0  0  0  0  0  0  0  0  0  0  0
   41.7280   -7.1058   -4.7833 O   0  0  0  0  0  0  0  0  0  0  0  0
   40.0309   -5.5673   -5.3648 C   0  0  0  0  0  0  0  0  0  0  0  0
   41.0379   -4.6417   -5.4823 O   0  0  0  0  0  0  0  0  0  0  0  0
   42.0167   -7.9613   -4.5329 H   0  0  0  0  0  0  0  0  0  0  0  0
   41.9261   -4.8926   -5.3206 H   0  0  0  0  0  0  0  0  0  0  0  0
   37.0768   -8.5887   -4.9148 N   0  0  0  0  0  0  0  0  0  0  0  0
   35.9415   -8.3418   -5.3466 O   0  0  0  0  0  0  0  0  0  0  0  0
   37.4057   -9.6462   -4.3620 O   0  0  0  0  0  0  0  0  0  0  0  0
 17 18  1  0
  3 18  1  0
  3  4  1  0
  4  5  1  0
  4  6  1  0
  6  1  1  0
  1  2  2  0
  2 19  1  0
 19 20  1  0
 20 21  1  0
 21 22  2  0
 21 24  1  0
 24 25  2  0
 25 26  1  0
 26 34  1  0
 34 35  2  0
 34 36  1  0
 26 27  2  0
 27 28  1  0
 28 29  1  0
 28 30  2  0
 30 31  1  0
  6  7  1  0
  7  8  1  0
  8 10  1  0
 10 11  1  0
 11 12  2  0
 12 13  1  0
 13 14  2  0
 13 15  1  0
 15 16  2  0
  8  3  1  0
 16 10  1  0
 30 24  1  0
  5  9  1  0
 20 23  1  0
 29 32  1  0
 31 33  1  0
M  CHG 1  34   1
M  CHG 1  36  -1
M  END
> <minimizedAffinity>
-8.52438

> <CNNscore>
0.4567124844

> <CNNaffinity>
5.8703532219

> <CNN_VS>
2.6810636520

> <CNNaffinity_variance>
0.2176529169

$$$$



 36 38  0  0  0  0  0  0  0  0999 V2000
   40.5149   -2.7043   -9.5382 C   0  0  0  0  0  0  0  0  0  0  0  0
   39.3212   -2.6228   -8.9258 C   0  0  0  0  0  0  0  0  0  0  0  0
   40.5877   -1.6319  -13.1362 C   0  0  0  0  0  0  0  0  0  0  0  0
   40.8900   -1.2860  -11.6872 C   0  0  0  0  0  0  0  0  0  0  0  0
   42.1689   -0.6709  -11.5432 O   0  0  0  0  0  0  0  0  0  0  0  0
   40.7879   -2.6591  -11.0159 C   0  0  0  0  0  0  0  0  0  0  0  0
   39.7004   -3.3341  -11.6727 O   0  0  0  0  0  0  0  0  0  0  0  0
   39.5227   -2.7358  -12.9721 C   0  0  0  0  0  0  0  0  0  0  0  0
   42.8515   -1.2543  -11.9102 H   0  0  0  0  0  0  0  0  0  0  0  0
   38.1536   -2.1970  -13.1475 N   0  0  0  0  0  0  0  0  0  0  0  0
   37.9439   -0.8200  -13.1951 C   0  0  0  0  0  0  0  0  0  0  0  0
   36.7435   -0.2378  -13.3096 C   0  0  0  0  0  0  0  0  0  0  0  0
   35.5494   -1.1115  -13.3925 C   0  0  0  0  0  0  0  0  0  0  0  0
   34.4225   -0.6390  -13.4834 O   0  0  0  0  0  0  0  0  0  0  0  0
   35.7733   -2.5751  -13.3553 C   0  0  0  0  0  0  0  0  0  0  0  0
   37.0315   -3.0175  -13.2365 C   0  0  0  0  0  0  0  0  0  0  0  0
   41.5693   -3.1545  -14.6879 C   0  0  0  0  0  0  0  0  0  0  0  0
   41.8108   -2.1266  -13.7330 O   0  0  0  0  0  0  0  0  0  0  0  0
   39.1386   -2.6710   -7.4419 C   0  0  0  0  0  0  0  0  0  0  0  0
   38.7066   -3.9965   -7.0900 N   0  0  0  0  0  0  0  0  0  0  0  0
   37.3774   -4.3395   -7.0866 C   0  0  0  0  0  0  0  0  0  0  0  0
   36.4917   -3.5822   -7.4708 O   0  0  0  0  0  0  0  0  0  0  0  0
   39.3789   -4.6731   -6.8461 H   0  0  0  0  0  0  0  0  0  0  0  0
   37.0253   -5.7042   -6.5879 C   0  0  0  0  0  0  0  0  0  0  0  0
   37.9468   -6.3351   -5.7330 C   0  0  0  0  0  0  0  0  0  0  0  0
   37.6791   -7.6182   -5.2297 C   0  0  0  0  0  0  0  0  0  0  0  0
   36.4990   -8.2944   -5.5669 C   0  0  0  0  0  0  0  0  0  0  0  0
   35.5962   -7.6653   -6.4126 C   0  0  0  0  0  0  0  0  0  0  0  0
   34.4240   -8.2669   -6.7869 O   0  0  0  0  0  0  0  0  0  0  0  0
   35.8486   -6.3861   -6.9219 C   0  0  0  0  0  0  0  0  0  0  0  0
   34.9035   -5.8454   -7.7580 O   0  0  0  0  0  0  0  0  0  0  0  0
   34.2146   -9.1233   -6.4695 H   0  0  0  0  0  0  0  0  0  0  0  0
   34.1267   -6.3283   -7.9614 H   0  0  0  0  0  0  0  0  0  0  0  0
   38.6480   -8.2660   -4.3359 N   0  0  0  0  0  0  0  0  0  0  0  0
   39.8188   -7.8611   -4.3754 O   0  0  0  0  0  0  0  0  0  0  0  0
   38.2416   -9.1760   -3.6018 O   0  0  0  0  0  0  0  0  0  0  0  0
 17 18  1  0
  3 18  1  0
  3  4  1  0
  4  5  1  0
  4  6  1  0
  6  1  1  0
  1  2  2  0
  2 19  1  0
 19 20  1  0
 20 21  1  0
 21 22  2  0
 21 24  1  0
 24 25  2  0
 25 26  1  0
 26 34  1  0
 34 35  2  0
 34 36  1  0
 26 27  2  0
 27 28  1  0
 28 29  1  0
 28 30  2  0
 30 31  1  0
  6  7  1  0
  7  8  1  0
  8 10  1  0
 10 11  1  0
 11 12  2  0
 12 13  1  0
 13 14  2  0
 13 15  1  0
 15 16  2  0
  8  3  1  0
 16 10  1  0
 30 24  1  0
  5  9  1  0
 20 23  1  0
 29 32  1  0
 31 33  1  0
M  CHG 1  34   1
M  CHG 1  36  -1
M  END
> <minimizedAffinity>
-8.22782

> <CNNscore>
0.4211328030

> <CNNaffinity>
5.4901237488

> <CNN_VS>
2.3120710850

> <CNNaffinity_variance>
0.2734257281

$$$$



 36 38  0  0  0  0  0  0  0  0999 V2000
   40.7145   -3.1801   -7.0655 C   0  0  0  0  0  0  0  0  0  0  0  0
   39.9164   -2.1145   -6.8805 C   0  0  0  0  0  0  0  0  0  0  0  0
   43.9516   -3.1764   -8.9686 C   0  0  0  0  0  0  0  0  0  0  0  0
   42.6153   -2.5007   -8.7075 C   0  0  0  0  0  0  0  0  0  0  0  0
   42.7471   -1.0842   -8.6037 O   0  0  0  0  0  0  0  0  0  0  0  0
   42.1794   -3.1758   -7.4034 C   0  0  0  0  0  0  0  0  0  0  0  0
   42.5963   -4.5480   -7.5166 O   0  0  0  0  0  0  0  0  0  0  0  0
   43.6717   -4.6108   -8.4745 C   0  0  0  0  0  0  0  0  0  0  0  0
   43.3867   -0.8691   -7.9068 H   0  0  0  0  0  0  0  0  0  0  0  0
   43.3529   -5.5185   -9.6014 N   0  0  0  0  0  0  0  0  0  0  0  0
   43.2547   -5.0172  -10.8981 C   0  0  0  0  0  0  0  0  0  0  0  0
   42.9324   -5.7481  -11.9728 C   0  0  0  0  0  0  0  0  0  0  0  0
   42.6598   -7.1916  -11.7787 C   0  0  0  0  0  0  0  0  0  0  0  0
   42.3455   -7.9102  -12.7201 O   0  0  0  0  0  0  0  0  0  0  0  0
   42.7771   -7.7272  -10.4028 C   0  0  0  0  0  0  0  0  0  0  0  0
   43.1072   -6.8778   -9.4217 C   0  0  0  0  0  0  0  0  0  0  0  0
   45.9264   -3.3956   -7.6487 C   0  0  0  0  0  0  0  0  0  0  0  0
   44.9492   -2.4991   -8.1668 O   0  0  0  0  0  0  0  0  0  0  0  0
   38.4630   -2.2086   -6.5395 C   0  0  0  0  0  0  0  0  0  0  0  0
   38.1404   -3.5966   -6.3474 N   0  0  0  0  0  0  0  0  0  0  0  0
   37.0959   -4.1881   -7.0134 C   0  0  0  0  0  0  0  0  0  0  0  0
   36.4405   -3.6100   -7.8748 O   0  0  0  0  0  0  0  0  0  0  0  0
   38.6806   -4.1347   -5.7246 H   0  0  0  0  0  0  0  0  0  0  0  0
   36.7675   -5.6011   -6.6516 C   0  0  0  0  0  0  0  0  0  0  0  0
   37.6565   -6.2685   -5.7901 C   0  0  0  0  0  0  0  0  0  0  0  0
   37.4087   -7.5977   -5.4115 C   0  0  0  0  0  0  0  0  0  0  0  0
   36.2810   -8.2840   -5.8813 C   0  0  0  0  0  0  0  0  0  0  0  0
   35.4100   -7.6184   -6.7325 C   0  0  0  0  0  0  0  0  0  0  0  0
   34.2895   -8.2271   -7.2326 O   0  0  0  0  0  0  0  0  0  0  0  0
   35.6431   -6.2932   -7.1185 C   0  0  0  0  0  0  0  0  0  0  0  0
   34.7330   -5.7179   -7.9701 O   0  0  0  0  0  0  0  0  0  0  0  0
   34.0948   -9.1137   -7.0003 H   0  0  0  0  0  0  0  0  0  0  0  0
   33.9910   -6.2089   -8.2639 H   0  0  0  0  0  0  0  0  0  0  0  0
   38.3431   -8.2836   -4.5095 N   0  0  0  0  0  0  0  0  0  0  0  0
   37.8829   -9.1779   -3.7851 O   0  0  0  0  0  0  0  0  0  0  0  0
   39.5286   -7.9280   -4.5227 O   0  0  0  0  0  0  0  0  0  0  0  0
 17 18  1  0
  3 18  1  0
  3  4  1  0
  4  5  1  0
  4  6  1  0
  6  1  1  0
  1  2  2  0
  2 19  1  0
 19 20  1  0
 20 21  1  0
 21 22  2  0
 21 24  1  0
 24 25  2  0
 25 26  1  0
 26 34  1  0
 34 35  2  0
 34 36  1  0
 26 27  2  0
 27 28  1  0
 28 29  1  0
 28 30  2  0
 30 31  1  0
  6  7  1  0
  7  8  1  0
  8 10  1  0
 10 11  1  0
 11 12  2  0
 12 13  1  0
 13 14  2  0
 13 15  1  0
 15 16  2  0
  8  3  1  0
 16 10  1  0
 30 24  1  0
  5  9  1  0
 20 23  1  0
 29 32  1  0
 31 33  1  0
M  CHG 1  34   1
M  CHG 1  36  -1
M  END
> <minimizedAffinity>
-6.71038

> <CNNscore>
0.3924401104

> <CNNaffinity>
5.6937618256

> <CNN_VS>
2.2344605923

> <CNNaffinity_variance>
0.1752557606

$$$$



 36 38  0  0  0  0  0  0  0  0999 V2000
   38.8699   -0.9076  -13.4781 C   0  0  0  0  0  0  0  0  0  0  0  0
   40.1322   -1.2705  -13.1929 C   0  0  0  0  0  0  0  0  0  0  0  0
   35.2725   -1.8327  -12.9273 C   0  0  0  0  0  0  0  0  0  0  0  0
   36.4987   -1.9227  -13.8211 C   0  0  0  0  0  0  0  0  0  0  0  0
   36.6969   -3.2441  -14.3204 O   0  0  0  0  0  0  0  0  0  0  0  0
   37.6051   -1.4501  -12.8730 C   0  0  0  0  0  0  0  0  0  0  0  0
   37.0210   -0.3966  -12.0866 O   0  0  0  0  0  0  0  0  0  0  0  0
   35.5902   -0.5722  -12.0967 C   0  0  0  0  0  0  0  0  0  0  0  0
   36.7631   -3.8640  -13.5772 H   0  0  0  0  0  0  0  0  0  0  0  0
   34.8931    0.6197  -12.6341 N   0  0  0  0  0  0  0  0  0  0  0  0
   35.2124    1.8907  -12.1598 C   0  0  0  0  0  0  0  0  0  0  0  0
   34.6116    3.0212  -12.5524 C   0  0  0  0  0  0  0  0  0  0  0  0
   33.5310    2.9229  -13.5616 C   0  0  0  0  0  0  0  0  0  0  0  0
   32.9330    3.9193  -13.9502 O   0  0  0  0  0  0  0  0  0  0  0  0
   33.2006    1.5736  -14.0755 C   0  0  0  0  0  0  0  0  0  0  0  0
   33.8846    0.5296  -13.5908 C   0  0  0  0  0  0  0  0  0  0  0  0
   35.5926   -2.7853  -10.7640 C   0  0  0  0  0  0  0  0  0  0  0  0
   35.2308   -3.0331  -12.1185 O   0  0  0  0  0  0  0  0  0  0  0  0
   41.3402   -0.6723  -13.8414 C   0  0  0  0  0  0  0  0  0  0  0  0
   42.0945   -1.7377  -14.4445 N   0  0  0  0  0  0  0  0  0  0  0  0
   43.4045   -1.5662  -14.8170 C   0  0  0  0  0  0  0  0  0  0  0  0
   44.0385   -0.5436  -14.5762 O   0  0  0  0  0  0  0  0  0  0  0  0
   41.6618   -2.6094  -14.5934 H   0  0  0  0  0  0  0  0  0  0  0  0
   44.0607   -2.6944  -15.5462 C   0  0  0  0  0  0  0  0  0  0  0  0
   44.7290   -2.3848  -16.7443 C   0  0  0  0  0  0  0  0  0  0  0  0
   45.3652   -3.3974  -17.4800 C   0  0  0  0  0  0  0  0  0  0  0  0
   45.3468   -4.7283  -17.0420 C   0  0  0  0  0  0  0  0  0  0  0  0
   44.6834   -5.0253  -15.8597 C   0  0  0  0  0  0  0  0  0  0  0  0
   44.6221   -6.3039  -15.3724 O   0  0  0  0  0  0  0  0  0  0  0  0
   44.0450   -4.0267  -15.1149 C   0  0  0  0  0  0  0  0  0  0  0  0
   43.4064   -4.4139  -13.9631 O   0  0  0  0  0  0  0  0  0  0  0  0
   45.0357   -7.0034  -15.8389 H   0  0  0  0  0  0  0  0  0  0  0  0
   43.4149   -5.3139  -13.7026 H   0  0  0  0  0  0  0  0  0  0  0  0
   46.0619   -3.0615  -18.7286 N   0  0  0  0  0  0  0  0  0  0  0  0
   45.4079   -3.1214  -19.7798 O   0  0  0  0  0  0  0  0  0  0  0  0
   47.2561   -2.7435  -18.6590 O   0  0  0  0  0  0  0  0  0  0  0  0
 17 18  1  0
  3 18  1  0
  3  4  1  0
  4  5  1  0
  4  6  1  0
  6  1  1  0
  1  2  2  0
  2 19  1  0
 19 20  1  0
 20 21  1  0
 21 22  2  0
 21 24  1  0
 24 25  2  0
 25 26  1  0
 26 34  1  0
 34 35  2  0
 34 36  1  0
 26 27  2  0
 27 28  1  0
 28 29  1  0
 28 30  2  0
 30 31  1  0
  6  7  1  0
  7  8  1  0
  8 10  1  0
 10 11  1  0
 11 12  2  0
 12 13  1  0
 13 14  2  0
 13 15  1  0
 15 16  2  0
  8  3  1  0
 16 10  1  0
 30 24  1  0
  5  9  1  0
 20 23  1  0
 29 32  1  0
 31 33  1  0
M  CHG 1  34   1
M  CHG 1  36  -1
M  END
> <minimizedAffinity>
-7.51107

> <CNNscore>
0.3783870637

> <CNNaffinity>
5.3480668068

> <CNN_VS>
2.0236392021

> <CNNaffinity_variance>
0.9663957953

$$$$
