


 19 20  0  0  0  0  0  0  0  0999 V2000
   59.5341   27.9273  106.7887 C   0  0  0  0  0  0  0  0  0  0  0  0
   58.4127   28.6835  107.1362 C   0  0  0  0  0  0  0  0  0  0  0  0
   58.2628   29.2016  108.4339 C   0  0  0  0  0  0  0  0  0  0  0  0
   59.3053   28.9301  109.3409 C   0  0  0  0  0  0  0  0  0  0  0  0
   59.2106   29.5627  111.1392 Br  0  0  0  0  0  0  0  0  0  0  0  0
   60.4121   28.2151  109.0371 N   0  0  0  0  0  0  0  0  0  0  0  0
   60.5050   27.7348  107.7768 C   0  0  0  0  0  0  0  0  0  0  0  0
   62.0844   26.7351  107.3966 Br  0  0  0  0  0  0  0  0  0  0  0  0
   57.1395   29.9878  108.7898 N   0  0  0  0  0  0  0  0  0  0  0  0
   57.1870   31.3035  108.1329 C   0  0  0  0  0  0  0  0  0  0  0  0
   56.2189   32.3043  108.7616 C   0  0  0  0  0  0  0  0  0  0  0  0
   54.7621   32.0293  108.3912 C   0  0  0  0  0  0  0  0  0  0  0  0
   54.0485   31.0444  109.1955 N   0  0  0  0  0  0  0  0  0  0  0  0
   54.8308   29.9132  109.7001 C   0  0  0  0  0  0  0  0  0  0  0  0
   55.8504   29.2737  108.7361 C   0  0  0  0  0  0  0  0  0  0  0  0
   53.2935   30.6667  108.6230 H   0  0  0  0  0  0  0  0  0  0  0  0
   59.7651   27.4016  105.5480 O   0  0  0  0  0  0  0  0  0  0  0  0
   59.4314   27.1677  103.1645 C   0  0  0  0  0  0  0  0  0  0  0  0
   58.9751   27.8434  104.4454 C   0  0  0  0  0  0  0  0  0  0  0  0
 18 19  1  0
 19 17  1  0
 17  1  1  0
  1  2  2  0
  2  3  1  0
  3  9  1  0
  9 10  1  0
 10 11  1  0
 11 12  1  0
 12 13  1  0
 13 14  1  0
 14 15  1  0
  3  4  2  0
  4  5  1  0
  4  6  1  0
  6  7  2  0
  7  8  1  0
  7  1  1  0
 15  9  1  0
 13 16  1  0
M  END
> <minimizedAffinity>
-4.56783

> <CNNscore>
0.5689697266

> <CNNaffinity>
5.0079312325

> <CNN_VS>
2.8493611813

> <CNNaffinity_variance>
0.0179981161

$$$$



 19 20  0  0  0  0  0  0  0  0999 V2000
   61.6534   28.4780  106.1771 C   0  0  0  0  0  0  0  0  0  0  0  0
   62.5137   29.4498  106.6923 C   0  0  0  0  0  0  0  0  0  0  0  0
   62.9337   30.5356  105.9052 C   0  0  0  0  0  0  0  0  0  0  0  0
   62.4267   30.5906  104.5925 C   0  0  0  0  0  0  0  0  0  0  0  0
   62.9373   32.0059  103.4181 Br  0  0  0  0  0  0  0  0  0  0  0  0
   61.5811   29.6773  104.0638 N   0  0  0  0  0  0  0  0  0  0  0  0
   61.2121   28.6497  104.8610 C   0  0  0  0  0  0  0  0  0  0  0  0
   60.0176   27.3896  104.0713 Br  0  0  0  0  0  0  0  0  0  0  0  0
   63.7888   31.5377  106.4257 N   0  0  0  0  0  0  0  0  0  0  0  0
   63.3097   32.0134  107.7331 C   0  0  0  0  0  0  0  0  0  0  0  0
   63.9692   33.3258  108.1534 C   0  0  0  0  0  0  0  0  0  0  0  0
   65.4164   33.1405  108.6076 C   0  0  0  0  0  0  0  0  0  0  0  0
   66.4394   33.1199  107.5688 N   0  0  0  0  0  0  0  0  0  0  0  0
   66.0640   32.5217  106.2852 C   0  0  0  0  0  0  0  0  0  0  0  0
   65.2271   31.2273  106.3272 C   0  0  0  0  0  0  0  0  0  0  0  0
   67.2371   32.5976  107.9313 H   0  0  0  0  0  0  0  0  0  0  0  0
   61.1848   27.4019  106.8781 O   0  0  0  0  0  0  0  0  0  0  0  0
   61.6561   27.1256  109.2337 C   0  0  0  0  0  0  0  0  0  0  0  0
   62.0431   26.7518  107.8138 C   0  0  0  0  0  0  0  0  0  0  0  0
 18 19  1  0
 19 17  1  0
 17  1  1  0
  1  2  2  0
  2  3  1  0
  3  9  1  0
  9 10  1  0
 10 11  1  0
 11 12  1  0
 12 13  1  0
 13 14  1  0
 14 15  1  0
  3  4  2  0
  4  5  1  0
  4  6  1  0
  6  7  2  0
  7  8  1  0
  7  1  1  0
 15  9  1  0
 13 16  1  0
M  END
> <minimizedAffinity>
-4.42181

> <CNNscore>
0.5675371289

> <CNNaffinity>
4.1572861671

> <CNN_VS>
2.3594143391

> <CNNaffinity_variance>
0.7422805429

$$$$



 19 20  0  0  0  0  0  0  0  0999 V2000
   61.1419   29.4129  107.8517 C   0  0  0  0  0  0  0  0  0  0  0  0
   60.1426   30.3437  108.1434 C   0  0  0  0  0  0  0  0  0  0  0  0
   58.8010   29.9474  108.2776 C   0  0  0  0  0  0  0  0  0  0  0  0
   58.5351   28.5735  108.1201 C   0  0  0  0  0  0  0  0  0  0  0  0
   56.7501   27.9126  108.2600 Br  0  0  0  0  0  0  0  0  0  0  0  0
   59.4774   27.6413  107.8521 N   0  0  0  0  0  0  0  0  0  0  0  0
   60.7516   28.0756  107.7275 C   0  0  0  0  0  0  0  0  0  0  0  0
   62.0437   26.7238  107.3518 Br  0  0  0  0  0  0  0  0  0  0  0  0
   57.7837   30.8806  108.5947 N   0  0  0  0  0  0  0  0  0  0  0  0
   57.8044   31.2175  110.0269 C   0  0  0  0  0  0  0  0  0  0  0  0
   56.5226   31.9141  110.4805 C   0  0  0  0  0  0  0  0  0  0  0  0
   56.4407   33.3654  110.0093 C   0  0  0  0  0  0  0  0  0  0  0  0
   55.9265   33.5975  108.6647 N   0  0  0  0  0  0  0  0  0  0  0  0
   56.2459   32.5874  107.6529 C   0  0  0  0  0  0  0  0  0  0  0  0
   57.6769   32.0128  107.6558 C   0  0  0  0  0  0  0  0  0  0  0  0
   56.3016   34.4889  108.3403 H   0  0  0  0  0  0  0  0  0  0  0  0
   62.4697   29.7109  107.7209 O   0  0  0  0  0  0  0  0  0  0  0  0
   64.4058   30.6926  106.6555 C   0  0  0  0  0  0  0  0  0  0  0  0
   62.9152   30.4179  106.5648 C   0  0  0  0  0  0  0  0  0  0  0  0
 18 19  1  0
 19 17  1  0
 17  1  1  0
  1  2  2  0
  2  3  1  0
  3  9  1  0
  9 10  1  0
 10 11  1  0
 11 12  1  0
 12 13  1  0
 13 14  1  0
 14 15  1  0
  3  4  2  0
  4  5  1  0
  4  6  1  0
  6  7  2  0
  7  8  1  0
  7  1  1  0
 15  9  1  0
 13 16  1  0
M  END
> <minimizedAffinity>
-3.83228

> <CNNscore>
0.4023867846

> <CNNaffinity>
4.4581432343

> <CNN_VS>
1.7938978672

> <CNNaffinity_variance>
0.3516714871

$$$$



 19 20  0  0  0  0  0  0  0  0999 V2000
   61.1659   28.5602  105.8068 C   0  0  0  0  0  0  0  0  0  0  0  0
   61.4526   29.6497  104.9817 C   0  0  0  0  0  0  0  0  0  0  0  0
   62.4624   30.5671  105.3186 C   0  0  0  0  0  0  0  0  0  0  0  0
   63.1672   30.3127  106.5110 C   0  0  0  0  0  0  0  0  0  0  0  0
   64.5494   31.4958  107.0875 Br  0  0  0  0  0  0  0  0  0  0  0  0
   62.9283   29.2613  107.3272 N   0  0  0  0  0  0  0  0  0  0  0  0
   61.9429   28.4116  106.9602 C   0  0  0  0  0  0  0  0  0  0  0  0
   61.6455   26.9443  108.1421 Br  0  0  0  0  0  0  0  0  0  0  0  0
   62.7750   31.6630  104.4773 N   0  0  0  0  0  0  0  0  0  0  0  0
   62.4742   32.9409  105.1417 C   0  0  0  0  0  0  0  0  0  0  0  0
   62.4408   34.1133  104.1627 C   0  0  0  0  0  0  0  0  0  0  0  0
   63.8343   34.5354  103.6992 C   0  0  0  0  0  0  0  0  0  0  0  0
   64.4124   33.7986  102.5816 N   0  0  0  0  0  0  0  0  0  0  0  0
   64.0856   32.3733  102.4918 C   0  0  0  0  0  0  0  0  0  0  0  0
   64.0839   31.5650  103.8050 C   0  0  0  0  0  0  0  0  0  0  0  0
   65.4269   33.8790  102.6504 H   0  0  0  0  0  0  0  0  0  0  0  0
   60.2137   27.6146  105.5457 O   0  0  0  0  0  0  0  0  0  0  0  0
   59.3435   26.9482  103.3903 C   0  0  0  0  0  0  0  0  0  0  0  0
   60.4032   26.7174  104.4530 C   0  0  0  0  0  0  0  0  0  0  0  0
 18 19  1  0
 19 17  1  0
 17  1  1  0
  1  2  2  0
  2  3  1  0
  3  9  1  0
  9 10  1  0
 10 11  1  0
 11 12  1  0
 12 13  1  0
 13 14  1  0
 14 15  1  0
  3  4  2  0
  4  5  1  0
  4  6  1  0
  6  7  2  0
  7  8  1  0
  7  1  1  0
 15  9  1  0
 13 16  1  0
M  END
> <minimizedAffinity>
-4.04425

> <CNNscore>
0.4007504582

> <CNNaffinity>
4.4470238686

> <CNN_VS>
1.7821468115

> <CNNaffinity_variance>
0.4228632450

$$$$



 19 20  0  0  0  0  0  0  0  0999 V2000
   60.6301   28.3629  106.0500 C   0  0  0  0  0  0  0  0  0  0  0  0
   61.3201   29.2808  106.8447 C   0  0  0  0  0  0  0  0  0  0  0  0
   62.2000   30.2156  106.2731 C   0  0  0  0  0  0  0  0  0  0  0  0
   62.3260   30.1811  104.8709 C   0  0  0  0  0  0  0  0  0  0  0  0
   63.5042   31.3873  103.9767 Br  0  0  0  0  0  0  0  0  0  0  0  0
   61.6638   29.3178  104.0678 N   0  0  0  0  0  0  0  0  0  0  0  0
   60.8337   28.4356  104.6682 C   0  0  0  0  0  0  0  0  0  0  0  0
   59.9215   27.2410  103.4939 Br  0  0  0  0  0  0  0  0  0  0  0  0
   62.8877   31.1646  107.0687 N   0  0  0  0  0  0  0  0  0  0  0  0
   64.3297   30.8746  107.1075 C   0  0  0  0  0  0  0  0  0  0  0  0
   65.0459   31.6274  108.2275 C   0  0  0  0  0  0  0  0  0  0  0  0
   65.2229   33.1138  107.9207 C   0  0  0  0  0  0  0  0  0  0  0  0
   64.1028   33.9932  108.2341 N   0  0  0  0  0  0  0  0  0  0  0  0
   62.7589   33.4352  108.0648 C   0  0  0  0  0  0  0  0  0  0  0  0
   62.5070   32.5667  106.8158 C   0  0  0  0  0  0  0  0  0  0  0  0
   64.1753   34.8125  107.6309 H   0  0  0  0  0  0  0  0  0  0  0  0
   59.7458   27.4335  106.5225 O   0  0  0  0  0  0  0  0  0  0  0  0
   57.7468   27.8805  107.8075 C   0  0  0  0  0  0  0  0  0  0  0  0
   59.2325   27.5693  107.8465 C   0  0  0  0  0  0  0  0  0  0  0  0
 18 19  1  0
 19 17  1  0
 17  1  1  0
  1  2  2  0
  2  3  1  0
  3  9  1  0
  9 10  1  0
 10 11  1  0
 11 12  1  0
 12 13  1  0
 13 14  1  0
 14 15  1  0
  3  4  2  0
  4  5  1  0
  4  6  1  0
  6  7  2  0
  7  8  1  0
  7  1  1  0
 15  9  1  0
 13 16  1  0
M  END
> <minimizedAffinity>
-4.18724

> <CNNscore>
0.3813389540

> <CNNaffinity>
4.3856739998

> <CNN_VS>
1.6724283695

> <CNNaffinity_variance>
0.2419949770

$$$$



 19 20  0  0  0  0  0  0  0  0999 V2000
   60.3675   28.9550  108.8502 C   0  0  0  0  0  0  0  0  0  0  0  0
   61.1547   29.3042  109.9495 C   0  0  0  0  0  0  0  0  0  0  0  0
   60.5783   29.5242  111.2120 C   0  0  0  0  0  0  0  0  0  0  0  0
   59.1830   29.3557  111.3014 C   0  0  0  0  0  0  0  0  0  0  0  0
   58.2791   29.6442  112.9575 Br  0  0  0  0  0  0  0  0  0  0  0  0
   58.3904   29.0043  110.2637 N   0  0  0  0  0  0  0  0  0  0  0  0
   58.9939   28.8096  109.0697 C   0  0  0  0  0  0  0  0  0  0  0  0
   57.8347   28.3137  107.6383 Br  0  0  0  0  0  0  0  0  0  0  0  0
   61.3710   29.8575  112.3377 N   0  0  0  0  0  0  0  0  0  0  0  0
   61.7892   28.6488  113.0651 C   0  0  0  0  0  0  0  0  0  0  0  0
   62.3178   28.9635  114.4635 C   0  0  0  0  0  0  0  0  0  0  0  0
   63.7123   29.5877  114.4410 C   0  0  0  0  0  0  0  0  0  0  0  0
   63.7898   31.0296  114.2380 N   0  0  0  0  0  0  0  0  0  0  0  0
   62.7800   31.6273  113.3610 C   0  0  0  0  0  0  0  0  0  0  0  0
   62.4198   30.8598  112.0729 C   0  0  0  0  0  0  0  0  0  0  0  0
   64.7059   31.2366  113.8402 H   0  0  0  0  0  0  0  0  0  0  0  0
   60.8486   28.7079  107.5946 O   0  0  0  0  0  0  0  0  0  0  0  0
   62.1253   26.6657  107.3791 C   0  0  0  0  0  0  0  0  0  0  0  0
   62.1660   28.1822  107.4436 C   0  0  0  0  0  0  0  0  0  0  0  0
 18 19  1  0
 19 17  1  0
 17  1  1  0
  1  2  2  0
  2  3  1  0
  3  9  1  0
  9 10  1  0
 10 11  1  0
 11 12  1  0
 12 13  1  0
 13 14  1  0
 14 15  1  0
  3  4  2  0
  4  5  1  0
  4  6  1  0
  6  7  2  0
  7  8  1  0
  7  1  1  0
 15  9  1  0
 13 16  1  0
M  END
> <minimizedAffinity>
-3.90570

> <CNNscore>
0.3431879580

> <CNNaffinity>
4.1251091957

> <CNN_VS>
1.4156877995

> <CNNaffinity_variance>
0.4429233968

$$$$



 19 20  0  0  0  0  0  0  0  0999 V2000
   60.2782   28.8289  104.6658 C   0  0  0  0  0  0  0  0  0  0  0  0
   59.7210   29.9906  105.2045 C   0  0  0  0  0  0  0  0  0  0  0  0
   59.5350   30.1290  106.5905 C   0  0  0  0  0  0  0  0  0  0  0  0
   59.9555   29.0485  107.3898 C   0  0  0  0  0  0  0  0  0  0  0  0
   59.7393   29.1072  109.2852 Br  0  0  0  0  0  0  0  0  0  0  0  0
   60.5122   27.9149  106.9062 N   0  0  0  0  0  0  0  0  0  0  0  0
   60.6640   27.8299  105.5655 C   0  0  0  0  0  0  0  0  0  0  0  0
   61.4552   26.2139  104.9326 Br  0  0  0  0  0  0  0  0  0  0  0  0
   58.9907   31.3120  107.1479 N   0  0  0  0  0  0  0  0  0  0  0  0
   57.7127   31.0375  107.8234 C   0  0  0  0  0  0  0  0  0  0  0  0
   56.9187   32.3111  108.1088 C   0  0  0  0  0  0  0  0  0  0  0  0
   57.5016   33.1241  109.2639 C   0  0  0  0  0  0  0  0  0  0  0  0
   58.5909   34.0399  108.9464 N   0  0  0  0  0  0  0  0  0  0  0  0
   59.5197   33.6203  107.8939 C   0  0  0  0  0  0  0  0  0  0  0  0
   59.9591   32.1422  107.8879 C   0  0  0  0  0  0  0  0  0  0  0  0
   59.1334   34.1817  109.7984 H   0  0  0  0  0  0  0  0  0  0  0  0
   60.5081   28.6201  103.3345 O   0  0  0  0  0  0  0  0  0  0  0  0
   59.0170   27.1793  102.0904 C   0  0  0  0  0  0  0  0  0  0  0  0
   59.4051   28.6074  102.4300 C   0  0  0  0  0  0  0  0  0  0  0  0
 18 19  1  0
 19 17  1  0
 17  1  1  0
  1  2  2  0
  2  3  1  0
  3  9  1  0
  9 10  1  0
 10 11  1  0
 11 12  1  0
 12 13  1  0
 13 14  1  0
 14 15  1  0
  3  4  2  0
  4  5  1  0
  4  6  1  0
  6  7  2  0
  7  8  1  0
  7  1  1  0
 15  9  1  0
 13 16  1  0
M  END
> <minimizedAffinity>
-3.65462

> <CNNscore>
0.3382452726

> <CNNaffinity>
4.4727978706

> <CNN_VS>
1.5129027367

> <CNNaffinity_variance>
0.2210660428

$$$$



 19 20  0  0  0  0  0  0  0  0999 V2000
   58.5965   29.9918  107.6887 C   0  0  0  0  0  0  0  0  0  0  0  0
   59.8278   30.4143  107.1831 C   0  0  0  0  0  0  0  0  0  0  0  0
   60.8910   29.5104  107.0176 C   0  0  0  0  0  0  0  0  0  0  0  0
   60.6353   28.1713  107.3705 C   0  0  0  0  0  0  0  0  0  0  0  0
   62.0045   26.8514  107.2094 Br  0  0  0  0  0  0  0  0  0  0  0  0
   59.4528   27.7223  107.8489 N   0  0  0  0  0  0  0  0  0  0  0  0
   58.4645   28.6333  107.9941 C   0  0  0  0  0  0  0  0  0  0  0  0
   56.8162   27.9515  108.6697 Br  0  0  0  0  0  0  0  0  0  0  0  0
   62.1365   29.9251  106.4854 N   0  0  0  0  0  0  0  0  0  0  0  0
   61.9548   30.6379  105.2111 C   0  0  0  0  0  0  0  0  0  0  0  0
   63.2594   30.7734  104.4276 C   0  0  0  0  0  0  0  0  0  0  0  0
   64.2011   31.8180  105.0249 C   0  0  0  0  0  0  0  0  0  0  0  0
   65.0639   31.3847  106.1176 N   0  0  0  0  0  0  0  0  0  0  0  0
   64.5138   30.3840  107.0353 C   0  0  0  0  0  0  0  0  0  0  0  0
   63.0426   30.5529  107.4650 C   0  0  0  0  0  0  0  0  0  0  0  0
   65.3033   32.2096  106.6678 H   0  0  0  0  0  0  0  0  0  0  0  0
   57.5083   30.8002  107.8653 O   0  0  0  0  0  0  0  0  0  0  0  0
   56.0776   31.8268  109.5226 C   0  0  0  0  0  0  0  0  0  0  0  0
   57.4851   31.7080  108.9654 C   0  0  0  0  0  0  0  0  0  0  0  0
 18 19  1  0
 19 17  1  0
 17  1  1  0
  1  2  2  0
  2  3  1  0
  3  9  1  0
  9 10  1  0
 10 11  1  0
 11 12  1  0
 12 13  1  0
 13 14  1  0
 14 15  1  0
  3  4  2  0
  4  5  1  0
  4  6  1  0
  6  7  2  0
  7  8  1  0
  7  1  1  0
 15  9  1  0
 13 16  1  0
M  END
> <minimizedAffinity>
-4.11393

> <CNNscore>
0.3375948370

> <CNNaffinity>
4.4579987526

> <CNN_VS>
1.5049973726

> <CNNaffinity_variance>
0.1413018554

$$$$



 19 20  0  0  0  0  0  0  0  0999 V2000
   60.1431   28.7387  107.4176 C   0  0  0  0  0  0  0  0  0  0  0  0
   60.0394   29.7438  106.4536 C   0  0  0  0  0  0  0  0  0  0  0  0
   61.1643   30.4884  106.0601 C   0  0  0  0  0  0  0  0  0  0  0  0
   62.3853   30.1507  106.6752 C   0  0  0  0  0  0  0  0  0  0  0  0
   63.9820   31.1013  106.2396 Br  0  0  0  0  0  0  0  0  0  0  0  0
   62.5276   29.1751  107.6007 N   0  0  0  0  0  0  0  0  0  0  0  0
   61.4136   28.4923  107.9480 C   0  0  0  0  0  0  0  0  0  0  0  0
   61.6656   27.1257  109.2547 Br  0  0  0  0  0  0  0  0  0  0  0  0
   61.0732   31.4950  105.0676 N   0  0  0  0  0  0  0  0  0  0  0  0
   61.1777   32.8357  105.6647 C   0  0  0  0  0  0  0  0  0  0  0  0
   60.7202   33.9366  104.7094 C   0  0  0  0  0  0  0  0  0  0  0  0
   61.7323   34.2126  103.5984 C   0  0  0  0  0  0  0  0  0  0  0  0
   61.6722   33.3564  102.4197 N   0  0  0  0  0  0  0  0  0  0  0  0
   61.2899   31.9592  102.6382 C   0  0  0  0  0  0  0  0  0  0  0  0
   61.8913   31.2462  103.8661 C   0  0  0  0  0  0  0  0  0  0  0  0
   62.5965   33.3598  101.9882 H   0  0  0  0  0  0  0  0  0  0  0  0
   59.1048   27.9587  107.8444 O   0  0  0  0  0  0  0  0  0  0  0  0
   56.7274   27.8755  108.2782 C   0  0  0  0  0  0  0  0  0  0  0  0
   58.0481   28.5540  108.5955 C   0  0  0  0  0  0  0  0  0  0  0  0
 18 19  1  0
 19 17  1  0
 17  1  1  0
  1  2  2  0
  2  3  1  0
  3  9  1  0
  9 10  1  0
 10 11  1  0
 11 12  1  0
 12 13  1  0
 13 14  1  0
 14 15  1  0
  3  4  2  0
  4  5  1  0
  4  6  1  0
  6  7  2  0
  7  8  1  0
  7  1  1  0
 15  9  1  0
 13 16  1  0
M  END
> <minimizedAffinity>
-3.66257

> <CNNscore>
0.2989986837

> <CNNaffinity>
4.2259774208

> <CNN_VS>
1.2635617256

> <CNNaffinity_variance>
0.1568353772

$$$$
