


 26 27  0  0  0  0  0  0  0  0999 V2000
  -10.4714   14.7890   20.6263 C   0  0  0  0  0  0  0  0  0  0  0  0
   -9.0692   14.1962   20.4211 C   0  0  0  0  0  0  0  0  0  0  0  0
   -8.3854   14.7607   19.2924 O   0  0  0  0  0  0  0  0  0  0  0  0
   -7.1322   15.3563   19.7320 C   0  0  0  0  0  0  0  0  0  0  0  0
   -7.2738   15.5166   21.2444 C   0  0  0  0  0  0  0  0  0  0  0  0
   -8.1856   14.3817   21.6479 C   0  0  0  0  0  0  0  0  0  0  0  0
   -8.8771   14.7146   22.8433 O   0  0  0  0  0  0  0  0  0  0  0  0
  -10.0803   13.9677   23.0289 C   0  0  0  0  0  0  0  0  0  0  0  0
  -11.0852   14.0818   21.8583 C   0  0  0  0  0  0  0  0  0  0  0  0
   -6.9622   16.7084   19.0226 C   0  0  0  0  0  0  0  0  0  0  0  0
   -6.4554   17.7203   19.4856 O   0  0  0  0  0  0  0  0  0  0  0  0
   -7.4669   16.7260   17.7695 O   0  0  0  0  0  0  0  0  0  0  0  0
   -7.8563   15.9531   17.4103 H   0  0  0  0  0  0  0  0  0  0  0  0
   -9.0821   16.7054   20.9407 C   0  0  0  0  0  0  0  0  0  0  0  0
  -10.4102   16.2084   20.8487 O   0  0  0  0  0  0  0  0  0  0  0  0
  -12.2918   14.6939   22.3436 O   0  0  0  0  0  0  0  0  0  0  0  0
  -12.0920   15.9566   22.9600 C   0  0  0  0  0  0  0  0  0  0  0  0
   -6.0298   14.3644   19.3048 C   0  0  0  0  0  0  0  0  0  0  0  0
   -5.4770   14.5323   17.8827 C   0  0  0  0  0  0  0  0  0  0  0  0
   -5.6535   13.2842   17.1037 N   0  0  0  0  0  0  0  0  0  0  0  0
   -5.1392   12.5270   17.5536 H   0  0  0  0  0  0  0  0  0  0  0  0
   -5.2984   13.4210   16.1573 H   0  0  0  0  0  0  0  0  0  0  0  0
   -3.9926   14.9359   17.9350 C   0  0  0  0  0  0  0  0  0  0  0  0
   -3.5495   16.0380   18.2160 O   0  0  0  0  0  0  0  0  0  0  0  0
   -3.1494   13.9377   17.5862 O   0  0  0  0  0  0  0  0  0  0  0  0
   -3.4890   13.0915   17.3703 H   0  0  0  0  0  0  0  0  0  0  0  0
 14 15  1  0
  1 15  1  0
  1  2  1  0
  2  3  1  0
  3  4  1  0
  4 18  1  0
 18 19  1  0
 19 20  1  0
 19 23  1  0
 23 24  2  0
 23 25  1  0
  4 10  1  0
 10 11  2  0
 10 12  1  0
  4  5  1  0
  6  5  1  0
  6  7  1  0
  7  8  1  0
  8  9  1  0
  9 16  1  0
 16 17  1  0
  9  1  1  0
  6  2  1  0
 20 21  1  0
 20 22  1  0
 25 26  1  0
 12 13  1  0
M  END
> <minimizedAffinity>
-6.27748

> <CNNscore>
0.9091019630

> <CNNaffinity>
6.9118161201

> <CNN_VS>
6.2835454941

> <CNNaffinity_variance>
0.6724963188

$$$$



 26 27  0  0  0  0  0  0  0  0999 V2000
  -10.4376   14.8414   20.2534 C   0  0  0  0  0  0  0  0  0  0  0  0
   -9.0478   14.9411   19.6067 C   0  0  0  0  0  0  0  0  0  0  0  0
   -8.6069   16.2969   19.4400 O   0  0  0  0  0  0  0  0  0  0  0  0
   -7.3476   16.4881   20.1441 C   0  0  0  0  0  0  0  0  0  0  0  0
   -7.2473   15.3108   21.1121 C   0  0  0  0  0  0  0  0  0  0  0  0
   -7.9892   14.1974   20.4107 C   0  0  0  0  0  0  0  0  0  0  0  0
   -8.4955   13.2739   21.3640 O   0  0  0  0  0  0  0  0  0  0  0  0
   -9.5900   12.4973   20.8751 C   0  0  0  0  0  0  0  0  0  0  0  0
  -10.7815   13.3361   20.3557 C   0  0  0  0  0  0  0  0  0  0  0  0
   -7.4025   17.8357   20.8797 C   0  0  0  0  0  0  0  0  0  0  0  0
   -8.3574   18.5967   20.9448 O   0  0  0  0  0  0  0  0  0  0  0  0
   -6.2375   18.1716   21.4757 O   0  0  0  0  0  0  0  0  0  0  0  0
   -5.5030   17.5917   21.4286 H   0  0  0  0  0  0  0  0  0  0  0  0
  -11.5148   16.3653   21.7429 C   0  0  0  0  0  0  0  0  0  0  0  0
  -10.4496   15.4428   21.5596 O   0  0  0  0  0  0  0  0  0  0  0  0
  -11.9340   13.0529   21.1668 O   0  0  0  0  0  0  0  0  0  0  0  0
  -11.6517   12.2774   22.3215 C   0  0  0  0  0  0  0  0  0  0  0  0
   -6.2588   16.4981   19.0505 C   0  0  0  0  0  0  0  0  0  0  0  0
   -5.8487   15.1309   18.4859 C   0  0  0  0  0  0  0  0  0  0  0  0
   -6.0802   14.0626   19.4863 N   0  0  0  0  0  0  0  0  0  0  0  0
   -5.5131   14.2438   20.3145 H   0  0  0  0  0  0  0  0  0  0  0  0
   -5.8205   13.1607   19.0870 H   0  0  0  0  0  0  0  0  0  0  0  0
   -4.3727   15.1581   18.0503 C   0  0  0  0  0  0  0  0  0  0  0  0
   -3.5857   16.0774   18.2097 O   0  0  0  0  0  0  0  0  0  0  0  0
   -3.9821   14.0400   17.3973 O   0  0  0  0  0  0  0  0  0  0  0  0
   -4.5859   13.3340   17.2747 H   0  0  0  0  0  0  0  0  0  0  0  0
 14 15  1  0
  1 15  1  0
  1  2  1  0
  2  3  1  0
  3  4  1  0
  4 18  1  0
 18 19  1  0
 19 20  1  0
 19 23  1  0
 23 24  2  0
 23 25  1  0
  4 10  1  0
 10 11  2  0
 10 12  1  0
  4  5  1  0
  6  5  1  0
  6  7  1  0
  7  8  1  0
  8  9  1  0
  9 16  1  0
 16 17  1  0
  9  1  1  0
  6  2  1  0
 20 21  1  0
 20 22  1  0
 25 26  1  0
 12 13  1  0
M  END
> <minimizedAffinity>
-7.05361

> <CNNscore>
0.8104898334

> <CNNaffinity>
6.3126430511

> <CNN_VS>
5.1163330078

> <CNNaffinity_variance>
0.3617505729

$$$$



 26 27  0  0  0  0  0  0  0  0999 V2000
   -9.8112   12.5498   21.4300 C   0  0  0  0  0  0  0  0  0  0  0  0
   -8.7577   13.6678   21.4256 C   0  0  0  0  0  0  0  0  0  0  0  0
   -7.5112   13.2565   20.8448 O   0  0  0  0  0  0  0  0  0  0  0  0
   -7.1892   14.1240   19.7214 C   0  0  0  0  0  0  0  0  0  0  0  0
   -8.5015   14.8188   19.3630 C   0  0  0  0  0  0  0  0  0  0  0  0
   -9.2402   14.9041   20.6780 C   0  0  0  0  0  0  0  0  0  0  0  0
  -10.6407   14.9596   20.4467 O   0  0  0  0  0  0  0  0  0  0  0  0
  -11.4180   14.5492   21.5726 C   0  0  0  0  0  0  0  0  0  0  0  0
  -11.0839   13.1306   22.0913 C   0  0  0  0  0  0  0  0  0  0  0  0
   -6.6655   13.2524   18.5697 C   0  0  0  0  0  0  0  0  0  0  0  0
   -5.9941   13.6226   17.6172 O   0  0  0  0  0  0  0  0  0  0  0  0
   -7.0394   11.9574   18.6616 O   0  0  0  0  0  0  0  0  0  0  0  0
   -7.5540   11.6689   19.3896 H   0  0  0  0  0  0  0  0  0  0  0  0
   -9.5731   10.8202   19.8011 C   0  0  0  0  0  0  0  0  0  0  0  0
  -10.1051   12.1048   20.0945 O   0  0  0  0  0  0  0  0  0  0  0  0
  -12.2487   12.3005   21.9482 O   0  0  0  0  0  0  0  0  0  0  0  0
  -12.5453   11.5181   23.0946 C   0  0  0  0  0  0  0  0  0  0  0  0
   -6.0918   15.0789   20.2365 C   0  0  0  0  0  0  0  0  0  0  0  0
   -5.7060   16.2373   19.3062 C   0  0  0  0  0  0  0  0  0  0  0  0
   -6.7810   16.4937   18.3191 N   0  0  0  0  0  0  0  0  0  0  0  0
   -6.9207   15.6624   17.7449 H   0  0  0  0  0  0  0  0  0  0  0  0
   -6.5155   17.2779   17.7233 H   0  0  0  0  0  0  0  0  0  0  0  0
   -4.3769   15.9263   18.5950 C   0  0  0  0  0  0  0  0  0  0  0  0
   -4.2421   15.3434   17.5310 O   0  0  0  0  0  0  0  0  0  0  0  0
   -3.2872   16.3289   19.2876 O   0  0  0  0  0  0  0  0  0  0  0  0
   -3.3902   16.7763   20.1044 H   0  0  0  0  0  0  0  0  0  0  0  0
 14 15  1  0
  1 15  1  0
  1  2  1  0
  2  3  1  0
  3  4  1  0
  4 18  1  0
 18 19  1  0
 19 20  1  0
 19 23  1  0
 23 24  2  0
 23 25  1  0
  4 10  1  0
 10 11  2  0
 10 12  1  0
  4  5  1  0
  6  5  1  0
  6  7  1  0
  7  8  1  0
  8  9  1  0
  9 16  1  0
 16 17  1  0
  9  1  1  0
  6  2  1  0
 20 21  1  0
 20 22  1  0
 25 26  1  0
 12 13  1  0
M  END
> <minimizedAffinity>
-2.83807

> <CNNscore>
0.4022612572

> <CNNaffinity>
5.7748661041

> <CNN_VS>
2.3230049610

> <CNNaffinity_variance>
0.6510544419

$$$$



 26 27  0  0  0  0  0  0  0  0999 V2000
   -2.8029    9.6290   29.8833 C   0  0  0  0  0  0  0  0  0  0  0  0
   -3.0562   10.9831   29.2036 C   0  0  0  0  0  0  0  0  0  0  0  0
   -4.1565   11.7001   29.7829 O   0  0  0  0  0  0  0  0  0  0  0  0
   -3.6950   12.9957   30.2590 C   0  0  0  0  0  0  0  0  0  0  0  0
   -2.1745   12.8744   30.3395 C   0  0  0  0  0  0  0  0  0  0  0  0
   -1.8293   11.8846   29.2518 C   0  0  0  0  0  0  0  0  0  0  0  0
   -0.6098   11.2257   29.5627 O   0  0  0  0  0  0  0  0  0  0  0  0
   -0.4565    9.9722   28.8952 C   0  0  0  0  0  0  0  0  0  0  0  0
   -1.6086    8.9720   29.1509 C   0  0  0  0  0  0  0  0  0  0  0  0
   -4.3256   13.2599   31.6348 C   0  0  0  0  0  0  0  0  0  0  0  0
   -5.1255   12.5468   32.2235 O   0  0  0  0  0  0  0  0  0  0  0  0
   -3.9361   14.4285   32.1900 O   0  0  0  0  0  0  0  0  0  0  0  0
   -3.3233   14.9784   31.7427 H   0  0  0  0  0  0  0  0  0  0  0  0
   -3.6475    9.7464   32.1136 C   0  0  0  0  0  0  0  0  0  0  0  0
   -2.4985    9.7947   31.2790 O   0  0  0  0  0  0  0  0  0  0  0  0
   -1.0765    7.8158   29.8190 O   0  0  0  0  0  0  0  0  0  0  0  0
   -1.7945    6.6187   29.5628 C   0  0  0  0  0  0  0  0  0  0  0  0
   -4.1903   14.0205   29.2168 C   0  0  0  0  0  0  0  0  0  0  0  0
   -5.2913   13.5410   28.2608 C   0  0  0  0  0  0  0  0  0  0  0  0
   -5.8055   12.2160   28.6800 N   0  0  0  0  0  0  0  0  0  0  0  0
   -5.0478   11.5336   28.6545 H   0  0  0  0  0  0  0  0  0  0  0  0
   -6.5483   11.9232   28.0452 H   0  0  0  0  0  0  0  0  0  0  0  0
   -4.7547   13.4853   26.8192 C   0  0  0  0  0  0  0  0  0  0  0  0
   -4.5801   12.4808   26.1480 O   0  0  0  0  0  0  0  0  0  0  0  0
   -4.4255   14.6978   26.3188 O   0  0  0  0  0  0  0  0  0  0  0  0
   -4.5593   15.4692   26.8336 H   0  0  0  0  0  0  0  0  0  0  0  0
 14 15  1  0
  1 15  1  0
  1  2  1  0
  2  3  1  0
  3  4  1  0
  4 18  1  0
 18 19  1  0
 19 20  1  0
 19 23  1  0
 23 24  2  0
 23 25  1  0
  4 10  1  0
 10 11  2  0
 10 12  1  0
  4  5  1  0
  6  5  1  0
  6  7  1  0
  7  8  1  0
  8  9  1  0
  9 16  1  0
 16 17  1  0
  9  1  1  0
  6  2  1  0
 20 21  1  0
 20 22  1  0
 25 26  1  0
 12 13  1  0
M  END
> <minimizedAffinity>
12.14413

> <CNNscore>
0.3821091950

> <CNNaffinity>
3.9313342571

> <CNN_VS>
1.5021989346

> <CNNaffinity_variance>
0.0384335779

$$$$



 26 27  0  0  0  0  0  0  0  0999 V2000
   -6.2695   12.3675   28.5067 C   0  0  0  0  0  0  0  0  0  0  0  0
   -5.0481   12.7460   29.3579 C   0  0  0  0  0  0  0  0  0  0  0  0
   -5.0520   12.1175   30.6483 O   0  0  0  0  0  0  0  0  0  0  0  0
   -3.8411   11.3256   30.8065 C   0  0  0  0  0  0  0  0  0  0  0  0
   -3.2937   11.1442   29.3921 C   0  0  0  0  0  0  0  0  0  0  0  0
   -3.7381   12.3921   28.6660 C   0  0  0  0  0  0  0  0  0  0  0  0
   -3.8435   12.1332   27.2731 O   0  0  0  0  0  0  0  0  0  0  0  0
   -4.7008   13.0487   26.5896 C   0  0  0  0  0  0  0  0  0  0  0  0
   -6.1357   13.1232   27.1630 C   0  0  0  0  0  0  0  0  0  0  0  0
   -4.2192    9.9849   31.4544 C   0  0  0  0  0  0  0  0  0  0  0  0
   -3.6984    8.8981   31.2472 O   0  0  0  0  0  0  0  0  0  0  0  0
   -5.2575   10.0762   32.3139 O   0  0  0  0  0  0  0  0  0  0  0  0
   -5.6599   10.9067   32.4760 H   0  0  0  0  0  0  0  0  0  0  0  0
   -6.9654   10.2339   29.3221 C   0  0  0  0  0  0  0  0  0  0  0  0
   -6.3246   10.9494   28.2748 O   0  0  0  0  0  0  0  0  0  0  0  0
   -7.0600   12.6877   26.1520 O   0  0  0  0  0  0  0  0  0  0  0  0
   -7.0194   13.4585   24.9609 C   0  0  0  0  0  0  0  0  0  0  0  0
   -2.9249   12.1505   31.7348 C   0  0  0  0  0  0  0  0  0  0  0  0
   -1.4664   12.3109   31.2842 C   0  0  0  0  0  0  0  0  0  0  0  0
   -0.7027   11.0664   31.5363 N   0  0  0  0  0  0  0  0  0  0  0  0
   -0.7025   10.8642   32.5361 H   0  0  0  0  0  0  0  0  0  0  0  0
    0.2575   11.1854   31.2133 H   0  0  0  0  0  0  0  0  0  0  0  0
   -0.8162   13.5043   32.0070 C   0  0  0  0  0  0  0  0  0  0  0  0
   -1.3623   14.5519   32.3142 O   0  0  0  0  0  0  0  0  0  0  0  0
    0.5000   13.3280   32.2631 O   0  0  0  0  0  0  0  0  0  0  0  0
    0.9196   12.5240   32.0275 H   0  0  0  0  0  0  0  0  0  0  0  0
 14 15  1  0
  1 15  1  0
  1  2  1  0
  2  3  1  0
  3  4  1  0
  4 18  1  0
 18 19  1  0
 19 20  1  0
 19 23  1  0
 23 24  2  0
 23 25  1  0
  4 10  1  0
 10 11  2  0
 10 12  1  0
  4  5  1  0
  6  5  1  0
  6  7  1  0
  7  8  1  0
  8  9  1  0
  9 16  1  0
 16 17  1  0
  9  1  1  0
  6  2  1  0
 20 21  1  0
 20 22  1  0
 25 26  1  0
 12 13  1  0
M  END
> <minimizedAffinity>
3.66113

> <CNNscore>
0.3728995621

> <CNNaffinity>
3.9100122452

> <CNN_VS>
1.4580419064

> <CNNaffinity_variance>
0.0087087443

$$$$



 26 27  0  0  0  0  0  0  0  0999 V2000
   -8.9130   13.3207   20.9316 C   0  0  0  0  0  0  0  0  0  0  0  0
   -8.1750   14.6667   20.8759 C   0  0  0  0  0  0  0  0  0  0  0  0
   -6.8046   14.5343   20.4700 O   0  0  0  0  0  0  0  0  0  0  0  0
   -6.5723   15.3337   19.2761 C   0  0  0  0  0  0  0  0  0  0  0  0
   -7.9618   15.6235   18.7117 C   0  0  0  0  0  0  0  0  0  0  0  0
   -8.8527   15.6509   19.9313 C   0  0  0  0  0  0  0  0  0  0  0  0
  -10.1850   15.3172   19.5684 O   0  0  0  0  0  0  0  0  0  0  0  0
  -10.9679   14.8390   20.6632 C   0  0  0  0  0  0  0  0  0  0  0  0
  -10.3602   13.6174   21.3923 C   0  0  0  0  0  0  0  0  0  0  0  0
   -5.7143   14.5126   18.3015 C   0  0  0  0  0  0  0  0  0  0  0  0
   -4.6881   14.8752   17.7443 O   0  0  0  0  0  0  0  0  0  0  0  0
   -6.2097   13.2801   18.0552 O   0  0  0  0  0  0  0  0  0  0  0  0
   -6.9958   12.9977   18.4798 H   0  0  0  0  0  0  0  0  0  0  0  0
   -8.5591   11.3058   19.7002 C   0  0  0  0  0  0  0  0  0  0  0  0
   -8.9240   12.6781   19.6452 O   0  0  0  0  0  0  0  0  0  0  0  0
  -11.2583   12.5036   21.2544 O   0  0  0  0  0  0  0  0  0  0  0  0
  -11.9195   12.1419   22.4570 C   0  0  0  0  0  0  0  0  0  0  0  0
   -5.8149   16.5887   19.7587 C   0  0  0  0  0  0  0  0  0  0  0  0
   -6.2566   17.1736   21.1074 C   0  0  0  0  0  0  0  0  0  0  0  0
   -6.7952   16.1091   21.9863 N   0  0  0  0  0  0  0  0  0  0  0  0
   -7.6110   15.6845   21.5454 H   0  0  0  0  0  0  0  0  0  0  0  0
   -7.0651   16.5130   22.8832 H   0  0  0  0  0  0  0  0  0  0  0  0
   -7.3040   18.2800   20.8880 C   0  0  0  0  0  0  0  0  0  0  0  0
   -8.5019   18.1995   21.1083 O   0  0  0  0  0  0  0  0  0  0  0  0
   -6.7887   19.4138   20.3605 O   0  0  0  0  0  0  0  0  0  0  0  0
   -5.8693   19.4761   20.1913 H   0  0  0  0  0  0  0  0  0  0  0  0
 14 15  1  0
  1 15  1  0
  1  2  1  0
  2  3  1  0
  3  4  1  0
  4 18  1  0
 18 19  1  0
 19 20  1  0
 19 23  1  0
 23 24  2  0
 23 25  1  0
  4 10  1  0
 10 11  2  0
 10 12  1  0
  4  5  1  0
  6  5  1  0
  6  7  1  0
  7  8  1  0
  8  9  1  0
  9 16  1  0
 16 17  1  0
  9  1  1  0
  6  2  1  0
 20 21  1  0
 20 22  1  0
 25 26  1  0
 12 13  1  0
M  END
> <minimizedAffinity>
-6.19911

> <CNNscore>
0.2576166391

> <CNNaffinity>
4.9278192520

> <CNN_VS>
1.2694882154

> <CNNaffinity_variance>
0.6967206001

$$$$



 26 27  0  0  0  0  0  0  0  0999 V2000
   -2.6814    9.2540   30.3597 C   0  0  0  0  0  0  0  0  0  0  0  0
   -2.8605   10.3925   29.3440 C   0  0  0  0  0  0  0  0  0  0  0  0
   -4.0643   11.1447   29.5568 O   0  0  0  0  0  0  0  0  0  0  0  0
   -3.7303   12.5446   29.7734 C   0  0  0  0  0  0  0  0  0  0  0  0
   -2.2416   12.5529   30.1148 C   0  0  0  0  0  0  0  0  0  0  0  0
   -1.6883   11.3649   29.3635 C   0  0  0  0  0  0  0  0  0  0  0  0
   -0.5174   10.8837   30.0082 O   0  0  0  0  0  0  0  0  0  0  0  0
   -0.2150    9.5237   29.6933 C   0  0  0  0  0  0  0  0  0  0  0  0
   -1.3612    8.5312   30.0002 C   0  0  0  0  0  0  0  0  0  0  0  0
   -4.5899   13.0752   30.9310 C   0  0  0  0  0  0  0  0  0  0  0  0
   -5.4993   12.4867   31.4981 O   0  0  0  0  0  0  0  0  0  0  0  0
   -4.2775   14.3371   31.2989 O   0  0  0  0  0  0  0  0  0  0  0  0
   -3.5814   14.7922   30.8673 H   0  0  0  0  0  0  0  0  0  0  0  0
   -3.8969    9.8921   32.3134 C   0  0  0  0  0  0  0  0  0  0  0  0
   -2.6198    9.7597   31.7045 O   0  0  0  0  0  0  0  0  0  0  0  0
   -0.9118    7.6018   31.0004 O   0  0  0  0  0  0  0  0  0  0  0  0
   -0.8693    8.1407   32.3128 C   0  0  0  0  0  0  0  0  0  0  0  0
   -4.0769   13.2625   28.4520 C   0  0  0  0  0  0  0  0  0  0  0  0
   -5.4149   12.8834   27.8022 C   0  0  0  0  0  0  0  0  0  0  0  0
   -5.6735   11.4318   27.9492 N   0  0  0  0  0  0  0  0  0  0  0  0
   -4.9360   10.9058   27.4803 H   0  0  0  0  0  0  0  0  0  0  0  0
   -6.5743   11.2026   27.5291 H   0  0  0  0  0  0  0  0  0  0  0  0
   -5.4171   13.2890   26.3173 C   0  0  0  0  0  0  0  0  0  0  0  0
   -6.0444   12.7511   25.4189 O   0  0  0  0  0  0  0  0  0  0  0  0
   -4.5924   14.3243   26.0396 O   0  0  0  0  0  0  0  0  0  0  0  0
   -4.1106   14.7375   26.7289 H   0  0  0  0  0  0  0  0  0  0  0  0
 14 15  1  0
  1 15  1  0
  1  2  1  0
  2  3  1  0
  3  4  1  0
  4 18  1  0
 18 19  1  0
 19 20  1  0
 19 23  1  0
 23 24  2  0
 23 25  1  0
  4 10  1  0
 10 11  2  0
 10 12  1  0
  4  5  1  0
  6  5  1  0
  6  7  1  0
  7  8  1  0
  8  9  1  0
  9 16  1  0
 16 17  1  0
  9  1  1  0
  6  2  1  0
 20 21  1  0
 20 22  1  0
 25 26  1  0
 12 13  1  0
M  END
> <minimizedAffinity>
3.59100

> <CNNscore>
0.2358736694

> <CNNaffinity>
4.1847386360

> <CNN_VS>
0.9870696664

> <CNNaffinity_variance>
0.0821393654

$$$$



 26 27  0  0  0  0  0  0  0  0999 V2000
   -2.3971   10.7389   31.5493 C   0  0  0  0  0  0  0  0  0  0  0  0
   -3.3633   10.7799   30.3557 C   0  0  0  0  0  0  0  0  0  0  0  0
   -4.2140   11.9359   30.3670 O   0  0  0  0  0  0  0  0  0  0  0  0
   -4.0232   12.6913   29.1376 C   0  0  0  0  0  0  0  0  0  0  0  0
   -2.7034   12.1862   28.5580 C   0  0  0  0  0  0  0  0  0  0  0  0
   -2.6261   10.7510   29.0231 C   0  0  0  0  0  0  0  0  0  0  0  0
   -1.2697   10.3349   29.0941 O   0  0  0  0  0  0  0  0  0  0  0  0
   -1.0634    9.2204   29.9634 C   0  0  0  0  0  0  0  0  0  0  0  0
   -1.5622    9.4435   31.4106 C   0  0  0  0  0  0  0  0  0  0  0  0
   -3.9633   14.1854   29.4904 C   0  0  0  0  0  0  0  0  0  0  0  0
   -3.8010   14.6703   30.6011 O   0  0  0  0  0  0  0  0  0  0  0  0
   -4.1396   14.9975   28.4251 O   0  0  0  0  0  0  0  0  0  0  0  0
   -4.2643   14.6307   27.5720 H   0  0  0  0  0  0  0  0  0  0  0  0
   -2.1313   13.0359   32.1449 C   0  0  0  0  0  0  0  0  0  0  0  0
   -1.5322   11.8877   31.5600 O   0  0  0  0  0  0  0  0  0  0  0  0
   -0.4371    9.3741   32.3026 O   0  0  0  0  0  0  0  0  0  0  0  0
    0.7080    8.7510   31.7413 C   0  0  0  0  0  0  0  0  0  0  0  0
   -5.2555   12.3777   28.2632 C   0  0  0  0  0  0  0  0  0  0  0  0
   -5.1287   12.6999   26.7678 C   0  0  0  0  0  0  0  0  0  0  0  0
   -4.7113   14.1081   26.5712 N   0  0  0  0  0  0  0  0  0  0  0  0
   -5.4156   14.7300   26.9682 H   0  0  0  0  0  0  0  0  0  0  0  0
   -4.6138   14.2977   25.5737 H   0  0  0  0  0  0  0  0  0  0  0  0
   -6.4619   12.4222   26.0505 C   0  0  0  0  0  0  0  0  0  0  0  0
   -7.2793   13.2541   25.6900 O   0  0  0  0  0  0  0  0  0  0  0  0
   -6.7118   11.1058   25.8669 O   0  0  0  0  0  0  0  0  0  0  0  0
   -6.0847   10.4668   26.1434 H   0  0  0  0  0  0  0  0  0  0  0  0
 14 15  1  0
  1 15  1  0
  1  2  1  0
  2  3  1  0
  3  4  1  0
  4 18  1  0
 18 19  1  0
 19 20  1  0
 19 23  1  0
 23 24  2  0
 23 25  1  0
  4 10  1  0
 10 11  2  0
 10 12  1  0
  4  5  1  0
  6  5  1  0
  6  7  1  0
  7  8  1  0
  8  9  1  0
  9 16  1  0
 16 17  1  0
  9  1  1  0
  6  2  1  0
 20 21  1  0
 20 22  1  0
 25 26  1  0
 12 13  1  0
M  END
> <minimizedAffinity>
-1.31749

> <CNNscore>
0.2302531600

> <CNNaffinity>
4.1873478889

> <CNN_VS>
0.9641500711

> <CNNaffinity_variance>
0.1304633468

$$$$



 26 27  0  0  0  0  0  0  0  0999 V2000
    1.6650   25.7125   25.9067 C   0  0  0  0  0  0  0  0  0  0  0  0
    1.3335   25.1665   27.3038 C   0  0  0  0  0  0  0  0  0  0  0  0
    2.5049   24.8519   28.0713 O   0  0  0  0  0  0  0  0  0  0  0  0
    2.4949   25.6179   29.3088 C   0  0  0  0  0  0  0  0  0  0  0  0
    1.4864   26.7413   29.0762 C   0  0  0  0  0  0  0  0  0  0  0  0
    0.4889   26.1424   28.1126 C   0  0  0  0  0  0  0  0  0  0  0  0
   -0.1341   27.1705   27.3557 O   0  0  0  0  0  0  0  0  0  0  0  0
   -0.6928   26.7090   26.1248 C   0  0  0  0  0  0  0  0  0  0  0  0
    0.3174   25.9912   25.1989 C   0  0  0  0  0  0  0  0  0  0  0  0
    3.9116   26.1578   29.5569 C   0  0  0  0  0  0  0  0  0  0  0  0
    4.4901   27.0213   28.9129 O   0  0  0  0  0  0  0  0  0  0  0  0
    4.5418   25.5601   30.5918 O   0  0  0  0  0  0  0  0  0  0  0  0
    4.1027   24.8979   31.0884 H   0  0  0  0  0  0  0  0  0  0  0  0
    3.6068   26.8951   25.1771 C   0  0  0  0  0  0  0  0  0  0  0  0
    2.4409   26.9204   25.9892 O   0  0  0  0  0  0  0  0  0  0  0  0
    0.4410   26.7425   23.9798 O   0  0  0  0  0  0  0  0  0  0  0  0
   -0.8002   27.0742   23.3767 C   0  0  0  0  0  0  0  0  0  0  0  0
    2.0818   24.6196   30.4107 C   0  0  0  0  0  0  0  0  0  0  0  0
    2.0529   23.1379   30.0107 C   0  0  0  0  0  0  0  0  0  0  0  0
    0.6621   22.6921   29.7606 N   0  0  0  0  0  0  0  0  0  0  0  0
    0.1125   22.7984   30.6133 H   0  0  0  0  0  0  0  0  0  0  0  0
    0.6648   21.7121   29.4778 H   0  0  0  0  0  0  0  0  0  0  0  0
    2.7108   22.2799   31.1062 C   0  0  0  0  0  0  0  0  0  0  0  0
    2.4308   21.1264   31.3907 O   0  0  0  0  0  0  0  0  0  0  0  0
    3.6566   22.9396   31.8130 O   0  0  0  0  0  0  0  0  0  0  0  0
    3.8718   23.8251   31.5950 H   0  0  0  0  0  0  0  0  0  0  0  0
 14 15  1  0
  1 15  1  0
  1  2  1  0
  2  3  1  0
  3  4  1  0
  4 18  1  0
 18 19  1  0
 19 20  1  0
 19 23  1  0
 23 24  2  0
 23 25  1  0
  4 10  1  0
 10 11  2  0
 10 12  1  0
  4  5  1  0
  6  5  1  0
  6  7  1  0
  7  8  1  0
  8  9  1  0
  9 16  1  0
 16 17  1  0
  9  1  1  0
  6  2  1  0
 20 21  1  0
 20 22  1  0
 25 26  1  0
 12 13  1  0
M  END
> <minimizedAffinity>
-1.79210

> <CNNscore>
0.2154889107

> <CNNaffinity>
3.0775372982

> <CNN_VS>
0.6631751657

> <CNNaffinity_variance>
0.1346144229

$$$$
