


 33 36  0  0  0  0  0  0  0  0999 V2000
  -30.7144    0.4658   27.1870 N   0  0  0  0  0  0  0  0  0  0  0  0
  -30.9585   -0.8726   26.9892 C   0  0  0  0  0  0  0  0  0  0  0  0
  -30.1732   -1.6437   26.4466 O   0  0  0  0  0  0  0  0  0  0  0  0
  -31.3140    0.9813   27.7734 H   0  0  0  0  0  0  0  0  0  0  0  0
  -32.2187   -1.4066   27.5490 C   0  0  0  0  0  0  0  0  0  0  0  0
  -32.1241   -2.4698   28.4656 C   0  0  0  0  0  0  0  0  0  0  0  0
  -33.2730   -3.0251   29.0589 C   0  0  0  0  0  0  0  0  0  0  0  0
  -34.5438   -2.5391   28.7446 C   0  0  0  0  0  0  0  0  0  0  0  0
  -34.6468   -1.5053   27.8221 C   0  0  0  0  0  0  0  0  0  0  0  0
  -33.4873   -0.9525   27.2329 C   0  0  0  0  0  0  0  0  0  0  0  0
  -33.9491    0.0706   26.2619 C   0  0  0  0  0  0  0  0  0  0  0  0
  -33.2768    0.7661   25.5283 O   0  0  0  0  0  0  0  0  0  0  0  0
  -35.4236    0.1006   26.3349 C   0  0  0  0  0  0  0  0  0  0  0  0
  -36.3117    0.8804   25.6200 C   0  0  0  0  0  0  0  0  0  0  0  0
  -37.6656    0.6958   25.8869 C   0  0  0  0  0  0  0  0  0  0  0  0
  -38.0909   -0.2432   26.8462 C   0  0  0  0  0  0  0  0  0  0  0  0
  -37.1683   -1.0246   27.5520 C   0  0  0  0  0  0  0  0  0  0  0  0
  -35.8211   -0.8507   27.2858 C   0  0  0  0  0  0  0  0  0  0  0  0
  -29.5974    1.1367   26.5545 C   0  0  0  0  0  0  0  0  0  0  0  0
  -26.1026    2.4204   27.9088 C   0  0  0  0  0  0  0  0  0  0  0  0
  -25.9113    1.1269   28.7311 C   0  0  0  0  0  0  0  0  0  0  0  0
  -24.6156    1.0250   29.3191 O   0  0  0  0  0  0  0  0  0  0  0  0
  -26.2854   -0.1356   27.9304 C   0  0  0  0  0  0  0  0  0  0  0  0
  -25.3251   -0.4196   26.7701 C   0  0  0  0  0  0  0  0  0  0  0  0
  -27.6819   -0.1303   27.4647 N   0  0  0  0  0  0  0  0  0  0  0  0
  -28.3302    1.2056   27.4473 C   0  0  0  0  0  0  0  0  0  0  0  0
  -27.3548    2.3228   27.0016 C   0  0  0  0  0  0  0  0  0  0  0  0
  -27.9934    3.6123   26.9919 O   0  0  0  0  0  0  0  0  0  0  0  0
  -23.9471    0.9605   28.6192 H   0  0  0  0  0  0  0  0  0  0  0  0
  -28.2234   -0.7373   28.0800 H   0  0  0  0  0  0  0  0  0  0  0  0
  -28.2630    3.8463   27.8938 H   0  0  0  0  0  0  0  0  0  0  0  0
  -24.5859    4.1147   27.1126 C   0  0  0  0  0  0  0  0  0  0  0  0
  -25.0142    2.7604   27.0240 O   0  0  0  0  0  0  0  0  0  0  0  0
 32 33  1  0
 20 33  1  0
 20 21  1  0
 21 22  1  0
 21 23  1  0
 23 24  1  0
 23 25  1  0
 25 26  1  0
 26 19  1  0
 19  1  1  0
  1  2  1  0
  2  3  2  0
  2  5  1  0
  5  6  2  0
  6  7  1  0
  7  8  2  0
  8  9  1  0
  9 10  2  0
 10 11  1  0
 11 12  2  0
 11 13  1  0
 13 14  2  0
 14 15  1  0
 15 16  2  0
 16 17  1  0
 17 18  2  0
 26 27  1  0
 27 28  1  0
 27 20  1  0
 10  5  1  0
 18 13  1  0
 18  9  1  0
 22 29  1  0
 25 30  1  0
  1  4  1  0
 28 31  1  0
M  END
> <minimizedAffinity>
-8.21027

> <CNNscore>
0.5612432957

> <CNNaffinity>
5.5518698692

> <CNN_VS>
3.1159496307

> <CNNaffinity_variance>
0.1107489243

$$$$



 33 36  0  0  0  0  0  0  0  0999 V2000
  -30.9587    0.8450   26.7122 N   0  0  0  0  0  0  0  0  0  0  0  0
  -31.6916   -0.0518   25.9715 C   0  0  0  0  0  0  0  0  0  0  0  0
  -31.3059   -0.5566   24.9218 O   0  0  0  0  0  0  0  0  0  0  0  0
  -31.2602    1.0769   27.6203 H   0  0  0  0  0  0  0  0  0  0  0  0
  -32.9873   -0.4801   26.5412 C   0  0  0  0  0  0  0  0  0  0  0  0
  -34.1541    0.1033   26.0141 C   0  0  0  0  0  0  0  0  0  0  0  0
  -35.4286   -0.2607   26.4871 C   0  0  0  0  0  0  0  0  0  0  0  0
  -35.5684   -1.2082   27.5032 C   0  0  0  0  0  0  0  0  0  0  0  0
  -34.4196   -1.7711   28.0451 C   0  0  0  0  0  0  0  0  0  0  0  0
  -33.1440   -1.4008   27.5624 C   0  0  0  0  0  0  0  0  0  0  0  0
  -32.1482   -2.1284   28.3883 C   0  0  0  0  0  0  0  0  0  0  0  0
  -30.9372   -2.0795   28.3195 O   0  0  0  0  0  0  0  0  0  0  0  0
  -32.9057   -2.9525   29.3514 C   0  0  0  0  0  0  0  0  0  0  0  0
  -32.4278   -3.7976   30.3339 C   0  0  0  0  0  0  0  0  0  0  0  0
  -33.3763   -4.4534   31.1142 C   0  0  0  0  0  0  0  0  0  0  0  0
  -34.7531   -4.2552   30.8955 C   0  0  0  0  0  0  0  0  0  0  0  0
  -35.2091   -3.3877   29.8958 C   0  0  0  0  0  0  0  0  0  0  0  0
  -34.2708   -2.7273   29.1215 C   0  0  0  0  0  0  0  0  0  0  0  0
  -29.7544    1.4574   26.1906 C   0  0  0  0  0  0  0  0  0  0  0  0
  -26.2465    2.2965   27.8297 C   0  0  0  0  0  0  0  0  0  0  0  0
  -26.1915    0.9051   28.4984 C   0  0  0  0  0  0  0  0  0  0  0  0
  -24.9375    0.6341   29.1221 O   0  0  0  0  0  0  0  0  0  0  0  0
  -26.6168   -0.2224   27.5378 C   0  0  0  0  0  0  0  0  0  0  0  0
  -25.6234   -0.4442   26.3919 C   0  0  0  0  0  0  0  0  0  0  0  0
  -27.9842   -0.0533   27.0196 N   0  0  0  0  0  0  0  0  0  0  0  0
  -28.5314    1.3223   27.1360 C   0  0  0  0  0  0  0  0  0  0  0  0
  -27.4558    2.4036   26.8671 C   0  0  0  0  0  0  0  0  0  0  0  0
  -27.9971    3.7317   26.9859 O   0  0  0  0  0  0  0  0  0  0  0  0
  -24.2416    0.5991   28.4473 H   0  0  0  0  0  0  0  0  0  0  0  0
  -28.5986   -0.6833   27.5354 H   0  0  0  0  0  0  0  0  0  0  0  0
  -28.2933    3.8798   27.8976 H   0  0  0  0  0  0  0  0  0  0  0  0
  -24.4999    3.8957   27.3864 C   0  0  0  0  0  0  0  0  0  0  0  0
  -25.0935    2.6504   27.0369 O   0  0  0  0  0  0  0  0  0  0  0  0
 32 33  1  0
 20 33  1  0
 20 21  1  0
 21 22  1  0
 21 23  1  0
 23 24  1  0
 23 25  1  0
 25 26  1  0
 26 19  1  0
 19  1  1  0
  1  2  1  0
  2  3  2  0
  2  5  1  0
  5  6  2  0
  6  7  1  0
  7  8  2  0
  8  9  1  0
  9 10  2  0
 10 11  1  0
 11 12  2  0
 11 13  1  0
 13 14  2  0
 14 15  1  0
 15 16  2  0
 16 17  1  0
 17 18  2  0
 26 27  1  0
 27 28  1  0
 27 20  1  0
 10  5  1  0
 18 13  1  0
 18  9  1  0
 22 29  1  0
 25 30  1  0
  1  4  1  0
 28 31  1  0
M  END
> <minimizedAffinity>
-8.10310

> <CNNscore>
0.4739017189

> <CNNaffinity>
5.2548980713

> <CNN_VS>
2.4903051853

> <CNNaffinity_variance>
0.2026418000

$$$$



 33 36  0  0  0  0  0  0  0  0999 V2000
  -30.9999    1.3176   26.0562 N   0  0  0  0  0  0  0  0  0  0  0  0
  -31.9595    0.3635   25.8136 C   0  0  0  0  0  0  0  0  0  0  0  0
  -32.6053    0.2843   24.7733 O   0  0  0  0  0  0  0  0  0  0  0  0
  -30.4111    1.2178   26.8388 H   0  0  0  0  0  0  0  0  0  0  0  0
  -32.1462   -0.6691   26.8555 C   0  0  0  0  0  0  0  0  0  0  0  0
  -30.9932   -1.2911   27.3687 C   0  0  0  0  0  0  0  0  0  0  0  0
  -31.0803   -2.2714   28.3746 C   0  0  0  0  0  0  0  0  0  0  0  0
  -32.3201   -2.6608   28.8855 C   0  0  0  0  0  0  0  0  0  0  0  0
  -33.4647   -2.0683   28.3668 C   0  0  0  0  0  0  0  0  0  0  0  0
  -33.3673   -1.0832   27.3581 C   0  0  0  0  0  0  0  0  0  0  0  0
  -34.7564   -0.7114   26.9902 C   0  0  0  0  0  0  0  0  0  0  0  0
  -35.1223    0.0847   26.1499 O   0  0  0  0  0  0  0  0  0  0  0  0
  -35.6577   -1.5069   27.8476 C   0  0  0  0  0  0  0  0  0  0  0  0
  -37.0386   -1.5218   27.8758 C   0  0  0  0  0  0  0  0  0  0  0  0
  -37.6390   -2.3838   28.7897 C   0  0  0  0  0  0  0  0  0  0  0  0
  -36.8595   -3.1919   29.6395 C   0  0  0  0  0  0  0  0  0  0  0  0
  -35.4609   -3.1605   29.5850 C   0  0  0  0  0  0  0  0  0  0  0  0
  -34.8584   -2.3108   28.6734 C   0  0  0  0  0  0  0  0  0  0  0  0
  -30.8333    2.4660   25.1895 C   0  0  0  0  0  0  0  0  0  0  0  0
  -29.9246    1.7054   21.4090 C   0  0  0  0  0  0  0  0  0  0  0  0
  -28.4905    1.2901   21.8051 C   0  0  0  0  0  0  0  0  0  0  0  0
  -27.7526    0.7271   20.7219 O   0  0  0  0  0  0  0  0  0  0  0  0
  -28.4672    0.3873   23.0538 C   0  0  0  0  0  0  0  0  0  0  0  0
  -29.0810   -0.9957   22.8088 C   0  0  0  0  0  0  0  0  0  0  0  0
  -29.0677    1.0242   24.2373 N   0  0  0  0  0  0  0  0  0  0  0  0
  -29.9535    2.1794   23.9439 C   0  0  0  0  0  0  0  0  0  0  0  0
  -30.7971    1.9586   22.6641 C   0  0  0  0  0  0  0  0  0  0  0  0
  -31.6486    3.0855   22.3887 O   0  0  0  0  0  0  0  0  0  0  0  0
  -28.1699   -0.1030   20.4432 H   0  0  0  0  0  0  0  0  0  0  0  0
  -28.3117    1.3496   24.8398 H   0  0  0  0  0  0  0  0  0  0  0  0
  -31.1027    3.8670   22.2093 H   0  0  0  0  0  0  0  0  0  0  0  0
  -30.9232    1.1529   19.2871 C   0  0  0  0  0  0  0  0  0  0  0  0
  -30.6557    0.7407   20.6228 O   0  0  0  0  0  0  0  0  0  0  0  0
 32 33  1  0
 20 33  1  0
 20 21  1  0
 21 22  1  0
 21 23  1  0
 23 24  1  0
 23 25  1  0
 25 26  1  0
 26 19  1  0
 19  1  1  0
  1  2  1  0
  2  3  2  0
  2  5  1  0
  5  6  2  0
  6  7  1  0
  7  8  2  0
  8  9  1  0
  9 10  2  0
 10 11  1  0
 11 12  2  0
 11 13  1  0
 13 14  2  0
 14 15  1  0
 15 16  2  0
 16 17  1  0
 17 18  2  0
 26 27  1  0
 27 28  1  0
 27 20  1  0
 10  5  1  0
 18 13  1  0
 18  9  1  0
 22 29  1  0
 25 30  1  0
  1  4  1  0
 28 31  1  0
M  END
> <minimizedAffinity>
-6.51728

> <CNNscore>
0.2414608598

> <CNNaffinity>
3.7627322674

> <CNN_VS>
0.9085525870

> <CNNaffinity_variance>
0.7312658429

$$$$



 33 36  0  0  0  0  0  0  0  0999 V2000
  -30.5435   -0.8311   25.1885 N   0  0  0  0  0  0  0  0  0  0  0  0
  -31.2416   -0.2564   26.2240 C   0  0  0  0  0  0  0  0  0  0  0  0
  -31.2773    0.9499   26.4456 O   0  0  0  0  0  0  0  0  0  0  0  0
  -30.6960   -1.7801   24.9754 H   0  0  0  0  0  0  0  0  0  0  0  0
  -32.0586   -1.1644   27.0576 C   0  0  0  0  0  0  0  0  0  0  0  0
  -33.3934   -0.7951   27.3054 C   0  0  0  0  0  0  0  0  0  0  0  0
  -34.2446   -1.6106   28.0740 C   0  0  0  0  0  0  0  0  0  0  0  0
  -33.7816   -2.8091   28.6210 C   0  0  0  0  0  0  0  0  0  0  0  0
  -32.4579   -3.1687   28.4006 C   0  0  0  0  0  0  0  0  0  0  0  0
  -31.6109   -2.3443   27.6258 C   0  0  0  0  0  0  0  0  0  0  0  0
  -30.2687   -2.9778   27.6416 C   0  0  0  0  0  0  0  0  0  0  0  0
  -29.2471   -2.5842   27.1170 O   0  0  0  0  0  0  0  0  0  0  0  0
  -30.3849   -4.2154   28.4386 C   0  0  0  0  0  0  0  0  0  0  0  0
  -29.4088   -5.1423   28.7485 C   0  0  0  0  0  0  0  0  0  0  0  0
  -29.7972   -6.2251   29.5329 C   0  0  0  0  0  0  0  0  0  0  0  0
  -31.1271   -6.3547   29.9771 C   0  0  0  0  0  0  0  0  0  0  0  0
  -32.0947   -5.3964   29.6525 C   0  0  0  0  0  0  0  0  0  0  0  0
  -31.7129   -4.3139   28.8789 C   0  0  0  0  0  0  0  0  0  0  0  0
  -29.5893   -0.0759   24.4031 C   0  0  0  0  0  0  0  0  0  0  0  0
  -26.2459   -1.0975   26.2671 C   0  0  0  0  0  0  0  0  0  0  0  0
  -25.9824    0.3716   26.6648 C   0  0  0  0  0  0  0  0  0  0  0  0
  -24.8866    0.5185   27.5663 O   0  0  0  0  0  0  0  0  0  0  0  0
  -27.2537    1.0754   27.1780 C   0  0  0  0  0  0  0  0  0  0  0  0
  -27.7458    0.5257   28.5215 C   0  0  0  0  0  0  0  0  0  0  0  0
  -28.3433    1.0916   26.1884 N   0  0  0  0  0  0  0  0  0  0  0  0
  -28.2118    0.0931   25.0971 C   0  0  0  0  0  0  0  0  0  0  0  0
  -27.6371   -1.2531   25.6030 C   0  0  0  0  0  0  0  0  0  0  0  0
  -27.5114   -2.2108   24.5363 O   0  0  0  0  0  0  0  0  0  0  0  0
  -25.0978    0.0812   28.4060 H   0  0  0  0  0  0  0  0  0  0  0  0
  -28.3744    2.0198   25.7666 H   0  0  0  0  0  0  0  0  0  0  0  0
  -26.8737   -1.8845   23.8823 H   0  0  0  0  0  0  0  0  0  0  0  0
  -25.4647   -3.2186   27.1011 C   0  0  0  0  0  0  0  0  0  0  0  0
  -26.2322   -2.0471   27.3540 O   0  0  0  0  0  0  0  0  0  0  0  0
 32 33  1  0
 20 33  1  0
 20 21  1  0
 21 22  1  0
 21 23  1  0
 23 24  1  0
 23 25  1  0
 25 26  1  0
 26 19  1  0
 19  1  1  0
  1  2  1  0
  2  3  2  0
  2  5  1  0
  5  6  2  0
  6  7  1  0
  7  8  2  0
  8  9  1  0
  9 10  2  0
 10 11  1  0
 11 12  2  0
 11 13  1  0
 13 14  2  0
 14 15  1  0
 15 16  2  0
 16 17  1  0
 17 18  2  0
 26 27  1  0
 27 28  1  0
 27 20  1  0
 10  5  1  0
 18 13  1  0
 18  9  1  0
 22 29  1  0
 25 30  1  0
  1  4  1  0
 28 31  1  0
M  END
> <minimizedAffinity>
-7.62018

> <CNNscore>
0.2406304628

> <CNNaffinity>
4.5270628929

> <CNN_VS>
1.0893492699

> <CNNaffinity_variance>
0.4486486018

$$$$



 33 36  0  0  0  0  0  0  0  0999 V2000
  -31.0101    2.0833   25.7770 N   0  0  0  0  0  0  0  0  0  0  0  0
  -32.3806    2.0220   25.8655 C   0  0  0  0  0  0  0  0  0  0  0  0
  -33.0037    1.0334   26.2396 O   0  0  0  0  0  0  0  0  0  0  0  0
  -30.5773    2.9554   25.6307 H   0  0  0  0  0  0  0  0  0  0  0  0
  -33.1209    3.2661   25.5639 C   0  0  0  0  0  0  0  0  0  0  0  0
  -33.6777    3.9704   26.6472 C   0  0  0  0  0  0  0  0  0  0  0  0
  -34.3825    5.1725   26.4501 C   0  0  0  0  0  0  0  0  0  0  0  0
  -34.5563    5.6952   25.1670 C   0  0  0  0  0  0  0  0  0  0  0  0
  -34.0298    4.9929   24.0900 C   0  0  0  0  0  0  0  0  0  0  0  0
  -33.3218    3.7875   24.2977 C   0  0  0  0  0  0  0  0  0  0  0  0
  -32.9573    3.2706   22.9550 C   0  0  0  0  0  0  0  0  0  0  0  0
  -32.3616    2.2490   22.6808 O   0  0  0  0  0  0  0  0  0  0  0  0
  -33.4644    4.2426   21.9659 C   0  0  0  0  0  0  0  0  0  0  0  0
  -33.3809    4.2015   20.5878 C   0  0  0  0  0  0  0  0  0  0  0  0
  -33.9589    5.2596   19.8916 C   0  0  0  0  0  0  0  0  0  0  0  0
  -34.5913    6.3149   20.5766 C   0  0  0  0  0  0  0  0  0  0  0  0
  -34.6663    6.3276   21.9745 C   0  0  0  0  0  0  0  0  0  0  0  0
  -34.0997    5.2747   22.6719 C   0  0  0  0  0  0  0  0  0  0  0  0
  -30.1868    0.8975   25.8936 C   0  0  0  0  0  0  0  0  0  0  0  0
  -26.9812    2.2705   27.7738 C   0  0  0  0  0  0  0  0  0  0  0  0
  -26.9190    1.0046   28.6568 C   0  0  0  0  0  0  0  0  0  0  0  0
  -25.7396    0.9388   29.4566 O   0  0  0  0  0  0  0  0  0  0  0  0
  -27.1416   -0.2860   27.8448 C   0  0  0  0  0  0  0  0  0  0  0  0
  -25.9973   -0.5904   26.8715 C   0  0  0  0  0  0  0  0  0  0  0  0
  -28.4399   -0.3145   27.1515 N   0  0  0  0  0  0  0  0  0  0  0  0
  -29.0883    1.0109   26.9837 C   0  0  0  0  0  0  0  0  0  0  0  0
  -28.0621    2.1283   26.6729 C   0  0  0  0  0  0  0  0  0  0  0  0
  -28.7018    3.4077   26.5157 O   0  0  0  0  0  0  0  0  0  0  0  0
  -24.9624    0.8632   28.8811 H   0  0  0  0  0  0  0  0  0  0  0  0
  -29.0715   -0.9108   27.6861 H   0  0  0  0  0  0  0  0  0  0  0  0
  -29.1213    3.6643   27.3518 H   0  0  0  0  0  0  0  0  0  0  0  0
  -25.0865    3.7458   27.5784 C   0  0  0  0  0  0  0  0  0  0  0  0
  -25.7627    2.5998   27.0737 O   0  0  0  0  0  0  0  0  0  0  0  0
 32 33  1  0
 20 33  1  0
 20 21  1  0
 21 22  1  0
 21 23  1  0
 23 24  1  0
 23 25  1  0
 25 26  1  0
 26 19  1  0
 19  1  1  0
  1  2  1  0
  2  3  2  0
  2  5  1  0
  5  6  2  0
  6  7  1  0
  7  8  2  0
  8  9  1  0
  9 10  2  0
 10 11  1  0
 11 12  2  0
 11 13  1  0
 13 14  2  0
 14 15  1  0
 15 16  2  0
 16 17  1  0
 17 18  2  0
 26 27  1  0
 27 28  1  0
 27 20  1  0
 10  5  1  0
 18 13  1  0
 18  9  1  0
 22 29  1  0
 25 30  1  0
  1  4  1  0
 28 31  1  0
M  END
> <minimizedAffinity>
-7.73234

> <CNNscore>
0.2152855545

> <CNNaffinity>
4.5039849281

> <CNN_VS>
0.9696428776

> <CNNaffinity_variance>
0.5517730713

$$$$



 33 36  0  0  0  0  0  0  0  0999 V2000
  -30.0652   -0.0595   25.1105 N   0  0  0  0  0  0  0  0  0  0  0  0
  -30.1671    0.1049   26.4717 C   0  0  0  0  0  0  0  0  0  0  0  0
  -29.5176    0.9210   27.1179 O   0  0  0  0  0  0  0  0  0  0  0  0
  -30.7325   -0.6119   24.6427 H   0  0  0  0  0  0  0  0  0  0  0  0
  -31.1907   -0.7082   27.1630 C   0  0  0  0  0  0  0  0  0  0  0  0
  -30.7407   -1.7455   28.0002 C   0  0  0  0  0  0  0  0  0  0  0  0
  -31.6475   -2.5555   28.7089 C   0  0  0  0  0  0  0  0  0  0  0  0
  -33.0245   -2.3556   28.5917 C   0  0  0  0  0  0  0  0  0  0  0  0
  -33.4771   -1.3485   27.7483 C   0  0  0  0  0  0  0  0  0  0  0  0
  -32.5589   -0.5388   27.0422 C   0  0  0  0  0  0  0  0  0  0  0  0
  -33.3627    0.3796   26.1974 C   0  0  0  0  0  0  0  0  0  0  0  0
  -32.9665    1.2240   25.4204 O   0  0  0  0  0  0  0  0  0  0  0  0
  -34.7836    0.0806   26.4658 C   0  0  0  0  0  0  0  0  0  0  0  0
  -35.9106    0.6612   25.9176 C   0  0  0  0  0  0  0  0  0  0  0  0
  -37.1414    0.1750   26.3504 C   0  0  0  0  0  0  0  0  0  0  0  0
  -37.2146   -0.8575   27.3051 C   0  0  0  0  0  0  0  0  0  0  0  0
  -36.0552   -1.4318   27.8397 C   0  0  0  0  0  0  0  0  0  0  0  0
  -34.8285   -0.9575   27.4079 C   0  0  0  0  0  0  0  0  0  0  0  0
  -29.0012    0.5593   24.3474 C   0  0  0  0  0  0  0  0  0  0  0  0
  -30.9077    3.5843   22.6413 C   0  0  0  0  0  0  0  0  0  0  0  0
  -30.7506    2.9373   21.2474 C   0  0  0  0  0  0  0  0  0  0  0  0
  -31.4787    3.6209   20.2288 O   0  0  0  0  0  0  0  0  0  0  0  0
  -31.0580    1.4274   21.2657 C   0  0  0  0  0  0  0  0  0  0  0  0
  -32.5350    1.1166   21.5326 C   0  0  0  0  0  0  0  0  0  0  0  0
  -30.1901    0.6732   22.1849 N   0  0  0  0  0  0  0  0  0  0  0  0
  -29.5112    1.4946   23.2192 C   0  0  0  0  0  0  0  0  0  0  0  0
  -30.4216    2.6258   23.7574 C   0  0  0  0  0  0  0  0  0  0  0  0
  -29.7519    3.4163   24.7561 O   0  0  0  0  0  0  0  0  0  0  0  0
  -32.4290    3.5572   20.4126 H   0  0  0  0  0  0  0  0  0  0  0  0
  -29.4729    0.2051   21.6310 H   0  0  0  0  0  0  0  0  0  0  0  0
  -28.9893    3.8634   24.3567 H   0  0  0  0  0  0  0  0  0  0  0  0
  -32.3644    4.6046   24.2666 C   0  0  0  0  0  0  0  0  0  0  0  0
  -32.2552    3.9478   23.0088 O   0  0  0  0  0  0  0  0  0  0  0  0
 32 33  1  0
 20 33  1  0
 20 21  1  0
 21 22  1  0
 21 23  1  0
 23 24  1  0
 23 25  1  0
 25 26  1  0
 26 19  1  0
 19  1  1  0
  1  2  1  0
  2  3  2  0
  2  5  1  0
  5  6  2  0
  6  7  1  0
  7  8  2  0
  8  9  1  0
  9 10  2  0
 10 11  1  0
 11 12  2  0
 11 13  1  0
 13 14  2  0
 14 15  1  0
 15 16  2  0
 16 17  1  0
 17 18  2  0
 26 27  1  0
 27 28  1  0
 27 20  1  0
 10  5  1  0
 18 13  1  0
 18  9  1  0
 22 29  1  0
 25 30  1  0
  1  4  1  0
 28 31  1  0
M  END
> <minimizedAffinity>
-7.30724

> <CNNscore>
0.2144229263

> <CNNaffinity>
3.1777994633

> <CNN_VS>
0.6813930869

> <CNNaffinity_variance>
1.6343284845

$$$$



 33 36  0  0  0  0  0  0  0  0999 V2000
  -30.3466    0.3761   24.4920 N   0  0  0  0  0  0  0  0  0  0  0  0
  -30.5000    0.6248   25.8354 C   0  0  0  0  0  0  0  0  0  0  0  0
  -30.0613    1.6180   26.4070 O   0  0  0  0  0  0  0  0  0  0  0  0
  -30.8647   -0.3506   24.0764 H   0  0  0  0  0  0  0  0  0  0  0  0
  -31.3199   -0.3402   26.5991 C   0  0  0  0  0  0  0  0  0  0  0  0
  -32.6691   -0.0113   26.8254 C   0  0  0  0  0  0  0  0  0  0  0  0
  -33.5235   -0.8814   27.5277 C   0  0  0  0  0  0  0  0  0  0  0  0
  -33.0498   -2.0957   28.0287 C   0  0  0  0  0  0  0  0  0  0  0  0
  -31.7128   -2.4165   27.8299 C   0  0  0  0  0  0  0  0  0  0  0  0
  -30.8626   -1.5373   27.1216 C   0  0  0  0  0  0  0  0  0  0  0  0
  -29.5077   -2.1429   27.1459 C   0  0  0  0  0  0  0  0  0  0  0  0
  -28.4806   -1.7027   26.6715 O   0  0  0  0  0  0  0  0  0  0  0  0
  -29.6191   -3.4208   27.8774 C   0  0  0  0  0  0  0  0  0  0  0  0
  -28.6320   -4.3415   28.1701 C   0  0  0  0  0  0  0  0  0  0  0  0
  -29.0183   -5.4697   28.8887 C   0  0  0  0  0  0  0  0  0  0  0  0
  -30.3572   -5.6487   29.2867 C   0  0  0  0  0  0  0  0  0  0  0  0
  -31.3361   -4.6956   28.9812 C   0  0  0  0  0  0  0  0  0  0  0  0
  -30.9566   -3.5684   28.2732 C   0  0  0  0  0  0  0  0  0  0  0  0
  -29.4420    1.1559   23.6728 C   0  0  0  0  0  0  0  0  0  0  0  0
  -31.6864    4.1360   22.3394 C   0  0  0  0  0  0  0  0  0  0  0  0
  -31.7696    3.4880   20.9397 C   0  0  0  0  0  0  0  0  0  0  0  0
  -32.6831    4.1534   20.0693 O   0  0  0  0  0  0  0  0  0  0  0  0
  -32.0376    1.9721   21.0124 C   0  0  0  0  0  0  0  0  0  0  0  0
  -33.4356    1.6322   21.5407 C   0  0  0  0  0  0  0  0  0  0  0  0
  -31.0030    1.2387   21.7598 N   0  0  0  0  0  0  0  0  0  0  0  0
  -30.1660    2.0770   22.6553 C   0  0  0  0  0  0  0  0  0  0  0  0
  -30.9877    3.1912   23.3493 C   0  0  0  0  0  0  0  0  0  0  0  0
  -30.1655    3.9984   24.2114 O   0  0  0  0  0  0  0  0  0  0  0  0
  -33.5833    4.0709   20.4212 H   0  0  0  0  0  0  0  0  0  0  0  0
  -30.3878    0.7835   21.0855 H   0  0  0  0  0  0  0  0  0  0  0  0
  -29.4966    4.4595   23.6815 H   0  0  0  0  0  0  0  0  0  0  0  0
  -32.8473    5.1948   24.1659 C   0  0  0  0  0  0  0  0  0  0  0  0
  -32.9530    4.4733   22.9438 O   0  0  0  0  0  0  0  0  0  0  0  0
 32 33  1  0
 20 33  1  0
 20 21  1  0
 21 22  1  0
 21 23  1  0
 23 24  1  0
 23 25  1  0
 25 26  1  0
 26 19  1  0
 19  1  1  0
  1  2  1  0
  2  3  2  0
  2  5  1  0
  5  6  2  0
  6  7  1  0
  7  8  2  0
  8  9  1  0
  9 10  2  0
 10 11  1  0
 11 12  2  0
 11 13  1  0
 13 14  2  0
 14 15  1  0
 15 16  2  0
 16 17  1  0
 17 18  2  0
 26 27  1  0
 27 28  1  0
 27 20  1  0
 10  5  1  0
 18 13  1  0
 18  9  1  0
 22 29  1  0
 25 30  1  0
  1  4  1  0
 28 31  1  0
M  END
> <minimizedAffinity>
-7.43773

> <CNNscore>
0.1838813424

> <CNNaffinity>
3.7136859894

> <CNN_VS>
0.6828775406

> <CNNaffinity_variance>
0.7679101825

$$$$



 33 36  0  0  0  0  0  0  0  0999 V2000
  -32.3016   -1.4198   26.9192 N   0  0  0  0  0  0  0  0  0  0  0  0
  -32.2967   -2.1325   28.0948 C   0  0  0  0  0  0  0  0  0  0  0  0
  -33.1442   -2.0168   28.9746 O   0  0  0  0  0  0  0  0  0  0  0  0
  -31.6892   -1.6844   26.1952 H   0  0  0  0  0  0  0  0  0  0  0  0
  -31.2390   -3.1548   28.2462 C   0  0  0  0  0  0  0  0  0  0  0  0
  -31.6082   -4.3960   28.7963 C   0  0  0  0  0  0  0  0  0  0  0  0
  -30.6675   -5.4300   28.9588 C   0  0  0  0  0  0  0  0  0  0  0  0
  -29.3347   -5.2469   28.5848 C   0  0  0  0  0  0  0  0  0  0  0  0
  -28.9575   -4.0158   28.0630 C   0  0  0  0  0  0  0  0  0  0  0  0
  -29.9096   -2.9839   27.9017 C   0  0  0  0  0  0  0  0  0  0  0  0
  -29.1736   -1.8014   27.3886 C   0  0  0  0  0  0  0  0  0  0  0  0
  -29.6111   -0.6981   27.1335 O   0  0  0  0  0  0  0  0  0  0  0  0
  -27.7610   -2.2041   27.2381 C   0  0  0  0  0  0  0  0  0  0  0  0
  -26.6867   -1.4530   26.8028 C   0  0  0  0  0  0  0  0  0  0  0  0
  -25.4490   -2.0896   26.7657 C   0  0  0  0  0  0  0  0  0  0  0  0
  -25.3182   -3.4369   27.1537 C   0  0  0  0  0  0  0  0  0  0  0  0
  -26.4238   -4.1726   27.5967 C   0  0  0  0  0  0  0  0  0  0  0  0
  -27.6556   -3.5430   27.6426 C   0  0  0  0  0  0  0  0  0  0  0  0
  -33.1847   -0.2895   26.7189 C   0  0  0  0  0  0  0  0  0  0  0  0
  -31.7752    2.6336   24.4463 C   0  0  0  0  0  0  0  0  0  0  0  0
  -32.6417    2.1672   23.2555 C   0  0  0  0  0  0  0  0  0  0  0  0
  -32.6115    3.0731   22.1540 O   0  0  0  0  0  0  0  0  0  0  0  0
  -34.0814    1.8195   23.6810 C   0  0  0  0  0  0  0  0  0  0  0  0
  -34.8895    3.0427   24.1282 C   0  0  0  0  0  0  0  0  0  0  0  0
  -34.1418    0.7534   24.6942 N   0  0  0  0  0  0  0  0  0  0  0  0
  -32.8741    0.5185   25.4311 C   0  0  0  0  0  0  0  0  0  0  0  0
  -32.1191    1.8372   25.7301 C   0  0  0  0  0  0  0  0  0  0  0  0
  -30.8915    1.5965   26.4412 O   0  0  0  0  0  0  0  0  0  0  0  0
  -33.0093    3.9173   22.4186 H   0  0  0  0  0  0  0  0  0  0  0  0
  -34.4014   -0.1147   24.2256 H   0  0  0  0  0  0  0  0  0  0  0  0
  -30.2928    1.0738   25.8851 H   0  0  0  0  0  0  0  0  0  0  0  0
  -32.2789    4.2427   26.1673 C   0  0  0  0  0  0  0  0  0  0  0  0
  -31.9149    4.0236   24.8091 O   0  0  0  0  0  0  0  0  0  0  0  0
 32 33  1  0
 20 33  1  0
 20 21  1  0
 21 22  1  0
 21 23  1  0
 23 24  1  0
 23 25  1  0
 25 26  1  0
 26 19  1  0
 19  1  1  0
  1  2  1  0
  2  3  2  0
  2  5  1  0
  5  6  2  0
  6  7  1  0
  7  8  2  0
  8  9  1  0
  9 10  2  0
 10 11  1  0
 11 12  2  0
 11 13  1  0
 13 14  2  0
 14 15  1  0
 15 16  2  0
 16 17  1  0
 17 18  2  0
 26 27  1  0
 27 28  1  0
 27 20  1  0
 10  5  1  0
 18 13  1  0
 18  9  1  0
 22 29  1  0
 25 30  1  0
  1  4  1  0
 28 31  1  0
M  END
> <minimizedAffinity>
-7.14026

> <CNNscore>
0.1819469035

> <CNNaffinity>
3.4452221394

> <CNN_VS>
0.6268475056

> <CNNaffinity_variance>
1.8690077066

$$$$



 33 36  0  0  0  0  0  0  0  0999 V2000
  -31.6143   -3.5352   28.8166 N   0  0  0  0  0  0  0  0  0  0  0  0
  -31.0196   -3.8485   27.6173 C   0  0  0  0  0  0  0  0  0  0  0  0
  -31.6301   -4.2323   26.6246 O   0  0  0  0  0  0  0  0  0  0  0  0
  -31.0851   -3.0783   29.5097 H   0  0  0  0  0  0  0  0  0  0  0  0
  -29.5617   -3.6203   27.5205 C   0  0  0  0  0  0  0  0  0  0  0  0
  -28.7272   -4.7525   27.4858 C   0  0  0  0  0  0  0  0  0  0  0  0
  -27.3299   -4.6251   27.3768 C   0  0  0  0  0  0  0  0  0  0  0  0
  -26.7318   -3.3651   27.3093 C   0  0  0  0  0  0  0  0  0  0  0  0
  -27.5476   -2.2420   27.3671 C   0  0  0  0  0  0  0  0  0  0  0  0
  -28.9500   -2.3798   27.4745 C   0  0  0  0  0  0  0  0  0  0  0  0
  -29.5065   -1.0075   27.5759 C   0  0  0  0  0  0  0  0  0  0  0  0
  -30.6674   -0.6763   27.7036 O   0  0  0  0  0  0  0  0  0  0  0  0
  -28.3664   -0.0724   27.4976 C   0  0  0  0  0  0  0  0  0  0  0  0
  -28.3710    1.3076   27.5544 C   0  0  0  0  0  0  0  0  0  0  0  0
  -27.1363    1.9443   27.4623 C   0  0  0  0  0  0  0  0  0  0  0  0
  -25.9497    1.2005   27.3149 C   0  0  0  0  0  0  0  0  0  0  0  0
  -25.9742   -0.1984   27.2663 C   0  0  0  0  0  0  0  0  0  0  0  0
  -27.1982   -0.8373   27.3645 C   0  0  0  0  0  0  0  0  0  0  0  0
  -32.9997   -3.8603   29.0861 C   0  0  0  0  0  0  0  0  0  0  0  0
  -32.9129   -5.2186   32.8069 C   0  0  0  0  0  0  0  0  0  0  0  0
  -33.1253   -6.6676   32.3155 C   0  0  0  0  0  0  0  0  0  0  0  0
  -32.9918   -7.6353   33.3550 O   0  0  0  0  0  0  0  0  0  0  0  0
  -32.2491   -7.0049   31.0935 C   0  0  0  0  0  0  0  0  0  0  0  0
  -30.7527   -7.0573   31.4212 C   0  0  0  0  0  0  0  0  0  0  0  0
  -32.5021   -6.1238   29.9416 N   0  0  0  0  0  0  0  0  0  0  0  0
  -33.1854   -4.8468   30.2694 C   0  0  0  0  0  0  0  0  0  0  0  0
  -32.6995   -4.2526   31.6145 C   0  0  0  0  0  0  0  0  0  0  0  0
  -33.3709   -3.0176   31.9225 O   0  0  0  0  0  0  0  0  0  0  0  0
  -32.0802   -7.6300   33.6866 H   0  0  0  0  0  0  0  0  0  0  0  0
  -33.0835   -6.6324   29.2754 H   0  0  0  0  0  0  0  0  0  0  0  0
  -34.3191   -3.1854   32.0392 H   0  0  0  0  0  0  0  0  0  0  0  0
  -31.9239   -3.9470   34.5984 C   0  0  0  0  0  0  0  0  0  0  0  0
  -31.7751   -5.0167   33.6716 O   0  0  0  0  0  0  0  0  0  0  0  0
 32 33  1  0
 20 33  1  0
 20 21  1  0
 21 22  1  0
 21 23  1  0
 23 24  1  0
 23 25  1  0
 25 26  1  0
 26 19  1  0
 19  1  1  0
  1  2  1  0
  2  3  2  0
  2  5  1  0
  5  6  2  0
  6  7  1  0
  7  8  2  0
  8  9  1  0
  9 10  2  0
 10 11  1  0
 11 12  2  0
 11 13  1  0
 13 14  2  0
 14 15  1  0
 15 16  2  0
 16 17  1  0
 17 18  2  0
 26 27  1  0
 27 28  1  0
 27 20  1  0
 10  5  1  0
 18 13  1  0
 18  9  1  0
 22 29  1  0
 25 30  1  0
  1  4  1  0
 28 31  1  0
M  END
> <minimizedAffinity>
-6.71253

> <CNNscore>
0.1738765836

> <CNNaffinity>
3.8086595535

> <CNN_VS>
0.6622366905

> <CNNaffinity_variance>
1.0748311281

$$$$
