


 36 39  0  0  0  0  0  0  0  0999 V2000
   23.6876    6.8671   13.2930 C   0  0  0  0  0  0  0  0  0  0  0  0
   23.8808    6.7394   14.7458 N   0  0  0  0  0  0  0  0  0  0  0  0
   22.8605    6.4670   15.6198 C   0  0  0  0  0  0  0  0  0  0  0  0
   21.6736    6.3196   15.3994 O   0  0  0  0  0  0  0  0  0  0  0  0
   23.4628    6.3521   16.9467 C   0  0  0  0  0  0  0  0  0  0  0  0
   22.8816    6.1381   18.1804 C   0  0  0  0  0  0  0  0  0  0  0  0
   23.7377    6.0653   19.2865 C   0  0  0  0  0  0  0  0  0  0  0  0
   25.1401    6.2041   19.1362 C   0  0  0  0  0  0  0  0  0  0  0  0
   25.7008    6.4185   17.8680 C   0  0  0  0  0  0  0  0  0  0  0  0
   24.8294    6.4885   16.7973 C   0  0  0  0  0  0  0  0  0  0  0  0
   25.0971    6.6919   15.3762 C   0  0  0  0  0  0  0  0  0  0  0  0
   26.2175    6.7612   14.9103 O   0  0  0  0  0  0  0  0  0  0  0  0
   25.9822    6.1087   20.3543 C   0  0  0  0  0  0  0  0  0  0  0  0
   25.7171    6.5885   21.4402 O   0  0  0  0  0  0  0  0  0  0  0  0
   27.1136    5.4145   20.1473 O   0  0  0  0  0  0  0  0  0  0  0  0
   27.2946    5.0550   19.3011 H   0  0  0  0  0  0  0  0  0  0  0  0
   22.3965    6.1540   12.8037 C   0  0  0  0  0  0  0  0  0  0  0  0
   22.5570    5.0490   11.6909 C   0  0  0  0  0  0  0  0  0  0  0  0
   23.4161    5.6782   10.5801 C   0  0  0  0  0  0  0  0  0  0  0  0
   23.3438    3.8658   12.2921 C   0  0  0  0  0  0  0  0  0  0  0  0
   21.1533    4.6042   11.1793 C   0  0  0  0  0  0  0  0  0  0  0  0
   21.8247    4.4110    8.6971 C   0  0  0  0  0  0  0  0  0  0  0  0
   20.6875    4.7040    9.6926 C   0  0  0  0  0  0  0  0  0  0  0  0
   19.4795    3.8143    9.3691 C   0  0  0  0  0  0  0  0  0  0  0  0
   20.2565    6.1775    9.4641 C   0  0  0  0  0  0  0  0  0  0  0  0
   23.7275    8.3685   12.9097 C   0  0  0  0  0  0  0  0  0  0  0  0
   22.3688    9.0464   12.8916 C   0  0  0  0  0  0  0  0  0  0  0  0
   21.5925    8.9002   11.7247 C   0  0  0  0  0  0  0  0  0  0  0  0
   20.3341    9.4816   11.6254 C   0  0  0  0  0  0  0  0  0  0  0  0
   19.8314   10.2250   12.6885 C   0  0  0  0  0  0  0  0  0  0  0  0
   20.5744   10.3928   13.8668 C   0  0  0  0  0  0  0  0  0  0  0  0
   20.0399   11.1489   14.9236 C   0  0  0  0  0  0  0  0  0  0  0  0
   20.7490   11.3311   16.1093 C   0  0  0  0  0  0  0  0  0  0  0  0
   22.0000   10.7495   16.2564 C   0  0  0  0  0  0  0  0  0  0  0  0
   22.5448    9.9928   15.2144 C   0  0  0  0  0  0  0  0  0  0  0  0
   21.8580    9.7984   13.9905 C   0  0  0  0  0  0  0  0  0  0  0  0
 22 23  1  0
 23 24  1  0
 23 25  1  0
 23 21  1  0
 21 18  1  0
 18 19  1  0
 18 20  1  0
 18 17  1  0
  1 17  1  0
  1 26  1  0
 26 27  1  0
 27 28  2  0
 28 29  1  0
 29 30  2  0
 30 31  1  0
 31 32  2  0
 32 33  1  0
 33 34  2  0
 34 35  1  0
 35 36  2  0
  1  2  1  0
  2  3  1  0
  3  4  2  0
  3  5  1  0
  5  6  2  0
  6  7  1  0
  7  8  2  0
  8 13  1  0
 13 14  2  0
 13 15  1  0
  8  9  1  0
  9 10  2  0
 10 11  1  0
 11 12  2  0
 36 27  1  0
 11  2  1  0
 36 31  1  0
 10  5  1  0
 15 16  1  0
M  END
> <minimizedAffinity>
-8.57546

> <CNNscore>
0.6190837026

> <CNNaffinity>
5.8129882812

> <CNN_VS>
3.5987262726

> <CNNaffinity_variance>
0.2194643617

$$$$



 36 39  0  0  0  0  0  0  0  0999 V2000
   23.1053    6.7906   14.0286 C   0  0  0  0  0  0  0  0  0  0  0  0
   23.5419    6.6939   15.4302 N   0  0  0  0  0  0  0  0  0  0  0  0
   22.7257    6.2662   16.4451 C   0  0  0  0  0  0  0  0  0  0  0  0
   21.5557    5.9365   16.4081 O   0  0  0  0  0  0  0  0  0  0  0  0
   23.5397    6.2458   17.6590 C   0  0  0  0  0  0  0  0  0  0  0  0
   23.1995    5.9438   18.9624 C   0  0  0  0  0  0  0  0  0  0  0  0
   24.2198    6.0043   19.9199 C   0  0  0  0  0  0  0  0  0  0  0  0
   25.5432    6.3590   19.5570 C   0  0  0  0  0  0  0  0  0  0  0  0
   25.8579    6.6583   18.2228 C   0  0  0  0  0  0  0  0  0  0  0  0
   24.8285    6.5926   17.3025 C   0  0  0  0  0  0  0  0  0  0  0  0
   24.8350    6.8355   15.8626 C   0  0  0  0  0  0  0  0  0  0  0  0
   25.8441    7.0780   15.2301 O   0  0  0  0  0  0  0  0  0  0  0  0
   26.5709    6.3951   20.6267 C   0  0  0  0  0  0  0  0  0  0  0  0
   27.6792    5.8975   20.5638 O   0  0  0  0  0  0  0  0  0  0  0  0
   26.1554    7.0552   21.7205 O   0  0  0  0  0  0  0  0  0  0  0  0
   25.2967    7.4295   21.7438 H   0  0  0  0  0  0  0  0  0  0  0  0
   23.1166    8.2541   13.5060 C   0  0  0  0  0  0  0  0  0  0  0  0
   21.7225    8.9619   13.3047 C   0  0  0  0  0  0  0  0  0  0  0  0
   21.8811   10.3898   13.8559 C   0  0  0  0  0  0  0  0  0  0  0  0
   21.4434    9.0619   11.7905 C   0  0  0  0  0  0  0  0  0  0  0  0
   20.6086    8.1584   14.0419 C   0  0  0  0  0  0  0  0  0  0  0  0
   19.9217    6.7238   12.0123 C   0  0  0  0  0  0  0  0  0  0  0  0
   19.4579    7.3876   13.3216 C   0  0  0  0  0  0  0  0  0  0  0  0
   18.7705    6.3435   14.2117 C   0  0  0  0  0  0  0  0  0  0  0  0
   18.3915    8.4477   12.9367 C   0  0  0  0  0  0  0  0  0  0  0  0
   23.9696    5.8369   13.1649 C   0  0  0  0  0  0  0  0  0  0  0  0
   23.2499    5.2594   11.9589 C   0  0  0  0  0  0  0  0  0  0  0  0
   22.5262    4.0659   12.1523 C   0  0  0  0  0  0  0  0  0  0  0  0
   21.8325    3.4723   11.1044 C   0  0  0  0  0  0  0  0  0  0  0  0
   21.8549    4.0577    9.8425 C   0  0  0  0  0  0  0  0  0  0  0  0
   22.5640    5.2461    9.6109 C   0  0  0  0  0  0  0  0  0  0  0  0
   22.5677    5.8137    8.3256 C   0  0  0  0  0  0  0  0  0  0  0  0
   23.2573    6.9957    8.0623 C   0  0  0  0  0  0  0  0  0  0  0  0
   23.9449    7.6309    9.0863 C   0  0  0  0  0  0  0  0  0  0  0  0
   23.9495    7.0793   10.3712 C   0  0  0  0  0  0  0  0  0  0  0  0
   23.2708    5.8723   10.6713 C   0  0  0  0  0  0  0  0  0  0  0  0
 22 23  1  0
 23 24  1  0
 23 25  1  0
 23 21  1  0
 21 18  1  0
 18 19  1  0
 18 20  1  0
 18 17  1  0
  1 17  1  0
  1 26  1  0
 26 27  1  0
 27 28  2  0
 28 29  1  0
 29 30  2  0
 30 31  1  0
 31 32  2  0
 32 33  1  0
 33 34  2  0
 34 35  1  0
 35 36  2  0
  1  2  1  0
  2  3  1  0
  3  4  2  0
  3  5  1  0
  5  6  2  0
  6  7  1  0
  7  8  2  0
  8 13  1  0
 13 14  2  0
 13 15  1  0
  8  9  1  0
  9 10  2  0
 10 11  1  0
 11 12  2  0
 36 27  1  0
 11  2  1  0
 36 31  1  0
 10  5  1  0
 15 16  1  0
M  END
> <minimizedAffinity>
-9.47400

> <CNNscore>
0.4799975455

> <CNNaffinity>
6.0268592834

> <CNN_VS>
2.8928775787

> <CNNaffinity_variance>
0.1569387466

$$$$



 36 39  0  0  0  0  0  0  0  0999 V2000
   23.0381    6.6980   13.3195 C   0  0  0  0  0  0  0  0  0  0  0  0
   23.6099    6.5629   14.6683 N   0  0  0  0  0  0  0  0  0  0  0  0
   24.7966    7.1372   15.0439 C   0  0  0  0  0  0  0  0  0  0  0  0
   25.5780    7.7962   14.3852 O   0  0  0  0  0  0  0  0  0  0  0  0
   24.9812    6.8323   16.4615 C   0  0  0  0  0  0  0  0  0  0  0  0
   26.0262    7.1270   17.3139 C   0  0  0  0  0  0  0  0  0  0  0  0
   25.9060    6.7029   18.6433 C   0  0  0  0  0  0  0  0  0  0  0  0
   24.7558    6.0036   19.0866 C   0  0  0  0  0  0  0  0  0  0  0  0
   23.7090    5.7212   18.1961 C   0  0  0  0  0  0  0  0  0  0  0  0
   23.8591    6.1501   16.8906 C   0  0  0  0  0  0  0  0  0  0  0  0
   22.9612    6.0191   15.7466 C   0  0  0  0  0  0  0  0  0  0  0  0
   21.8477    5.5378   15.8224 O   0  0  0  0  0  0  0  0  0  0  0  0
   24.6988    5.5927   20.5114 C   0  0  0  0  0  0  0  0  0  0  0  0
   24.1954    4.5698   20.9358 O   0  0  0  0  0  0  0  0  0  0  0  0
   25.2778    6.4863   21.3305 O   0  0  0  0  0  0  0  0  0  0  0  0
   25.6585    7.2667   20.9784 H   0  0  0  0  0  0  0  0  0  0  0  0
   22.9485    8.1803   12.8616 C   0  0  0  0  0  0  0  0  0  0  0  0
   21.5404    8.8830   12.9541 C   0  0  0  0  0  0  0  0  0  0  0  0
   21.7903   10.2674   13.5776 C   0  0  0  0  0  0  0  0  0  0  0  0
   21.0077    9.0925   11.5213 C   0  0  0  0  0  0  0  0  0  0  0  0
   20.5682    8.0119   13.8063 C   0  0  0  0  0  0  0  0  0  0  0  0
   19.5893    6.5989   11.8843 C   0  0  0  0  0  0  0  0  0  0  0  0
   19.3115    7.2829   13.2352 C   0  0  0  0  0  0  0  0  0  0  0  0
   18.6984    6.2674   14.2089 C   0  0  0  0  0  0  0  0  0  0  0  0
   18.2461    8.3811   12.9741 C   0  0  0  0  0  0  0  0  0  0  0  0
   23.8483    5.8132   12.3380 C   0  0  0  0  0  0  0  0  0  0  0  0
   23.0731    5.3683   11.1105 C   0  0  0  0  0  0  0  0  0  0  0  0
   22.2551    4.2287   11.2444 C   0  0  0  0  0  0  0  0  0  0  0  0
   21.5058    3.7563   10.1735 C   0  0  0  0  0  0  0  0  0  0  0  0
   21.5654    4.4108    8.9472 C   0  0  0  0  0  0  0  0  0  0  0  0
   22.3680    5.5487    8.7750 C   0  0  0  0  0  0  0  0  0  0  0  0
   22.4074    6.1885    7.5247 C   0  0  0  0  0  0  0  0  0  0  0  0
   23.1899    7.3235    7.3209 C   0  0  0  0  0  0  0  0  0  0  0  0
   23.9364    7.8392    8.3705 C   0  0  0  0  0  0  0  0  0  0  0  0
   23.9065    7.2148    9.6212 C   0  0  0  0  0  0  0  0  0  0  0  0
   23.1333    6.0518    9.8602 C   0  0  0  0  0  0  0  0  0  0  0  0
 22 23  1  0
 23 24  1  0
 23 25  1  0
 23 21  1  0
 21 18  1  0
 18 19  1  0
 18 20  1  0
 18 17  1  0
  1 17  1  0
  1 26  1  0
 26 27  1  0
 27 28  2  0
 28 29  1  0
 29 30  2  0
 30 31  1  0
 31 32  2  0
 32 33  1  0
 33 34  2  0
 34 35  1  0
 35 36  2  0
  1  2  1  0
  2  3  1  0
  3  4  2  0
  3  5  1  0
  5  6  2  0
  6  7  1  0
  7  8  2  0
  8 13  1  0
 13 14  2  0
 13 15  1  0
  8  9  1  0
  9 10  2  0
 10 11  1  0
 11 12  2  0
 36 27  1  0
 11  2  1  0
 36 31  1  0
 10  5  1  0
 15 16  1  0
M  END
> <minimizedAffinity>
-9.18811

> <CNNscore>
0.4792576730

> <CNNaffinity>
5.8362641335

> <CNN_VS>
2.7970743179

> <CNNaffinity_variance>
0.2053369284

$$$$



 36 39  0  0  0  0  0  0  0  0999 V2000
   23.5653    6.9952   12.9393 C   0  0  0  0  0  0  0  0  0  0  0  0
   23.8624    6.7614   14.3611 N   0  0  0  0  0  0  0  0  0  0  0  0
   25.0023    7.2104   14.9758 C   0  0  0  0  0  0  0  0  0  0  0  0
   25.9456    7.8170   14.5053 O   0  0  0  0  0  0  0  0  0  0  0  0
   24.8932    6.8410   16.3858 C   0  0  0  0  0  0  0  0  0  0  0  0
   25.7822    7.0084   17.4286 C   0  0  0  0  0  0  0  0  0  0  0  0
   25.3811    6.5515   18.6903 C   0  0  0  0  0  0  0  0  0  0  0  0
   24.1136    5.9462   18.8800 C   0  0  0  0  0  0  0  0  0  0  0  0
   23.2311    5.7925   17.8001 C   0  0  0  0  0  0  0  0  0  0  0  0
   23.6574    6.2507   16.5676 C   0  0  0  0  0  0  0  0  0  0  0  0
   22.9806    6.2427   15.2737 C   0  0  0  0  0  0  0  0  0  0  0  0
   21.8361    5.8638   15.1203 O   0  0  0  0  0  0  0  0  0  0  0  0
   23.7577    5.4933   20.2475 C   0  0  0  0  0  0  0  0  0  0  0  0
   24.3574    4.6581   20.8975 O   0  0  0  0  0  0  0  0  0  0  0  0
   22.6677    6.1131   20.7298 O   0  0  0  0  0  0  0  0  0  0  0  0
   22.2236    6.7529   20.2090 H   0  0  0  0  0  0  0  0  0  0  0  0
   22.2567    6.2904   12.4855 C   0  0  0  0  0  0  0  0  0  0  0  0
   22.3829    5.1665   11.3874 C   0  0  0  0  0  0  0  0  0  0  0  0
   23.2685    5.7509   10.2730 C   0  0  0  0  0  0  0  0  0  0  0  0
   23.1247    3.9639   12.0071 C   0  0  0  0  0  0  0  0  0  0  0  0
   20.9666    4.7651   10.8746 C   0  0  0  0  0  0  0  0  0  0  0  0
   21.7673    4.2997    8.4681 C   0  0  0  0  0  0  0  0  0  0  0  0
   20.5728    4.6669    9.3672 C   0  0  0  0  0  0  0  0  0  0  0  0
   19.4120    3.6993    9.1001 C   0  0  0  0  0  0  0  0  0  0  0  0
   20.1064    6.0846    8.9407 C   0  0  0  0  0  0  0  0  0  0  0  0
   23.5499    8.5220   12.6725 C   0  0  0  0  0  0  0  0  0  0  0  0
   22.3641    9.2515   13.2787 C   0  0  0  0  0  0  0  0  0  0  0  0
   22.5050    9.7222   14.5994 C   0  0  0  0  0  0  0  0  0  0  0  0
   21.4720   10.4063   15.2289 C   0  0  0  0  0  0  0  0  0  0  0  0
   20.2768   10.6269   14.5519 C   0  0  0  0  0  0  0  0  0  0  0  0
   20.0987   10.1737   13.2360 C   0  0  0  0  0  0  0  0  0  0  0  0
   18.8803   10.4117   12.5780 C   0  0  0  0  0  0  0  0  0  0  0  0
   18.6721    9.9798   11.2695 C   0  0  0  0  0  0  0  0  0  0  0  0
   19.6861    9.3117   10.5985 C   0  0  0  0  0  0  0  0  0  0  0  0
   20.9050    9.0686   11.2391 C   0  0  0  0  0  0  0  0  0  0  0  0
   21.1462    9.4812   12.5729 C   0  0  0  0  0  0  0  0  0  0  0  0
 22 23  1  0
 23 24  1  0
 23 25  1  0
 23 21  1  0
 21 18  1  0
 18 19  1  0
 18 20  1  0
 18 17  1  0
  1 17  1  0
  1 26  1  0
 26 27  1  0
 27 28  2  0
 28 29  1  0
 29 30  2  0
 30 31  1  0
 31 32  2  0
 32 33  1  0
 33 34  2  0
 34 35  1  0
 35 36  2  0
  1  2  1  0
  2  3  1  0
  3  4  2  0
  3  5  1  0
  5  6  2  0
  6  7  1  0
  7  8  2  0
  8 13  1  0
 13 14  2  0
 13 15  1  0
  8  9  1  0
  9 10  2  0
 10 11  1  0
 11 12  2  0
 36 27  1  0
 11  2  1  0
 36 31  1  0
 10  5  1  0
 15 16  1  0
M  END
> <minimizedAffinity>
-8.33145

> <CNNscore>
0.4617002010

> <CNNaffinity>
5.5564217567

> <CNN_VS>
2.5654010773

> <CNNaffinity_variance>
0.3337854147

$$$$



 36 39  0  0  0  0  0  0  0  0999 V2000
   22.8894    6.8197   12.8623 C   0  0  0  0  0  0  0  0  0  0  0  0
   23.3865    6.8150   14.2469 N   0  0  0  0  0  0  0  0  0  0  0  0
   24.4796    7.5334   14.6568 C   0  0  0  0  0  0  0  0  0  0  0  0
   25.2265    8.2406   14.0078 O   0  0  0  0  0  0  0  0  0  0  0  0
   24.6063    7.3212   16.0974 C   0  0  0  0  0  0  0  0  0  0  0  0
   25.5586    7.7703   16.9902 C   0  0  0  0  0  0  0  0  0  0  0  0
   25.4010    7.4020   18.3322 C   0  0  0  0  0  0  0  0  0  0  0  0
   24.3059    6.6039   18.7478 C   0  0  0  0  0  0  0  0  0  0  0  0
   23.3530    6.1649   17.8162 C   0  0  0  0  0  0  0  0  0  0  0  0
   23.5383    6.5425   16.4995 C   0  0  0  0  0  0  0  0  0  0  0  0
   22.7329    6.2575   15.3152 C   0  0  0  0  0  0  0  0  0  0  0  0
   21.6743    5.6617   15.3543 O   0  0  0  0  0  0  0  0  0  0  0  0
   24.2036    6.2603   20.1877 C   0  0  0  0  0  0  0  0  0  0  0  0
   25.1143    5.8626   20.8893 O   0  0  0  0  0  0  0  0  0  0  0  0
   22.9634    6.4348   20.6738 O   0  0  0  0  0  0  0  0  0  0  0  0
   22.2792    6.7423   20.1123 H   0  0  0  0  0  0  0  0  0  0  0  0
   22.0181    5.5731   12.5432 C   0  0  0  0  0  0  0  0  0  0  0  0
   22.1002    4.9870   11.0821 C   0  0  0  0  0  0  0  0  0  0  0  0
   23.4074    5.5259   10.4749 C   0  0  0  0  0  0  0  0  0  0  0  0
   22.2158    3.4516   11.1810 C   0  0  0  0  0  0  0  0  0  0  0  0
   20.8426    5.4167   10.2672 C   0  0  0  0  0  0  0  0  0  0  0  0
   19.7427    5.9307    7.9923 C   0  0  0  0  0  0  0  0  0  0  0  0
   20.4994    4.8905    8.8381 C   0  0  0  0  0  0  0  0  0  0  0  0
   21.7238    4.3886    8.0608 C   0  0  0  0  0  0  0  0  0  0  0  0
   19.5424    3.6838    9.0312 C   0  0  0  0  0  0  0  0  0  0  0  0
   22.1482    8.1551   12.5978 C   0  0  0  0  0  0  0  0  0  0  0  0
   21.2513    8.6094   13.7359 C   0  0  0  0  0  0  0  0  0  0  0  0
   21.7930    9.5324   14.6527 C   0  0  0  0  0  0  0  0  0  0  0  0
   21.0396   10.0062   15.7200 C   0  0  0  0  0  0  0  0  0  0  0  0
   19.7330    9.5613   15.8941 C   0  0  0  0  0  0  0  0  0  0  0  0
   19.1587    8.6429   15.0022 C   0  0  0  0  0  0  0  0  0  0  0  0
   17.8365    8.2122   15.2039 C   0  0  0  0  0  0  0  0  0  0  0  0
   17.2341    7.3050   14.3343 C   0  0  0  0  0  0  0  0  0  0  0  0
   17.9453    6.8242   13.2444 C   0  0  0  0  0  0  0  0  0  0  0  0
   19.2614    7.2445   13.0292 C   0  0  0  0  0  0  0  0  0  0  0  0
   19.9096    8.1548   13.9002 C   0  0  0  0  0  0  0  0  0  0  0  0
 22 23  1  0
 23 24  1  0
 23 25  1  0
 23 21  1  0
 21 18  1  0
 18 19  1  0
 18 20  1  0
 18 17  1  0
  1 17  1  0
  1 26  1  0
 26 27  1  0
 27 28  2  0
 28 29  1  0
 29 30  2  0
 30 31  1  0
 31 32  2  0
 32 33  1  0
 33 34  2  0
 34 35  1  0
 35 36  2  0
  1  2  1  0
  2  3  1  0
  3  4  2  0
  3  5  1  0
  5  6  2  0
  6  7  1  0
  7  8  2  0
  8 13  1  0
 13 14  2  0
 13 15  1  0
  8  9  1  0
  9 10  2  0
 10 11  1  0
 11 12  2  0
 36 27  1  0
 11  2  1  0
 36 31  1  0
 10  5  1  0
 15 16  1  0
M  END
> <minimizedAffinity>
-8.08849

> <CNNscore>
0.4308652878

> <CNNaffinity>
5.7582736015

> <CNN_VS>
2.4810402393

> <CNNaffinity_variance>
0.1530939192

$$$$



 36 39  0  0  0  0  0  0  0  0999 V2000
   22.9434    6.6836   13.2815 C   0  0  0  0  0  0  0  0  0  0  0  0
   23.5268    6.5525   14.6256 N   0  0  0  0  0  0  0  0  0  0  0  0
   24.7182    7.1254   14.9884 C   0  0  0  0  0  0  0  0  0  0  0  0
   25.4953    7.7799   14.3201 O   0  0  0  0  0  0  0  0  0  0  0  0
   24.9146    6.8258   16.4055 C   0  0  0  0  0  0  0  0  0  0  0  0
   25.9679    7.1213   17.2474 C   0  0  0  0  0  0  0  0  0  0  0  0
   25.8584    6.7029   18.5795 C   0  0  0  0  0  0  0  0  0  0  0  0
   24.7104    6.0081   19.0359 C   0  0  0  0  0  0  0  0  0  0  0  0
   23.6551    5.7247   18.1558 C   0  0  0  0  0  0  0  0  0  0  0  0
   23.7947    6.1481   16.8473 C   0  0  0  0  0  0  0  0  0  0  0  0
   22.8864    6.0147   15.7118 C   0  0  0  0  0  0  0  0  0  0  0  0
   21.7725    5.5364   15.7994 O   0  0  0  0  0  0  0  0  0  0  0  0
   24.6651    5.6031   20.4627 C   0  0  0  0  0  0  0  0  0  0  0  0
   24.1876    4.5703   20.8929 O   0  0  0  0  0  0  0  0  0  0  0  0
   25.2228    6.5148   21.2767 O   0  0  0  0  0  0  0  0  0  0  0  0
   25.5838    7.3026   20.9202 H   0  0  0  0  0  0  0  0  0  0  0  0
   22.7519    8.1679   12.8627 C   0  0  0  0  0  0  0  0  0  0  0  0
   21.2733    8.6891   12.6988 C   0  0  0  0  0  0  0  0  0  0  0  0
   21.0717    8.9465   11.1952 C   0  0  0  0  0  0  0  0  0  0  0  0
   20.3111    7.5605   13.1243 C   0  0  0  0  0  0  0  0  0  0  0  0
   21.0660    9.9740   13.5568 C   0  0  0  0  0  0  0  0  0  0  0  0
   20.3192   11.2499   15.6695 C   0  0  0  0  0  0  0  0  0  0  0  0
   21.0090    9.9895   15.1168 C   0  0  0  0  0  0  0  0  0  0  0  0
   20.3524    8.7391   15.7172 C   0  0  0  0  0  0  0  0  0  0  0  0
   22.4800   10.0271   15.6107 C   0  0  0  0  0  0  0  0  0  0  0  0
   23.8092    5.8820   12.2762 C   0  0  0  0  0  0  0  0  0  0  0  0
   23.0830    5.4828   11.0038 C   0  0  0  0  0  0  0  0  0  0  0  0
   22.2224    4.3693   11.0765 C   0  0  0  0  0  0  0  0  0  0  0  0
   21.5134    3.9395    9.9612 C   0  0  0  0  0  0  0  0  0  0  0  0
   21.6564    4.6110    8.7512 C   0  0  0  0  0  0  0  0  0  0  0  0
   22.5035    5.7239    8.6394 C   0  0  0  0  0  0  0  0  0  0  0  0
   22.6272    6.3818    7.4041 C   0  0  0  0  0  0  0  0  0  0  0  0
   23.4556    7.4930    7.2597 C   0  0  0  0  0  0  0  0  0  0  0  0
   24.1645    7.9666    8.3543 C   0  0  0  0  0  0  0  0  0  0  0  0
   24.0508    7.3238    9.5908 C   0  0  0  0  0  0  0  0  0  0  0  0
   23.2288    6.1838    9.7703 C   0  0  0  0  0  0  0  0  0  0  0  0
 22 23  1  0
 23 24  1  0
 23 25  1  0
 23 21  1  0
 21 18  1  0
 18 19  1  0
 18 20  1  0
 18 17  1  0
  1 17  1  0
  1 26  1  0
 26 27  1  0
 27 28  2  0
 28 29  1  0
 29 30  2  0
 30 31  1  0
 31 32  2  0
 32 33  1  0
 33 34  2  0
 34 35  1  0
 35 36  2  0
  1  2  1  0
  2  3  1  0
  3  4  2  0
  3  5  1  0
  5  6  2  0
  6  7  1  0
  7  8  2  0
  8 13  1  0
 13 14  2  0
 13 15  1  0
  8  9  1  0
  9 10  2  0
 10 11  1  0
 11 12  2  0
 36 27  1  0
 11  2  1  0
 36 31  1  0
 10  5  1  0
 15 16  1  0
M  END
> <minimizedAffinity>
-9.12192

> <CNNscore>
0.4306918979

> <CNNaffinity>
5.6845612526

> <CNN_VS>
2.4482944012

> <CNNaffinity_variance>
0.3022471368

$$$$



 36 39  0  0  0  0  0  0  0  0999 V2000
   23.4336    6.6576   13.4598 C   0  0  0  0  0  0  0  0  0  0  0  0
   23.7332    6.5665   14.8973 N   0  0  0  0  0  0  0  0  0  0  0  0
   22.8164    6.1637   15.8333 C   0  0  0  0  0  0  0  0  0  0  0  0
   21.6491    5.8551   15.6879 O   0  0  0  0  0  0  0  0  0  0  0  0
   23.5109    6.1403   17.1193 C   0  0  0  0  0  0  0  0  0  0  0  0
   23.0428    5.8572   18.3867 C   0  0  0  0  0  0  0  0  0  0  0  0
   23.9686    5.9084   19.4364 C   0  0  0  0  0  0  0  0  0  0  0  0
   25.3269    6.2354   19.1982 C   0  0  0  0  0  0  0  0  0  0  0  0
   25.7725    6.5158   17.8977 C   0  0  0  0  0  0  0  0  0  0  0  0
   24.8341    6.4600   16.8842 C   0  0  0  0  0  0  0  0  0  0  0  0
   24.9819    6.6887   15.4496 C   0  0  0  0  0  0  0  0  0  0  0  0
   26.0510    6.9066   14.9140 O   0  0  0  0  0  0  0  0  0  0  0  0
   26.2490    6.2631   20.3605 C   0  0  0  0  0  0  0  0  0  0  0  0
   27.4016    5.8744   20.3620 O   0  0  0  0  0  0  0  0  0  0  0  0
   25.6773    6.7787   21.4615 O   0  0  0  0  0  0  0  0  0  0  0  0
   24.7875    7.0711   21.4342 H   0  0  0  0  0  0  0  0  0  0  0  0
   22.2782    5.7087   13.0359 C   0  0  0  0  0  0  0  0  0  0  0  0
   22.5205    4.7895   11.7784 C   0  0  0  0  0  0  0  0  0  0  0  0
   23.2297    3.5268   12.2984 C   0  0  0  0  0  0  0  0  0  0  0  0
   21.1478    4.3689   11.2133 C   0  0  0  0  0  0  0  0  0  0  0  0
   23.3679    5.5552   10.7174 C   0  0  0  0  0  0  0  0  0  0  0  0
   22.2633    5.4070    8.3921 C   0  0  0  0  0  0  0  0  0  0  0  0
   22.7644    6.3394    9.5100 C   0  0  0  0  0  0  0  0  0  0  0  0
   21.6452    7.3105    9.9094 C   0  0  0  0  0  0  0  0  0  0  0  0
   23.9214    7.1820    8.9096 C   0  0  0  0  0  0  0  0  0  0  0  0
   23.1597    8.1390   13.0952 C   0  0  0  0  0  0  0  0  0  0  0  0
   22.3299    8.8927   14.1195 C   0  0  0  0  0  0  0  0  0  0  0  0
   23.0282    9.6009   15.1178 C   0  0  0  0  0  0  0  0  0  0  0  0
   22.3478   10.3234   16.0907 C   0  0  0  0  0  0  0  0  0  0  0  0
   20.9568   10.3460   16.0872 C   0  0  0  0  0  0  0  0  0  0  0  0
   20.2264    9.6536   15.1095 C   0  0  0  0  0  0  0  0  0  0  0  0
   18.8221    9.6954   15.1318 C   0  0  0  0  0  0  0  0  0  0  0  0
   18.0664    9.0235   14.1730 C   0  0  0  0  0  0  0  0  0  0  0  0
   18.7079    8.3081   13.1723 C   0  0  0  0  0  0  0  0  0  0  0  0
   20.1047    8.2582   13.1356 C   0  0  0  0  0  0  0  0  0  0  0  0
   20.9040    8.9178   14.1017 C   0  0  0  0  0  0  0  0  0  0  0  0
 22 23  1  0
 23 24  1  0
 23 25  1  0
 23 21  1  0
 21 18  1  0
 18 19  1  0
 18 20  1  0
 18 17  1  0
  1 17  1  0
  1 26  1  0
 26 27  1  0
 27 28  2  0
 28 29  1  0
 29 30  2  0
 30 31  1  0
 31 32  2  0
 32 33  1  0
 33 34  2  0
 34 35  1  0
 35 36  2  0
  1  2  1  0
  2  3  1  0
  3  4  2  0
  3  5  1  0
  5  6  2  0
  6  7  1  0
  7  8  2  0
  8 13  1  0
 13 14  2  0
 13 15  1  0
  8  9  1  0
  9 10  2  0
 10 11  1  0
 11 12  2  0
 36 27  1  0
 11  2  1  0
 36 31  1  0
 10  5  1  0
 15 16  1  0
M  END
> <minimizedAffinity>
-8.76240

> <CNNscore>
0.4277529716

> <CNNaffinity>
5.4693360329

> <CNN_VS>
2.3395247459

> <CNNaffinity_variance>
0.5906662345

$$$$



 36 39  0  0  0  0  0  0  0  0999 V2000
   23.0168    6.7961   12.9438 C   0  0  0  0  0  0  0  0  0  0  0  0
   23.4860    6.7514   14.3375 N   0  0  0  0  0  0  0  0  0  0  0  0
   24.6367    7.3619   14.7644 C   0  0  0  0  0  0  0  0  0  0  0  0
   25.4609    7.9882   14.1263 O   0  0  0  0  0  0  0  0  0  0  0  0
   24.7157    7.1474   16.2081 C   0  0  0  0  0  0  0  0  0  0  0  0
   25.6912    7.5066   17.1165 C   0  0  0  0  0  0  0  0  0  0  0  0
   25.4739    7.1640   18.4570 C   0  0  0  0  0  0  0  0  0  0  0  0
   24.2985    6.4797   18.8556 C   0  0  0  0  0  0  0  0  0  0  0  0
   23.3241    6.1304   17.9085 C   0  0  0  0  0  0  0  0  0  0  0  0
   23.5694    6.4797   16.5937 C   0  0  0  0  0  0  0  0  0  0  0  0
   22.7615    6.2675   15.3959 C   0  0  0  0  0  0  0  0  0  0  0  0
   21.6490    5.7786   15.4179 O   0  0  0  0  0  0  0  0  0  0  0  0
   24.1368    6.1570   20.2950 C   0  0  0  0  0  0  0  0  0  0  0  0
   25.0160    5.7625   21.0374 O   0  0  0  0  0  0  0  0  0  0  0  0
   22.8798    6.3472   20.7292 O   0  0  0  0  0  0  0  0  0  0  0  0
   22.2207    6.6518   20.1371 H   0  0  0  0  0  0  0  0  0  0  0  0
   21.9743    5.6857   12.6356 C   0  0  0  0  0  0  0  0  0  0  0  0
   22.3392    4.6414   11.5124 C   0  0  0  0  0  0  0  0  0  0  0  0
   23.1858    3.5530   12.1953 C   0  0  0  0  0  0  0  0  0  0  0  0
   21.0329    3.9890   11.0138 C   0  0  0  0  0  0  0  0  0  0  0  0
   23.1036    5.3530   10.3552 C   0  0  0  0  0  0  0  0  0  0  0  0
   23.2973    6.9845    8.3677 C   0  0  0  0  0  0  0  0  0  0  0  0
   22.4199    5.9391    9.0800 C   0  0  0  0  0  0  0  0  0  0  0  0
   21.9796    4.8667    8.0744 C   0  0  0  0  0  0  0  0  0  0  0  0
   21.1431    6.6768    9.5646 C   0  0  0  0  0  0  0  0  0  0  0  0
   22.4877    8.2201   12.6359 C   0  0  0  0  0  0  0  0  0  0  0  0
   21.1829    8.5670   13.3309 C   0  0  0  0  0  0  0  0  0  0  0  0
   19.9985    8.0460   12.7728 C   0  0  0  0  0  0  0  0  0  0  0  0
   18.7610    8.3080   13.3486 C   0  0  0  0  0  0  0  0  0  0  0  0
   18.6844    9.1007   14.4893 C   0  0  0  0  0  0  0  0  0  0  0  0
   19.8414    9.6372   15.0742 C   0  0  0  0  0  0  0  0  0  0  0  0
   19.7321   10.4340   16.2263 C   0  0  0  0  0  0  0  0  0  0  0  0
   20.8614   10.9781   16.8353 C   0  0  0  0  0  0  0  0  0  0  0  0
   22.1172   10.7229   16.3037 C   0  0  0  0  0  0  0  0  0  0  0  0
   22.2426    9.9305   15.1586 C   0  0  0  0  0  0  0  0  0  0  0  0
   21.1155    9.3727   14.5058 C   0  0  0  0  0  0  0  0  0  0  0  0
 22 23  1  0
 23 24  1  0
 23 25  1  0
 23 21  1  0
 21 18  1  0
 18 19  1  0
 18 20  1  0
 18 17  1  0
  1 17  1  0
  1 26  1  0
 26 27  1  0
 27 28  2  0
 28 29  1  0
 29 30  2  0
 30 31  1  0
 31 32  2  0
 32 33  1  0
 33 34  2  0
 34 35  1  0
 35 36  2  0
  1  2  1  0
  2  3  1  0
  3  4  2  0
  3  5  1  0
  5  6  2  0
  6  7  1  0
  7  8  2  0
  8 13  1  0
 13 14  2  0
 13 15  1  0
  8  9  1  0
  9 10  2  0
 10 11  1  0
 11 12  2  0
 36 27  1  0
 11  2  1  0
 36 31  1  0
 10  5  1  0
 15 16  1  0
M  END
> <minimizedAffinity>
-8.42583

> <CNNscore>
0.4217812419

> <CNNaffinity>
5.5625309944

> <CNN_VS>
2.3461711407

> <CNNaffinity_variance>
0.4247386456

$$$$



 36 39  0  0  0  0  0  0  0  0999 V2000
   22.6744    6.3704   13.8639 C   0  0  0  0  0  0  0  0  0  0  0  0
   23.1456    6.3914   15.2574 N   0  0  0  0  0  0  0  0  0  0  0  0
   22.3187    6.2047   16.3346 C   0  0  0  0  0  0  0  0  0  0  0  0
   21.1154    6.0307   16.3633 O   0  0  0  0  0  0  0  0  0  0  0  0
   23.1669    6.2275   17.5248 C   0  0  0  0  0  0  0  0  0  0  0  0
   22.8385    6.1372   18.8626 C   0  0  0  0  0  0  0  0  0  0  0  0
   23.8923    6.1805   19.7840 C   0  0  0  0  0  0  0  0  0  0  0  0
   25.2362    6.3092   19.3526 C   0  0  0  0  0  0  0  0  0  0  0  0
   25.5380    6.3964   17.9851 C   0  0  0  0  0  0  0  0  0  0  0  0
   24.4759    6.3538   17.1014 C   0  0  0  0  0  0  0  0  0  0  0  0
   24.4611    6.4132   15.6424 C   0  0  0  0  0  0  0  0  0  0  0  0
   25.4693    6.4397   14.9642 O   0  0  0  0  0  0  0  0  0  0  0  0
   26.2983    6.3414   20.3883 C   0  0  0  0  0  0  0  0  0  0  0  0
   27.4083    5.8550   20.2826 O   0  0  0  0  0  0  0  0  0  0  0  0
   25.9132    6.9838   21.5036 O   0  0  0  0  0  0  0  0  0  0  0  0
   25.0525    7.3497   21.5600 H   0  0  0  0  0  0  0  0  0  0  0  0
   21.6570    7.5070   13.5672 C   0  0  0  0  0  0  0  0  0  0  0  0
   22.1347    8.9890   13.8133 C   0  0  0  0  0  0  0  0  0  0  0  0
   21.9474    9.2576   15.3168 C   0  0  0  0  0  0  0  0  0  0  0  0
   23.6425    9.0716   13.4966 C   0  0  0  0  0  0  0  0  0  0  0  0
   21.3072    9.9671   12.9253 C   0  0  0  0  0  0  0  0  0  0  0  0
   20.7414    8.7569   10.7197 C   0  0  0  0  0  0  0  0  0  0  0  0
   20.1856    9.5204   11.9355 C   0  0  0  0  0  0  0  0  0  0  0  0
   19.0779    8.6919   12.6001 C   0  0  0  0  0  0  0  0  0  0  0  0
   19.5342   10.8204   11.3925 C   0  0  0  0  0  0  0  0  0  0  0  0
   23.9012    6.3989   12.9169 C   0  0  0  0  0  0  0  0  0  0  0  0
   23.5518    6.3855   11.4392 C   0  0  0  0  0  0  0  0  0  0  0  0
   24.2046    7.3240   10.6153 C   0  0  0  0  0  0  0  0  0  0  0  0
   23.9496    7.3768    9.2501 C   0  0  0  0  0  0  0  0  0  0  0  0
   23.0326    6.4965    8.6846 C   0  0  0  0  0  0  0  0  0  0  0  0
   22.3629    5.5479    9.4722 C   0  0  0  0  0  0  0  0  0  0  0  0
   21.4424    4.6720    8.8724 C   0  0  0  0  0  0  0  0  0  0  0  0
   20.7639    3.7149    9.6245 C   0  0  0  0  0  0  0  0  0  0  0  0
   21.0059    3.6156   10.9870 C   0  0  0  0  0  0  0  0  0  0  0  0
   21.9202    4.4790   11.5983 C   0  0  0  0  0  0  0  0  0  0  0  0
   22.6174    5.4725   10.8672 C   0  0  0  0  0  0  0  0  0  0  0  0
 22 23  1  0
 23 24  1  0
 23 25  1  0
 23 21  1  0
 21 18  1  0
 18 19  1  0
 18 20  1  0
 18 17  1  0
  1 17  1  0
  1 26  1  0
 26 27  1  0
 27 28  2  0
 28 29  1  0
 29 30  2  0
 30 31  1  0
 31 32  2  0
 32 33  1  0
 33 34  2  0
 34 35  1  0
 35 36  2  0
  1  2  1  0
  2  3  1  0
  3  4  2  0
  3  5  1  0
  5  6  2  0
  6  7  1  0
  7  8  2  0
  8 13  1  0
 13 14  2  0
 13 15  1  0
  8  9  1  0
  9 10  2  0
 10 11  1  0
 11 12  2  0
 36 27  1  0
 11  2  1  0
 36 31  1  0
 10  5  1  0
 15 16  1  0
M  END
> <minimizedAffinity>
-8.73656

> <CNNscore>
0.3996531963

> <CNNaffinity>
5.8163375854

> <CNN_VS>
2.3245179653

> <CNNaffinity_variance>
0.1806394011

$$$$
