


 19 19  0  0  0  0  0  0  0  0999 V2000
   -1.3353   -5.1472   -5.4436 S   0  0  0  0  0  0  0  0  0  0  0  0
   -1.9876   -5.1602   -4.1535 O   0  0  0  0  0  0  0  0  0  0  0  0
   -0.1081   -5.8674   -5.6946 O   0  0  0  0  0  0  0  0  0  0  0  0
   -4.3356   -6.4393   -8.6366 C   0  0  0  0  0  0  0  0  0  0  0  0
   -2.9984   -6.2002   -8.9722 C   0  0  0  0  0  0  0  0  0  0  0  0
   -2.0786   -5.8054   -7.9993 C   0  0  0  0  0  0  0  0  0  0  0  0
   -2.5068   -5.6414   -6.6811 C   0  0  0  0  0  0  0  0  0  0  0  0
   -3.8368   -5.8847   -6.3299 C   0  0  0  0  0  0  0  0  0  0  0  0
   -4.7511   -6.2815   -7.3119 C   0  0  0  0  0  0  0  0  0  0  0  0
   -6.5294   -6.8475   -9.4597 C   0  0  0  0  0  0  0  0  0  0  0  0
   -5.1258   -6.8188   -9.6865 O   0  0  0  0  0  0  0  0  0  0  0  0
   -1.0495   -3.5445   -5.8776 N   0  0  0  0  0  0  0  0  0  0  0  0
   -1.9256   -3.1582   -6.2292 H   0  0  0  0  0  0  0  0  0  0  0  0
   -0.5587   -2.6447   -4.8070 C   0  0  0  0  0  0  0  0  0  0  0  0
   -0.5149   -3.4275   -3.5029 C   0  0  0  0  0  0  0  0  0  0  0  0
   -1.5049   -1.4626   -4.6580 C   0  0  0  0  0  0  0  0  0  0  0  0
   -1.1920   -0.2820   -4.7034 O   0  0  0  0  0  0  0  0  0  0  0  0
   -2.7932   -1.8278   -4.5062 O   0  0  0  0  0  0  0  0  0  0  0  0
   -3.0219   -2.7359   -4.4726 H   0  0  0  0  0  0  0  0  0  0  0  0
 10 11  1  0
 11  4  1  0
  4  5  2  0
  5  6  1  0
  6  7  2  0
  7  1  1  0
  1  2  2  0
  1  3  2  0
  1 12  1  0
 12 14  1  0
 14 15  1  0
 14 16  1  0
 16 17  2  0
 16 18  1  0
  7  8  1  0
  8  9  2  0
  9  4  1  0
 12 13  1  0
 18 19  1  0
M  END
> <minimizedAffinity>
-7.48110

> <CNNscore>
0.9571763873

> <CNNaffinity>
5.2455410957

> <CNN_VS>
5.0209078789

> <CNNaffinity_variance>
0.2094977647

$$$$



 19 19  0  0  0  0  0  0  0  0999 V2000
   -1.4172   -5.3304   -6.5877 S   0  0  0  0  0  0  0  0  0  0  0  0
   -0.9664   -6.4011   -5.7272 O   0  0  0  0  0  0  0  0  0  0  0  0
   -0.5628   -4.7337   -7.5885 O   0  0  0  0  0  0  0  0  0  0  0  0
   -5.2537   -6.6587   -8.6815 C   0  0  0  0  0  0  0  0  0  0  0  0
   -4.0840   -6.4335   -9.4156 C   0  0  0  0  0  0  0  0  0  0  0  0
   -2.9097   -6.0277   -8.7794 C   0  0  0  0  0  0  0  0  0  0  0  0
   -2.9124   -5.8386   -7.3966 C   0  0  0  0  0  0  0  0  0  0  0  0
   -4.0704   -6.0677   -6.6497 C   0  0  0  0  0  0  0  0  0  0  0  0
   -5.2423   -6.4756   -7.2963 C   0  0  0  0  0  0  0  0  0  0  0  0
   -7.4296   -7.6177   -8.7319 C   0  0  0  0  0  0  0  0  0  0  0  0
   -6.3283   -7.0513   -9.4310 O   0  0  0  0  0  0  0  0  0  0  0  0
   -1.9753   -4.0701   -5.6188 N   0  0  0  0  0  0  0  0  0  0  0  0
   -2.4486   -4.4837   -4.8154 H   0  0  0  0  0  0  0  0  0  0  0  0
   -0.9543   -3.1276   -5.1030 C   0  0  0  0  0  0  0  0  0  0  0  0
   -0.5499   -3.5737   -3.7056 C   0  0  0  0  0  0  0  0  0  0  0  0
   -1.5389   -1.7245   -5.0386 C   0  0  0  0  0  0  0  0  0  0  0  0
   -1.0051   -0.7044   -5.4490 O   0  0  0  0  0  0  0  0  0  0  0  0
   -2.7761   -1.6872   -4.5056 O   0  0  0  0  0  0  0  0  0  0  0  0
   -3.1759   -2.4752   -4.1940 H   0  0  0  0  0  0  0  0  0  0  0  0
 10 11  1  0
 11  4  1  0
  4  5  2  0
  5  6  1  0
  6  7  2  0
  7  1  1  0
  1  2  2  0
  1  3  2  0
  1 12  1  0
 12 14  1  0
 14 15  1  0
 14 16  1  0
 16 17  2  0
 16 18  1  0
  7  8  1  0
  8  9  2  0
  9  4  1  0
 12 13  1  0
 18 19  1  0
M  END
> <minimizedAffinity>
-7.92021

> <CNNscore>
0.8699987531

> <CNNaffinity>
5.1088070869

> <CNN_VS>
4.4446558952

> <CNNaffinity_variance>
0.2944711745

$$$$



 19 19  0  0  0  0  0  0  0  0999 V2000
   -1.6122   -5.3550   -6.5854 S   0  0  0  0  0  0  0  0  0  0  0  0
   -1.2431   -6.3775   -5.6323 O   0  0  0  0  0  0  0  0  0  0  0  0
   -0.6869   -4.8528   -7.5748 O   0  0  0  0  0  0  0  0  0  0  0  0
   -5.3996   -6.6696   -8.7752 C   0  0  0  0  0  0  0  0  0  0  0  0
   -5.4078   -6.4844   -7.3883 C   0  0  0  0  0  0  0  0  0  0  0  0
   -4.2526   -6.0826   -6.7156 C   0  0  0  0  0  0  0  0  0  0  0  0
   -3.0782   -5.8733   -7.4401 C   0  0  0  0  0  0  0  0  0  0  0  0
   -3.0573   -6.0461   -8.8261 C   0  0  0  0  0  0  0  0  0  0  0  0
   -4.2207   -6.4477   -9.4917 C   0  0  0  0  0  0  0  0  0  0  0  0
   -7.4823   -7.7682   -8.4398 C   0  0  0  0  0  0  0  0  0  0  0  0
   -6.5982   -7.0640   -9.3029 O   0  0  0  0  0  0  0  0  0  0  0  0
   -2.1795   -4.0163   -5.7343 N   0  0  0  0  0  0  0  0  0  0  0  0
   -2.8411   -4.3521   -5.0343 H   0  0  0  0  0  0  0  0  0  0  0  0
   -1.1629   -3.1953   -5.0348 C   0  0  0  0  0  0  0  0  0  0  0  0
   -1.0334   -3.7038   -3.6066 C   0  0  0  0  0  0  0  0  0  0  0  0
   -1.6043   -1.7394   -5.0172 C   0  0  0  0  0  0  0  0  0  0  0  0
   -0.9567   -0.7875   -5.4276 O   0  0  0  0  0  0  0  0  0  0  0  0
   -2.8482   -1.5662   -4.5286 O   0  0  0  0  0  0  0  0  0  0  0  0
   -3.3358   -2.3029   -4.2166 H   0  0  0  0  0  0  0  0  0  0  0  0
 10 11  1  0
 11  4  1  0
  4  5  2  0
  5  6  1  0
  6  7  2  0
  7  1  1  0
  1  2  2  0
  1  3  2  0
  1 12  1  0
 12 14  1  0
 14 15  1  0
 14 16  1  0
 16 17  2  0
 16 18  1  0
  7  8  1  0
  8  9  2  0
  9  4  1  0
 12 13  1  0
 18 19  1  0
M  END
> <minimizedAffinity>
-7.95265

> <CNNscore>
0.8349783421

> <CNNaffinity>
5.1012053490

> <CNN_VS>
4.2593960762

> <CNNaffinity_variance>
0.2789369822

$$$$



 19 19  0  0  0  0  0  0  0  0999 V2000
   -7.5481   -8.2137   -9.9988 S   0  0  0  0  0  0  0  0  0  0  0  0
   -8.4779   -7.2492  -10.5421 O   0  0  0  0  0  0  0  0  0  0  0  0
   -6.9129   -9.2193  -10.8191 O   0  0  0  0  0  0  0  0  0  0  0  0
   -4.2490   -5.9983   -7.7459 C   0  0  0  0  0  0  0  0  0  0  0  0
   -5.4196   -6.3912   -7.0877 C   0  0  0  0  0  0  0  0  0  0  0  0
   -6.4299   -7.0685   -7.7727 C   0  0  0  0  0  0  0  0  0  0  0  0
   -6.2668   -7.3458   -9.1308 C   0  0  0  0  0  0  0  0  0  0  0  0
   -5.1000   -6.9671   -9.7989 C   0  0  0  0  0  0  0  0  0  0  0  0
   -4.0923   -6.2899   -9.1035 C   0  0  0  0  0  0  0  0  0  0  0  0
   -3.2424   -5.7713   -5.6030 C   0  0  0  0  0  0  0  0  0  0  0  0
   -3.3450   -5.3437   -6.9554 O   0  0  0  0  0  0  0  0  0  0  0  0
   -8.3086   -9.0320   -8.7377 N   0  0  0  0  0  0  0  0  0  0  0  0
   -7.6478   -9.0891   -7.9628 H   0  0  0  0  0  0  0  0  0  0  0  0
   -9.5606   -8.4329   -8.2178 C   0  0  0  0  0  0  0  0  0  0  0  0
   -9.6264   -8.6814   -6.7181 C   0  0  0  0  0  0  0  0  0  0  0  0
  -10.7586   -9.0837   -8.8932 C   0  0  0  0  0  0  0  0  0  0  0  0
  -10.7679   -9.5924  -10.0045 O   0  0  0  0  0  0  0  0  0  0  0  0
  -11.8620   -9.0997   -8.1196 O   0  0  0  0  0  0  0  0  0  0  0  0
  -11.8437   -8.7068   -7.2692 H   0  0  0  0  0  0  0  0  0  0  0  0
 10 11  1  0
 11  4  1  0
  4  5  2  0
  5  6  1  0
  6  7  2  0
  7  1  1  0
  1  2  2  0
  1  3  2  0
  1 12  1  0
 12 14  1  0
 14 15  1  0
 14 16  1  0
 16 17  2  0
 16 18  1  0
  7  8  1  0
  8  9  2  0
  9  4  1  0
 12 13  1  0
 18 19  1  0
M  END
> <minimizedAffinity>
-7.07120

> <CNNscore>
0.7867916226

> <CNNaffinity>
4.8298053741

> <CNN_VS>
3.8000504971

> <CNNaffinity_variance>
0.7306486964

$$$$



 19 19  0  0  0  0  0  0  0  0999 V2000
   -1.8798   -4.9700   -6.1085 S   0  0  0  0  0  0  0  0  0  0  0  0
   -0.6391   -5.6475   -6.4118 O   0  0  0  0  0  0  0  0  0  0  0  0
   -1.9949   -3.5298   -6.1205 O   0  0  0  0  0  0  0  0  0  0  0  0
   -5.1463   -6.6507   -8.8238 C   0  0  0  0  0  0  0  0  0  0  0  0
   -3.9204   -6.2380   -9.3573 C   0  0  0  0  0  0  0  0  0  0  0  0
   -2.9198   -5.7240   -8.5309 C   0  0  0  0  0  0  0  0  0  0  0  0
   -3.1551   -5.6161   -7.1594 C   0  0  0  0  0  0  0  0  0  0  0  0
   -4.3710   -6.0320   -6.6116 C   0  0  0  0  0  0  0  0  0  0  0  0
   -5.3674   -6.5472   -7.4480 C   0  0  0  0  0  0  0  0  0  0  0  0
   -7.1376   -7.8797   -9.2496 C   0  0  0  0  0  0  0  0  0  0  0  0
   -6.0340   -7.1326   -9.7459 O   0  0  0  0  0  0  0  0  0  0  0  0
   -2.4071   -5.4819   -4.5925 N   0  0  0  0  0  0  0  0  0  0  0  0
   -3.2106   -6.0939   -4.7348 H   0  0  0  0  0  0  0  0  0  0  0  0
   -1.4241   -6.2163   -3.7613 C   0  0  0  0  0  0  0  0  0  0  0  0
   -0.1466   -5.3931   -3.6867 C   0  0  0  0  0  0  0  0  0  0  0  0
   -1.1223   -7.5652   -4.3969 C   0  0  0  0  0  0  0  0  0  0  0  0
   -1.9464   -8.4104   -4.7138 O   0  0  0  0  0  0  0  0  0  0  0  0
    0.1892   -7.7576   -4.6400 O   0  0  0  0  0  0  0  0  0  0  0  0
    0.8125   -7.1031   -4.3928 H   0  0  0  0  0  0  0  0  0  0  0  0
 10 11  1  0
 11  4  1  0
  4  5  2  0
  5  6  1  0
  6  7  2  0
  7  1  1  0
  1  2  2  0
  1  3  2  0
  1 12  1  0
 12 14  1  0
 14 15  1  0
 14 16  1  0
 16 17  2  0
 16 18  1  0
  7  8  1  0
  8  9  2  0
  9  4  1  0
 12 13  1  0
 18 19  1  0
M  END
> <minimizedAffinity>
-7.43574

> <CNNscore>
0.7296687961

> <CNNaffinity>
4.3789634705

> <CNN_VS>
3.1951930523

> <CNNaffinity_variance>
0.3691724241

$$$$



 19 19  0  0  0  0  0  0  0  0999 V2000
   -7.4356   -8.0589   -9.5197 S   0  0  0  0  0  0  0  0  0  0  0  0
   -8.3162   -7.0373  -10.0401 O   0  0  0  0  0  0  0  0  0  0  0  0
   -6.8704   -9.0905  -10.3587 O   0  0  0  0  0  0  0  0  0  0  0  0
   -3.9816   -6.0227   -7.3308 C   0  0  0  0  0  0  0  0  0  0  0  0
   -3.8269   -6.4629   -8.6499 C   0  0  0  0  0  0  0  0  0  0  0  0
   -4.8800   -7.0854   -9.3222 C   0  0  0  0  0  0  0  0  0  0  0  0
   -6.0949   -7.2746   -8.6618 C   0  0  0  0  0  0  0  0  0  0  0  0
   -6.2665   -6.8328   -7.3478 C   0  0  0  0  0  0  0  0  0  0  0  0
   -5.2054   -6.2087   -6.6827 C   0  0  0  0  0  0  0  0  0  0  0  0
   -1.8113   -5.1187   -7.6906 C   0  0  0  0  0  0  0  0  0  0  0  0
   -2.8706   -5.4317   -6.7949 O   0  0  0  0  0  0  0  0  0  0  0  0
   -8.2241   -8.8456   -8.2557 N   0  0  0  0  0  0  0  0  0  0  0  0
   -8.3409   -8.1733   -7.4975 H   0  0  0  0  0  0  0  0  0  0  0  0
   -9.5575   -9.4173   -8.5590 C   0  0  0  0  0  0  0  0  0  0  0  0
  -10.1770   -8.6172   -9.6953 C   0  0  0  0  0  0  0  0  0  0  0  0
  -10.4469   -9.3234   -7.3283 C   0  0  0  0  0  0  0  0  0  0  0  0
  -10.1082   -9.5583   -6.1776 O   0  0  0  0  0  0  0  0  0  0  0  0
  -11.6951   -8.8973   -7.6049 O   0  0  0  0  0  0  0  0  0  0  0  0
  -11.9442   -8.7201   -8.4906 H   0  0  0  0  0  0  0  0  0  0  0  0
 10 11  1  0
 11  4  1  0
  4  5  2  0
  5  6  1  0
  6  7  2  0
  7  1  1  0
  1  2  2  0
  1  3  2  0
  1 12  1  0
 12 14  1  0
 14 15  1  0
 14 16  1  0
 16 17  2  0
 16 18  1  0
  7  8  1  0
  8  9  2  0
  9  4  1  0
 12 13  1  0
 18 19  1  0
M  END
> <minimizedAffinity>
-6.42778

> <CNNscore>
0.7071282268

> <CNNaffinity>
4.9198570251

> <CNN_VS>
3.4789698124

> <CNNaffinity_variance>
1.2579488754

$$$$



 19 19  0  0  0  0  0  0  0  0999 V2000
   -1.6609   -4.1053   -4.1572 S   0  0  0  0  0  0  0  0  0  0  0  0
   -2.7811   -3.4575   -3.5126 O   0  0  0  0  0  0  0  0  0  0  0  0
   -0.8294   -5.0690   -3.4733 O   0  0  0  0  0  0  0  0  0  0  0  0
   -3.0930   -6.0628   -8.0282 C   0  0  0  0  0  0  0  0  0  0  0  0
   -1.7788   -5.5972   -7.9104 C   0  0  0  0  0  0  0  0  0  0  0  0
   -1.3374   -4.9986   -6.7292 C   0  0  0  0  0  0  0  0  0  0  0  0
   -2.2250   -4.8592   -5.6611 C   0  0  0  0  0  0  0  0  0  0  0  0
   -3.5374   -5.3269   -5.7613 C   0  0  0  0  0  0  0  0  0  0  0  0
   -3.9701   -5.9268   -6.9490 C   0  0  0  0  0  0  0  0  0  0  0  0
   -4.7418   -6.5456   -9.6729 C   0  0  0  0  0  0  0  0  0  0  0  0
   -3.3900   -6.6259   -9.2387 O   0  0  0  0  0  0  0  0  0  0  0  0
   -0.6278   -2.9137   -4.7498 N   0  0  0  0  0  0  0  0  0  0  0  0
   -0.8403   -2.7838   -5.7389 H   0  0  0  0  0  0  0  0  0  0  0  0
   -0.7023   -1.5859   -4.0956 C   0  0  0  0  0  0  0  0  0  0  0  0
   -0.9096   -0.5302   -5.1716 C   0  0  0  0  0  0  0  0  0  0  0  0
    0.5967   -1.3067   -3.3543 C   0  0  0  0  0  0  0  0  0  0  0  0
    1.4484   -2.1329   -3.0614 O   0  0  0  0  0  0  0  0  0  0  0  0
    0.7740   -0.0028   -3.0635 O   0  0  0  0  0  0  0  0  0  0  0  0
    0.1145    0.6222   -3.2926 H   0  0  0  0  0  0  0  0  0  0  0  0
 10 11  1  0
 11  4  1  0
  4  5  2  0
  5  6  1  0
  6  7  2  0
  7  1  1  0
  1  2  2  0
  1  3  2  0
  1 12  1  0
 12 14  1  0
 14 15  1  0
 14 16  1  0
 16 17  2  0
 16 18  1  0
  7  8  1  0
  8  9  2  0
  9  4  1  0
 12 13  1  0
 18 19  1  0
M  END
> <minimizedAffinity>
-6.07468

> <CNNscore>
0.6771790981

> <CNNaffinity>
4.8490414619

> <CNN_VS>
3.2836694717

> <CNNaffinity_variance>
0.4703947604

$$$$



 19 19  0  0  0  0  0  0  0  0999 V2000
   -1.2397    1.9225   -3.5421 S   0  0  0  0  0  0  0  0  0  0  0  0
   -0.9098    1.8332   -4.9469 O   0  0  0  0  0  0  0  0  0  0  0  0
   -0.2318    2.1063   -2.5234 O   0  0  0  0  0  0  0  0  0  0  0  0
   -4.3851    5.1905   -2.9995 C   0  0  0  0  0  0  0  0  0  0  0  0
   -3.3744    5.3280   -3.9574 C   0  0  0  0  0  0  0  0  0  0  0  0
   -2.4116    4.3315   -4.1263 C   0  0  0  0  0  0  0  0  0  0  0  0
   -2.4593    3.1922   -3.3214 C   0  0  0  0  0  0  0  0  0  0  0  0
   -3.4674    3.0375   -2.3669 C   0  0  0  0  0  0  0  0  0  0  0  0
   -4.4288    4.0412   -2.2059 C   0  0  0  0  0  0  0  0  0  0  0  0
   -6.2515    6.1980   -1.9232 C   0  0  0  0  0  0  0  0  0  0  0  0
   -5.2594    6.2407   -2.9412 O   0  0  0  0  0  0  0  0  0  0  0  0
   -2.1115    0.5461   -3.1132 N   0  0  0  0  0  0  0  0  0  0  0  0
   -2.9405    0.5075   -3.7062 H   0  0  0  0  0  0  0  0  0  0  0  0
   -1.4070   -0.7517   -3.2401 C   0  0  0  0  0  0  0  0  0  0  0  0
    0.0904   -0.4974   -3.1481 C   0  0  0  0  0  0  0  0  0  0  0  0
   -1.7331   -1.3818   -4.5860 C   0  0  0  0  0  0  0  0  0  0  0  0
   -0.9879   -1.4359   -5.5532 O   0  0  0  0  0  0  0  0  0  0  0  0
   -2.9558   -1.9471   -4.6268 O   0  0  0  0  0  0  0  0  0  0  0  0
   -3.5190   -1.8997   -3.8795 H   0  0  0  0  0  0  0  0  0  0  0  0
 10 11  1  0
 11  4  1  0
  4  5  2  0
  5  6  1  0
  6  7  2  0
  7  1  1  0
  1  2  2  0
  1  3  2  0
  1 12  1  0
 12 14  1  0
 14 15  1  0
 14 16  1  0
 16 17  2  0
 16 18  1  0
  7  8  1  0
  8  9  2  0
  9  4  1  0
 12 13  1  0
 18 19  1  0
M  END
> <minimizedAffinity>
-5.24513

> <CNNscore>
0.6586755514

> <CNNaffinity>
4.0006194115

> <CNN_VS>
2.6351101398

> <CNNaffinity_variance>
0.1108034477

$$$$



 19 19  0  0  0  0  0  0  0  0999 V2000
   -1.5924   -5.3280   -5.4835 S   0  0  0  0  0  0  0  0  0  0  0  0
   -0.2486   -5.6313   -5.9220 O   0  0  0  0  0  0  0  0  0  0  0  0
   -1.9742   -4.0138   -5.0201 O   0  0  0  0  0  0  0  0  0  0  0  0
   -4.5364   -6.5079   -8.7710 C   0  0  0  0  0  0  0  0  0  0  0  0
   -4.9668   -6.3694   -7.4468 C   0  0  0  0  0  0  0  0  0  0  0  0
   -4.0703   -6.0089   -6.4395 C   0  0  0  0  0  0  0  0  0  0  0  0
   -2.7298   -5.7939   -6.7631 C   0  0  0  0  0  0  0  0  0  0  0  0
   -2.2875   -5.9203   -8.0821 C   0  0  0  0  0  0  0  0  0  0  0  0
   -3.1940   -6.2808   -9.0851 C   0  0  0  0  0  0  0  0  0  0  0  0
   -6.8070   -7.1283   -9.1121 C   0  0  0  0  0  0  0  0  0  0  0  0
   -5.5185   -6.8654   -9.6533 O   0  0  0  0  0  0  0  0  0  0  0  0
   -2.0078   -6.4088   -4.2597 N   0  0  0  0  0  0  0  0  0  0  0  0
   -2.8520   -6.8999   -4.5540 H   0  0  0  0  0  0  0  0  0  0  0  0
   -0.9943   -7.4300   -3.9041 C   0  0  0  0  0  0  0  0  0  0  0  0
   -1.3590   -8.7328   -4.6004 C   0  0  0  0  0  0  0  0  0  0  0  0
   -0.9891   -7.6436   -2.3978 C   0  0  0  0  0  0  0  0  0  0  0  0
   -0.0085   -7.8875   -1.7103 O   0  0  0  0  0  0  0  0  0  0  0  0
   -2.2044   -7.4944   -1.8349 O   0  0  0  0  0  0  0  0  0  0  0  0
   -2.9495   -7.3075   -2.3714 H   0  0  0  0  0  0  0  0  0  0  0  0
 10 11  1  0
 11  4  1  0
  4  5  2  0
  5  6  1  0
  6  7  2  0
  7  1  1  0
  1  2  2  0
  1  3  2  0
  1 12  1  0
 12 14  1  0
 14 15  1  0
 14 16  1  0
 16 17  2  0
 16 18  1  0
  7  8  1  0
  8  9  2  0
  9  4  1  0
 12 13  1  0
 18 19  1  0
M  END
> <minimizedAffinity>
-6.97069

> <CNNscore>
0.6365568638

> <CNNaffinity>
4.2507724762

> <CNN_VS>
2.7058584690

> <CNNaffinity_variance>
0.5198274255

$$$$
