


 24 25  0  0  0  0  0  0  0  0999 V2000
   23.8073   24.3715   29.8994 C   0  0  0  0  0  0  0  0  0  0  0  0
   23.9981   23.0570   29.1358 C   0  0  0  0  0  0  0  0  0  0  0  0
   22.7682   22.5659   28.7762 F   0  0  0  0  0  0  0  0  0  0  0  0
   24.7870   23.2290   27.8394 C   0  0  0  0  0  0  0  0  0  0  0  0
   25.0705   21.9498   27.2703 O   0  0  0  0  0  0  0  0  0  0  0  0
   26.0817   23.9946   28.1070 C   0  0  0  0  0  0  0  0  0  0  0  0
   25.7782   25.2583   28.7204 O   0  0  0  0  0  0  0  0  0  0  0  0
   25.1778   25.0921   30.0155 C   0  0  0  0  0  0  0  0  0  0  0  0
   25.6037   21.4303   27.8922 H   0  0  0  0  0  0  0  0  0  0  0  0
   25.0503   26.4191   30.6243 N   0  0  0  0  0  0  0  0  0  0  0  0
   24.2786   26.6054   31.7511 C   0  0  0  0  0  0  0  0  0  0  0  0
   24.2102   27.7915   32.3515 C   0  0  0  0  0  0  0  0  0  0  0  0
   25.0180   28.8648   31.7438 C   0  0  0  0  0  0  0  0  0  0  0  0
   25.0011   30.1176   32.2926 N   0  0  0  0  0  0  0  0  0  0  0  0
   25.7575   28.6937   30.6949 N   0  0  0  0  0  0  0  0  0  0  0  0
   25.8172   27.4602   30.0875 C   0  0  0  0  0  0  0  0  0  0  0  0
   26.5084   27.2961   29.0845 O   0  0  0  0  0  0  0  0  0  0  0  0
   24.4540   30.2978   33.0910 H   0  0  0  0  0  0  0  0  0  0  0  0
   25.5359   30.8390   31.8891 H   0  0  0  0  0  0  0  0  0  0  0  0
   26.8422   24.2880   26.8092 C   0  0  0  0  0  0  0  0  0  0  0  0
   27.3157   23.0643   26.2429 O   0  0  0  0  0  0  0  0  0  0  0  0
   27.9104   22.6259   26.8714 H   0  0  0  0  0  0  0  0  0  0  0  0
   21.8730   24.1206   31.2967 C   0  0  0  0  0  0  0  0  0  0  0  0
   23.2915   24.1365   31.2202 O   0  0  0  0  0  0  0  0  0  0  0  0
 23 24  1  0
  1 24  1  0
  1  2  1  0
  2  3  1  0
  2  4  1  0
  4  5  1  0
  4  6  1  0
  6 20  1  0
 20 21  1  0
  6  7  1  0
  7  8  1  0
  8 10  1  0
 10 11  1  0
 11 12  2  0
 12 13  1  0
 13 14  1  0
 13 15  2  0
 15 16  1  0
 16 17  2  0
  8  1  1  0
 16 10  1  0
  5  9  1  0
 21 22  1  0
 14 18  1  0
 14 19  1  0
M  END
> <minimizedAffinity>
-8.23624

> <CNNscore>
0.6681648493

> <CNNaffinity>
4.7349510193

> <CNN_VS>
3.1637277603

> <CNNaffinity_variance>
0.3864936531

$$$$



 24 25  0  0  0  0  0  0  0  0999 V2000
   24.2663   24.5999   29.5667 C   0  0  0  0  0  0  0  0  0  0  0  0
   25.0167   25.9194   29.7743 C   0  0  0  0  0  0  0  0  0  0  0  0
   25.3358   26.0483   31.1028 F   0  0  0  0  0  0  0  0  0  0  0  0
   26.3365   25.9822   29.0083 C   0  0  0  0  0  0  0  0  0  0  0  0
   26.8956   27.2927   29.1112 O   0  0  0  0  0  0  0  0  0  0  0  0
   26.1149   25.6084   27.5436 C   0  0  0  0  0  0  0  0  0  0  0  0
   25.5108   24.3070   27.4629 O   0  0  0  0  0  0  0  0  0  0  0  0
   24.1976   24.2913   28.0465 C   0  0  0  0  0  0  0  0  0  0  0  0
   26.2815   27.9374   28.7263 H   0  0  0  0  0  0  0  0  0  0  0  0
   23.6037   22.9784   27.7792 N   0  0  0  0  0  0  0  0  0  0  0  0
   22.3381   22.8743   27.2433 C   0  0  0  0  0  0  0  0  0  0  0  0
   21.8159   21.6896   26.9334 C   0  0  0  0  0  0  0  0  0  0  0  0
   22.6809   20.5224   27.1854 C   0  0  0  0  0  0  0  0  0  0  0  0
   22.2208   19.2659   26.9024 N   0  0  0  0  0  0  0  0  0  0  0  0
   23.8765   20.6134   27.6739 N   0  0  0  0  0  0  0  0  0  0  0  0
   24.4009   21.8464   27.9876 C   0  0  0  0  0  0  0  0  0  0  0  0
   25.5308   21.9367   28.4628 O   0  0  0  0  0  0  0  0  0  0  0  0
   21.3178   19.1447   26.5293 H   0  0  0  0  0  0  0  0  0  0  0  0
   22.7927   18.4826   27.0717 H   0  0  0  0  0  0  0  0  0  0  0  0
   27.4370   25.5469   26.7709 C   0  0  0  0  0  0  0  0  0  0  0  0
   27.5332   24.2981   26.0826 O   0  0  0  0  0  0  0  0  0  0  0  0
   27.5026   23.5718   26.7248 H   0  0  0  0  0  0  0  0  0  0  0  0
   22.6351   23.6984   31.0778 C   0  0  0  0  0  0  0  0  0  0  0  0
   22.9287   24.6738   30.0876 O   0  0  0  0  0  0  0  0  0  0  0  0
 23 24  1  0
  1 24  1  0
  1  2  1  0
  2  3  1  0
  2  4  1  0
  4  5  1  0
  4  6  1  0
  6 20  1  0
 20 21  1  0
  6  7  1  0
  7  8  1  0
  8 10  1  0
 10 11  1  0
 11 12  2  0
 12 13  1  0
 13 14  1  0
 13 15  2  0
 15 16  1  0
 16 17  2  0
  8  1  1  0
 16 10  1  0
  5  9  1  0
 21 22  1  0
 14 18  1  0
 14 19  1  0
M  END
> <minimizedAffinity>
-7.94168

> <CNNscore>
0.3320159614

> <CNNaffinity>
4.5298905373

> <CNN_VS>
1.5039960146

> <CNNaffinity_variance>
0.3697622716

$$$$



 24 25  0  0  0  0  0  0  0  0999 V2000
   33.6214   23.3620   26.9307 C   0  0  0  0  0  0  0  0  0  0  0  0
   32.7941   22.5722   25.9112 C   0  0  0  0  0  0  0  0  0  0  0  0
   33.4026   22.6512   24.6838 F   0  0  0  0  0  0  0  0  0  0  0  0
   32.6958   21.0853   26.2461 C   0  0  0  0  0  0  0  0  0  0  0  0
   31.7789   20.4469   25.3560 O   0  0  0  0  0  0  0  0  0  0  0  0
   32.2517   20.8991   27.6960 C   0  0  0  0  0  0  0  0  0  0  0  0
   33.1606   21.5858   28.5720 O   0  0  0  0  0  0  0  0  0  0  0  0
   33.1332   23.0072   28.3613 C   0  0  0  0  0  0  0  0  0  0  0  0
   30.9007   20.8468   25.4549 H   0  0  0  0  0  0  0  0  0  0  0  0
   33.9645   23.6300   29.3951 N   0  0  0  0  0  0  0  0  0  0  0  0
   35.3276   23.4271   29.4191 C   0  0  0  0  0  0  0  0  0  0  0  0
   36.1006   24.0417   30.3118 C   0  0  0  0  0  0  0  0  0  0  0  0
   35.4064   24.9501   31.2430 C   0  0  0  0  0  0  0  0  0  0  0  0
   36.1234   25.6174   32.1976 N   0  0  0  0  0  0  0  0  0  0  0  0
   34.1287   25.1579   31.2166 N   0  0  0  0  0  0  0  0  0  0  0  0
   33.3449   24.5147   30.2861 C   0  0  0  0  0  0  0  0  0  0  0  0
   32.1300   24.6996   30.2650 O   0  0  0  0  0  0  0  0  0  0  0  0
   37.0980   25.4926   32.2581 H   0  0  0  0  0  0  0  0  0  0  0  0
   35.6648   26.2227   32.8242 H   0  0  0  0  0  0  0  0  0  0  0  0
   32.2555   19.4212   28.1018 C   0  0  0  0  0  0  0  0  0  0  0  0
   30.9533   18.8660   27.9057 O   0  0  0  0  0  0  0  0  0  0  0  0
   30.3113   19.3470   28.4510 H   0  0  0  0  0  0  0  0  0  0  0  0
   32.1506   25.2562   26.8561 C   0  0  0  0  0  0  0  0  0  0  0  0
   33.4824   24.7782   26.7291 O   0  0  0  0  0  0  0  0  0  0  0  0
 23 24  1  0
  1 24  1  0
  1  2  1  0
  2  3  1  0
  2  4  1  0
  4  5  1  0
  4  6  1  0
  6 20  1  0
 20 21  1  0
  6  7  1  0
  7  8  1  0
  8 10  1  0
 10 11  1  0
 11 12  2  0
 12 13  1  0
 13 14  1  0
 13 15  2  0
 15 16  1  0
 16 17  2  0
  8  1  1  0
 16 10  1  0
  5  9  1  0
 21 22  1  0
 14 18  1  0
 14 19  1  0
M  END
> <minimizedAffinity>
-9.46858

> <CNNscore>
0.3056772351

> <CNNaffinity>
4.1932759285

> <CNN_VS>
1.2817889452

> <CNNaffinity_variance>
0.2473822832

$$$$



 24 25  0  0  0  0  0  0  0  0999 V2000
   32.9423   23.0502   28.7347 C   0  0  0  0  0  0  0  0  0  0  0  0
   32.2096   23.1071   27.3904 C   0  0  0  0  0  0  0  0  0  0  0  0
   31.6569   21.8784   27.1297 F   0  0  0  0  0  0  0  0  0  0  0  0
   31.0551   24.1070   27.3819 C   0  0  0  0  0  0  0  0  0  0  0  0
   30.5293   24.2302   26.0595 O   0  0  0  0  0  0  0  0  0  0  0  0
   31.5290   25.4646   27.8980 C   0  0  0  0  0  0  0  0  0  0  0  0
   32.0953   25.3123   29.2100 O   0  0  0  0  0  0  0  0  0  0  0  0
   33.2782   24.4964   29.1890 C   0  0  0  0  0  0  0  0  0  0  0  0
   31.2240   24.5521   25.4639 H   0  0  0  0  0  0  0  0  0  0  0  0
   33.8683   24.5274   30.5301 N   0  0  0  0  0  0  0  0  0  0  0  0
   35.2356   24.4855   30.6987 C   0  0  0  0  0  0  0  0  0  0  0  0
   35.7846   24.5815   31.9076 C   0  0  0  0  0  0  0  0  0  0  0  0
   34.8411   24.7495   33.0282 C   0  0  0  0  0  0  0  0  0  0  0  0
   35.3191   24.8493   34.3057 N   0  0  0  0  0  0  0  0  0  0  0  0
   33.5565   24.8055   32.8762 N   0  0  0  0  0  0  0  0  0  0  0  0
   33.0062   24.7056   31.6188 C   0  0  0  0  0  0  0  0  0  0  0  0
   31.7867   24.7461   31.4710 O   0  0  0  0  0  0  0  0  0  0  0  0
   36.2886   24.8123   34.4729 H   0  0  0  0  0  0  0  0  0  0  0  0
   34.6937   24.9583   35.0582 H   0  0  0  0  0  0  0  0  0  0  0  0
   30.3695   26.4601   28.0140 C   0  0  0  0  0  0  0  0  0  0  0  0
   29.9542   26.5569   29.3780 O   0  0  0  0  0  0  0  0  0  0  0  0
   29.6620   25.6860   29.6896 H   0  0  0  0  0  0  0  0  0  0  0  0
   34.1968   21.3903   27.5397 C   0  0  0  0  0  0  0  0  0  0  0  0
   34.1635   22.2993   28.6309 O   0  0  0  0  0  0  0  0  0  0  0  0
 23 24  1  0
  1 24  1  0
  1  2  1  0
  2  3  1  0
  2  4  1  0
  4  5  1  0
  4  6  1  0
  6 20  1  0
 20 21  1  0
  6  7  1  0
  7  8  1  0
  8 10  1  0
 10 11  1  0
 11 12  2  0
 12 13  1  0
 13 14  1  0
 13 15  2  0
 15 16  1  0
 16 17  2  0
  8  1  1  0
 16 10  1  0
  5  9  1  0
 21 22  1  0
 14 18  1  0
 14 19  1  0
M  END
> <minimizedAffinity>
-7.55802

> <CNNscore>
0.2397900075

> <CNNaffinity>
3.8506290913

> <CNN_VS>
0.9233424067

> <CNNaffinity_variance>
0.2971316576

$$$$



 24 25  0  0  0  0  0  0  0  0999 V2000
   26.1248   25.0467   28.8164 C   0  0  0  0  0  0  0  0  0  0  0  0
   25.9557   23.8971   27.8178 C   0  0  0  0  0  0  0  0  0  0  0  0
   27.1887   23.3658   27.5341 F   0  0  0  0  0  0  0  0  0  0  0  0
   25.1103   22.7496   28.3665 C   0  0  0  0  0  0  0  0  0  0  0  0
   24.8548   21.7974   27.3327 O   0  0  0  0  0  0  0  0  0  0  0  0
   23.7982   23.2861   28.9361 C   0  0  0  0  0  0  0  0  0  0  0  0
   24.0759   24.2744   29.9417 O   0  0  0  0  0  0  0  0  0  0  0  0
   24.7329   25.4273   29.3896 C   0  0  0  0  0  0  0  0  0  0  0  0
   24.3673   22.2258   26.6118 H   0  0  0  0  0  0  0  0  0  0  0  0
   24.8322   26.4365   30.4476 N   0  0  0  0  0  0  0  0  0  0  0  0
   25.7343   27.4738   30.3484 C   0  0  0  0  0  0  0  0  0  0  0  0
   25.7860   28.4331   31.2699 C   0  0  0  0  0  0  0  0  0  0  0  0
   24.8148   28.3148   32.3731 C   0  0  0  0  0  0  0  0  0  0  0  0
   24.8030   29.2539   33.3675 N   0  0  0  0  0  0  0  0  0  0  0  0
   23.9540   27.3521   32.4649 N   0  0  0  0  0  0  0  0  0  0  0  0
   23.9140   26.3692   31.5025 C   0  0  0  0  0  0  0  0  0  0  0  0
   23.1066   25.4468   31.5918 O   0  0  0  0  0  0  0  0  0  0  0  0
   25.4384   30.0054   33.3424 H   0  0  0  0  0  0  0  0  0  0  0  0
   24.1591   29.1782   34.1083 H   0  0  0  0  0  0  0  0  0  0  0  0
   22.9763   22.1765   29.6011 C   0  0  0  0  0  0  0  0  0  0  0  0
   22.5237   22.6169   30.8832 O   0  0  0  0  0  0  0  0  0  0  0  0
   23.2886   22.8281   31.4410 H   0  0  0  0  0  0  0  0  0  0  0  0
   28.1191   26.1765   28.1071 C   0  0  0  0  0  0  0  0  0  0  0  0
   26.7010   26.2031   28.1867 O   0  0  0  0  0  0  0  0  0  0  0  0
 23 24  1  0
  1 24  1  0
  1  2  1  0
  2  3  1  0
  2  4  1  0
  4  5  1  0
  4  6  1  0
  6 20  1  0
 20 21  1  0
  6  7  1  0
  7  8  1  0
  8 10  1  0
 10 11  1  0
 11 12  2  0
 12 13  1  0
 13 14  1  0
 13 15  2  0
 15 16  1  0
 16 17  2  0
  8  1  1  0
 16 10  1  0
  5  9  1  0
 21 22  1  0
 14 18  1  0
 14 19  1  0
M  END
> <minimizedAffinity>
-7.90263

> <CNNscore>
0.2188182920

> <CNNaffinity>
4.0418524742

> <CNN_VS>
0.8844312429

> <CNNaffinity_variance>
0.1132146418

$$$$



 24 25  0  0  0  0  0  0  0  0999 V2000
   33.4734   23.5024   26.9326 C   0  0  0  0  0  0  0  0  0  0  0  0
   32.7066   22.6448   25.9207 C   0  0  0  0  0  0  0  0  0  0  0  0
   33.3063   22.7594   24.6917 F   0  0  0  0  0  0  0  0  0  0  0  0
   32.7203   21.1574   26.2674 C   0  0  0  0  0  0  0  0  0  0  0  0
   31.8529   20.4450   25.3838 O   0  0  0  0  0  0  0  0  0  0  0  0
   32.2929   20.9500   27.7194 C   0  0  0  0  0  0  0  0  0  0  0  0
   33.1487   21.7098   28.5886 O   0  0  0  0  0  0  0  0  0  0  0  0
   33.0146   23.1234   28.3668 C   0  0  0  0  0  0  0  0  0  0  0  0
   30.9473   20.7787   25.4810 H   0  0  0  0  0  0  0  0  0  0  0  0
   33.7979   23.8150   29.3943 N   0  0  0  0  0  0  0  0  0  0  0  0
   33.1736   24.4590   30.4408 C   0  0  0  0  0  0  0  0  0  0  0  0
   33.8762   25.0318   31.4156 C   0  0  0  0  0  0  0  0  0  0  0  0
   35.3416   24.9138   31.3037 C   0  0  0  0  0  0  0  0  0  0  0  0
   36.1408   25.4796   32.2587 N   0  0  0  0  0  0  0  0  0  0  0  0
   35.9350   24.2970   30.3321 N   0  0  0  0  0  0  0  0  0  0  0  0
   35.1927   23.7096   29.3332 C   0  0  0  0  0  0  0  0  0  0  0  0
   35.7519   23.1334   28.4027 O   0  0  0  0  0  0  0  0  0  0  0  0
   35.7368   25.9595   33.0174 H   0  0  0  0  0  0  0  0  0  0  0  0
   37.1200   25.4068   32.1874 H   0  0  0  0  0  0  0  0  0  0  0  0
   32.4078   19.4798   28.1367 C   0  0  0  0  0  0  0  0  0  0  0  0
   33.3911   18.8272   27.3308 O   0  0  0  0  0  0  0  0  0  0  0  0
   33.1294   18.8766   26.3981 H   0  0  0  0  0  0  0  0  0  0  0  0
   31.8928   25.3067   26.9864 C   0  0  0  0  0  0  0  0  0  0  0  0
   33.2285   24.9026   26.7202 O   0  0  0  0  0  0  0  0  0  0  0  0
 23 24  1  0
  1 24  1  0
  1  2  1  0
  2  3  1  0
  2  4  1  0
  4  5  1  0
  4  6  1  0
  6 20  1  0
 20 21  1  0
  6  7  1  0
  7  8  1  0
  8 10  1  0
 10 11  1  0
 11 12  2  0
 12 13  1  0
 13 14  1  0
 13 15  2  0
 15 16  1  0
 16 17  2  0
  8  1  1  0
 16 10  1  0
  5  9  1  0
 21 22  1  0
 14 18  1  0
 14 19  1  0
M  END
> <minimizedAffinity>
-8.39042

> <CNNscore>
0.1855415702

> <CNNaffinity>
3.9427802563

> <CNN_VS>
0.7315496206

> <CNNaffinity_variance>
0.3270672560

$$$$



 24 25  0  0  0  0  0  0  0  0999 V2000
   26.5956   25.0954   26.5911 C   0  0  0  0  0  0  0  0  0  0  0  0
   27.6148   24.6637   25.5316 C   0  0  0  0  0  0  0  0  0  0  0  0
   27.2225   25.1492   24.3095 F   0  0  0  0  0  0  0  0  0  0  0  0
   29.0132   25.2224   25.7861 C   0  0  0  0  0  0  0  0  0  0  0  0
   29.9407   24.6479   24.8641 O   0  0  0  0  0  0  0  0  0  0  0  0
   29.4419   24.9369   27.2244 C   0  0  0  0  0  0  0  0  0  0  0  0
   28.4736   25.4831   28.1350 O   0  0  0  0  0  0  0  0  0  0  0  0
   27.1943   24.8420   28.0011 C   0  0  0  0  0  0  0  0  0  0  0  0
   29.9633   23.6858   24.9855 H   0  0  0  0  0  0  0  0  0  0  0  0
   26.3246   25.3495   29.0659 N   0  0  0  0  0  0  0  0  0  0  0  0
   25.5227   24.4924   29.7883 C   0  0  0  0  0  0  0  0  0  0  0  0
   24.7804   24.9324   30.8019 C   0  0  0  0  0  0  0  0  0  0  0  0
   24.8905   26.3724   31.0989 C   0  0  0  0  0  0  0  0  0  0  0  0
   24.1568   26.9106   32.1201 N   0  0  0  0  0  0  0  0  0  0  0  0
   25.6533   27.1809   30.4350 N   0  0  0  0  0  0  0  0  0  0  0  0
   26.4148   26.7085   29.3906 C   0  0  0  0  0  0  0  0  0  0  0  0
   27.1313   27.4745   28.7498 O   0  0  0  0  0  0  0  0  0  0  0  0
   23.5617   26.3364   32.6544 H   0  0  0  0  0  0  0  0  0  0  0  0
   24.2237   27.8721   32.3208 H   0  0  0  0  0  0  0  0  0  0  0  0
   30.7917   25.5857   27.5502 C   0  0  0  0  0  0  0  0  0  0  0  0
   30.8396   25.9238   28.9379 O   0  0  0  0  0  0  0  0  0  0  0  0
   30.1257   26.5475   29.1435 H   0  0  0  0  0  0  0  0  0  0  0  0
   24.2127   25.1677   26.3206 C   0  0  0  0  0  0  0  0  0  0  0  0
   25.3695   24.3560   26.4661 O   0  0  0  0  0  0  0  0  0  0  0  0
 23 24  1  0
  1 24  1  0
  1  2  1  0
  2  3  1  0
  2  4  1  0
  4  5  1  0
  4  6  1  0
  6 20  1  0
 20 21  1  0
  6  7  1  0
  7  8  1  0
  8 10  1  0
 10 11  1  0
 11 12  2  0
 12 13  1  0
 13 14  1  0
 13 15  2  0
 15 16  1  0
 16 17  2  0
  8  1  1  0
 16 10  1  0
  5  9  1  0
 21 22  1  0
 14 18  1  0
 14 19  1  0
M  END
> <minimizedAffinity>
-7.69821

> <CNNscore>
0.1791598499

> <CNNaffinity>
3.7411715984

> <CNN_VS>
0.6702677608

> <CNNaffinity_variance>
0.3351580203

$$$$



 24 25  0  0  0  0  0  0  0  0999 V2000
   36.3683   25.6822   34.4334 C   0  0  0  0  0  0  0  0  0  0  0  0
   36.8806   26.4693   35.6439 C   0  0  0  0  0  0  0  0  0  0  0  0
   36.3751   25.9077   36.7893 F   0  0  0  0  0  0  0  0  0  0  0  0
   38.4012   26.4292   35.7817 C   0  0  0  0  0  0  0  0  0  0  0  0
   38.8178   27.3147   36.8223 O   0  0  0  0  0  0  0  0  0  0  0  0
   39.0613   26.8111   34.4579 C   0  0  0  0  0  0  0  0  0  0  0  0
   38.5953   25.9382   33.4157 O   0  0  0  0  0  0  0  0  0  0  0  0
   37.1863   26.0941   33.1795 C   0  0  0  0  0  0  0  0  0  0  0  0
   38.5491   28.2205   36.6030 H   0  0  0  0  0  0  0  0  0  0  0  0
   36.8362   25.2882   32.0067 N   0  0  0  0  0  0  0  0  0  0  0  0
   35.5212   25.1403   31.6212 C   0  0  0  0  0  0  0  0  0  0  0  0
   35.1971   24.4673   30.5194 C   0  0  0  0  0  0  0  0  0  0  0  0
   36.3275   23.9175   29.7486 C   0  0  0  0  0  0  0  0  0  0  0  0
   36.0848   23.2059   28.6061 N   0  0  0  0  0  0  0  0  0  0  0  0
   37.5661   24.0656   30.0957 N   0  0  0  0  0  0  0  0  0  0  0  0
   37.8829   24.7654   31.2376 C   0  0  0  0  0  0  0  0  0  0  0  0
   39.0566   24.8982   31.5775 O   0  0  0  0  0  0  0  0  0  0  0  0
   35.1594   23.0659   28.3007 H   0  0  0  0  0  0  0  0  0  0  0  0
   36.8354   22.8336   28.0893 H   0  0  0  0  0  0  0  0  0  0  0  0
   40.5857   26.6679   34.5257 C   0  0  0  0  0  0  0  0  0  0  0  0
   40.9820   25.4477   33.8961 O   0  0  0  0  0  0  0  0  0  0  0  0
   40.5685   24.6988   34.3534 H   0  0  0  0  0  0  0  0  0  0  0  0
   34.1742   24.7830   34.0667 C   0  0  0  0  0  0  0  0  0  0  0  0
   34.9770   25.9485   34.1898 O   0  0  0  0  0  0  0  0  0  0  0  0
 23 24  1  0
  1 24  1  0
  1  2  1  0
  2  3  1  0
  2  4  1  0
  4  5  1  0
  4  6  1  0
  6 20  1  0
 20 21  1  0
  6  7  1  0
  7  8  1  0
  8 10  1  0
 10 11  1  0
 11 12  2  0
 12 13  1  0
 13 14  1  0
 13 15  2  0
 15 16  1  0
 16 17  2  0
  8  1  1  0
 16 10  1  0
  5  9  1  0
 21 22  1  0
 14 18  1  0
 14 19  1  0
M  END
> <minimizedAffinity>
-7.21625

> <CNNscore>
0.1445980966

> <CNNaffinity>
3.5564587116

> <CNN_VS>
0.5142571330

> <CNNaffinity_variance>
0.5851426721

$$$$



 24 25  0  0  0  0  0  0  0  0999 V2000
   34.3896   24.9780   31.6793 C   0  0  0  0  0  0  0  0  0  0  0  0
   33.2473   24.3335   30.8873 C   0  0  0  0  0  0  0  0  0  0  0  0
   32.1331   25.1290   30.9815 F   0  0  0  0  0  0  0  0  0  0  0  0
   33.5548   24.2009   29.3972 C   0  0  0  0  0  0  0  0  0  0  0  0
   32.5267   23.4455   28.7547 O   0  0  0  0  0  0  0  0  0  0  0  0
   34.9143   23.5336   29.1962 C   0  0  0  0  0  0  0  0  0  0  0  0
   35.9275   24.2828   29.8871 O   0  0  0  0  0  0  0  0  0  0  0  0
   35.7222   24.2721   31.3095 C   0  0  0  0  0  0  0  0  0  0  0  0
   32.4861   22.5580   29.1441 H   0  0  0  0  0  0  0  0  0  0  0  0
   36.8784   24.9203   31.9345 N   0  0  0  0  0  0  0  0  0  0  0  0
   38.1606   24.5115   31.6369 C   0  0  0  0  0  0  0  0  0  0  0  0
   39.2195   25.1372   32.1461 C   0  0  0  0  0  0  0  0  0  0  0  0
   38.9249   26.2871   33.0208 C   0  0  0  0  0  0  0  0  0  0  0  0
   39.9540   26.9834   33.5923 N   0  0  0  0  0  0  0  0  0  0  0  0
   37.7237   26.6868   33.2924 N   0  0  0  0  0  0  0  0  0  0  0  0
   36.6405   26.0286   32.7564 C   0  0  0  0  0  0  0  0  0  0  0  0
   35.4983   26.3969   33.0211 O   0  0  0  0  0  0  0  0  0  0  0  0
   40.8856   26.7181   33.4162 H   0  0  0  0  0  0  0  0  0  0  0  0
   39.7632   27.7500   34.1799 H   0  0  0  0  0  0  0  0  0  0  0  0
   35.3082   23.4904   27.7158 C   0  0  0  0  0  0  0  0  0  0  0  0
   34.5570   24.4660   26.9903 O   0  0  0  0  0  0  0  0  0  0  0  0
   33.6100   24.2745   27.0762 H   0  0  0  0  0  0  0  0  0  0  0  0
   32.8337   24.5613   33.4577 C   0  0  0  0  0  0  0  0  0  0  0  0
   34.1754   24.8558   33.0953 O   0  0  0  0  0  0  0  0  0  0  0  0
 23 24  1  0
  1 24  1  0
  1  2  1  0
  2  3  1  0
  2  4  1  0
  4  5  1  0
  4  6  1  0
  6 20  1  0
 20 21  1  0
  6  7  1  0
  7  8  1  0
  8 10  1  0
 10 11  1  0
 11 12  2  0
 12 13  1  0
 13 14  1  0
 13 15  2  0
 15 16  1  0
 16 17  2  0
  8  1  1  0
 16 10  1  0
  5  9  1  0
 21 22  1  0
 14 18  1  0
 14 19  1  0
M  END
> <minimizedAffinity>
-6.90487

> <CNNscore>
0.1149822026

> <CNNaffinity>
3.2324664593

> <CNN_VS>
0.3716761172

> <CNNaffinity_variance>
1.0672293901

$$$$
