


 18 19  0  0  0  0  0  0  0  0999 V2000
    8.5729    0.8114   25.3268 C   0  0  0  0  0  0  0  0  0  0  0  0
    8.2011    1.8805   26.1132 C   0  0  0  0  0  0  0  0  0  0  0  0
    8.4840    3.1635   25.5110 C   0  0  0  0  0  0  0  0  0  0  0  0
    8.2755    4.4951   25.9646 C   0  0  0  0  0  0  0  0  0  0  0  0
    7.4132    4.8839   27.8346 I   0  0  0  0  0  0  0  0  0  0  0  0
    8.6430    5.5910   25.1755 C   0  0  0  0  0  0  0  0  0  0  0  0
    9.2183    5.3807   23.9323 C   0  0  0  0  0  0  0  0  0  0  0  0
    9.6691    6.7302   22.9645 Cl  0  0  0  0  0  0  0  0  0  0  0  0
    9.4388    4.0918   23.4486 C   0  0  0  0  0  0  0  0  0  0  0  0
    9.0655    2.9950   24.2495 C   0  0  0  0  0  0  0  0  0  0  0  0
    9.2394    1.3307   23.8469 S   0  0  0  0  0  0  0  0  0  0  0  0
    8.0581   -0.8896   26.9072 N   0  0  0  0  0  0  0  0  0  0  0  0
    8.4135   -0.5893   25.6785 C   0  0  0  0  0  0  0  0  0  0  0  0
    8.6180   -1.5175   24.7707 N   0  0  0  0  0  0  0  0  0  0  0  0
    7.9435   -1.8314   27.1702 H   0  0  0  0  0  0  0  0  0  0  0  0
    7.9063   -0.1729   27.5648 H   0  0  0  0  0  0  0  0  0  0  0  0
    8.5109   -2.4676   25.0053 H   0  0  0  0  0  0  0  0  0  0  0  0
    8.8782   -1.2627   23.8560 H   0  0  0  0  0  0  0  0  0  0  0  0
 12 13  1  0
 13 14  2  0
 13  1  1  0
  1  2  2  0
  2  3  1  0
  3  4  2  0
  4  5  1  0
  4  6  1  0
  6  7  2  0
  7  8  1  0
  7  9  1  0
  9 10  2  0
 10 11  1  0
 11  1  1  0
 10  3  1  0
 12 15  1  0
 12 16  1  0
 14 17  1  0
 14 18  1  0
M  CHG 1  14   1
M  END
> <minimizedAffinity>
-6.95886

> <CNNscore>
0.9527201056

> <CNNaffinity>
5.3753113747

> <CNN_VS>
5.1211671829

> <CNNaffinity_variance>
0.2364380360

$$$$



 18 19  0  0  0  0  0  0  0  0999 V2000
   12.5702   11.7272   19.9638 C   0  0  0  0  0  0  0  0  0  0  0  0
   11.4001   11.6138   20.6832 C   0  0  0  0  0  0  0  0  0  0  0  0
   11.3061   10.3854   21.4388 C   0  0  0  0  0  0  0  0  0  0  0  0
   10.2941    9.8682   22.2935 C   0  0  0  0  0  0  0  0  0  0  0  0
    8.5247   10.9327   22.6510 I   0  0  0  0  0  0  0  0  0  0  0  0
   10.4468    8.6273   22.9225 C   0  0  0  0  0  0  0  0  0  0  0  0
   11.6002    7.8881   22.7133 C   0  0  0  0  0  0  0  0  0  0  0  0
   11.7851    6.3628   23.4881 Cl  0  0  0  0  0  0  0  0  0  0  0  0
   12.6179    8.3588   21.8847 C   0  0  0  0  0  0  0  0  0  0  0  0
   12.4556    9.6088   21.2561 C   0  0  0  0  0  0  0  0  0  0  0  0
   13.5820   10.3775   20.2061 S   0  0  0  0  0  0  0  0  0  0  0  0
   14.1552   13.3217   19.1879 N   0  0  0  0  0  0  0  0  0  0  0  0
   12.9317   12.8487   19.1136 C   0  0  0  0  0  0  0  0  0  0  0  0
   12.0416   13.3578   18.2914 N   0  0  0  0  0  0  0  0  0  0  0  0
   14.4246   14.0810   18.6223 H   0  0  0  0  0  0  0  0  0  0  0  0
   14.8026   12.9167   19.8093 H   0  0  0  0  0  0  0  0  0  0  0  0
   12.2829   14.1178   17.7139 H   0  0  0  0  0  0  0  0  0  0  0  0
   11.1336   12.9793   18.2531 H   0  0  0  0  0  0  0  0  0  0  0  0
 12 13  1  0
 13 14  2  0
 13  1  1  0
  1  2  2  0
  2  3  1  0
  3  4  2  0
  4  5  1  0
  4  6  1  0
  6  7  2  0
  7  8  1  0
  7  9  1  0
  9 10  2  0
 10 11  1  0
 11  1  1  0
 10  3  1  0
 12 15  1  0
 12 16  1  0
 14 17  1  0
 14 18  1  0
M  CHG 1  14   1
M  END
> <minimizedAffinity>
-4.48392

> <CNNscore>
0.2154065371

> <CNNaffinity>
4.1103386879

> <CNN_VS>
0.8853937984

> <CNNaffinity_variance>
0.2855783403

$$$$



 18 19  0  0  0  0  0  0  0  0999 V2000
    8.8682    6.9274   24.1400 C   0  0  0  0  0  0  0  0  0  0  0  0
    8.5140    6.2949   25.3122 C   0  0  0  0  0  0  0  0  0  0  0  0
    8.6290    4.8557   25.2466 C   0  0  0  0  0  0  0  0  0  0  0  0
    8.3669    3.8350   26.2014 C   0  0  0  0  0  0  0  0  0  0  0  0
    7.6704    4.2971   28.1232 I   0  0  0  0  0  0  0  0  0  0  0  0
    8.5637    2.4856   25.8863 C   0  0  0  0  0  0  0  0  0  0  0  0
    9.0216    2.1338   24.6265 C   0  0  0  0  0  0  0  0  0  0  0  0
    9.2626    0.4739   24.2420 Cl  0  0  0  0  0  0  0  0  0  0  0  0
    9.2927    3.1027   23.6613 C   0  0  0  0  0  0  0  0  0  0  0  0
    9.0920    4.4581   23.9875 C   0  0  0  0  0  0  0  0  0  0  0  0
    9.3689    5.8082   22.9565 S   0  0  0  0  0  0  0  0  0  0  0  0
    7.6973    8.9937   24.0149 N   0  0  0  0  0  0  0  0  0  0  0  0
    8.8457    8.3630   23.9169 C   0  0  0  0  0  0  0  0  0  0  0  0
    9.9613    8.9969   23.6321 N   0  0  0  0  0  0  0  0  0  0  0  0
    7.6558    9.9664   23.8683 H   0  0  0  0  0  0  0  0  0  0  0  0
    6.8783    8.4937   24.2350 H   0  0  0  0  0  0  0  0  0  0  0  0
    9.9499    9.9695   23.4803 H   0  0  0  0  0  0  0  0  0  0  0  0
   10.8084    8.4990   23.5706 H   0  0  0  0  0  0  0  0  0  0  0  0
 12 13  1  0
 13 14  2  0
 13  1  1  0
  1  2  2  0
  2  3  1  0
  3  4  2  0
  4  5  1  0
  4  6  1  0
  6  7  2  0
  7  8  1  0
  7  9  1  0
  9 10  2  0
 10 11  1  0
 11  1  1  0
 10  3  1  0
 12 15  1  0
 12 16  1  0
 14 17  1  0
 14 18  1  0
M  CHG 1  14   1
M  END
> <minimizedAffinity>
-4.78473

> <CNNscore>
0.2116354555

> <CNNaffinity>
4.2466654778

> <CNN_VS>
0.8987450004

> <CNNaffinity_variance>
0.2273243815

$$$$



 18 19  0  0  0  0  0  0  0  0999 V2000
   17.3419   11.7865   23.3202 C   0  0  0  0  0  0  0  0  0  0  0  0
   16.2110   11.2901   22.7083 C   0  0  0  0  0  0  0  0  0  0  0  0
   15.8658   11.9836   21.4881 C   0  0  0  0  0  0  0  0  0  0  0  0
   14.7999   11.8098   20.5630 C   0  0  0  0  0  0  0  0  0  0  0  0
   13.3466   10.3265   20.8452 I   0  0  0  0  0  0  0  0  0  0  0  0
   14.6857   12.6278   19.4331 C   0  0  0  0  0  0  0  0  0  0  0  0
   15.6235   13.6229   19.2075 C   0  0  0  0  0  0  0  0  0  0  0  0
   15.4804   14.6270   17.8174 Cl  0  0  0  0  0  0  0  0  0  0  0  0
   16.6851   13.8262   20.0881 C   0  0  0  0  0  0  0  0  0  0  0  0
   16.7921   12.9980   21.2223 C   0  0  0  0  0  0  0  0  0  0  0  0
   18.0193   13.0700   22.4270 S   0  0  0  0  0  0  0  0  0  0  0  0
   17.1051   10.8868   25.5089 N   0  0  0  0  0  0  0  0  0  0  0  0
   17.9176   11.2891   24.5581 C   0  0  0  0  0  0  0  0  0  0  0  0
   19.2236   11.2447   24.6989 N   0  0  0  0  0  0  0  0  0  0  0  0
   17.4706   10.5456   26.3570 H   0  0  0  0  0  0  0  0  0  0  0  0
   16.1308   10.9265   25.3734 H   0  0  0  0  0  0  0  0  0  0  0  0
   19.6172   10.9083   25.5363 H   0  0  0  0  0  0  0  0  0  0  0  0
   19.8082   11.5478   23.9671 H   0  0  0  0  0  0  0  0  0  0  0  0
 12 13  1  0
 13 14  2  0
 13  1  1  0
  1  2  2  0
  2  3  1  0
  3  4  2  0
  4  5  1  0
  4  6  1  0
  6  7  2  0
  7  8  1  0
  7  9  1  0
  9 10  2  0
 10 11  1  0
 11  1  1  0
 10  3  1  0
 12 15  1  0
 12 16  1  0
 14 17  1  0
 14 18  1  0
M  CHG 1  14   1
M  END
> <minimizedAffinity>
-4.40450

> <CNNscore>
0.2070619315

> <CNNaffinity>
4.1139435768

> <CNN_VS>
0.8518410921

> <CNNaffinity_variance>
0.3264406323

$$$$



 18 19  0  0  0  0  0  0  0  0999 V2000
    7.4198    5.6860   27.7650 C   0  0  0  0  0  0  0  0  0  0  0  0
    7.6261    5.9377   26.4257 C   0  0  0  0  0  0  0  0  0  0  0  0
    8.1292    4.7957   25.6966 C   0  0  0  0  0  0  0  0  0  0  0  0
    8.4789    4.6173   24.3298 C   0  0  0  0  0  0  0  0  0  0  0  0
    8.3103    6.1863   22.9509 I   0  0  0  0  0  0  0  0  0  0  0  0
    8.9507    3.3856   23.8615 C   0  0  0  0  0  0  0  0  0  0  0  0
    9.0799    2.3206   24.7388 C   0  0  0  0  0  0  0  0  0  0  0  0
    9.6602    0.8075   24.1600 Cl  0  0  0  0  0  0  0  0  0  0  0  0
    8.7465    2.4518   26.0862 C   0  0  0  0  0  0  0  0  0  0  0  0
    8.2723    3.6949   26.5484 C   0  0  0  0  0  0  0  0  0  0  0  0
    7.7995    4.0723   28.1598 S   0  0  0  0  0  0  0  0  0  0  0  0
    5.6580    6.5966   29.0776 N   0  0  0  0  0  0  0  0  0  0  0  0
    6.9259    6.6466   28.7368 C   0  0  0  0  0  0  0  0  0  0  0  0
    7.7477    7.5314   29.2557 N   0  0  0  0  0  0  0  0  0  0  0  0
    5.2992    7.2366   29.7341 H   0  0  0  0  0  0  0  0  0  0  0  0
    5.0668    5.9193   28.6766 H   0  0  0  0  0  0  0  0  0  0  0  0
    7.4167    8.1838   29.9145 H   0  0  0  0  0  0  0  0  0  0  0  0
    8.6944    7.5417   28.9856 H   0  0  0  0  0  0  0  0  0  0  0  0
 12 13  1  0
 13 14  2  0
 13  1  1  0
  1  2  2  0
  2  3  1  0
  3  4  2  0
  4  5  1  0
  4  6  1  0
  6  7  2  0
  7  8  1  0
  7  9  1  0
  9 10  2  0
 10 11  1  0
 11  1  1  0
 10  3  1  0
 12 15  1  0
 12 16  1  0
 14 17  1  0
 14 18  1  0
M  CHG 1  14   1
M  END
> <minimizedAffinity>
-5.07315

> <CNNscore>
0.1985947490

> <CNNaffinity>
3.5404376984

> <CNN_VS>
0.7031123638

> <CNNaffinity_variance>
1.0013215542

$$$$



 18 19  0  0  0  0  0  0  0  0999 V2000
   15.1975   10.7013   22.1339 C   0  0  0  0  0  0  0  0  0  0  0  0
   14.3106    9.7985   22.6797 C   0  0  0  0  0  0  0  0  0  0  0  0
   12.9412   10.0208   22.2746 C   0  0  0  0  0  0  0  0  0  0  0  0
   11.7314    9.3462   22.5966 C   0  0  0  0  0  0  0  0  0  0  0  0
   11.7173    7.6974   23.8900 I   0  0  0  0  0  0  0  0  0  0  0  0
   10.5082    9.7648   22.0606 C   0  0  0  0  0  0  0  0  0  0  0  0
   10.4701   10.8519   21.2019 C   0  0  0  0  0  0  0  0  0  0  0  0
    8.9647   11.3643   20.5445 Cl  0  0  0  0  0  0  0  0  0  0  0  0
   11.6328   11.5405   20.8585 C   0  0  0  0  0  0  0  0  0  0  0  0
   12.8593   11.1119   21.4025 C   0  0  0  0  0  0  0  0  0  0  0  0
   14.4056   11.8083   21.1085 S   0  0  0  0  0  0  0  0  0  0  0  0
   17.3062   11.7961   22.0285 N   0  0  0  0  0  0  0  0  0  0  0  0
   16.6313   10.7215   22.3688 C   0  0  0  0  0  0  0  0  0  0  0  0
   17.2175    9.6807   22.9171 N   0  0  0  0  0  0  0  0  0  0  0  0
   18.2786   11.8343   22.1774 H   0  0  0  0  0  0  0  0  0  0  0  0
   16.8395   12.5631   21.6245 H   0  0  0  0  0  0  0  0  0  0  0  0
   18.1888    9.6908   23.0778 H   0  0  0  0  0  0  0  0  0  0  0  0
   16.6854    8.8910   23.1671 H   0  0  0  0  0  0  0  0  0  0  0  0
 12 13  1  0
 13 14  2  0
 13  1  1  0
  1  2  2  0
  2  3  1  0
  3  4  2  0
  4  5  1  0
  4  6  1  0
  6  7  2  0
  7  8  1  0
  7  9  1  0
  9 10  2  0
 10 11  1  0
 11  1  1  0
 10  3  1  0
 12 15  1  0
 12 16  1  0
 14 17  1  0
 14 18  1  0
M  CHG 1  14   1
M  END
> <minimizedAffinity>
-4.38903

> <CNNscore>
0.1805520505

> <CNNaffinity>
3.8248522282

> <CNN_VS>
0.6905848980

> <CNNaffinity_variance>
0.5551760197

$$$$



 18 19  0  0  0  0  0  0  0  0999 V2000
   14.8073    9.8392   22.4235 C   0  0  0  0  0  0  0  0  0  0  0  0
   13.6393   10.5255   22.1699 C   0  0  0  0  0  0  0  0  0  0  0  0
   12.4495    9.7302   22.3715 C   0  0  0  0  0  0  0  0  0  0  0  0
   11.0673   10.0299   22.2231 C   0  0  0  0  0  0  0  0  0  0  0  0
   10.4270   11.9248   21.5978 I   0  0  0  0  0  0  0  0  0  0  0  0
   10.0883    9.0654   22.4879 C   0  0  0  0  0  0  0  0  0  0  0  0
   10.4663    7.7982   22.9022 C   0  0  0  0  0  0  0  0  0  0  0  0
    9.2603    6.6145   23.2271 Cl  0  0  0  0  0  0  0  0  0  0  0  0
   11.8101    7.4629   23.0624 C   0  0  0  0  0  0  0  0  0  0  0  0
   12.7884    8.4400   22.7938 C   0  0  0  0  0  0  0  0  0  0  0  0
   14.4927    8.2436   22.9325 S   0  0  0  0  0  0  0  0  0  0  0  0
   16.3109   11.5017   21.6287 N   0  0  0  0  0  0  0  0  0  0  0  0
   16.1487   10.3837   22.2995 C   0  0  0  0  0  0  0  0  0  0  0  0
   17.1608    9.7597   22.8598 N   0  0  0  0  0  0  0  0  0  0  0  0
   17.2099   11.8909   21.5305 H   0  0  0  0  0  0  0  0  0  0  0  0
   15.5334   11.9503   21.2242 H   0  0  0  0  0  0  0  0  0  0  0  0
   18.0710   10.1257   22.7779 H   0  0  0  0  0  0  0  0  0  0  0  0
   17.0086    8.9263   23.3613 H   0  0  0  0  0  0  0  0  0  0  0  0
 12 13  1  0
 13 14  2  0
 13  1  1  0
  1  2  2  0
  2  3  1  0
  3  4  2  0
  4  5  1  0
  4  6  1  0
  6  7  2  0
  7  8  1  0
  7  9  1  0
  9 10  2  0
 10 11  1  0
 11  1  1  0
 10  3  1  0
 12 15  1  0
 12 16  1  0
 14 17  1  0
 14 18  1  0
M  CHG 1  14   1
M  END
> <minimizedAffinity>
-4.35754

> <CNNscore>
0.1580409408

> <CNNaffinity>
3.4486615658

> <CNN_VS>
0.5450296998

> <CNNaffinity_variance>
0.6447972059

$$$$



 18 19  0  0  0  0  0  0  0  0999 V2000
   13.8150   11.6263   20.9581 C   0  0  0  0  0  0  0  0  0  0  0  0
   14.9910   12.3384   20.8597 C   0  0  0  0  0  0  0  0  0  0  0  0
   15.8599   12.1748   22.0029 C   0  0  0  0  0  0  0  0  0  0  0  0
   17.1366   12.7183   22.3141 C   0  0  0  0  0  0  0  0  0  0  0  0
   18.1095   14.0293   21.0002 I   0  0  0  0  0  0  0  0  0  0  0  0
   17.7845   12.3961   23.5122 C   0  0  0  0  0  0  0  0  0  0  0  0
   17.1772   11.5342   24.4116 C   0  0  0  0  0  0  0  0  0  0  0  0
   17.9762   11.1399   25.8838 Cl  0  0  0  0  0  0  0  0  0  0  0  0
   15.9270   10.9776   24.1451 C   0  0  0  0  0  0  0  0  0  0  0  0
   15.2827   11.3074   22.9368 C   0  0  0  0  0  0  0  0  0  0  0  0
   13.7494   10.7321   22.4073 S   0  0  0  0  0  0  0  0  0  0  0  0
   12.7397   12.5477   19.0474 N   0  0  0  0  0  0  0  0  0  0  0  0
   12.7562   11.6059   19.9632 C   0  0  0  0  0  0  0  0  0  0  0  0
   11.8508   10.6537   19.9932 N   0  0  0  0  0  0  0  0  0  0  0  0
   12.0327   12.5558   18.3623 H   0  0  0  0  0  0  0  0  0  0  0  0
   13.4343   13.2454   19.0462 H   0  0  0  0  0  0  0  0  0  0  0  0
   11.1319   10.6366   19.3207 H   0  0  0  0  0  0  0  0  0  0  0  0
   11.8913    9.9575   20.6881 H   0  0  0  0  0  0  0  0  0  0  0  0
 12 13  1  0
 13 14  2  0
 13  1  1  0
  1  2  2  0
  2  3  1  0
  3  4  2  0
  4  5  1  0
  4  6  1  0
  6  7  2  0
  7  8  1  0
  7  9  1  0
  9 10  2  0
 10 11  1  0
 11  1  1  0
 10  3  1  0
 12 15  1  0
 12 16  1  0
 14 17  1  0
 14 18  1  0
M  CHG 1  14   1
M  END
> <minimizedAffinity>
-4.09782

> <CNNscore>
0.1554034352

> <CNNaffinity>
3.9430809021

> <CNN_VS>
0.6127682924

> <CNNaffinity_variance>
0.2141990662

$$$$



 18 19  0  0  0  0  0  0  0  0999 V2000
   15.1004   12.1025   20.4898 C   0  0  0  0  0  0  0  0  0  0  0  0
   15.3743   12.0145   21.8377 C   0  0  0  0  0  0  0  0  0  0  0  0
   14.7106   10.9077   22.4885 C   0  0  0  0  0  0  0  0  0  0  0  0
   14.7079   10.4593   23.8380 C   0  0  0  0  0  0  0  0  0  0  0  0
   15.8051   11.4586   25.3177 I   0  0  0  0  0  0  0  0  0  0  0  0
   13.9683    9.3350   24.2223 C   0  0  0  0  0  0  0  0  0  0  0  0
   13.2265    8.6443   23.2772 C   0  0  0  0  0  0  0  0  0  0  0  0
   12.3182    7.2624   23.7528 Cl  0  0  0  0  0  0  0  0  0  0  0  0
   13.2028    9.0487   21.9431 C   0  0  0  0  0  0  0  0  0  0  0  0
   13.9504   10.1811   21.5654 C   0  0  0  0  0  0  0  0  0  0  0  0
   14.0681   10.8453   19.9820 S   0  0  0  0  0  0  0  0  0  0  0  0
   14.8889   13.4776   18.5610 N   0  0  0  0  0  0  0  0  0  0  0  0
   15.6236   13.1143   19.5878 C   0  0  0  0  0  0  0  0  0  0  0  0
   16.8037   13.6457   19.8170 N   0  0  0  0  0  0  0  0  0  0  0  0
   15.2211   14.1613   17.9353 H   0  0  0  0  0  0  0  0  0  0  0  0
   14.0061   13.0662   18.4172 H   0  0  0  0  0  0  0  0  0  0  0  0
   17.1614   14.3315   19.2079 H   0  0  0  0  0  0  0  0  0  0  0  0
   17.3299   13.3579   20.5977 H   0  0  0  0  0  0  0  0  0  0  0  0
 12 13  1  0
 13 14  2  0
 13  1  1  0
  1  2  2  0
  2  3  1  0
  3  4  2  0
  4  5  1  0
  4  6  1  0
  6  7  2  0
  7  8  1  0
  7  9  1  0
  9 10  2  0
 10 11  1  0
 11  1  1  0
 10  3  1  0
 12 15  1  0
 12 16  1  0
 14 17  1  0
 14 18  1  0
M  CHG 1  14   1
M  END
> <minimizedAffinity>
-4.10303

> <CNNscore>
0.1480409652

> <CNNaffinity>
4.1168656349

> <CNN_VS>
0.6094647646

> <CNNaffinity_variance>
0.7304048538

$$$$
