


 32 34  0  0  0  0  0  0  0  0999 V2000
   43.6230   10.3336   -2.5140 C   0  0  0  0  0  0  0  0  0  0  0  0
   43.3353    9.0800   -2.0000 C   0  0  0  0  0  0  0  0  0  0  0  0
   44.1583    8.8327   -0.5125 S   0  0  0  0  0  0  0  0  0  0  0  0
   44.8416   10.4048   -0.5200 C   0  0  0  0  0  0  0  0  0  0  0  0
   44.4518   11.0999   -1.6443 C   0  0  0  0  0  0  0  0  0  0  0  0
   44.9019   12.9066   -2.0045 Br  0  0  0  0  0  0  0  0  0  0  0  0
   45.6942   10.8099    0.5965 C   0  0  0  0  0  0  0  0  0  0  0  0
   45.5549   12.0764    1.1702 C   0  0  0  0  0  0  0  0  0  0  0  0
   46.3844   12.4580    2.2238 C   0  0  0  0  0  0  0  0  0  0  0  0
   47.3498   11.5733    2.7173 C   0  0  0  0  0  0  0  0  0  0  0  0
   47.4859   10.2849    2.1917 C   0  0  0  0  0  0  0  0  0  0  0  0
   46.6642    9.9327    1.1069 C   0  0  0  0  0  0  0  0  0  0  0  0
   48.4769    9.3875    2.5858 N   0  0  0  0  0  0  0  0  0  0  0  0
   49.4175    9.6782    2.5911 H   0  0  0  0  0  0  0  0  0  0  0  0
   48.1461    8.0253    2.9905 C   0  0  0  0  0  0  0  0  0  0  0  0
   49.3655    7.3863    3.6141 C   0  0  0  0  0  0  0  0  0  0  0  0
   49.2200    6.4320    4.6330 C   0  0  0  0  0  0  0  0  0  0  0  0
   50.3382    5.8445    5.2226 C   0  0  0  0  0  0  0  0  0  0  0  0
   51.6145    6.2016    4.7983 C   0  0  0  0  0  0  0  0  0  0  0  0
   51.7733    7.1476    3.7869 C   0  0  0  0  0  0  0  0  0  0  0  0
   50.6555    7.7392    3.1972 C   0  0  0  0  0  0  0  0  0  0  0  0
   42.5063    8.0081   -2.4940 C   0  0  0  0  0  0  0  0  0  0  0  0
   42.8413    6.9707   -3.0443 O   0  0  0  0  0  0  0  0  0  0  0  0
   41.1818    8.2417   -2.3217 O   0  0  0  0  0  0  0  0  0  0  0  0
   40.8955    9.0294   -1.9027 H   0  0  0  0  0  0  0  0  0  0  0  0
   43.0636   10.7802   -3.6665 O   0  0  0  0  0  0  0  0  0  0  0  0
   41.8480   11.4974   -3.4328 C   0  0  0  0  0  0  0  0  0  0  0  0
   41.4397   12.2589   -4.7039 C   0  0  0  0  0  0  0  0  0  0  0  0
   39.5941   11.1129   -6.0324 C   0  0  0  0  0  0  0  0  0  0  0  0
   39.9258   12.2319   -5.0472 N   0  0  0  0  0  0  0  0  0  0  0  0
   39.0667   12.0799   -3.8001 C   0  0  0  0  0  0  0  0  0  0  0  0
   39.5837   13.5683   -5.7172 C   0  0  0  0  0  0  0  0  0  0  0  0
 29 30  1  0
 30 31  1  0
 30 32  1  0
 30 28  1  0
 28 27  1  0
 27 26  1  0
 26  1  1  0
  1  2  2  0
  2 22  1  0
 22 23  2  0
 22 24  1  0
  2  3  1  0
  3  4  1  0
  4  7  1  0
  7  8  2  0
  8  9  1  0
  9 10  2  0
 10 11  1  0
 11 13  1  0
 13 15  1  0
 15 16  1  0
 16 17  2  0
 17 18  1  0
 18 19  2  0
 19 20  1  0
 20 21  2  0
 11 12  2  0
  4  5  2  0
  5  6  1  0
  5  1  1  0
 12  7  1  0
 21 16  1  0
 24 25  1  0
 13 14  1  0
M  CHG 1  30   1
M  END
> <minimizedAffinity>
-5.58630

> <CNNscore>
0.3768851161

> <CNNaffinity>
5.1609163284

> <CNN_VS>
1.9450725317

> <CNNaffinity_variance>
0.2615185082

$$$$



 32 34  0  0  0  0  0  0  0  0999 V2000
   43.5711   10.3199   -2.6926 C   0  0  0  0  0  0  0  0  0  0  0  0
   43.2139    9.1076   -2.1260 C   0  0  0  0  0  0  0  0  0  0  0  0
   43.9635    8.9123   -0.5926 S   0  0  0  0  0  0  0  0  0  0  0  0
   44.7066   10.4559   -0.6534 C   0  0  0  0  0  0  0  0  0  0  0  0
   44.3916   11.1021   -1.8291 C   0  0  0  0  0  0  0  0  0  0  0  0
   44.9256   12.8689   -2.2644 Br  0  0  0  0  0  0  0  0  0  0  0  0
   45.5265   10.8902    0.4765 C   0  0  0  0  0  0  0  0  0  0  0  0
   45.2275   12.0753    1.1538 C   0  0  0  0  0  0  0  0  0  0  0  0
   46.0259   12.4882    2.2195 C   0  0  0  0  0  0  0  0  0  0  0  0
   47.1204   11.7144    2.6217 C   0  0  0  0  0  0  0  0  0  0  0  0
   47.4207   10.5034    1.9908 C   0  0  0  0  0  0  0  0  0  0  0  0
   46.6249   10.1232    0.8961 C   0  0  0  0  0  0  0  0  0  0  0  0
   48.5393    9.7286    2.2924 N   0  0  0  0  0  0  0  0  0  0  0  0
   49.1526   10.0220    3.0045 H   0  0  0  0  0  0  0  0  0  0  0  0
   48.8183    8.4907    1.5722 C   0  0  0  0  0  0  0  0  0  0  0  0
   49.0581    7.3824    2.5714 C   0  0  0  0  0  0  0  0  0  0  0  0
   48.9390    7.6335    3.9472 C   0  0  0  0  0  0  0  0  0  0  0  0
   49.1687    6.6213    4.8777 C   0  0  0  0  0  0  0  0  0  0  0  0
   49.5166    5.3457    4.4437 C   0  0  0  0  0  0  0  0  0  0  0  0
   49.6377    5.0825    3.0802 C   0  0  0  0  0  0  0  0  0  0  0  0
   49.4112    6.0949    2.1470 C   0  0  0  0  0  0  0  0  0  0  0  0
   42.3657    8.0410   -2.5985 C   0  0  0  0  0  0  0  0  0  0  0  0
   41.1464    7.9945   -2.6456 O   0  0  0  0  0  0  0  0  0  0  0  0
   43.0636    6.9554   -3.0145 O   0  0  0  0  0  0  0  0  0  0  0  0
   44.0002    6.9627   -2.9896 H   0  0  0  0  0  0  0  0  0  0  0  0
   43.0783   10.7229   -3.8907 O   0  0  0  0  0  0  0  0  0  0  0  0
   41.8244   11.3986   -3.7577 C   0  0  0  0  0  0  0  0  0  0  0  0
   40.8500   10.9065   -4.8397 C   0  0  0  0  0  0  0  0  0  0  0  0
   38.5378   11.9453   -5.0821 C   0  0  0  0  0  0  0  0  0  0  0  0
   39.3567   10.8392   -4.4200 N   0  0  0  0  0  0  0  0  0  0  0  0
   38.7390    9.4870   -4.7466 C   0  0  0  0  0  0  0  0  0  0  0  0
   39.2970   11.0507   -2.9024 C   0  0  0  0  0  0  0  0  0  0  0  0
 29 30  1  0
 30 31  1  0
 30 32  1  0
 30 28  1  0
 28 27  1  0
 27 26  1  0
 26  1  1  0
  1  2  2  0
  2 22  1  0
 22 23  2  0
 22 24  1  0
  2  3  1  0
  3  4  1  0
  4  7  1  0
  7  8  2  0
  8  9  1  0
  9 10  2  0
 10 11  1  0
 11 13  1  0
 13 15  1  0
 15 16  1  0
 16 17  2  0
 17 18  1  0
 18 19  2  0
 19 20  1  0
 20 21  2  0
 11 12  2  0
  4  5  2  0
  5  6  1  0
  5  1  1  0
 12  7  1  0
 21 16  1  0
 24 25  1  0
 13 14  1  0
M  CHG 1  30   1
M  END
> <minimizedAffinity>
-5.65490

> <CNNscore>
0.2878129184

> <CNNaffinity>
4.8743782043

> <CNN_VS>
1.4029090405

> <CNNaffinity_variance>
0.4285730124

$$$$



 32 34  0  0  0  0  0  0  0  0999 V2000
   43.5803   10.2653   -2.7680 C   0  0  0  0  0  0  0  0  0  0  0  0
   43.2005    9.0828   -2.1551 C   0  0  0  0  0  0  0  0  0  0  0  0
   43.8928    8.9645   -0.5874 S   0  0  0  0  0  0  0  0  0  0  0  0
   44.6402   10.5032   -0.6978 C   0  0  0  0  0  0  0  0  0  0  0  0
   44.3697   11.0898   -1.9151 C   0  0  0  0  0  0  0  0  0  0  0  0
   44.9224   12.8327   -2.4182 Br  0  0  0  0  0  0  0  0  0  0  0  0
   45.4188   10.9936    0.4384 C   0  0  0  0  0  0  0  0  0  0  0  0
   45.0962   12.2104    1.0451 C   0  0  0  0  0  0  0  0  0  0  0  0
   45.8556   12.6761    2.1175 C   0  0  0  0  0  0  0  0  0  0  0  0
   46.9342   11.9243    2.5969 C   0  0  0  0  0  0  0  0  0  0  0  0
   47.2564   10.6840    2.0378 C   0  0  0  0  0  0  0  0  0  0  0  0
   46.5006   10.2494    0.9350 C   0  0  0  0  0  0  0  0  0  0  0  0
   48.3627    9.9262    2.4178 N   0  0  0  0  0  0  0  0  0  0  0  0
   49.2296   10.3721    2.5552 H   0  0  0  0  0  0  0  0  0  0  0  0
   48.2598    8.4843    2.6156 C   0  0  0  0  0  0  0  0  0  0  0  0
   49.6407    7.9202    2.8586 C   0  0  0  0  0  0  0  0  0  0  0  0
   49.9794    7.3985    4.1168 C   0  0  0  0  0  0  0  0  0  0  0  0
   51.2535    6.8857    4.3550 C   0  0  0  0  0  0  0  0  0  0  0  0
   52.2027    6.8853    3.3373 C   0  0  0  0  0  0  0  0  0  0  0  0
   51.8794    7.3999    2.0828 C   0  0  0  0  0  0  0  0  0  0  0  0
   50.6055    7.9164    1.8429 C   0  0  0  0  0  0  0  0  0  0  0  0
   42.3684    7.9938   -2.6046 C   0  0  0  0  0  0  0  0  0  0  0  0
   41.1523    7.9494   -2.7069 O   0  0  0  0  0  0  0  0  0  0  0  0
   43.0778    6.8830   -2.9232 O   0  0  0  0  0  0  0  0  0  0  0  0
   44.0123    6.8881   -2.8543 H   0  0  0  0  0  0  0  0  0  0  0  0
   43.1326   10.6078   -4.0021 O   0  0  0  0  0  0  0  0  0  0  0  0
   44.0012   10.1416   -5.0389 C   0  0  0  0  0  0  0  0  0  0  0  0
   43.3554   10.3910   -6.4111 C   0  0  0  0  0  0  0  0  0  0  0  0
   43.0785    7.8608   -6.3330 C   0  0  0  0  0  0  0  0  0  0  0  0
   42.8117    9.1312   -7.1377 N   0  0  0  0  0  0  0  0  0  0  0  0
   41.3215    9.2448   -7.4258 C   0  0  0  0  0  0  0  0  0  0  0  0
   43.5601    9.0122   -8.4709 C   0  0  0  0  0  0  0  0  0  0  0  0
 29 30  1  0
 30 31  1  0
 30 32  1  0
 30 28  1  0
 28 27  1  0
 27 26  1  0
 26  1  1  0
  1  2  2  0
  2 22  1  0
 22 23  2  0
 22 24  1  0
  2  3  1  0
  3  4  1  0
  4  7  1  0
  7  8  2  0
  8  9  1  0
  9 10  2  0
 10 11  1  0
 11 13  1  0
 13 15  1  0
 15 16  1  0
 16 17  2  0
 17 18  1  0
 18 19  2  0
 19 20  1  0
 20 21  2  0
 11 12  2  0
  4  5  2  0
  5  6  1  0
  5  1  1  0
 12  7  1  0
 21 16  1  0
 24 25  1  0
 13 14  1  0
M  CHG 1  30   1
M  END
> <minimizedAffinity>
-5.41584

> <CNNscore>
0.2515383959

> <CNNaffinity>
4.7059750557

> <CNN_VS>
1.1837334633

> <CNNaffinity_variance>
0.2944175303

$$$$



 32 34  0  0  0  0  0  0  0  0999 V2000
   45.3950   14.1127    1.6580 C   0  0  0  0  0  0  0  0  0  0  0  0
   45.2698   15.2967    2.3658 C   0  0  0  0  0  0  0  0  0  0  0  0
   44.6996   16.5547    1.3443 S   0  0  0  0  0  0  0  0  0  0  0  0
   44.5597   15.5177   -0.0135 C   0  0  0  0  0  0  0  0  0  0  0  0
   44.9501   14.2363    0.3100 C   0  0  0  0  0  0  0  0  0  0  0  0
   44.8643   12.7534   -0.8690 Br  0  0  0  0  0  0  0  0  0  0  0  0
   44.0648   16.0678   -1.2746 C   0  0  0  0  0  0  0  0  0  0  0  0
   42.6987   16.0486   -1.5674 C   0  0  0  0  0  0  0  0  0  0  0  0
   42.2397   16.5611   -2.7799 C   0  0  0  0  0  0  0  0  0  0  0  0
   43.1410   17.1055   -3.7017 C   0  0  0  0  0  0  0  0  0  0  0  0
   44.5086   17.1765   -3.4204 C   0  0  0  0  0  0  0  0  0  0  0  0
   44.9549   16.6222   -2.2080 C   0  0  0  0  0  0  0  0  0  0  0  0
   45.4638   17.6340   -4.3264 N   0  0  0  0  0  0  0  0  0  0  0  0
   45.6442   17.1134   -5.1423 H   0  0  0  0  0  0  0  0  0  0  0  0
   46.2014   18.8701   -4.0879 C   0  0  0  0  0  0  0  0  0  0  0  0
   47.6543   18.5369   -3.8380 C   0  0  0  0  0  0  0  0  0  0  0  0
   48.1164   17.2222   -4.0049 C   0  0  0  0  0  0  0  0  0  0  0  0
   49.4519   16.9018   -3.7666 C   0  0  0  0  0  0  0  0  0  0  0  0
   50.3416   17.8924   -3.3621 C   0  0  0  0  0  0  0  0  0  0  0  0
   49.8961   19.2024   -3.1931 C   0  0  0  0  0  0  0  0  0  0  0  0
   48.5589   19.5249   -3.4282 C   0  0  0  0  0  0  0  0  0  0  0  0
   45.5353   15.6218    3.7457 C   0  0  0  0  0  0  0  0  0  0  0  0
   46.4853   15.2972    4.4410 O   0  0  0  0  0  0  0  0  0  0  0  0
   44.5568   16.3721    4.3099 O   0  0  0  0  0  0  0  0  0  0  0  0
   43.8160   16.6359    3.8003 H   0  0  0  0  0  0  0  0  0  0  0  0
   45.7947   12.9614    2.2542 O   0  0  0  0  0  0  0  0  0  0  0  0
   47.2075   12.7622    2.1483 C   0  0  0  0  0  0  0  0  0  0  0  0
   47.5407   11.2756    2.3514 C   0  0  0  0  0  0  0  0  0  0  0  0
   49.1800    9.5830    1.3859 C   0  0  0  0  0  0  0  0  0  0  0  0
   48.0053   10.5108    1.0827 N   0  0  0  0  0  0  0  0  0  0  0  0
   46.8720    9.7068    0.4615 C   0  0  0  0  0  0  0  0  0  0  0  0
   48.4788   11.5558    0.0651 C   0  0  0  0  0  0  0  0  0  0  0  0
 29 30  1  0
 30 31  1  0
 30 32  1  0
 30 28  1  0
 28 27  1  0
 27 26  1  0
 26  1  1  0
  1  2  2  0
  2 22  1  0
 22 23  2  0
 22 24  1  0
  2  3  1  0
  3  4  1  0
  4  7  1  0
  7  8  2  0
  8  9  1  0
  9 10  2  0
 10 11  1  0
 11 13  1  0
 13 15  1  0
 15 16  1  0
 16 17  2  0
 17 18  1  0
 18 19  2  0
 19 20  1  0
 20 21  2  0
 11 12  2  0
  4  5  2  0
  5  6  1  0
  5  1  1  0
 12  7  1  0
 21 16  1  0
 24 25  1  0
 13 14  1  0
M  CHG 1  30   1
M  END
> <minimizedAffinity>
-6.27730

> <CNNscore>
0.2292675823

> <CNNaffinity>
5.4151592255

> <CNN_VS>
1.2415204048

> <CNNaffinity_variance>
0.1254966557

$$$$



 32 34  0  0  0  0  0  0  0  0999 V2000
   45.2159   14.2401    1.4083 C   0  0  0  0  0  0  0  0  0  0  0  0
   45.1236   15.3690    2.2055 C   0  0  0  0  0  0  0  0  0  0  0  0
   44.6063   16.7215    1.2813 S   0  0  0  0  0  0  0  0  0  0  0  0
   44.4451   15.7989   -0.1544 C   0  0  0  0  0  0  0  0  0  0  0  0
   44.7888   14.4835    0.0708 C   0  0  0  0  0  0  0  0  0  0  0  0
   44.6648   13.1007   -1.2210 Br  0  0  0  0  0  0  0  0  0  0  0  0
   43.9815   16.4621   -1.3721 C   0  0  0  0  0  0  0  0  0  0  0  0
   44.8294   17.3203   -2.0772 C   0  0  0  0  0  0  0  0  0  0  0  0
   44.3714   17.9601   -3.2281 C   0  0  0  0  0  0  0  0  0  0  0  0
   43.0682   17.7379   -3.6872 C   0  0  0  0  0  0  0  0  0  0  0  0
   42.2099   16.8535   -3.0271 C   0  0  0  0  0  0  0  0  0  0  0  0
   42.6790   16.2462   -1.8492 C   0  0  0  0  0  0  0  0  0  0  0  0
   40.8792   16.6497   -3.3882 N   0  0  0  0  0  0  0  0  0  0  0  0
   40.2465   17.4029   -3.3465 H   0  0  0  0  0  0  0  0  0  0  0  0
   40.4066   15.3409   -3.8268 C   0  0  0  0  0  0  0  0  0  0  0  0
   39.4066   14.8158   -2.8226 C   0  0  0  0  0  0  0  0  0  0  0  0
   38.8984   13.5133   -2.9464 C   0  0  0  0  0  0  0  0  0  0  0  0
   37.9676   13.0229   -2.0320 C   0  0  0  0  0  0  0  0  0  0  0  0
   37.5366   13.8273   -0.9815 C   0  0  0  0  0  0  0  0  0  0  0  0
   38.0336   15.1226   -0.8464 C   0  0  0  0  0  0  0  0  0  0  0  0
   38.9633   15.6168   -1.7622 C   0  0  0  0  0  0  0  0  0  0  0  0
   45.3862   15.5764    3.6085 C   0  0  0  0  0  0  0  0  0  0  0  0
   44.6994   16.1476    4.4410 O   0  0  0  0  0  0  0  0  0  0  0  0
   46.5808   15.0705    4.0032 O   0  0  0  0  0  0  0  0  0  0  0  0
   47.1288   14.6272    3.3859 H   0  0  0  0  0  0  0  0  0  0  0  0
   45.5707   13.0328    1.9155 O   0  0  0  0  0  0  0  0  0  0  0  0
   46.9412   12.7189    1.6508 C   0  0  0  0  0  0  0  0  0  0  0  0
   47.3641   11.4942    2.4774 C   0  0  0  0  0  0  0  0  0  0  0  0
   48.9183   10.5439    0.6980 C   0  0  0  0  0  0  0  0  0  0  0  0
   47.7717   10.2388    1.6597 N   0  0  0  0  0  0  0  0  0  0  0  0
   48.1640    9.0790    2.5639 C   0  0  0  0  0  0  0  0  0  0  0  0
   46.5546    9.8194    0.8263 C   0  0  0  0  0  0  0  0  0  0  0  0
 29 30  1  0
 30 31  1  0
 30 32  1  0
 30 28  1  0
 28 27  1  0
 27 26  1  0
 26  1  1  0
  1  2  2  0
  2 22  1  0
 22 23  2  0
 22 24  1  0
  2  3  1  0
  3  4  1  0
  4  7  1  0
  7  8  2  0
  8  9  1  0
  9 10  2  0
 10 11  1  0
 11 13  1  0
 13 15  1  0
 15 16  1  0
 16 17  2  0
 17 18  1  0
 18 19  2  0
 19 20  1  0
 20 21  2  0
 11 12  2  0
  4  5  2  0
  5  6  1  0
  5  1  1  0
 12  7  1  0
 21 16  1  0
 24 25  1  0
 13 14  1  0
M  CHG 1  30   1
M  END
> <minimizedAffinity>
-6.69760

> <CNNscore>
0.2176433057

> <CNNaffinity>
4.9559130669

> <CNN_VS>
1.0786212683

> <CNNaffinity_variance>
1.7322025299

$$$$



 32 34  0  0  0  0  0  0  0  0999 V2000
   43.7009   10.2471   -2.7799 C   0  0  0  0  0  0  0  0  0  0  0  0
   43.3254    9.0645   -2.1644 C   0  0  0  0  0  0  0  0  0  0  0  0
   44.0012    8.9617   -0.5884 S   0  0  0  0  0  0  0  0  0  0  0  0
   44.7354   10.5068   -0.6995 C   0  0  0  0  0  0  0  0  0  0  0  0
   44.4730   11.0838   -1.9232 C   0  0  0  0  0  0  0  0  0  0  0  0
   45.0150   12.8289   -2.4303 Br  0  0  0  0  0  0  0  0  0  0  0  0
   45.4967   11.0110    0.4424 C   0  0  0  0  0  0  0  0  0  0  0  0
   45.1848   12.2493    1.0097 C   0  0  0  0  0  0  0  0  0  0  0  0
   45.9279   12.7276    2.0880 C   0  0  0  0  0  0  0  0  0  0  0  0
   46.9791   11.9672    2.6126 C   0  0  0  0  0  0  0  0  0  0  0  0
   47.2889   10.7066    2.0934 C   0  0  0  0  0  0  0  0  0  0  0  0
   46.5509   10.2585    0.9840 C   0  0  0  0  0  0  0  0  0  0  0  0
   48.3701    9.9370    2.5194 N   0  0  0  0  0  0  0  0  0  0  0  0
   49.2613   10.3502    2.5845 H   0  0  0  0  0  0  0  0  0  0  0  0
   48.2054    8.5304    2.8705 C   0  0  0  0  0  0  0  0  0  0  0  0
   49.4166    7.7594    2.3985 C   0  0  0  0  0  0  0  0  0  0  0  0
   50.4647    8.4230    1.7419 C   0  0  0  0  0  0  0  0  0  0  0  0
   51.5814    7.7198    1.2928 C   0  0  0  0  0  0  0  0  0  0  0  0
   51.6649    6.3460    1.4980 C   0  0  0  0  0  0  0  0  0  0  0  0
   50.6314    5.6746    2.1493 C   0  0  0  0  0  0  0  0  0  0  0  0
   49.5113    6.3759    2.5971 C   0  0  0  0  0  0  0  0  0  0  0  0
   42.5086    7.9652   -2.6167 C   0  0  0  0  0  0  0  0  0  0  0  0
   42.8384    6.9744   -3.2499 O   0  0  0  0  0  0  0  0  0  0  0  0
   41.2004    8.1091   -2.2902 O   0  0  0  0  0  0  0  0  0  0  0  0
   40.9185    8.8593   -1.8048 H   0  0  0  0  0  0  0  0  0  0  0  0
   43.2638   10.5782   -4.0209 O   0  0  0  0  0  0  0  0  0  0  0  0
   44.1193   10.0675   -5.0475 C   0  0  0  0  0  0  0  0  0  0  0  0
   44.4703   11.1885   -6.0387 C   0  0  0  0  0  0  0  0  0  0  0  0
   46.0322   11.4424   -8.0339 C   0  0  0  0  0  0  0  0  0  0  0  0
   45.9443   11.2190   -6.5255 N   0  0  0  0  0  0  0  0  0  0  0  0
   46.7541   12.2888   -5.8070 C   0  0  0  0  0  0  0  0  0  0  0  0
   46.5585    9.8488   -6.2140 C   0  0  0  0  0  0  0  0  0  0  0  0
 29 30  1  0
 30 31  1  0
 30 32  1  0
 30 28  1  0
 28 27  1  0
 27 26  1  0
 26  1  1  0
  1  2  2  0
  2 22  1  0
 22 23  2  0
 22 24  1  0
  2  3  1  0
  3  4  1  0
  4  7  1  0
  7  8  2  0
  8  9  1  0
  9 10  2  0
 10 11  1  0
 11 13  1  0
 13 15  1  0
 15 16  1  0
 16 17  2  0
 17 18  1  0
 18 19  2  0
 19 20  1  0
 20 21  2  0
 11 12  2  0
  4  5  2  0
  5  6  1  0
  5  1  1  0
 12  7  1  0
 21 16  1  0
 24 25  1  0
 13 14  1  0
M  CHG 1  30   1
M  END
> <minimizedAffinity>
-4.94382

> <CNNscore>
0.2166888714

> <CNNaffinity>
4.6342101097

> <CNN_VS>
1.0041817427

> <CNNaffinity_variance>
0.3777140081

$$$$



 32 34  0  0  0  0  0  0  0  0999 V2000
   45.3490   13.8671    1.1553 C   0  0  0  0  0  0  0  0  0  0  0  0
   45.2598   15.0082    1.9353 C   0  0  0  0  0  0  0  0  0  0  0  0
   44.6150   16.3144    1.0247 S   0  0  0  0  0  0  0  0  0  0  0  0
   44.3967   15.3532   -0.3778 C   0  0  0  0  0  0  0  0  0  0  0  0
   44.8175   14.0605   -0.1526 C   0  0  0  0  0  0  0  0  0  0  0  0
   44.6683   12.6447   -1.4055 Br  0  0  0  0  0  0  0  0  0  0  0  0
   43.8174   15.9669   -1.5717 C   0  0  0  0  0  0  0  0  0  0  0  0
   42.4778   15.7458   -1.9021 C   0  0  0  0  0  0  0  0  0  0  0  0
   41.9402   16.3229   -3.0518 C   0  0  0  0  0  0  0  0  0  0  0  0
   42.7343   17.1326   -3.8717 C   0  0  0  0  0  0  0  0  0  0  0  0
   44.0662   17.4060   -3.5460 C   0  0  0  0  0  0  0  0  0  0  0  0
   44.5986   16.7860   -2.4022 C   0  0  0  0  0  0  0  0  0  0  0  0
   44.9286   18.1385   -4.3598 N   0  0  0  0  0  0  0  0  0  0  0  0
   45.5517   17.6625   -4.9552 H   0  0  0  0  0  0  0  0  0  0  0  0
   44.9251   19.5975   -4.3456 C   0  0  0  0  0  0  0  0  0  0  0  0
   45.5110   20.1045   -5.6433 C   0  0  0  0  0  0  0  0  0  0  0  0
   44.6777   20.6684   -6.6220 C   0  0  0  0  0  0  0  0  0  0  0  0
   45.2061   21.1292   -7.8267 C   0  0  0  0  0  0  0  0  0  0  0  0
   46.5737   21.0349   -8.0658 C   0  0  0  0  0  0  0  0  0  0  0  0
   47.4128   20.4776   -7.1022 C   0  0  0  0  0  0  0  0  0  0  0  0
   46.8857   20.0129   -5.8966 C   0  0  0  0  0  0  0  0  0  0  0  0
   45.6107   15.2590    3.3116 C   0  0  0  0  0  0  0  0  0  0  0  0
   44.9415   15.7779    4.1914 O   0  0  0  0  0  0  0  0  0  0  0  0
   46.8736   14.8691    3.6147 O   0  0  0  0  0  0  0  0  0  0  0  0
   47.4101   14.4681    2.9595 H   0  0  0  0  0  0  0  0  0  0  0  0
   45.7956   12.6891    1.6589 O   0  0  0  0  0  0  0  0  0  0  0  0
   47.0704   12.3228    1.1227 C   0  0  0  0  0  0  0  0  0  0  0  0
   47.7124   11.2371    2.0010 C   0  0  0  0  0  0  0  0  0  0  0  0
   49.5120    9.9215    0.7699 C   0  0  0  0  0  0  0  0  0  0  0  0
   48.0714    9.9113    1.2771 N   0  0  0  0  0  0  0  0  0  0  0  0
   47.8596    8.7018    2.1765 C   0  0  0  0  0  0  0  0  0  0  0  0
   47.1436    9.7863    0.0626 C   0  0  0  0  0  0  0  0  0  0  0  0
 29 30  1  0
 30 31  1  0
 30 32  1  0
 30 28  1  0
 28 27  1  0
 27 26  1  0
 26  1  1  0
  1  2  2  0
  2 22  1  0
 22 23  2  0
 22 24  1  0
  2  3  1  0
  3  4  1  0
  4  7  1  0
  7  8  2  0
  8  9  1  0
  9 10  2  0
 10 11  1  0
 11 13  1  0
 13 15  1  0
 15 16  1  0
 16 17  2  0
 17 18  1  0
 18 19  2  0
 19 20  1  0
 20 21  2  0
 11 12  2  0
  4  5  2  0
  5  6  1  0
  5  1  1  0
 12  7  1  0
 21 16  1  0
 24 25  1  0
 13 14  1  0
M  CHG 1  30   1
M  END
> <minimizedAffinity>
-5.25455

> <CNNscore>
0.1675032973

> <CNNaffinity>
5.1801695824

> <CNN_VS>
0.8676955104

> <CNNaffinity_variance>
0.1384827197

$$$$



 32 34  0  0  0  0  0  0  0  0999 V2000
   45.6286   13.7288    1.8139 C   0  0  0  0  0  0  0  0  0  0  0  0
   45.4985   14.9811    2.3913 C   0  0  0  0  0  0  0  0  0  0  0  0
   44.8113   16.0928    1.2765 S   0  0  0  0  0  0  0  0  0  0  0  0
   44.6294   14.9026    0.0562 C   0  0  0  0  0  0  0  0  0  0  0  0
   45.0938   13.6813    0.4941 C   0  0  0  0  0  0  0  0  0  0  0  0
   44.9961   12.0708   -0.5025 Br  0  0  0  0  0  0  0  0  0  0  0  0
   44.0320   15.2867   -1.2218 C   0  0  0  0  0  0  0  0  0  0  0  0
   44.0559   16.6190   -1.6423 C   0  0  0  0  0  0  0  0  0  0  0  0
   43.4689   16.9765   -2.8552 C   0  0  0  0  0  0  0  0  0  0  0  0
   42.8647   16.0040   -3.6599 C   0  0  0  0  0  0  0  0  0  0  0  0
   42.8608   14.6568   -3.2863 C   0  0  0  0  0  0  0  0  0  0  0  0
   43.4265   14.3228   -2.0434 C   0  0  0  0  0  0  0  0  0  0  0  0
   42.2092   13.6551   -4.0037 N   0  0  0  0  0  0  0  0  0  0  0  0
   41.3275   13.8406   -4.4004 H   0  0  0  0  0  0  0  0  0  0  0  0
   42.8097   12.3368   -4.1776 C   0  0  0  0  0  0  0  0  0  0  0  0
   41.8918   11.2944   -3.5817 C   0  0  0  0  0  0  0  0  0  0  0  0
   40.5063   11.5151   -3.5379 C   0  0  0  0  0  0  0  0  0  0  0  0
   39.6518   10.5652   -2.9807 C   0  0  0  0  0  0  0  0  0  0  0  0
   40.1718    9.3823   -2.4640 C   0  0  0  0  0  0  0  0  0  0  0  0
   41.5457    9.1501   -2.5016 C   0  0  0  0  0  0  0  0  0  0  0  0
   42.4034   10.1009   -3.0562 C   0  0  0  0  0  0  0  0  0  0  0  0
   45.8375   15.4715    3.7047 C   0  0  0  0  0  0  0  0  0  0  0  0
   46.8776   15.3343    4.3297 O   0  0  0  0  0  0  0  0  0  0  0  0
   44.8225   16.1510    4.2936 O   0  0  0  0  0  0  0  0  0  0  0  0
   44.0129   16.2717    3.8376 H   0  0  0  0  0  0  0  0  0  0  0  0
   46.1142   12.6682    2.5068 O   0  0  0  0  0  0  0  0  0  0  0  0
   47.4832   12.3991    2.1902 C   0  0  0  0  0  0  0  0  0  0  0  0
   47.7773   10.9025    2.3801 C   0  0  0  0  0  0  0  0  0  0  0  0
   49.5504    9.3421    1.4282 C   0  0  0  0  0  0  0  0  0  0  0  0
   48.2931   10.1533    1.1218 N   0  0  0  0  0  0  0  0  0  0  0  0
   47.2292    9.2364    0.5352 C   0  0  0  0  0  0  0  0  0  0  0  0
   48.6575   11.2126    0.0746 C   0  0  0  0  0  0  0  0  0  0  0  0
 29 30  1  0
 30 31  1  0
 30 32  1  0
 30 28  1  0
 28 27  1  0
 27 26  1  0
 26  1  1  0
  1  2  2  0
  2 22  1  0
 22 23  2  0
 22 24  1  0
  2  3  1  0
  3  4  1  0
  4  7  1  0
  7  8  2  0
  8  9  1  0
  9 10  2  0
 10 11  1  0
 11 13  1  0
 13 15  1  0
 15 16  1  0
 16 17  2  0
 17 18  1  0
 18 19  2  0
 19 20  1  0
 20 21  2  0
 11 12  2  0
  4  5  2  0
  5  6  1  0
  5  1  1  0
 12  7  1  0
 21 16  1  0
 24 25  1  0
 13 14  1  0
M  CHG 1  30   1
M  END
> <minimizedAffinity>
-6.04060

> <CNNscore>
0.1450993568

> <CNNaffinity>
5.1497821808

> <CNN_VS>
0.7472300529

> <CNNaffinity_variance>
0.4435679913

$$$$



 32 34  0  0  0  0  0  0  0  0999 V2000
   43.7489   10.2532   -2.5530 C   0  0  0  0  0  0  0  0  0  0  0  0
   43.3393    9.0413   -2.0220 C   0  0  0  0  0  0  0  0  0  0  0  0
   44.2054    8.6887   -0.5809 S   0  0  0  0  0  0  0  0  0  0  0  0
   45.0731   10.1663   -0.6282 C   0  0  0  0  0  0  0  0  0  0  0  0
   44.7104   10.9090   -1.7309 C   0  0  0  0  0  0  0  0  0  0  0  0
   45.3563   12.6495   -2.1181 Br  0  0  0  0  0  0  0  0  0  0  0  0
   46.0278   10.4595    0.4396 C   0  0  0  0  0  0  0  0  0  0  0  0
   47.0928    9.5916    0.6948 C   0  0  0  0  0  0  0  0  0  0  0  0
   47.9877    9.8728    1.7262 C   0  0  0  0  0  0  0  0  0  0  0  0
   47.8305   11.0275    2.5011 C   0  0  0  0  0  0  0  0  0  0  0  0
   46.7994   11.9360    2.2438 C   0  0  0  0  0  0  0  0  0  0  0  0
   45.8875   11.6161    1.2229 C   0  0  0  0  0  0  0  0  0  0  0  0
   46.5436   13.0604    3.0267 N   0  0  0  0  0  0  0  0  0  0  0  0
   46.7651   13.0419    3.9858 H   0  0  0  0  0  0  0  0  0  0  0  0
   45.9535   14.2643    2.4512 C   0  0  0  0  0  0  0  0  0  0  0  0
   46.5737   15.4780    3.1044 C   0  0  0  0  0  0  0  0  0  0  0  0
   47.7581   15.3529    3.8471 C   0  0  0  0  0  0  0  0  0  0  0  0
   48.3326   16.4637    4.4627 C   0  0  0  0  0  0  0  0  0  0  0  0
   47.7319   17.7130    4.3401 C   0  0  0  0  0  0  0  0  0  0  0  0
   46.5558   17.8515    3.6049 C   0  0  0  0  0  0  0  0  0  0  0  0
   45.9772   16.7404    2.9902 C   0  0  0  0  0  0  0  0  0  0  0  0
   42.3608    8.0803   -2.4684 C   0  0  0  0  0  0  0  0  0  0  0  0
   41.1425    8.1451   -2.4153 O   0  0  0  0  0  0  0  0  0  0  0  0
   42.9194    6.9598   -2.9890 O   0  0  0  0  0  0  0  0  0  0  0  0
   43.8517    6.8824   -3.0423 H   0  0  0  0  0  0  0  0  0  0  0  0
   43.1863   10.7700   -3.6742 O   0  0  0  0  0  0  0  0  0  0  0  0
   42.0000   11.5163   -3.3869 C   0  0  0  0  0  0  0  0  0  0  0  0
   41.2244   11.7825   -4.6868 C   0  0  0  0  0  0  0  0  0  0  0  0
   39.1475   12.0829   -3.2442 C   0  0  0  0  0  0  0  0  0  0  0  0
   39.6833   11.6170   -4.5965 N   0  0  0  0  0  0  0  0  0  0  0  0
   38.9686   12.3685   -5.7106 C   0  0  0  0  0  0  0  0  0  0  0  0
   39.3736   10.1218   -4.7380 C   0  0  0  0  0  0  0  0  0  0  0  0
 29 30  1  0
 30 31  1  0
 30 32  1  0
 30 28  1  0
 28 27  1  0
 27 26  1  0
 26  1  1  0
  1  2  2  0
  2 22  1  0
 22 23  2  0
 22 24  1  0
  2  3  1  0
  3  4  1  0
  4  7  1  0
  7  8  2  0
  8  9  1  0
  9 10  2  0
 10 11  1  0
 11 13  1  0
 13 15  1  0
 15 16  1  0
 16 17  2  0
 17 18  1  0
 18 19  2  0
 19 20  1  0
 20 21  2  0
 11 12  2  0
  4  5  2  0
  5  6  1  0
  5  1  1  0
 12  7  1  0
 21 16  1  0
 24 25  1  0
 13 14  1  0
M  CHG 1  30   1
M  END
> <minimizedAffinity>
-6.82960

> <CNNscore>
0.1205622554

> <CNNaffinity>
4.6605277061

> <CNN_VS>
0.5618837476

> <CNNaffinity_variance>
0.8725342751

$$$$
