


 28 30  0  0  0  0  0  0  0  0999 V2000
   18.4174   17.2000   17.0067 C   0  0  0  0  0  0  0  0  0  0  0  0
   19.1543   17.4788   18.0520 N   0  0  0  0  0  0  0  0  0  0  0  0
   18.3659   17.2084   19.1503 C   0  0  0  0  0  0  0  0  0  0  0  0
   18.6513   17.3188   20.5170 C   0  0  0  0  0  0  0  0  0  0  0  0
   19.8582   17.7475   20.9145 F   0  0  0  0  0  0  0  0  0  0  0  0
   17.6638   16.9607   21.4359 C   0  0  0  0  0  0  0  0  0  0  0  0
   17.9178   17.0467   22.8840 C   0  0  0  0  0  0  0  0  0  0  0  0
   18.9624   17.4616   23.3692 O   0  0  0  0  0  0  0  0  0  0  0  0
   16.8917   16.6297   23.6929 N   0  0  0  0  0  0  0  0  0  0  0  0
   15.6911   16.1996   23.2275 C   0  0  0  0  0  0  0  0  0  0  0  0
   14.7727   15.8378   24.1545 N   0  0  0  0  0  0  0  0  0  0  0  0
   15.4194   16.1223   21.9675 N   0  0  0  0  0  0  0  0  0  0  0  0
   16.3984   16.5037   21.0247 C   0  0  0  0  0  0  0  0  0  0  0  0
   16.0713   16.4102   19.6438 C   0  0  0  0  0  0  0  0  0  0  0  0
   17.1088   16.7606   18.7585 C   0  0  0  0  0  0  0  0  0  0  0  0
   17.1772   16.7699   17.3849 N   0  0  0  0  0  0  0  0  0  0  0  0
   17.0340   16.6431   24.6670 H   0  0  0  0  0  0  0  0  0  0  0  0
   14.9896   15.9004   25.1128 H   0  0  0  0  0  0  0  0  0  0  0  0
   13.8883   15.5120   23.8702 H   0  0  0  0  0  0  0  0  0  0  0  0
   16.4508   16.5091   16.7738 H   0  0  0  0  0  0  0  0  0  0  0  0
   17.9625   18.0910   14.7905 C   0  0  0  0  0  0  0  0  0  0  0  0
   18.7818   17.3379   15.7157 N   0  0  0  0  0  0  0  0  0  0  0  0
   19.6154   16.9211   15.3987 H   0  0  0  0  0  0  0  0  0  0  0  0
   14.7188   15.8826   19.1983 C   0  0  0  0  0  0  0  0  0  0  0  0
   14.7327   14.5732   18.3891 C   0  0  0  0  0  0  0  0  0  0  0  0
   14.5880   13.3698   19.2270 N   0  0  0  0  0  0  0  0  0  0  0  0
   15.3738   13.3098   19.8745 H   0  0  0  0  0  0  0  0  0  0  0  0
   14.5734   12.5412   18.6323 H   0  0  0  0  0  0  0  0  0  0  0  0
 21 22  1  0
 22  1  1  0
  1  2  2  0
  2  3  1  0
  3  4  2  0
  4  5  1  0
  4  6  1  0
  6  7  1  0
  7  8  2  0
  7  9  1  0
  9 10  1  0
 10 11  1  0
 10 12  2  0
 12 13  1  0
 13 14  1  0
 14 24  1  0
 24 25  1  0
 25 26  1  0
 14 15  2  0
 15 16  1  0
 16  1  1  0
 15  3  1  0
 13  6  2  0
 22 23  1  0
  9 17  1  0
 11 18  1  0
 11 19  1  0
 26 27  1  0
 26 28  1  0
 16 20  1  0
M  END
> <minimizedAffinity>
-9.09511

> <CNNscore>
0.9975058436

> <CNNaffinity>
7.7878937721

> <CNN_VS>
7.7684693336

> <CNNaffinity_variance>
0.1010497510

$$$$



 28 30  0  0  0  0  0  0  0  0999 V2000
   16.1042   16.9051   14.3269 C   0  0  0  0  0  0  0  0  0  0  0  0
   17.2040   17.2158   14.9651 N   0  0  0  0  0  0  0  0  0  0  0  0
   16.9343   17.0087   16.3012 C   0  0  0  0  0  0  0  0  0  0  0  0
   17.7539   17.1737   17.4248 C   0  0  0  0  0  0  0  0  0  0  0  0
   19.0173   17.5970   17.2733 F   0  0  0  0  0  0  0  0  0  0  0  0
   17.2292   16.8747   18.6831 C   0  0  0  0  0  0  0  0  0  0  0  0
   18.0534   17.0196   19.8949 C   0  0  0  0  0  0  0  0  0  0  0  0
   19.2047   17.4360   19.8903 O   0  0  0  0  0  0  0  0  0  0  0  0
   17.4486   16.6578   21.0715 N   0  0  0  0  0  0  0  0  0  0  0  0
   16.1631   16.2300   21.1586 C   0  0  0  0  0  0  0  0  0  0  0  0
   15.7049   15.9263   22.3962 N   0  0  0  0  0  0  0  0  0  0  0  0
   15.3997   16.1023   20.1250 N   0  0  0  0  0  0  0  0  0  0  0  0
   15.9068   16.4237   18.8474 C   0  0  0  0  0  0  0  0  0  0  0  0
   15.0434   16.2757   17.7271 C   0  0  0  0  0  0  0  0  0  0  0  0
   15.6274   16.5675   16.4794 C   0  0  0  0  0  0  0  0  0  0  0  0
   15.1278   16.5151   15.1991 N   0  0  0  0  0  0  0  0  0  0  0  0
   17.9770   16.7113   21.9005 H   0  0  0  0  0  0  0  0  0  0  0  0
   16.2948   16.0270   23.1779 H   0  0  0  0  0  0  0  0  0  0  0  0
   14.7819   15.6049   22.5142 H   0  0  0  0  0  0  0  0  0  0  0  0
   14.2152   16.2412   14.9515 H   0  0  0  0  0  0  0  0  0  0  0  0
   15.9847   18.2484   12.3036 C   0  0  0  0  0  0  0  0  0  0  0  0
   15.9082   16.9793   12.9948 N   0  0  0  0  0  0  0  0  0  0  0  0
   15.7107   16.1599   12.4861 H   0  0  0  0  0  0  0  0  0  0  0  0
   13.6276   15.7542   17.8990 C   0  0  0  0  0  0  0  0  0  0  0  0
   12.9592   15.1736   16.6398 C   0  0  0  0  0  0  0  0  0  0  0  0
   11.5048   14.9874   16.7862 N   0  0  0  0  0  0  0  0  0  0  0  0
   11.3213   14.3207   17.5361 H   0  0  0  0  0  0  0  0  0  0  0  0
   11.1180   14.6311   15.9123 H   0  0  0  0  0  0  0  0  0  0  0  0
 21 22  1  0
 22  1  1  0
  1  2  2  0
  2  3  1  0
  3  4  2  0
  4  5  1  0
  4  6  1  0
  6  7  1  0
  7  8  2  0
  7  9  1  0
  9 10  1  0
 10 11  1  0
 10 12  2  0
 12 13  1  0
 13 14  1  0
 14 24  1  0
 24 25  1  0
 25 26  1  0
 14 15  2  0
 15 16  1  0
 16  1  1  0
 15  3  1  0
 13  6  2  0
 22 23  1  0
  9 17  1  0
 11 18  1  0
 11 19  1  0
 26 27  1  0
 26 28  1  0
 16 20  1  0
M  END
> <minimizedAffinity>
-7.65900

> <CNNscore>
0.6965001225

> <CNNaffinity>
6.4336543083

> <CNN_VS>
4.4810409546

> <CNNaffinity_variance>
0.0898211524

$$$$



 28 30  0  0  0  0  0  0  0  0999 V2000
   16.5987   16.3729   21.3477 C   0  0  0  0  0  0  0  0  0  0  0  0
   17.5187   16.8086   20.5249 N   0  0  0  0  0  0  0  0  0  0  0  0
   16.9640   16.7294   19.2652 C   0  0  0  0  0  0  0  0  0  0  0  0
   17.5004   17.0735   18.0180 C   0  0  0  0  0  0  0  0  0  0  0  0
   18.7452   17.5663   17.9397 F   0  0  0  0  0  0  0  0  0  0  0  0
   16.7083   16.9050   16.8814 C   0  0  0  0  0  0  0  0  0  0  0  0
   17.2209   17.2633   15.5481 C   0  0  0  0  0  0  0  0  0  0  0  0
   18.3528   17.6824   15.3432 O   0  0  0  0  0  0  0  0  0  0  0  0
   16.3417   17.0956   14.5089 N   0  0  0  0  0  0  0  0  0  0  0  0
   15.0882   16.5952   14.6544 C   0  0  0  0  0  0  0  0  0  0  0  0
   14.3463   16.4739   13.5280 N   0  0  0  0  0  0  0  0  0  0  0  0
   14.6029   16.2540   15.8014 N   0  0  0  0  0  0  0  0  0  0  0  0
   15.3994   16.3950   16.9583 C   0  0  0  0  0  0  0  0  0  0  0  0
   14.8403   16.0096   18.2078 C   0  0  0  0  0  0  0  0  0  0  0  0
   15.6707   16.2211   19.3252 C   0  0  0  0  0  0  0  0  0  0  0  0
   15.4724   16.0034   20.6687 N   0  0  0  0  0  0  0  0  0  0  0  0
   16.6366   17.3528   13.6055 H   0  0  0  0  0  0  0  0  0  0  0  0
   14.7253   16.7368   12.6583 H   0  0  0  0  0  0  0  0  0  0  0  0
   13.4279   16.1228   13.5789 H   0  0  0  0  0  0  0  0  0  0  0  0
   14.6523   15.6404   21.0748 H   0  0  0  0  0  0  0  0  0  0  0  0
   15.5559   16.3410   23.5441 C   0  0  0  0  0  0  0  0  0  0  0  0
   16.7179   16.2552   22.6858 N   0  0  0  0  0  0  0  0  0  0  0  0
   17.6065   16.1092   23.0837 H   0  0  0  0  0  0  0  0  0  0  0  0
   13.4149   15.4933   18.2968 C   0  0  0  0  0  0  0  0  0  0  0  0
   13.2482   13.9644   18.3601 C   0  0  0  0  0  0  0  0  0  0  0  0
   14.2745   13.3007   19.1831 N   0  0  0  0  0  0  0  0  0  0  0  0
   15.1955   13.4676   18.7778 H   0  0  0  0  0  0  0  0  0  0  0  0
   14.0919   12.2975   19.2105 H   0  0  0  0  0  0  0  0  0  0  0  0
 21 22  1  0
 22  1  1  0
  1  2  2  0
  2  3  1  0
  3  4  2  0
  4  5  1  0
  4  6  1  0
  6  7  1  0
  7  8  2  0
  7  9  1  0
  9 10  1  0
 10 11  1  0
 10 12  2  0
 12 13  1  0
 13 14  1  0
 14 24  1  0
 24 25  1  0
 25 26  1  0
 14 15  2  0
 15 16  1  0
 16  1  1  0
 15  3  1  0
 13  6  2  0
 22 23  1  0
  9 17  1  0
 11 18  1  0
 11 19  1  0
 26 27  1  0
 26 28  1  0
 16 20  1  0
M  END
> <minimizedAffinity>
-8.23020

> <CNNscore>
0.3249904811

> <CNNaffinity>
5.6308016777

> <CNN_VS>
1.8299568892

> <CNNaffinity_variance>
0.7566595674

$$$$



 28 30  0  0  0  0  0  0  0  0999 V2000
   12.4323   16.2969   14.9786 C   0  0  0  0  0  0  0  0  0  0  0  0
   13.4161   16.8577   14.3222 N   0  0  0  0  0  0  0  0  0  0  0  0
   14.4768   16.9031   15.2018 C   0  0  0  0  0  0  0  0  0  0  0  0
   15.7776   17.3911   15.0247 C   0  0  0  0  0  0  0  0  0  0  0  0
   16.1389   17.9161   13.8447 F   0  0  0  0  0  0  0  0  0  0  0  0
   16.6746   17.3018   16.0902 C   0  0  0  0  0  0  0  0  0  0  0  0
   18.0574   17.7891   15.9514 C   0  0  0  0  0  0  0  0  0  0  0  0
   18.4930   18.3249   14.9405 O   0  0  0  0  0  0  0  0  0  0  0  0
   18.8624   17.6125   17.0478 N   0  0  0  0  0  0  0  0  0  0  0  0
   18.4370   17.0673   18.2161 C   0  0  0  0  0  0  0  0  0  0  0  0
   19.3486   16.9768   19.2134 N   0  0  0  0  0  0  0  0  0  0  0  0
   17.2303   16.6408   18.3874 N   0  0  0  0  0  0  0  0  0  0  0  0
   16.3033   16.7458   17.3280 C   0  0  0  0  0  0  0  0  0  0  0  0
   14.9808   16.2700   17.5452 C   0  0  0  0  0  0  0  0  0  0  0  0
   14.1222   16.3614   16.4327 C   0  0  0  0  0  0  0  0  0  0  0  0
   12.8110   15.9870   16.2541 N   0  0  0  0  0  0  0  0  0  0  0  0
   19.8025   17.8975   16.9839 H   0  0  0  0  0  0  0  0  0  0  0  0
   20.2662   17.3048   19.0729 H   0  0  0  0  0  0  0  0  0  0  0  0
   19.0938   16.5829   20.0790 H   0  0  0  0  0  0  0  0  0  0  0  0
   12.2384   15.5646   16.9345 H   0  0  0  0  0  0  0  0  0  0  0  0
   10.2388   17.1526   14.3714 C   0  0  0  0  0  0  0  0  0  0  0  0
   11.1888   16.0697   14.5090 N   0  0  0  0  0  0  0  0  0  0  0  0
   10.9240   15.1557   14.2567 H   0  0  0  0  0  0  0  0  0  0  0  0
   14.5890   15.6364   18.8684 C   0  0  0  0  0  0  0  0  0  0  0  0
   15.0697   14.1925   19.0998 C   0  0  0  0  0  0  0  0  0  0  0  0
   13.9696   13.2133   19.1465 N   0  0  0  0  0  0  0  0  0  0  0  0
   13.3514   13.4335   19.9274 H   0  0  0  0  0  0  0  0  0  0  0  0
   14.3533   12.2764   19.2704 H   0  0  0  0  0  0  0  0  0  0  0  0
 21 22  1  0
 22  1  1  0
  1  2  2  0
  2  3  1  0
  3  4  2  0
  4  5  1  0
  4  6  1  0
  6  7  1  0
  7  8  2  0
  7  9  1  0
  9 10  1  0
 10 11  1  0
 10 12  2  0
 12 13  1  0
 13 14  1  0
 14 24  1  0
 24 25  1  0
 25 26  1  0
 14 15  2  0
 15 16  1  0
 16  1  1  0
 15  3  1  0
 13  6  2  0
 22 23  1  0
  9 17  1  0
 11 18  1  0
 11 19  1  0
 26 27  1  0
 26 28  1  0
 16 20  1  0
M  END
> <minimizedAffinity>
-8.15173

> <CNNscore>
0.2320007831

> <CNNaffinity>
5.0037627220

> <CNN_VS>
1.1608768702

> <CNNaffinity_variance>
1.1285159588

$$$$



 28 30  0  0  0  0  0  0  0  0999 V2000
   18.4925   16.9672   18.6975 C   0  0  0  0  0  0  0  0  0  0  0  0
   18.6237   17.3864   17.4645 N   0  0  0  0  0  0  0  0  0  0  0  0
   17.3858   17.2248   16.8792 C   0  0  0  0  0  0  0  0  0  0  0  0
   16.9554   17.5189   15.5793 C   0  0  0  0  0  0  0  0  0  0  0  0
   17.8152   18.0438   14.6940 F   0  0  0  0  0  0  0  0  0  0  0  0
   15.6240   17.2676   15.2444 C   0  0  0  0  0  0  0  0  0  0  0  0
   15.1184   17.5706   13.8948 C   0  0  0  0  0  0  0  0  0  0  0  0
   15.8144   18.0118   12.9894 O   0  0  0  0  0  0  0  0  0  0  0  0
   13.7851   17.3225   13.6904 N   0  0  0  0  0  0  0  0  0  0  0  0
   12.9630   16.7934   14.6323 C   0  0  0  0  0  0  0  0  0  0  0  0
   11.6736   16.5912   14.2712 N   0  0  0  0  0  0  0  0  0  0  0  0
   13.3665   16.4985   15.8230 N   0  0  0  0  0  0  0  0  0  0  0  0
   14.7159   16.7236   16.1710 C   0  0  0  0  0  0  0  0  0  0  0  0
   15.1332   16.3877   17.4884 C   0  0  0  0  0  0  0  0  0  0  0  0
   16.4785   16.6821   17.7828 C   0  0  0  0  0  0  0  0  0  0  0  0
   17.2198   16.5293   18.9311 N   0  0  0  0  0  0  0  0  0  0  0  0
   13.4021   17.5407   12.8101 H   0  0  0  0  0  0  0  0  0  0  0  0
   11.3758   16.8193   13.3610 H   0  0  0  0  0  0  0  0  0  0  0  0
   11.0341   16.2161   14.9189 H   0  0  0  0  0  0  0  0  0  0  0  0
   16.8874   16.1638   19.7827 H   0  0  0  0  0  0  0  0  0  0  0  0
   19.1555   16.6009   21.0081 C   0  0  0  0  0  0  0  0  0  0  0  0
   19.4642   16.9235   19.6315 N   0  0  0  0  0  0  0  0  0  0  0  0
   20.3952   17.1134   19.3737 H   0  0  0  0  0  0  0  0  0  0  0  0
   14.1455   15.8346   18.5005 C   0  0  0  0  0  0  0  0  0  0  0  0
   13.7007   14.3761   18.2897 C   0  0  0  0  0  0  0  0  0  0  0  0
   14.4097   13.4201   19.1584 N   0  0  0  0  0  0  0  0  0  0  0  0
   15.4074   13.4443   18.9474 H   0  0  0  0  0  0  0  0  0  0  0  0
   14.0501   12.4799   18.9939 H   0  0  0  0  0  0  0  0  0  0  0  0
 21 22  1  0
 22  1  1  0
  1  2  2  0
  2  3  1  0
  3  4  2  0
  4  5  1  0
  4  6  1  0
  6  7  1  0
  7  8  2  0
  7  9  1  0
  9 10  1  0
 10 11  1  0
 10 12  2  0
 12 13  1  0
 13 14  1  0
 14 24  1  0
 24 25  1  0
 25 26  1  0
 14 15  2  0
 15 16  1  0
 16  1  1  0
 15  3  1  0
 13  6  2  0
 22 23  1  0
  9 17  1  0
 11 18  1  0
 11 19  1  0
 26 27  1  0
 26 28  1  0
 16 20  1  0
M  END
> <minimizedAffinity>
-7.55944

> <CNNscore>
0.2281918824

> <CNNaffinity>
4.7581911087

> <CNN_VS>
1.0857806206

> <CNNaffinity_variance>
1.4305111170

$$$$



 28 30  0  0  0  0  0  0  0  0999 V2000
   18.0627   18.0698   13.9222 C   0  0  0  0  0  0  0  0  0  0  0  0
   16.8483   17.5837   13.9704 N   0  0  0  0  0  0  0  0  0  0  0  0
   16.6307   17.2468   15.2895 C   0  0  0  0  0  0  0  0  0  0  0  0
   15.5010   16.6955   15.9070 C   0  0  0  0  0  0  0  0  0  0  0  0
   14.4103   16.4176   15.1778 F   0  0  0  0  0  0  0  0  0  0  0  0
   15.5393   16.4625   17.2826 C   0  0  0  0  0  0  0  0  0  0  0  0
   14.3736   15.8958   17.9817 C   0  0  0  0  0  0  0  0  0  0  0  0
   13.3378   15.5628   17.4203 O   0  0  0  0  0  0  0  0  0  0  0  0
   14.5083   15.7489   19.3386 N   0  0  0  0  0  0  0  0  0  0  0  0
   15.6408   16.0548   20.0219 C   0  0  0  0  0  0  0  0  0  0  0  0
   15.6235   15.8369   21.3583 N   0  0  0  0  0  0  0  0  0  0  0  0
   16.6913   16.5393   19.4481 N   0  0  0  0  0  0  0  0  0  0  0  0
   16.6782   16.7584   18.0537 C   0  0  0  0  0  0  0  0  0  0  0  0
   17.8495   17.2910   17.4479 C   0  0  0  0  0  0  0  0  0  0  0  0
   17.7513   17.5290   16.0635 C   0  0  0  0  0  0  0  0  0  0  0  0
   18.6452   18.0507   15.1578 N   0  0  0  0  0  0  0  0  0  0  0  0
   13.7396   15.4017   19.8464 H   0  0  0  0  0  0  0  0  0  0  0  0
   14.8177   15.4672   21.7863 H   0  0  0  0  0  0  0  0  0  0  0  0
   16.4166   16.0483   21.9019 H   0  0  0  0  0  0  0  0  0  0  0  0
   19.5563   18.3600   15.3659 H   0  0  0  0  0  0  0  0  0  0  0  0
   20.0641   18.1047   12.5418 C   0  0  0  0  0  0  0  0  0  0  0  0
   18.7021   18.5078   12.8187 N   0  0  0  0  0  0  0  0  0  0  0  0
   18.2365   19.1093   12.1936 H   0  0  0  0  0  0  0  0  0  0  0  0
   19.0663   17.6449   18.2846 C   0  0  0  0  0  0  0  0  0  0  0  0
   18.9391   17.4146   19.8013 C   0  0  0  0  0  0  0  0  0  0  0  0
   19.9777   16.5210   20.3434 N   0  0  0  0  0  0  0  0  0  0  0  0
   19.8948   15.6013   19.9103 H   0  0  0  0  0  0  0  0  0  0  0  0
   19.8582   16.4337   21.3526 H   0  0  0  0  0  0  0  0  0  0  0  0
 21 22  1  0
 22  1  1  0
  1  2  2  0
  2  3  1  0
  3  4  2  0
  4  5  1  0
  4  6  1  0
  6  7  1  0
  7  8  2  0
  7  9  1  0
  9 10  1  0
 10 11  1  0
 10 12  2  0
 12 13  1  0
 13 14  1  0
 14 24  1  0
 24 25  1  0
 25 26  1  0
 14 15  2  0
 15 16  1  0
 16  1  1  0
 15  3  1  0
 13  6  2  0
 22 23  1  0
  9 17  1  0
 11 18  1  0
 11 19  1  0
 26 27  1  0
 26 28  1  0
 16 20  1  0
M  END
> <minimizedAffinity>
-8.26735

> <CNNscore>
0.2167963237

> <CNNaffinity>
5.0869574547

> <CNN_VS>
1.1028336287

> <CNNaffinity_variance>
0.7640094161

$$$$



 28 30  0  0  0  0  0  0  0  0999 V2000
   23.9360   17.1154   10.9921 C   0  0  0  0  0  0  0  0  0  0  0  0
   22.9758   16.5043   10.3456 N   0  0  0  0  0  0  0  0  0  0  0  0
   21.8463   17.2713   10.5379 C   0  0  0  0  0  0  0  0  0  0  0  0
   20.5404   17.0913   10.0650 C   0  0  0  0  0  0  0  0  0  0  0  0
   20.2489   16.0323    9.2956 F   0  0  0  0  0  0  0  0  0  0  0  0
   19.5726   18.0394   10.4006 C   0  0  0  0  0  0  0  0  0  0  0  0
   18.1878   17.9028    9.9186 C   0  0  0  0  0  0  0  0  0  0  0  0
   17.7901   16.9605    9.2458 O   0  0  0  0  0  0  0  0  0  0  0  0
   17.3324   18.9141   10.2747 N   0  0  0  0  0  0  0  0  0  0  0  0
   17.6910   19.9662   11.0542 C   0  0  0  0  0  0  0  0  0  0  0  0
   16.7262   20.8748   11.3323 N   0  0  0  0  0  0  0  0  0  0  0  0
   18.8891   20.1183   11.5112 N   0  0  0  0  0  0  0  0  0  0  0  0
   19.8743   19.1559   11.2016 C   0  0  0  0  0  0  0  0  0  0  0  0
   21.1846   19.3476   11.7199 C   0  0  0  0  0  0  0  0  0  0  0  0
   22.1285   18.3767   11.3333 C   0  0  0  0  0  0  0  0  0  0  0  0
   23.4700   18.2434   11.6058 N   0  0  0  0  0  0  0  0  0  0  0  0
   16.4052   18.8748    9.9462 H   0  0  0  0  0  0  0  0  0  0  0  0
   15.8158   20.7498   10.9792 H   0  0  0  0  0  0  0  0  0  0  0  0
   16.9352   21.6604   11.8877 H   0  0  0  0  0  0  0  0  0  0  0  0
   24.0069   18.8603   12.1538 H   0  0  0  0  0  0  0  0  0  0  0  0
   26.1080   17.2874   12.0716 C   0  0  0  0  0  0  0  0  0  0  0  0
   25.2160   16.7031   11.0933 N   0  0  0  0  0  0  0  0  0  0  0  0
   25.5477   15.9959   10.4941 H   0  0  0  0  0  0  0  0  0  0  0  0
   21.5204   20.5712   12.5541 C   0  0  0  0  0  0  0  0  0  0  0  0
   22.5394   21.5510   11.9447 C   0  0  0  0  0  0  0  0  0  0  0  0
   23.9177   21.3231   12.4130 N   0  0  0  0  0  0  0  0  0  0  0  0
   23.9612   21.4623   13.4225 H   0  0  0  0  0  0  0  0  0  0  0  0
   24.5466   21.9805   11.9517 H   0  0  0  0  0  0  0  0  0  0  0  0
 21 22  1  0
 22  1  1  0
  1  2  2  0
  2  3  1  0
  3  4  2  0
  4  5  1  0
  4  6  1  0
  6  7  1  0
  7  8  2  0
  7  9  1  0
  9 10  1  0
 10 11  1  0
 10 12  2  0
 12 13  1  0
 13 14  1  0
 14 24  1  0
 24 25  1  0
 25 26  1  0
 14 15  2  0
 15 16  1  0
 16  1  1  0
 15  3  1  0
 13  6  2  0
 22 23  1  0
  9 17  1  0
 11 18  1  0
 11 19  1  0
 26 27  1  0
 26 28  1  0
 16 20  1  0
M  END
> <minimizedAffinity>
-5.22383

> <CNNscore>
0.2088453919

> <CNNaffinity>
5.1846008301

> <CNN_VS>
1.0827800035

> <CNNaffinity_variance>
0.1549510360

$$$$



 28 30  0  0  0  0  0  0  0  0999 V2000
   25.1845   23.5470   10.5289 C   0  0  0  0  0  0  0  0  0  0  0  0
   26.0371   22.7063    9.9999 N   0  0  0  0  0  0  0  0  0  0  0  0
   25.6828   21.4621   10.4768 C   0  0  0  0  0  0  0  0  0  0  0  0
   26.2469   20.2046   10.2281 C   0  0  0  0  0  0  0  0  0  0  0  0
   27.3031   20.0969    9.4087 F   0  0  0  0  0  0  0  0  0  0  0  0
   25.6768   19.0854   10.8365 C   0  0  0  0  0  0  0  0  0  0  0  0
   26.2247   17.7394   10.5980 C   0  0  0  0  0  0  0  0  0  0  0  0
   27.2093   17.5173    9.9051 O   0  0  0  0  0  0  0  0  0  0  0  0
   25.5598   16.7097   11.2134 N   0  0  0  0  0  0  0  0  0  0  0  0
   24.4893   16.8840   12.0299 C   0  0  0  0  0  0  0  0  0  0  0  0
   23.9526   15.7677   12.5772 N   0  0  0  0  0  0  0  0  0  0  0  0
   23.9851   18.0464   12.2793 N   0  0  0  0  0  0  0  0  0  0  0  0
   24.5646   19.1916   11.6915 C   0  0  0  0  0  0  0  0  0  0  0  0
   23.9902   20.4590   11.9851 C   0  0  0  0  0  0  0  0  0  0  0  0
   24.5870   21.5525   11.3286 C   0  0  0  0  0  0  0  0  0  0  0  0
   24.2977   22.8970   11.3396 N   0  0  0  0  0  0  0  0  0  0  0  0
   25.8770   15.7915   11.0539 H   0  0  0  0  0  0  0  0  0  0  0  0
   24.3443   14.8860   12.3809 H   0  0  0  0  0  0  0  0  0  0  0  0
   23.1707   15.8377   13.1713 H   0  0  0  0  0  0  0  0  0  0  0  0
   23.5700   23.3218   11.8487 H   0  0  0  0  0  0  0  0  0  0  0  0
   24.9476   25.4560    9.0415 C   0  0  0  0  0  0  0  0  0  0  0  0
   25.1700   24.8838   10.3520 N   0  0  0  0  0  0  0  0  0  0  0  0
   25.3126   25.4778   11.1240 H   0  0  0  0  0  0  0  0  0  0  0  0
   22.7675   20.5712   12.8785 C   0  0  0  0  0  0  0  0  0  0  0  0
   21.4173   20.2140   12.2314 C   0  0  0  0  0  0  0  0  0  0  0  0
   20.8939   18.9054   12.6614 N   0  0  0  0  0  0  0  0  0  0  0  0
   21.5441   18.1707   12.3820 H   0  0  0  0  0  0  0  0  0  0  0  0
   19.9872   18.7414   12.2240 H   0  0  0  0  0  0  0  0  0  0  0  0
 21 22  1  0
 22  1  1  0
  1  2  2  0
  2  3  1  0
  3  4  2  0
  4  5  1  0
  4  6  1  0
  6  7  1  0
  7  8  2  0
  7  9  1  0
  9 10  1  0
 10 11  1  0
 10 12  2  0
 12 13  1  0
 13 14  1  0
 14 24  1  0
 24 25  1  0
 25 26  1  0
 14 15  2  0
 15 16  1  0
 16  1  1  0
 15  3  1  0
 13  6  2  0
 22 23  1  0
  9 17  1  0
 11 18  1  0
 11 19  1  0
 26 27  1  0
 26 28  1  0
 16 20  1  0
M  END
> <minimizedAffinity>
-5.23503

> <CNNscore>
0.2082479447

> <CNNaffinity>
4.6920542717

> <CNN_VS>
0.9771106839

> <CNNaffinity_variance>
0.0046754493

$$$$



 28 30  0  0  0  0  0  0  0  0999 V2000
   15.6264   19.6190   13.2407 C   0  0  0  0  0  0  0  0  0  0  0  0
   14.4145   19.1717   13.0293 N   0  0  0  0  0  0  0  0  0  0  0  0
   14.1920   18.2171   13.9988 C   0  0  0  0  0  0  0  0  0  0  0  0
   13.0623   17.4275   14.2474 C   0  0  0  0  0  0  0  0  0  0  0  0
   11.9769   17.5513   13.4695 F   0  0  0  0  0  0  0  0  0  0  0  0
   13.0949   16.5348   15.3198 C   0  0  0  0  0  0  0  0  0  0  0  0
   11.9288   15.6910   15.6310 C   0  0  0  0  0  0  0  0  0  0  0  0
   10.8978   15.6829   14.9709 O   0  0  0  0  0  0  0  0  0  0  0  0
   12.0575   14.8823   16.7313 N   0  0  0  0  0  0  0  0  0  0  0  0
   13.1848   14.8059   17.4838 C   0  0  0  0  0  0  0  0  0  0  0  0
   13.1618   13.9459   18.5296 N   0  0  0  0  0  0  0  0  0  0  0  0
   14.2355   15.5155   17.2389 N   0  0  0  0  0  0  0  0  0  0  0  0
   14.2282   16.4057   16.1433 C   0  0  0  0  0  0  0  0  0  0  0  0
   15.3996   17.1732   15.8958 C   0  0  0  0  0  0  0  0  0  0  0  0
   15.3071   18.0746   14.8178 C   0  0  0  0  0  0  0  0  0  0  0  0
   16.2027   18.9828   14.3034 N   0  0  0  0  0  0  0  0  0  0  0  0
   11.2881   14.3252   16.9902 H   0  0  0  0  0  0  0  0  0  0  0  0
   12.3559   13.4093   18.7080 H   0  0  0  0  0  0  0  0  0  0  0  0
   13.9510   13.8572   19.1114 H   0  0  0  0  0  0  0  0  0  0  0  0
   17.1110   19.1476   14.6454 H   0  0  0  0  0  0  0  0  0  0  0  0
   16.9164   21.6782   13.1521 C   0  0  0  0  0  0  0  0  0  0  0  0
   16.2689   20.5537   12.5114 N   0  0  0  0  0  0  0  0  0  0  0  0
   16.2979   20.4701   11.5309 H   0  0  0  0  0  0  0  0  0  0  0  0
   16.6101   17.0614   16.8057 C   0  0  0  0  0  0  0  0  0  0  0  0
   17.9575   17.4962   16.2014 C   0  0  0  0  0  0  0  0  0  0  0  0
   19.0122   17.6920   17.2116 N   0  0  0  0  0  0  0  0  0  0  0  0
   18.7362   18.4370   17.8512 H   0  0  0  0  0  0  0  0  0  0  0  0
   19.8839   17.9477   16.7477 H   0  0  0  0  0  0  0  0  0  0  0  0
 21 22  1  0
 22  1  1  0
  1  2  2  0
  2  3  1  0
  3  4  2  0
  4  5  1  0
  4  6  1  0
  6  7  1  0
  7  8  2  0
  7  9  1  0
  9 10  1  0
 10 11  1  0
 10 12  2  0
 12 13  1  0
 13 14  1  0
 14 24  1  0
 24 25  1  0
 25 26  1  0
 14 15  2  0
 15 16  1  0
 16  1  1  0
 15  3  1  0
 13  6  2  0
 22 23  1  0
  9 17  1  0
 11 18  1  0
 11 19  1  0
 26 27  1  0
 26 28  1  0
 16 20  1  0
M  END
> <minimizedAffinity>
-6.91367

> <CNNscore>
0.1764029264

> <CNNaffinity>
4.7632699013

> <CNN_VS>
0.8402547240

> <CNNaffinity_variance>
1.2139286995

$$$$
