


 25 28  0  0  0  0  0  0  0  0999 V2000
   25.8139  -13.6199   -6.1239 N   0  0  0  0  0  0  0  0  0  0  0  0
   25.5188  -14.7002   -6.9621 C   0  0  0  0  0  0  0  0  0  0  0  0
   24.8840  -15.8284   -6.4546 C   0  0  0  0  0  0  0  0  0  0  0  0
   24.4804  -16.8501   -7.3139 C   0  0  0  0  0  0  0  0  0  0  0  0
   24.6664  -16.7355   -8.7137 C   0  0  0  0  0  0  0  0  0  0  0  0
   24.2907  -17.6980   -9.6682 C   0  0  0  0  0  0  0  0  0  0  0  0
   24.5345  -17.5375  -10.9806 N   0  0  0  0  0  0  0  0  0  0  0  0
   25.1159  -16.3938  -11.3698 C   0  0  0  0  0  0  0  0  0  0  0  0
   25.4797  -15.4042  -10.5371 N   0  0  0  0  0  0  0  0  0  0  0  0
   25.2652  -15.5828   -9.2303 C   0  0  0  0  0  0  0  0  0  0  0  0
   25.6536  -14.5783   -8.3490 C   0  0  0  0  0  0  0  0  0  0  0  0
   25.7168  -13.7127   -5.1486 H   0  0  0  0  0  0  0  0  0  0  0  0
   26.1187  -12.7668   -6.5092 H   0  0  0  0  0  0  0  0  0  0  0  0
   25.3672  -16.2079  -12.8149 C   0  0  0  0  0  0  0  0  0  0  0  0
   24.5273  -15.4008  -13.6095 C   0  0  0  0  0  0  0  0  0  0  0  0
   24.7615  -15.2217  -14.9780 C   0  0  0  0  0  0  0  0  0  0  0  0
   25.8461  -15.8497  -15.5808 C   0  0  0  0  0  0  0  0  0  0  0  0
   26.1375  -15.6320  -17.2619 Cl  0  0  0  0  0  0  0  0  0  0  0  0
   26.6959  -16.6531  -14.8280 C   0  0  0  0  0  0  0  0  0  0  0  0
   26.4564  -16.8285  -13.4598 C   0  0  0  0  0  0  0  0  0  0  0  0
   23.6596  -18.9002   -9.2361 N   0  0  0  0  0  0  0  0  0  0  0  0
   23.5928  -19.1219   -8.2792 H   0  0  0  0  0  0  0  0  0  0  0  0
   23.1120  -19.7989  -10.2604 C   0  0  0  0  0  0  0  0  0  0  0  0
   22.2736  -19.2522  -11.3817 C   0  0  0  0  0  0  0  0  0  0  0  0
   23.6434  -19.7980  -11.6654 C   0  0  0  0  0  0  0  0  0  0  0  0
  1  2  1  0
  2  3  2  0
  3  4  1  0
  4  5  2  0
  5  6  1  0
  6 21  1  0
 21 23  1  0
 23 24  1  0
 24 25  1  0
  6  7  2  0
  7  8  1  0
  8 14  1  0
 14 15  2  0
 15 16  1  0
 16 17  2  0
 17 18  1  0
 17 19  1  0
 19 20  2  0
  8  9  2  0
  9 10  1  0
 10 11  2  0
 11  2  1  0
 10  5  1  0
 25 23  1  0
 20 14  1  0
  1 12  1  0
  1 13  1  0
 21 22  1  0
M  END
> <minimizedAffinity>
-9.16687

> <CNNscore>
0.9017464519

> <CNNaffinity>
7.1850686073

> <CNN_VS>
6.4791102409

> <CNNaffinity_variance>
0.0903939977

$$$$



 25 28  0  0  0  0  0  0  0  0999 V2000
   26.0146  -13.6899   -5.5157 N   0  0  0  0  0  0  0  0  0  0  0  0
   25.5071  -13.9730   -6.7881 C   0  0  0  0  0  0  0  0  0  0  0  0
   25.6183  -13.0381   -7.8113 C   0  0  0  0  0  0  0  0  0  0  0  0
   25.2239  -13.3691   -9.1074 C   0  0  0  0  0  0  0  0  0  0  0  0
   24.7510  -14.6696   -9.4111 C   0  0  0  0  0  0  0  0  0  0  0  0
   24.3369  -15.1114  -10.6807 C   0  0  0  0  0  0  0  0  0  0  0  0
   23.8617  -16.3521  -10.8869 N   0  0  0  0  0  0  0  0  0  0  0  0
   23.8341  -17.1894   -9.8401 C   0  0  0  0  0  0  0  0  0  0  0  0
   24.2387  -16.8691   -8.5996 N   0  0  0  0  0  0  0  0  0  0  0  0
   24.6792  -15.6246   -8.3927 C   0  0  0  0  0  0  0  0  0  0  0  0
   25.0837  -15.2666   -7.1103 C   0  0  0  0  0  0  0  0  0  0  0  0
   26.3108  -12.7771   -5.2958 H   0  0  0  0  0  0  0  0  0  0  0  0
   26.0756  -14.4034   -4.8401 H   0  0  0  0  0  0  0  0  0  0  0  0
   23.3297  -18.5600  -10.0698 C   0  0  0  0  0  0  0  0  0  0  0  0
   22.9178  -18.9873  -11.3490 C   0  0  0  0  0  0  0  0  0  0  0  0
   22.4398  -20.2842  -11.5712 C   0  0  0  0  0  0  0  0  0  0  0  0
   22.3646  -21.1831  -10.5127 C   0  0  0  0  0  0  0  0  0  0  0  0
   21.7782  -22.7775  -10.7816 Cl  0  0  0  0  0  0  0  0  0  0  0  0
   22.7624  -20.7964   -9.2373 C   0  0  0  0  0  0  0  0  0  0  0  0
   23.2394  -19.4980   -9.0213 C   0  0  0  0  0  0  0  0  0  0  0  0
   24.3885  -14.2112  -11.7841 N   0  0  0  0  0  0  0  0  0  0  0  0
   23.6839  -13.5377  -11.9221 H   0  0  0  0  0  0  0  0  0  0  0  0
   25.5242  -14.3179  -12.7092 C   0  0  0  0  0  0  0  0  0  0  0  0
   25.9330  -15.6553  -13.2599 C   0  0  0  0  0  0  0  0  0  0  0  0
   25.3196  -14.6262  -14.1650 C   0  0  0  0  0  0  0  0  0  0  0  0
  1  2  1  0
  2  3  2  0
  3  4  1  0
  4  5  2  0
  5  6  1  0
  6 21  1  0
 21 23  1  0
 23 24  1  0
 24 25  1  0
  6  7  2  0
  7  8  1  0
  8 14  1  0
 14 15  2  0
 15 16  1  0
 16 17  2  0
 17 18  1  0
 17 19  1  0
 19 20  2  0
  8  9  2  0
  9 10  1  0
 10 11  2  0
 11  2  1  0
 10  5  1  0
 25 23  1  0
 20 14  1  0
  1 12  1  0
  1 13  1  0
 21 22  1  0
M  END
> <minimizedAffinity>
-9.88753

> <CNNscore>
0.7889514565

> <CNNaffinity>
6.9281105995

> <CNN_VS>
5.4659428596

> <CNNaffinity_variance>
0.0940504298

$$$$



 25 28  0  0  0  0  0  0  0  0999 V2000
   25.4822  -12.3880   -8.1533 N   0  0  0  0  0  0  0  0  0  0  0  0
   25.1163  -13.2188   -9.2176 C   0  0  0  0  0  0  0  0  0  0  0  0
   25.4010  -12.8474  -10.5269 C   0  0  0  0  0  0  0  0  0  0  0  0
   25.1473  -13.7310  -11.5756 C   0  0  0  0  0  0  0  0  0  0  0  0
   24.6431  -15.0306  -11.3224 C   0  0  0  0  0  0  0  0  0  0  0  0
   24.3605  -16.0011  -12.3006 C   0  0  0  0  0  0  0  0  0  0  0  0
   23.8456  -17.2031  -11.9884 N   0  0  0  0  0  0  0  0  0  0  0  0
   23.6463  -17.4763  -10.6910 C   0  0  0  0  0  0  0  0  0  0  0  0
   23.9161  -16.6274   -9.6852 N   0  0  0  0  0  0  0  0  0  0  0  0
   24.3968  -15.4218  -10.0031 C   0  0  0  0  0  0  0  0  0  0  0  0
   24.6636  -14.5202   -8.9772 C   0  0  0  0  0  0  0  0  0  0  0  0
   25.8000  -11.4731   -8.3298 H   0  0  0  0  0  0  0  0  0  0  0  0
   25.4221  -12.7183   -7.2278 H   0  0  0  0  0  0  0  0  0  0  0  0
   23.0980  -18.8051  -10.3451 C   0  0  0  0  0  0  0  0  0  0  0  0
   23.3513  -19.4018   -9.0929 C   0  0  0  0  0  0  0  0  0  0  0  0
   22.8340  -20.6596   -8.7609 C   0  0  0  0  0  0  0  0  0  0  0  0
   22.0492  -21.3478   -9.6798 C   0  0  0  0  0  0  0  0  0  0  0  0
   21.4115  -22.8932   -9.2757 Cl  0  0  0  0  0  0  0  0  0  0  0  0
   21.7783  -20.7897  -10.9247 C   0  0  0  0  0  0  0  0  0  0  0  0
   22.2986  -19.5316  -11.2510 C   0  0  0  0  0  0  0  0  0  0  0  0
   24.5940  -15.6973  -13.6731 N   0  0  0  0  0  0  0  0  0  0  0  0
   23.8445  -15.5660  -14.2978 H   0  0  0  0  0  0  0  0  0  0  0  0
   25.9859  -15.5858  -14.1281 C   0  0  0  0  0  0  0  0  0  0  0  0
   26.8374  -16.8153  -14.2783 C   0  0  0  0  0  0  0  0  0  0  0  0
   26.4007  -16.0511  -15.4948 C   0  0  0  0  0  0  0  0  0  0  0  0
  1  2  1  0
  2  3  2  0
  3  4  1  0
  4  5  2  0
  5  6  1  0
  6 21  1  0
 21 23  1  0
 23 24  1  0
 24 25  1  0
  6  7  2  0
  7  8  1  0
  8 14  1  0
 14 15  2  0
 15 16  1  0
 16 17  2  0
 17 18  1  0
 17 19  1  0
 19 20  2  0
  8  9  2  0
  9 10  1  0
 10 11  2  0
 11  2  1  0
 10  5  1  0
 25 23  1  0
 20 14  1  0
  1 12  1  0
  1 13  1  0
 21 22  1  0
M  END
> <minimizedAffinity>
-9.33339

> <CNNscore>
0.4172342122

> <CNNaffinity>
6.6742076874

> <CNN_VS>
2.7847077847

> <CNNaffinity_variance>
0.0089269886

$$$$



 25 28  0  0  0  0  0  0  0  0999 V2000
   24.5081  -11.7734   -3.0549 N   0  0  0  0  0  0  0  0  0  0  0  0
   25.1871  -12.9629   -2.7706 C   0  0  0  0  0  0  0  0  0  0  0  0
   24.5980  -14.1907   -3.0512 C   0  0  0  0  0  0  0  0  0  0  0  0
   25.3237  -15.3697   -2.8825 C   0  0  0  0  0  0  0  0  0  0  0  0
   26.6788  -15.3339   -2.4708 C   0  0  0  0  0  0  0  0  0  0  0  0
   27.5031  -16.4574   -2.2785 C   0  0  0  0  0  0  0  0  0  0  0  0
   28.7721  -16.3488   -1.8479 N   0  0  0  0  0  0  0  0  0  0  0  0
   29.2566  -15.1151   -1.6456 C   0  0  0  0  0  0  0  0  0  0  0  0
   28.5574  -13.9834   -1.8337 N   0  0  0  0  0  0  0  0  0  0  0  0
   27.2863  -14.0982   -2.2299 C   0  0  0  0  0  0  0  0  0  0  0  0
   26.5386  -12.9386   -2.4108 C   0  0  0  0  0  0  0  0  0  0  0  0
   23.5569  -11.7979   -3.3075 H   0  0  0  0  0  0  0  0  0  0  0  0
   24.9815  -10.9118   -3.0023 H   0  0  0  0  0  0  0  0  0  0  0  0
   30.6581  -14.9936   -1.1905 C   0  0  0  0  0  0  0  0  0  0  0  0
   31.1813  -15.8358   -0.1879 C   0  0  0  0  0  0  0  0  0  0  0  0
   32.5077  -15.7245    0.2460 C   0  0  0  0  0  0  0  0  0  0  0  0
   33.3402  -14.7638   -0.3180 C   0  0  0  0  0  0  0  0  0  0  0  0
   34.9705  -14.6240    0.2121 Cl  0  0  0  0  0  0  0  0  0  0  0  0
   32.8582  -13.9159   -1.3095 C   0  0  0  0  0  0  0  0  0  0  0  0
   31.5308  -14.0319   -1.7391 C   0  0  0  0  0  0  0  0  0  0  0  0
   26.9743  -17.7595   -2.5140 N   0  0  0  0  0  0  0  0  0  0  0  0
   26.0442  -17.8825   -2.8123 H   0  0  0  0  0  0  0  0  0  0  0  0
   27.8580  -18.9126   -2.2986 C   0  0  0  0  0  0  0  0  0  0  0  0
   27.5002  -19.9663   -1.2884 C   0  0  0  0  0  0  0  0  0  0  0  0
   27.4697  -20.2903   -2.7542 C   0  0  0  0  0  0  0  0  0  0  0  0
  1  2  1  0
  2  3  2  0
  3  4  1  0
  4  5  2  0
  5  6  1  0
  6 21  1  0
 21 23  1  0
 23 24  1  0
 24 25  1  0
  6  7  2  0
  7  8  1  0
  8 14  1  0
 14 15  2  0
 15 16  1  0
 16 17  2  0
 17 18  1  0
 17 19  1  0
 19 20  2  0
  8  9  2  0
  9 10  1  0
 10 11  2  0
 11  2  1  0
 10  5  1  0
 25 23  1  0
 20 14  1  0
  1 12  1  0
  1 13  1  0
 21 22  1  0
M  END
> <minimizedAffinity>
-4.19275

> <CNNscore>
0.3987792134

> <CNNaffinity>
4.3820552826

> <CNN_VS>
1.7474725246

> <CNNaffinity_variance>
0.2256900221

$$$$



 25 28  0  0  0  0  0  0  0  0999 V2000
   24.8032  -13.8544  -13.7434 N   0  0  0  0  0  0  0  0  0  0  0  0
   24.5097  -14.7334  -12.6955 C   0  0  0  0  0  0  0  0  0  0  0  0
   24.1019  -16.0350  -12.9656 C   0  0  0  0  0  0  0  0  0  0  0  0
   23.9295  -16.9447  -11.9227 C   0  0  0  0  0  0  0  0  0  0  0  0
   24.2106  -16.5747  -10.5844 C   0  0  0  0  0  0  0  0  0  0  0  0
   24.0801  -17.4121   -9.4617 C   0  0  0  0  0  0  0  0  0  0  0  0
   24.3286  -16.9793   -8.2133 N   0  0  0  0  0  0  0  0  0  0  0  0
   24.7561  -15.7171   -8.0663 C   0  0  0  0  0  0  0  0  0  0  0  0
   24.9424  -14.8546   -9.0795 N   0  0  0  0  0  0  0  0  0  0  0  0
   24.6623  -15.2794  -10.3151 C   0  0  0  0  0  0  0  0  0  0  0  0
   24.8290  -14.3950  -11.3764 C   0  0  0  0  0  0  0  0  0  0  0  0
   24.5756  -14.0990  -14.6695 H   0  0  0  0  0  0  0  0  0  0  0  0
   25.2373  -12.9912  -13.5548 H   0  0  0  0  0  0  0  0  0  0  0  0
   25.0481  -15.2459   -6.6956 C   0  0  0  0  0  0  0  0  0  0  0  0
   24.8020  -16.0592   -5.5704 C   0  0  0  0  0  0  0  0  0  0  0  0
   25.0772  -15.6174   -4.2708 C   0  0  0  0  0  0  0  0  0  0  0  0
   25.6067  -14.3470   -4.0711 C   0  0  0  0  0  0  0  0  0  0  0  0
   25.9464  -13.8005   -2.4761 Cl  0  0  0  0  0  0  0  0  0  0  0  0
   25.8625  -13.5173   -5.1577 C   0  0  0  0  0  0  0  0  0  0  0  0
   25.5850  -13.9648   -6.4549 C   0  0  0  0  0  0  0  0  0  0  0  0
   23.6394  -18.7553   -9.6403 N   0  0  0  0  0  0  0  0  0  0  0  0
   23.7408  -19.4217   -8.9228 H   0  0  0  0  0  0  0  0  0  0  0  0
   23.0292  -19.1161  -10.9266 C   0  0  0  0  0  0  0  0  0  0  0  0
   23.5328  -20.3020  -11.7007 C   0  0  0  0  0  0  0  0  0  0  0  0
   22.1716  -20.3412  -11.0681 C   0  0  0  0  0  0  0  0  0  0  0  0
  1  2  1  0
  2  3  2  0
  3  4  1  0
  4  5  2  0
  5  6  1  0
  6 21  1  0
 21 23  1  0
 23 24  1  0
 24 25  1  0
  6  7  2  0
  7  8  1  0
  8 14  1  0
 14 15  2  0
 15 16  1  0
 16 17  2  0
 17 18  1  0
 17 19  1  0
 19 20  2  0
  8  9  2  0
  9 10  1  0
 10 11  2  0
 11  2  1  0
 10  5  1  0
 25 23  1  0
 20 14  1  0
  1 12  1  0
  1 13  1  0
 21 22  1  0
M  END
> <minimizedAffinity>
-7.99596

> <CNNscore>
0.2758415341

> <CNNaffinity>
6.2600588799

> <CNN_VS>
1.7267842293

> <CNNaffinity_variance>
0.1145232320

$$$$



 25 28  0  0  0  0  0  0  0  0999 V2000
   26.2618  -16.3040   -3.0297 N   0  0  0  0  0  0  0  0  0  0  0  0
   25.3589  -15.2377   -2.9627 C   0  0  0  0  0  0  0  0  0  0  0  0
   25.6281  -14.0480   -3.6300 C   0  0  0  0  0  0  0  0  0  0  0  0
   24.6721  -13.0331   -3.6640 C   0  0  0  0  0  0  0  0  0  0  0  0
   23.4016  -13.2140   -3.0639 C   0  0  0  0  0  0  0  0  0  0  0  0
   22.3646  -12.2637   -3.0467 C   0  0  0  0  0  0  0  0  0  0  0  0
   21.1957  -12.4911   -2.4225 N   0  0  0  0  0  0  0  0  0  0  0  0
   21.0225  -13.6879   -1.8436 C   0  0  0  0  0  0  0  0  0  0  0  0
   21.9403  -14.6690   -1.8365 N   0  0  0  0  0  0  0  0  0  0  0  0
   23.1128  -14.4259   -2.4297 C   0  0  0  0  0  0  0  0  0  0  0  0
   24.0847  -15.4216   -2.4156 C   0  0  0  0  0  0  0  0  0  0  0  0
   27.1570  -16.1675   -3.4160 H   0  0  0  0  0  0  0  0  0  0  0  0
   26.0021  -17.1910   -2.6905 H   0  0  0  0  0  0  0  0  0  0  0  0
   19.7302  -13.9462   -1.1734 C   0  0  0  0  0  0  0  0  0  0  0  0
   19.5891  -14.9753   -0.2198 C   0  0  0  0  0  0  0  0  0  0  0  0
   18.3676  -15.2233    0.4176 C   0  0  0  0  0  0  0  0  0  0  0  0
   17.2583  -14.4423    0.1118 C   0  0  0  0  0  0  0  0  0  0  0  0
   15.7558  -14.7436    0.8928 Cl  0  0  0  0  0  0  0  0  0  0  0  0
   17.3605  -13.4183   -0.8238 C   0  0  0  0  0  0  0  0  0  0  0  0
   18.5848  -13.1752   -1.4580 C   0  0  0  0  0  0  0  0  0  0  0  0
   22.5624  -11.0033   -3.6813 N   0  0  0  0  0  0  0  0  0  0  0  0
   22.9366  -10.9466   -4.5901 H   0  0  0  0  0  0  0  0  0  0  0  0
   22.1915   -9.7913   -2.9394 C   0  0  0  0  0  0  0  0  0  0  0  0
   22.2068   -8.4502   -3.6177 C   0  0  0  0  0  0  0  0  0  0  0  0
   20.9014   -9.0720   -3.2128 C   0  0  0  0  0  0  0  0  0  0  0  0
  1  2  1  0
  2  3  2  0
  3  4  1  0
  4  5  2  0
  5  6  1  0
  6 21  1  0
 21 23  1  0
 23 24  1  0
 24 25  1  0
  6  7  2  0
  7  8  1  0
  8 14  1  0
 14 15  2  0
 15 16  1  0
 16 17  2  0
 17 18  1  0
 17 19  1  0
 19 20  2  0
  8  9  2  0
  9 10  1  0
 10 11  2  0
 11  2  1  0
 10  5  1  0
 25 23  1  0
 20 14  1  0
  1 12  1  0
  1 13  1  0
 21 22  1  0
M  END
> <minimizedAffinity>
-4.34669

> <CNNscore>
0.2691698074

> <CNNaffinity>
4.3690476418

> <CNN_VS>
1.1760157347

> <CNNaffinity_variance>
0.1300215274

$$$$



 25 28  0  0  0  0  0  0  0  0999 V2000
   31.5534  -14.2267   -1.2527 N   0  0  0  0  0  0  0  0  0  0  0  0
   30.3147  -14.8663   -1.3680 C   0  0  0  0  0  0  0  0  0  0  0  0
   29.1466  -14.1190   -1.4700 C   0  0  0  0  0  0  0  0  0  0  0  0
   27.9283  -14.7543   -1.7087 C   0  0  0  0  0  0  0  0  0  0  0  0
   27.8672  -16.1571   -1.8972 C   0  0  0  0  0  0  0  0  0  0  0  0
   26.6976  -16.8961   -2.1513 C   0  0  0  0  0  0  0  0  0  0  0  0
   26.7106  -18.2342   -2.2812 N   0  0  0  0  0  0  0  0  0  0  0  0
   27.8966  -18.8548   -2.2061 C   0  0  0  0  0  0  0  0  0  0  0  0
   29.0689  -18.2318   -1.9996 N   0  0  0  0  0  0  0  0  0  0  0  0
   29.0465  -16.9055   -1.8382 C   0  0  0  0  0  0  0  0  0  0  0  0
   30.2477  -16.2435   -1.6028 C   0  0  0  0  0  0  0  0  0  0  0  0
   31.5932  -13.2570   -1.0874 H   0  0  0  0  0  0  0  0  0  0  0  0
   32.3854  -14.7463   -1.3368 H   0  0  0  0  0  0  0  0  0  0  0  0
   27.9145  -20.3244   -2.3680 C   0  0  0  0  0  0  0  0  0  0  0  0
   28.8009  -20.9545   -3.2655 C   0  0  0  0  0  0  0  0  0  0  0  0
   28.8215  -22.3456   -3.4218 C   0  0  0  0  0  0  0  0  0  0  0  0
   27.9517  -23.1368   -2.6793 C   0  0  0  0  0  0  0  0  0  0  0  0
   27.9741  -24.8462   -2.8682 Cl  0  0  0  0  0  0  0  0  0  0  0  0
   27.0637  -22.5496   -1.7842 C   0  0  0  0  0  0  0  0  0  0  0  0
   27.0476  -21.1579   -1.6324 C   0  0  0  0  0  0  0  0  0  0  0  0
   25.4487  -16.2163   -2.2433 N   0  0  0  0  0  0  0  0  0  0  0  0
   25.4035  -15.2332   -2.2161 H   0  0  0  0  0  0  0  0  0  0  0  0
   24.2308  -17.0256   -2.3798 C   0  0  0  0  0  0  0  0  0  0  0  0
   22.9187  -16.3739   -2.7157 C   0  0  0  0  0  0  0  0  0  0  0  0
   23.5954  -17.2610   -3.7205 C   0  0  0  0  0  0  0  0  0  0  0  0
  1  2  1  0
  2  3  2  0
  3  4  1  0
  4  5  2  0
  5  6  1  0
  6 21  1  0
 21 23  1  0
 23 24  1  0
 24 25  1  0
  6  7  2  0
  7  8  1  0
  8 14  1  0
 14 15  2  0
 15 16  1  0
 16 17  2  0
 17 18  1  0
 17 19  1  0
 19 20  2  0
  8  9  2  0
  9 10  1  0
 10 11  2  0
 11  2  1  0
 10  5  1  0
 25 23  1  0
 20 14  1  0
  1 12  1  0
  1 13  1  0
 21 22  1  0
M  END
> <minimizedAffinity>
-4.22598

> <CNNscore>
0.2635141313

> <CNNaffinity>
4.0132956505

> <CNN_VS>
1.0575600863

> <CNNaffinity_variance>
0.2689175308

$$$$



 25 28  0  0  0  0  0  0  0  0999 V2000
   18.5364  -10.6143   -2.7679 N   0  0  0  0  0  0  0  0  0  0  0  0
   19.8082  -11.1716   -2.9377 C   0  0  0  0  0  0  0  0  0  0  0  0
   20.8940  -10.3596   -3.2457 C   0  0  0  0  0  0  0  0  0  0  0  0
   22.1795  -10.8985   -3.2926 C   0  0  0  0  0  0  0  0  0  0  0  0
   22.4052  -12.2624   -2.9829 C   0  0  0  0  0  0  0  0  0  0  0  0
   23.6567  -12.9046   -2.9906 C   0  0  0  0  0  0  0  0  0  0  0  0
   23.7902  -14.2153   -2.7228 N   0  0  0  0  0  0  0  0  0  0  0  0
   22.6840  -14.8993   -2.3974 C   0  0  0  0  0  0  0  0  0  0  0  0
   21.4525  -14.3663   -2.3313 N   0  0  0  0  0  0  0  0  0  0  0  0
   21.3204  -13.0707   -2.6306 C   0  0  0  0  0  0  0  0  0  0  0  0
   20.0501  -12.5042   -2.5882 C   0  0  0  0  0  0  0  0  0  0  0  0
   18.3732   -9.6756   -3.0160 H   0  0  0  0  0  0  0  0  0  0  0  0
   17.8046  -11.1607   -2.4002 H   0  0  0  0  0  0  0  0  0  0  0  0
   22.8323  -16.3366   -2.0840 C   0  0  0  0  0  0  0  0  0  0  0  0
   22.4323  -17.3335   -2.9975 C   0  0  0  0  0  0  0  0  0  0  0  0
   22.5711  -18.6955   -2.7052 C   0  0  0  0  0  0  0  0  0  0  0  0
   23.1156  -19.0883   -1.4873 C   0  0  0  0  0  0  0  0  0  0  0  0
   23.2881  -20.7606   -1.1244 Cl  0  0  0  0  0  0  0  0  0  0  0  0
   23.5212  -18.1324   -0.5619 C   0  0  0  0  0  0  0  0  0  0  0  0
   23.3798  -16.7718   -0.8600 C   0  0  0  0  0  0  0  0  0  0  0  0
   24.8229  -12.1566   -3.3237 N   0  0  0  0  0  0  0  0  0  0  0  0
   25.0047  -11.8886   -4.2534 H   0  0  0  0  0  0  0  0  0  0  0  0
   25.7457  -11.7974   -2.2391 C   0  0  0  0  0  0  0  0  0  0  0  0
   26.0938  -10.3580   -1.9827 C   0  0  0  0  0  0  0  0  0  0  0  0
   25.2582  -11.1163   -0.9921 C   0  0  0  0  0  0  0  0  0  0  0  0
  1  2  1  0
  2  3  2  0
  3  4  1  0
  4  5  2  0
  5  6  1  0
  6 21  1  0
 21 23  1  0
 23 24  1  0
 24 25  1  0
  6  7  2  0
  7  8  1  0
  8 14  1  0
 14 15  2  0
 15 16  1  0
 16 17  2  0
 17 18  1  0
 17 19  1  0
 19 20  2  0
  8  9  2  0
  9 10  1  0
 10 11  2  0
 11  2  1  0
 10  5  1  0
 25 23  1  0
 20 14  1  0
  1 12  1  0
  1 13  1  0
 21 22  1  0
M  END
> <minimizedAffinity>
-4.13454

> <CNNscore>
0.2139879167

> <CNNaffinity>
4.6997456551

> <CNN_VS>
1.0056887865

> <CNNaffinity_variance>
0.0221788604

$$$$



 25 28  0  0  0  0  0  0  0  0999 V2000
   20.7358  -18.4121   -0.6082 N   0  0  0  0  0  0  0  0  0  0  0  0
   21.4394  -17.2519   -0.9482 C   0  0  0  0  0  0  0  0  0  0  0  0
   20.7724  -16.0382   -1.0713 C   0  0  0  0  0  0  0  0  0  0  0  0
   21.4920  -14.8633   -1.2881 C   0  0  0  0  0  0  0  0  0  0  0  0
   22.9077  -14.8796   -1.3389 C   0  0  0  0  0  0  0  0  0  0  0  0
   23.7298  -13.7565   -1.5429 C   0  0  0  0  0  0  0  0  0  0  0  0
   25.0686  -13.8538   -1.6183 N   0  0  0  0  0  0  0  0  0  0  0  0
   25.6147  -15.0660   -1.4456 C   0  0  0  0  0  0  0  0  0  0  0  0
   24.9147  -16.1891   -1.2133 N   0  0  0  0  0  0  0  0  0  0  0  0
   23.5826  -16.0924   -1.1722 C   0  0  0  0  0  0  0  0  0  0  0  0
   22.8381  -17.2475   -0.9531 C   0  0  0  0  0  0  0  0  0  0  0  0
   19.7513  -18.4081   -0.6069 H   0  0  0  0  0  0  0  0  0  0  0  0
   21.2250  -19.2326   -0.3703 H   0  0  0  0  0  0  0  0  0  0  0  0
   27.0881  -15.1712   -1.5092 C   0  0  0  0  0  0  0  0  0  0  0  0
   27.7251  -16.3852   -1.8389 C   0  0  0  0  0  0  0  0  0  0  0  0
   29.1198  -16.4894   -1.9006 C   0  0  0  0  0  0  0  0  0  0  0  0
   29.9079  -15.3753   -1.6326 C   0  0  0  0  0  0  0  0  0  0  0  0
   31.6217  -15.4990   -1.7077 Cl  0  0  0  0  0  0  0  0  0  0  0  0
   29.3139  -14.1613   -1.3042 C   0  0  0  0  0  0  0  0  0  0  0  0
   27.9186  -14.0634   -1.2439 C   0  0  0  0  0  0  0  0  0  0  0  0
   23.1310  -12.4741   -1.7086 N   0  0  0  0  0  0  0  0  0  0  0  0
   22.9701  -11.8862   -0.9355 H   0  0  0  0  0  0  0  0  0  0  0  0
   22.7611  -12.0555   -3.0669 C   0  0  0  0  0  0  0  0  0  0  0  0
   21.3152  -11.9081   -3.4496 C   0  0  0  0  0  0  0  0  0  0  0  0
   22.1895  -10.6927   -3.3359 C   0  0  0  0  0  0  0  0  0  0  0  0
  1  2  1  0
  2  3  2  0
  3  4  1  0
  4  5  2  0
  5  6  1  0
  6 21  1  0
 21 23  1  0
 23 24  1  0
 24 25  1  0
  6  7  2  0
  7  8  1  0
  8 14  1  0
 14 15  2  0
 15 16  1  0
 16 17  2  0
 17 18  1  0
 17 19  1  0
 19 20  2  0
  8  9  2  0
  9 10  1  0
 10 11  2  0
 11  2  1  0
 10  5  1  0
 25 23  1  0
 20 14  1  0
  1 12  1  0
  1 13  1  0
 21 22  1  0
M  END
> <minimizedAffinity>
-3.88455

> <CNNscore>
0.2132747620

> <CNNaffinity>
4.2765603065

> <CNN_VS>
0.9120823741

> <CNNaffinity_variance>
0.0879928842

$$$$
