


 24 24  0  0  0  0  0  0  0  0999 V2000
   -0.6153   -3.7106   -5.2125 N   0  0  0  0  0  0  0  0  0  0  0  0
   -1.1020   -3.4629   -6.0739 H   0  0  0  0  0  0  0  0  0  0  0  0
   -0.8978   -5.3450   -4.9590 S   0  0  0  0  0  0  0  0  0  0  0  0
    0.2461   -6.0322   -5.4951 O   0  0  0  0  0  0  0  0  0  0  0  0
   -1.2924   -5.4439   -3.5684 O   0  0  0  0  0  0  0  0  0  0  0  0
   -4.5373   -6.1406   -7.5848 C   0  0  0  0  0  0  0  0  0  0  0  0
   -4.6811   -6.0248   -6.1993 C   0  0  0  0  0  0  0  0  0  0  0  0
   -3.5640   -5.7742   -5.3958 C   0  0  0  0  0  0  0  0  0  0  0  0
   -2.3029   -5.6456   -5.9856 C   0  0  0  0  0  0  0  0  0  0  0  0
   -2.1496   -5.7446   -7.3693 C   0  0  0  0  0  0  0  0  0  0  0  0
   -3.2704   -6.0001   -8.1610 C   0  0  0  0  0  0  0  0  0  0  0  0
   -5.1498   -6.7300   -9.8089 C   0  0  0  0  0  0  0  0  0  0  0  0
   -5.5398   -6.3982   -8.4783 O   0  0  0  0  0  0  0  0  0  0  0  0
   -1.0039   -2.7101   -4.2123 C   0  0  0  0  0  0  0  0  0  0  0  0
   -2.0965   -1.8441   -4.8436 C   0  0  0  0  0  0  0  0  0  0  0  0
    0.2399   -1.8510   -3.8086 C   0  0  0  0  0  0  0  0  0  0  0  0
    0.4485   -1.5764   -2.2446 N   0  0  0  0  0  0  0  0  0  0  0  0
   -0.4600   -0.4197   -1.8523 C   0  0  0  0  0  0  0  0  0  0  0  0
   -0.1029   -2.8530   -1.5793 C   0  0  0  0  0  0  0  0  0  0  0  0
    1.9210   -1.3777   -1.9716 C   0  0  0  0  0  0  0  0  0  0  0  0
    2.4545   -1.1432   -0.5716 N   0  0  0  0  0  0  0  0  0  0  0  0
    2.5609    0.3441   -0.2068 C   0  0  0  0  0  0  0  0  0  0  0  0
    1.7598   -1.8923    0.5511 C   0  0  0  0  0  0  0  0  0  0  0  0
    3.9265   -1.6664   -0.5839 C   0  0  0  0  0  0  0  0  0  0  0  0
 12 13  1  0
 13  6  1  0
  6  7  2  0
  7  8  1  0
  8  9  2  0
  9  3  1  0
  3  4  2  0
  3  5  2  0
  3  1  1  0
  1 14  1  0
 14 15  1  0
 14 16  1  0
 16 17  1  0
 17 18  1  0
 17 19  1  0
 17 20  1  0
 20 21  1  0
 21 22  1  0
 21 23  1  0
 21 24  1  0
  9 10  1  0
 10 11  2  0
 11  6  1  0
  1  2  1  0
M  CHG 1  17   1
M  CHG 1  21   1
M  END
> <minimizedAffinity>
-6.21196

> <CNNscore>
0.9044427276

> <CNNaffinity>
5.7514915466

> <CNN_VS>
5.2018947601

> <CNNaffinity_variance>
0.2490335703

$$$$



 24 24  0  0  0  0  0  0  0  0999 V2000
   -0.9282   -3.2731   -5.3976 N   0  0  0  0  0  0  0  0  0  0  0  0
   -1.8266   -3.0731   -5.8373 H   0  0  0  0  0  0  0  0  0  0  0  0
   -0.8123   -4.9436   -5.2899 S   0  0  0  0  0  0  0  0  0  0  0  0
    0.4644   -5.2889   -5.8547 O   0  0  0  0  0  0  0  0  0  0  0  0
   -1.1760   -5.2551   -3.9226 O   0  0  0  0  0  0  0  0  0  0  0  0
   -4.1269   -6.3056   -8.1063 C   0  0  0  0  0  0  0  0  0  0  0  0
   -2.8350   -6.0879   -8.5934 C   0  0  0  0  0  0  0  0  0  0  0  0
   -1.8176   -5.6762   -7.7264 C   0  0  0  0  0  0  0  0  0  0  0  0
   -2.1015   -5.4787   -6.3716 C   0  0  0  0  0  0  0  0  0  0  0  0
   -3.3843   -5.7073   -5.8714 C   0  0  0  0  0  0  0  0  0  0  0  0
   -4.3931   -6.1128   -6.7465 C   0  0  0  0  0  0  0  0  0  0  0  0
   -6.4300   -6.9090   -8.1398 C   0  0  0  0  0  0  0  0  0  0  0  0
   -5.2103   -6.6925   -8.8455 O   0  0  0  0  0  0  0  0  0  0  0  0
   -0.8537   -2.4293   -4.1999 C   0  0  0  0  0  0  0  0  0  0  0  0
   -1.7527   -1.2159   -4.4482 C   0  0  0  0  0  0  0  0  0  0  0  0
    0.6283   -1.9963   -3.9460 C   0  0  0  0  0  0  0  0  0  0  0  0
    0.9483   -1.3199   -2.5300 N   0  0  0  0  0  0  0  0  0  0  0  0
    0.2096   -2.1124   -1.4607 C   0  0  0  0  0  0  0  0  0  0  0  0
    2.4573   -1.5737   -2.3438 C   0  0  0  0  0  0  0  0  0  0  0  0
    0.6191    0.1528   -2.6019 C   0  0  0  0  0  0  0  0  0  0  0  0
    0.4031    0.9899   -1.3562 N   0  0  0  0  0  0  0  0  0  0  0  0
    0.2029    2.4817   -1.6578 C   0  0  0  0  0  0  0  0  0  0  0  0
   -0.6781    0.5160   -0.4019 C   0  0  0  0  0  0  0  0  0  0  0  0
    1.7414    0.9121   -0.5538 C   0  0  0  0  0  0  0  0  0  0  0  0
 12 13  1  0
 13  6  1  0
  6  7  2  0
  7  8  1  0
  8  9  2  0
  9  3  1  0
  3  4  2  0
  3  5  2  0
  3  1  1  0
  1 14  1  0
 14 15  1  0
 14 16  1  0
 16 17  1  0
 17 18  1  0
 17 19  1  0
 17 20  1  0
 20 21  1  0
 21 22  1  0
 21 23  1  0
 21 24  1  0
  9 10  1  0
 10 11  2  0
 11  6  1  0
  1  2  1  0
M  CHG 1  17   1
M  CHG 1  21   1
M  END
> <minimizedAffinity>
-6.77653

> <CNNscore>
0.8555251360

> <CNNaffinity>
5.6932373047

> <CNN_VS>
4.8707075119

> <CNNaffinity_variance>
0.4309662580

$$$$



 24 24  0  0  0  0  0  0  0  0999 V2000
   -2.2349   -3.6172   -5.8559 N   0  0  0  0  0  0  0  0  0  0  0  0
   -3.2221   -3.7326   -5.6269 H   0  0  0  0  0  0  0  0  0  0  0  0
   -1.7032   -5.1009   -6.4317 S   0  0  0  0  0  0  0  0  0  0  0  0
   -0.6661   -4.8073   -7.3838 O   0  0  0  0  0  0  0  0  0  0  0  0
   -1.4764   -5.9015   -5.2457 O   0  0  0  0  0  0  0  0  0  0  0  0
   -5.3770   -6.6437   -8.6444 C   0  0  0  0  0  0  0  0  0  0  0  0
   -4.2058   -6.3466   -9.3470 C   0  0  0  0  0  0  0  0  0  0  0  0
   -3.0774   -5.8793   -8.6653 C   0  0  0  0  0  0  0  0  0  0  0  0
   -3.1294   -5.7064   -7.2789 C   0  0  0  0  0  0  0  0  0  0  0  0
   -4.2887   -6.0140   -6.5652 C   0  0  0  0  0  0  0  0  0  0  0  0
   -5.4106   -6.4745   -7.2562 C   0  0  0  0  0  0  0  0  0  0  0  0
   -6.4575   -7.8241  -10.4076 C   0  0  0  0  0  0  0  0  0  0  0  0
   -6.5492   -7.0909   -9.1883 O   0  0  0  0  0  0  0  0  0  0  0  0
   -1.6074   -2.9881   -4.6885 C   0  0  0  0  0  0  0  0  0  0  0  0
   -2.3518   -3.4941   -3.4507 C   0  0  0  0  0  0  0  0  0  0  0  0
   -1.6994   -1.4309   -4.8101 C   0  0  0  0  0  0  0  0  0  0  0  0
   -0.7716   -0.5755   -3.8241 N   0  0  0  0  0  0  0  0  0  0  0  0
   -0.5246    0.7770   -4.4775 C   0  0  0  0  0  0  0  0  0  0  0  0
   -1.6715   -0.3452   -2.5939 C   0  0  0  0  0  0  0  0  0  0  0  0
    0.4631   -1.3790   -3.4890 C   0  0  0  0  0  0  0  0  0  0  0  0
    1.4217   -0.9595   -2.3914 N   0  0  0  0  0  0  0  0  0  0  0  0
    2.8830   -1.3180   -2.6958 C   0  0  0  0  0  0  0  0  0  0  0  0
    1.3383    0.4862   -1.9367 C   0  0  0  0  0  0  0  0  0  0  0  0
    1.0423   -1.8196   -1.1435 C   0  0  0  0  0  0  0  0  0  0  0  0
 12 13  1  0
 13  6  1  0
  6  7  2  0
  7  8  1  0
  8  9  2  0
  9  3  1  0
  3  4  2  0
  3  5  2  0
  3  1  1  0
  1 14  1  0
 14 15  1  0
 14 16  1  0
 16 17  1  0
 17 18  1  0
 17 19  1  0
 17 20  1  0
 20 21  1  0
 21 22  1  0
 21 23  1  0
 21 24  1  0
  9 10  1  0
 10 11  2  0
 11  6  1  0
  1  2  1  0
M  CHG 1  17   1
M  CHG 1  21   1
M  END
> <minimizedAffinity>
-7.47549

> <CNNscore>
0.7417218089

> <CNNaffinity>
5.0711932182

> <CNN_VS>
3.7614145279

> <CNNaffinity_variance>
0.8120644689

$$$$



 24 24  0  0  0  0  0  0  0  0999 V2000
   -1.9646   -5.0655   -3.9733 N   0  0  0  0  0  0  0  0  0  0  0  0
   -1.8094   -5.4798   -3.0542 H   0  0  0  0  0  0  0  0  0  0  0  0
   -1.1688   -6.0461   -5.0782 S   0  0  0  0  0  0  0  0  0  0  0  0
   -0.0160   -5.3021   -5.5091 O   0  0  0  0  0  0  0  0  0  0  0  0
   -1.0720   -7.3375   -4.4285 O   0  0  0  0  0  0  0  0  0  0  0  0
   -4.2018   -6.3219   -8.4692 C   0  0  0  0  0  0  0  0  0  0  0  0
   -4.6338   -6.2791   -7.1406 C   0  0  0  0  0  0  0  0  0  0  0  0
   -3.7018   -6.1879   -6.1016 C   0  0  0  0  0  0  0  0  0  0  0  0
   -2.3364   -6.1452   -6.3994 C   0  0  0  0  0  0  0  0  0  0  0  0
   -1.8942   -6.1724   -7.7229 C   0  0  0  0  0  0  0  0  0  0  0  0
   -2.8327   -6.2688   -8.7515 C   0  0  0  0  0  0  0  0  0  0  0  0
   -6.3634   -6.7912   -9.3505 C   0  0  0  0  0  0  0  0  0  0  0  0
   -5.0033   -6.4256   -9.5722 O   0  0  0  0  0  0  0  0  0  0  0  0
   -1.6355   -3.6413   -3.8490 C   0  0  0  0  0  0  0  0  0  0  0  0
   -1.6264   -3.0569   -5.2634 C   0  0  0  0  0  0  0  0  0  0  0  0
   -0.2420   -3.4760   -3.1568 C   0  0  0  0  0  0  0  0  0  0  0  0
   -0.0037   -2.1245   -2.3314 N   0  0  0  0  0  0  0  0  0  0  0  0
    0.4374   -2.5113   -0.9267 C   0  0  0  0  0  0  0  0  0  0  0  0
    1.2026   -1.4784   -3.0410 C   0  0  0  0  0  0  0  0  0  0  0  0
   -1.2458   -1.2689   -2.4181 C   0  0  0  0  0  0  0  0  0  0  0  0
   -1.1837    0.2050   -2.7692 N   0  0  0  0  0  0  0  0  0  0  0  0
   -0.6745    0.4659   -4.1937 C   0  0  0  0  0  0  0  0  0  0  0  0
   -2.4462    1.0119   -2.5263 C   0  0  0  0  0  0  0  0  0  0  0  0
   -0.0985    0.8211   -1.8291 C   0  0  0  0  0  0  0  0  0  0  0  0
 12 13  1  0
 13  6  1  0
  6  7  2  0
  7  8  1  0
  8  9  2  0
  9  3  1  0
  3  4  2  0
  3  5  2  0
  3  1  1  0
  1 14  1  0
 14 15  1  0
 14 16  1  0
 16 17  1  0
 17 18  1  0
 17 19  1  0
 17 20  1  0
 20 21  1  0
 21 22  1  0
 21 23  1  0
 21 24  1  0
  9 10  1  0
 10 11  2  0
 11  6  1  0
  1  2  1  0
M  CHG 1  17   1
M  CHG 1  21   1
M  END
> <minimizedAffinity>
-6.69027

> <CNNscore>
0.6994332075

> <CNNaffinity>
5.4349293709

> <CNN_VS>
3.8013701439

> <CNNaffinity_variance>
0.1930920333

$$$$



 24 24  0  0  0  0  0  0  0  0999 V2000
   -2.0720   -4.3059   -5.5488 N   0  0  0  0  0  0  0  0  0  0  0  0
   -2.6574   -4.8139   -4.8858 H   0  0  0  0  0  0  0  0  0  0  0  0
   -1.4756   -5.4447   -6.6273 S   0  0  0  0  0  0  0  0  0  0  0  0
   -0.5566   -4.7395   -7.4795 O   0  0  0  0  0  0  0  0  0  0  0  0
   -1.0777   -6.5671   -5.8020 O   0  0  0  0  0  0  0  0  0  0  0  0
   -5.2093   -6.5923   -8.9761 C   0  0  0  0  0  0  0  0  0  0  0  0
   -5.2525   -6.5120   -7.5814 C   0  0  0  0  0  0  0  0  0  0  0  0
   -4.1073   -6.1534   -6.8627 C   0  0  0  0  0  0  0  0  0  0  0  0
   -2.9188   -5.8810   -7.5468 C   0  0  0  0  0  0  0  0  0  0  0  0
   -2.8678   -5.9436   -8.9401 C   0  0  0  0  0  0  0  0  0  0  0  0
   -4.0151   -6.3076   -9.6469 C   0  0  0  0  0  0  0  0  0  0  0  0
   -6.7727   -8.2607   -9.6404 C   0  0  0  0  0  0  0  0  0  0  0  0
   -6.2473   -6.9443   -9.7937 O   0  0  0  0  0  0  0  0  0  0  0  0
   -1.1674   -3.4708   -4.7509 C   0  0  0  0  0  0  0  0  0  0  0  0
   -0.4107   -4.4054   -3.8042 C   0  0  0  0  0  0  0  0  0  0  0  0
   -1.9909   -2.4029   -3.9575 C   0  0  0  0  0  0  0  0  0  0  0  0
   -1.1559   -1.3618   -3.0721 N   0  0  0  0  0  0  0  0  0  0  0  0
   -0.8173   -2.0425   -1.7533 C   0  0  0  0  0  0  0  0  0  0  0  0
    0.1565   -1.1902   -3.8623 C   0  0  0  0  0  0  0  0  0  0  0  0
   -1.9339   -0.0713   -2.9652 C   0  0  0  0  0  0  0  0  0  0  0  0
   -1.3214    1.2687   -3.3242 N   0  0  0  0  0  0  0  0  0  0  0  0
   -0.5659    1.2491   -4.6604 C   0  0  0  0  0  0  0  0  0  0  0  0
   -2.2495    2.4691   -3.2840 C   0  0  0  0  0  0  0  0  0  0  0  0
   -0.2283    1.5407   -2.2417 C   0  0  0  0  0  0  0  0  0  0  0  0
 12 13  1  0
 13  6  1  0
  6  7  2  0
  7  8  1  0
  8  9  2  0
  9  3  1  0
  3  4  2  0
  3  5  2  0
  3  1  1  0
  1 14  1  0
 14 15  1  0
 14 16  1  0
 16 17  1  0
 17 18  1  0
 17 19  1  0
 17 20  1  0
 20 21  1  0
 21 22  1  0
 21 23  1  0
 21 24  1  0
  9 10  1  0
 10 11  2  0
 11  6  1  0
  1  2  1  0
M  CHG 1  17   1
M  CHG 1  21   1
M  END
> <minimizedAffinity>
-7.41760

> <CNNscore>
0.6647932529

> <CNNaffinity>
5.0979371071

> <CNN_VS>
3.3890740871

> <CNNaffinity_variance>
0.6525525451

$$$$



 24 24  0  0  0  0  0  0  0  0999 V2000
   -2.0500   -5.1621   -4.3562 N   0  0  0  0  0  0  0  0  0  0  0  0
   -2.3817   -6.0734   -4.0403 H   0  0  0  0  0  0  0  0  0  0  0  0
   -1.4338   -5.3886   -5.9004 S   0  0  0  0  0  0  0  0  0  0  0  0
   -0.9637   -4.0999   -6.3319 O   0  0  0  0  0  0  0  0  0  0  0  0
   -0.5667   -6.5440   -5.7899 O   0  0  0  0  0  0  0  0  0  0  0  0
   -5.1473   -6.5072   -8.2947 C   0  0  0  0  0  0  0  0  0  0  0  0
   -3.9170   -6.3471   -8.9384 C   0  0  0  0  0  0  0  0  0  0  0  0
   -2.7772   -6.0101   -8.2009 C   0  0  0  0  0  0  0  0  0  0  0  0
   -2.8767   -5.8294   -6.8181 C   0  0  0  0  0  0  0  0  0  0  0  0
   -4.0970   -6.0012   -6.1628 C   0  0  0  0  0  0  0  0  0  0  0  0
   -5.2290   -6.3323   -6.9091 C   0  0  0  0  0  0  0  0  0  0  0  0
   -6.2704   -7.3371  -10.2232 C   0  0  0  0  0  0  0  0  0  0  0  0
   -6.3349   -6.8190   -8.8965 O   0  0  0  0  0  0  0  0  0  0  0  0
   -1.2128   -4.6267   -3.2769 C   0  0  0  0  0  0  0  0  0  0  0  0
   -1.0876   -5.7247   -2.2183 C   0  0  0  0  0  0  0  0  0  0  0  0
   -1.8709   -3.3372   -2.6834 C   0  0  0  0  0  0  0  0  0  0  0  0
   -1.1790   -1.9407   -3.0518 N   0  0  0  0  0  0  0  0  0  0  0  0
    0.2434   -2.2345   -3.5075 C   0  0  0  0  0  0  0  0  0  0  0  0
   -1.9754   -1.4585   -4.2803 C   0  0  0  0  0  0  0  0  0  0  0  0
   -1.3118   -1.0002   -1.8770 C   0  0  0  0  0  0  0  0  0  0  0  0
   -0.5422   -1.2110   -0.5875 N   0  0  0  0  0  0  0  0  0  0  0  0
   -1.4039   -1.0206    0.6686 C   0  0  0  0  0  0  0  0  0  0  0  0
    0.2431   -2.5048   -0.4724 C   0  0  0  0  0  0  0  0  0  0  0  0
    0.5179   -0.0646   -0.5323 C   0  0  0  0  0  0  0  0  0  0  0  0
 12 13  1  0
 13  6  1  0
  6  7  2  0
  7  8  1  0
  8  9  2  0
  9  3  1  0
  3  4  2  0
  3  5  2  0
  3  1  1  0
  1 14  1  0
 14 15  1  0
 14 16  1  0
 16 17  1  0
 17 18  1  0
 17 19  1  0
 17 20  1  0
 20 21  1  0
 21 22  1  0
 21 23  1  0
 21 24  1  0
  9 10  1  0
 10 11  2  0
 11  6  1  0
  1  2  1  0
M  CHG 1  17   1
M  CHG 1  21   1
M  END
> <minimizedAffinity>
-6.60123

> <CNNscore>
0.5946965814

> <CNNaffinity>
5.6938147545

> <CNN_VS>
3.3860921860

> <CNNaffinity_variance>
0.1921400279

$$$$



 24 24  0  0  0  0  0  0  0  0999 V2000
   -2.1128   -4.9491   -4.4306 N   0  0  0  0  0  0  0  0  0  0  0  0
   -1.4649   -5.2173   -3.6899 H   0  0  0  0  0  0  0  0  0  0  0  0
   -1.3665   -5.3418   -5.8812 S   0  0  0  0  0  0  0  0  0  0  0  0
   -0.7797   -4.1221   -6.3673 O   0  0  0  0  0  0  0  0  0  0  0  0
   -0.5859   -6.5271   -5.5900 O   0  0  0  0  0  0  0  0  0  0  0  0
   -4.9205   -6.5049   -8.4870 C   0  0  0  0  0  0  0  0  0  0  0  0
   -5.0778   -6.3624   -7.1055 C   0  0  0  0  0  0  0  0  0  0  0  0
   -3.9874   -5.9991   -6.3083 C   0  0  0  0  0  0  0  0  0  0  0  0
   -2.7391   -5.7846   -6.9003 C   0  0  0  0  0  0  0  0  0  0  0  0
   -2.5738   -5.9096   -8.2805 C   0  0  0  0  0  0  0  0  0  0  0  0
   -3.6674   -6.2777   -9.0658 C   0  0  0  0  0  0  0  0  0  0  0  0
   -7.0908   -7.4228   -8.8287 C   0  0  0  0  0  0  0  0  0  0  0  0
   -5.8958   -6.8684   -9.3739 O   0  0  0  0  0  0  0  0  0  0  0  0
   -2.5298   -3.5727   -4.1409 C   0  0  0  0  0  0  0  0  0  0  0  0
   -1.7513   -2.6581   -5.0893 C   0  0  0  0  0  0  0  0  0  0  0  0
   -2.2277   -3.2295   -2.6445 C   0  0  0  0  0  0  0  0  0  0  0  0
   -0.8091   -3.7010   -2.0699 N   0  0  0  0  0  0  0  0  0  0  0  0
   -0.7756   -5.2223   -2.1101 C   0  0  0  0  0  0  0  0  0  0  0  0
    0.1938   -3.1814   -3.1188 C   0  0  0  0  0  0  0  0  0  0  0  0
   -0.5949   -3.0744   -0.7120 C   0  0  0  0  0  0  0  0  0  0  0  0
   -1.4333   -3.4585    0.4918 N   0  0  0  0  0  0  0  0  0  0  0  0
   -2.4878   -4.5288    0.1770 C   0  0  0  0  0  0  0  0  0  0  0  0
   -0.6748   -3.8479    1.7477 C   0  0  0  0  0  0  0  0  0  0  0  0
   -2.2492   -2.1803    0.8677 C   0  0  0  0  0  0  0  0  0  0  0  0
 12 13  1  0
 13  6  1  0
  6  7  2  0
  7  8  1  0
  8  9  2  0
  9  3  1  0
  3  4  2  0
  3  5  2  0
  3  1  1  0
  1 14  1  0
 14 15  1  0
 14 16  1  0
 16 17  1  0
 17 18  1  0
 17 19  1  0
 17 20  1  0
 20 21  1  0
 21 22  1  0
 21 23  1  0
 21 24  1  0
  9 10  1  0
 10 11  2  0
 11  6  1  0
  1  2  1  0
M  CHG 1  17   1
M  CHG 1  21   1
M  END
> <minimizedAffinity>
-6.43634

> <CNNscore>
0.5666226745

> <CNNaffinity>
5.3453845978

> <CNN_VS>
3.0288162231

> <CNNaffinity_variance>
0.0866383910

$$$$



 24 24  0  0  0  0  0  0  0  0999 V2000
   -1.4998   -6.1536   -3.6081 N   0  0  0  0  0  0  0  0  0  0  0  0
   -1.5095   -7.1081   -3.9676 H   0  0  0  0  0  0  0  0  0  0  0  0
   -1.0491   -5.1671   -4.8883 S   0  0  0  0  0  0  0  0  0  0  0  0
   -1.2785   -3.8175   -4.4479 O   0  0  0  0  0  0  0  0  0  0  0  0
    0.2563   -5.6507   -5.2900 O   0  0  0  0  0  0  0  0  0  0  0  0
   -4.1238   -6.2911   -8.0596 C   0  0  0  0  0  0  0  0  0  0  0  0
   -4.5113   -6.1446   -6.7247 C   0  0  0  0  0  0  0  0  0  0  0  0
   -3.5674   -5.7933   -5.7539 C   0  0  0  0  0  0  0  0  0  0  0  0
   -2.2343   -5.5949   -6.1256 C   0  0  0  0  0  0  0  0  0  0  0  0
   -1.8389   -5.7239   -7.4579 C   0  0  0  0  0  0  0  0  0  0  0  0
   -2.7880   -6.0800   -8.4174 C   0  0  0  0  0  0  0  0  0  0  0  0
   -6.3166   -6.8536   -8.7977 C   0  0  0  0  0  0  0  0  0  0  0  0
   -4.9389   -6.6441   -9.0992 O   0  0  0  0  0  0  0  0  0  0  0  0
   -0.7218   -6.1848   -2.3647 C   0  0  0  0  0  0  0  0  0  0  0  0
    0.1063   -7.4718   -2.3847 C   0  0  0  0  0  0  0  0  0  0  0  0
   -1.6860   -6.1485   -1.1331 C   0  0  0  0  0  0  0  0  0  0  0  0
   -1.6056   -4.8541   -0.1934 N   0  0  0  0  0  0  0  0  0  0  0  0
   -2.1182   -3.6666   -0.9961 C   0  0  0  0  0  0  0  0  0  0  0  0
   -2.6347   -5.1508    0.9152 C   0  0  0  0  0  0  0  0  0  0  0  0
   -0.2010   -4.7249    0.3477 C   0  0  0  0  0  0  0  0  0  0  0  0
    0.1950   -3.6114    1.2979 N   0  0  0  0  0  0  0  0  0  0  0  0
   -0.9959   -2.7615    1.7626 C   0  0  0  0  0  0  0  0  0  0  0  0
    1.0308   -4.0131    2.4995 C   0  0  0  0  0  0  0  0  0  0  0  0
    1.0896   -2.6388    0.4645 C   0  0  0  0  0  0  0  0  0  0  0  0
 12 13  1  0
 13  6  1  0
  6  7  2  0
  7  8  1  0
  8  9  2  0
  9  3  1  0
  3  4  2  0
  3  5  2  0
  3  1  1  0
  1 14  1  0
 14 15  1  0
 14 16  1  0
 16 17  1  0
 17 18  1  0
 17 19  1  0
 17 20  1  0
 20 21  1  0
 21 22  1  0
 21 23  1  0
 21 24  1  0
  9 10  1  0
 10 11  2  0
 11  6  1  0
  1  2  1  0
M  CHG 1  17   1
M  CHG 1  21   1
M  END
> <minimizedAffinity>
-5.69646

> <CNNscore>
0.5560898185

> <CNNaffinity>
4.6130824089

> <CNN_VS>
2.5652880669

> <CNNaffinity_variance>
0.4675403535

$$$$



 24 24  0  0  0  0  0  0  0  0999 V2000
   -1.4148   -4.5546   -3.9275 N   0  0  0  0  0  0  0  0  0  0  0  0
   -0.7864   -5.2575   -3.5383 H   0  0  0  0  0  0  0  0  0  0  0  0
   -0.9925   -4.3799   -5.5420 S   0  0  0  0  0  0  0  0  0  0  0  0
   -1.0001   -2.9655   -5.8022 O   0  0  0  0  0  0  0  0  0  0  0  0
    0.1881   -5.2027   -5.7097 O   0  0  0  0  0  0  0  0  0  0  0  0
   -4.5011   -6.3252   -7.7052 C   0  0  0  0  0  0  0  0  0  0  0  0
   -3.3279   -6.0193   -8.4007 C   0  0  0  0  0  0  0  0  0  0  0  0
   -2.2499   -5.4282   -7.7337 C   0  0  0  0  0  0  0  0  0  0  0  0
   -2.3546   -5.1406   -6.3694 C   0  0  0  0  0  0  0  0  0  0  0  0
   -3.5156   -5.4552   -5.6616 C   0  0  0  0  0  0  0  0  0  0  0  0
   -4.5871   -6.0400   -6.3384 C   0  0  0  0  0  0  0  0  0  0  0  0
   -5.7598   -6.8500   -9.6570 C   0  0  0  0  0  0  0  0  0  0  0  0
   -5.6281   -6.8872   -8.2379 O   0  0  0  0  0  0  0  0  0  0  0  0
   -1.3824   -3.4122   -3.0076 C   0  0  0  0  0  0  0  0  0  0  0  0
    0.0893   -3.0587   -2.7813 C   0  0  0  0  0  0  0  0  0  0  0  0
   -2.0889   -3.7913   -1.6640 C   0  0  0  0  0  0  0  0  0  0  0  0
   -1.4477   -4.9980   -0.8287 N   0  0  0  0  0  0  0  0  0  0  0  0
   -0.8310   -5.9726   -1.8222 C   0  0  0  0  0  0  0  0  0  0  0  0
   -0.2967   -4.3264   -0.0538 C   0  0  0  0  0  0  0  0  0  0  0  0
   -2.4990   -5.5737    0.0909 C   0  0  0  0  0  0  0  0  0  0  0  0
   -2.1452   -6.5122    1.2283 N   0  0  0  0  0  0  0  0  0  0  0  0
   -1.2839   -7.7027    0.7837 C   0  0  0  0  0  0  0  0  0  0  0  0
   -1.5334   -5.8771    2.4637 C   0  0  0  0  0  0  0  0  0  0  0  0
   -3.4966   -7.1396    1.6983 C   0  0  0  0  0  0  0  0  0  0  0  0
 12 13  1  0
 13  6  1  0
  6  7  2  0
  7  8  1  0
  8  9  2  0
  9  3  1  0
  3  4  2  0
  3  5  2  0
  3  1  1  0
  1 14  1  0
 14 15  1  0
 14 16  1  0
 16 17  1  0
 17 18  1  0
 17 19  1  0
 17 20  1  0
 20 21  1  0
 21 22  1  0
 21 23  1  0
 21 24  1  0
  9 10  1  0
 10 11  2  0
 11  6  1  0
  1  2  1  0
M  CHG 1  17   1
M  CHG 1  21   1
M  END
> <minimizedAffinity>
-6.02961

> <CNNscore>
0.5459563732

> <CNNaffinity>
5.2230181694

> <CNN_VS>
2.8515400887

> <CNNaffinity_variance>
0.3257625401

$$$$
