


 30 32  0  0  0  0  0  0  0  0999 V2000
   -5.1058    8.5507   13.8771 N   0  0  0  0  0  0  0  0  0  0  0  0
   -3.9232    7.9889   14.3165 C   0  0  0  0  0  0  0  0  0  0  0  0
   -4.2315    6.8378   14.9953 C   0  0  0  0  0  0  0  0  0  0  0  0
   -5.6429    6.7522   14.9269 C   0  0  0  0  0  0  0  0  0  0  0  0
   -6.1656    7.7910   14.2509 N   0  0  0  0  0  0  0  0  0  0  0  0
   -7.2477   12.2796   15.1431 C   0  0  0  0  0  0  0  0  0  0  0  0
   -7.4090   13.2775   14.1966 C   0  0  0  0  0  0  0  0  0  0  0  0
   -6.8539   13.1166   12.9282 C   0  0  0  0  0  0  0  0  0  0  0  0
   -6.1437   11.9564   12.5782 C   0  0  0  0  0  0  0  0  0  0  0  0
   -5.5833   11.8806   11.2972 C   0  0  0  0  0  0  0  0  0  0  0  0
   -4.8570   10.7650   10.9079 C   0  0  0  0  0  0  0  0  0  0  0  0
   -4.1083   10.6936    9.1725 Br  0  0  0  0  0  0  0  0  0  0  0  0
   -4.6903    9.6946   11.7766 C   0  0  0  0  0  0  0  0  0  0  0  0
   -5.2583    9.7259   13.0670 C   0  0  0  0  0  0  0  0  0  0  0  0
   -5.9862   10.8898   13.5056 C   0  0  0  0  0  0  0  0  0  0  0  0
   -6.5434   11.1181   14.7973 C   0  0  0  0  0  0  0  0  0  0  0  0
   -8.7151   11.3535   16.7694 C   0  0  0  0  0  0  0  0  0  0  0  0
   -7.7150   12.3053   16.4287 O   0  0  0  0  0  0  0  0  0  0  0  0
   -3.3766    5.9441   15.6173 N   0  0  0  0  0  0  0  0  0  0  0  0
   -2.0207    6.0805   15.7277 C   0  0  0  0  0  0  0  0  0  0  0  0
   -1.4473    5.0246   16.3739 N   0  0  0  0  0  0  0  0  0  0  0  0
   -1.3253    7.0060   15.3326 O   0  0  0  0  0  0  0  0  0  0  0  0
   -3.7807    5.1394   16.0152 H   0  0  0  0  0  0  0  0  0  0  0  0
   -2.0067    4.2795   16.6920 H   0  0  0  0  0  0  0  0  0  0  0  0
   -0.4742    5.0076   16.5221 H   0  0  0  0  0  0  0  0  0  0  0  0
   -6.4854    5.6951   15.4962 C   0  0  0  0  0  0  0  0  0  0  0  0
   -7.8002    5.7561   15.1294 N   0  0  0  0  0  0  0  0  0  0  0  0
   -6.0567    4.8183   16.2416 O   0  0  0  0  0  0  0  0  0  0  0  0
   -8.1113    6.4724   14.5300 H   0  0  0  0  0  0  0  0  0  0  0  0
   -8.4364    5.0836   15.4646 H   0  0  0  0  0  0  0  0  0  0  0  0
 17 18  1  0
 18  6  1  0
  6  7  2  0
  7  8  1  0
  8  9  2  0
  9 10  1  0
 10 11  2  0
 11 12  1  0
 11 13  1  0
 13 14  2  0
 14  1  1  0
  1  2  1  0
  2  3  2  0
  3 19  1  0
 19 20  1  0
 20 21  1  0
 20 22  2  0
  3  4  1  0
  4 26  1  0
 26 27  1  0
 26 28  2  0
  4  5  2  0
 14 15  1  0
 15 16  2  0
 16  6  1  0
 15  9  1  0
  5  1  1  0
 19 23  1  0
 21 24  1  0
 21 25  1  0
 27 29  1  0
 27 30  1  0
M  END
> <minimizedAffinity>
-10.68917

> <CNNscore>
0.9780508876

> <CNNaffinity>
7.9112477303

> <CNN_VS>
7.7376027107

> <CNNaffinity_variance>
0.0072764507

$$$$



 30 32  0  0  0  0  0  0  0  0999 V2000
   -5.6720    8.8589   14.5934 N   0  0  0  0  0  0  0  0  0  0  0  0
   -6.3038    7.6536   14.8286 C   0  0  0  0  0  0  0  0  0  0  0  0
   -5.3412    6.6783   14.8833 C   0  0  0  0  0  0  0  0  0  0  0  0
   -4.1232    7.3690   14.6750 C   0  0  0  0  0  0  0  0  0  0  0  0
   -4.3297    8.6864   14.4991 N   0  0  0  0  0  0  0  0  0  0  0  0
   -5.5082   11.5904   11.0426 C   0  0  0  0  0  0  0  0  0  0  0  0
   -6.0444   12.8591   11.1861 C   0  0  0  0  0  0  0  0  0  0  0  0
   -6.6615   13.2119   12.3851 C   0  0  0  0  0  0  0  0  0  0  0  0
   -6.7415   12.3144   13.4627 C   0  0  0  0  0  0  0  0  0  0  0  0
   -7.4081   12.7263   14.6232 C   0  0  0  0  0  0  0  0  0  0  0  0
   -7.5313   11.8721   15.7089 C   0  0  0  0  0  0  0  0  0  0  0  0
   -8.4413   12.4554   17.2611 Br  0  0  0  0  0  0  0  0  0  0  0  0
   -6.9772   10.5994   15.6704 C   0  0  0  0  0  0  0  0  0  0  0  0
   -6.2801   10.1575   14.5269 C   0  0  0  0  0  0  0  0  0  0  0  0
   -6.1710   11.0148   13.3737 C   0  0  0  0  0  0  0  0  0  0  0  0
   -5.5818   10.6927   12.1166 C   0  0  0  0  0  0  0  0  0  0  0  0
   -3.6872   10.3708   10.1193 C   0  0  0  0  0  0  0  0  0  0  0  0
   -4.8943   11.0969    9.9240 O   0  0  0  0  0  0  0  0  0  0  0  0
   -5.4972    5.3187   15.0921 N   0  0  0  0  0  0  0  0  0  0  0  0
   -6.3345    4.7416   16.0060 C   0  0  0  0  0  0  0  0  0  0  0  0
   -6.2508    3.3799   15.9942 N   0  0  0  0  0  0  0  0  0  0  0  0
   -7.1051    5.2999   16.7747 O   0  0  0  0  0  0  0  0  0  0  0  0
   -4.9577    4.7139   14.5331 H   0  0  0  0  0  0  0  0  0  0  0  0
   -5.6307    2.9302   15.3756 H   0  0  0  0  0  0  0  0  0  0  0  0
   -6.8104    2.8470   16.6041 H   0  0  0  0  0  0  0  0  0  0  0  0
   -2.7783    6.7844   14.6445 C   0  0  0  0  0  0  0  0  0  0  0  0
   -2.4637    6.0239   15.7353 N   0  0  0  0  0  0  0  0  0  0  0  0
   -1.9893    6.9542   13.7190 O   0  0  0  0  0  0  0  0  0  0  0  0
   -3.1197    5.9079   16.4603 H   0  0  0  0  0  0  0  0  0  0  0  0
   -1.5812    5.5919   15.7963 H   0  0  0  0  0  0  0  0  0  0  0  0
 17 18  1  0
 18  6  1  0
  6  7  2  0
  7  8  1  0
  8  9  2  0
  9 10  1  0
 10 11  2  0
 11 12  1  0
 11 13  1  0
 13 14  2  0
 14  1  1  0
  1  2  1  0
  2  3  2  0
  3 19  1  0
 19 20  1  0
 20 21  1  0
 20 22  2  0
  3  4  1  0
  4 26  1  0
 26 27  1  0
 26 28  2  0
  4  5  2  0
 14 15  1  0
 15 16  2  0
 16  6  1  0
 15  9  1  0
  5  1  1  0
 19 23  1  0
 21 24  1  0
 21 25  1  0
 27 29  1  0
 27 30  1  0
M  END
> <minimizedAffinity>
-9.89303

> <CNNscore>
0.9735877514

> <CNNaffinity>
8.0814714432

> <CNN_VS>
7.8680214882

> <CNNaffinity_variance>
0.0975175500

$$$$



 30 32  0  0  0  0  0  0  0  0999 V2000
   -4.5506    8.4910   13.8105 N   0  0  0  0  0  0  0  0  0  0  0  0
   -5.4146    7.5259   14.2894 C   0  0  0  0  0  0  0  0  0  0  0  0
   -4.6850    6.6495   15.0513 C   0  0  0  0  0  0  0  0  0  0  0  0
   -3.3617    7.1495   14.9988 C   0  0  0  0  0  0  0  0  0  0  0  0
   -3.2866    8.2619   14.2464 N   0  0  0  0  0  0  0  0  0  0  0  0
   -7.0790   11.9097   15.2300 C   0  0  0  0  0  0  0  0  0  0  0  0
   -7.4104   12.8870   14.3065 C   0  0  0  0  0  0  0  0  0  0  0  0
   -6.9022   12.8078   13.0110 C   0  0  0  0  0  0  0  0  0  0  0  0
   -6.0700   11.7492   12.6112 C   0  0  0  0  0  0  0  0  0  0  0  0
   -5.5679   11.7550   11.3040 C   0  0  0  0  0  0  0  0  0  0  0  0
   -4.7273   10.7432   10.8647 C   0  0  0  0  0  0  0  0  0  0  0  0
   -4.0614   10.7809    9.0948 Br  0  0  0  0  0  0  0  0  0  0  0  0
   -4.3853    9.6952   11.7092 C   0  0  0  0  0  0  0  0  0  0  0  0
   -4.8889    9.6441   13.0255 C   0  0  0  0  0  0  0  0  0  0  0  0
   -5.7348   10.7035   13.5147 C   0  0  0  0  0  0  0  0  0  0  0  0
   -6.2523   10.8491   14.8346 C   0  0  0  0  0  0  0  0  0  0  0  0
   -8.6649   11.1291   16.8209 C   0  0  0  0  0  0  0  0  0  0  0  0
   -7.4823   11.8659   16.5366 O   0  0  0  0  0  0  0  0  0  0  0  0
   -5.1184    5.5225   15.7283 N   0  0  0  0  0  0  0  0  0  0  0  0
   -6.1882    4.7446   15.3821 C   0  0  0  0  0  0  0  0  0  0  0  0
   -6.3819    3.7156   16.2568 N   0  0  0  0  0  0  0  0  0  0  0  0
   -6.9308    4.8760   14.4189 O   0  0  0  0  0  0  0  0  0  0  0  0
   -4.6117    5.2577   16.5297 H   0  0  0  0  0  0  0  0  0  0  0  0
   -5.7845    3.6095   17.0321 H   0  0  0  0  0  0  0  0  0  0  0  0
   -7.1191    3.0792   16.1127 H   0  0  0  0  0  0  0  0  0  0  0  0
   -2.1821    6.5777   15.6569 C   0  0  0  0  0  0  0  0  0  0  0  0
   -2.4628    5.6847   16.6523 N   0  0  0  0  0  0  0  0  0  0  0  0
   -1.0296    6.8673   15.3470 O   0  0  0  0  0  0  0  0  0  0  0  0
   -3.3983    5.4748   16.8758 H   0  0  0  0  0  0  0  0  0  0  0  0
   -1.7296    5.2513   17.1459 H   0  0  0  0  0  0  0  0  0  0  0  0
 17 18  1  0
 18  6  1  0
  6  7  2  0
  7  8  1  0
  8  9  2  0
  9 10  1  0
 10 11  2  0
 11 12  1  0
 11 13  1  0
 13 14  2  0
 14  1  1  0
  1  2  1  0
  2  3  2  0
  3 19  1  0
 19 20  1  0
 20 21  1  0
 20 22  2  0
  3  4  1  0
  4 26  1  0
 26 27  1  0
 26 28  2  0
  4  5  2  0
 14 15  1  0
 15 16  2  0
 16  6  1  0
 15  9  1  0
  5  1  1  0
 19 23  1  0
 21 24  1  0
 21 25  1  0
 27 29  1  0
 27 30  1  0
M  END
> <minimizedAffinity>
-9.73262

> <CNNscore>
0.9702410102

> <CNNaffinity>
7.8131866455

> <CNN_VS>
7.5806741714

> <CNNaffinity_variance>
0.0535008758

$$$$



 30 32  0  0  0  0  0  0  0  0999 V2000
   -5.4597    8.7341   14.4048 N   0  0  0  0  0  0  0  0  0  0  0  0
   -6.1726    7.5741   14.6361 C   0  0  0  0  0  0  0  0  0  0  0  0
   -5.2717    6.5659   14.8659 C   0  0  0  0  0  0  0  0  0  0  0  0
   -4.0055    7.1906   14.7633 C   0  0  0  0  0  0  0  0  0  0  0  0
   -4.1256    8.5007   14.4833 N   0  0  0  0  0  0  0  0  0  0  0  0
   -8.0774   10.9548   17.2877 C   0  0  0  0  0  0  0  0  0  0  0  0
   -8.6049   12.1656   16.8710 C   0  0  0  0  0  0  0  0  0  0  0  0
   -8.2575   12.6712   15.6194 C   0  0  0  0  0  0  0  0  0  0  0  0
   -7.3932   11.9743   14.7589 C   0  0  0  0  0  0  0  0  0  0  0  0
   -7.0606   12.5611   13.5318 C   0  0  0  0  0  0  0  0  0  0  0  0
   -6.1970   11.9234   12.6538 C   0  0  0  0  0  0  0  0  0  0  0  0
   -5.7630   12.7432   11.0055 Br  0  0  0  0  0  0  0  0  0  0  0  0
   -5.6628   10.6809   12.9690 C   0  0  0  0  0  0  0  0  0  0  0  0
   -5.9918   10.0492   14.1862 C   0  0  0  0  0  0  0  0  0  0  0  0
   -6.8585   10.7097   15.1294 C   0  0  0  0  0  0  0  0  0  0  0  0
   -7.2179   10.2536   16.4309 C   0  0  0  0  0  0  0  0  0  0  0  0
   -9.6322    9.8856   18.7352 C   0  0  0  0  0  0  0  0  0  0  0  0
   -8.3092   10.3464   18.4910 O   0  0  0  0  0  0  0  0  0  0  0  0
   -5.5171    5.2309   15.1375 N   0  0  0  0  0  0  0  0  0  0  0  0
   -6.3969    4.7538   16.0691 C   0  0  0  0  0  0  0  0  0  0  0  0
   -6.4015    3.3905   16.1230 N   0  0  0  0  0  0  0  0  0  0  0  0
   -7.1352    5.3969   16.8022 O   0  0  0  0  0  0  0  0  0  0  0  0
   -5.0138    4.5664   14.6137 H   0  0  0  0  0  0  0  0  0  0  0  0
   -5.8074    2.8725   15.5331 H   0  0  0  0  0  0  0  0  0  0  0  0
   -6.9990    2.9247   16.7517 H   0  0  0  0  0  0  0  0  0  0  0  0
   -2.6964    6.5506   14.9306 C   0  0  0  0  0  0  0  0  0  0  0  0
   -2.5291    5.9001   16.1205 N   0  0  0  0  0  0  0  0  0  0  0  0
   -1.8136    6.5864   14.0776 O   0  0  0  0  0  0  0  0  0  0  0  0
   -3.2573    5.8906   16.7830 H   0  0  0  0  0  0  0  0  0  0  0  0
   -1.6804    5.4408   16.3154 H   0  0  0  0  0  0  0  0  0  0  0  0
 17 18  1  0
 18  6  1  0
  6  7  2  0
  7  8  1  0
  8  9  2  0
  9 10  1  0
 10 11  2  0
 11 12  1  0
 11 13  1  0
 13 14  2  0
 14  1  1  0
  1  2  1  0
  2  3  2  0
  3 19  1  0
 19 20  1  0
 20 21  1  0
 20 22  2  0
  3  4  1  0
  4 26  1  0
 26 27  1  0
 26 28  2  0
  4  5  2  0
 14 15  1  0
 15 16  2  0
 16  6  1  0
 15  9  1  0
  5  1  1  0
 19 23  1  0
 21 24  1  0
 21 25  1  0
 27 29  1  0
 27 30  1  0
M  END
> <minimizedAffinity>
-8.51524

> <CNNscore>
0.9409601688

> <CNNaffinity>
7.6902718544

> <CNN_VS>
7.2362394333

> <CNNaffinity_variance>
0.0242593344

$$$$



 30 32  0  0  0  0  0  0  0  0999 V2000
   -5.9454    8.4049   14.9743 N   0  0  0  0  0  0  0  0  0  0  0  0
   -4.6377    7.9612   14.9934 C   0  0  0  0  0  0  0  0  0  0  0  0
   -4.6550    6.6134   15.2468 C   0  0  0  0  0  0  0  0  0  0  0  0
   -6.0283    6.2925   15.3690 C   0  0  0  0  0  0  0  0  0  0  0  0
   -6.8031    7.3796   15.2046 N   0  0  0  0  0  0  0  0  0  0  0  0
   -4.9755   10.6868   11.2397 C   0  0  0  0  0  0  0  0  0  0  0  0
   -5.3999   12.0029   11.1655 C   0  0  0  0  0  0  0  0  0  0  0  0
   -6.1547   12.5404   12.2069 C   0  0  0  0  0  0  0  0  0  0  0  0
   -6.4856   11.7825   13.3423 C   0  0  0  0  0  0  0  0  0  0  0  0
   -7.2773   12.3779   14.3319 C   0  0  0  0  0  0  0  0  0  0  0  0
   -7.6477   11.6674   15.4639 C   0  0  0  0  0  0  0  0  0  0  0  0
   -8.7216   12.4974   16.7812 Br  0  0  0  0  0  0  0  0  0  0  0  0
   -7.2220   10.3580   15.6444 C   0  0  0  0  0  0  0  0  0  0  0  0
   -6.4057    9.7322   14.6795 C   0  0  0  0  0  0  0  0  0  0  0  0
   -6.0386   10.4393   13.4786 C   0  0  0  0  0  0  0  0  0  0  0  0
   -5.2995    9.9278   12.3726 C   0  0  0  0  0  0  0  0  0  0  0  0
   -4.1956   10.6017    8.9946 C   0  0  0  0  0  0  0  0  0  0  0  0
   -4.2499   10.0196   10.2909 O   0  0  0  0  0  0  0  0  0  0  0  0
   -3.5868    5.7407   15.3634 N   0  0  0  0  0  0  0  0  0  0  0  0
   -2.2830    6.0969   15.5699 C   0  0  0  0  0  0  0  0  0  0  0  0
   -1.4541    5.0142   15.6172 N   0  0  0  0  0  0  0  0  0  0  0  0
   -1.8268    7.2226   15.7144 O   0  0  0  0  0  0  0  0  0  0  0  0
   -3.7832    4.7787   15.2912 H   0  0  0  0  0  0  0  0  0  0  0  0
   -1.8209    4.1080   15.5010 H   0  0  0  0  0  0  0  0  0  0  0  0
   -0.4892    5.1391   15.7675 H   0  0  0  0  0  0  0  0  0  0  0  0
   -6.5982    4.9679   15.6378 C   0  0  0  0  0  0  0  0  0  0  0  0
   -6.7355    4.1732   14.5347 N   0  0  0  0  0  0  0  0  0  0  0  0
   -6.9274    4.5895   16.7587 O   0  0  0  0  0  0  0  0  0  0  0  0
   -6.4616    4.5074   13.6501 H   0  0  0  0  0  0  0  0  0  0  0  0
   -7.1083    3.2665   14.6246 H   0  0  0  0  0  0  0  0  0  0  0  0
 17 18  1  0
 18  6  1  0
  6  7  2  0
  7  8  1  0
  8  9  2  0
  9 10  1  0
 10 11  2  0
 11 12  1  0
 11 13  1  0
 13 14  2  0
 14  1  1  0
  1  2  1  0
  2  3  2  0
  3 19  1  0
 19 20  1  0
 20 21  1  0
 20 22  2  0
  3  4  1  0
  4 26  1  0
 26 27  1  0
 26 28  2  0
  4  5  2  0
 14 15  1  0
 15 16  2  0
 16  6  1  0
 15  9  1  0
  5  1  1  0
 19 23  1  0
 21 24  1  0
 21 25  1  0
 27 29  1  0
 27 30  1  0
M  END
> <minimizedAffinity>
-8.20329

> <CNNscore>
0.9266069531

> <CNNaffinity>
7.6944122314

> <CNN_VS>
7.1296958923

> <CNNaffinity_variance>
0.0489144959

$$$$



 30 32  0  0  0  0  0  0  0  0999 V2000
   -5.9838    8.4237   14.3348 N   0  0  0  0  0  0  0  0  0  0  0  0
   -5.1724    7.3061   14.3253 C   0  0  0  0  0  0  0  0  0  0  0  0
   -5.7246    6.3788   15.1715 C   0  0  0  0  0  0  0  0  0  0  0  0
   -6.8937    7.0032   15.6688 C   0  0  0  0  0  0  0  0  0  0  0  0
   -7.0443    8.2393   15.1605 N   0  0  0  0  0  0  0  0  0  0  0  0
   -7.5153   12.4779   15.4806 C   0  0  0  0  0  0  0  0  0  0  0  0
   -7.3881   13.4962   14.5508 C   0  0  0  0  0  0  0  0  0  0  0  0
   -6.7427   13.2445   13.3412 C   0  0  0  0  0  0  0  0  0  0  0  0
   -6.2281   11.9744   13.0328 C   0  0  0  0  0  0  0  0  0  0  0  0
   -5.5604   11.8054   11.8136 C   0  0  0  0  0  0  0  0  0  0  0  0
   -5.0176   10.5765   11.4690 C   0  0  0  0  0  0  0  0  0  0  0  0
   -4.1175   10.3802    9.8172 Br  0  0  0  0  0  0  0  0  0  0  0  0
   -5.1450    9.4866   12.3200 C   0  0  0  0  0  0  0  0  0  0  0  0
   -5.8293    9.6133   13.5465 C   0  0  0  0  0  0  0  0  0  0  0  0
   -6.3699   10.8896   13.9413 C   0  0  0  0  0  0  0  0  0  0  0  0
   -7.0072   11.2077   15.1757 C   0  0  0  0  0  0  0  0  0  0  0  0
   -7.7481   11.5977   17.6776 C   0  0  0  0  0  0  0  0  0  0  0  0
   -8.1019   12.5803   16.7124 O   0  0  0  0  0  0  0  0  0  0  0  0
   -5.2636    5.1123   15.4874 N   0  0  0  0  0  0  0  0  0  0  0  0
   -5.7935    3.9343   15.0390 C   0  0  0  0  0  0  0  0  0  0  0  0
   -5.1376    2.8492   15.5427 N   0  0  0  0  0  0  0  0  0  0  0  0
   -6.7339    3.7785   14.2723 O   0  0  0  0  0  0  0  0  0  0  0  0
   -4.4856    5.0546   16.0879 H   0  0  0  0  0  0  0  0  0  0  0  0
   -4.3808    2.9742   16.1597 H   0  0  0  0  0  0  0  0  0  0  0  0
   -5.4212    1.9412   15.2891 H   0  0  0  0  0  0  0  0  0  0  0  0
   -7.8575    6.4316   16.6153 C   0  0  0  0  0  0  0  0  0  0  0  0
   -8.8928    7.2608   16.9434 N   0  0  0  0  0  0  0  0  0  0  0  0
   -7.7560    5.2999   17.0812 O   0  0  0  0  0  0  0  0  0  0  0  0
   -8.9444    8.1625   16.5517 H   0  0  0  0  0  0  0  0  0  0  0  0
   -9.5872    6.9564   17.5715 H   0  0  0  0  0  0  0  0  0  0  0  0
 17 18  1  0
 18  6  1  0
  6  7  2  0
  7  8  1  0
  8  9  2  0
  9 10  1  0
 10 11  2  0
 11 12  1  0
 11 13  1  0
 13 14  2  0
 14  1  1  0
  1  2  1  0
  2  3  2  0
  3 19  1  0
 19 20  1  0
 20 21  1  0
 20 22  2  0
  3  4  1  0
  4 26  1  0
 26 27  1  0
 26 28  2  0
  4  5  2  0
 14 15  1  0
 15 16  2  0
 16  6  1  0
 15  9  1  0
  5  1  1  0
 19 23  1  0
 21 24  1  0
 21 25  1  0
 27 29  1  0
 27 30  1  0
M  END
> <minimizedAffinity>
-7.19129

> <CNNscore>
0.5819329619

> <CNNaffinity>
7.2308869362

> <CNN_VS>
4.2078914642

> <CNNaffinity_variance>
0.0138081312

$$$$



 30 32  0  0  0  0  0  0  0  0999 V2000
   -6.5979    9.1141   14.7007 N   0  0  0  0  0  0  0  0  0  0  0  0
   -7.3760    9.7886   15.6210 C   0  0  0  0  0  0  0  0  0  0  0  0
   -8.0291    8.8545   16.3839 C   0  0  0  0  0  0  0  0  0  0  0  0
   -7.5933    7.6092   15.8709 C   0  0  0  0  0  0  0  0  0  0  0  0
   -6.7295    7.7726   14.8530 N   0  0  0  0  0  0  0  0  0  0  0  0
   -2.4216    7.6767   13.9344 C   0  0  0  0  0  0  0  0  0  0  0  0
   -1.6396    8.4173   13.0639 C   0  0  0  0  0  0  0  0  0  0  0  0
   -2.1895    9.5245   12.4199 C   0  0  0  0  0  0  0  0  0  0  0  0
   -3.5189    9.9196   12.6431 C   0  0  0  0  0  0  0  0  0  0  0  0
   -4.0136   11.0207   11.9334 C   0  0  0  0  0  0  0  0  0  0  0  0
   -5.3245   11.4406   12.1031 C   0  0  0  0  0  0  0  0  0  0  0  0
   -5.9653   12.9285   11.1270 Br  0  0  0  0  0  0  0  0  0  0  0  0
   -6.1634   10.7871   12.9961 C   0  0  0  0  0  0  0  0  0  0  0  0
   -5.6941    9.6877   13.7444 C   0  0  0  0  0  0  0  0  0  0  0  0
   -4.3466    9.2118   13.5575 C   0  0  0  0  0  0  0  0  0  0  0  0
   -3.7474    8.0695   14.1636 C   0  0  0  0  0  0  0  0  0  0  0  0
   -2.7830    6.2121   15.7728 C   0  0  0  0  0  0  0  0  0  0  0  0
   -2.0283    6.5592   14.6187 O   0  0  0  0  0  0  0  0  0  0  0  0
   -8.9191    9.0560   17.4248 N   0  0  0  0  0  0  0  0  0  0  0  0
   -9.0262   10.1935   18.1757 C   0  0  0  0  0  0  0  0  0  0  0  0
   -9.9795   10.0833   19.1455 N   0  0  0  0  0  0  0  0  0  0  0  0
   -8.3919   11.2328   18.0575 O   0  0  0  0  0  0  0  0  0  0  0  0
   -9.5289    8.3147   17.6437 H   0  0  0  0  0  0  0  0  0  0  0  0
  -10.4902    9.2470   19.2409 H   0  0  0  0  0  0  0  0  0  0  0  0
  -10.1567   10.8400   19.7498 H   0  0  0  0  0  0  0  0  0  0  0  0
   -7.9921    6.2790   16.3432 C   0  0  0  0  0  0  0  0  0  0  0  0
   -7.3311    5.2420   15.7475 N   0  0  0  0  0  0  0  0  0  0  0  0
   -8.8475    6.0972   17.2054 O   0  0  0  0  0  0  0  0  0  0  0  0
   -6.6505    5.4225   15.0594 H   0  0  0  0  0  0  0  0  0  0  0  0
   -7.5354    4.3144   16.0063 H   0  0  0  0  0  0  0  0  0  0  0  0
 17 18  1  0
 18  6  1  0
  6  7  2  0
  7  8  1  0
  8  9  2  0
  9 10  1  0
 10 11  2  0
 11 12  1  0
 11 13  1  0
 13 14  2  0
 14  1  1  0
  1  2  1  0
  2  3  2  0
  3 19  1  0
 19 20  1  0
 20 21  1  0
 20 22  2  0
  3  4  1  0
  4 26  1  0
 26 27  1  0
 26 28  2  0
  4  5  2  0
 14 15  1  0
 15 16  2  0
 16  6  1  0
 15  9  1  0
  5  1  1  0
 19 23  1  0
 21 24  1  0
 21 25  1  0
 27 29  1  0
 27 30  1  0
M  END
> <minimizedAffinity>
-6.41754

> <CNNscore>
0.5240635872

> <CNNaffinity>
7.1021862030

> <CNN_VS>
3.7219972610

> <CNNaffinity_variance>
0.1014663577

$$$$



 30 32  0  0  0  0  0  0  0  0999 V2000
  -13.6053    0.5429    6.4181 N   0  0  0  0  0  0  0  0  0  0  0  0
  -14.0822    0.6444    7.7102 C   0  0  0  0  0  0  0  0  0  0  0  0
  -13.6069   -0.4292    8.4191 C   0  0  0  0  0  0  0  0  0  0  0  0
  -12.8296   -1.1556    7.4853 C   0  0  0  0  0  0  0  0  0  0  0  0
  -12.8335   -0.5638    6.2774 N   0  0  0  0  0  0  0  0  0  0  0  0
  -12.5791    4.9020    6.6175 C   0  0  0  0  0  0  0  0  0  0  0  0
  -12.9370    5.6936    5.5391 C   0  0  0  0  0  0  0  0  0  0  0  0
  -13.5336    5.1063    4.4246 C   0  0  0  0  0  0  0  0  0  0  0  0
  -13.7959    3.7274    4.3722 C   0  0  0  0  0  0  0  0  0  0  0  0
  -14.3646    3.2024    3.2053 C   0  0  0  0  0  0  0  0  0  0  0  0
  -14.6266    1.8449    3.0950 C   0  0  0  0  0  0  0  0  0  0  0  0
  -15.3911    1.1647    1.5044 Br  0  0  0  0  0  0  0  0  0  0  0  0
  -14.3474    0.9856    4.1496 C   0  0  0  0  0  0  0  0  0  0  0  0
  -13.7944    1.4813    5.3485 C   0  0  0  0  0  0  0  0  0  0  0  0
  -13.4805    2.8824    5.4718 C   0  0  0  0  0  0  0  0  0  0  0  0
  -12.8427    3.5261    6.5717 C   0  0  0  0  0  0  0  0  0  0  0  0
  -10.8990    6.2551    7.6187 C   0  0  0  0  0  0  0  0  0  0  0  0
  -11.9701    5.3312    7.7650 O   0  0  0  0  0  0  0  0  0  0  0  0
  -13.8236   -0.7540    9.7472 N   0  0  0  0  0  0  0  0  0  0  0  0
  -13.7471    0.1102   10.8038 C   0  0  0  0  0  0  0  0  0  0  0  0
  -13.9890   -0.5093   11.9951 N   0  0  0  0  0  0  0  0  0  0  0  0
  -13.5057    1.3091   10.7764 O   0  0  0  0  0  0  0  0  0  0  0  0
  -14.0531   -1.6900    9.9486 H   0  0  0  0  0  0  0  0  0  0  0  0
  -14.1833   -1.4742   12.0176 H   0  0  0  0  0  0  0  0  0  0  0  0
  -13.9691    0.0085   12.8322 H   0  0  0  0  0  0  0  0  0  0  0  0
  -12.0905   -2.3971    7.7378 C   0  0  0  0  0  0  0  0  0  0  0  0
  -10.8502   -2.4471    7.1666 N   0  0  0  0  0  0  0  0  0  0  0  0
  -12.5370   -3.3239    8.4084 O   0  0  0  0  0  0  0  0  0  0  0  0
  -10.5223   -1.6863    6.6347 H   0  0  0  0  0  0  0  0  0  0  0  0
  -10.2845   -3.2438    7.2871 H   0  0  0  0  0  0  0  0  0  0  0  0
 17 18  1  0
 18  6  1  0
  6  7  2  0
  7  8  1  0
  8  9  2  0
  9 10  1  0
 10 11  2  0
 11 12  1  0
 11 13  1  0
 13 14  2  0
 14  1  1  0
  1  2  1  0
  2  3  2  0
  3 19  1  0
 19 20  1  0
 20 21  1  0
 20 22  2  0
  3  4  1  0
  4 26  1  0
 26 27  1  0
 26 28  2  0
  4  5  2  0
 14 15  1  0
 15 16  2  0
 16  6  1  0
 15  9  1  0
  5  1  1  0
 19 23  1  0
 21 24  1  0
 21 25  1  0
 27 29  1  0
 27 30  1  0
M  END
> <minimizedAffinity>
-4.52262

> <CNNscore>
0.4733971357

> <CNNaffinity>
5.9757771492

> <CNN_VS>
2.8289158344

> <CNNaffinity_variance>
0.6167320609

$$$$



 30 32  0  0  0  0  0  0  0  0999 V2000
  -11.4309    3.8454   22.0824 N   0  0  0  0  0  0  0  0  0  0  0  0
  -11.5257    4.8927   22.9777 C   0  0  0  0  0  0  0  0  0  0  0  0
  -11.5369    6.0605   22.2586 C   0  0  0  0  0  0  0  0  0  0  0  0
  -11.4499    5.6467   20.9076 C   0  0  0  0  0  0  0  0  0  0  0  0
  -11.3848    4.3070   20.8076 N   0  0  0  0  0  0  0  0  0  0  0  0
  -14.9410    1.6479   23.7985 C   0  0  0  0  0  0  0  0  0  0  0  0
  -14.7576    0.3195   24.1441 C   0  0  0  0  0  0  0  0  0  0  0  0
  -13.5312   -0.2926   23.8907 C   0  0  0  0  0  0  0  0  0  0  0  0
  -12.4659    0.4105   23.3043 C   0  0  0  0  0  0  0  0  0  0  0  0
  -11.2752   -0.2798   23.0466 C   0  0  0  0  0  0  0  0  0  0  0  0
  -10.1995    0.3629   22.4522 C   0  0  0  0  0  0  0  0  0  0  0  0
   -8.6057   -0.5973   22.1126 Br  0  0  0  0  0  0  0  0  0  0  0  0
  -10.2788    1.7090   22.1206 C   0  0  0  0  0  0  0  0  0  0  0  0
  -11.4541    2.4424   22.3846 C   0  0  0  0  0  0  0  0  0  0  0  0
  -12.5967    1.7861   22.9684 C   0  0  0  0  0  0  0  0  0  0  0  0
  -13.8796    2.3549   23.2170 C   0  0  0  0  0  0  0  0  0  0  0  0
  -16.1857    3.5997   23.2532 C   0  0  0  0  0  0  0  0  0  0  0  0
  -16.0893    2.3727   23.9657 O   0  0  0  0  0  0  0  0  0  0  0  0
  -11.6138    7.3623   22.7230 N   0  0  0  0  0  0  0  0  0  0  0  0
  -12.7175    8.1672   22.6655 C   0  0  0  0  0  0  0  0  0  0  0  0
  -12.4787    9.4072   23.1822 N   0  0  0  0  0  0  0  0  0  0  0  0
  -13.8262    7.8900   22.2294 O   0  0  0  0  0  0  0  0  0  0  0  0
  -10.8021    7.7421   23.1305 H   0  0  0  0  0  0  0  0  0  0  0  0
  -11.5866    9.6307   23.5333 H   0  0  0  0  0  0  0  0  0  0  0  0
  -13.1986   10.0784   23.2038 H   0  0  0  0  0  0  0  0  0  0  0  0
  -11.4299    6.5142   19.7250 C   0  0  0  0  0  0  0  0  0  0  0  0
  -10.2266    7.1130   19.4790 N   0  0  0  0  0  0  0  0  0  0  0  0
  -12.4074    6.6949   19.0039 O   0  0  0  0  0  0  0  0  0  0  0  0
   -9.4626    6.9468   20.0772 H   0  0  0  0  0  0  0  0  0  0  0  0
  -10.1237    7.7108   18.7035 H   0  0  0  0  0  0  0  0  0  0  0  0
 17 18  1  0
 18  6  1  0
  6  7  2  0
  7  8  1  0
  8  9  2  0
  9 10  1  0
 10 11  2  0
 11 12  1  0
 11 13  1  0
 13 14  2  0
 14  1  1  0
  1  2  1  0
  2  3  2  0
  3 19  1  0
 19 20  1  0
 20 21  1  0
 20 22  2  0
  3  4  1  0
  4 26  1  0
 26 27  1  0
 26 28  2  0
  4  5  2  0
 14 15  1  0
 15 16  2  0
 16  6  1  0
 15  9  1  0
  5  1  1  0
 19 23  1  0
 21 24  1  0
 21 25  1  0
 27 29  1  0
 27 30  1  0
M  END
> <minimizedAffinity>
-5.25221

> <CNNscore>
0.4288210273

> <CNNaffinity>
5.5739059448

> <CNN_VS>
2.3902080059

> <CNNaffinity_variance>
1.7376524210

$$$$
