


 32 33  0  0  0  0  0  0  0  0999 V2000
  -24.3869    8.4481  -14.2540 C   0  0  0  0  0  0  0  0  0  0  0  0
  -23.3596    9.1615  -13.6160 C   0  0  0  0  0  0  0  0  0  0  0  0
  -22.1689    8.5173  -13.3007 C   0  0  0  0  0  0  0  0  0  0  0  0
  -20.7970    9.4654  -12.4135 Br  0  0  0  0  0  0  0  0  0  0  0  0
  -21.9853    7.1787  -13.6308 C   0  0  0  0  0  0  0  0  0  0  0  0
  -22.9934    6.4778  -14.3040 C   0  0  0  0  0  0  0  0  0  0  0  0
  -24.1988    7.1029  -14.6432 C   0  0  0  0  0  0  0  0  0  0  0  0
  -27.1504    9.4921   -9.8019 C   0  0  0  0  0  0  0  0  0  0  0  0
  -26.5652   10.0909  -11.0808 C   0  0  0  0  0  0  0  0  0  0  0  0
  -27.3122   11.3673  -11.5138 C   0  0  0  0  0  0  0  0  0  0  0  0
  -28.2755   11.1712  -12.6918 C   0  0  0  0  0  0  0  0  0  0  0  0
  -29.5554   10.4379  -12.2810 C   0  0  0  0  0  0  0  0  0  0  0  0
  -27.5807   10.4858  -13.8813 C   0  0  0  0  0  0  0  0  0  0  0  0
  -26.4343    9.6587  -13.5090 N   0  0  0  0  0  0  0  0  0  0  0  0
  -25.6617    9.1516  -14.5568 C   0  0  0  0  0  0  0  0  0  0  0  0
  -25.9878    9.2615  -15.7387 O   0  0  0  0  0  0  0  0  0  0  0  0
  -26.5025    9.0345  -12.1896 C   0  0  0  0  0  0  0  0  0  0  0  0
  -25.2190    6.4483  -15.3747 N   0  0  0  0  0  0  0  0  0  0  0  0
  -26.0985    5.4781  -14.9391 C   0  0  0  0  0  0  0  0  0  0  0  0
  -26.2015    5.0446  -13.7963 O   0  0  0  0  0  0  0  0  0  0  0  0
  -25.3133    6.7204  -16.3161 H   0  0  0  0  0  0  0  0  0  0  0  0
  -27.0035    4.9679  -16.0453 C   0  0  0  0  0  0  0  0  0  0  0  0
  -26.5444    3.6077  -16.5707 C   0  0  0  0  0  0  0  0  0  0  0  0
  -25.4009    3.7742  -17.5819 C   0  0  0  0  0  0  0  0  0  0  0  0
  -25.0627    2.5338  -18.4456 C   0  0  0  0  0  0  0  0  0  0  0  0
  -25.4028    2.7930  -19.9275 C   0  0  0  0  0  0  0  0  0  0  0  0
  -25.9228    1.3252  -17.9927 C   0  0  0  0  0  0  0  0  0  0  0  0
  -23.5679    2.0858  -18.2795 C   0  0  0  0  0  0  0  0  0  0  0  0
  -22.8755    1.0112  -19.1773 C   0  0  0  0  0  0  0  0  0  0  0  0
  -23.5319   -0.3715  -19.1082 C   0  0  0  0  0  0  0  0  0  0  0  0
  -21.4212    0.8637  -18.6620 C   0  0  0  0  0  0  0  0  0  0  0  0
  -22.7788    1.4595  -20.6481 C   0  0  0  0  0  0  0  0  0  0  0  0
  9  8  1  0
  9 10  1  0
 10 11  1  0
 11 12  1  0
 11 13  1  0
 13 14  1  0
 14 15  1  0
 15 16  2  0
 15  1  1  0
  1  2  2  0
  2  3  1  0
  3  4  1  0
  3  5  2  0
  5  6  1  0
  6  7  2  0
  7 18  1  0
 18 19  1  0
 19 20  2  0
 19 22  1  0
 22 23  1  0
 23 24  1  0
 24 25  1  0
 25 26  1  0
 25 27  1  0
 25 28  1  0
 28 29  1  0
 29 30  1  0
 29 31  1  0
 29 32  1  0
 14 17  1  0
 17  9  1  0
  7  1  1  0
 18 21  1  0
M  END
> <minimizedAffinity>
-6.76138

> <CNNscore>
0.8807709813

> <CNNaffinity>
6.8733801842

> <CNN_VS>
6.0538740158

> <CNNaffinity_variance>
0.0203531496

$$$$



 32 33  0  0  0  0  0  0  0  0999 V2000
  -24.0968    9.1557  -14.0693 C   0  0  0  0  0  0  0  0  0  0  0  0
  -22.9459    9.5748  -13.3828 C   0  0  0  0  0  0  0  0  0  0  0  0
  -21.9154    8.6708  -13.1532 C   0  0  0  0  0  0  0  0  0  0  0  0
  -20.3795    9.2224  -12.2018 Br  0  0  0  0  0  0  0  0  0  0  0  0
  -22.0118    7.3627  -13.6161 C   0  0  0  0  0  0  0  0  0  0  0  0
  -23.1412    6.9553  -14.3368 C   0  0  0  0  0  0  0  0  0  0  0  0
  -24.1900    7.8463  -14.5918 C   0  0  0  0  0  0  0  0  0  0  0  0
  -27.8541    8.7114  -10.2967 C   0  0  0  0  0  0  0  0  0  0  0  0
  -26.9153    9.6767  -11.0202 C   0  0  0  0  0  0  0  0  0  0  0  0
  -27.4352   11.1268  -10.9778 C   0  0  0  0  0  0  0  0  0  0  0  0
  -28.0669   11.6139  -12.2884 C   0  0  0  0  0  0  0  0  0  0  0  0
  -29.4560   11.0138  -12.5231 C   0  0  0  0  0  0  0  0  0  0  0  0
  -27.1323   11.3780  -13.4876 C   0  0  0  0  0  0  0  0  0  0  0  0
  -26.1818   10.2835  -13.2991 N   0  0  0  0  0  0  0  0  0  0  0  0
  -25.1974   10.1336  -14.2792 C   0  0  0  0  0  0  0  0  0  0  0  0
  -25.1941   10.7830  -15.3249 O   0  0  0  0  0  0  0  0  0  0  0  0
  -26.6352    9.1877  -12.4456 C   0  0  0  0  0  0  0  0  0  0  0  0
  -25.3215    7.4922  -15.3657 N   0  0  0  0  0  0  0  0  0  0  0  0
  -26.2559    6.5075  -15.1174 C   0  0  0  0  0  0  0  0  0  0  0  0
  -26.3140    5.7880  -14.1257 O   0  0  0  0  0  0  0  0  0  0  0  0
  -25.4596    8.0166  -16.1874 H   0  0  0  0  0  0  0  0  0  0  0  0
  -27.2872    6.3856  -16.2240 C   0  0  0  0  0  0  0  0  0  0  0  0
  -26.7721    6.9589  -17.5442 C   0  0  0  0  0  0  0  0  0  0  0  0
  -27.7656    7.9800  -18.1171 C   0  0  0  0  0  0  0  0  0  0  0  0
  -28.7695    7.4452  -19.1683 C   0  0  0  0  0  0  0  0  0  0  0  0
  -29.0277    8.5020  -20.2616 C   0  0  0  0  0  0  0  0  0  0  0  0
  -30.1355    7.1547  -18.4935 C   0  0  0  0  0  0  0  0  0  0  0  0
  -28.3011    6.0856  -19.7969 C   0  0  0  0  0  0  0  0  0  0  0  0
  -27.7875    5.9353  -21.2644 C   0  0  0  0  0  0  0  0  0  0  0  0
  -27.2366    4.5431  -21.5895 C   0  0  0  0  0  0  0  0  0  0  0  0
  -26.6284    6.9489  -21.4415 C   0  0  0  0  0  0  0  0  0  0  0  0
  -28.8658    6.3137  -22.2978 C   0  0  0  0  0  0  0  0  0  0  0  0
  9  8  1  0
  9 10  1  0
 10 11  1  0
 11 12  1  0
 11 13  1  0
 13 14  1  0
 14 15  1  0
 15 16  2  0
 15  1  1  0
  1  2  2  0
  2  3  1  0
  3  4  1  0
  3  5  2  0
  5  6  1  0
  6  7  2  0
  7 18  1  0
 18 19  1  0
 19 20  2  0
 19 22  1  0
 22 23  1  0
 23 24  1  0
 24 25  1  0
 25 26  1  0
 25 27  1  0
 25 28  1  0
 28 29  1  0
 29 30  1  0
 29 31  1  0
 29 32  1  0
 14 17  1  0
 17  9  1  0
  7  1  1  0
 18 21  1  0
M  END
> <minimizedAffinity>
-6.12448

> <CNNscore>
0.7313782573

> <CNNaffinity>
6.0192852020

> <CNN_VS>
4.4023742676

> <CNNaffinity_variance>
0.0919731259

$$$$



 32 33  0  0  0  0  0  0  0  0999 V2000
  -24.0266    8.6402  -14.2788 C   0  0  0  0  0  0  0  0  0  0  0  0
  -22.9924    9.1280  -13.4640 C   0  0  0  0  0  0  0  0  0  0  0  0
  -21.7420    8.5222  -13.5043 C   0  0  0  0  0  0  0  0  0  0  0  0
  -20.3575    9.1553  -12.3861 Br  0  0  0  0  0  0  0  0  0  0  0  0
  -21.5075    7.4507  -14.3595 C   0  0  0  0  0  0  0  0  0  0  0  0
  -22.5265    6.9901  -15.2024 C   0  0  0  0  0  0  0  0  0  0  0  0
  -23.7924    7.5868  -15.1908 C   0  0  0  0  0  0  0  0  0  0  0  0
  -27.1744    6.1932  -10.7219 C   0  0  0  0  0  0  0  0  0  0  0  0
  -26.5971    7.5371  -11.1661 C   0  0  0  0  0  0  0  0  0  0  0  0
  -27.4803    8.7190  -10.7216 C   0  0  0  0  0  0  0  0  0  0  0  0
  -28.3341    9.3302  -11.8404 C   0  0  0  0  0  0  0  0  0  0  0  0
  -29.5270    8.4448  -12.2117 C   0  0  0  0  0  0  0  0  0  0  0  0
  -27.4817    9.6864  -13.0707 C   0  0  0  0  0  0  0  0  0  0  0  0
  -26.2599    8.8945  -13.2016 N   0  0  0  0  0  0  0  0  0  0  0  0
  -25.3631    9.2875  -14.1983 C   0  0  0  0  0  0  0  0  0  0  0  0
  -25.6275   10.1591  -15.0264 O   0  0  0  0  0  0  0  0  0  0  0  0
  -26.3250    7.5334  -12.6745 C   0  0  0  0  0  0  0  0  0  0  0  0
  -24.8313    7.1906  -16.0673 N   0  0  0  0  0  0  0  0  0  0  0  0
  -24.7261    6.6561  -17.3352 C   0  0  0  0  0  0  0  0  0  0  0  0
  -23.6894    6.3596  -17.9199 O   0  0  0  0  0  0  0  0  0  0  0  0
  -25.7476    7.3122  -15.7282 H   0  0  0  0  0  0  0  0  0  0  0  0
  -26.0765    6.4268  -17.9887 C   0  0  0  0  0  0  0  0  0  0  0  0
  -26.1932    5.0171  -18.5683 C   0  0  0  0  0  0  0  0  0  0  0  0
  -25.2547    4.0487  -17.8340 C   0  0  0  0  0  0  0  0  0  0  0  0
  -24.7693    2.8192  -18.6412 C   0  0  0  0  0  0  0  0  0  0  0  0
  -25.2047    2.9301  -20.1167 C   0  0  0  0  0  0  0  0  0  0  0  0
  -25.4185    1.5282  -18.0777 C   0  0  0  0  0  0  0  0  0  0  0  0
  -23.2186    2.6085  -18.5246 C   0  0  0  0  0  0  0  0  0  0  0  0
  -22.4576    1.3856  -19.1293 C   0  0  0  0  0  0  0  0  0  0  0  0
  -22.1565    1.5201  -20.6255 C   0  0  0  0  0  0  0  0  0  0  0  0
  -23.3752    0.1498  -18.9472 C   0  0  0  0  0  0  0  0  0  0  0  0
  -21.1524    1.0814  -18.3694 C   0  0  0  0  0  0  0  0  0  0  0  0
  9  8  1  0
  9 10  1  0
 10 11  1  0
 11 12  1  0
 11 13  1  0
 13 14  1  0
 14 15  1  0
 15 16  2  0
 15  1  1  0
  1  2  2  0
  2  3  1  0
  3  4  1  0
  3  5  2  0
  5  6  1  0
  6  7  2  0
  7 18  1  0
 18 19  1  0
 19 20  2  0
 19 22  1  0
 22 23  1  0
 23 24  1  0
 24 25  1  0
 25 26  1  0
 25 27  1  0
 25 28  1  0
 28 29  1  0
 29 30  1  0
 29 31  1  0
 29 32  1  0
 14 17  1  0
 17  9  1  0
  7  1  1  0
 18 21  1  0
M  END
> <minimizedAffinity>
-7.08982

> <CNNscore>
0.6679269075

> <CNNaffinity>
6.3799557686

> <CNN_VS>
4.2613439560

> <CNNaffinity_variance>
0.0152058722

$$$$



 32 33  0  0  0  0  0  0  0  0999 V2000
  -24.1934    9.1092  -14.0399 C   0  0  0  0  0  0  0  0  0  0  0  0
  -23.0149    9.5908  -13.4476 C   0  0  0  0  0  0  0  0  0  0  0  0
  -21.9799    8.7086  -13.1607 C   0  0  0  0  0  0  0  0  0  0  0  0
  -20.4059    9.3474  -12.3345 Br  0  0  0  0  0  0  0  0  0  0  0  0
  -22.0997    7.3588  -13.4743 C   0  0  0  0  0  0  0  0  0  0  0  0
  -23.2579    6.8849  -14.1026 C   0  0  0  0  0  0  0  0  0  0  0  0
  -24.3122    7.7516  -14.4127 C   0  0  0  0  0  0  0  0  0  0  0  0
  -27.7253    9.2170  -10.0322 C   0  0  0  0  0  0  0  0  0  0  0  0
  -26.8238   10.0655  -10.9287 C   0  0  0  0  0  0  0  0  0  0  0  0
  -27.3297   11.5163  -11.0470 C   0  0  0  0  0  0  0  0  0  0  0  0
  -28.0339   11.8376  -12.3718 C   0  0  0  0  0  0  0  0  0  0  0  0
  -29.4388   11.2327  -12.4456 C   0  0  0  0  0  0  0  0  0  0  0  0
  -27.1732   11.4334  -13.5813 C   0  0  0  0  0  0  0  0  0  0  0  0
  -26.2213   10.3588  -13.3058 N   0  0  0  0  0  0  0  0  0  0  0  0
  -25.2973   10.0677  -14.3126 C   0  0  0  0  0  0  0  0  0  0  0  0
  -25.3509   10.5750  -15.4329 O   0  0  0  0  0  0  0  0  0  0  0  0
  -26.6315    9.3906  -12.2914 C   0  0  0  0  0  0  0  0  0  0  0  0
  -25.4745    7.3250  -15.0995 N   0  0  0  0  0  0  0  0  0  0  0  0
  -25.6630    7.1823  -16.4591 C   0  0  0  0  0  0  0  0  0  0  0  0
  -24.8186    7.3395  -17.3348 O   0  0  0  0  0  0  0  0  0  0  0  0
  -26.2486    7.1012  -14.5338 H   0  0  0  0  0  0  0  0  0  0  0  0
  -27.0792    6.7685  -16.8143 C   0  0  0  0  0  0  0  0  0  0  0  0
  -27.4960    5.4911  -16.0853 C   0  0  0  0  0  0  0  0  0  0  0  0
  -26.6920    4.2871  -16.5971 C   0  0  0  0  0  0  0  0  0  0  0  0
  -27.5140    3.0514  -17.0400 C   0  0  0  0  0  0  0  0  0  0  0  0
  -28.5979    3.4556  -18.0601 C   0  0  0  0  0  0  0  0  0  0  0  0
  -28.2518    2.4431  -15.8188 C   0  0  0  0  0  0  0  0  0  0  0  0
  -26.6033    1.9065  -17.6079 C   0  0  0  0  0  0  0  0  0  0  0  0
  -25.6713    2.0700  -18.8508 C   0  0  0  0  0  0  0  0  0  0  0  0
  -25.6304    0.8389  -19.7620 C   0  0  0  0  0  0  0  0  0  0  0  0
  -24.2367    2.2986  -18.3105 C   0  0  0  0  0  0  0  0  0  0  0  0
  -26.0313    3.3137  -19.6859 C   0  0  0  0  0  0  0  0  0  0  0  0
  9  8  1  0
  9 10  1  0
 10 11  1  0
 11 12  1  0
 11 13  1  0
 13 14  1  0
 14 15  1  0
 15 16  2  0
 15  1  1  0
  1  2  2  0
  2  3  1  0
  3  4  1  0
  3  5  2  0
  5  6  1  0
  6  7  2  0
  7 18  1  0
 18 19  1  0
 19 20  2  0
 19 22  1  0
 22 23  1  0
 23 24  1  0
 24 25  1  0
 25 26  1  0
 25 27  1  0
 25 28  1  0
 28 29  1  0
 29 30  1  0
 29 31  1  0
 29 32  1  0
 14 17  1  0
 17  9  1  0
  7  1  1  0
 18 21  1  0
M  END
> <minimizedAffinity>
-6.16243

> <CNNscore>
0.6522241831

> <CNNaffinity>
6.2130188942

> <CNN_VS>
4.0522813797

> <CNNaffinity_variance>
0.0322857015

$$$$



 32 33  0  0  0  0  0  0  0  0999 V2000
  -24.5236    6.9856  -13.8242 C   0  0  0  0  0  0  0  0  0  0  0  0
  -23.5765    7.6653  -13.0417 C   0  0  0  0  0  0  0  0  0  0  0  0
  -22.3432    7.9976  -13.5901 C   0  0  0  0  0  0  0  0  0  0  0  0
  -21.0545    8.8835  -12.5306 Br  0  0  0  0  0  0  0  0  0  0  0  0
  -22.0526    7.6771  -14.9120 C   0  0  0  0  0  0  0  0  0  0  0  0
  -23.0120    7.0360  -15.7054 C   0  0  0  0  0  0  0  0  0  0  0  0
  -24.2658    6.6982  -15.1833 C   0  0  0  0  0  0  0  0  0  0  0  0
  -27.1267   11.2927  -12.0295 C   0  0  0  0  0  0  0  0  0  0  0  0
  -27.2313   10.0389  -12.8976 C   0  0  0  0  0  0  0  0  0  0  0  0
  -28.6889    9.5614  -13.0472 C   0  0  0  0  0  0  0  0  0  0  0  0
  -29.0485    8.3401  -12.1909 C   0  0  0  0  0  0  0  0  0  0  0  0
  -29.2082    8.6946  -10.7098 C   0  0  0  0  0  0  0  0  0  0  0  0
  -28.0475    7.1903  -12.3988 C   0  0  0  0  0  0  0  0  0  0  0  0
  -26.7218    7.6230  -12.8372 N   0  0  0  0  0  0  0  0  0  0  0  0
  -25.8256    6.6170  -13.2071 C   0  0  0  0  0  0  0  0  0  0  0  0
  -26.0644    5.4201  -13.0469 O   0  0  0  0  0  0  0  0  0  0  0  0
  -26.2979    8.9421  -12.3732 C   0  0  0  0  0  0  0  0  0  0  0  0
  -25.2840    6.1032  -15.9668 N   0  0  0  0  0  0  0  0  0  0  0  0
  -25.2095    5.6484  -17.2675 C   0  0  0  0  0  0  0  0  0  0  0  0
  -24.2076    5.6163  -17.9745 O   0  0  0  0  0  0  0  0  0  0  0  0
  -26.1586    6.0007  -15.5265 H   0  0  0  0  0  0  0  0  0  0  0  0
  -26.5406    5.1373  -17.7871 C   0  0  0  0  0  0  0  0  0  0  0  0
  -27.2178    4.2013  -16.7859 C   0  0  0  0  0  0  0  0  0  0  0  0
  -26.6464    2.7805  -16.8987 C   0  0  0  0  0  0  0  0  0  0  0  0
  -27.6742    1.6434  -17.1211 C   0  0  0  0  0  0  0  0  0  0  0  0
  -27.0504    0.4992  -17.9461 C   0  0  0  0  0  0  0  0  0  0  0  0
  -28.8826    2.1759  -17.9347 C   0  0  0  0  0  0  0  0  0  0  0  0
  -28.2663    1.1073  -15.7702 C   0  0  0  0  0  0  0  0  0  0  0  0
  -29.2225   -0.1235  -15.6656 C   0  0  0  0  0  0  0  0  0  0  0  0
  -30.4409    0.1119  -14.7669 C   0  0  0  0  0  0  0  0  0  0  0  0
  -28.4001   -1.2805  -15.0432 C   0  0  0  0  0  0  0  0  0  0  0  0
  -29.6930   -0.6116  -17.0490 C   0  0  0  0  0  0  0  0  0  0  0  0
  9  8  1  0
  9 10  1  0
 10 11  1  0
 11 12  1  0
 11 13  1  0
 13 14  1  0
 14 15  1  0
 15 16  2  0
 15  1  1  0
  1  2  2  0
  2  3  1  0
  3  4  1  0
  3  5  2  0
  5  6  1  0
  6  7  2  0
  7 18  1  0
 18 19  1  0
 19 20  2  0
 19 22  1  0
 22 23  1  0
 23 24  1  0
 24 25  1  0
 25 26  1  0
 25 27  1  0
 25 28  1  0
 28 29  1  0
 29 30  1  0
 29 31  1  0
 29 32  1  0
 14 17  1  0
 17  9  1  0
  7  1  1  0
 18 21  1  0
M  END
> <minimizedAffinity>
-5.52995

> <CNNscore>
0.6376662254

> <CNNaffinity>
6.4516177177

> <CNN_VS>
4.1139788628

> <CNNaffinity_variance>
0.1316024512

$$$$



 32 33  0  0  0  0  0  0  0  0999 V2000
  -24.3928    7.1992  -13.3777 C   0  0  0  0  0  0  0  0  0  0  0  0
  -23.3655    7.8995  -12.7253 C   0  0  0  0  0  0  0  0  0  0  0  0
  -22.1793    8.1649  -13.3993 C   0  0  0  0  0  0  0  0  0  0  0  0
  -20.7828    9.0785  -12.5142 Br  0  0  0  0  0  0  0  0  0  0  0  0
  -22.0144    7.7574  -14.7189 C   0  0  0  0  0  0  0  0  0  0  0  0
  -23.0540    7.0954  -15.3835 C   0  0  0  0  0  0  0  0  0  0  0  0
  -24.2633    6.8233  -14.7335 C   0  0  0  0  0  0  0  0  0  0  0  0
  -27.1391   11.6579  -12.3166 C   0  0  0  0  0  0  0  0  0  0  0  0
  -27.2161   10.2533  -12.9148 C   0  0  0  0  0  0  0  0  0  0  0  0
  -28.6509    9.6919  -12.8844 C   0  0  0  0  0  0  0  0  0  0  0  0
  -28.9026    8.6503  -11.7863 C   0  0  0  0  0  0  0  0  0  0  0  0
  -29.0113    9.2845  -10.3968 C   0  0  0  0  0  0  0  0  0  0  0  0
  -27.8515    7.5273  -11.8215 C   0  0  0  0  0  0  0  0  0  0  0  0
  -26.5735    7.9224  -12.4111 N   0  0  0  0  0  0  0  0  0  0  0  0
  -25.6422    6.9035  -12.6272 C   0  0  0  0  0  0  0  0  0  0  0  0
  -25.8076    5.7529  -12.2221 O   0  0  0  0  0  0  0  0  0  0  0  0
  -26.2006    9.3247  -12.2396 C   0  0  0  0  0  0  0  0  0  0  0  0
  -25.3596    6.2095  -15.3861 N   0  0  0  0  0  0  0  0  0  0  0  0
  -26.2784    6.7825  -16.2415 C   0  0  0  0  0  0  0  0  0  0  0  0
  -26.2731    7.9382  -16.6526 O   0  0  0  0  0  0  0  0  0  0  0  0
  -25.4823    5.2493  -15.2062 H   0  0  0  0  0  0  0  0  0  0  0  0
  -27.3554    5.8086  -16.6828 C   0  0  0  0  0  0  0  0  0  0  0  0
  -27.8929    4.9887  -15.5099 C   0  0  0  0  0  0  0  0  0  0  0  0
  -27.8466    3.4877  -15.8304 C   0  0  0  0  0  0  0  0  0  0  0  0
  -29.1835    2.7167  -15.6996 C   0  0  0  0  0  0  0  0  0  0  0  0
  -28.9290    1.1990  -15.5968 C   0  0  0  0  0  0  0  0  0  0  0  0
  -30.0486    2.9417  -16.9671 C   0  0  0  0  0  0  0  0  0  0  0  0
  -30.0464    3.2274  -14.4923 C   0  0  0  0  0  0  0  0  0  0  0  0
  -31.3504    2.5258  -13.9949 C   0  0  0  0  0  0  0  0  0  0  0  0
  -32.4940    3.4948  -13.6776 C   0  0  0  0  0  0  0  0  0  0  0  0
  -30.9898    1.7839  -12.6827 C   0  0  0  0  0  0  0  0  0  0  0  0
  -31.8464    1.4547  -14.9850 C   0  0  0  0  0  0  0  0  0  0  0  0
  9  8  1  0
  9 10  1  0
 10 11  1  0
 11 12  1  0
 11 13  1  0
 13 14  1  0
 14 15  1  0
 15 16  2  0
 15  1  1  0
  1  2  2  0
  2  3  1  0
  3  4  1  0
  3  5  2  0
  5  6  1  0
  6  7  2  0
  7 18  1  0
 18 19  1  0
 19 20  2  0
 19 22  1  0
 22 23  1  0
 23 24  1  0
 24 25  1  0
 25 26  1  0
 25 27  1  0
 25 28  1  0
 28 29  1  0
 29 30  1  0
 29 31  1  0
 29 32  1  0
 14 17  1  0
 17  9  1  0
  7  1  1  0
 18 21  1  0
M  END
> <minimizedAffinity>
-5.32950

> <CNNscore>
0.6327767372

> <CNNaffinity>
6.3717789650

> <CNN_VS>
4.0319132805

> <CNNaffinity_variance>
0.0120498789

$$$$



 32 33  0  0  0  0  0  0  0  0999 V2000
  -24.0978    7.0244  -13.8973 C   0  0  0  0  0  0  0  0  0  0  0  0
  -23.2931    7.8529  -13.0989 C   0  0  0  0  0  0  0  0  0  0  0  0
  -21.9475    8.0103  -13.4100 C   0  0  0  0  0  0  0  0  0  0  0  0
  -20.8546    9.0984  -12.3193 Br  0  0  0  0  0  0  0  0  0  0  0  0
  -21.4022    7.3674  -14.5162 C   0  0  0  0  0  0  0  0  0  0  0  0
  -22.2133    6.5740  -15.3368 C   0  0  0  0  0  0  0  0  0  0  0  0
  -23.5736    6.4052  -15.0540 C   0  0  0  0  0  0  0  0  0  0  0  0
  -26.8234   11.5895  -14.4256 C   0  0  0  0  0  0  0  0  0  0  0  0
  -26.7820   10.1069  -14.7953 C   0  0  0  0  0  0  0  0  0  0  0  0
  -28.1836    9.5544  -15.1193 C   0  0  0  0  0  0  0  0  0  0  0  0
  -28.8042    8.7023  -14.0044 C   0  0  0  0  0  0  0  0  0  0  0  0
  -29.2978    9.5514  -12.8295 C   0  0  0  0  0  0  0  0  0  0  0  0
  -27.8456    7.5906  -13.5433 C   0  0  0  0  0  0  0  0  0  0  0  0
  -26.4321    7.8887  -13.7672 N   0  0  0  0  0  0  0  0  0  0  0  0
  -25.5280    6.8504  -13.5287 C   0  0  0  0  0  0  0  0  0  0  0  0
  -25.8621    5.7795  -13.0218 O   0  0  0  0  0  0  0  0  0  0  0  0
  -26.0629    9.3011  -13.7076 C   0  0  0  0  0  0  0  0  0  0  0  0
  -24.4405    5.6603  -15.8896 N   0  0  0  0  0  0  0  0  0  0  0  0
  -24.4682    5.6098  -17.2684 C   0  0  0  0  0  0  0  0  0  0  0  0
  -23.6872    6.1622  -18.0362 O   0  0  0  0  0  0  0  0  0  0  0  0
  -25.1103    5.1066  -15.4271 H   0  0  0  0  0  0  0  0  0  0  0  0
  -25.5972    4.7468  -17.8009 C   0  0  0  0  0  0  0  0  0  0  0  0
  -25.2815    3.2568  -17.6700 C   0  0  0  0  0  0  0  0  0  0  0  0
  -23.9563    2.9193  -18.3684 C   0  0  0  0  0  0  0  0  0  0  0  0
  -24.0150    1.8184  -19.4562 C   0  0  0  0  0  0  0  0  0  0  0  0
  -25.2853    1.9711  -20.3175 C   0  0  0  0  0  0  0  0  0  0  0  0
  -24.0911    0.4204  -18.7886 C   0  0  0  0  0  0  0  0  0  0  0  0
  -22.7256    1.7997  -20.3505 C   0  0  0  0  0  0  0  0  0  0  0  0
  -21.3844    1.1171  -19.9315 C   0  0  0  0  0  0  0  0  0  0  0  0
  -20.1681    1.5964  -20.7305 C   0  0  0  0  0  0  0  0  0  0  0  0
  -21.5495   -0.4007  -20.1984 C   0  0  0  0  0  0  0  0  0  0  0  0
  -21.1011    1.2716  -18.4250 C   0  0  0  0  0  0  0  0  0  0  0  0
  9  8  1  0
  9 10  1  0
 10 11  1  0
 11 12  1  0
 11 13  1  0
 13 14  1  0
 14 15  1  0
 15 16  2  0
 15  1  1  0
  1  2  2  0
  2  3  1  0
  3  4  1  0
  3  5  2  0
  5  6  1  0
  6  7  2  0
  7 18  1  0
 18 19  1  0
 19 20  2  0
 19 22  1  0
 22 23  1  0
 23 24  1  0
 24 25  1  0
 25 26  1  0
 25 27  1  0
 25 28  1  0
 28 29  1  0
 29 30  1  0
 29 31  1  0
 29 32  1  0
 14 17  1  0
 17  9  1  0
  7  1  1  0
 18 21  1  0
M  END
> <minimizedAffinity>
-6.62874

> <CNNscore>
0.6322300434

> <CNNaffinity>
6.4259810448

> <CNN_VS>
4.0626983643

> <CNNaffinity_variance>
0.0265353043

$$$$



 32 33  0  0  0  0  0  0  0  0999 V2000
  -24.2867    9.1814  -14.0770 C   0  0  0  0  0  0  0  0  0  0  0  0
  -23.1010    9.5668  -13.4314 C   0  0  0  0  0  0  0  0  0  0  0  0
  -22.1046    8.6245  -13.2045 C   0  0  0  0  0  0  0  0  0  0  0  0
  -20.5215    9.1321  -12.3076 Br  0  0  0  0  0  0  0  0  0  0  0  0
  -22.2698    7.3107  -13.6300 C   0  0  0  0  0  0  0  0  0  0  0  0
  -23.4345    6.9351  -14.3106 C   0  0  0  0  0  0  0  0  0  0  0  0
  -24.4503    7.8645  -14.5621 C   0  0  0  0  0  0  0  0  0  0  0  0
  -27.9214    9.0428  -10.1633 C   0  0  0  0  0  0  0  0  0  0  0  0
  -26.9672    9.9379  -10.9536 C   0  0  0  0  0  0  0  0  0  0  0  0
  -27.4197   11.4110  -10.9464 C   0  0  0  0  0  0  0  0  0  0  0  0
  -28.0759   11.8805  -12.2513 C   0  0  0  0  0  0  0  0  0  0  0  0
  -29.4981   11.3372  -12.4159 C   0  0  0  0  0  0  0  0  0  0  0  0
  -27.1967   11.5601  -13.4726 C   0  0  0  0  0  0  0  0  0  0  0  0
  -26.2900   10.4302  -13.2771 N   0  0  0  0  0  0  0  0  0  0  0  0
  -25.3493   10.2010  -14.2844 C   0  0  0  0  0  0  0  0  0  0  0  0
  -25.3547   10.8126  -15.3527 O   0  0  0  0  0  0  0  0  0  0  0  0
  -26.7609    9.3870  -12.3690 C   0  0  0  0  0  0  0  0  0  0  0  0
  -25.6163    7.5409  -15.2972 N   0  0  0  0  0  0  0  0  0  0  0  0
  -25.7399    7.3150  -16.6529 C   0  0  0  0  0  0  0  0  0  0  0  0
  -24.8304    7.2882  -17.4756 O   0  0  0  0  0  0  0  0  0  0  0  0
  -26.4465    7.4677  -14.7732 H   0  0  0  0  0  0  0  0  0  0  0  0
  -27.1753    7.0645  -17.0771 C   0  0  0  0  0  0  0  0  0  0  0  0
  -27.3379    7.1354  -18.5955 C   0  0  0  0  0  0  0  0  0  0  0  0
  -28.5061    8.0574  -18.9738 C   0  0  0  0  0  0  0  0  0  0  0  0
  -28.9186    8.0646  -20.4667 C   0  0  0  0  0  0  0  0  0  0  0  0
  -27.8121    7.4394  -21.3405 C   0  0  0  0  0  0  0  0  0  0  0  0
  -29.1049    9.5248  -20.9555 C   0  0  0  0  0  0  0  0  0  0  0  0
  -30.2961    7.3512  -20.7042 C   0  0  0  0  0  0  0  0  0  0  0  0
  -30.6292    6.4995  -21.9706 C   0  0  0  0  0  0  0  0  0  0  0  0
  -30.3036    7.2008  -23.2933 C   0  0  0  0  0  0  0  0  0  0  0  0
  -32.1562    6.2351  -21.9461 C   0  0  0  0  0  0  0  0  0  0  0  0
  -29.9425    5.1207  -21.9392 C   0  0  0  0  0  0  0  0  0  0  0  0
  9  8  1  0
  9 10  1  0
 10 11  1  0
 11 12  1  0
 11 13  1  0
 13 14  1  0
 14 15  1  0
 15 16  2  0
 15  1  1  0
  1  2  2  0
  2  3  1  0
  3  4  1  0
  3  5  2  0
  5  6  1  0
  6  7  2  0
  7 18  1  0
 18 19  1  0
 19 20  2  0
 19 22  1  0
 22 23  1  0
 23 24  1  0
 24 25  1  0
 25 26  1  0
 25 27  1  0
 25 28  1  0
 28 29  1  0
 29 30  1  0
 29 31  1  0
 29 32  1  0
 14 17  1  0
 17  9  1  0
  7  1  1  0
 18 21  1  0
M  END
> <minimizedAffinity>
-6.16680

> <CNNscore>
0.6155427694

> <CNNaffinity>
5.8759045601

> <CNN_VS>
3.6168706417

> <CNNaffinity_variance>
0.0499880500

$$$$



 32 33  0  0  0  0  0  0  0  0999 V2000
  -24.0425    9.1459  -14.0654 C   0  0  0  0  0  0  0  0  0  0  0  0
  -22.8979    9.5484  -13.3588 C   0  0  0  0  0  0  0  0  0  0  0  0
  -21.9025    8.6200  -13.0768 C   0  0  0  0  0  0  0  0  0  0  0  0
  -20.3763    9.1505  -12.0985 Br  0  0  0  0  0  0  0  0  0  0  0  0
  -22.0274    7.3033  -13.5071 C   0  0  0  0  0  0  0  0  0  0  0  0
  -23.1492    6.9109  -14.2476 C   0  0  0  0  0  0  0  0  0  0  0  0
  -24.1625    7.8260  -14.5551 C   0  0  0  0  0  0  0  0  0  0  0  0
  -27.8759    8.9684  -10.3478 C   0  0  0  0  0  0  0  0  0  0  0  0
  -26.8933    9.8742  -11.0896 C   0  0  0  0  0  0  0  0  0  0  0  0
  -27.3649   11.3411  -11.1108 C   0  0  0  0  0  0  0  0  0  0  0  0
  -27.9576   11.7988  -12.4499 C   0  0  0  0  0  0  0  0  0  0  0  0
  -29.3619   11.2362  -12.6873 C   0  0  0  0  0  0  0  0  0  0  0  0
  -27.0112   11.4871  -13.6223 C   0  0  0  0  0  0  0  0  0  0  0  0
  -26.1013   10.3699  -13.3759 N   0  0  0  0  0  0  0  0  0  0  0  0
  -25.1059   10.1508  -14.3316 C   0  0  0  0  0  0  0  0  0  0  0  0
  -25.0632   10.7597  -15.4005 O   0  0  0  0  0  0  0  0  0  0  0  0
  -26.6055    9.3227  -12.4905 C   0  0  0  0  0  0  0  0  0  0  0  0
  -25.2834    7.4855  -15.3502 N   0  0  0  0  0  0  0  0  0  0  0  0
  -25.3112    7.1169  -16.6797 C   0  0  0  0  0  0  0  0  0  0  0  0
  -24.3418    6.9501  -17.4126 O   0  0  0  0  0  0  0  0  0  0  0  0
  -26.1562    7.5155  -14.8956 H   0  0  0  0  0  0  0  0  0  0  0  0
  -26.7206    6.8979  -17.1981 C   0  0  0  0  0  0  0  0  0  0  0  0
  -26.7484    6.7524  -18.7196 C   0  0  0  0  0  0  0  0  0  0  0  0
  -27.8535    5.7777  -19.1516 C   0  0  0  0  0  0  0  0  0  0  0  0
  -27.4651    4.7334  -20.2275 C   0  0  0  0  0  0  0  0  0  0  0  0
  -27.0068    5.4319  -21.5240 C   0  0  0  0  0  0  0  0  0  0  0  0
  -28.7003    3.8704  -20.5953 C   0  0  0  0  0  0  0  0  0  0  0  0
  -26.3752    3.7289  -19.7119 C   0  0  0  0  0  0  0  0  0  0  0  0
  -26.4620    2.9739  -18.3472 C   0  0  0  0  0  0  0  0  0  0  0  0
  -27.7449    3.2604  -17.5601 C   0  0  0  0  0  0  0  0  0  0  0  0
  -25.2682    3.4607  -17.4869 C   0  0  0  0  0  0  0  0  0  0  0  0
  -26.2930    1.4517  -18.5148 C   0  0  0  0  0  0  0  0  0  0  0  0
  9  8  1  0
  9 10  1  0
 10 11  1  0
 11 12  1  0
 11 13  1  0
 13 14  1  0
 14 15  1  0
 15 16  2  0
 15  1  1  0
  1  2  2  0
  2  3  1  0
  3  4  1  0
  3  5  2  0
  5  6  1  0
  6  7  2  0
  7 18  1  0
 18 19  1  0
 19 20  2  0
 19 22  1  0
 22 23  1  0
 23 24  1  0
 24 25  1  0
 25 26  1  0
 25 27  1  0
 25 28  1  0
 28 29  1  0
 29 30  1  0
 29 31  1  0
 29 32  1  0
 14 17  1  0
 17  9  1  0
  7  1  1  0
 18 21  1  0
M  END
> <minimizedAffinity>
-6.15063

> <CNNscore>
0.6012642384

> <CNNaffinity>
6.0346693993

> <CNN_VS>
3.6284308434

> <CNNaffinity_variance>
0.0456055999

$$$$
