


 37 40  0  0  0  0  0  0  0  0999 V2000
   12.2072   53.8945   92.1135 C   0  0  0  0  0  0  0  0  0  0  0  0
   10.9875   54.0802   92.0026 O   0  0  0  0  0  0  0  0  0  0  0  0
   13.0150   53.9938   91.0032 N   0  0  0  0  0  0  0  0  0  0  0  0
   14.4452   54.2857   90.9864 C   0  0  0  0  0  0  0  0  0  0  0  0
   14.6305   55.1753   89.7593 C   0  0  0  0  0  0  0  0  0  0  0  0
   14.3069   56.5333   90.0646 O   0  0  0  0  0  0  0  0  0  0  0  0
   13.6246   54.6124   88.7716 C   0  0  0  0  0  0  0  0  0  0  0  0
   12.4368   54.2002   89.6547 C   0  0  0  0  0  0  0  0  0  0  0  0
   13.3984   56.5813   90.4012 H   0  0  0  0  0  0  0  0  0  0  0  0
   11.8708   55.9724   94.8727 C   0  0  0  0  0  0  0  0  0  0  0  0
   11.5296   54.6123   95.4295 C   0  0  0  0  0  0  0  0  0  0  0  0
   10.9477   54.4989   96.5097 O   0  0  0  0  0  0  0  0  0  0  0  0
   11.8977   53.5117   94.6837 N   0  0  0  0  0  0  0  0  0  0  0  0
   11.7636   52.1777   95.2507 C   0  0  0  0  0  0  0  0  0  0  0  0
   12.3110   51.2372   94.1806 C   0  0  0  0  0  0  0  0  0  0  0  0
   12.8883   50.0569   94.7115 O   0  0  0  0  0  0  0  0  0  0  0  0
   13.3575   52.0930   93.4743 C   0  0  0  0  0  0  0  0  0  0  0  0
   12.7664   53.5069   93.5083 C   0  0  0  0  0  0  0  0  0  0  0  0
   13.6092   50.2931   95.3160 H   0  0  0  0  0  0  0  0  0  0  0  0
   11.7327   52.9385   89.0900 C   0  0  0  0  0  0  0  0  0  0  0  0
   12.2153   51.8105   89.1564 O   0  0  0  0  0  0  0  0  0  0  0  0
   10.5422   53.1942   88.4516 N   0  0  0  0  0  0  0  0  0  0  0  0
   10.1815   54.1098   88.4825 H   0  0  0  0  0  0  0  0  0  0  0  0
    9.7959   52.1868   87.7389 C   0  0  0  0  0  0  0  0  0  0  0  0
   10.4034   51.9480   86.3807 C   0  0  0  0  0  0  0  0  0  0  0  0
   10.1493   52.8266   85.3191 C   0  0  0  0  0  0  0  0  0  0  0  0
   10.7423   52.6197   84.0701 C   0  0  0  0  0  0  0  0  0  0  0  0
   11.6079   51.5379   83.8621 C   0  0  0  0  0  0  0  0  0  0  0  0
   11.8676   50.6644   84.9261 C   0  0  0  0  0  0  0  0  0  0  0  0
   11.2742   50.8698   86.1752 C   0  0  0  0  0  0  0  0  0  0  0  0
   12.2201   51.3301   82.5501 C   0  0  0  0  0  0  0  0  0  0  0  0
   13.8862   50.9124   82.4307 S   0  0  0  0  0  0  0  0  0  0  0  0
   13.7477   50.9177   80.7319 C   0  0  0  0  0  0  0  0  0  0  0  0
   15.2423   50.5282   79.5931 Br  0  0  0  0  0  0  0  0  0  0  0  0
   12.5650   51.1955   80.2352 N   0  0  0  0  0  0  0  0  0  0  0  0
   11.6751   51.4359   81.2740 C   0  0  0  0  0  0  0  0  0  0  0  0
   10.2679   51.7737   80.9267 C   0  0  0  0  0  0  0  0  0  0  0  0
 10 11  1  0
 11 12  2  0
 11 13  1  0
 13 14  1  0
 14 15  1  0
 15 16  1  0
 15 17  1  0
 17 18  1  0
 18  1  1  0
  1  2  2  0
  1  3  1  0
  3  4  1  0
  4  5  1  0
  5  6  1  0
  5  7  1  0
  7  8  1  0
  8 20  1  0
 20 21  2  0
 20 22  1  0
 22 24  1  0
 24 25  1  0
 25 26  2  0
 26 27  1  0
 27 28  2  0
 28 31  1  0
 31 32  1  0
 32 33  1  0
 33 34  1  0
 33 35  2  0
 35 36  1  0
 36 37  1  0
 28 29  1  0
 29 30  2  0
 18 13  1  0
  8  3  1  0
 30 25  1  0
 36 31  2  0
 16 19  1  0
  6  9  1  0
 22 23  1  0
M  END
> <minimizedAffinity>
-9.09241

> <CNNscore>
0.9296819568

> <CNNaffinity>
6.9938712120

> <CNN_VS>
6.5020756721

> <CNNaffinity_variance>
0.2426919341

$$$$



 37 40  0  0  0  0  0  0  0  0999 V2000
   12.2608   53.6957   91.7914 C   0  0  0  0  0  0  0  0  0  0  0  0
   11.0382   53.8217   91.6371 O   0  0  0  0  0  0  0  0  0  0  0  0
   13.1091   53.9363   90.7343 N   0  0  0  0  0  0  0  0  0  0  0  0
   14.5187   54.3083   90.8120 C   0  0  0  0  0  0  0  0  0  0  0  0
   14.7039   55.3102   89.6749 C   0  0  0  0  0  0  0  0  0  0  0  0
   14.2863   56.6162   90.0774 O   0  0  0  0  0  0  0  0  0  0  0  0
   13.7779   54.7800   88.5952 C   0  0  0  0  0  0  0  0  0  0  0  0
   12.5794   54.2265   89.3813 C   0  0  0  0  0  0  0  0  0  0  0  0
   13.3627   56.5838   90.3720 H   0  0  0  0  0  0  0  0  0  0  0  0
   11.9210   55.6336   94.6503 C   0  0  0  0  0  0  0  0  0  0  0  0
   11.5330   54.2558   95.1271 C   0  0  0  0  0  0  0  0  0  0  0  0
   10.9260   54.1013   96.1882 O   0  0  0  0  0  0  0  0  0  0  0  0
   11.8879   53.1865   94.3311 N   0  0  0  0  0  0  0  0  0  0  0  0
   11.7074   51.8286   94.8235 C   0  0  0  0  0  0  0  0  0  0  0  0
   12.2524   50.9313   93.7158 C   0  0  0  0  0  0  0  0  0  0  0  0
   12.7877   49.7094   94.1942 O   0  0  0  0  0  0  0  0  0  0  0  0
   13.3353   51.7946   93.0766 C   0  0  0  0  0  0  0  0  0  0  0  0
   12.7805   53.2201   93.1742 C   0  0  0  0  0  0  0  0  0  0  0  0
   13.5017   49.8939   94.8243 H   0  0  0  0  0  0  0  0  0  0  0  0
   11.9777   52.9813   88.6786 C   0  0  0  0  0  0  0  0  0  0  0  0
   11.8990   52.8685   87.4576 O   0  0  0  0  0  0  0  0  0  0  0  0
   11.4815   52.0314   89.5398 N   0  0  0  0  0  0  0  0  0  0  0  0
   11.6264   52.1538   90.5058 H   0  0  0  0  0  0  0  0  0  0  0  0
   10.7592   50.8643   89.0971 C   0  0  0  0  0  0  0  0  0  0  0  0
   11.7178   49.7505   88.7634 C   0  0  0  0  0  0  0  0  0  0  0  0
   12.5508   49.2045   89.7491 C   0  0  0  0  0  0  0  0  0  0  0  0
   13.4141   48.1486   89.4423 C   0  0  0  0  0  0  0  0  0  0  0  0
   13.4531   47.6121   88.1487 C   0  0  0  0  0  0  0  0  0  0  0  0
   12.6145   48.1534   87.1658 C   0  0  0  0  0  0  0  0  0  0  0  0
   11.7516   49.2101   87.4711 C   0  0  0  0  0  0  0  0  0  0  0  0
   14.3627   46.5092   87.8392 C   0  0  0  0  0  0  0  0  0  0  0  0
   15.7454   46.7816   86.8499 S   0  0  0  0  0  0  0  0  0  0  0  0
   16.1397   45.1283   86.9764 C   0  0  0  0  0  0  0  0  0  0  0  0
   17.6854   44.3873   86.1137 Br  0  0  0  0  0  0  0  0  0  0  0  0
   15.3379   44.3819   87.6994 N   0  0  0  0  0  0  0  0  0  0  0  0
   14.3084   45.1669   88.2022 C   0  0  0  0  0  0  0  0  0  0  0  0
   13.2794   44.5108   89.0542 C   0  0  0  0  0  0  0  0  0  0  0  0
 10 11  1  0
 11 12  2  0
 11 13  1  0
 13 14  1  0
 14 15  1  0
 15 16  1  0
 15 17  1  0
 17 18  1  0
 18  1  1  0
  1  2  2  0
  1  3  1  0
  3  4  1  0
  4  5  1  0
  5  6  1  0
  5  7  1  0
  7  8  1  0
  8 20  1  0
 20 21  2  0
 20 22  1  0
 22 24  1  0
 24 25  1  0
 25 26  2  0
 26 27  1  0
 27 28  2  0
 28 31  1  0
 31 32  1  0
 32 33  1  0
 33 34  1  0
 33 35  2  0
 35 36  1  0
 36 37  1  0
 28 29  1  0
 29 30  2  0
 18 13  1  0
  8  3  1  0
 30 25  1  0
 36 31  2  0
 16 19  1  0
  6  9  1  0
 22 23  1  0
M  END
> <minimizedAffinity>
-7.24139

> <CNNscore>
0.9124201536

> <CNNaffinity>
6.5014538765

> <CNN_VS>
5.9320573807

> <CNNaffinity_variance>
0.0045892461

$$$$



 37 40  0  0  0  0  0  0  0  0999 V2000
   11.3159   53.7284   91.3331 C   0  0  0  0  0  0  0  0  0  0  0  0
   10.2296   53.9576   90.7836 O   0  0  0  0  0  0  0  0  0  0  0  0
   12.4806   53.8237   90.6056 N   0  0  0  0  0  0  0  0  0  0  0  0
   13.8211   54.0674   91.1300 C   0  0  0  0  0  0  0  0  0  0  0  0
   14.4703   54.9758   90.0885 C   0  0  0  0  0  0  0  0  0  0  0  0
   14.0884   56.3372   90.2952 O   0  0  0  0  0  0  0  0  0  0  0  0
   13.8908   54.4681   88.7805 C   0  0  0  0  0  0  0  0  0  0  0  0
   12.4504   54.0778   89.1462 C   0  0  0  0  0  0  0  0  0  0  0  0
   13.1214   56.4088   90.2721 H   0  0  0  0  0  0  0  0  0  0  0  0
   12.5614   50.6558   92.3589 C   0  0  0  0  0  0  0  0  0  0  0  0
   13.1192   51.6079   93.3878 C   0  0  0  0  0  0  0  0  0  0  0  0
   14.0536   51.2735   94.1181 O   0  0  0  0  0  0  0  0  0  0  0  0
   12.5398   52.8567   93.4757 N   0  0  0  0  0  0  0  0  0  0  0  0
   12.9073   53.7482   94.5662 C   0  0  0  0  0  0  0  0  0  0  0  0
   12.0394   54.9883   94.3718 C   0  0  0  0  0  0  0  0  0  0  0  0
   11.7260   55.6510   95.5847 O   0  0  0  0  0  0  0  0  0  0  0  0
   10.7845   54.4286   93.7095 C   0  0  0  0  0  0  0  0  0  0  0  0
   11.3070   53.2930   92.8226 C   0  0  0  0  0  0  0  0  0  0  0  0
   11.2641   55.0381   96.1780 H   0  0  0  0  0  0  0  0  0  0  0  0
   11.9771   52.8528   88.3204 C   0  0  0  0  0  0  0  0  0  0  0  0
   12.0564   52.7939   87.0957 O   0  0  0  0  0  0  0  0  0  0  0  0
   11.4028   51.8538   89.0705 N   0  0  0  0  0  0  0  0  0  0  0  0
   11.4211   51.9353   90.0514 H   0  0  0  0  0  0  0  0  0  0  0  0
   10.7749   50.6923   88.4904 C   0  0  0  0  0  0  0  0  0  0  0  0
   11.7877   49.5945   88.2906 C   0  0  0  0  0  0  0  0  0  0  0  0
   12.5461   49.1164   89.3675 C   0  0  0  0  0  0  0  0  0  0  0  0
   13.4601   48.0746   89.1837 C   0  0  0  0  0  0  0  0  0  0  0  0
   13.6252   47.4847   87.9238 C   0  0  0  0  0  0  0  0  0  0  0  0
   12.8610   47.9579   86.8493 C   0  0  0  0  0  0  0  0  0  0  0  0
   11.9475   49.0004   87.0317 C   0  0  0  0  0  0  0  0  0  0  0  0
   14.5867   46.3973   87.7433 C   0  0  0  0  0  0  0  0  0  0  0  0
   15.9310   46.5994   86.6865 S   0  0  0  0  0  0  0  0  0  0  0  0
   16.4175   45.0021   87.0285 C   0  0  0  0  0  0  0  0  0  0  0  0
   17.9825   44.2281   86.2322 Br  0  0  0  0  0  0  0  0  0  0  0  0
   15.6732   44.3238   87.8704 N   0  0  0  0  0  0  0  0  0  0  0  0
   14.6135   45.1176   88.2895 C   0  0  0  0  0  0  0  0  0  0  0  0
   13.6403   44.5350   89.2531 C   0  0  0  0  0  0  0  0  0  0  0  0
 10 11  1  0
 11 12  2  0
 11 13  1  0
 13 14  1  0
 14 15  1  0
 15 16  1  0
 15 17  1  0
 17 18  1  0
 18  1  1  0
  1  2  2  0
  1  3  1  0
  3  4  1  0
  4  5  1  0
  5  6  1  0
  5  7  1  0
  7  8  1  0
  8 20  1  0
 20 21  2  0
 20 22  1  0
 22 24  1  0
 24 25  1  0
 25 26  2  0
 26 27  1  0
 27 28  2  0
 28 31  1  0
 31 32  1  0
 32 33  1  0
 33 34  1  0
 33 35  2  0
 35 36  1  0
 36 37  1  0
 28 29  1  0
 29 30  2  0
 18 13  1  0
  8  3  1  0
 30 25  1  0
 36 31  2  0
 16 19  1  0
  6  9  1  0
 22 23  1  0
M  END
> <minimizedAffinity>
-7.06948

> <CNNscore>
0.7560276985

> <CNNaffinity>
5.7194943428

> <CNN_VS>
4.3240962029

> <CNNaffinity_variance>
0.2539270222

$$$$



 37 40  0  0  0  0  0  0  0  0999 V2000
   10.7887   51.0401   88.0438 C   0  0  0  0  0  0  0  0  0  0  0  0
   10.4323   51.7148   87.0680 O   0  0  0  0  0  0  0  0  0  0  0  0
   11.2580   51.6714   89.1735 N   0  0  0  0  0  0  0  0  0  0  0  0
   11.2657   51.1389   90.5327 C   0  0  0  0  0  0  0  0  0  0  0  0
   10.9418   52.3467   91.4090 C   0  0  0  0  0  0  0  0  0  0  0  0
    9.5322   52.5762   91.4542 O   0  0  0  0  0  0  0  0  0  0  0  0
   11.6300   53.4903   90.6860 C   0  0  0  0  0  0  0  0  0  0  0  0
   11.4583   53.1392   89.2001 C   0  0  0  0  0  0  0  0  0  0  0  0
    9.1946   52.6939   90.5525 H   0  0  0  0  0  0  0  0  0  0  0  0
    7.7822   49.3168   87.8556 C   0  0  0  0  0  0  0  0  0  0  0  0
    8.6231   48.6472   86.7969 C   0  0  0  0  0  0  0  0  0  0  0  0
    8.1049   47.9395   85.9315 O   0  0  0  0  0  0  0  0  0  0  0  0
    9.9856   48.8582   86.8425 N   0  0  0  0  0  0  0  0  0  0  0  0
   10.8640   48.0958   85.9673 C   0  0  0  0  0  0  0  0  0  0  0  0
   12.2750   48.5486   86.3326 C   0  0  0  0  0  0  0  0  0  0  0  0
   13.2559   47.5446   86.1372 O   0  0  0  0  0  0  0  0  0  0  0  0
   12.1469   48.9141   87.8079 C   0  0  0  0  0  0  0  0  0  0  0  0
   10.7328   49.4937   87.9262 C   0  0  0  0  0  0  0  0  0  0  0  0
   13.0317   46.7655   86.6698 H   0  0  0  0  0  0  0  0  0  0  0  0
   12.6836   53.6057   88.3709 C   0  0  0  0  0  0  0  0  0  0  0  0
   13.7350   53.9883   88.8786 O   0  0  0  0  0  0  0  0  0  0  0  0
   12.4763   53.6126   87.0117 N   0  0  0  0  0  0  0  0  0  0  0  0
   11.6335   53.2404   86.6647 H   0  0  0  0  0  0  0  0  0  0  0  0
   13.4332   54.1383   86.0696 C   0  0  0  0  0  0  0  0  0  0  0  0
   13.5000   53.2609   84.8462 C   0  0  0  0  0  0  0  0  0  0  0  0
   14.6490   53.2378   84.0445 C   0  0  0  0  0  0  0  0  0  0  0  0
   14.7188   52.3969   82.9299 C   0  0  0  0  0  0  0  0  0  0  0  0
   13.6468   51.5566   82.6022 C   0  0  0  0  0  0  0  0  0  0  0  0
   12.5015   51.5746   83.4086 C   0  0  0  0  0  0  0  0  0  0  0  0
   12.4301   52.4160   84.5228 C   0  0  0  0  0  0  0  0  0  0  0  0
   13.7306   50.6833   81.4318 C   0  0  0  0  0  0  0  0  0  0  0  0
   12.6683   49.3366   81.2811 S   0  0  0  0  0  0  0  0  0  0  0  0
   13.4296   48.9228   79.8133 C   0  0  0  0  0  0  0  0  0  0  0  0
   12.8854   47.3962   78.7859 Br  0  0  0  0  0  0  0  0  0  0  0  0
   14.4058   49.7030   79.4121 N   0  0  0  0  0  0  0  0  0  0  0  0
   14.5895   50.7222   80.3376 C   0  0  0  0  0  0  0  0  0  0  0  0
   15.6575   51.7244   80.0729 C   0  0  0  0  0  0  0  0  0  0  0  0
 10 11  1  0
 11 12  2  0
 11 13  1  0
 13 14  1  0
 14 15  1  0
 15 16  1  0
 15 17  1  0
 17 18  1  0
 18  1  1  0
  1  2  2  0
  1  3  1  0
  3  4  1  0
  4  5  1  0
  5  6  1  0
  5  7  1  0
  7  8  1  0
  8 20  1  0
 20 21  2  0
 20 22  1  0
 22 24  1  0
 24 25  1  0
 25 26  2  0
 26 27  1  0
 27 28  2  0
 28 31  1  0
 31 32  1  0
 32 33  1  0
 33 34  1  0
 33 35  2  0
 35 36  1  0
 36 37  1  0
 28 29  1  0
 29 30  2  0
 18 13  1  0
  8  3  1  0
 30 25  1  0
 36 31  2  0
 16 19  1  0
  6  9  1  0
 22 23  1  0
M  END
> <minimizedAffinity>
-8.88911

> <CNNscore>
0.4751299918

> <CNNaffinity>
6.4940605164

> <CNN_VS>
3.0855228901

> <CNNaffinity_variance>
0.0674986318

$$$$



 37 40  0  0  0  0  0  0  0  0999 V2000
   11.4945   52.8694   89.9618 C   0  0  0  0  0  0  0  0  0  0  0  0
   11.6338   51.6992   90.3433 O   0  0  0  0  0  0  0  0  0  0  0  0
   12.3512   53.8429   90.4236 N   0  0  0  0  0  0  0  0  0  0  0  0
   12.6661   55.1107   89.7719 C   0  0  0  0  0  0  0  0  0  0  0  0
   14.1538   55.3139   90.0490 C   0  0  0  0  0  0  0  0  0  0  0  0
   14.9479   54.5800   89.1148 O   0  0  0  0  0  0  0  0  0  0  0  0
   14.3260   54.7359   91.4420 C   0  0  0  0  0  0  0  0  0  0  0  0
   13.3628   53.5391   91.4626 C   0  0  0  0  0  0  0  0  0  0  0  0
   14.7070   53.6412   89.1530 H   0  0  0  0  0  0  0  0  0  0  0  0
   11.3905   51.6860   86.7009 C   0  0  0  0  0  0  0  0  0  0  0  0
    9.9835   51.4501   87.1918 C   0  0  0  0  0  0  0  0  0  0  0  0
    9.2228   50.6901   86.5901 O   0  0  0  0  0  0  0  0  0  0  0  0
    9.5894   52.1195   88.3318 N   0  0  0  0  0  0  0  0  0  0  0  0
    8.1951   52.0784   88.7477 C   0  0  0  0  0  0  0  0  0  0  0  0
    8.1276   52.9614   89.9906 C   0  0  0  0  0  0  0  0  0  0  0  0
    6.8711   53.5934   90.1638 O   0  0  0  0  0  0  0  0  0  0  0  0
    9.2304   53.9859   89.7438 C   0  0  0  0  0  0  0  0  0  0  0  0
   10.3156   53.1939   89.0060 C   0  0  0  0  0  0  0  0  0  0  0  0
    6.6724   54.1368   89.3852 H   0  0  0  0  0  0  0  0  0  0  0  0
   12.7508   53.3392   92.8740 C   0  0  0  0  0  0  0  0  0  0  0  0
   12.2237   54.2454   93.5148 O   0  0  0  0  0  0  0  0  0  0  0  0
   12.8992   52.0691   93.3793 N   0  0  0  0  0  0  0  0  0  0  0  0
   13.2786   51.3739   92.7945 H   0  0  0  0  0  0  0  0  0  0  0  0
   12.5262   51.7056   94.7241 C   0  0  0  0  0  0  0  0  0  0  0  0
   13.7263   51.1989   95.4816 C   0  0  0  0  0  0  0  0  0  0  0  0
   14.1108   51.7917   96.6917 C   0  0  0  0  0  0  0  0  0  0  0  0
   15.2046   51.2963   97.4077 C   0  0  0  0  0  0  0  0  0  0  0  0
   15.9272   50.1938   96.9334 C   0  0  0  0  0  0  0  0  0  0  0  0
   15.5375   49.5969   95.7274 C   0  0  0  0  0  0  0  0  0  0  0  0
   14.4446   50.0922   95.0100 C   0  0  0  0  0  0  0  0  0  0  0  0
   17.0716   49.6864   97.6900 C   0  0  0  0  0  0  0  0  0  0  0  0
   17.5048   48.0230   97.5891 S   0  0  0  0  0  0  0  0  0  0  0  0
   18.7673   48.3026   98.6995 C   0  0  0  0  0  0  0  0  0  0  0  0
   19.9379   46.8959   99.2767 Br  0  0  0  0  0  0  0  0  0  0  0  0
   18.9075   49.5312   99.1396 N   0  0  0  0  0  0  0  0  0  0  0  0
   17.9348   50.3390   98.5649 C   0  0  0  0  0  0  0  0  0  0  0  0
   17.9143   51.7808   98.9337 C   0  0  0  0  0  0  0  0  0  0  0  0
 10 11  1  0
 11 12  2  0
 11 13  1  0
 13 14  1  0
 14 15  1  0
 15 16  1  0
 15 17  1  0
 17 18  1  0
 18  1  1  0
  1  2  2  0
  1  3  1  0
  3  4  1  0
  4  5  1  0
  5  6  1  0
  5  7  1  0
  7  8  1  0
  8 20  1  0
 20 21  2  0
 20 22  1  0
 22 24  1  0
 24 25  1  0
 25 26  2  0
 26 27  1  0
 27 28  2  0
 28 31  1  0
 31 32  1  0
 32 33  1  0
 33 34  1  0
 33 35  2  0
 35 36  1  0
 36 37  1  0
 28 29  1  0
 29 30  2  0
 18 13  1  0
  8  3  1  0
 30 25  1  0
 36 31  2  0
 16 19  1  0
  6  9  1  0
 22 23  1  0
M  END
> <minimizedAffinity>
-6.98643

> <CNNscore>
0.4131294191

> <CNNaffinity>
5.9663982391

> <CNN_VS>
2.4648945332

> <CNNaffinity_variance>
0.0023231746

$$$$



 37 40  0  0  0  0  0  0  0  0999 V2000
   11.3687   53.6893   91.2228 C   0  0  0  0  0  0  0  0  0  0  0  0
   10.2809   53.9076   90.6718 O   0  0  0  0  0  0  0  0  0  0  0  0
   12.5368   53.8549   90.5136 N   0  0  0  0  0  0  0  0  0  0  0  0
   13.8633   54.1180   91.0636 C   0  0  0  0  0  0  0  0  0  0  0  0
   14.4925   55.0930   90.0712 C   0  0  0  0  0  0  0  0  0  0  0  0
   14.0641   56.4306   90.3343 O   0  0  0  0  0  0  0  0  0  0  0  0
   13.9430   54.6262   88.7354 C   0  0  0  0  0  0  0  0  0  0  0  0
   12.5127   54.1734   89.0668 C   0  0  0  0  0  0  0  0  0  0  0  0
   13.0955   56.4718   90.3034 H   0  0  0  0  0  0  0  0  0  0  0  0
   12.5441   50.5435   92.0987 C   0  0  0  0  0  0  0  0  0  0  0  0
   13.1328   51.4339   93.1650 C   0  0  0  0  0  0  0  0  0  0  0  0
   14.0636   51.0438   93.8718 O   0  0  0  0  0  0  0  0  0  0  0  0
   12.5854   52.6913   93.3138 N   0  0  0  0  0  0  0  0  0  0  0  0
   12.9828   53.5231   94.4405 C   0  0  0  0  0  0  0  0  0  0  0  0
   12.1448   54.7918   94.3094 C   0  0  0  0  0  0  0  0  0  0  0  0
   11.8566   55.4063   95.5535 O   0  0  0  0  0  0  0  0  0  0  0  0
   10.8717   54.2938   93.6328 C   0  0  0  0  0  0  0  0  0  0  0  0
   11.3594   53.1870   92.6912 C   0  0  0  0  0  0  0  0  0  0  0  0
   11.3837   54.7788   96.1222 H   0  0  0  0  0  0  0  0  0  0  0  0
   12.0882   52.9721   88.1817 C   0  0  0  0  0  0  0  0  0  0  0  0
   12.4030   52.8615   86.9992 O   0  0  0  0  0  0  0  0  0  0  0  0
   11.2753   52.0626   88.8161 N   0  0  0  0  0  0  0  0  0  0  0  0
   11.1066   52.1774   89.7792 H   0  0  0  0  0  0  0  0  0  0  0  0
   10.6579   50.9487   88.1395 C   0  0  0  0  0  0  0  0  0  0  0  0
    9.2187   51.2620   87.8210 C   0  0  0  0  0  0  0  0  0  0  0  0
    8.1806   50.5155   88.3942 C   0  0  0  0  0  0  0  0  0  0  0  0
    6.8462   50.8316   88.1221 C   0  0  0  0  0  0  0  0  0  0  0  0
    6.5248   51.9053   87.2815 C   0  0  0  0  0  0  0  0  0  0  0  0
    7.5631   52.6559   86.7150 C   0  0  0  0  0  0  0  0  0  0  0  0
    8.8979   52.3400   86.9855 C   0  0  0  0  0  0  0  0  0  0  0  0
    5.1250   52.2245   87.0020 C   0  0  0  0  0  0  0  0  0  0  0  0
    4.7282   53.3809   85.7896 S   0  0  0  0  0  0  0  0  0  0  0  0
    3.0763   53.1663   86.1504 C   0  0  0  0  0  0  0  0  0  0  0  0
    1.7033   54.1337   85.2223 Br  0  0  0  0  0  0  0  0  0  0  0  0
    2.7836   52.3003   87.0923 N   0  0  0  0  0  0  0  0  0  0  0  0
    3.9571   51.7505   87.5919 C   0  0  0  0  0  0  0  0  0  0  0  0
    3.8496   50.7387   88.6780 C   0  0  0  0  0  0  0  0  0  0  0  0
 10 11  1  0
 11 12  2  0
 11 13  1  0
 13 14  1  0
 14 15  1  0
 15 16  1  0
 15 17  1  0
 17 18  1  0
 18  1  1  0
  1  2  2  0
  1  3  1  0
  3  4  1  0
  4  5  1  0
  5  6  1  0
  5  7  1  0
  7  8  1  0
  8 20  1  0
 20 21  2  0
 20 22  1  0
 22 24  1  0
 24 25  1  0
 25 26  2  0
 26 27  1  0
 27 28  2  0
 28 31  1  0
 31 32  1  0
 32 33  1  0
 33 34  1  0
 33 35  2  0
 35 36  1  0
 36 37  1  0
 28 29  1  0
 29 30  2  0
 18 13  1  0
  8  3  1  0
 30 25  1  0
 36 31  2  0
 16 19  1  0
  6  9  1  0
 22 23  1  0
M  END
> <minimizedAffinity>
-6.69159

> <CNNscore>
0.3709009290

> <CNNaffinity>
5.3904075623

> <CNN_VS>
1.9993071556

> <CNNaffinity_variance>
0.8344902396

$$$$



 37 40  0  0  0  0  0  0  0  0999 V2000
   12.1670   52.8867   92.5021 C   0  0  0  0  0  0  0  0  0  0  0  0
   11.0178   53.3480   92.5346 O   0  0  0  0  0  0  0  0  0  0  0  0
   12.6784   52.2537   93.6124 N   0  0  0  0  0  0  0  0  0  0  0  0
   13.7509   51.2636   93.6373 C   0  0  0  0  0  0  0  0  0  0  0  0
   13.3168   50.2696   94.7119 C   0  0  0  0  0  0  0  0  0  0  0  0
   12.3881   49.3225   94.1805 O   0  0  0  0  0  0  0  0  0  0  0  0
   12.6278   51.1513   95.7376 C   0  0  0  0  0  0  0  0  0  0  0  0
   11.9237   52.2197   94.8869 C   0  0  0  0  0  0  0  0  0  0  0  0
   11.6264   49.7919   93.8057 H   0  0  0  0  0  0  0  0  0  0  0  0
   11.5131   51.1141   89.5910 C   0  0  0  0  0  0  0  0  0  0  0  0
   11.7286   52.5207   89.0897 C   0  0  0  0  0  0  0  0  0  0  0  0
   11.3668   52.8517   87.9593 O   0  0  0  0  0  0  0  0  0  0  0  0
   12.3460   53.4104   89.9443 N   0  0  0  0  0  0  0  0  0  0  0  0
   12.7471   54.7215   89.4552 C   0  0  0  0  0  0  0  0  0  0  0  0
   13.4346   55.3919   90.6414 C   0  0  0  0  0  0  0  0  0  0  0  0
   14.4418   56.3131   90.2603 O   0  0  0  0  0  0  0  0  0  0  0  0
   14.0273   54.2125   91.4059 C   0  0  0  0  0  0  0  0  0  0  0  0
   13.0025   53.0896   91.2102 C   0  0  0  0  0  0  0  0  0  0  0  0
   15.1130   55.8569   89.7290 H   0  0  0  0  0  0  0  0  0  0  0  0
   11.8954   53.5870   95.6192 C   0  0  0  0  0  0  0  0  0  0  0  0
   11.9706   53.6995   96.8404 O   0  0  0  0  0  0  0  0  0  0  0  0
   11.7187   54.6687   94.7891 N   0  0  0  0  0  0  0  0  0  0  0  0
   11.7230   54.5179   93.8162 H   0  0  0  0  0  0  0  0  0  0  0  0
   11.5272   56.0133   95.2739 C   0  0  0  0  0  0  0  0  0  0  0  0
   10.0583   56.3060   95.4397 C   0  0  0  0  0  0  0  0  0  0  0  0
    9.6208   57.5867   95.8027 C   0  0  0  0  0  0  0  0  0  0  0  0
    8.2553   57.8620   95.9222 C   0  0  0  0  0  0  0  0  0  0  0  0
    7.3024   56.8662   95.6709 C   0  0  0  0  0  0  0  0  0  0  0  0
    7.7404   55.5881   95.3005 C   0  0  0  0  0  0  0  0  0  0  0  0
    9.1056   55.3114   95.1818 C   0  0  0  0  0  0  0  0  0  0  0  0
    5.8767   57.1655   95.8020 C   0  0  0  0  0  0  0  0  0  0  0  0
    5.0737   56.9042   97.3025 S   0  0  0  0  0  0  0  0  0  0  0  0
    3.6135   57.4203   96.5908 C   0  0  0  0  0  0  0  0  0  0  0  0
    1.9709   57.4817   97.5810 Br  0  0  0  0  0  0  0  0  0  0  0  0
    3.6646   57.7817   95.3300 N   0  0  0  0  0  0  0  0  0  0  0  0
    4.9648   57.6388   94.8634 C   0  0  0  0  0  0  0  0  0  0  0  0
    5.2432   57.9956   93.4455 C   0  0  0  0  0  0  0  0  0  0  0  0
 10 11  1  0
 11 12  2  0
 11 13  1  0
 13 14  1  0
 14 15  1  0
 15 16  1  0
 15 17  1  0
 17 18  1  0
 18  1  1  0
  1  2  2  0
  1  3  1  0
  3  4  1  0
  4  5  1  0
  5  6  1  0
  5  7  1  0
  7  8  1  0
  8 20  1  0
 20 21  2  0
 20 22  1  0
 22 24  1  0
 24 25  1  0
 25 26  2  0
 26 27  1  0
 27 28  2  0
 28 31  1  0
 31 32  1  0
 32 33  1  0
 33 34  1  0
 33 35  2  0
 35 36  1  0
 36 37  1  0
 28 29  1  0
 29 30  2  0
 18 13  1  0
  8  3  1  0
 30 25  1  0
 36 31  2  0
 16 19  1  0
  6  9  1  0
 22 23  1  0
M  END
> <minimizedAffinity>
-6.67495

> <CNNscore>
0.3139485121

> <CNNaffinity>
5.4051861763

> <CNN_VS>
1.6969501972

> <CNNaffinity_variance>
0.3285446167

$$$$



 37 40  0  0  0  0  0  0  0  0999 V2000
   12.1999   51.1377   84.1929 C   0  0  0  0  0  0  0  0  0  0  0  0
   11.8376   52.2219   83.7158 O   0  0  0  0  0  0  0  0  0  0  0  0
   11.8735   50.8224   85.4925 N   0  0  0  0  0  0  0  0  0  0  0  0
   11.7723   49.4846   86.0682 C   0  0  0  0  0  0  0  0  0  0  0  0
   10.5854   49.5782   87.0242 C   0  0  0  0  0  0  0  0  0  0  0  0
    9.3528   49.4213   86.3185 O   0  0  0  0  0  0  0  0  0  0  0  0
   10.6939   50.9906   87.5697 C   0  0  0  0  0  0  0  0  0  0  0  0
   11.2000   51.8074   86.3708 C   0  0  0  0  0  0  0  0  0  0  0  0
    9.2945   50.0890   85.6173 H   0  0  0  0  0  0  0  0  0  0  0  0
   11.4107   47.7840   83.7751 C   0  0  0  0  0  0  0  0  0  0  0  0
   11.7488   48.2294   82.3738 C   0  0  0  0  0  0  0  0  0  0  0  0
   11.4224   47.5509   81.3984 O   0  0  0  0  0  0  0  0  0  0  0  0
   12.4360   49.4174   82.2349 N   0  0  0  0  0  0  0  0  0  0  0  0
   12.9506   49.8056   80.9298 C   0  0  0  0  0  0  0  0  0  0  0  0
   13.6873   51.1202   81.1710 C   0  0  0  0  0  0  0  0  0  0  0  0
   14.7718   51.3282   80.2827 O   0  0  0  0  0  0  0  0  0  0  0  0
   14.1727   50.9825   82.6104 C   0  0  0  0  0  0  0  0  0  0  0  0
   13.0562   50.1953   83.3057 C   0  0  0  0  0  0  0  0  0  0  0  0
   15.4040   50.5974   80.3676 H   0  0  0  0  0  0  0  0  0  0  0  0
   12.1343   52.9565   86.8326 C   0  0  0  0  0  0  0  0  0  0  0  0
   12.9027   53.5458   86.0763 O   0  0  0  0  0  0  0  0  0  0  0  0
   12.0758   53.2253   88.1797 N   0  0  0  0  0  0  0  0  0  0  0  0
   11.3991   52.7584   88.7213 H   0  0  0  0  0  0  0  0  0  0  0  0
   12.9571   54.1578   88.8380 C   0  0  0  0  0  0  0  0  0  0  0  0
   12.7268   54.1341   90.3270 C   0  0  0  0  0  0  0  0  0  0  0  0
   13.6677   54.6885   91.2051 C   0  0  0  0  0  0  0  0  0  0  0  0
   13.4337   54.6943   92.5834 C   0  0  0  0  0  0  0  0  0  0  0  0
   12.2513   54.1564   93.1083 C   0  0  0  0  0  0  0  0  0  0  0  0
   11.3077   53.6093   92.2292 C   0  0  0  0  0  0  0  0  0  0  0  0
   11.5412   53.6019   90.8508 C   0  0  0  0  0  0  0  0  0  0  0  0
   12.0191   54.1657   94.5524 C   0  0  0  0  0  0  0  0  0  0  0  0
   12.1927   52.7156   95.4645 S   0  0  0  0  0  0  0  0  0  0  0  0
   11.7378   53.5660   96.8699 C   0  0  0  0  0  0  0  0  0  0  0  0
   11.6246   52.7059   98.5815 Br  0  0  0  0  0  0  0  0  0  0  0  0
   11.4730   54.8438   96.7290 N   0  0  0  0  0  0  0  0  0  0  0  0
   11.6312   55.2018   95.3965 C   0  0  0  0  0  0  0  0  0  0  0  0
   11.3761   56.6181   95.0167 C   0  0  0  0  0  0  0  0  0  0  0  0
 10 11  1  0
 11 12  2  0
 11 13  1  0
 13 14  1  0
 14 15  1  0
 15 16  1  0
 15 17  1  0
 17 18  1  0
 18  1  1  0
  1  2  2  0
  1  3  1  0
  3  4  1  0
  4  5  1  0
  5  6  1  0
  5  7  1  0
  7  8  1  0
  8 20  1  0
 20 21  2  0
 20 22  1  0
 22 24  1  0
 24 25  1  0
 25 26  2  0
 26 27  1  0
 27 28  2  0
 28 31  1  0
 31 32  1  0
 32 33  1  0
 33 34  1  0
 33 35  2  0
 35 36  1  0
 36 37  1  0
 28 29  1  0
 29 30  2  0
 18 13  1  0
  8  3  1  0
 30 25  1  0
 36 31  2  0
 16 19  1  0
  6  9  1  0
 22 23  1  0
M  END
> <minimizedAffinity>
-8.92443

> <CNNscore>
0.2639361322

> <CNNaffinity>
6.1457562447

> <CNN_VS>
1.6220871210

> <CNNaffinity_variance>
0.0904520378

$$$$



 37 40  0  0  0  0  0  0  0  0999 V2000
   12.8675   48.1955   89.1251 C   0  0  0  0  0  0  0  0  0  0  0  0
   13.9983   48.6770   89.2794 O   0  0  0  0  0  0  0  0  0  0  0  0
   11.7576   48.9793   89.3459 N   0  0  0  0  0  0  0  0  0  0  0  0
   10.4242   48.7841   88.7844 C   0  0  0  0  0  0  0  0  0  0  0  0
    9.9262   50.1999   88.5035 C   0  0  0  0  0  0  0  0  0  0  0  0
   10.4351   50.6778   87.2567 O   0  0  0  0  0  0  0  0  0  0  0  0
   10.5167   51.0052   89.6469 C   0  0  0  0  0  0  0  0  0  0  0  0
   11.8886   50.3544   89.8818 C   0  0  0  0  0  0  0  0  0  0  0  0
   11.4043   50.6404   87.2673 H   0  0  0  0  0  0  0  0  0  0  0  0
   11.7404   47.1954   85.9988 C   0  0  0  0  0  0  0  0  0  0  0  0
   12.9333   46.3012   86.2306 C   0  0  0  0  0  0  0  0  0  0  0  0
   13.4557   45.6890   85.2976 O   0  0  0  0  0  0  0  0  0  0  0  0
   13.4066   46.1983   87.5223 N   0  0  0  0  0  0  0  0  0  0  0  0
   14.4313   45.2142   87.8396 C   0  0  0  0  0  0  0  0  0  0  0  0
   14.6579   45.3508   89.3426 C   0  0  0  0  0  0  0  0  0  0  0  0
   15.0593   44.1415   89.9629 O   0  0  0  0  0  0  0  0  0  0  0  0
   13.2955   45.8071   89.8549 C   0  0  0  0  0  0  0  0  0  0  0  0
   12.7551   46.6986   88.7313 C   0  0  0  0  0  0  0  0  0  0  0  0
   14.3852   43.4608   89.8107 H   0  0  0  0  0  0  0  0  0  0  0  0
   12.2749   50.3928   91.3837 C   0  0  0  0  0  0  0  0  0  0  0  0
   11.7872   49.6414   92.2247 O   0  0  0  0  0  0  0  0  0  0  0  0
   13.1711   51.3827   91.7113 N   0  0  0  0  0  0  0  0  0  0  0  0
   13.5682   51.9142   90.9839 H   0  0  0  0  0  0  0  0  0  0  0  0
   13.5576   51.6805   93.0683 C   0  0  0  0  0  0  0  0  0  0  0  0
   12.6666   52.7510   93.6437 C   0  0  0  0  0  0  0  0  0  0  0  0
   11.6818   53.3616   92.8557 C   0  0  0  0  0  0  0  0  0  0  0  0
   10.8353   54.3299   93.4035 C   0  0  0  0  0  0  0  0  0  0  0  0
   10.9501   54.6980   94.7504 C   0  0  0  0  0  0  0  0  0  0  0  0
   11.9297   54.0815   95.5395 C   0  0  0  0  0  0  0  0  0  0  0  0
   12.7776   53.1138   94.9925 C   0  0  0  0  0  0  0  0  0  0  0  0
   10.0605   55.7146   95.3113 C   0  0  0  0  0  0  0  0  0  0  0  0
    8.4501   55.3011   95.7591 S   0  0  0  0  0  0  0  0  0  0  0  0
    8.1793   56.9212   96.2140 C   0  0  0  0  0  0  0  0  0  0  0  0
    6.4902   57.5085   96.9098 Br  0  0  0  0  0  0  0  0  0  0  0  0
    9.1854   57.7521   96.0720 N   0  0  0  0  0  0  0  0  0  0  0  0
   10.2764   57.0681   95.5516 C   0  0  0  0  0  0  0  0  0  0  0  0
   11.5310   57.8314   95.3095 C   0  0  0  0  0  0  0  0  0  0  0  0
 10 11  1  0
 11 12  2  0
 11 13  1  0
 13 14  1  0
 14 15  1  0
 15 16  1  0
 15 17  1  0
 17 18  1  0
 18  1  1  0
  1  2  2  0
  1  3  1  0
  3  4  1  0
  4  5  1  0
  5  6  1  0
  5  7  1  0
  7  8  1  0
  8 20  1  0
 20 21  2  0
 20 22  1  0
 22 24  1  0
 24 25  1  0
 25 26  2  0
 26 27  1  0
 27 28  2  0
 28 31  1  0
 31 32  1  0
 32 33  1  0
 33 34  1  0
 33 35  2  0
 35 36  1  0
 36 37  1  0
 28 29  1  0
 29 30  2  0
 18 13  1  0
  8  3  1  0
 30 25  1  0
 36 31  2  0
 16 19  1  0
  6  9  1  0
 22 23  1  0
M  END
> <minimizedAffinity>
-6.36659

> <CNNscore>
0.2496025711

> <CNNaffinity>
4.9205741882

> <CNN_VS>
1.2281879187

> <CNNaffinity_variance>
0.3771067560

$$$$
