


 35 35  0  0  0  0  0  0  0  0999 V2000
   39.2406    6.2841    6.4317 C   0  0  0  0  0  0  0  0  0  0  0  0
   39.2690    6.2642    7.9240 C   0  0  0  0  0  0  0  0  0  0  0  0
   38.7173    5.2803    8.7750 C   0  0  0  0  0  0  0  0  0  0  0  0
   38.9663    5.5081   10.0598 N   0  0  0  0  0  0  0  0  0  0  0  0
   39.6669    6.6955   10.0840 O   0  0  0  0  0  0  0  0  0  0  0  0
   39.8477    7.1611    8.8110 C   0  0  0  0  0  0  0  0  0  0  0  0
   40.6254    8.4522    8.6835 C   0  0  0  0  0  0  0  0  0  0  0  0
   40.6458    8.8973    7.2105 C   0  0  0  0  0  0  0  0  0  0  0  0
   42.0867    8.2755    9.1519 C   0  0  0  0  0  0  0  0  0  0  0  0
   39.9924    9.5567    9.5484 C   0  0  0  0  0  0  0  0  0  0  0  0
   38.0366    4.1799    8.3794 O   0  0  0  0  0  0  0  0  0  0  0  0
   37.2327    3.5780    9.4040 C   0  0  0  0  0  0  0  0  0  0  0  0
   37.7831    1.8972    9.6705 P   0  0  0  0  0  0  0  0  0  0  0  0
   36.8114    0.7732    9.5476 O   0  0  0  0  0  0  0  0  0  0  0  0
   38.5003    1.9157   11.1087 O   0  0  0  0  0  0  0  0  0  0  0  0
   39.0826    1.7065    8.7431 O   0  0  0  0  0  0  0  0  0  0  0  0
   37.8313    2.0276   11.8021 H   0  0  0  0  0  0  0  0  0  0  0  0
   38.8134    1.6746    7.8118 H   0  0  0  0  0  0  0  0  0  0  0  0
   39.9225    5.0596    5.7639 C   0  0  0  0  0  0  0  0  0  0  0  0
   41.3498    5.3145    5.5390 N   0  0  0  0  0  0  0  0  0  0  0  0
   41.4582    6.1159    4.9173 H   0  0  0  0  0  0  0  0  0  0  0  0
   41.7788    4.4931    5.1128 H   0  0  0  0  0  0  0  0  0  0  0  0
   39.2075    4.7402    4.4264 C   0  0  0  0  0  0  0  0  0  0  0  0
   38.4920    3.3433    4.2573 C   0  0  0  0  0  0  0  0  0  0  0  0
   38.0630    2.9213    5.6744 C   0  0  0  0  0  0  0  0  0  0  0  0
   39.5287    2.3229    3.7416 C   0  0  0  0  0  0  0  0  0  0  0  0
   37.2858    3.4834    3.2687 C   0  0  0  0  0  0  0  0  0  0  0  0
   35.8405    4.0033    3.6484 C   0  0  0  0  0  0  0  0  0  0  0  0
   34.9988    2.9055    4.2969 C   0  0  0  0  0  0  0  0  0  0  0  0
   35.9543    5.2004    4.6160 C   0  0  0  0  0  0  0  0  0  0  0  0
   35.2191    4.5084    2.2829 C   0  0  0  0  0  0  0  0  0  0  0  0
   32.7377    4.4111    3.0633 C   0  0  0  0  0  0  0  0  0  0  0  0
   33.7577    5.0370    2.1064 C   0  0  0  0  0  0  0  0  0  0  0  0
   33.7954    6.5586    2.4074 C   0  0  0  0  0  0  0  0  0  0  0  0
   33.2613    4.8886    0.6549 C   0  0  0  0  0  0  0  0  0  0  0  0
 32 33  1  0
 33 34  1  0
 33 35  1  0
 33 31  1  0
 31 28  1  0
 28 29  1  0
 28 30  1  0
 28 27  1  0
 27 24  1  0
 24 25  1  0
 24 26  1  0
 24 23  1  0
 23 19  1  0
 19 20  1  0
 19  1  1  0
  1  2  1  0
  2  3  1  0
  3 11  1  0
 11 12  1  0
 12 13  1  0
 13 14  2  0
 13 15  1  0
 13 16  1  0
  3  4  2  0
  4  5  1  0
  5  6  1  0
  6  7  1  0
  7  8  1  0
  7  9  1  0
  7 10  1  0
  6  2  2  0
 20 21  1  0
 20 22  1  0
 15 17  1  0
 16 18  1  0
M  END
> <minimizedAffinity>
-7.54443

> <CNNscore>
0.4645629525

> <CNNaffinity>
6.8028702736

> <CNN_VS>
3.1603615284

> <CNNaffinity_variance>
0.3276826441

$$$$



 35 35  0  0  0  0  0  0  0  0999 V2000
   39.1077    5.6467    6.3222 C   0  0  0  0  0  0  0  0  0  0  0  0
   39.1035    5.7162    7.8133 C   0  0  0  0  0  0  0  0  0  0  0  0
   38.5512    4.7741    8.7100 C   0  0  0  0  0  0  0  0  0  0  0  0
   38.7675    5.0827    9.9837 N   0  0  0  0  0  0  0  0  0  0  0  0
   39.4456    6.2830    9.9515 O   0  0  0  0  0  0  0  0  0  0  0  0
   39.6460    6.6753    8.6569 C   0  0  0  0  0  0  0  0  0  0  0  0
   40.4027    7.9715    8.4686 C   0  0  0  0  0  0  0  0  0  0  0  0
   39.6259    9.1220    9.1327 C   0  0  0  0  0  0  0  0  0  0  0  0
   40.5733    8.3091    6.9709 C   0  0  0  0  0  0  0  0  0  0  0  0
   41.8099    7.8749    9.0844 C   0  0  0  0  0  0  0  0  0  0  0  0
   37.8995    3.6390    8.3668 O   0  0  0  0  0  0  0  0  0  0  0  0
   38.0978    2.5433    9.2714 C   0  0  0  0  0  0  0  0  0  0  0  0
   36.5091    1.9853    9.8747 P   0  0  0  0  0  0  0  0  0  0  0  0
   35.2778    2.7532    9.5330 O   0  0  0  0  0  0  0  0  0  0  0  0
   36.6972    1.8290   11.4632 O   0  0  0  0  0  0  0  0  0  0  0  0
   36.4083    0.4303    9.4786 O   0  0  0  0  0  0  0  0  0  0  0  0
   36.7761    2.7072   11.8674 H   0  0  0  0  0  0  0  0  0  0  0  0
   36.2888    0.3481    8.5195 H   0  0  0  0  0  0  0  0  0  0  0  0
   40.0617    4.5712    5.7360 C   0  0  0  0  0  0  0  0  0  0  0  0
   41.3479    5.1653    5.3548 N   0  0  0  0  0  0  0  0  0  0  0  0
   41.1951    5.8770    4.6402 H   0  0  0  0  0  0  0  0  0  0  0  0
   41.9618    4.4392    4.9857 H   0  0  0  0  0  0  0  0  0  0  0  0
   39.3872    3.8985    4.5134 C   0  0  0  0  0  0  0  0  0  0  0  0
   39.1011    2.3467    4.5567 C   0  0  0  0  0  0  0  0  0  0  0  0
   39.6455    1.8608    5.9124 C   0  0  0  0  0  0  0  0  0  0  0  0
   39.9174    1.6682    3.4363 C   0  0  0  0  0  0  0  0  0  0  0  0
   37.5665    2.0870    4.3846 C   0  0  0  0  0  0  0  0  0  0  0  0
   36.9188    0.8030    3.7252 C   0  0  0  0  0  0  0  0  0  0  0  0
   35.6954    0.3248    4.5053 C   0  0  0  0  0  0  0  0  0  0  0  0
   36.5088    1.1144    2.2701 C   0  0  0  0  0  0  0  0  0  0  0  0
   38.0789   -0.2739    3.7089 C   0  0  0  0  0  0  0  0  0  0  0  0
   36.7384   -2.2508    2.6740 C   0  0  0  0  0  0  0  0  0  0  0  0
   38.0969   -1.5560    2.8131 C   0  0  0  0  0  0  0  0  0  0  0  0
   38.5268   -1.1010    1.3935 C   0  0  0  0  0  0  0  0  0  0  0  0
   39.1514   -2.5758    3.2856 C   0  0  0  0  0  0  0  0  0  0  0  0
 32 33  1  0
 33 34  1  0
 33 35  1  0
 33 31  1  0
 31 28  1  0
 28 29  1  0
 28 30  1  0
 28 27  1  0
 27 24  1  0
 24 25  1  0
 24 26  1  0
 24 23  1  0
 23 19  1  0
 19 20  1  0
 19  1  1  0
  1  2  1  0
  2  3  1  0
  3 11  1  0
 11 12  1  0
 12 13  1  0
 13 14  2  0
 13 15  1  0
 13 16  1  0
  3  4  2  0
  4  5  1  0
  5  6  1  0
  6  7  1  0
  7  8  1  0
  7  9  1  0
  7 10  1  0
  6  2  2  0
 20 21  1  0
 20 22  1  0
 15 17  1  0
 16 18  1  0
M  END
> <minimizedAffinity>
-6.81139

> <CNNscore>
0.4074332416

> <CNNaffinity>
6.4772858620

> <CNN_VS>
2.6390616894

> <CNNaffinity_variance>
0.1344367713

$$$$



 35 35  0  0  0  0  0  0  0  0999 V2000
   37.5978    5.7323    7.9792 C   0  0  0  0  0  0  0  0  0  0  0  0
   38.1822    4.4046    7.6271 C   0  0  0  0  0  0  0  0  0  0  0  0
   38.2897    3.2706    8.4632 C   0  0  0  0  0  0  0  0  0  0  0  0
   38.7954    2.2128    7.8389 N   0  0  0  0  0  0  0  0  0  0  0  0
   39.0763    2.6507    6.5619 O   0  0  0  0  0  0  0  0  0  0  0  0
   38.7198    3.9639    6.4259 C   0  0  0  0  0  0  0  0  0  0  0  0
   38.9512    4.5738    5.0612 C   0  0  0  0  0  0  0  0  0  0  0  0
   39.7745    5.8656    5.2077 C   0  0  0  0  0  0  0  0  0  0  0  0
   37.6154    4.9313    4.3726 C   0  0  0  0  0  0  0  0  0  0  0  0
   39.6955    3.5877    4.1433 C   0  0  0  0  0  0  0  0  0  0  0  0
   37.8963    3.1974    9.7558 O   0  0  0  0  0  0  0  0  0  0  0  0
   36.4811    3.3240    9.9544 C   0  0  0  0  0  0  0  0  0  0  0  0
   35.8186    1.7476   10.4791 P   0  0  0  0  0  0  0  0  0  0  0  0
   35.8606    1.3716   11.9212 O   0  0  0  0  0  0  0  0  0  0  0  0
   36.5519    0.6575    9.5533 O   0  0  0  0  0  0  0  0  0  0  0  0
   34.3413    1.6590    9.8510 O   0  0  0  0  0  0  0  0  0  0  0  0
   37.4841    0.5877    9.8124 H   0  0  0  0  0  0  0  0  0  0  0  0
   33.7551    2.2773   10.3148 H   0  0  0  0  0  0  0  0  0  0  0  0
   38.5392    6.6432    8.8126 C   0  0  0  0  0  0  0  0  0  0  0  0
   39.7667    5.9288    9.1806 N   0  0  0  0  0  0  0  0  0  0  0  0
   39.5293    5.1149    9.7477 H   0  0  0  0  0  0  0  0  0  0  0  0
   40.3744    6.5499    9.7148 H   0  0  0  0  0  0  0  0  0  0  0  0
   37.7913    7.1319   10.0791 C   0  0  0  0  0  0  0  0  0  0  0  0
   37.8261    8.6678   10.4418 C   0  0  0  0  0  0  0  0  0  0  0  0
   36.5347    9.2639    9.8527 C   0  0  0  0  0  0  0  0  0  0  0  0
   39.0292    9.3125    9.7214 C   0  0  0  0  0  0  0  0  0  0  0  0
   37.9281    8.8421   11.9946 C   0  0  0  0  0  0  0  0  0  0  0  0
   37.5416   10.1470   12.8014 C   0  0  0  0  0  0  0  0  0  0  0  0
   36.3121   10.8332   12.2084 C   0  0  0  0  0  0  0  0  0  0  0  0
   37.2650    9.7857   14.2763 C   0  0  0  0  0  0  0  0  0  0  0  0
   38.8311   11.0628   12.7338 C   0  0  0  0  0  0  0  0  0  0  0  0
   40.3939   11.5822   14.7497 C   0  0  0  0  0  0  0  0  0  0  0  0
   39.2654   12.0794   13.8403 C   0  0  0  0  0  0  0  0  0  0  0  0
   39.7909   13.3404   13.1047 C   0  0  0  0  0  0  0  0  0  0  0  0
   38.0733   12.5388   14.7024 C   0  0  0  0  0  0  0  0  0  0  0  0
 32 33  1  0
 33 34  1  0
 33 35  1  0
 33 31  1  0
 31 28  1  0
 28 29  1  0
 28 30  1  0
 28 27  1  0
 27 24  1  0
 24 25  1  0
 24 26  1  0
 24 23  1  0
 23 19  1  0
 19 20  1  0
 19  1  1  0
  1  2  1  0
  2  3  1  0
  3 11  1  0
 11 12  1  0
 12 13  1  0
 13 14  2  0
 13 15  1  0
 13 16  1  0
  3  4  2  0
  4  5  1  0
  5  6  1  0
  6  7  1  0
  7  8  1  0
  7  9  1  0
  7 10  1  0
  6  2  2  0
 20 21  1  0
 20 22  1  0
 15 17  1  0
 16 18  1  0
M  END
> <minimizedAffinity>
-6.79084

> <CNNscore>
0.2898330688

> <CNNaffinity>
6.0552120209

> <CNN_VS>
1.7550007105

> <CNNaffinity_variance>
0.1546682864

$$$$



 35 35  0  0  0  0  0  0  0  0999 V2000
   39.6458    5.9071    6.5549 C   0  0  0  0  0  0  0  0  0  0  0  0
   39.5037    6.0125    8.0372 C   0  0  0  0  0  0  0  0  0  0  0  0
   38.9778    5.0385    8.9155 C   0  0  0  0  0  0  0  0  0  0  0  0
   39.0478    5.4001   10.1917 N   0  0  0  0  0  0  0  0  0  0  0  0
   39.5952    6.6656   10.1761 O   0  0  0  0  0  0  0  0  0  0  0  0
   39.8656    7.0453    8.8905 C   0  0  0  0  0  0  0  0  0  0  0  0
   40.4944    8.4108    8.7228 C   0  0  0  0  0  0  0  0  0  0  0  0
   39.7225    9.4400    9.5673 C   0  0  0  0  0  0  0  0  0  0  0  0
   40.4522    8.8708    7.2488 C   0  0  0  0  0  0  0  0  0  0  0  0
   41.9704    8.3877    9.1583 C   0  0  0  0  0  0  0  0  0  0  0  0
   38.4825    3.8314    8.5572 O   0  0  0  0  0  0  0  0  0  0  0  0
   37.2758    3.4584    9.2376 C   0  0  0  0  0  0  0  0  0  0  0  0
   37.6173    2.0803   10.3256 P   0  0  0  0  0  0  0  0  0  0  0  0
   37.0196    2.0512   11.6911 O   0  0  0  0  0  0  0  0  0  0  0  0
   39.2202    1.9706   10.3699 O   0  0  0  0  0  0  0  0  0  0  0  0
   37.2973    0.7554    9.4728 O   0  0  0  0  0  0  0  0  0  0  0  0
   39.5821    2.7215   10.8659 H   0  0  0  0  0  0  0  0  0  0  0  0
   36.3384    0.6718    9.3529 H   0  0  0  0  0  0  0  0  0  0  0  0
   39.2571    4.5210    5.9734 C   0  0  0  0  0  0  0  0  0  0  0  0
   40.4432    3.6744    5.8031 N   0  0  0  0  0  0  0  0  0  0  0  0
   41.0893    4.1213    5.1525 H   0  0  0  0  0  0  0  0  0  0  0  0
   40.1625    2.7662    5.4335 H   0  0  0  0  0  0  0  0  0  0  0  0
   38.5284    4.7185    4.6199 C   0  0  0  0  0  0  0  0  0  0  0  0
   37.2466    3.8512    4.3088 C   0  0  0  0  0  0  0  0  0  0  0  0
   36.4619    3.7791    5.6314 C   0  0  0  0  0  0  0  0  0  0  0  0
   37.7011    2.4239    3.9374 C   0  0  0  0  0  0  0  0  0  0  0  0
   36.4300    4.5124    3.1477 C   0  0  0  0  0  0  0  0  0  0  0  0
   34.9560    4.1252    2.7231 C   0  0  0  0  0  0  0  0  0  0  0  0
   34.5971    4.6927    1.3507 C   0  0  0  0  0  0  0  0  0  0  0  0
   34.8070    2.5891    2.6970 C   0  0  0  0  0  0  0  0  0  0  0  0
   34.0363    4.7074    3.8725 C   0  0  0  0  0  0  0  0  0  0  0  0
   33.8098    7.0991    2.8702 C   0  0  0  0  0  0  0  0  0  0  0  0
   33.1913    6.0192    3.7640 C   0  0  0  0  0  0  0  0  0  0  0  0
   31.8322    5.6220    3.1297 C   0  0  0  0  0  0  0  0  0  0  0  0
   32.8720    6.6165    5.1484 C   0  0  0  0  0  0  0  0  0  0  0  0
 32 33  1  0
 33 34  1  0
 33 35  1  0
 33 31  1  0
 31 28  1  0
 28 29  1  0
 28 30  1  0
 28 27  1  0
 27 24  1  0
 24 25  1  0
 24 26  1  0
 24 23  1  0
 23 19  1  0
 19 20  1  0
 19  1  1  0
  1  2  1  0
  2  3  1  0
  3 11  1  0
 11 12  1  0
 12 13  1  0
 13 14  2  0
 13 15  1  0
 13 16  1  0
  3  4  2  0
  4  5  1  0
  5  6  1  0
  6  7  1  0
  7  8  1  0
  7  9  1  0
  7 10  1  0
  6  2  2  0
 20 21  1  0
 20 22  1  0
 15 17  1  0
 16 18  1  0
M  END
> <minimizedAffinity>
-7.11626

> <CNNscore>
0.2094974518

> <CNNaffinity>
6.4642539024

> <CNN_VS>
1.3542447090

> <CNNaffinity_variance>
0.5476312041

$$$$



 35 35  0  0  0  0  0  0  0  0999 V2000
   39.1654    5.5557    5.7266 C   0  0  0  0  0  0  0  0  0  0  0  0
   39.1535    5.5650    7.2192 C   0  0  0  0  0  0  0  0  0  0  0  0
   38.4986    4.6493    8.0732 C   0  0  0  0  0  0  0  0  0  0  0  0
   38.7327    4.8824    9.3598 N   0  0  0  0  0  0  0  0  0  0  0  0
   39.5307    6.0067    9.3809 O   0  0  0  0  0  0  0  0  0  0  0  0
   39.7832    6.4284    8.1047 C   0  0  0  0  0  0  0  0  0  0  0  0
   40.6707    7.6463    7.9743 C   0  0  0  0  0  0  0  0  0  0  0  0
   39.7985    8.9097    7.8687 C   0  0  0  0  0  0  0  0  0  0  0  0
   41.5528    7.5648    6.7088 C   0  0  0  0  0  0  0  0  0  0  0  0
   41.6109    7.7672    9.1868 C   0  0  0  0  0  0  0  0  0  0  0  0
   37.7373    3.6021    7.6798 O   0  0  0  0  0  0  0  0  0  0  0  0
   36.7643    3.1788    8.6454 C   0  0  0  0  0  0  0  0  0  0  0  0
   37.3803    1.7370    9.5062 P   0  0  0  0  0  0  0  0  0  0  0  0
   36.5712    0.4848    9.5231 O   0  0  0  0  0  0  0  0  0  0  0  0
   37.7215    2.2509   10.9903 O   0  0  0  0  0  0  0  0  0  0  0  0
   38.8779    1.5084    8.9679 O   0  0  0  0  0  0  0  0  0  0  0  0
   36.8967    2.4395   11.4648 H   0  0  0  0  0  0  0  0  0  0  0  0
   38.8472    1.1870    8.0532 H   0  0  0  0  0  0  0  0  0  0  0  0
   39.9827    4.3929    5.1020 C   0  0  0  0  0  0  0  0  0  0  0  0
   41.0827    4.9097    4.2801 N   0  0  0  0  0  0  0  0  0  0  0  0
   40.7030    5.4743    3.5201 H   0  0  0  0  0  0  0  0  0  0  0  0
   41.6127    4.1294    3.8919 H   0  0  0  0  0  0  0  0  0  0  0  0
   39.0404    3.5007    4.2545 C   0  0  0  0  0  0  0  0  0  0  0  0
   38.8973    1.9729    4.6251 C   0  0  0  0  0  0  0  0  0  0  0  0
   40.0684    1.6637    5.5755 C   0  0  0  0  0  0  0  0  0  0  0  0
   39.0840    1.1391    3.3399 C   0  0  0  0  0  0  0  0  0  0  0  0
   37.4965    1.7157    5.2759 C   0  0  0  0  0  0  0  0  0  0  0  0
   36.1905    1.2694    4.5024 C   0  0  0  0  0  0  0  0  0  0  0  0
   36.3701   -0.0912    3.8311 C   0  0  0  0  0  0  0  0  0  0  0  0
   35.0003    1.2035    5.4830 C   0  0  0  0  0  0  0  0  0  0  0  0
   35.9245    2.4254    3.4543 C   0  0  0  0  0  0  0  0  0  0  0  0
   35.8811    1.1191    1.2031 C   0  0  0  0  0  0  0  0  0  0  0  0
   35.2539    2.2275    2.0551 C   0  0  0  0  0  0  0  0  0  0  0  0
   33.7799    1.8229    2.3213 C   0  0  0  0  0  0  0  0  0  0  0  0
   35.2102    3.5380    1.2452 C   0  0  0  0  0  0  0  0  0  0  0  0
 32 33  1  0
 33 34  1  0
 33 35  1  0
 33 31  1  0
 31 28  1  0
 28 29  1  0
 28 30  1  0
 28 27  1  0
 27 24  1  0
 24 25  1  0
 24 26  1  0
 24 23  1  0
 23 19  1  0
 19 20  1  0
 19  1  1  0
  1  2  1  0
  2  3  1  0
  3 11  1  0
 11 12  1  0
 12 13  1  0
 13 14  2  0
 13 15  1  0
 13 16  1  0
  3  4  2  0
  4  5  1  0
  5  6  1  0
  6  7  1  0
  7  8  1  0
  7  9  1  0
  7 10  1  0
  6  2  2  0
 20 21  1  0
 20 22  1  0
 15 17  1  0
 16 18  1  0
M  END
> <minimizedAffinity>
-6.98264

> <CNNscore>
0.1887607723

> <CNNaffinity>
6.0616412163

> <CNN_VS>
1.1442000866

> <CNNaffinity_variance>
0.0636606440

$$$$



 35 35  0  0  0  0  0  0  0  0999 V2000
   37.2462    4.7645    8.3533 C   0  0  0  0  0  0  0  0  0  0  0  0
   37.7249    5.1647    9.7093 C   0  0  0  0  0  0  0  0  0  0  0  0
   38.0122    4.3122   10.7989 C   0  0  0  0  0  0  0  0  0  0  0  0
   38.4873    4.9632   11.8548 N   0  0  0  0  0  0  0  0  0  0  0  0
   38.4829    6.2924   11.4880 O   0  0  0  0  0  0  0  0  0  0  0  0
   38.0215    6.4256   10.2076 C   0  0  0  0  0  0  0  0  0  0  0  0
   37.9838    7.8358    9.6617 C   0  0  0  0  0  0  0  0  0  0  0  0
   36.7033    8.0321    8.8313 C   0  0  0  0  0  0  0  0  0  0  0  0
   39.1968    8.1160    8.7472 C   0  0  0  0  0  0  0  0  0  0  0  0
   38.0201    8.8639   10.8065 C   0  0  0  0  0  0  0  0  0  0  0  0
   37.8791    2.9657   10.8098 O   0  0  0  0  0  0  0  0  0  0  0  0
   36.6830    2.4918   11.4448 C   0  0  0  0  0  0  0  0  0  0  0  0
   35.6876    1.6173   10.2433 P   0  0  0  0  0  0  0  0  0  0  0  0
   34.8322    2.3847    9.2934 O   0  0  0  0  0  0  0  0  0  0  0  0
   34.8330    0.5593   11.0998 O   0  0  0  0  0  0  0  0  0  0  0  0
   36.6851    0.5960    9.5037 O   0  0  0  0  0  0  0  0  0  0  0  0
   34.1638    1.0303   11.6206 H   0  0  0  0  0  0  0  0  0  0  0  0
   37.2879    1.0924    8.9283 H   0  0  0  0  0  0  0  0  0  0  0  0
   38.3089    4.0299    7.4923 C   0  0  0  0  0  0  0  0  0  0  0  0
   39.5417    4.8197    7.3976 N   0  0  0  0  0  0  0  0  0  0  0  0
   39.3384    5.7154    6.9540 H   0  0  0  0  0  0  0  0  0  0  0  0
   40.2286    4.3123    6.8399 H   0  0  0  0  0  0  0  0  0  0  0  0
   37.7266    3.7555    6.0824 C   0  0  0  0  0  0  0  0  0  0  0  0
   37.4959    4.9706    5.1015 C   0  0  0  0  0  0  0  0  0  0  0  0
   38.8462    5.7061    5.0253 C   0  0  0  0  0  0  0  0  0  0  0  0
   36.4615    5.9227    5.7384 C   0  0  0  0  0  0  0  0  0  0  0  0
   37.0073    4.4419    3.7109 C   0  0  0  0  0  0  0  0  0  0  0  0
   35.5028    4.3860    3.2246 C   0  0  0  0  0  0  0  0  0  0  0  0
   34.8482    5.7661    3.2566 C   0  0  0  0  0  0  0  0  0  0  0  0
   35.4391    3.8221    1.7892 C   0  0  0  0  0  0  0  0  0  0  0  0
   34.7968    3.3639    4.2059 C   0  0  0  0  0  0  0  0  0  0  0  0
   35.0917    1.2033    5.6275 C   0  0  0  0  0  0  0  0  0  0  0  0
   35.0523    1.8209    4.2258 C   0  0  0  0  0  0  0  0  0  0  0  0
   33.8682    1.1640    3.4683 C   0  0  0  0  0  0  0  0  0  0  0  0
   36.3320    1.4375    3.4574 C   0  0  0  0  0  0  0  0  0  0  0  0
 32 33  1  0
 33 34  1  0
 33 35  1  0
 33 31  1  0
 31 28  1  0
 28 29  1  0
 28 30  1  0
 28 27  1  0
 27 24  1  0
 24 25  1  0
 24 26  1  0
 24 23  1  0
 23 19  1  0
 19 20  1  0
 19  1  1  0
  1  2  1  0
  2  3  1  0
  3 11  1  0
 11 12  1  0
 12 13  1  0
 13 14  2  0
 13 15  1  0
 13 16  1  0
  3  4  2  0
  4  5  1  0
  5  6  1  0
  6  7  1  0
  7  8  1  0
  7  9  1  0
  7 10  1  0
  6  2  2  0
 20 21  1  0
 20 22  1  0
 15 17  1  0
 16 18  1  0
M  END
> <minimizedAffinity>
-6.33266

> <CNNscore>
0.1770769507

> <CNNaffinity>
6.1490440369

> <CNN_VS>
1.0888539553

> <CNNaffinity_variance>
0.3689920604

$$$$



 35 35  0  0  0  0  0  0  0  0999 V2000
   38.7779    8.0669    9.9007 C   0  0  0  0  0  0  0  0  0  0  0  0
   37.3520    7.6537   10.0576 C   0  0  0  0  0  0  0  0  0  0  0  0
   36.2092    8.3319    9.5775 C   0  0  0  0  0  0  0  0  0  0  0  0
   35.0791    7.6762    9.8168 N   0  0  0  0  0  0  0  0  0  0  0  0
   35.4598    6.5478   10.5120 O   0  0  0  0  0  0  0  0  0  0  0  0
   36.8182    6.5276   10.6683 C   0  0  0  0  0  0  0  0  0  0  0  0
   37.3821    5.3281   11.3971 C   0  0  0  0  0  0  0  0  0  0  0  0
   37.8010    4.2557   10.3760 C   0  0  0  0  0  0  0  0  0  0  0  0
   36.3344    4.7045   12.3457 C   0  0  0  0  0  0  0  0  0  0  0  0
   38.5974    5.7315   12.2509 C   0  0  0  0  0  0  0  0  0  0  0  0
   36.2074    9.5039    8.9014 O   0  0  0  0  0  0  0  0  0  0  0  0
   35.0404    9.7239    8.0963 C   0  0  0  0  0  0  0  0  0  0  0  0
   34.3723   11.3425    8.4610 P   0  0  0  0  0  0  0  0  0  0  0  0
   32.8969   11.5243    8.5752 O   0  0  0  0  0  0  0  0  0  0  0  0
   35.0131   12.3175    7.3556 O   0  0  0  0  0  0  0  0  0  0  0  0
   35.1705   11.8680    9.7539 O   0  0  0  0  0  0  0  0  0  0  0  0
   34.6244   12.1228    6.4884 H   0  0  0  0  0  0  0  0  0  0  0  0
   34.8897   11.3645   10.5340 H   0  0  0  0  0  0  0  0  0  0  0  0
   39.6311    7.0998    9.0364 C   0  0  0  0  0  0  0  0  0  0  0  0
   41.0611    7.2741    9.3144 N   0  0  0  0  0  0  0  0  0  0  0  0
   41.3376    8.2294    9.0878 H   0  0  0  0  0  0  0  0  0  0  0  0
   41.6001    6.6204    8.7463 H   0  0  0  0  0  0  0  0  0  0  0  0
   39.3317    7.3521    7.5367 C   0  0  0  0  0  0  0  0  0  0  0  0
   38.6763    6.1967    6.6838 C   0  0  0  0  0  0  0  0  0  0  0  0
   37.1924    6.5793    6.5356 C   0  0  0  0  0  0  0  0  0  0  0  0
   38.7594    4.8851    7.4929 C   0  0  0  0  0  0  0  0  0  0  0  0
   39.4159    6.0695    5.3095 C   0  0  0  0  0  0  0  0  0  0  0  0
   39.4413    4.7794    4.3942 C   0  0  0  0  0  0  0  0  0  0  0  0
   40.4025    4.9414    3.2178 C   0  0  0  0  0  0  0  0  0  0  0  0
   39.8603    3.5530    5.2327 C   0  0  0  0  0  0  0  0  0  0  0  0
   37.9425    4.5868    3.9225 C   0  0  0  0  0  0  0  0  0  0  0  0
   36.0039    3.1256    2.9830 C   0  0  0  0  0  0  0  0  0  0  0  0
   37.1472    3.2420    3.9964 C   0  0  0  0  0  0  0  0  0  0  0  0
   38.1584    2.1088    3.6790 C   0  0  0  0  0  0  0  0  0  0  0  0
   36.6094    2.9663    5.4141 C   0  0  0  0  0  0  0  0  0  0  0  0
 32 33  1  0
 33 34  1  0
 33 35  1  0
 33 31  1  0
 31 28  1  0
 28 29  1  0
 28 30  1  0
 28 27  1  0
 27 24  1  0
 24 25  1  0
 24 26  1  0
 24 23  1  0
 23 19  1  0
 19 20  1  0
 19  1  1  0
  1  2  1  0
  2  3  1  0
  3 11  1  0
 11 12  1  0
 12 13  1  0
 13 14  2  0
 13 15  1  0
 13 16  1  0
  3  4  2  0
  4  5  1  0
  5  6  1  0
  6  7  1  0
  7  8  1  0
  7  9  1  0
  7 10  1  0
  6  2  2  0
 20 21  1  0
 20 22  1  0
 15 17  1  0
 16 18  1  0
M  END
> <minimizedAffinity>
-6.28298

> <CNNscore>
0.1357589811

> <CNNaffinity>
5.3387660980

> <CNN_VS>
0.7247854471

> <CNNaffinity_variance>
0.3087211847

$$$$



 35 35  0  0  0  0  0  0  0  0999 V2000
   36.1694    3.9891    2.9395 C   0  0  0  0  0  0  0  0  0  0  0  0
   35.3407    2.8233    2.5124 C   0  0  0  0  0  0  0  0  0  0  0  0
   35.8036    1.5684    2.0568 C   0  0  0  0  0  0  0  0  0  0  0  0
   34.8193    0.7096    1.8158 N   0  0  0  0  0  0  0  0  0  0  0  0
   33.6605    1.4110    2.0737 O   0  0  0  0  0  0  0  0  0  0  0  0
   33.9606    2.6803    2.4847 C   0  0  0  0  0  0  0  0  0  0  0  0
   32.7793    3.5610    2.8268 C   0  0  0  0  0  0  0  0  0  0  0  0
   31.4718    2.7935    2.5634 C   0  0  0  0  0  0  0  0  0  0  0  0
   32.7661    4.8422    1.9638 C   0  0  0  0  0  0  0  0  0  0  0  0
   32.8344    3.9972    4.3018 C   0  0  0  0  0  0  0  0  0  0  0  0
   37.0988    1.2078    1.9041 O   0  0  0  0  0  0  0  0  0  0  0  0
   37.3285   -0.2081    1.9299 C   0  0  0  0  0  0  0  0  0  0  0  0
   37.7483   -0.7647    0.2827 P   0  0  0  0  0  0  0  0  0  0  0  0
   39.1736   -0.7693   -0.1548 O   0  0  0  0  0  0  0  0  0  0  0  0
   36.8217    0.1054   -0.7009 O   0  0  0  0  0  0  0  0  0  0  0  0
   37.0332   -2.1936    0.1044 O   0  0  0  0  0  0  0  0  0  0  0  0
   37.1308    1.0248   -0.7072 H   0  0  0  0  0  0  0  0  0  0  0  0
   37.4879   -2.8532    0.6513 H   0  0  0  0  0  0  0  0  0  0  0  0
   36.9965    3.7454    4.2306 C   0  0  0  0  0  0  0  0  0  0  0  0
   36.1218    3.3795    5.3503 N   0  0  0  0  0  0  0  0  0  0  0  0
   35.4665    4.1396    5.5323 H   0  0  0  0  0  0  0  0  0  0  0  0
   36.6872    3.2113    6.1824 H   0  0  0  0  0  0  0  0  0  0  0  0
   37.8098    5.0211    4.5674 C   0  0  0  0  0  0  0  0  0  0  0  0
   39.3406    4.8786    4.9254 C   0  0  0  0  0  0  0  0  0  0  0  0
   40.0906    4.9527    3.5830 C   0  0  0  0  0  0  0  0  0  0  0  0
   39.5719    3.4786    5.5323 C   0  0  0  0  0  0  0  0  0  0  0  0
   39.7577    6.0111    5.9231 C   0  0  0  0  0  0  0  0  0  0  0  0
   39.0446    6.3351    7.2977 C   0  0  0  0  0  0  0  0  0  0  0  0
   37.9589    7.3973    7.1330 C   0  0  0  0  0  0  0  0  0  0  0  0
   38.4186    5.0484    7.8766 C   0  0  0  0  0  0  0  0  0  0  0  0
   40.2100    6.8117    8.2572 C   0  0  0  0  0  0  0  0  0  0  0  0
   41.9494    8.5052    9.1964 C   0  0  0  0  0  0  0  0  0  0  0  0
   40.5765    8.3045    8.5464 C   0  0  0  0  0  0  0  0  0  0  0  0
   40.6082    9.0288    7.1747 C   0  0  0  0  0  0  0  0  0  0  0  0
   39.4981    9.0106    9.3911 C   0  0  0  0  0  0  0  0  0  0  0  0
 32 33  1  0
 33 34  1  0
 33 35  1  0
 33 31  1  0
 31 28  1  0
 28 29  1  0
 28 30  1  0
 28 27  1  0
 27 24  1  0
 24 25  1  0
 24 26  1  0
 24 23  1  0
 23 19  1  0
 19 20  1  0
 19  1  1  0
  1  2  1  0
  2  3  1  0
  3 11  1  0
 11 12  1  0
 12 13  1  0
 13 14  2  0
 13 15  1  0
 13 16  1  0
  3  4  2  0
  4  5  1  0
  5  6  1  0
  6  7  1  0
  7  8  1  0
  7  9  1  0
  7 10  1  0
  6  2  2  0
 20 21  1  0
 20 22  1  0
 15 17  1  0
 16 18  1  0
M  END
> <minimizedAffinity>
-6.90303

> <CNNscore>
0.1341906786

> <CNNaffinity>
4.7244772911

> <CNN_VS>
0.6339808106

> <CNNaffinity_variance>
0.6152912974

$$$$



 35 35  0  0  0  0  0  0  0  0999 V2000
   39.2291    5.0815    5.8017 C   0  0  0  0  0  0  0  0  0  0  0  0
   39.1389    5.2094    7.2862 C   0  0  0  0  0  0  0  0  0  0  0  0
   38.5967    4.2704    8.1923 C   0  0  0  0  0  0  0  0  0  0  0  0
   38.7237    4.6421    9.4612 N   0  0  0  0  0  0  0  0  0  0  0  0
   39.3282    5.8806    9.4131 O   0  0  0  0  0  0  0  0  0  0  0  0
   39.5750    6.2334    8.1151 C   0  0  0  0  0  0  0  0  0  0  0  0
   40.2604    7.5663    7.9113 C   0  0  0  0  0  0  0  0  0  0  0  0
   39.2257    8.6997    8.0245 C   0  0  0  0  0  0  0  0  0  0  0  0
   40.9161    7.6524    6.5153 C   0  0  0  0  0  0  0  0  0  0  0  0
   41.3703    7.7734    8.9574 C   0  0  0  0  0  0  0  0  0  0  0  0
   38.0352    3.0838    7.8644 O   0  0  0  0  0  0  0  0  0  0  0  0
   36.7067    2.8945    8.3719 C   0  0  0  0  0  0  0  0  0  0  0  0
   36.7806    1.8902    9.8502 P   0  0  0  0  0  0  0  0  0  0  0  0
   36.1465    2.3789   11.1079 O   0  0  0  0  0  0  0  0  0  0  0  0
   38.3405    1.5607   10.0535 O   0  0  0  0  0  0  0  0  0  0  0  0
   36.2686    0.4291    9.4167 O   0  0  0  0  0  0  0  0  0  0  0  0
   38.8083    2.3657   10.3257 H   0  0  0  0  0  0  0  0  0  0  0  0
   35.3131    0.4571    9.2516 H   0  0  0  0  0  0  0  0  0  0  0  0
   38.3989    3.9104    5.2103 C   0  0  0  0  0  0  0  0  0  0  0  0
   39.2646    2.7759    4.8697 N   0  0  0  0  0  0  0  0  0  0  0  0
   39.9463    3.0668    4.1689 H   0  0  0  0  0  0  0  0  0  0  0  0
   38.6969    2.0151    4.4965 H   0  0  0  0  0  0  0  0  0  0  0  0
   37.6311    4.4065    3.9587 C   0  0  0  0  0  0  0  0  0  0  0  0
   36.0538    4.4552    3.9997 C   0  0  0  0  0  0  0  0  0  0  0  0
   35.6199    3.2151    4.8022 C   0  0  0  0  0  0  0  0  0  0  0  0
   35.5231    4.3087    2.5579 C   0  0  0  0  0  0  0  0  0  0  0  0
   35.5832    5.8001    4.6491 C   0  0  0  0  0  0  0  0  0  0  0  0
   34.2140    6.5353    4.3530 C   0  0  0  0  0  0  0  0  0  0  0  0
   33.9581    6.6677    2.8526 C   0  0  0  0  0  0  0  0  0  0  0  0
   33.0517    5.7555    5.0038 C   0  0  0  0  0  0  0  0  0  0  0  0
   34.3463    7.9425    5.0658 C   0  0  0  0  0  0  0  0  0  0  0  0
   33.7684   10.4752    4.9011 C   0  0  0  0  0  0  0  0  0  0  0  0
   33.2397    9.0478    5.0760 C   0  0  0  0  0  0  0  0  0  0  0  0
   32.3060    8.7538    3.8722 C   0  0  0  0  0  0  0  0  0  0  0  0
   32.3620    8.9745    6.3407 C   0  0  0  0  0  0  0  0  0  0  0  0
 32 33  1  0
 33 34  1  0
 33 35  1  0
 33 31  1  0
 31 28  1  0
 28 29  1  0
 28 30  1  0
 28 27  1  0
 27 24  1  0
 24 25  1  0
 24 26  1  0
 24 23  1  0
 23 19  1  0
 19 20  1  0
 19  1  1  0
  1  2  1  0
  2  3  1  0
  3 11  1  0
 11 12  1  0
 12 13  1  0
 13 14  2  0
 13 15  1  0
 13 16  1  0
  3  4  2  0
  4  5  1  0
  5  6  1  0
  6  7  1  0
  7  8  1  0
  7  9  1  0
  7 10  1  0
  6  2  2  0
 20 21  1  0
 20 22  1  0
 15 17  1  0
 16 18  1  0
M  END
> <minimizedAffinity>
-6.45741

> <CNNscore>
0.1305077374

> <CNNaffinity>
5.9918236732

> <CNN_VS>
0.7819793224

> <CNNaffinity_variance>
0.1080893353

$$$$
