


 25 26  0  0  0  0  0  0  0  0999 V2000
   33.5572   23.9167   27.0713 C   0  0  0  0  0  0  0  0  0  0  0  0
   33.1911   23.1261   25.7901 C   0  0  0  0  0  0  0  0  0  0  0  0
   33.1572   21.5974   26.0235 C   0  0  0  0  0  0  0  0  0  0  0  0
   32.4651   20.9638   24.9355 O   0  0  0  0  0  0  0  0  0  0  0  0
   32.4705   21.2283   27.3497 C   0  0  0  0  0  0  0  0  0  0  0  0
   33.0361   21.9596   28.4332 O   0  0  0  0  0  0  0  0  0  0  0  0
   32.7889   23.3522   28.2894 C   0  0  0  0  0  0  0  0  0  0  0  0
   31.5506   21.2854   24.9029 H   0  0  0  0  0  0  0  0  0  0  0  0
   33.2502   23.9204   29.5309 N   0  0  0  0  0  0  0  0  0  0  0  0
   34.5732   23.8885   29.9028 C   0  0  0  0  0  0  0  0  0  0  0  0
   35.4727   23.4567   29.1914 O   0  0  0  0  0  0  0  0  0  0  0  0
   32.5966   24.3453   30.1322 H   0  0  0  0  0  0  0  0  0  0  0  0
   34.8928   24.4733   31.2347 C   0  0  0  0  0  0  0  0  0  0  0  0
   33.8987   24.9875   32.0778 C   0  0  0  0  0  0  0  0  0  0  0  0
   34.2456   25.5245   33.3201 C   0  0  0  0  0  0  0  0  0  0  0  0
   35.5799   25.5427   33.7267 C   0  0  0  0  0  0  0  0  0  0  0  0
   36.5706   25.0166   32.8986 C   0  0  0  0  0  0  0  0  0  0  0  0
   36.2282   24.4782   31.6571 C   0  0  0  0  0  0  0  0  0  0  0  0
   32.6259   19.7318   27.6592 C   0  0  0  0  0  0  0  0  0  0  0  0
   33.6145   19.1291   26.8273 O   0  0  0  0  0  0  0  0  0  0  0  0
   33.3501   19.2135   25.8978 H   0  0  0  0  0  0  0  0  0  0  0  0
   31.8610   25.6231   27.1738 C   0  0  0  0  0  0  0  0  0  0  0  0
   33.2288   25.3168   26.9522 O   0  0  0  0  0  0  0  0  0  0  0  0
   34.1914   23.4537   24.7916 O   0  0  0  0  0  0  0  0  0  0  0  0
   35.3146   24.1589   25.3053 C   0  0  0  0  0  0  0  0  0  0  0  0
 22 23  1  0
  1 23  1  0
  1  2  1  0
  2 24  1  0
 24 25  1  0
  2  3  1  0
  3  4  1  0
  3  5  1  0
  5 19  1  0
 19 20  1  0
  5  6  1  0
  6  7  1  0
  7  9  1  0
  9 10  1  0
 10 11  2  0
 10 13  1  0
 13 14  2  0
 14 15  1  0
 15 16  2  0
 16 17  1  0
 17 18  2  0
  7  1  1  0
 18 13  1  0
  4  8  1  0
 20 21  1  0
  9 12  1  0
M  END
> <minimizedAffinity>
-8.85848

> <CNNscore>
0.4646332264

> <CNNaffinity>
4.4441223145

> <CNN_VS>
2.0648868084

> <CNNaffinity_variance>
0.5539142489

$$$$



 25 26  0  0  0  0  0  0  0  0999 V2000
   32.4214   23.8389   27.5823 C   0  0  0  0  0  0  0  0  0  0  0  0
   31.4254   23.0444   26.7006 C   0  0  0  0  0  0  0  0  0  0  0  0
   32.0697   21.7973   26.0509 C   0  0  0  0  0  0  0  0  0  0  0  0
   31.0366   20.9224   25.5696 O   0  0  0  0  0  0  0  0  0  0  0  0
   32.9707   21.0309   27.0346 C   0  0  0  0  0  0  0  0  0  0  0  0
   33.9119   21.9073   27.6467 O   0  0  0  0  0  0  0  0  0  0  0  0
   33.2541   22.8725   28.4572 C   0  0  0  0  0  0  0  0  0  0  0  0
   30.4898   20.6274   26.3145 H   0  0  0  0  0  0  0  0  0  0  0  0
   34.3287   23.5493   29.1388 N   0  0  0  0  0  0  0  0  0  0  0  0
   34.1518   24.1599   30.3575 C   0  0  0  0  0  0  0  0  0  0  0  0
   33.1088   24.1149   30.9993 O   0  0  0  0  0  0  0  0  0  0  0  0
   35.2182   23.5750   28.7178 H   0  0  0  0  0  0  0  0  0  0  0  0
   35.3412   24.8597   30.9176 C   0  0  0  0  0  0  0  0  0  0  0  0
   35.3111   25.4897   32.1688 C   0  0  0  0  0  0  0  0  0  0  0  0
   36.4526   26.1322   32.6548 C   0  0  0  0  0  0  0  0  0  0  0  0
   37.6256   26.1411   31.9001 C   0  0  0  0  0  0  0  0  0  0  0  0
   37.6655   25.5008   30.6621 C   0  0  0  0  0  0  0  0  0  0  0  0
   36.5276   24.8568   30.1732 C   0  0  0  0  0  0  0  0  0  0  0  0
   33.7559   19.9204   26.3207 C   0  0  0  0  0  0  0  0  0  0  0  0
   33.5344   18.6519   26.9324 O   0  0  0  0  0  0  0  0  0  0  0  0
   33.8341   18.6808   27.8545 H   0  0  0  0  0  0  0  0  0  0  0  0
   31.6147   26.0776   27.9527 C   0  0  0  0  0  0  0  0  0  0  0  0
   31.7445   24.7598   28.4631 O   0  0  0  0  0  0  0  0  0  0  0  0
   30.9549   23.9528   25.6718 O   0  0  0  0  0  0  0  0  0  0  0  0
   29.5402   23.9847   25.5289 C   0  0  0  0  0  0  0  0  0  0  0  0
 22 23  1  0
  1 23  1  0
  1  2  1  0
  2 24  1  0
 24 25  1  0
  2  3  1  0
  3  4  1  0
  3  5  1  0
  5 19  1  0
 19 20  1  0
  5  6  1  0
  6  7  1  0
  7  9  1  0
  9 10  1  0
 10 11  2  0
 10 13  1  0
 13 14  2  0
 14 15  1  0
 15 16  2  0
 16 17  1  0
 17 18  2  0
  7  1  1  0
 18 13  1  0
  4  8  1  0
 20 21  1  0
  9 12  1  0
M  END
> <minimizedAffinity>
-8.07107

> <CNNscore>
0.4157445431

> <CNNaffinity>
4.3703351021

> <CNN_VS>
1.8169429302

> <CNNaffinity_variance>
0.4088390768

$$$$



 25 26  0  0  0  0  0  0  0  0999 V2000
   37.9314   25.2743   31.7951 C   0  0  0  0  0  0  0  0  0  0  0  0
   36.8388   24.7980   30.8051 C   0  0  0  0  0  0  0  0  0  0  0  0
   35.4203   24.8373   31.4204 C   0  0  0  0  0  0  0  0  0  0  0  0
   34.4425   24.7503   30.3713 O   0  0  0  0  0  0  0  0  0  0  0  0
   35.1784   26.1171   32.2391 C   0  0  0  0  0  0  0  0  0  0  0  0
   36.2199   26.3136   33.1906 O   0  0  0  0  0  0  0  0  0  0  0  0
   37.4633   26.5457   32.5414 C   0  0  0  0  0  0  0  0  0  0  0  0
   34.5363   25.5118   29.7779 H   0  0  0  0  0  0  0  0  0  0  0  0
   38.3573   26.9040   33.6135 N   0  0  0  0  0  0  0  0  0  0  0  0
   38.0206   26.7313   34.9350 C   0  0  0  0  0  0  0  0  0  0  0  0
   36.9862   26.1931   35.3118 O   0  0  0  0  0  0  0  0  0  0  0  0
   39.2378   27.2848   33.3922 H   0  0  0  0  0  0  0  0  0  0  0  0
   39.0268   27.1911   35.9321 C   0  0  0  0  0  0  0  0  0  0  0  0
   40.3311   26.6798   35.9609 C   0  0  0  0  0  0  0  0  0  0  0  0
   41.2420   27.1431   36.9135 C   0  0  0  0  0  0  0  0  0  0  0  0
   40.8580   28.1203   37.8320 C   0  0  0  0  0  0  0  0  0  0  0  0
   39.5664   28.6444   37.7963 C   0  0  0  0  0  0  0  0  0  0  0  0
   38.6535   28.1851   36.8455 C   0  0  0  0  0  0  0  0  0  0  0  0
   33.8485   26.0453   33.0042 C   0  0  0  0  0  0  0  0  0  0  0  0
   34.0500   26.1743   34.4097 O   0  0  0  0  0  0  0  0  0  0  0  0
   34.6120   25.4487   34.7237 H   0  0  0  0  0  0  0  0  0  0  0  0
   40.2595   24.7502   31.4707 C   0  0  0  0  0  0  0  0  0  0  0  0
   39.1684   25.5879   31.1216 O   0  0  0  0  0  0  0  0  0  0  0  0
   37.1773   23.4394   30.4246 O   0  0  0  0  0  0  0  0  0  0  0  0
   37.6403   22.6337   31.5012 C   0  0  0  0  0  0  0  0  0  0  0  0
 22 23  1  0
  1 23  1  0
  1  2  1  0
  2 24  1  0
 24 25  1  0
  2  3  1  0
  3  4  1  0
  3  5  1  0
  5 19  1  0
 19 20  1  0
  5  6  1  0
  6  7  1  0
  7  9  1  0
  9 10  1  0
 10 11  2  0
 10 13  1  0
 13 14  2  0
 14 15  1  0
 15 16  2  0
 16 17  1  0
 17 18  2  0
  7  1  1  0
 18 13  1  0
  4  8  1  0
 20 21  1  0
  9 12  1  0
M  END
> <minimizedAffinity>
-7.77167

> <CNNscore>
0.2732259035

> <CNNaffinity>
4.5107493401

> <CNN_VS>
1.2324535847

> <CNNaffinity_variance>
0.1705830693

$$$$



 25 26  0  0  0  0  0  0  0  0999 V2000
   32.8515   22.4917   26.5902 C   0  0  0  0  0  0  0  0  0  0  0  0
   31.5619   22.5826   25.7362 C   0  0  0  0  0  0  0  0  0  0  0  0
   30.5080   23.5343   26.3494 C   0  0  0  0  0  0  0  0  0  0  0  0
   29.5235   23.8603   25.3550 O   0  0  0  0  0  0  0  0  0  0  0  0
   31.1395   24.8300   26.8869 C   0  0  0  0  0  0  0  0  0  0  0  0
   32.2248   24.5388   27.7622 O   0  0  0  0  0  0  0  0  0  0  0  0
   33.2843   23.8999   27.0618 C   0  0  0  0  0  0  0  0  0  0  0  0
   29.9511   24.3187   24.6148 H   0  0  0  0  0  0  0  0  0  0  0  0
   34.3563   23.8429   28.0234 N   0  0  0  0  0  0  0  0  0  0  0  0
   34.1347   23.9702   29.3740 C   0  0  0  0  0  0  0  0  0  0  0  0
   33.0214   24.0594   29.8783 O   0  0  0  0  0  0  0  0  0  0  0  0
   35.2773   23.7084   27.7025 H   0  0  0  0  0  0  0  0  0  0  0  0
   35.3448   23.9379   30.2416 C   0  0  0  0  0  0  0  0  0  0  0  0
   36.5713   23.4357   29.7868 C   0  0  0  0  0  0  0  0  0  0  0  0
   37.6808   23.4277   30.6359 C   0  0  0  0  0  0  0  0  0  0  0  0
   37.5721   23.9262   31.9342 C   0  0  0  0  0  0  0  0  0  0  0  0
   36.3581   24.4426   32.3856 C   0  0  0  0  0  0  0  0  0  0  0  0
   35.2475   24.4536   31.5401 C   0  0  0  0  0  0  0  0  0  0  0  0
   30.1150   25.6659   27.6686 C   0  0  0  0  0  0  0  0  0  0  0  0
   30.6306   26.0679   28.9355 O   0  0  0  0  0  0  0  0  0  0  0  0
   30.8371   25.2817   29.4648 H   0  0  0  0  0  0  0  0  0  0  0  0
   34.2633   20.5797   26.2019 C   0  0  0  0  0  0  0  0  0  0  0  0
   33.9485   21.9177   25.8491 O   0  0  0  0  0  0  0  0  0  0  0  0
   31.0223   21.2390   25.6423 O   0  0  0  0  0  0  0  0  0  0  0  0
   30.7405   20.6378   26.9000 C   0  0  0  0  0  0  0  0  0  0  0  0
 22 23  1  0
  1 23  1  0
  1  2  1  0
  2 24  1  0
 24 25  1  0
  2  3  1  0
  3  4  1  0
  3  5  1  0
  5 19  1  0
 19 20  1  0
  5  6  1  0
  6  7  1  0
  7  9  1  0
  9 10  1  0
 10 11  2  0
 10 13  1  0
 13 14  2  0
 14 15  1  0
 15 16  2  0
 16 17  1  0
 17 18  2  0
  7  1  1  0
 18 13  1  0
  4  8  1  0
 20 21  1  0
  9 12  1  0
M  END
> <minimizedAffinity>
-8.24239

> <CNNscore>
0.2613471448

> <CNNaffinity>
3.9489991665

> <CNN_VS>
1.0320596695

> <CNNaffinity_variance>
1.2595025301

$$$$



 25 26  0  0  0  0  0  0  0  0999 V2000
   36.3449   25.1619   31.1003 C   0  0  0  0  0  0  0  0  0  0  0  0
   36.4114   25.6889   32.5558 C   0  0  0  0  0  0  0  0  0  0  0  0
   35.0105   25.9142   33.1716 C   0  0  0  0  0  0  0  0  0  0  0  0
   35.1302   26.0356   34.5982 O   0  0  0  0  0  0  0  0  0  0  0  0
   34.0387   24.7697   32.8363 C   0  0  0  0  0  0  0  0  0  0  0  0
   34.0135   24.5217   31.4339 O   0  0  0  0  0  0  0  0  0  0  0  0
   35.2755   24.0509   30.9791 C   0  0  0  0  0  0  0  0  0  0  0  0
   35.4929   25.2134   34.9634 H   0  0  0  0  0  0  0  0  0  0  0  0
   35.0369   23.6766   29.6079 N   0  0  0  0  0  0  0  0  0  0  0  0
   33.7680   23.5277   29.1008 C   0  0  0  0  0  0  0  0  0  0  0  0
   32.7468   23.7739   29.7317 O   0  0  0  0  0  0  0  0  0  0  0  0
   35.8078   23.5226   29.0152 H   0  0  0  0  0  0  0  0  0  0  0  0
   33.6784   23.0915   27.6795 C   0  0  0  0  0  0  0  0  0  0  0  0
   34.2624   23.8263   26.6391 C   0  0  0  0  0  0  0  0  0  0  0  0
   34.1545   23.3769   25.3206 C   0  0  0  0  0  0  0  0  0  0  0  0
   33.4727   22.1931   25.0382 C   0  0  0  0  0  0  0  0  0  0  0  0
   32.9046   21.4497   26.0720 C   0  0  0  0  0  0  0  0  0  0  0  0
   33.0111   21.8944   27.3908 C   0  0  0  0  0  0  0  0  0  0  0  0
   32.6075   25.1066   33.2810 C   0  0  0  0  0  0  0  0  0  0  0  0
   31.6861   24.0972   32.8750 O   0  0  0  0  0  0  0  0  0  0  0  0
   31.6873   24.0286   31.9075 H   0  0  0  0  0  0  0  0  0  0  0  0
   38.0827   23.5351   31.4654 C   0  0  0  0  0  0  0  0  0  0  0  0
   37.6065   24.6093   30.6697 O   0  0  0  0  0  0  0  0  0  0  0  0
   37.1442   26.9406   32.5184 O   0  0  0  0  0  0  0  0  0  0  0  0
   38.3656   26.9196   33.2467 C   0  0  0  0  0  0  0  0  0  0  0  0
 22 23  1  0
  1 23  1  0
  1  2  1  0
  2 24  1  0
 24 25  1  0
  2  3  1  0
  3  4  1  0
  3  5  1  0
  5 19  1  0
 19 20  1  0
  5  6  1  0
  6  7  1  0
  7  9  1  0
  9 10  1  0
 10 11  2  0
 10 13  1  0
 13 14  2  0
 14 15  1  0
 15 16  2  0
 16 17  1  0
 17 18  2  0
  7  1  1  0
 18 13  1  0
  4  8  1  0
 20 21  1  0
  9 12  1  0
M  END
> <minimizedAffinity>
-8.16306

> <CNNscore>
0.1998074502

> <CNNaffinity>
3.9824440479

> <CNN_VS>
0.7957220078

> <CNNaffinity_variance>
0.6322496533

$$$$



 25 26  0  0  0  0  0  0  0  0999 V2000
   26.6782   24.4998   24.7417 C   0  0  0  0  0  0  0  0  0  0  0  0
   26.3460   24.4229   26.2532 C   0  0  0  0  0  0  0  0  0  0  0  0
   27.6114   24.4441   27.1424 C   0  0  0  0  0  0  0  0  0  0  0  0
   27.2379   24.7439   28.4969 O   0  0  0  0  0  0  0  0  0  0  0  0
   28.6441   25.4759   26.6571 C   0  0  0  0  0  0  0  0  0  0  0  0
   28.9222   25.3003   25.2713 O   0  0  0  0  0  0  0  0  0  0  0  0
   27.7684   25.5666   24.4845 C   0  0  0  0  0  0  0  0  0  0  0  0
   26.8282   25.6224   28.5325 H   0  0  0  0  0  0  0  0  0  0  0  0
   28.2527   25.5291   23.1276 N   0  0  0  0  0  0  0  0  0  0  0  0
   27.9985   24.4697   22.2894 C   0  0  0  0  0  0  0  0  0  0  0  0
   27.2839   23.5196   22.5866 O   0  0  0  0  0  0  0  0  0  0  0  0
   28.7828   26.2869   22.7900 H   0  0  0  0  0  0  0  0  0  0  0  0
   28.6036   24.5502   20.9309 C   0  0  0  0  0  0  0  0  0  0  0  0
   28.9277   23.4038   20.1933 C   0  0  0  0  0  0  0  0  0  0  0  0
   29.4918   23.5281   18.9212 C   0  0  0  0  0  0  0  0  0  0  0  0
   29.7261   24.7923   18.3800 C   0  0  0  0  0  0  0  0  0  0  0  0
   29.3894   25.9359   19.1032 C   0  0  0  0  0  0  0  0  0  0  0  0
   28.8245   25.8162   20.3740 C   0  0  0  0  0  0  0  0  0  0  0  0
   29.9682   25.3412   27.4241 C   0  0  0  0  0  0  0  0  0  0  0  0
   30.3939   26.5960   27.9501 O   0  0  0  0  0  0  0  0  0  0  0  0
   30.5356   27.2207   27.2217 H   0  0  0  0  0  0  0  0  0  0  0  0
   24.6767   25.8248   24.5469 C   0  0  0  0  0  0  0  0  0  0  0  0
   25.5217   24.8512   23.9536 O   0  0  0  0  0  0  0  0  0  0  0  0
   25.6132   23.1883   26.4620 O   0  0  0  0  0  0  0  0  0  0  0  0
   24.4349   23.3383   27.2442 C   0  0  0  0  0  0  0  0  0  0  0  0
 22 23  1  0
  1 23  1  0
  1  2  1  0
  2 24  1  0
 24 25  1  0
  2  3  1  0
  3  4  1  0
  3  5  1  0
  5 19  1  0
 19 20  1  0
  5  6  1  0
  6  7  1  0
  7  9  1  0
  9 10  1  0
 10 11  2  0
 10 13  1  0
 13 14  2  0
 14 15  1  0
 15 16  2  0
 16 17  1  0
 17 18  2  0
  7  1  1  0
 18 13  1  0
  4  8  1  0
 20 21  1  0
  9 12  1  0
M  END
> <minimizedAffinity>
-4.42305

> <CNNscore>
0.1275658458

> <CNNaffinity>
3.2256600857

> <CNN_VS>
0.4114840627

> <CNNaffinity_variance>
1.0438834429

$$$$



 25 26  0  0  0  0  0  0  0  0999 V2000
   37.8420   25.9827   32.3872 C   0  0  0  0  0  0  0  0  0  0  0  0
   38.7616   26.1711   33.6200 C   0  0  0  0  0  0  0  0  0  0  0  0
   37.9758   26.5577   34.8949 C   0  0  0  0  0  0  0  0  0  0  0  0
   38.8075   26.3534   36.0485 O   0  0  0  0  0  0  0  0  0  0  0  0
   36.6808   25.7415   35.0480 C   0  0  0  0  0  0  0  0  0  0  0  0
   35.9021   25.7997   33.8569 O   0  0  0  0  0  0  0  0  0  0  0  0
   36.5812   25.1749   32.7754 C   0  0  0  0  0  0  0  0  0  0  0  0
   39.0464   25.4155   36.1128 H   0  0  0  0  0  0  0  0  0  0  0  0
   35.6056   25.1517   31.7149 N   0  0  0  0  0  0  0  0  0  0  0  0
   35.5192   24.1089   30.8235 C   0  0  0  0  0  0  0  0  0  0  0  0
   36.1944   23.0889   30.8976 O   0  0  0  0  0  0  0  0  0  0  0  0
   34.9808   25.9073   31.6260 H   0  0  0  0  0  0  0  0  0  0  0  0
   34.4930   24.2465   29.7529 C   0  0  0  0  0  0  0  0  0  0  0  0
   34.7339   23.8332   28.4359 C   0  0  0  0  0  0  0  0  0  0  0  0
   33.7400   23.9799   27.4650 C   0  0  0  0  0  0  0  0  0  0  0  0
   32.5043   24.5300   27.8060 C   0  0  0  0  0  0  0  0  0  0  0  0
   32.2539   24.9269   29.1190 C   0  0  0  0  0  0  0  0  0  0  0  0
   33.2438   24.7812   30.0923 C   0  0  0  0  0  0  0  0  0  0  0  0
   35.8187   26.2765   36.2013 C   0  0  0  0  0  0  0  0  0  0  0  0
   36.3377   27.5019   36.7128 O   0  0  0  0  0  0  0  0  0  0  0  0
   37.2333   27.3558   37.0554 H   0  0  0  0  0  0  0  0  0  0  0  0
   39.3839   24.2446   31.7537 C   0  0  0  0  0  0  0  0  0  0  0  0
   38.5090   25.2749   31.3213 O   0  0  0  0  0  0  0  0  0  0  0  0
   39.7086   27.2176   33.2841 O   0  0  0  0  0  0  0  0  0  0  0  0
   40.9466   27.1243   33.9780 C   0  0  0  0  0  0  0  0  0  0  0  0
 22 23  1  0
  1 23  1  0
  1  2  1  0
  2 24  1  0
 24 25  1  0
  2  3  1  0
  3  4  1  0
  3  5  1  0
  5 19  1  0
 19 20  1  0
  5  6  1  0
  6  7  1  0
  7  9  1  0
  9 10  1  0
 10 11  2  0
 10 13  1  0
 13 14  2  0
 14 15  1  0
 15 16  2  0
 16 17  1  0
 17 18  2  0
  7  1  1  0
 18 13  1  0
  4  8  1  0
 20 21  1  0
  9 12  1  0
M  END
> <minimizedAffinity>
-6.41051

> <CNNscore>
0.1243842021

> <CNNaffinity>
3.6011669636

> <CNN_VS>
0.4479282796

> <CNNaffinity_variance>
0.5344873071

$$$$



 25 26  0  0  0  0  0  0  0  0999 V2000
   34.9387   25.7568   32.5578 C   0  0  0  0  0  0  0  0  0  0  0  0
   34.6896   24.9269   31.2733 C   0  0  0  0  0  0  0  0  0  0  0  0
   36.0020   24.4349   30.6190 C   0  0  0  0  0  0  0  0  0  0  0  0
   35.7041   23.3891   29.6798 O   0  0  0  0  0  0  0  0  0  0  0  0
   37.0095   23.9155   31.6591 C   0  0  0  0  0  0  0  0  0  0  0  0
   37.2106   24.8752   32.6921 O   0  0  0  0  0  0  0  0  0  0  0  0
   36.0162   25.0780   33.4359 C   0  0  0  0  0  0  0  0  0  0  0  0
   35.2994   22.6412   30.1464 H   0  0  0  0  0  0  0  0  0  0  0  0
   36.4253   25.9159   34.5349 N   0  0  0  0  0  0  0  0  0  0  0  0
   37.7025   26.4132   34.6393 C   0  0  0  0  0  0  0  0  0  0  0  0
   38.5672   26.2604   33.7845 O   0  0  0  0  0  0  0  0  0  0  0  0
   35.7686   26.1394   35.2335 H   0  0  0  0  0  0  0  0  0  0  0  0
   37.9914   27.2251   35.8539 C   0  0  0  0  0  0  0  0  0  0  0  0
   39.2798   27.6924   36.1456 C   0  0  0  0  0  0  0  0  0  0  0  0
   39.5030   28.4531   37.2960 C   0  0  0  0  0  0  0  0  0  0  0  0
   38.4436   28.7554   38.1517 C   0  0  0  0  0  0  0  0  0  0  0  0
   37.1567   28.3071   37.8567 C   0  0  0  0  0  0  0  0  0  0  0  0
   36.9291   27.5478   36.7078 C   0  0  0  0  0  0  0  0  0  0  0  0
   38.3732   23.6232   31.0154 C   0  0  0  0  0  0  0  0  0  0  0  0
   39.4392   23.8335   31.9384 O   0  0  0  0  0  0  0  0  0  0  0  0
   39.4398   24.7599   32.2260 H   0  0  0  0  0  0  0  0  0  0  0  0
   32.8169   24.8241   33.2116 C   0  0  0  0  0  0  0  0  0  0  0  0
   33.7418   25.8912   33.3524 O   0  0  0  0  0  0  0  0  0  0  0  0
   33.9659   25.7824   30.3517 O   0  0  0  0  0  0  0  0  0  0  0  0
   32.9225   25.1227   29.6455 C   0  0  0  0  0  0  0  0  0  0  0  0
 22 23  1  0
  1 23  1  0
  1  2  1  0
  2 24  1  0
 24 25  1  0
  2  3  1  0
  3  4  1  0
  3  5  1  0
  5 19  1  0
 19 20  1  0
  5  6  1  0
  6  7  1  0
  7  9  1  0
  9 10  1  0
 10 11  2  0
 10 13  1  0
 13 14  2  0
 14 15  1  0
 15 16  2  0
 16 17  1  0
 17 18  2  0
  7  1  1  0
 18 13  1  0
  4  8  1  0
 20 21  1  0
  9 12  1  0
M  END
> <minimizedAffinity>
-8.23275

> <CNNscore>
0.1104262620

> <CNNaffinity>
3.6445615292

> <CNN_VS>
0.4024553001

> <CNNaffinity_variance>
0.5600860715

$$$$



 25 26  0  0  0  0  0  0  0  0999 V2000
   33.4020   24.4917   29.8999 C   0  0  0  0  0  0  0  0  0  0  0  0
   32.2525   24.3345   28.8729 C   0  0  0  0  0  0  0  0  0  0  0  0
   32.7330   24.5004   27.4121 C   0  0  0  0  0  0  0  0  0  0  0  0
   31.7322   23.9852   26.5191 O   0  0  0  0  0  0  0  0  0  0  0  0
   34.0671   23.7788   27.1548 C   0  0  0  0  0  0  0  0  0  0  0  0
   35.0412   24.1556   28.1232 O   0  0  0  0  0  0  0  0  0  0  0  0
   34.6579   23.7250   29.4227 C   0  0  0  0  0  0  0  0  0  0  0  0
   31.6028   23.0392   26.6897 H   0  0  0  0  0  0  0  0  0  0  0  0
   35.8095   24.0104   30.2408 N   0  0  0  0  0  0  0  0  0  0  0  0
   36.0165   25.2460   30.8066 C   0  0  0  0  0  0  0  0  0  0  0  0
   35.2172   26.1722   30.7362 O   0  0  0  0  0  0  0  0  0  0  0  0
   36.4695   23.2973   30.3996 H   0  0  0  0  0  0  0  0  0  0  0  0
   37.2745   25.4057   31.5876 C   0  0  0  0  0  0  0  0  0  0  0  0
   37.3842   26.3257   32.6387 C   0  0  0  0  0  0  0  0  0  0  0  0
   38.5842   26.4392   33.3452 C   0  0  0  0  0  0  0  0  0  0  0  0
   39.6719   25.6322   33.0113 C   0  0  0  0  0  0  0  0  0  0  0  0
   39.5621   24.7033   31.9773 C   0  0  0  0  0  0  0  0  0  0  0  0
   38.3647   24.5859   31.2696 C   0  0  0  0  0  0  0  0  0  0  0  0
   34.6264   24.1216   25.7658 C   0  0  0  0  0  0  0  0  0  0  0  0
   35.4816   25.2611   25.8168 O   0  0  0  0  0  0  0  0  0  0  0  0
   34.9791   26.0287   26.1315 H   0  0  0  0  0  0  0  0  0  0  0  0
   32.3996   24.9189   32.0476 C   0  0  0  0  0  0  0  0  0  0  0  0
   33.0378   23.9780   31.1982 O   0  0  0  0  0  0  0  0  0  0  0  0
   31.2633   25.3479   29.1881 O   0  0  0  0  0  0  0  0  0  0  0  0
   30.8505   26.1234   28.0697 C   0  0  0  0  0  0  0  0  0  0  0  0
 22 23  1  0
  1 23  1  0
  1  2  1  0
  2 24  1  0
 24 25  1  0
  2  3  1  0
  3  4  1  0
  3  5  1  0
  5 19  1  0
 19 20  1  0
  5  6  1  0
  6  7  1  0
  7  9  1  0
  9 10  1  0
 10 11  2  0
 10 13  1  0
 13 14  2  0
 14 15  1  0
 15 16  2  0
 16 17  1  0
 17 18  2  0
  7  1  1  0
 18 13  1  0
  4  8  1  0
 20 21  1  0
  9 12  1  0
M  END
> <minimizedAffinity>
-7.95423

> <CNNscore>
0.1047186702

> <CNNaffinity>
3.2642567158

> <CNN_VS>
0.3418286145

> <CNNaffinity_variance>
1.2095860243

$$$$
