


 37 40  0  0  0  0  0  0  0  0999 V2000
   23.2875    4.8688   57.7262 C   0  0  0  0  0  0  0  0  0  0  0  0
   22.9061    5.6877   56.2920 S   0  0  0  0  0  0  0  0  0  0  0  0
   23.9256    6.9889   56.6817 C   0  0  0  0  0  0  0  0  0  0  0  0
   24.5593    6.8146   57.8967 C   0  0  0  0  0  0  0  0  0  0  0  0
   24.1935    5.5605   58.5329 C   0  0  0  0  0  0  0  0  0  0  0  0
   25.4730    7.8511   58.3488 C   0  0  0  0  0  0  0  0  0  0  0  0
   25.0820    9.1949   58.3051 C   0  0  0  0  0  0  0  0  0  0  0  0
   25.9422   10.1856   58.7836 C   0  0  0  0  0  0  0  0  0  0  0  0
   27.1913    9.8374   59.3018 C   0  0  0  0  0  0  0  0  0  0  0  0
   27.5855    8.4991   59.3404 C   0  0  0  0  0  0  0  0  0  0  0  0
   26.7291    7.5044   58.8634 C   0  0  0  0  0  0  0  0  0  0  0  0
   23.0184    2.4146   56.0386 O   0  0  0  0  0  0  0  0  0  0  0  0
   22.6170    2.5269   57.1908 C   0  0  0  0  0  0  0  0  0  0  0  0
   22.7233    3.6331   58.0167 N   0  0  0  0  0  0  0  0  0  0  0  0
   22.3528    3.5311   58.9231 H   0  0  0  0  0  0  0  0  0  0  0  0
   21.9129    1.3874   57.9031 C   0  0  0  0  0  0  0  0  0  0  0  0
   22.6283    0.0611   57.6672 C   0  0  0  0  0  0  0  0  0  0  0  0
   22.0088   -0.6552   56.5518 N   0  0  0  0  0  0  0  0  0  0  0  0
   22.4562   -0.6591   55.6748 H   0  0  0  0  0  0  0  0  0  0  0  0
   20.7976   -1.3333   56.7024 C   0  0  0  0  0  0  0  0  0  0  0  0
   19.6897   -0.8787   55.9701 C   0  0  0  0  0  0  0  0  0  0  0  0
   18.4259   -1.4622   56.1148 C   0  0  0  0  0  0  0  0  0  0  0  0
   18.2402   -2.5015   57.0214 C   0  0  0  0  0  0  0  0  0  0  0  0
   19.3150   -2.9433   57.7869 C   0  0  0  0  0  0  0  0  0  0  0  0
   20.5770   -2.3530   57.6373 C   0  0  0  0  0  0  0  0  0  0  0  0
   24.6383    4.9818   59.8179 C   0  0  0  0  0  0  0  0  0  0  0  0
   24.3926    5.5435   60.8884 O   0  0  0  0  0  0  0  0  0  0  0  0
   25.3357    3.8002   59.7753 N   0  0  0  0  0  0  0  0  0  0  0  0
   25.6394    3.4583   58.9035 H   0  0  0  0  0  0  0  0  0  0  0  0
   25.6390    3.0420   60.9659 C   0  0  0  0  0  0  0  0  0  0  0  0
   24.6911    1.8752   61.0914 C   0  0  0  0  0  0  0  0  0  0  0  0
   25.1360    0.5654   60.8548 C   0  0  0  0  0  0  0  0  0  0  0  0
   24.2484   -0.5106   60.9383 C   0  0  0  0  0  0  0  0  0  0  0  0
   22.9089   -0.2807   61.2513 C   0  0  0  0  0  0  0  0  0  0  0  0
   21.7111   -1.7373   61.3640 Br  0  0  0  0  0  0  0  0  0  0  0  0
   22.4488    1.0149   61.4770 C   0  0  0  0  0  0  0  0  0  0  0  0
   23.3366    2.0906   61.3913 C   0  0  0  0  0  0  0  0  0  0  0  0
 12 13  2  0
 13 16  1  0
 16 17  1  0
 17 18  1  0
 18 20  1  0
 20 21  2  0
 21 22  1  0
 22 23  2  0
 23 24  1  0
 24 25  2  0
 13 14  1  0
 14  1  1  0
  1  2  1  0
  2  3  1  0
  3  4  2  0
  4  6  1  0
  6  7  2  0
  7  8  1  0
  8  9  2  0
  9 10  1  0
 10 11  2  0
  4  5  1  0
  5 26  1  0
 26 27  2  0
 26 28  1  0
 28 30  1  0
 30 31  1  0
 31 32  2  0
 32 33  1  0
 33 34  2  0
 34 35  1  0
 34 36  1  0
 36 37  2  0
 25 20  1  0
  5  1  2  0
 37 31  1  0
 11  6  1  0
 18 19  1  0
 14 15  1  0
 28 29  1  0
M  END
> <minimizedAffinity>
-9.64799

> <CNNscore>
0.9530490041

> <CNNaffinity>
7.7769827843

> <CNN_VS>
7.4118456841

> <CNNaffinity_variance>
0.0983060673

$$$$



 37 40  0  0  0  0  0  0  0  0999 V2000
   23.7652    2.9663   59.0362 C   0  0  0  0  0  0  0  0  0  0  0  0
   22.7723    2.4416   57.7666 S   0  0  0  0  0  0  0  0  0  0  0  0
   22.6985    3.9971   57.0888 C   0  0  0  0  0  0  0  0  0  0  0  0
   23.4213    4.9224   57.8164 C   0  0  0  0  0  0  0  0  0  0  0  0
   24.0630    4.3293   58.9774 C   0  0  0  0  0  0  0  0  0  0  0  0
   23.4538    6.2957   57.3402 C   0  0  0  0  0  0  0  0  0  0  0  0
   22.3535    6.8232   56.6534 C   0  0  0  0  0  0  0  0  0  0  0  0
   22.3668    8.1565   56.2380 C   0  0  0  0  0  0  0  0  0  0  0  0
   23.4764    8.9614   56.5042 C   0  0  0  0  0  0  0  0  0  0  0  0
   24.5766    8.4358   57.1831 C   0  0  0  0  0  0  0  0  0  0  0  0
   24.5685    7.1032   57.6008 C   0  0  0  0  0  0  0  0  0  0  0  0
   23.0090    2.7174   61.9189 O   0  0  0  0  0  0  0  0  0  0  0  0
   23.8294    2.0146   61.3408 C   0  0  0  0  0  0  0  0  0  0  0  0
   24.2087    2.0813   60.0108 N   0  0  0  0  0  0  0  0  0  0  0  0
   24.8760    1.4187   59.7195 H   0  0  0  0  0  0  0  0  0  0  0  0
   24.5749    0.9058   62.0595 C   0  0  0  0  0  0  0  0  0  0  0  0
   24.8678   -0.2617   61.1226 C   0  0  0  0  0  0  0  0  0  0  0  0
   23.9386   -1.3620   61.3816 N   0  0  0  0  0  0  0  0  0  0  0  0
   24.1498   -2.0134   62.0890 H   0  0  0  0  0  0  0  0  0  0  0  0
   22.7594   -1.5094   60.6487 C   0  0  0  0  0  0  0  0  0  0  0  0
   21.6245   -1.9997   61.3135 C   0  0  0  0  0  0  0  0  0  0  0  0
   20.4236   -2.2379   60.6355 C   0  0  0  0  0  0  0  0  0  0  0  0
   20.3435   -2.0135   59.2645 C   0  0  0  0  0  0  0  0  0  0  0  0
   21.4669   -1.5643   58.5769 C   0  0  0  0  0  0  0  0  0  0  0  0
   22.6662   -1.3296   59.2625 C   0  0  0  0  0  0  0  0  0  0  0  0
   24.9250    4.9478   60.0061 C   0  0  0  0  0  0  0  0  0  0  0  0
   24.4405    5.5972   60.9364 O   0  0  0  0  0  0  0  0  0  0  0  0
   26.2815    4.7754   59.8863 N   0  0  0  0  0  0  0  0  0  0  0  0
   26.6394    4.3802   59.0587 H   0  0  0  0  0  0  0  0  0  0  0  0
   27.2011    5.1541   60.9328 C   0  0  0  0  0  0  0  0  0  0  0  0
   27.6878    6.5642   60.7083 C   0  0  0  0  0  0  0  0  0  0  0  0
   27.5933    7.1586   59.4405 C   0  0  0  0  0  0  0  0  0  0  0  0
   28.0757    8.4525   59.2266 C   0  0  0  0  0  0  0  0  0  0  0  0
   28.6626    9.1554   60.2785 C   0  0  0  0  0  0  0  0  0  0  0  0
   29.3136   10.9048   59.9866 Br  0  0  0  0  0  0  0  0  0  0  0  0
   28.7751    8.5748   61.5400 C   0  0  0  0  0  0  0  0  0  0  0  0
   28.2942    7.2802   61.7526 C   0  0  0  0  0  0  0  0  0  0  0  0
 12 13  2  0
 13 16  1  0
 16 17  1  0
 17 18  1  0
 18 20  1  0
 20 21  2  0
 21 22  1  0
 22 23  2  0
 23 24  1  0
 24 25  2  0
 13 14  1  0
 14  1  1  0
  1  2  1  0
  2  3  1  0
  3  4  2  0
  4  6  1  0
  6  7  2  0
  7  8  1  0
  8  9  2  0
  9 10  1  0
 10 11  2  0
  4  5  1  0
  5 26  1  0
 26 27  2  0
 26 28  1  0
 28 30  1  0
 30 31  1  0
 31 32  2  0
 32 33  1  0
 33 34  2  0
 34 35  1  0
 34 36  1  0
 36 37  2  0
 25 20  1  0
  5  1  2  0
 37 31  1  0
 11  6  1  0
 18 19  1  0
 14 15  1  0
 28 29  1  0
M  END
> <minimizedAffinity>
-9.49970

> <CNNscore>
0.7059162855

> <CNNaffinity>
6.9839873314

> <CNN_VS>
4.9301104546

> <CNNaffinity_variance>
0.3408750594

$$$$



 37 40  0  0  0  0  0  0  0  0999 V2000
   23.1812    3.0700   57.4301 C   0  0  0  0  0  0  0  0  0  0  0  0
   22.2238    3.3045   56.0511 S   0  0  0  0  0  0  0  0  0  0  0  0
   22.3956    4.9921   56.1334 C   0  0  0  0  0  0  0  0  0  0  0  0
   23.1752    5.3897   57.2022 C   0  0  0  0  0  0  0  0  0  0  0  0
   23.6519    4.2620   57.9848 C   0  0  0  0  0  0  0  0  0  0  0  0
   23.4145    6.8119   57.3853 C   0  0  0  0  0  0  0  0  0  0  0  0
   22.3958    7.7327   57.1120 C   0  0  0  0  0  0  0  0  0  0  0  0
   22.6113    9.0947   57.3333 C   0  0  0  0  0  0  0  0  0  0  0  0
   23.8416    9.5381   57.8231 C   0  0  0  0  0  0  0  0  0  0  0  0
   24.8605    8.6224   58.0901 C   0  0  0  0  0  0  0  0  0  0  0  0
   24.6501    7.2593   57.8708 C   0  0  0  0  0  0  0  0  0  0  0  0
   22.0251    0.4269   56.6420 O   0  0  0  0  0  0  0  0  0  0  0  0
   22.8653    0.5975   57.5173 C   0  0  0  0  0  0  0  0  0  0  0  0
   23.4384    1.7937   57.9144 N   0  0  0  0  0  0  0  0  0  0  0  0
   24.1125    1.7320   58.6294 H   0  0  0  0  0  0  0  0  0  0  0  0
   23.4228   -0.5613   58.3223 C   0  0  0  0  0  0  0  0  0  0  0  0
   22.3114   -1.4945   58.7918 C   0  0  0  0  0  0  0  0  0  0  0  0
   22.1360   -1.3819   60.2402 N   0  0  0  0  0  0  0  0  0  0  0  0
   21.5091   -1.9879   60.6973 H   0  0  0  0  0  0  0  0  0  0  0  0
   22.8373   -0.4347   60.9888 C   0  0  0  0  0  0  0  0  0  0  0  0
   22.2198    0.8013   61.2367 C   0  0  0  0  0  0  0  0  0  0  0  0
   22.8812    1.8268   61.9219 C   0  0  0  0  0  0  0  0  0  0  0  0
   24.1920    1.6425   62.3514 C   0  0  0  0  0  0  0  0  0  0  0  0
   24.8383    0.4397   62.0831 C   0  0  0  0  0  0  0  0  0  0  0  0
   24.1699   -0.5817   61.3951 C   0  0  0  0  0  0  0  0  0  0  0  0
   24.5088    4.2353   59.1885 C   0  0  0  0  0  0  0  0  0  0  0  0
   24.0312    4.3994   60.3141 O   0  0  0  0  0  0  0  0  0  0  0  0
   25.8530    4.0244   59.0073 N   0  0  0  0  0  0  0  0  0  0  0  0
   26.2186    4.0441   58.0934 H   0  0  0  0  0  0  0  0  0  0  0  0
   26.7489    3.7746   60.1116 C   0  0  0  0  0  0  0  0  0  0  0  0
   27.3023    5.0773   60.6333 C   0  0  0  0  0  0  0  0  0  0  0  0
   27.1909    6.2542   59.8769 C   0  0  0  0  0  0  0  0  0  0  0  0
   27.7342    7.4528   60.3468 C   0  0  0  0  0  0  0  0  0  0  0  0
   28.3989    7.4783   61.5726 C   0  0  0  0  0  0  0  0  0  0  0  0
   29.1320    9.1004   62.2056 Br  0  0  0  0  0  0  0  0  0  0  0  0
   28.5287    6.3160   62.3298 C   0  0  0  0  0  0  0  0  0  0  0  0
   27.9869    5.1174   61.8583 C   0  0  0  0  0  0  0  0  0  0  0  0
 12 13  2  0
 13 16  1  0
 16 17  1  0
 17 18  1  0
 18 20  1  0
 20 21  2  0
 21 22  1  0
 22 23  2  0
 23 24  1  0
 24 25  2  0
 13 14  1  0
 14  1  1  0
  1  2  1  0
  2  3  1  0
  3  4  2  0
  4  6  1  0
  6  7  2  0
  7  8  1  0
  8  9  2  0
  9 10  1  0
 10 11  2  0
  4  5  1  0
  5 26  1  0
 26 27  2  0
 26 28  1  0
 28 30  1  0
 30 31  1  0
 31 32  2  0
 32 33  1  0
 33 34  2  0
 34 35  1  0
 34 36  1  0
 36 37  2  0
 25 20  1  0
  5  1  2  0
 37 31  1  0
 11  6  1  0
 18 19  1  0
 14 15  1  0
 28 29  1  0
M  END
> <minimizedAffinity>
-9.56929

> <CNNscore>
0.5248142481

> <CNNaffinity>
6.4470500946

> <CNN_VS>
3.3835036755

> <CNNaffinity_variance>
0.9331676364

$$$$



 37 40  0  0  0  0  0  0  0  0999 V2000
   23.5356    3.1499   57.8128 C   0  0  0  0  0  0  0  0  0  0  0  0
   24.4473    3.6466   59.1527 S   0  0  0  0  0  0  0  0  0  0  0  0
   24.1353    5.2874   58.8447 C   0  0  0  0  0  0  0  0  0  0  0  0
   23.3424    5.4712   57.7286 C   0  0  0  0  0  0  0  0  0  0  0  0
   22.9751    4.2129   57.1015 C   0  0  0  0  0  0  0  0  0  0  0  0
   22.9871    6.8308   57.3559 C   0  0  0  0  0  0  0  0  0  0  0  0
   21.9024    7.0599   56.5006 C   0  0  0  0  0  0  0  0  0  0  0  0
   21.5328    8.3682   56.1810 C   0  0  0  0  0  0  0  0  0  0  0  0
   22.2453    9.4460   56.7108 C   0  0  0  0  0  0  0  0  0  0  0  0
   23.3307    9.2196   57.5584 C   0  0  0  0  0  0  0  0  0  0  0  0
   23.7045    7.9133   57.8813 C   0  0  0  0  0  0  0  0  0  0  0  0
   21.1188    1.3893   57.8680 O   0  0  0  0  0  0  0  0  0  0  0  0
   22.2472    1.0302   57.5533 C   0  0  0  0  0  0  0  0  0  0  0  0
   23.3946    1.8033   57.5022 N   0  0  0  0  0  0  0  0  0  0  0  0
   24.2129    1.3409   57.2092 H   0  0  0  0  0  0  0  0  0  0  0  0
   22.5425   -0.4013   57.1467 C   0  0  0  0  0  0  0  0  0  0  0  0
   23.7114   -0.9728   57.9427 C   0  0  0  0  0  0  0  0  0  0  0  0
   23.3074   -1.2169   59.3278 N   0  0  0  0  0  0  0  0  0  0  0  0
   22.8064   -2.0360   59.5453 H   0  0  0  0  0  0  0  0  0  0  0  0
   23.6161   -0.3149   60.3479 C   0  0  0  0  0  0  0  0  0  0  0  0
   22.5652    0.4134   60.9270 C   0  0  0  0  0  0  0  0  0  0  0  0
   22.7992    1.3835   61.9082 C   0  0  0  0  0  0  0  0  0  0  0  0
   24.1012    1.6636   62.3118 C   0  0  0  0  0  0  0  0  0  0  0  0
   25.1624    0.9818   61.7240 C   0  0  0  0  0  0  0  0  0  0  0  0
   24.9201    0.0129   60.7411 C   0  0  0  0  0  0  0  0  0  0  0  0
   22.1431    3.9533   55.9081 C   0  0  0  0  0  0  0  0  0  0  0  0
   22.6577    3.7173   54.8120 O   0  0  0  0  0  0  0  0  0  0  0  0
   20.7797    3.9875   56.0641 N   0  0  0  0  0  0  0  0  0  0  0  0
   20.4062    4.3211   56.9117 H   0  0  0  0  0  0  0  0  0  0  0  0
   19.8750    3.5507   55.0272 C   0  0  0  0  0  0  0  0  0  0  0  0
   19.0747    4.7212   54.5124 C   0  0  0  0  0  0  0  0  0  0  0  0
   18.7422    5.7875   55.3621 C   0  0  0  0  0  0  0  0  0  0  0  0
   17.9719    6.8545   54.8923 C   0  0  0  0  0  0  0  0  0  0  0  0
   17.5235    6.8562   53.5717 C   0  0  0  0  0  0  0  0  0  0  0  0
   16.4826    8.3003   52.9390 Br  0  0  0  0  0  0  0  0  0  0  0  0
   17.8347    5.7993   52.7189 C   0  0  0  0  0  0  0  0  0  0  0  0
   18.6033    4.7317   53.1900 C   0  0  0  0  0  0  0  0  0  0  0  0
 12 13  2  0
 13 16  1  0
 16 17  1  0
 17 18  1  0
 18 20  1  0
 20 21  2  0
 21 22  1  0
 22 23  2  0
 23 24  1  0
 24 25  2  0
 13 14  1  0
 14  1  1  0
  1  2  1  0
  2  3  1  0
  3  4  2  0
  4  6  1  0
  6  7  2  0
  7  8  1  0
  8  9  2  0
  9 10  1  0
 10 11  2  0
  4  5  1  0
  5 26  1  0
 26 27  2  0
 26 28  1  0
 28 30  1  0
 30 31  1  0
 31 32  2  0
 32 33  1  0
 33 34  2  0
 34 35  1  0
 34 36  1  0
 36 37  2  0
 25 20  1  0
  5  1  2  0
 37 31  1  0
 11  6  1  0
 18 19  1  0
 14 15  1  0
 28 29  1  0
M  END
> <minimizedAffinity>
-8.08085

> <CNNscore>
0.4805896878

> <CNNaffinity>
6.1147723198

> <CNN_VS>
2.9386966228

> <CNNaffinity_variance>
0.7956854701

$$$$



 37 40  0  0  0  0  0  0  0  0999 V2000
   28.9335    7.4060   63.8315 C   0  0  0  0  0  0  0  0  0  0  0  0
   29.7564    6.5735   65.0574 S   0  0  0  0  0  0  0  0  0  0  0  0
   30.4776    7.9979   65.6365 C   0  0  0  0  0  0  0  0  0  0  0  0
   30.1033    9.1104   64.9082 C   0  0  0  0  0  0  0  0  0  0  0  0
   29.1856    8.7794   63.8312 C   0  0  0  0  0  0  0  0  0  0  0  0
   30.6397   10.4022   65.3045 C   0  0  0  0  0  0  0  0  0  0  0  0
   31.6430   11.0071   64.5377 C   0  0  0  0  0  0  0  0  0  0  0  0
   32.1241   12.2693   64.8925 C   0  0  0  0  0  0  0  0  0  0  0  0
   31.6080   12.9257   66.0118 C   0  0  0  0  0  0  0  0  0  0  0  0
   30.6123   12.3217   66.7811 C   0  0  0  0  0  0  0  0  0  0  0  0
   30.1277   11.0597   66.4306 C   0  0  0  0  0  0  0  0  0  0  0  0
   29.3494    6.6741   60.9618 O   0  0  0  0  0  0  0  0  0  0  0  0
   28.3424    6.4273   61.6148 C   0  0  0  0  0  0  0  0  0  0  0  0
   28.1027    6.7345   62.9434 N   0  0  0  0  0  0  0  0  0  0  0  0
   27.2351    6.4403   63.3038 H   0  0  0  0  0  0  0  0  0  0  0  0
   27.1582    5.6992   61.0072 C   0  0  0  0  0  0  0  0  0  0  0  0
   27.6147    4.5778   60.0795 C   0  0  0  0  0  0  0  0  0  0  0  0
   26.4658    3.7812   59.6474 N   0  0  0  0  0  0  0  0  0  0  0  0
   26.2702    3.7014   58.6858 H   0  0  0  0  0  0  0  0  0  0  0  0
   25.6404    3.1317   60.5674 C   0  0  0  0  0  0  0  0  0  0  0  0
   26.1673    2.0372   61.2709 C   0  0  0  0  0  0  0  0  0  0  0  0
   25.3850    1.2929   62.1612 C   0  0  0  0  0  0  0  0  0  0  0  0
   24.0440    1.6159   62.3452 C   0  0  0  0  0  0  0  0  0  0  0  0
   23.4893    2.6726   61.6295 C   0  0  0  0  0  0  0  0  0  0  0  0
   24.2787    3.4122   60.7388 C   0  0  0  0  0  0  0  0  0  0  0  0
   28.5400    9.6545   62.8306 C   0  0  0  0  0  0  0  0  0  0  0  0
   27.4707   10.2195   63.0740 O   0  0  0  0  0  0  0  0  0  0  0  0
   29.1718    9.8123   61.6222 N   0  0  0  0  0  0  0  0  0  0  0  0
   29.9409    9.2359   61.4088 H   0  0  0  0  0  0  0  0  0  0  0  0
   28.7465   10.7948   60.6536 C   0  0  0  0  0  0  0  0  0  0  0  0
   27.5682   10.2722   59.8699 C   0  0  0  0  0  0  0  0  0  0  0  0
   26.4301   11.0699   59.6750 C   0  0  0  0  0  0  0  0  0  0  0  0
   25.3263   10.5717   58.9779 C   0  0  0  0  0  0  0  0  0  0  0  0
   25.3524    9.2696   58.4790 C   0  0  0  0  0  0  0  0  0  0  0  0
   23.8589    8.5987   57.5365 Br  0  0  0  0  0  0  0  0  0  0  0  0
   26.4699    8.4607   58.6746 C   0  0  0  0  0  0  0  0  0  0  0  0
   27.5725    8.9590   59.3736 C   0  0  0  0  0  0  0  0  0  0  0  0
 12 13  2  0
 13 16  1  0
 16 17  1  0
 17 18  1  0
 18 20  1  0
 20 21  2  0
 21 22  1  0
 22 23  2  0
 23 24  1  0
 24 25  2  0
 13 14  1  0
 14  1  1  0
  1  2  1  0
  2  3  1  0
  3  4  2  0
  4  6  1  0
  6  7  2  0
  7  8  1  0
  8  9  2  0
  9 10  1  0
 10 11  2  0
  4  5  1  0
  5 26  1  0
 26 27  2  0
 26 28  1  0
 28 30  1  0
 30 31  1  0
 31 32  2  0
 32 33  1  0
 33 34  2  0
 34 35  1  0
 34 36  1  0
 36 37  2  0
 25 20  1  0
  5  1  2  0
 37 31  1  0
 11  6  1  0
 18 19  1  0
 14 15  1  0
 28 29  1  0
M  END
> <minimizedAffinity>
-7.70071

> <CNNscore>
0.4600142241

> <CNNaffinity>
6.7785949707

> <CNN_VS>
3.1182501316

> <CNNaffinity_variance>
0.1976650357

$$$$



 37 40  0  0  0  0  0  0  0  0999 V2000
   28.5541    8.6033   62.1804 C   0  0  0  0  0  0  0  0  0  0  0  0
   28.9130    9.1999   63.7258 S   0  0  0  0  0  0  0  0  0  0  0  0
   28.9935   10.8010   63.1652 C   0  0  0  0  0  0  0  0  0  0  0  0
   28.7513   10.8958   61.8086 C   0  0  0  0  0  0  0  0  0  0  0  0
   28.4877    9.6005   61.2051 C   0  0  0  0  0  0  0  0  0  0  0  0
   28.7776   12.2147   61.1975 C   0  0  0  0  0  0  0  0  0  0  0  0
   27.5817   12.9131   60.9911 C   0  0  0  0  0  0  0  0  0  0  0  0
   27.6121   14.1992   60.4476 C   0  0  0  0  0  0  0  0  0  0  0  0
   28.8325   14.7866   60.1075 C   0  0  0  0  0  0  0  0  0  0  0  0
   30.0251   14.0897   60.3065 C   0  0  0  0  0  0  0  0  0  0  0  0
   30.0004   12.8034   60.8498 C   0  0  0  0  0  0  0  0  0  0  0  0
   29.4888    6.2343   63.7481 O   0  0  0  0  0  0  0  0  0  0  0  0
   28.8202    6.1834   62.7226 C   0  0  0  0  0  0  0  0  0  0  0  0
   28.3552    7.2453   61.9656 N   0  0  0  0  0  0  0  0  0  0  0  0
   27.8162    7.0084   61.1765 H   0  0  0  0  0  0  0  0  0  0  0  0
   28.3851    4.8605   62.1209 C   0  0  0  0  0  0  0  0  0  0  0  0
   28.6176    4.8349   60.6136 C   0  0  0  0  0  0  0  0  0  0  0  0
   27.9039    3.7080   60.0119 N   0  0  0  0  0  0  0  0  0  0  0  0
   28.3384    3.1909   59.2955 H   0  0  0  0  0  0  0  0  0  0  0  0
   26.6211    3.3492   60.4303 C   0  0  0  0  0  0  0  0  0  0  0  0
   25.5638    4.2288   60.1495 C   0  0  0  0  0  0  0  0  0  0  0  0
   24.2609    3.9736   60.5922 C   0  0  0  0  0  0  0  0  0  0  0  0
   23.9951    2.8388   61.3524 C   0  0  0  0  0  0  0  0  0  0  0  0
   25.0346    1.9721   61.6764 C   0  0  0  0  0  0  0  0  0  0  0  0
   26.3367    2.2352   61.2307 C   0  0  0  0  0  0  0  0  0  0  0  0
   28.1765    9.2511   59.8033 C   0  0  0  0  0  0  0  0  0  0  0  0
   28.9054    9.6188   58.8785 O   0  0  0  0  0  0  0  0  0  0  0  0
   27.0474    8.5063   59.5695 N   0  0  0  0  0  0  0  0  0  0  0  0
   26.4149    8.3565   60.3089 H   0  0  0  0  0  0  0  0  0  0  0  0
   26.7560    7.9353   58.2759 C   0  0  0  0  0  0  0  0  0  0  0  0
   25.2996    8.1365   57.9380 C   0  0  0  0  0  0  0  0  0  0  0  0
   24.5519    7.1005   57.3573 C   0  0  0  0  0  0  0  0  0  0  0  0
   23.2121    7.2998   57.0139 C   0  0  0  0  0  0  0  0  0  0  0  0
   22.6158    8.5397   57.2423 C   0  0  0  0  0  0  0  0  0  0  0  0
   20.8041    8.8063   56.7774 Br  0  0  0  0  0  0  0  0  0  0  0  0
   23.3479    9.5822   57.8067 C   0  0  0  0  0  0  0  0  0  0  0  0
   24.6881    9.3826   58.1480 C   0  0  0  0  0  0  0  0  0  0  0  0
 12 13  2  0
 13 16  1  0
 16 17  1  0
 17 18  1  0
 18 20  1  0
 20 21  2  0
 21 22  1  0
 22 23  2  0
 23 24  1  0
 24 25  2  0
 13 14  1  0
 14  1  1  0
  1  2  1  0
  2  3  1  0
  3  4  2  0
  4  6  1  0
  6  7  2  0
  7  8  1  0
  8  9  2  0
  9 10  1  0
 10 11  2  0
  4  5  1  0
  5 26  1  0
 26 27  2  0
 26 28  1  0
 28 30  1  0
 30 31  1  0
 31 32  2  0
 32 33  1  0
 33 34  2  0
 34 35  1  0
 34 36  1  0
 36 37  2  0
 25 20  1  0
  5  1  2  0
 37 31  1  0
 11  6  1  0
 18 19  1  0
 14 15  1  0
 28 29  1  0
M  END
> <minimizedAffinity>
-8.39690

> <CNNscore>
0.4436140060

> <CNNaffinity>
6.5964093208

> <CNN_VS>
2.9262595177

> <CNNaffinity_variance>
0.4387857020

$$$$



 37 40  0  0  0  0  0  0  0  0999 V2000
   25.9264    5.4483   60.2140 C   0  0  0  0  0  0  0  0  0  0  0  0
   24.9303    6.1125   59.0141 S   0  0  0  0  0  0  0  0  0  0  0  0
   25.8677    7.5255   58.9199 C   0  0  0  0  0  0  0  0  0  0  0  0
   26.9374    7.5060   59.7937 C   0  0  0  0  0  0  0  0  0  0  0  0
   26.9899    6.2797   60.5715 C   0  0  0  0  0  0  0  0  0  0  0  0
   27.8320    8.6519   59.8088 C   0  0  0  0  0  0  0  0  0  0  0  0
   28.9462    8.6796   58.9614 C   0  0  0  0  0  0  0  0  0  0  0  0
   29.7782    9.8012   58.9426 C   0  0  0  0  0  0  0  0  0  0  0  0
   29.5015   10.8918   59.7696 C   0  0  0  0  0  0  0  0  0  0  0  0
   28.3950   10.8635   60.6197 C   0  0  0  0  0  0  0  0  0  0  0  0
   27.5597    9.7445   60.6423 C   0  0  0  0  0  0  0  0  0  0  0  0
   24.0125    3.3256   59.3339 O   0  0  0  0  0  0  0  0  0  0  0  0
   24.7536    3.2491   60.3067 C   0  0  0  0  0  0  0  0  0  0  0  0
   25.6615    4.1950   60.7514 N   0  0  0  0  0  0  0  0  0  0  0  0
   26.1848    3.9487   61.5482 H   0  0  0  0  0  0  0  0  0  0  0  0
   24.7725    2.0219   61.1985 C   0  0  0  0  0  0  0  0  0  0  0  0
   23.6517    2.0714   62.2319 C   0  0  0  0  0  0  0  0  0  0  0  0
   22.3590    1.8419   61.5858 N   0  0  0  0  0  0  0  0  0  0  0  0
   21.8627    2.6081   61.2173 H   0  0  0  0  0  0  0  0  0  0  0  0
   21.8131    0.5611   61.4800 C   0  0  0  0  0  0  0  0  0  0  0  0
   20.4888    0.3697   61.9044 C   0  0  0  0  0  0  0  0  0  0  0  0
   19.8910   -0.8957   61.8924 C   0  0  0  0  0  0  0  0  0  0  0  0
   20.6214   -2.0053   61.4778 C   0  0  0  0  0  0  0  0  0  0  0  0
   21.9481   -1.8462   61.0894 C   0  0  0  0  0  0  0  0  0  0  0  0
   22.5401   -0.5762   61.1056 C   0  0  0  0  0  0  0  0  0  0  0  0
   27.9593    5.8476   61.5998 C   0  0  0  0  0  0  0  0  0  0  0  0
   28.5949    4.7977   61.4748 O   0  0  0  0  0  0  0  0  0  0  0  0
   28.1233    6.6549   62.6978 N   0  0  0  0  0  0  0  0  0  0  0  0
   27.4987    7.4034   62.8355 H   0  0  0  0  0  0  0  0  0  0  0  0
   29.1809    6.4435   63.6577 C   0  0  0  0  0  0  0  0  0  0  0  0
   29.8208    7.7604   64.0206 C   0  0  0  0  0  0  0  0  0  0  0  0
   29.2087    8.9729   63.6671 C   0  0  0  0  0  0  0  0  0  0  0  0
   29.8199   10.1914   63.9742 C   0  0  0  0  0  0  0  0  0  0  0  0
   31.0509   10.2029   64.6297 C   0  0  0  0  0  0  0  0  0  0  0  0
   31.8747   11.8517   65.0441 Br  0  0  0  0  0  0  0  0  0  0  0  0
   31.6774    9.0077   64.9766 C   0  0  0  0  0  0  0  0  0  0  0  0
   31.0665    7.7897   64.6673 C   0  0  0  0  0  0  0  0  0  0  0  0
 12 13  2  0
 13 16  1  0
 16 17  1  0
 17 18  1  0
 18 20  1  0
 20 21  2  0
 21 22  1  0
 22 23  2  0
 23 24  1  0
 24 25  2  0
 13 14  1  0
 14  1  1  0
  1  2  1  0
  2  3  1  0
  3  4  2  0
  4  6  1  0
  6  7  2  0
  7  8  1  0
  8  9  2  0
  9 10  1  0
 10 11  2  0
  4  5  1  0
  5 26  1  0
 26 27  2  0
 26 28  1  0
 28 30  1  0
 30 31  1  0
 31 32  2  0
 32 33  1  0
 33 34  2  0
 34 35  1  0
 34 36  1  0
 36 37  2  0
 25 20  1  0
  5  1  2  0
 37 31  1  0
 11  6  1  0
 18 19  1  0
 14 15  1  0
 28 29  1  0
M  END
> <minimizedAffinity>
-9.77120

> <CNNscore>
0.3715122640

> <CNNaffinity>
6.6151633263

> <CNN_VS>
2.4576144218

> <CNNaffinity_variance>
0.3561054766

$$$$



 37 40  0  0  0  0  0  0  0  0999 V2000
   23.7140    4.6513   57.7063 C   0  0  0  0  0  0  0  0  0  0  0  0
   23.4373    6.2655   57.2695 S   0  0  0  0  0  0  0  0  0  0  0  0
   22.1398    5.8426   56.2586 C   0  0  0  0  0  0  0  0  0  0  0  0
   21.9077    4.4810   56.2430 C   0  0  0  0  0  0  0  0  0  0  0  0
   22.8325    3.7555   57.0974 C   0  0  0  0  0  0  0  0  0  0  0  0
   20.8147    3.9806   55.4253 C   0  0  0  0  0  0  0  0  0  0  0  0
   20.9762    3.8624   54.0395 C   0  0  0  0  0  0  0  0  0  0  0  0
   19.9425    3.3374   53.2610 C   0  0  0  0  0  0  0  0  0  0  0  0
   18.7487    2.9339   53.8627 C   0  0  0  0  0  0  0  0  0  0  0  0
   18.5833    3.0568   55.2430 C   0  0  0  0  0  0  0  0  0  0  0  0
   19.6139    3.5811   56.0263 C   0  0  0  0  0  0  0  0  0  0  0  0
   24.4618    5.8314   60.3504 O   0  0  0  0  0  0  0  0  0  0  0  0
   25.0414    4.9010   59.8030 C   0  0  0  0  0  0  0  0  0  0  0  0
   24.7324    4.3127   58.5883 N   0  0  0  0  0  0  0  0  0  0  0  0
   25.3061    3.5606   58.3157 H   0  0  0  0  0  0  0  0  0  0  0  0
   26.2458    4.2304   60.4364 C   0  0  0  0  0  0  0  0  0  0  0  0
   27.4293    5.1884   60.5260 C   0  0  0  0  0  0  0  0  0  0  0  0
   27.5625    5.9439   59.2799 N   0  0  0  0  0  0  0  0  0  0  0  0
   27.4742    5.4727   58.4200 H   0  0  0  0  0  0  0  0  0  0  0  0
   27.8119    7.3177   59.2823 C   0  0  0  0  0  0  0  0  0  0  0  0
   29.1132    7.7530   59.5784 C   0  0  0  0  0  0  0  0  0  0  0  0
   29.4289    9.1136   59.6656 C   0  0  0  0  0  0  0  0  0  0  0  0
   28.4351   10.0705   59.4830 C   0  0  0  0  0  0  0  0  0  0  0  0
   27.1297    9.6624   59.2268 C   0  0  0  0  0  0  0  0  0  0  0  0
   26.8211    8.2981   59.1426 C   0  0  0  0  0  0  0  0  0  0  0  0
   22.9318    2.3078   57.3766 C   0  0  0  0  0  0  0  0  0  0  0  0
   23.3067    1.5159   56.5082 O   0  0  0  0  0  0  0  0  0  0  0  0
   22.5892    1.8781   58.6346 N   0  0  0  0  0  0  0  0  0  0  0  0
   22.1576    2.5115   59.2524 H   0  0  0  0  0  0  0  0  0  0  0  0
   22.8406    0.5287   59.0822 C   0  0  0  0  0  0  0  0  0  0  0  0
   21.6396   -0.3406   58.8038 C   0  0  0  0  0  0  0  0  0  0  0  0
   20.4781   -0.2240   59.5828 C   0  0  0  0  0  0  0  0  0  0  0  0
   19.3791   -1.0537   59.3451 C   0  0  0  0  0  0  0  0  0  0  0  0
   19.4396   -2.0100   58.3318 C   0  0  0  0  0  0  0  0  0  0  0  0
   17.9522   -3.1300   58.0123 Br  0  0  0  0  0  0  0  0  0  0  0  0
   20.5899   -2.1466   57.5576 C   0  0  0  0  0  0  0  0  0  0  0  0
   21.6892   -1.3179   57.7972 C   0  0  0  0  0  0  0  0  0  0  0  0
 12 13  2  0
 13 16  1  0
 16 17  1  0
 17 18  1  0
 18 20  1  0
 20 21  2  0
 21 22  1  0
 22 23  2  0
 23 24  1  0
 24 25  2  0
 13 14  1  0
 14  1  1  0
  1  2  1  0
  2  3  1  0
  3  4  2  0
  4  6  1  0
  6  7  2  0
  7  8  1  0
  8  9  2  0
  9 10  1  0
 10 11  2  0
  4  5  1  0
  5 26  1  0
 26 27  2  0
 26 28  1  0
 28 30  1  0
 30 31  1  0
 31 32  2  0
 32 33  1  0
 33 34  2  0
 34 35  1  0
 34 36  1  0
 36 37  2  0
 25 20  1  0
  5  1  2  0
 37 31  1  0
 11  6  1  0
 18 19  1  0
 14 15  1  0
 28 29  1  0
M  END
> <minimizedAffinity>
-9.11426

> <CNNscore>
0.3548703194

> <CNNaffinity>
6.2529187202

> <CNN_VS>
2.2189753056

> <CNNaffinity_variance>
0.7869226336

$$$$



 37 40  0  0  0  0  0  0  0  0999 V2000
   23.5207    4.3228   57.6116 C   0  0  0  0  0  0  0  0  0  0  0  0
   23.5622    6.0023   57.3870 S   0  0  0  0  0  0  0  0  0  0  0  0
   22.2584    5.9592   56.2995 C   0  0  0  0  0  0  0  0  0  0  0  0
   21.7841    4.6776   56.0979 C   0  0  0  0  0  0  0  0  0  0  0  0
   22.5210    3.6908   56.8692 C   0  0  0  0  0  0  0  0  0  0  0  0
   20.6581    4.4966   55.1963 C   0  0  0  0  0  0  0  0  0  0  0  0
   19.4357    5.1218   55.4709 C   0  0  0  0  0  0  0  0  0  0  0  0
   18.3691    4.9858   54.5797 C   0  0  0  0  0  0  0  0  0  0  0  0
   18.5201    4.2251   53.4184 C   0  0  0  0  0  0  0  0  0  0  0  0
   19.7357    3.5959   53.1461 C   0  0  0  0  0  0  0  0  0  0  0  0
   20.8055    3.7288   54.0339 C   0  0  0  0  0  0  0  0  0  0  0  0
   24.3372    4.9934   60.4093 O   0  0  0  0  0  0  0  0  0  0  0  0
   24.7676    4.0515   59.7546 C   0  0  0  0  0  0  0  0  0  0  0  0
   24.4182    3.6921   58.4639 N   0  0  0  0  0  0  0  0  0  0  0  0
   24.8613    2.8894   58.1054 H   0  0  0  0  0  0  0  0  0  0  0  0
   25.8010    3.0953   60.3199 C   0  0  0  0  0  0  0  0  0  0  0  0
   27.2186    3.5741   60.0238 C   0  0  0  0  0  0  0  0  0  0  0  0
   27.1903    4.9373   59.4926 N   0  0  0  0  0  0  0  0  0  0  0  0
   26.8342    5.0937   58.5881 H   0  0  0  0  0  0  0  0  0  0  0  0
   27.6566    6.0212   60.2388 C   0  0  0  0  0  0  0  0  0  0  0  0
   28.1016    5.7801   61.5481 C   0  0  0  0  0  0  0  0  0  0  0  0
   28.5220    6.8218   62.3829 C   0  0  0  0  0  0  0  0  0  0  0  0
   28.4793    8.1365   61.9287 C   0  0  0  0  0  0  0  0  0  0  0  0
   28.0053    8.4039   60.6480 C   0  0  0  0  0  0  0  0  0  0  0  0
   27.5848    7.3557   59.8186 C   0  0  0  0  0  0  0  0  0  0  0  0
   22.3428    2.2264   56.9559 C   0  0  0  0  0  0  0  0  0  0  0  0
   21.2172    1.7228   56.9932 O   0  0  0  0  0  0  0  0  0  0  0  0
   23.4739    1.4497   56.9960 N   0  0  0  0  0  0  0  0  0  0  0  0
   24.3478    1.8879   57.1121 H   0  0  0  0  0  0  0  0  0  0  0  0
   23.4253    0.0119   56.8737 C   0  0  0  0  0  0  0  0  0  0  0  0
   22.6982   -0.5832   58.0539 C   0  0  0  0  0  0  0  0  0  0  0  0
   21.6140   -1.4528   57.8598 C   0  0  0  0  0  0  0  0  0  0  0  0
   20.9204   -1.9762   58.9542 C   0  0  0  0  0  0  0  0  0  0  0  0
   21.3033   -1.6256   60.2487 C   0  0  0  0  0  0  0  0  0  0  0  0
   20.3641   -2.3350   61.7265 Br  0  0  0  0  0  0  0  0  0  0  0  0
   22.3697   -0.7538   60.4580 C   0  0  0  0  0  0  0  0  0  0  0  0
   23.0615   -0.2293   59.3630 C   0  0  0  0  0  0  0  0  0  0  0  0
 12 13  2  0
 13 16  1  0
 16 17  1  0
 17 18  1  0
 18 20  1  0
 20 21  2  0
 21 22  1  0
 22 23  2  0
 23 24  1  0
 24 25  2  0
 13 14  1  0
 14  1  1  0
  1  2  1  0
  2  3  1  0
  3  4  2  0
  4  6  1  0
  6  7  2  0
  7  8  1  0
  8  9  2  0
  9 10  1  0
 10 11  2  0
  4  5  1  0
  5 26  1  0
 26 27  2  0
 26 28  1  0
 28 30  1  0
 30 31  1  0
 31 32  2  0
 32 33  1  0
 33 34  2  0
 34 35  1  0
 34 36  1  0
 36 37  2  0
 25 20  1  0
  5  1  2  0
 37 31  1  0
 11  6  1  0
 18 19  1  0
 14 15  1  0
 28 29  1  0
M  END
> <minimizedAffinity>
-8.77806

> <CNNscore>
0.3519923091

> <CNNaffinity>
6.7952713966

> <CNN_VS>
2.3918833733

> <CNNaffinity_variance>
0.1892180294

$$$$
