


 29 30  0  0  0  0  0  0  0  0999 V2000
   33.3277   23.4305   28.0037 C   0  0  0  0  0  0  0  0  0  0  0  0
   32.4840   22.3177   28.3282 O   0  0  0  0  0  0  0  0  0  0  0  0
   31.8014   21.6963   27.2226 C   0  0  0  0  0  0  0  0  0  0  0  0
   31.9900   22.4012   25.8658 C   0  0  0  0  0  0  0  0  0  0  0  0
   31.2612   23.6466   25.8939 O   0  0  0  0  0  0  0  0  0  0  0  0
   33.4663   22.7118   25.5616 C   0  0  0  0  0  0  0  0  0  0  0  0
   34.2721   23.0497   26.8400 C   0  0  0  0  0  0  0  0  0  0  0  0
   35.1968   24.1050   26.5171 O   0  0  0  0  0  0  0  0  0  0  0  0
   31.6170   24.2136   26.5958 H   0  0  0  0  0  0  0  0  0  0  0  0
   34.7051   24.8840   26.2133 H   0  0  0  0  0  0  0  0  0  0  0  0
   36.0099   24.0940   30.4867 C   0  0  0  0  0  0  0  0  0  0  0  0
   35.3126   23.7245   29.4058 C   0  0  0  0  0  0  0  0  0  0  0  0
   33.9277   23.8616   29.2959 N   0  0  0  0  0  0  0  0  0  0  0  0
   33.1873   24.4370   30.3239 C   0  0  0  0  0  0  0  0  0  0  0  0
   31.9610   24.5969   30.3319 O   0  0  0  0  0  0  0  0  0  0  0  0
   33.9030   24.8260   31.4259 N   0  0  0  0  0  0  0  0  0  0  0  0
   35.2494   24.6748   31.6252 C   0  0  0  0  0  0  0  0  0  0  0  0
   35.7766   25.0047   32.6828 O   0  0  0  0  0  0  0  0  0  0  0  0
   33.3962   25.2595   32.1502 H   0  0  0  0  0  0  0  0  0  0  0  0
   38.6217   23.8451   30.5751 C   0  0  0  0  0  0  0  0  0  0  0  0
   37.4248   23.9493   30.5382 C   0  0  0  0  0  0  0  0  0  0  0  0
   40.0867   23.7490   30.6319 C   0  0  0  0  0  0  0  0  0  0  0  0
   42.1207   23.5419   32.1491 C   0  0  0  0  0  0  0  0  0  0  0  0
   40.6148   23.7568   32.0641 C   0  0  0  0  0  0  0  0  0  0  0  0
   32.1953   20.2044   27.1835 C   0  0  0  0  0  0  0  0  0  0  0  0
   32.6012   19.7648   28.4746 O   0  0  0  0  0  0  0  0  0  0  0  0
   33.3692   20.2810   28.7653 H   0  0  0  0  0  0  0  0  0  0  0  0
   34.0388   21.5563   24.9001 O   0  0  0  0  0  0  0  0  0  0  0  0
   33.9365   20.3624   25.6750 C   0  0  0  0  0  0  0  0  0  0  0  0
 23 24  1  0
 24 22  1  0
 22 20  1  0
 20 21  3  0
 21 11  1  0
 11 12  2  0
 12 13  1  0
  1 13  1  0
  1  2  1  0
  2  3  1  0
  3 25  1  0
 25 26  1  0
  3  4  1  0
  4  5  1  0
  4  6  1  0
  6 28  1  0
 28 29  1  0
  6  7  1  0
  7  8  1  0
 13 14  1  0
 14 15  2  0
 14 16  1  0
 16 17  1  0
 17 18  2  0
 17 11  1  0
  7  1  1  0
 26 27  1  0
  5  9  1  0
  8 10  1  0
 16 19  1  0
M  END
> <minimizedAffinity>
-9.59177

> <CNNscore>
0.9063734412

> <CNNaffinity>
4.8880538940

> <CNN_VS>
4.4304022789

> <CNNaffinity_variance>
1.1502952576

$$$$



 29 30  0  0  0  0  0  0  0  0999 V2000
   33.6693   23.3877   27.9439 C   0  0  0  0  0  0  0  0  0  0  0  0
   32.8590   24.4548   27.4340 O   0  0  0  0  0  0  0  0  0  0  0  0
   32.1991   24.2052   26.1784 C   0  0  0  0  0  0  0  0  0  0  0  0
   32.5617   22.8649   25.5109 C   0  0  0  0  0  0  0  0  0  0  0  0
   33.9184   22.9494   25.0260 O   0  0  0  0  0  0  0  0  0  0  0  0
   32.4694   21.6763   26.4841 C   0  0  0  0  0  0  0  0  0  0  0  0
   32.8654   22.0668   27.9293 C   0  0  0  0  0  0  0  0  0  0  0  0
   33.6032   20.9702   28.5002 O   0  0  0  0  0  0  0  0  0  0  0  0
   34.5193   23.1030   25.7718 H   0  0  0  0  0  0  0  0  0  0  0  0
   34.3962   20.8019   27.9676 H   0  0  0  0  0  0  0  0  0  0  0  0
   36.2258   24.2126   30.5097 C   0  0  0  0  0  0  0  0  0  0  0  0
   35.5846   23.7851   29.4157 C   0  0  0  0  0  0  0  0  0  0  0  0
   34.2028   23.8823   29.2425 N   0  0  0  0  0  0  0  0  0  0  0  0
   33.4053   24.4766   30.2157 C   0  0  0  0  0  0  0  0  0  0  0  0
   32.1763   24.6051   30.1660 O   0  0  0  0  0  0  0  0  0  0  0  0
   34.0635   24.9250   31.3309 N   0  0  0  0  0  0  0  0  0  0  0  0
   35.4034   24.8160   31.5921 C   0  0  0  0  0  0  0  0  0  0  0  0
   35.8767   25.1987   32.6574 O   0  0  0  0  0  0  0  0  0  0  0  0
   33.5158   25.3722   32.0159 H   0  0  0  0  0  0  0  0  0  0  0  0
   38.8359   24.0120   30.7057 C   0  0  0  0  0  0  0  0  0  0  0  0
   37.6402   24.1063   30.6262 C   0  0  0  0  0  0  0  0  0  0  0  0
   40.3002   23.9123   30.7732 C   0  0  0  0  0  0  0  0  0  0  0  0
   42.3189   23.5678   32.2859 C   0  0  0  0  0  0  0  0  0  0  0  0
   40.8019   23.6754   32.1953 C   0  0  0  0  0  0  0  0  0  0  0  0
   30.6794   24.3816   26.3833 C   0  0  0  0  0  0  0  0  0  0  0  0
   30.0649   24.8248   25.1787 O   0  0  0  0  0  0  0  0  0  0  0  0
   30.4440   25.6786   24.9175 H   0  0  0  0  0  0  0  0  0  0  0  0
   31.1081   21.1799   26.4552 O   0  0  0  0  0  0  0  0  0  0  0  0
   30.9617   19.9151   27.0994 C   0  0  0  0  0  0  0  0  0  0  0  0
 23 24  1  0
 24 22  1  0
 22 20  1  0
 20 21  3  0
 21 11  1  0
 11 12  2  0
 12 13  1  0
  1 13  1  0
  1  2  1  0
  2  3  1  0
  3 25  1  0
 25 26  1  0
  3  4  1  0
  4  5  1  0
  4  6  1  0
  6 28  1  0
 28 29  1  0
  6  7  1  0
  7  8  1  0
 13 14  1  0
 14 15  2  0
 14 16  1  0
 16 17  1  0
 17 18  2  0
 17 11  1  0
  7  1  1  0
 26 27  1  0
  5  9  1  0
  8 10  1  0
 16 19  1  0
M  END
> <minimizedAffinity>
-9.75835

> <CNNscore>
0.8137885928

> <CNNaffinity>
4.5657734871

> <CNN_VS>
3.7155742645

> <CNNaffinity_variance>
0.9269270301

$$$$



 29 30  0  0  0  0  0  0  0  0999 V2000
   33.0142   23.0609   28.3921 C   0  0  0  0  0  0  0  0  0  0  0  0
   33.9832   22.5156   27.4871 O   0  0  0  0  0  0  0  0  0  0  0  0
   33.4590   21.8612   26.3161 C   0  0  0  0  0  0  0  0  0  0  0  0
   31.9236   21.7417   26.2733 C   0  0  0  0  0  0  0  0  0  0  0  0
   31.5141   20.7722   27.2608 O   0  0  0  0  0  0  0  0  0  0  0  0
   31.2185   23.0742   26.5825 C   0  0  0  0  0  0  0  0  0  0  0  0
   31.9989   23.9279   27.6121 C   0  0  0  0  0  0  0  0  0  0  0  0
   31.0418   24.5643   28.4791 O   0  0  0  0  0  0  0  0  0  0  0  0
   31.7823   21.0756   28.1423 H   0  0  0  0  0  0  0  0  0  0  0  0
   30.5161   23.8869   28.9328 H   0  0  0  0  0  0  0  0  0  0  0  0
   36.0447   24.0872   30.2797 C   0  0  0  0  0  0  0  0  0  0  0  0
   35.1907   23.5509   29.3999 C   0  0  0  0  0  0  0  0  0  0  0  0
   33.8047   23.6966   29.4815 N   0  0  0  0  0  0  0  0  0  0  0  0
   33.2290   24.4574   30.4945 C   0  0  0  0  0  0  0  0  0  0  0  0
   32.0179   24.6426   30.6624 O   0  0  0  0  0  0  0  0  0  0  0  0
   34.1045   25.0162   31.3885 N   0  0  0  0  0  0  0  0  0  0  0  0
   35.4663   24.8728   31.4022 C   0  0  0  0  0  0  0  0  0  0  0  0
   36.1491   25.3698   32.2923 O   0  0  0  0  0  0  0  0  0  0  0  0
   33.7135   25.5796   32.0949 H   0  0  0  0  0  0  0  0  0  0  0  0
   38.6416   23.7886   30.0372 C   0  0  0  0  0  0  0  0  0  0  0  0
   37.4513   23.9231   30.1380 C   0  0  0  0  0  0  0  0  0  0  0  0
   40.0966   23.6081   29.9434 C   0  0  0  0  0  0  0  0  0  0  0  0
   42.2825   23.4566   31.2399 C   0  0  0  0  0  0  0  0  0  0  0  0
   40.7886   23.7498   31.2967 C   0  0  0  0  0  0  0  0  0  0  0  0
   34.0416   22.5570   25.0674 C   0  0  0  0  0  0  0  0  0  0  0  0
   33.1242   22.4780   23.9825 O   0  0  0  0  0  0  0  0  0  0  0  0
   32.9555   21.5470   23.7688 H   0  0  0  0  0  0  0  0  0  0  0  0
   31.0722   23.8017   25.3376 O   0  0  0  0  0  0  0  0  0  0  0  0
   29.7664   24.3496   25.1618 C   0  0  0  0  0  0  0  0  0  0  0  0
 23 24  1  0
 24 22  1  0
 22 20  1  0
 20 21  3  0
 21 11  1  0
 11 12  2  0
 12 13  1  0
  1 13  1  0
  1  2  1  0
  2  3  1  0
  3 25  1  0
 25 26  1  0
  3  4  1  0
  4  5  1  0
  4  6  1  0
  6 28  1  0
 28 29  1  0
  6  7  1  0
  7  8  1  0
 13 14  1  0
 14 15  2  0
 14 16  1  0
 16 17  1  0
 17 18  2  0
 17 11  1  0
  7  1  1  0
 26 27  1  0
  5  9  1  0
  8 10  1  0
 16 19  1  0
M  END
> <minimizedAffinity>
-8.72202

> <CNNscore>
0.4559029937

> <CNNaffinity>
4.5625190735

> <CNN_VS>
2.0800662041

> <CNNaffinity_variance>
0.3808921278

$$$$



 29 30  0  0  0  0  0  0  0  0999 V2000
   36.9568   25.2498   32.0359 C   0  0  0  0  0  0  0  0  0  0  0  0
   37.5390   23.9571   31.8232 O   0  0  0  0  0  0  0  0  0  0  0  0
   38.9742   23.9195   31.7084 C   0  0  0  0  0  0  0  0  0  0  0  0
   39.6610   25.2986   31.7129 C   0  0  0  0  0  0  0  0  0  0  0  0
   39.3643   25.9597   30.4648 O   0  0  0  0  0  0  0  0  0  0  0  0
   39.1742   26.1972   32.8636 C   0  0  0  0  0  0  0  0  0  0  0  0
   37.6807   25.9650   33.2002 C   0  0  0  0  0  0  0  0  0  0  0  0
   37.0909   27.2412   33.5105 O   0  0  0  0  0  0  0  0  0  0  0  0
   38.4057   26.0851   30.3852 H   0  0  0  0  0  0  0  0  0  0  0  0
   37.1759   27.8313   32.7454 H   0  0  0  0  0  0  0  0  0  0  0  0
   33.4934   24.5764   30.8735 C   0  0  0  0  0  0  0  0  0  0  0  0
   34.8050   24.8323   30.9460 C   0  0  0  0  0  0  0  0  0  0  0  0
   35.4920   25.0100   32.1482 N   0  0  0  0  0  0  0  0  0  0  0  0
   34.8316   24.8934   33.3674 C   0  0  0  0  0  0  0  0  0  0  0  0
   35.3415   25.0398   34.4845 O   0  0  0  0  0  0  0  0  0  0  0  0
   33.4909   24.6198   33.2932 N   0  0  0  0  0  0  0  0  0  0  0  0
   32.7427   24.4861   32.1541 C   0  0  0  0  0  0  0  0  0  0  0  0
   31.5307   24.3027   32.2073 O   0  0  0  0  0  0  0  0  0  0  0  0
   33.0159   24.5076   34.1482 H   0  0  0  0  0  0  0  0  0  0  0  0
   32.2951   24.2048   28.5675 C   0  0  0  0  0  0  0  0  0  0  0  0
   32.8462   24.3847   29.6205 C   0  0  0  0  0  0  0  0  0  0  0  0
   31.5969   23.9686   27.2965 C   0  0  0  0  0  0  0  0  0  0  0  0
   32.7105   21.7037   27.6319 C   0  0  0  0  0  0  0  0  0  0  0  0
   31.6872   22.5132   26.8452 C   0  0  0  0  0  0  0  0  0  0  0  0
   39.5251   22.9715   32.7949 C   0  0  0  0  0  0  0  0  0  0  0  0
   40.9209   23.1818   32.9750 O   0  0  0  0  0  0  0  0  0  0  0  0
   41.3850   23.0025   32.1423 H   0  0  0  0  0  0  0  0  0  0  0  0
   39.9974   25.9220   34.0242 O   0  0  0  0  0  0  0  0  0  0  0  0
   40.3078   27.0930   34.7783 C   0  0  0  0  0  0  0  0  0  0  0  0
 23 24  1  0
 24 22  1  0
 22 20  1  0
 20 21  3  0
 21 11  1  0
 11 12  2  0
 12 13  1  0
  1 13  1  0
  1  2  1  0
  2  3  1  0
  3 25  1  0
 25 26  1  0
  3  4  1  0
  4  5  1  0
  4  6  1  0
  6 28  1  0
 28 29  1  0
  6  7  1  0
  7  8  1  0
 13 14  1  0
 14 15  2  0
 14 16  1  0
 16 17  1  0
 17 18  2  0
 17 11  1  0
  7  1  1  0
 26 27  1  0
  5  9  1  0
  8 10  1  0
 16 19  1  0
M  END
> <minimizedAffinity>
-7.23419

> <CNNscore>
0.3876422346

> <CNNaffinity>
4.3242735863

> <CNN_VS>
1.6762710810

> <CNNaffinity_variance>
0.9322471619

$$$$



 29 30  0  0  0  0  0  0  0  0999 V2000
   33.5033   23.9192   30.1830 C   0  0  0  0  0  0  0  0  0  0  0  0
   34.7286   23.5912   29.5149 O   0  0  0  0  0  0  0  0  0  0  0  0
   34.6020   23.0730   28.1771 C   0  0  0  0  0  0  0  0  0  0  0  0
   33.1537   22.8367   27.7081 C   0  0  0  0  0  0  0  0  0  0  0  0
   32.6208   21.7043   28.4270 O   0  0  0  0  0  0  0  0  0  0  0  0
   32.2423   24.0486   27.9711 C   0  0  0  0  0  0  0  0  0  0  0  0
   32.6278   24.8047   29.2663 C   0  0  0  0  0  0  0  0  0  0  0  0
   31.4129   25.2289   29.9121 O   0  0  0  0  0  0  0  0  0  0  0  0
   32.6168   21.8976   29.3775 H   0  0  0  0  0  0  0  0  0  0  0  0
   30.8713   24.4526   30.1239 H   0  0  0  0  0  0  0  0  0  0  0  0
   35.7429   25.4238   32.7364 C   0  0  0  0  0  0  0  0  0  0  0  0
   35.2298   24.8893   31.6220 C   0  0  0  0  0  0  0  0  0  0  0  0
   33.9084   24.4525   31.5124 N   0  0  0  0  0  0  0  0  0  0  0  0
   33.0254   24.5862   32.5795 C   0  0  0  0  0  0  0  0  0  0  0  0
   31.8424   24.2258   32.5907 O   0  0  0  0  0  0  0  0  0  0  0  0
   33.5480   25.1444   33.7168 N   0  0  0  0  0  0  0  0  0  0  0  0
   34.8425   25.5452   33.9138 C   0  0  0  0  0  0  0  0  0  0  0  0
   35.2164   25.9758   35.0002 O   0  0  0  0  0  0  0  0  0  0  0  0
   32.9279   25.2703   34.4710 H   0  0  0  0  0  0  0  0  0  0  0  0
   38.2278   26.2660   32.8255 C   0  0  0  0  0  0  0  0  0  0  0  0
   37.0932   25.8708   32.7875 C   0  0  0  0  0  0  0  0  0  0  0  0
   39.6038   26.7774   32.8864 C   0  0  0  0  0  0  0  0  0  0  0  0
   38.9589   27.0647   35.3326 C   0  0  0  0  0  0  0  0  0  0  0  0
   40.0931   26.9604   34.3207 C   0  0  0  0  0  0  0  0  0  0  0  0
   35.3999   23.9873   27.2231 C   0  0  0  0  0  0  0  0  0  0  0  0
   34.9401   23.8299   25.8856 O   0  0  0  0  0  0  0  0  0  0  0  0
   35.0629   22.9087   25.6078 H   0  0  0  0  0  0  0  0  0  0  0  0
   32.3361   24.9344   26.8278 O   0  0  0  0  0  0  0  0  0  0  0  0
   31.1880   24.8775   25.9824 C   0  0  0  0  0  0  0  0  0  0  0  0
 23 24  1  0
 24 22  1  0
 22 20  1  0
 20 21  3  0
 21 11  1  0
 11 12  2  0
 12 13  1  0
  1 13  1  0
  1  2  1  0
  2  3  1  0
  3 25  1  0
 25 26  1  0
  3  4  1  0
  4  5  1  0
  4  6  1  0
  6 28  1  0
 28 29  1  0
  6  7  1  0
  7  8  1  0
 13 14  1  0
 14 15  2  0
 14 16  1  0
 16 17  1  0
 17 18  2  0
 17 11  1  0
  7  1  1  0
 26 27  1  0
  5  9  1  0
  8 10  1  0
 16 19  1  0
M  END
> <minimizedAffinity>
-7.08940

> <CNNscore>
0.3190833926

> <CNNaffinity>
4.7635273933

> <CNN_VS>
1.5199624300

> <CNNaffinity_variance>
0.3365108073

$$$$



 29 30  0  0  0  0  0  0  0  0999 V2000
   32.4220   22.6146   27.1031 C   0  0  0  0  0  0  0  0  0  0  0  0
   33.0621   22.7320   28.3805 O   0  0  0  0  0  0  0  0  0  0  0  0
   33.8412   23.9248   28.5918 C   0  0  0  0  0  0  0  0  0  0  0  0
   33.9662   24.8435   27.3614 C   0  0  0  0  0  0  0  0  0  0  0  0
   34.8222   24.1978   26.3954 O   0  0  0  0  0  0  0  0  0  0  0  0
   32.6085   25.1239   26.6931 C   0  0  0  0  0  0  0  0  0  0  0  0
   31.6465   23.9139   26.7846 C   0  0  0  0  0  0  0  0  0  0  0  0
   30.9201   23.8284   25.5445 O   0  0  0  0  0  0  0  0  0  0  0  0
   34.4240   23.3567   26.1217 H   0  0  0  0  0  0  0  0  0  0  0  0
   31.5442   23.7077   24.8118 H   0  0  0  0  0  0  0  0  0  0  0  0
   31.9052   18.9567   27.4931 C   0  0  0  0  0  0  0  0  0  0  0  0
   32.4299   20.1831   27.3868 C   0  0  0  0  0  0  0  0  0  0  0  0
   31.6701   21.3309   27.1542 N   0  0  0  0  0  0  0  0  0  0  0  0
   30.2845   21.2565   27.0511 C   0  0  0  0  0  0  0  0  0  0  0  0
   29.5216   22.2063   26.8382 O   0  0  0  0  0  0  0  0  0  0  0  0
   29.7463   20.0019   27.1716 N   0  0  0  0  0  0  0  0  0  0  0  0
   30.4308   18.8288   27.3464 C   0  0  0  0  0  0  0  0  0  0  0  0
   29.8465   17.7504   27.3784 O   0  0  0  0  0  0  0  0  0  0  0  0
   28.7648   19.9373   27.1280 H   0  0  0  0  0  0  0  0  0  0  0  0
   33.4321   16.8724   27.9579 C   0  0  0  0  0  0  0  0  0  0  0  0
   32.7250   17.8220   27.7501 C   0  0  0  0  0  0  0  0  0  0  0  0
   34.3217   15.7325   28.2188 C   0  0  0  0  0  0  0  0  0  0  0  0
   33.8900   13.4723   27.1292 C   0  0  0  0  0  0  0  0  0  0  0  0
   33.5654   14.4083   28.2867 C   0  0  0  0  0  0  0  0  0  0  0  0
   33.2856   24.6560   29.8325 C   0  0  0  0  0  0  0  0  0  0  0  0
   31.9251   24.3000   30.0499 O   0  0  0  0  0  0  0  0  0  0  0  0
   31.3969   24.5545   29.2772 H   0  0  0  0  0  0  0  0  0  0  0  0
   32.0218   26.2798   27.3414 O   0  0  0  0  0  0  0  0  0  0  0  0
   30.6741   26.0620   27.7569 C   0  0  0  0  0  0  0  0  0  0  0  0
 23 24  1  0
 24 22  1  0
 22 20  1  0
 20 21  3  0
 21 11  1  0
 11 12  2  0
 12 13  1  0
  1 13  1  0
  1  2  1  0
  2  3  1  0
  3 25  1  0
 25 26  1  0
  3  4  1  0
  4  5  1  0
  4  6  1  0
  6 28  1  0
 28 29  1  0
  6  7  1  0
  7  8  1  0
 13 14  1  0
 14 15  2  0
 14 16  1  0
 16 17  1  0
 17 18  2  0
 17 11  1  0
  7  1  1  0
 26 27  1  0
  5  9  1  0
  8 10  1  0
 16 19  1  0
M  END
> <minimizedAffinity>
7.74069

> <CNNscore>
0.3124522269

> <CNNaffinity>
4.4071002007

> <CNN_VS>
1.3770083189

> <CNNaffinity_variance>
0.1763233989

$$$$



 29 30  0  0  0  0  0  0  0  0999 V2000
   32.6900   22.4491   26.5371 C   0  0  0  0  0  0  0  0  0  0  0  0
   33.7905   22.4477   27.4559 O   0  0  0  0  0  0  0  0  0  0  0  0
   34.6778   23.5799   27.3836 C   0  0  0  0  0  0  0  0  0  0  0  0
   34.3749   24.5688   26.2417 C   0  0  0  0  0  0  0  0  0  0  0  0
   34.7267   23.9417   24.9904 O   0  0  0  0  0  0  0  0  0  0  0  0
   32.8892   24.9658   26.1827 C   0  0  0  0  0  0  0  0  0  0  0  0
   31.9531   23.8068   26.6046 C   0  0  0  0  0  0  0  0  0  0  0  0
   30.7908   23.8421   25.7557 O   0  0  0  0  0  0  0  0  0  0  0  0
   34.1899   23.1433   24.8667 H   0  0  0  0  0  0  0  0  0  0  0  0
   31.0626   23.7357   24.8307 H   0  0  0  0  0  0  0  0  0  0  0  0
   31.7636   19.3457   28.3566 C   0  0  0  0  0  0  0  0  0  0  0  0
   32.3603   20.4672   27.9356 C   0  0  0  0  0  0  0  0  0  0  0  0
   31.9246   21.2077   26.8354 N   0  0  0  0  0  0  0  0  0  0  0  0
   30.7945   20.8210   26.1215 C   0  0  0  0  0  0  0  0  0  0  0  0
   30.3306   21.3979   25.1309 O   0  0  0  0  0  0  0  0  0  0  0  0
   30.1768   19.6789   26.5599 N   0  0  0  0  0  0  0  0  0  0  0  0
   30.5767   18.8752   27.5940 C   0  0  0  0  0  0  0  0  0  0  0  0
   29.9796   17.8368   27.8598 O   0  0  0  0  0  0  0  0  0  0  0  0
   29.3602   19.4080   26.0813 H   0  0  0  0  0  0  0  0  0  0  0  0
   32.6575   18.0422   30.4527 C   0  0  0  0  0  0  0  0  0  0  0  0
   32.2387   18.6395   29.4973 C   0  0  0  0  0  0  0  0  0  0  0  0
   33.1975   17.3303   31.6190 C   0  0  0  0  0  0  0  0  0  0  0  0
   32.0798   15.2152   32.4903 C   0  0  0  0  0  0  0  0  0  0  0  0
   32.0993   16.7386   32.4988 C   0  0  0  0  0  0  0  0  0  0  0  0
   34.7164   24.2578   28.7698 C   0  0  0  0  0  0  0  0  0  0  0  0
   36.0618   24.4896   29.1711 O   0  0  0  0  0  0  0  0  0  0  0  0
   36.5331   23.6436   29.2261 H   0  0  0  0  0  0  0  0  0  0  0  0
   32.6969   26.1072   27.0549 O   0  0  0  0  0  0  0  0  0  0  0  0
   31.6083   25.9389   27.9620 C   0  0  0  0  0  0  0  0  0  0  0  0
 23 24  1  0
 24 22  1  0
 22 20  1  0
 20 21  3  0
 21 11  1  0
 11 12  2  0
 12 13  1  0
  1 13  1  0
  1  2  1  0
  2  3  1  0
  3 25  1  0
 25 26  1  0
  3  4  1  0
  4  5  1  0
  4  6  1  0
  6 28  1  0
 28 29  1  0
  6  7  1  0
  7  8  1  0
 13 14  1  0
 14 15  2  0
 14 16  1  0
 16 17  1  0
 17 18  2  0
 17 11  1  0
  7  1  1  0
 26 27  1  0
  5  9  1  0
  8 10  1  0
 16 19  1  0
M  END
> <minimizedAffinity>
8.31087

> <CNNscore>
0.2612849772

> <CNNaffinity>
4.5527286530

> <CNN_VS>
1.1895595789

> <CNNaffinity_variance>
0.1510709077

$$$$



 29 30  0  0  0  0  0  0  0  0999 V2000
   29.9826   23.3236   25.7664 C   0  0  0  0  0  0  0  0  0  0  0  0
   29.8544   21.8996   25.8711 O   0  0  0  0  0  0  0  0  0  0  0  0
   31.0858   21.1538   25.9136 C   0  0  0  0  0  0  0  0  0  0  0  0
   32.3608   21.9964   25.7191 C   0  0  0  0  0  0  0  0  0  0  0  0
   32.4182   22.4251   24.3422 O   0  0  0  0  0  0  0  0  0  0  0  0
   32.3851   23.2468   26.6160 C   0  0  0  0  0  0  0  0  0  0  0  0
   30.9719   23.8403   26.8366 C   0  0  0  0  0  0  0  0  0  0  0  0
   31.0862   25.2755   26.8296 O   0  0  0  0  0  0  0  0  0  0  0  0
   31.6440   22.9739   24.1418 H   0  0  0  0  0  0  0  0  0  0  0  0
   31.4446   25.5672   25.9768 H   0  0  0  0  0  0  0  0  0  0  0  0
   26.6319   24.1387   27.1478 C   0  0  0  0  0  0  0  0  0  0  0  0
   27.8814   23.6952   26.9662 C   0  0  0  0  0  0  0  0  0  0  0  0
   28.5893   23.8474   25.7726 N   0  0  0  0  0  0  0  0  0  0  0  0
   28.0237   24.5173   24.6921 C   0  0  0  0  0  0  0  0  0  0  0  0
   28.5584   24.6990   23.5918 O   0  0  0  0  0  0  0  0  0  0  0  0
   26.7485   24.9817   24.8822 N   0  0  0  0  0  0  0  0  0  0  0  0
   25.9761   24.8233   26.0019 C   0  0  0  0  0  0  0  0  0  0  0  0
   24.8186   25.2285   26.0384 O   0  0  0  0  0  0  0  0  0  0  0  0
   26.3455   25.4814   24.1359 H   0  0  0  0  0  0  0  0  0  0  0  0
   25.4034   23.8520   29.4500 C   0  0  0  0  0  0  0  0  0  0  0  0
   25.9630   23.9736   28.3932 C   0  0  0  0  0  0  0  0  0  0  0  0
   24.7082   23.7349   30.7390 C   0  0  0  0  0  0  0  0  0  0  0  0
   22.6375   25.0365   31.4463 C   0  0  0  0  0  0  0  0  0  0  0  0
   23.1967   23.8986   30.6015 C   0  0  0  0  0  0  0  0  0  0  0  0
   31.1079   20.3239   27.2149 C   0  0  0  0  0  0  0  0  0  0  0  0
   32.2116   19.4256   27.2113 O   0  0  0  0  0  0  0  0  0  0  0  0
   32.1328   18.8196   26.4580 H   0  0  0  0  0  0  0  0  0  0  0  0
   32.9750   22.8739   27.8862 O   0  0  0  0  0  0  0  0  0  0  0  0
   32.9556   23.9329   28.8425 C   0  0  0  0  0  0  0  0  0  0  0  0
 23 24  1  0
 24 22  1  0
 22 20  1  0
 20 21  3  0
 21 11  1  0
 11 12  2  0
 12 13  1  0
  1 13  1  0
  1  2  1  0
  2  3  1  0
  3 25  1  0
 25 26  1  0
  3  4  1  0
  4  5  1  0
  4  6  1  0
  6 28  1  0
 28 29  1  0
  6  7  1  0
  7  8  1  0
 13 14  1  0
 14 15  2  0
 14 16  1  0
 16 17  1  0
 17 18  2  0
 17 11  1  0
  7  1  1  0
 26 27  1  0
  5  9  1  0
  8 10  1  0
 16 19  1  0
M  END
> <minimizedAffinity>
-9.12877

> <CNNscore>
0.2544066012

> <CNNaffinity>
4.7056622505

> <CNN_VS>
1.1971515417

> <CNNaffinity_variance>
0.0307500344

$$$$



 29 30  0  0  0  0  0  0  0  0999 V2000
   36.9630   23.9284   31.0297 C   0  0  0  0  0  0  0  0  0  0  0  0
   37.0985   25.0308   31.9362 O   0  0  0  0  0  0  0  0  0  0  0  0
   38.3612   25.1368   32.6208 C   0  0  0  0  0  0  0  0  0  0  0  0
   39.3380   23.9739   32.3625 C   0  0  0  0  0  0  0  0  0  0  0  0
   38.8324   22.7974   33.0282 O   0  0  0  0  0  0  0  0  0  0  0  0
   39.4922   23.6533   30.8652 C   0  0  0  0  0  0  0  0  0  0  0  0
   38.1795   23.8820   30.0762 C   0  0  0  0  0  0  0  0  0  0  0  0
   38.0645   22.8377   29.0918 O   0  0  0  0  0  0  0  0  0  0  0  0
   37.9641   22.5669   32.6624 H   0  0  0  0  0  0  0  0  0  0  0  0
   38.0447   21.9755   29.5358 H   0  0  0  0  0  0  0  0  0  0  0  0
   34.1110   23.1718   28.7728 C   0  0  0  0  0  0  0  0  0  0  0  0
   35.2986   23.2000   29.3890 C   0  0  0  0  0  0  0  0  0  0  0  0
   35.6023   24.0650   30.4418 N   0  0  0  0  0  0  0  0  0  0  0  0
   34.6443   24.9440   30.9376 C   0  0  0  0  0  0  0  0  0  0  0  0
   34.8111   25.7545   31.8566 O   0  0  0  0  0  0  0  0  0  0  0  0
   33.4245   24.9068   30.3141 N   0  0  0  0  0  0  0  0  0  0  0  0
   33.0728   24.1260   29.2454 C   0  0  0  0  0  0  0  0  0  0  0  0
   31.9657   24.2215   28.7252 O   0  0  0  0  0  0  0  0  0  0  0  0
   32.7282   25.5039   30.6718 H   0  0  0  0  0  0  0  0  0  0  0  0
   33.6083   21.4871   26.8233 C   0  0  0  0  0  0  0  0  0  0  0  0
   33.8484   22.2552   27.7162 C   0  0  0  0  0  0  0  0  0  0  0  0
   33.2963   20.5719   25.7171 C   0  0  0  0  0  0  0  0  0  0  0  0
   31.0253   20.4125   26.8568 C   0  0  0  0  0  0  0  0  0  0  0  0
   31.7945   20.3610   25.5428 C   0  0  0  0  0  0  0  0  0  0  0  0
   38.9739   26.5171   32.3016 C   0  0  0  0  0  0  0  0  0  0  0  0
   38.2813   27.5418   33.0055 O   0  0  0  0  0  0  0  0  0  0  0  0
   37.3495   27.5460   32.7362 H   0  0  0  0  0  0  0  0  0  0  0  0
   40.5475   24.4934   30.3349 O   0  0  0  0  0  0  0  0  0  0  0  0
   41.8330   23.8764   30.3912 C   0  0  0  0  0  0  0  0  0  0  0  0
 23 24  1  0
 24 22  1  0
 22 20  1  0
 20 21  3  0
 21 11  1  0
 11 12  2  0
 12 13  1  0
  1 13  1  0
  1  2  1  0
  2  3  1  0
  3 25  1  0
 25 26  1  0
  3  4  1  0
  4  5  1  0
  4  6  1  0
  6 28  1  0
 28 29  1  0
  6  7  1  0
  7  8  1  0
 13 14  1  0
 14 15  2  0
 14 16  1  0
 16 17  1  0
 17 18  2  0
 17 11  1  0
  7  1  1  0
 26 27  1  0
  5  9  1  0
  8 10  1  0
 16 19  1  0
M  END
> <minimizedAffinity>
-8.21518

> <CNNscore>
0.2100039870

> <CNNaffinity>
4.0447850227

> <CNN_VS>
0.8494209647

> <CNNaffinity_variance>
1.6167192459

$$$$
