


 41 44  0  0  0  0  0  0  0  0999 V2000
   45.8684   11.7951    0.9917 C   0  0  0  0  0  0  0  0  0  0  0  0
   44.8581   11.0000    0.4483 C   0  0  0  0  0  0  0  0  0  0  0  0
   45.1404    9.6962    0.0523 C   0  0  0  0  0  0  0  0  0  0  0  0
   46.4356    9.1839    0.1860 C   0  0  0  0  0  0  0  0  0  0  0  0
   47.4807    9.9602    0.6911 C   0  0  0  0  0  0  0  0  0  0  0  0
   47.1616   11.2608    1.1191 C   0  0  0  0  0  0  0  0  0  0  0  0
   45.4470   15.1518    2.6530 C   0  0  0  0  0  0  0  0  0  0  0  0
   44.6908   15.4883    1.5440 C   0  0  0  0  0  0  0  0  0  0  0  0
   44.5783   14.1545    0.4619 S   0  0  0  0  0  0  0  0  0  0  0  0
   45.5763   13.1587    1.4366 C   0  0  0  0  0  0  0  0  0  0  0  0
   45.9780   13.8330    2.5685 C   0  0  0  0  0  0  0  0  0  0  0  0
   47.1443   13.1320    3.8911 Br  0  0  0  0  0  0  0  0  0  0  0  0
   44.0191   16.7125    1.1726 C   0  0  0  0  0  0  0  0  0  0  0  0
   43.9360   17.7548    1.8072 O   0  0  0  0  0  0  0  0  0  0  0  0
   43.4481   16.6452   -0.0502 O   0  0  0  0  0  0  0  0  0  0  0  0
   43.5024   15.8543   -0.5498 H   0  0  0  0  0  0  0  0  0  0  0  0
   45.7262   16.0311    3.6469 O   0  0  0  0  0  0  0  0  0  0  0  0
   46.9457   16.7296    3.4012 C   0  0  0  0  0  0  0  0  0  0  0  0
   48.3983   17.9321    4.9880 O   0  0  0  0  0  0  0  0  0  0  0  0
   47.2942   17.6065    4.5876 C   0  0  0  0  0  0  0  0  0  0  0  0
   46.1901   18.0402    5.2377 O   0  0  0  0  0  0  0  0  0  0  0  0
   45.3394   17.7922    4.9332 H   0  0  0  0  0  0  0  0  0  0  0  0
   48.7736    9.5008    0.9056 N   0  0  0  0  0  0  0  0  0  0  0  0
   49.4938    9.9907    0.4468 H   0  0  0  0  0  0  0  0  0  0  0  0
   49.1852    8.3661    1.7401 C   0  0  0  0  0  0  0  0  0  0  0  0
   50.6690    8.0182    1.5816 C   0  0  0  0  0  0  0  0  0  0  0  0
   51.3270    7.6886    2.9169 C   0  0  0  0  0  0  0  0  0  0  0  0
   50.4611    6.7690    3.6778 N   0  0  0  0  0  0  0  0  0  0  0  0
   49.0933    7.2489    3.9832 C   0  0  0  0  0  0  0  0  0  0  0  0
   48.7341    8.5032    3.1928 C   0  0  0  0  0  0  0  0  0  0  0  0
   51.1881    5.7225    4.8037 S   0  0  0  0  0  0  0  0  0  0  0  0
   50.2023    5.4563    5.8308 O   0  0  0  0  0  0  0  0  0  0  0  0
   52.4813    6.2911    5.1236 O   0  0  0  0  0  0  0  0  0  0  0  0
   51.4262    4.2277    3.8251 C   0  0  0  0  0  0  0  0  0  0  0  0
   50.4317    3.1816    4.2629 C   0  0  0  0  0  0  0  0  0  0  0  0
   49.2257    3.0089    3.5642 C   0  0  0  0  0  0  0  0  0  0  0  0
   48.3067    2.0402    3.9699 C   0  0  0  0  0  0  0  0  0  0  0  0
   48.5886    1.2476    5.0751 C   0  0  0  0  0  0  0  0  0  0  0  0
   47.7068    0.3167    5.4626 F   0  0  0  0  0  0  0  0  0  0  0  0
   49.7710    1.4077    5.7859 C   0  0  0  0  0  0  0  0  0  0  0  0
   50.6930    2.3745    5.3821 C   0  0  0  0  0  0  0  0  0  0  0  0
 19 20  2  0
 20 21  1  0
 20 18  1  0
 18 17  1  0
 17  7  1  0
  7  8  2  0
  8 13  1  0
 13 14  2  0
 13 15  1  0
  8  9  1  0
  9 10  1  0
 10  1  1  0
  1  2  2  0
  2  3  1  0
  3  4  2  0
  4  5  1  0
  5 23  1  0
 23 25  1  0
 25 26  1  0
 26 27  1  0
 27 28  1  0
 28 31  1  0
 31 32  2  0
 31 33  2  0
 31 34  1  0
 34 35  1  0
 35 36  2  0
 36 37  1  0
 37 38  2  0
 38 39  1  0
 38 40  1  0
 40 41  2  0
 28 29  1  0
 29 30  1  0
  5  6  2  0
 10 11  2  0
 11 12  1  0
 11  7  1  0
  6  1  1  0
 30 25  1  0
 41 35  1  0
 21 22  1  0
 15 16  1  0
 23 24  1  0
M  END
> <minimizedAffinity>
-8.86598

> <CNNscore>
0.9225088358

> <CNNaffinity>
7.0130124092

> <CNN_VS>
6.4695658684

> <CNNaffinity_variance>
0.0084327208

$$$$



 41 44  0  0  0  0  0  0  0  0999 V2000
   45.8767   11.9053    1.1401 C   0  0  0  0  0  0  0  0  0  0  0  0
   44.8666   11.0994    0.6124 C   0  0  0  0  0  0  0  0  0  0  0  0
   45.1470    9.7853    0.2505 C   0  0  0  0  0  0  0  0  0  0  0  0
   46.4403    9.2732    0.4028 C   0  0  0  0  0  0  0  0  0  0  0  0
   47.4853   10.0593    0.8928 C   0  0  0  0  0  0  0  0  0  0  0  0
   47.1679   11.3711    1.2865 C   0  0  0  0  0  0  0  0  0  0  0  0
   45.4588   15.3045    2.7136 C   0  0  0  0  0  0  0  0  0  0  0  0
   44.7045   15.6135    1.5953 C   0  0  0  0  0  0  0  0  0  0  0  0
   44.5911   14.2524    0.5479 S   0  0  0  0  0  0  0  0  0  0  0  0
   45.5862   13.2804    1.5493 C   0  0  0  0  0  0  0  0  0  0  0  0
   45.9877   13.9831    2.6639 C   0  0  0  0  0  0  0  0  0  0  0  0
   47.1512   13.3146    4.0056 Br  0  0  0  0  0  0  0  0  0  0  0  0
   44.0354   16.8288    1.1916 C   0  0  0  0  0  0  0  0  0  0  0  0
   43.9758   17.8956    1.7868 O   0  0  0  0  0  0  0  0  0  0  0  0
   43.4362   16.7196   -0.0146 O   0  0  0  0  0  0  0  0  0  0  0  0
   43.4721   15.9095   -0.4840 H   0  0  0  0  0  0  0  0  0  0  0  0
   45.7383   16.2087    3.6848 O   0  0  0  0  0  0  0  0  0  0  0  0
   46.9788   16.8705    3.4433 C   0  0  0  0  0  0  0  0  0  0  0  0
   48.5519   18.0000    4.9676 O   0  0  0  0  0  0  0  0  0  0  0  0
   47.4344   17.5995    4.6918 C   0  0  0  0  0  0  0  0  0  0  0  0
   46.4195   17.7885    5.5659 O   0  0  0  0  0  0  0  0  0  0  0  0
   45.5588   17.4821    5.3578 H   0  0  0  0  0  0  0  0  0  0  0  0
   48.7760    9.6021    1.1244 N   0  0  0  0  0  0  0  0  0  0  0  0
   49.5055   10.1324    0.7296 H   0  0  0  0  0  0  0  0  0  0  0  0
   49.1730    8.4163    1.8923 C   0  0  0  0  0  0  0  0  0  0  0  0
   50.6689    8.1052    1.7756 C   0  0  0  0  0  0  0  0  0  0  0  0
   51.2745    7.6895    3.1117 C   0  0  0  0  0  0  0  0  0  0  0  0
   50.3944    6.7027    3.7645 N   0  0  0  0  0  0  0  0  0  0  0  0
   49.0055    7.1366    4.0423 C   0  0  0  0  0  0  0  0  0  0  0  0
   48.6566    8.4393    3.3293 C   0  0  0  0  0  0  0  0  0  0  0  0
   51.0921    5.5887    4.8431 S   0  0  0  0  0  0  0  0  0  0  0  0
   50.0908    5.2871    5.8452 O   0  0  0  0  0  0  0  0  0  0  0  0
   52.3906    6.1189    5.2048 O   0  0  0  0  0  0  0  0  0  0  0  0
   51.3171    4.1417    3.7923 C   0  0  0  0  0  0  0  0  0  0  0  0
   51.9400    3.0307    4.6004 C   0  0  0  0  0  0  0  0  0  0  0  0
   51.4247    2.6930    5.8624 C   0  0  0  0  0  0  0  0  0  0  0  0
   52.0015    1.6645    6.6088 C   0  0  0  0  0  0  0  0  0  0  0  0
   53.0949    0.9768    6.0983 C   0  0  0  0  0  0  0  0  0  0  0  0
   53.6467   -0.0116    6.8145 F   0  0  0  0  0  0  0  0  0  0  0  0
   53.6260    1.3004    4.8565 C   0  0  0  0  0  0  0  0  0  0  0  0
   53.0507    2.3274    4.1067 C   0  0  0  0  0  0  0  0  0  0  0  0
 19 20  2  0
 20 21  1  0
 20 18  1  0
 18 17  1  0
 17  7  1  0
  7  8  2  0
  8 13  1  0
 13 14  2  0
 13 15  1  0
  8  9  1  0
  9 10  1  0
 10  1  1  0
  1  2  2  0
  2  3  1  0
  3  4  2  0
  4  5  1  0
  5 23  1  0
 23 25  1  0
 25 26  1  0
 26 27  1  0
 27 28  1  0
 28 31  1  0
 31 32  2  0
 31 33  2  0
 31 34  1  0
 34 35  1  0
 35 36  2  0
 36 37  1  0
 37 38  2  0
 38 39  1  0
 38 40  1  0
 40 41  2  0
 28 29  1  0
 29 30  1  0
  5  6  2  0
 10 11  2  0
 11 12  1  0
 11  7  1  0
  6  1  1  0
 30 25  1  0
 41 35  1  0
 21 22  1  0
 15 16  1  0
 23 24  1  0
M  END
> <minimizedAffinity>
-9.17920

> <CNNscore>
0.8665010929

> <CNNaffinity>
6.8746724129

> <CNN_VS>
5.9569110870

> <CNNaffinity_variance>
0.0456449687

$$$$



 41 44  0  0  0  0  0  0  0  0999 V2000
   47.3951   11.9730    1.4685 C   0  0  0  0  0  0  0  0  0  0  0  0
   48.0185   12.1794    0.2369 C   0  0  0  0  0  0  0  0  0  0  0  0
   48.7122   11.1378   -0.3715 C   0  0  0  0  0  0  0  0  0  0  0  0
   48.7968    9.8883    0.2527 C   0  0  0  0  0  0  0  0  0  0  0  0
   48.2175    9.6537    1.5015 C   0  0  0  0  0  0  0  0  0  0  0  0
   47.4905   10.7104    2.0774 C   0  0  0  0  0  0  0  0  0  0  0  0
   45.1148   14.7642    2.5705 C   0  0  0  0  0  0  0  0  0  0  0  0
   45.8663   14.7783    3.7323 C   0  0  0  0  0  0  0  0  0  0  0  0
   47.1282   13.6106    3.6500 S   0  0  0  0  0  0  0  0  0  0  0  0
   46.6398   13.0538    2.1043 C   0  0  0  0  0  0  0  0  0  0  0  0
   45.5399   13.7543    1.6608 C   0  0  0  0  0  0  0  0  0  0  0  0
   44.6296   13.4228    0.0291 Br  0  0  0  0  0  0  0  0  0  0  0  0
   45.7646   15.5732    4.9346 C   0  0  0  0  0  0  0  0  0  0  0  0
   46.0137   16.7616    5.0817 O   0  0  0  0  0  0  0  0  0  0  0  0
   45.3104   14.8655    5.9923 O   0  0  0  0  0  0  0  0  0  0  0  0
   45.1147   13.9541    5.8970 H   0  0  0  0  0  0  0  0  0  0  0  0
   44.0327   15.5603    2.3849 O   0  0  0  0  0  0  0  0  0  0  0  0
   44.3115   16.6185    1.4696 C   0  0  0  0  0  0  0  0  0  0  0  0
   43.7130   18.7510    2.5504 O   0  0  0  0  0  0  0  0  0  0  0  0
   44.5368   17.9150    2.2221 C   0  0  0  0  0  0  0  0  0  0  0  0
   45.8409   18.1016    2.5291 O   0  0  0  0  0  0  0  0  0  0  0  0
   46.4774   17.4613    2.2786 H   0  0  0  0  0  0  0  0  0  0  0  0
   48.2119    8.4266    2.1515 N   0  0  0  0  0  0  0  0  0  0  0  0
   47.3989    7.8809    2.0492 H   0  0  0  0  0  0  0  0  0  0  0  0
   49.2833    7.8530    2.9740 C   0  0  0  0  0  0  0  0  0  0  0  0
   48.7916    7.3788    4.3456 C   0  0  0  0  0  0  0  0  0  0  0  0
   49.4109    6.0447    4.7475 C   0  0  0  0  0  0  0  0  0  0  0  0
   50.8621    6.0785    4.4879 N   0  0  0  0  0  0  0  0  0  0  0  0
   51.2783    6.3381    3.0901 C   0  0  0  0  0  0  0  0  0  0  0  0
   50.1172    6.8165    2.2239 C   0  0  0  0  0  0  0  0  0  0  0  0
   51.8732    5.0875    5.4296 S   0  0  0  0  0  0  0  0  0  0  0  0
   51.1367    4.7525    6.6308 O   0  0  0  0  0  0  0  0  0  0  0  0
   53.1614    5.7471    5.4896 O   0  0  0  0  0  0  0  0  0  0  0  0
   52.0125    3.6126    4.4029 C   0  0  0  0  0  0  0  0  0  0  0  0
   50.7851    2.7564    4.5912 C   0  0  0  0  0  0  0  0  0  0  0  0
   50.5463    2.1138    5.8169 C   0  0  0  0  0  0  0  0  0  0  0  0
   49.4100    1.3223    5.9900 C   0  0  0  0  0  0  0  0  0  0  0  0
   48.5150    1.1682    4.9391 C   0  0  0  0  0  0  0  0  0  0  0  0
   47.4235    0.4101    5.1068 F   0  0  0  0  0  0  0  0  0  0  0  0
   48.7363    1.7874    3.7158 C   0  0  0  0  0  0  0  0  0  0  0  0
   49.8710    2.5808    3.5396 C   0  0  0  0  0  0  0  0  0  0  0  0
 19 20  2  0
 20 21  1  0
 20 18  1  0
 18 17  1  0
 17  7  1  0
  7  8  2  0
  8 13  1  0
 13 14  2  0
 13 15  1  0
  8  9  1  0
  9 10  1  0
 10  1  1  0
  1  2  2  0
  2  3  1  0
  3  4  2  0
  4  5  1  0
  5 23  1  0
 23 25  1  0
 25 26  1  0
 26 27  1  0
 27 28  1  0
 28 31  1  0
 31 32  2  0
 31 33  2  0
 31 34  1  0
 34 35  1  0
 35 36  2  0
 36 37  1  0
 37 38  2  0
 38 39  1  0
 38 40  1  0
 40 41  2  0
 28 29  1  0
 29 30  1  0
  5  6  2  0
 10 11  2  0
 11 12  1  0
 11  7  1  0
  6  1  1  0
 30 25  1  0
 41 35  1  0
 21 22  1  0
 15 16  1  0
 23 24  1  0
M  END
> <minimizedAffinity>
-8.54701

> <CNNscore>
0.7979820371

> <CNNaffinity>
6.8453640938

> <CNN_VS>
5.4624776840

> <CNNaffinity_variance>
0.0130923046

$$$$



 41 44  0  0  0  0  0  0  0  0999 V2000
   45.1844   12.5858    0.0780 C   0  0  0  0  0  0  0  0  0  0  0  0
   44.3395   12.6970   -1.0274 C   0  0  0  0  0  0  0  0  0  0  0  0
   44.2367   11.6425   -1.9295 C   0  0  0  0  0  0  0  0  0  0  0  0
   44.9860   10.4764   -1.7385 C   0  0  0  0  0  0  0  0  0  0  0  0
   45.8692   10.3419   -0.6652 C   0  0  0  0  0  0  0  0  0  0  0  0
   45.9266   11.4057    0.2523 C   0  0  0  0  0  0  0  0  0  0  0  0
   45.7726   14.9936    2.9173 C   0  0  0  0  0  0  0  0  0  0  0  0
   44.9922   15.8764    2.1916 C   0  0  0  0  0  0  0  0  0  0  0  0
   44.4386   15.1393    0.7380 S   0  0  0  0  0  0  0  0  0  0  0  0
   45.2795   13.6782    1.0477 C   0  0  0  0  0  0  0  0  0  0  0  0
   45.9611   13.7538    2.2423 C   0  0  0  0  0  0  0  0  0  0  0  0
   47.0755   12.3868    2.9426 Br  0  0  0  0  0  0  0  0  0  0  0  0
   44.5917   17.2409    2.4471 C   0  0  0  0  0  0  0  0  0  0  0  0
   44.4342   18.1486    1.6426 O   0  0  0  0  0  0  0  0  0  0  0  0
   44.3533   17.4794    3.7556 O   0  0  0  0  0  0  0  0  0  0  0  0
   44.4691   16.7952    4.3853 H   0  0  0  0  0  0  0  0  0  0  0  0
   46.3685   15.3302    4.0881 O   0  0  0  0  0  0  0  0  0  0  0  0
   47.5182   16.1475    3.8748 C   0  0  0  0  0  0  0  0  0  0  0  0
   46.5940   17.7520    5.5012 O   0  0  0  0  0  0  0  0  0  0  0  0
   47.5239   17.3070    4.8513 C   0  0  0  0  0  0  0  0  0  0  0  0
   48.7482   17.8722    4.9582 O   0  0  0  0  0  0  0  0  0  0  0  0
   49.4659   17.5331    4.4603 H   0  0  0  0  0  0  0  0  0  0  0  0
   46.5989    9.1948   -0.3818 N   0  0  0  0  0  0  0  0  0  0  0  0
   46.3075    8.3686   -0.8309 H   0  0  0  0  0  0  0  0  0  0  0  0
   47.7561    9.0776    0.5130 C   0  0  0  0  0  0  0  0  0  0  0  0
   47.4132    8.3996    1.8436 C   0  0  0  0  0  0  0  0  0  0  0  0
   48.4944    7.4184    2.2831 C   0  0  0  0  0  0  0  0  0  0  0  0
   49.8198    8.0459    2.1285 N   0  0  0  0  0  0  0  0  0  0  0  0
   50.1828    8.4981    0.7654 C   0  0  0  0  0  0  0  0  0  0  0  0
   48.9854    8.4935   -0.1798 C   0  0  0  0  0  0  0  0  0  0  0  0
   51.0842    7.5190    3.1360 S   0  0  0  0  0  0  0  0  0  0  0  0
   51.6433    8.6981    3.7641 O   0  0  0  0  0  0  0  0  0  0  0  0
   51.9008    6.6234    2.3428 O   0  0  0  0  0  0  0  0  0  0  0  0
   50.1971    6.5629    4.3801 C   0  0  0  0  0  0  0  0  0  0  0  0
   51.0967    5.4723    4.9058 C   0  0  0  0  0  0  0  0  0  0  0  0
   52.4929    5.6157    4.8570 C   0  0  0  0  0  0  0  0  0  0  0  0
   53.3242    4.6061    5.3443 C   0  0  0  0  0  0  0  0  0  0  0  0
   52.7626    3.4521    5.8753 C   0  0  0  0  0  0  0  0  0  0  0  0
   53.5612    2.4845    6.3447 F   0  0  0  0  0  0  0  0  0  0  0  0
   51.3847    3.2857    5.9249 C   0  0  0  0  0  0  0  0  0  0  0  0
   50.5503    4.2940    5.4399 C   0  0  0  0  0  0  0  0  0  0  0  0
 19 20  2  0
 20 21  1  0
 20 18  1  0
 18 17  1  0
 17  7  1  0
  7  8  2  0
  8 13  1  0
 13 14  2  0
 13 15  1  0
  8  9  1  0
  9 10  1  0
 10  1  1  0
  1  2  2  0
  2  3  1  0
  3  4  2  0
  4  5  1  0
  5 23  1  0
 23 25  1  0
 25 26  1  0
 26 27  1  0
 27 28  1  0
 28 31  1  0
 31 32  2  0
 31 33  2  0
 31 34  1  0
 34 35  1  0
 35 36  2  0
 36 37  1  0
 37 38  2  0
 38 39  1  0
 38 40  1  0
 40 41  2  0
 28 29  1  0
 29 30  1  0
  5  6  2  0
 10 11  2  0
 11 12  1  0
 11  7  1  0
  6  1  1  0
 30 25  1  0
 41 35  1  0
 21 22  1  0
 15 16  1  0
 23 24  1  0
M  END
> <minimizedAffinity>
-9.24794

> <CNNscore>
0.7044599652

> <CNNaffinity>
6.7059617043

> <CNN_VS>
4.7240815163

> <CNNaffinity_variance>
0.1070187986

$$$$



 41 44  0  0  0  0  0  0  0  0999 V2000
   47.2828   11.9801    1.5230 C   0  0  0  0  0  0  0  0  0  0  0  0
   47.9825   12.2186    0.3391 C   0  0  0  0  0  0  0  0  0  0  0  0
   48.7196   11.1948   -0.2481 C   0  0  0  0  0  0  0  0  0  0  0  0
   48.7711    9.9310    0.3504 C   0  0  0  0  0  0  0  0  0  0  0  0
   48.1145    9.6641    1.5536 C   0  0  0  0  0  0  0  0  0  0  0  0
   47.3462   10.7036    2.1066 C   0  0  0  0  0  0  0  0  0  0  0  0
   44.9328   14.7469    2.5368 C   0  0  0  0  0  0  0  0  0  0  0  0
   45.5830   14.7093    3.7578 C   0  0  0  0  0  0  0  0  0  0  0  0
   46.8408   13.5345    3.7368 S   0  0  0  0  0  0  0  0  0  0  0  0
   46.4824   13.0422    2.1345 C   0  0  0  0  0  0  0  0  0  0  0  0
   45.4280   13.7691    1.6274 C   0  0  0  0  0  0  0  0  0  0  0  0
   44.6577   13.5092   -0.0872 Br  0  0  0  0  0  0  0  0  0  0  0  0
   45.3841   15.4580    4.9774 C   0  0  0  0  0  0  0  0  0  0  0  0
   45.3574   15.0418    6.1272 O   0  0  0  0  0  0  0  0  0  0  0  0
   45.2369   16.7834    4.7591 O   0  0  0  0  0  0  0  0  0  0  0  0
   45.2548   17.1190    3.8845 H   0  0  0  0  0  0  0  0  0  0  0  0
   43.8749   15.5592    2.2918 O   0  0  0  0  0  0  0  0  0  0  0  0
   44.2219   16.6166    1.3991 C   0  0  0  0  0  0  0  0  0  0  0  0
   43.7820   18.7227    2.6010 O   0  0  0  0  0  0  0  0  0  0  0  0
   44.5487   17.8741    2.1800 C   0  0  0  0  0  0  0  0  0  0  0  0
   45.8779   18.0058    2.3935 O   0  0  0  0  0  0  0  0  0  0  0  0
   46.4709   17.3556    2.0715 H   0  0  0  0  0  0  0  0  0  0  0  0
   48.0741    8.4217    2.1726 N   0  0  0  0  0  0  0  0  0  0  0  0
   47.2758    7.8722    1.9995 H   0  0  0  0  0  0  0  0  0  0  0  0
   49.0895    7.8369    3.0561 C   0  0  0  0  0  0  0  0  0  0  0  0
   48.4962    6.8711    4.0871 C   0  0  0  0  0  0  0  0  0  0  0  0
   49.3551    5.6240    4.2660 C   0  0  0  0  0  0  0  0  0  0  0  0
   50.7706    6.0166    4.3954 N   0  0  0  0  0  0  0  0  0  0  0  0
   51.3523    6.7766    3.2647 C   0  0  0  0  0  0  0  0  0  0  0  0
   50.2845    7.2692    2.2931 C   0  0  0  0  0  0  0  0  0  0  0  0
   51.8148    4.9948    5.2653 S   0  0  0  0  0  0  0  0  0  0  0  0
   51.5638    5.2326    6.6717 O   0  0  0  0  0  0  0  0  0  0  0  0
   53.1340    5.1641    4.6916 O   0  0  0  0  0  0  0  0  0  0  0  0
   51.1874    3.3619    4.8310 C   0  0  0  0  0  0  0  0  0  0  0  0
   52.1931    2.3157    5.2422 C   0  0  0  0  0  0  0  0  0  0  0  0
   52.2890    1.9083    6.5828 C   0  0  0  0  0  0  0  0  0  0  0  0
   53.2196    0.9397    6.9619 C   0  0  0  0  0  0  0  0  0  0  0  0
   54.0573    0.3818    6.0048 C   0  0  0  0  0  0  0  0  0  0  0  0
   54.9487   -0.5492    6.3692 F   0  0  0  0  0  0  0  0  0  0  0  0
   53.9855    0.7767    4.6752 C   0  0  0  0  0  0  0  0  0  0  0  0
   53.0550    1.7440    4.2922 C   0  0  0  0  0  0  0  0  0  0  0  0
 19 20  2  0
 20 21  1  0
 20 18  1  0
 18 17  1  0
 17  7  1  0
  7  8  2  0
  8 13  1  0
 13 14  2  0
 13 15  1  0
  8  9  1  0
  9 10  1  0
 10  1  1  0
  1  2  2  0
  2  3  1  0
  3  4  2  0
  4  5  1  0
  5 23  1  0
 23 25  1  0
 25 26  1  0
 26 27  1  0
 27 28  1  0
 28 31  1  0
 31 32  2  0
 31 33  2  0
 31 34  1  0
 34 35  1  0
 35 36  2  0
 36 37  1  0
 37 38  2  0
 38 39  1  0
 38 40  1  0
 40 41  2  0
 28 29  1  0
 29 30  1  0
  5  6  2  0
 10 11  2  0
 11 12  1  0
 11  7  1  0
  6  1  1  0
 30 25  1  0
 41 35  1  0
 21 22  1  0
 15 16  1  0
 23 24  1  0
M  END
> <minimizedAffinity>
-8.55539

> <CNNscore>
0.6852062941

> <CNNaffinity>
6.6316933632

> <CNN_VS>
4.5440778732

> <CNNaffinity_variance>
0.0127903670

$$$$



 41 44  0  0  0  0  0  0  0  0999 V2000
   47.3084   11.9541    1.6042 C   0  0  0  0  0  0  0  0  0  0  0  0
   47.9981   12.1039    0.4000 C   0  0  0  0  0  0  0  0  0  0  0  0
   48.7023   11.0287   -0.1332 C   0  0  0  0  0  0  0  0  0  0  0  0
   48.7310    9.8021    0.5394 C   0  0  0  0  0  0  0  0  0  0  0  0
   48.0841    9.6240    1.7640 C   0  0  0  0  0  0  0  0  0  0  0  0
   47.3486   10.7135    2.2626 C   0  0  0  0  0  0  0  0  0  0  0  0
   45.0050   14.8001    2.4983 C   0  0  0  0  0  0  0  0  0  0  0  0
   45.7448   14.8943    3.6639 C   0  0  0  0  0  0  0  0  0  0  0  0
   47.0126   13.7301    3.6707 S   0  0  0  0  0  0  0  0  0  0  0  0
   46.5421   13.0705    2.1603 C   0  0  0  0  0  0  0  0  0  0  0  0
   45.4436   13.7347    1.6611 C   0  0  0  0  0  0  0  0  0  0  0  0
   44.5510   13.2922    0.0461 Br  0  0  0  0  0  0  0  0  0  0  0  0
   45.6277   15.7659    4.8103 C   0  0  0  0  0  0  0  0  0  0  0  0
   46.5073   16.1346    5.5759 O   0  0  0  0  0  0  0  0  0  0  0  0
   44.3678   16.2173    4.9972 O   0  0  0  0  0  0  0  0  0  0  0  0
   43.6820   15.9447    4.4199 H   0  0  0  0  0  0  0  0  0  0  0  0
   43.9213   15.5767    2.2504 O   0  0  0  0  0  0  0  0  0  0  0  0
   44.2393   16.6549    1.3719 C   0  0  0  0  0  0  0  0  0  0  0  0
   43.7059   18.7621    2.5336 O   0  0  0  0  0  0  0  0  0  0  0  0
   44.5047   17.9173    2.1682 C   0  0  0  0  0  0  0  0  0  0  0  0
   45.8158   18.0588    2.4697 O   0  0  0  0  0  0  0  0  0  0  0  0
   46.4332   17.4116    2.1906 H   0  0  0  0  0  0  0  0  0  0  0  0
   48.0218    8.4221    2.4570 N   0  0  0  0  0  0  0  0  0  0  0  0
   47.2075    7.8841    2.3277 H   0  0  0  0  0  0  0  0  0  0  0  0
   49.0351    7.8651    3.3605 C   0  0  0  0  0  0  0  0  0  0  0  0
   48.4838    6.7542    4.2604 C   0  0  0  0  0  0  0  0  0  0  0  0
   49.4582    5.5894    4.3967 C   0  0  0  0  0  0  0  0  0  0  0  0
   50.8121    6.1098    4.6622 N   0  0  0  0  0  0  0  0  0  0  0  0
   51.3805    7.0246    3.6451 C   0  0  0  0  0  0  0  0  0  0  0  0
   50.3306    7.4931    2.6424 C   0  0  0  0  0  0  0  0  0  0  0  0
   51.9018    5.1239    5.5177 S   0  0  0  0  0  0  0  0  0  0  0  0
   51.4417    5.0776    6.8902 O   0  0  0  0  0  0  0  0  0  0  0  0
   53.2324    5.5857    5.1796 O   0  0  0  0  0  0  0  0  0  0  0  0
   51.6249    3.5134    4.7572 C   0  0  0  0  0  0  0  0  0  0  0  0
   52.5196    3.3710    3.5512 C   0  0  0  0  0  0  0  0  0  0  0  0
   53.6687    4.1675    3.4192 C   0  0  0  0  0  0  0  0  0  0  0  0
   54.4960    4.0343    2.3031 C   0  0  0  0  0  0  0  0  0  0  0  0
   54.1741    3.1106    1.3171 C   0  0  0  0  0  0  0  0  0  0  0  0
   54.9698    2.9820    0.2472 F   0  0  0  0  0  0  0  0  0  0  0  0
   53.0377    2.3193    1.4233 C   0  0  0  0  0  0  0  0  0  0  0  0
   52.2089    2.4487    2.5388 C   0  0  0  0  0  0  0  0  0  0  0  0
 19 20  2  0
 20 21  1  0
 20 18  1  0
 18 17  1  0
 17  7  1  0
  7  8  2  0
  8 13  1  0
 13 14  2  0
 13 15  1  0
  8  9  1  0
  9 10  1  0
 10  1  1  0
  1  2  2  0
  2  3  1  0
  3  4  2  0
  4  5  1  0
  5 23  1  0
 23 25  1  0
 25 26  1  0
 26 27  1  0
 27 28  1  0
 28 31  1  0
 31 32  2  0
 31 33  2  0
 31 34  1  0
 34 35  1  0
 35 36  2  0
 36 37  1  0
 37 38  2  0
 38 39  1  0
 38 40  1  0
 40 41  2  0
 28 29  1  0
 29 30  1  0
  5  6  2  0
 10 11  2  0
 11 12  1  0
 11  7  1  0
  6  1  1  0
 30 25  1  0
 41 35  1  0
 21 22  1  0
 15 16  1  0
 23 24  1  0
M  END
> <minimizedAffinity>
-8.55921

> <CNNscore>
0.6519781947

> <CNNaffinity>
6.6993861198

> <CNN_VS>
4.3678536415

> <CNNaffinity_variance>
0.0166784171

$$$$



 41 44  0  0  0  0  0  0  0  0999 V2000
   45.5938   12.1202    0.3429 C   0  0  0  0  0  0  0  0  0  0  0  0
   44.6560   11.0973    0.4920 C   0  0  0  0  0  0  0  0  0  0  0  0
   44.8269    9.8963   -0.1897 C   0  0  0  0  0  0  0  0  0  0  0  0
   45.9288    9.7153   -1.0328 C   0  0  0  0  0  0  0  0  0  0  0  0
   46.8686   10.7280   -1.2360 C   0  0  0  0  0  0  0  0  0  0  0  0
   46.6940   11.9174   -0.5070 C   0  0  0  0  0  0  0  0  0  0  0  0
   45.5466   15.0801    2.6758 C   0  0  0  0  0  0  0  0  0  0  0  0
   44.7425   15.6836    1.7250 C   0  0  0  0  0  0  0  0  0  0  0  0
   44.4533   14.6116    0.4097 S   0  0  0  0  0  0  0  0  0  0  0  0
   45.4382   13.3774    1.0764 C   0  0  0  0  0  0  0  0  0  0  0  0
   45.9684   13.7777    2.2831 C   0  0  0  0  0  0  0  0  0  0  0  0
   47.1675   12.7494    3.3345 Br  0  0  0  0  0  0  0  0  0  0  0  0
   44.1418   16.9963    1.6656 C   0  0  0  0  0  0  0  0  0  0  0  0
   44.5759   18.0500    2.1097 O   0  0  0  0  0  0  0  0  0  0  0  0
   42.9633   17.0025    1.0044 O   0  0  0  0  0  0  0  0  0  0  0  0
   42.6164   16.2041    0.6578 H   0  0  0  0  0  0  0  0  0  0  0  0
   45.9609   15.7163    3.7995 O   0  0  0  0  0  0  0  0  0  0  0  0
   47.2145   16.3677    3.6008 C   0  0  0  0  0  0  0  0  0  0  0  0
   48.3569   17.9257    5.1310 O   0  0  0  0  0  0  0  0  0  0  0  0
   47.3549   17.5348    4.5579 C   0  0  0  0  0  0  0  0  0  0  0  0
   46.1776   18.1709    4.7560 O   0  0  0  0  0  0  0  0  0  0  0  0
   45.4049   17.8736    4.3174 H   0  0  0  0  0  0  0  0  0  0  0  0
   48.0141   10.5986   -2.0103 N   0  0  0  0  0  0  0  0  0  0  0  0
   47.9496   10.0024   -2.7911 H   0  0  0  0  0  0  0  0  0  0  0  0
   49.3101   11.2521   -1.7939 C   0  0  0  0  0  0  0  0  0  0  0  0
   50.1764   10.5273   -0.7585 C   0  0  0  0  0  0  0  0  0  0  0  0
   51.6396   10.4582   -1.1819 C   0  0  0  0  0  0  0  0  0  0  0  0
   52.0736   11.7811   -1.6676 N   0  0  0  0  0  0  0  0  0  0  0  0
   51.3238   12.3435   -2.8147 C   0  0  0  0  0  0  0  0  0  0  0  0
   50.0399   11.5696   -3.0973 C   0  0  0  0  0  0  0  0  0  0  0  0
   53.7200   12.1868   -1.5401 S   0  0  0  0  0  0  0  0  0  0  0  0
   54.1241   12.7213   -2.8242 O   0  0  0  0  0  0  0  0  0  0  0  0
   54.3851   11.0421   -0.9526 O   0  0  0  0  0  0  0  0  0  0  0  0
   53.6822   13.5290   -0.3377 C   0  0  0  0  0  0  0  0  0  0  0  0
   55.0884   14.0137   -0.0872 C   0  0  0  0  0  0  0  0  0  0  0  0
   55.4327   15.3541   -0.3262 C   0  0  0  0  0  0  0  0  0  0  0  0
   56.7341   15.8015   -0.0934 C   0  0  0  0  0  0  0  0  0  0  0  0
   57.6924   14.9107    0.3727 C   0  0  0  0  0  0  0  0  0  0  0  0
   58.9406   15.3414    0.5978 F   0  0  0  0  0  0  0  0  0  0  0  0
   57.3757   13.5789    0.6071 C   0  0  0  0  0  0  0  0  0  0  0  0
   56.0749   13.1284    0.3768 C   0  0  0  0  0  0  0  0  0  0  0  0
 19 20  2  0
 20 21  1  0
 20 18  1  0
 18 17  1  0
 17  7  1  0
  7  8  2  0
  8 13  1  0
 13 14  2  0
 13 15  1  0
  8  9  1  0
  9 10  1  0
 10  1  1  0
  1  2  2  0
  2  3  1  0
  3  4  2  0
  4  5  1  0
  5 23  1  0
 23 25  1  0
 25 26  1  0
 26 27  1  0
 27 28  1  0
 28 31  1  0
 31 32  2  0
 31 33  2  0
 31 34  1  0
 34 35  1  0
 35 36  2  0
 36 37  1  0
 37 38  2  0
 38 39  1  0
 38 40  1  0
 40 41  2  0
 28 29  1  0
 29 30  1  0
  5  6  2  0
 10 11  2  0
 11 12  1  0
 11  7  1  0
  6  1  1  0
 30 25  1  0
 41 35  1  0
 21 22  1  0
 15 16  1  0
 23 24  1  0
M  END
> <minimizedAffinity>
-8.21112

> <CNNscore>
0.6359704733

> <CNNaffinity>
6.6740894318

> <CNN_VS>
4.2445240021

> <CNNaffinity_variance>
0.1880232096

$$$$



 41 44  0  0  0  0  0  0  0  0999 V2000
   45.9619   10.8449   -0.1962 C   0  0  0  0  0  0  0  0  0  0  0  0
   45.9486   10.3358   -1.4957 C   0  0  0  0  0  0  0  0  0  0  0  0
   46.2754    9.0020   -1.7204 C   0  0  0  0  0  0  0  0  0  0  0  0
   46.6287    8.1731   -0.6499 C   0  0  0  0  0  0  0  0  0  0  0  0
   46.6890    8.6550    0.6594 C   0  0  0  0  0  0  0  0  0  0  0  0
   46.3177    9.9954    0.8648 C   0  0  0  0  0  0  0  0  0  0  0  0
   45.2980   14.3542    1.0075 C   0  0  0  0  0  0  0  0  0  0  0  0
   44.6409   14.5309   -0.1974 C   0  0  0  0  0  0  0  0  0  0  0  0
   44.6658   13.0769   -1.1183 S   0  0  0  0  0  0  0  0  0  0  0  0
   45.5935   12.2392    0.0546 C   0  0  0  0  0  0  0  0  0  0  0  0
   45.8690   13.0553    1.1294 C   0  0  0  0  0  0  0  0  0  0  0  0
   46.9237   12.5569    2.6262 Br  0  0  0  0  0  0  0  0  0  0  0  0
   43.9753   15.6777   -0.7715 C   0  0  0  0  0  0  0  0  0  0  0  0
   43.1947   16.4501   -0.2328 O   0  0  0  0  0  0  0  0  0  0  0  0
   44.3143   15.8867   -2.0627 O   0  0  0  0  0  0  0  0  0  0  0  0
   44.9110   15.3046   -2.4906 H   0  0  0  0  0  0  0  0  0  0  0  0
   45.4592   15.3530    1.9105 O   0  0  0  0  0  0  0  0  0  0  0  0
   44.2050   15.8214    2.4032 C   0  0  0  0  0  0  0  0  0  0  0  0
   43.9403   18.2704    2.3204 O   0  0  0  0  0  0  0  0  0  0  0  0
   44.3310   17.2570    2.8735 C   0  0  0  0  0  0  0  0  0  0  0  0
   44.9736   17.3459    4.0605 O   0  0  0  0  0  0  0  0  0  0  0  0
   45.2756   16.5693    4.4890 H   0  0  0  0  0  0  0  0  0  0  0  0
   46.9743    7.8781    1.7746 N   0  0  0  0  0  0  0  0  0  0  0  0
   46.2610    7.2721    2.0799 H   0  0  0  0  0  0  0  0  0  0  0  0
   48.2211    7.8602    2.5483 C   0  0  0  0  0  0  0  0  0  0  0  0
   48.1129    7.0306    3.8320 C   0  0  0  0  0  0  0  0  0  0  0  0
   49.3597    6.1878    4.0774 C   0  0  0  0  0  0  0  0  0  0  0  0
   50.5617    7.0160    3.8682 N   0  0  0  0  0  0  0  0  0  0  0  0
   50.7179    7.6287    2.5286 C   0  0  0  0  0  0  0  0  0  0  0  0
   49.4436    7.5248    1.6966 C   0  0  0  0  0  0  0  0  0  0  0  0
   51.9828    6.6008    4.7046 S   0  0  0  0  0  0  0  0  0  0  0  0
   51.5906    5.7448    5.8050 O   0  0  0  0  0  0  0  0  0  0  0  0
   52.7094    7.8342    4.9256 O   0  0  0  0  0  0  0  0  0  0  0  0
   52.8604    5.6097    3.4814 C   0  0  0  0  0  0  0  0  0  0  0  0
   52.9830    4.1925    3.9830 C   0  0  0  0  0  0  0  0  0  0  0  0
   52.2281    3.7595    5.0853 C   0  0  0  0  0  0  0  0  0  0  0  0
   52.3420    2.4478    5.5481 C   0  0  0  0  0  0  0  0  0  0  0  0
   53.2124    1.5702    4.9145 C   0  0  0  0  0  0  0  0  0  0  0  0
   53.3196    0.3109    5.3581 F   0  0  0  0  0  0  0  0  0  0  0  0
   53.9750    1.9801    3.8285 C   0  0  0  0  0  0  0  0  0  0  0  0
   53.8625    3.2908    3.3621 C   0  0  0  0  0  0  0  0  0  0  0  0
 19 20  2  0
 20 21  1  0
 20 18  1  0
 18 17  1  0
 17  7  1  0
  7  8  2  0
  8 13  1  0
 13 14  2  0
 13 15  1  0
  8  9  1  0
  9 10  1  0
 10  1  1  0
  1  2  2  0
  2  3  1  0
  3  4  2  0
  4  5  1  0
  5 23  1  0
 23 25  1  0
 25 26  1  0
 26 27  1  0
 27 28  1  0
 28 31  1  0
 31 32  2  0
 31 33  2  0
 31 34  1  0
 34 35  1  0
 35 36  2  0
 36 37  1  0
 37 38  2  0
 38 39  1  0
 38 40  1  0
 40 41  2  0
 28 29  1  0
 29 30  1  0
  5  6  2  0
 10 11  2  0
 11 12  1  0
 11  7  1  0
  6  1  1  0
 30 25  1  0
 41 35  1  0
 21 22  1  0
 15 16  1  0
 23 24  1  0
M  END
> <minimizedAffinity>
-7.54900

> <CNNscore>
0.5236447453

> <CNNaffinity>
6.2850041389

> <CNN_VS>
3.2911093235

> <CNNaffinity_variance>
0.0417944975

$$$$



 41 44  0  0  0  0  0  0  0  0999 V2000
   45.6341   11.7397    0.6702 C   0  0  0  0  0  0  0  0  0  0  0  0
   44.6200   11.0041    0.0547 C   0  0  0  0  0  0  0  0  0  0  0  0
   44.8707    9.7049   -0.3763 C   0  0  0  0  0  0  0  0  0  0  0  0
   46.1386    9.1382   -0.2054 C   0  0  0  0  0  0  0  0  0  0  0  0
   47.1884    9.8550    0.3726 C   0  0  0  0  0  0  0  0  0  0  0  0
   46.8994   11.1513    0.8338 C   0  0  0  0  0  0  0  0  0  0  0  0
   45.2583   15.0479    2.4364 C   0  0  0  0  0  0  0  0  0  0  0  0
   44.5792   15.4571    1.3023 C   0  0  0  0  0  0  0  0  0  0  0  0
   44.4726   14.1702    0.1643 S   0  0  0  0  0  0  0  0  0  0  0  0
   45.3735   13.0972    1.1518 C   0  0  0  0  0  0  0  0  0  0  0  0
   45.7390   13.7116    2.3292 C   0  0  0  0  0  0  0  0  0  0  0  0
   46.8004   12.9129    3.6843 Br  0  0  0  0  0  0  0  0  0  0  0  0
   43.9797   16.7218    0.9435 C   0  0  0  0  0  0  0  0  0  0  0  0
   44.0628   17.7935    1.5271 O   0  0  0  0  0  0  0  0  0  0  0  0
   43.2674   16.6561   -0.2029 O   0  0  0  0  0  0  0  0  0  0  0  0
   43.1936   15.8430   -0.6627 H   0  0  0  0  0  0  0  0  0  0  0  0
   45.5176   15.8771    3.4777 O   0  0  0  0  0  0  0  0  0  0  0  0
   46.7543   16.5665    3.3031 C   0  0  0  0  0  0  0  0  0  0  0  0
   47.4475   18.5935    4.5216 O   0  0  0  0  0  0  0  0  0  0  0  0
   47.0369   17.4461    4.5049 C   0  0  0  0  0  0  0  0  0  0  0  0
   46.7833   16.8074    5.6700 O   0  0  0  0  0  0  0  0  0  0  0  0
   46.4675   15.9252    5.6616 H   0  0  0  0  0  0  0  0  0  0  0  0
   48.4523    9.3383    0.6259 N   0  0  0  0  0  0  0  0  0  0  0  0
   48.6400    9.0770    1.5563 H   0  0  0  0  0  0  0  0  0  0  0  0
   49.5393    9.1386   -0.3396 C   0  0  0  0  0  0  0  0  0  0  0  0
   50.1335   10.4565   -0.8477 C   0  0  0  0  0  0  0  0  0  0  0  0
   51.6539   10.4000   -0.9465 C   0  0  0  0  0  0  0  0  0  0  0  0
   52.0575    9.1419   -1.6012 N   0  0  0  0  0  0  0  0  0  0  0  0
   51.6259    7.8862   -0.9443 C   0  0  0  0  0  0  0  0  0  0  0  0
   50.5841    8.1344    0.1421 C   0  0  0  0  0  0  0  0  0  0  0  0
   53.5316    9.1101   -2.4482 S   0  0  0  0  0  0  0  0  0  0  0  0
   54.0446    7.7590   -2.3527 O   0  0  0  0  0  0  0  0  0  0  0  0
   54.3005   10.2471   -1.9856 O   0  0  0  0  0  0  0  0  0  0  0  0
   52.9956    9.4098   -4.1427 C   0  0  0  0  0  0  0  0  0  0  0  0
   52.7461    8.0894   -4.8277 C   0  0  0  0  0  0  0  0  0  0  0  0
   51.5217    7.4217   -4.6624 C   0  0  0  0  0  0  0  0  0  0  0  0
   51.2918    6.2002   -5.2973 C   0  0  0  0  0  0  0  0  0  0  0  0
   52.2850    5.6431   -6.0925 C   0  0  0  0  0  0  0  0  0  0  0  0
   52.0627    4.4718   -6.7031 F   0  0  0  0  0  0  0  0  0  0  0  0
   53.5064    6.2820   -6.2623 C   0  0  0  0  0  0  0  0  0  0  0  0
   53.7391    7.5044   -5.6301 C   0  0  0  0  0  0  0  0  0  0  0  0
 19 20  2  0
 20 21  1  0
 20 18  1  0
 18 17  1  0
 17  7  1  0
  7  8  2  0
  8 13  1  0
 13 14  2  0
 13 15  1  0
  8  9  1  0
  9 10  1  0
 10  1  1  0
  1  2  2  0
  2  3  1  0
  3  4  2  0
  4  5  1  0
  5 23  1  0
 23 25  1  0
 25 26  1  0
 26 27  1  0
 27 28  1  0
 28 31  1  0
 31 32  2  0
 31 33  2  0
 31 34  1  0
 34 35  1  0
 35 36  2  0
 36 37  1  0
 37 38  2  0
 38 39  1  0
 38 40  1  0
 40 41  2  0
 28 29  1  0
 29 30  1  0
  5  6  2  0
 10 11  2  0
 11 12  1  0
 11  7  1  0
  6  1  1  0
 30 25  1  0
 41 35  1  0
 21 22  1  0
 15 16  1  0
 23 24  1  0
M  END
> <minimizedAffinity>
-6.28335

> <CNNscore>
0.5140818357

> <CNNaffinity>
6.4971003532

> <CNN_VS>
3.3400411606

> <CNNaffinity_variance>
0.1252582371

$$$$
