


 40 47  0  0  0  0  0  0  0  0999 V2000
    3.2482    3.7939   14.6385 C   0  0  0  0  0  0  0  0  0  0  0  0
    2.4155    4.3678   15.7912 C   0  0  0  0  0  0  0  0  0  0  0  0
    3.2027    4.4372   17.1031 C   0  0  0  0  0  0  0  0  0  0  0  0
    4.4772    3.8022   17.0620 O   0  0  0  0  0  0  0  0  0  0  0  0
    5.3649    4.1354   15.9660 C   0  0  0  0  0  0  0  0  0  0  0  0
    6.0847    2.7768   15.7913 C   0  0  0  0  0  0  0  0  0  0  0  0
    4.6226    4.4984   14.6319 C   0  0  0  0  0  0  0  0  0  0  0  0
    6.2660    5.2110   16.4159 N   0  0  0  0  0  0  0  0  0  0  0  0
    7.5934    5.4489   16.0578 C   0  0  0  0  0  0  0  0  0  0  0  0
    8.4861    4.7809   15.1968 C   0  0  0  0  0  0  0  0  0  0  0  0
    9.7912    5.2644   15.0526 C   0  0  0  0  0  0  0  0  0  0  0  0
   10.2119    6.3965   15.7320 C   0  0  0  0  0  0  0  0  0  0  0  0
    9.3274    7.0808   16.5652 C   0  0  0  0  0  0  0  0  0  0  0  0
    8.0039    6.6159   16.7320 C   0  0  0  0  0  0  0  0  0  0  0  0
    6.8858    7.1219   17.4489 C   0  0  0  0  0  0  0  0  0  0  0  0
    6.6024    8.2363   18.2564 C   0  0  0  0  0  0  0  0  0  0  0  0
    5.2977    8.4650   18.7906 C   0  0  0  0  0  0  0  0  0  0  0  0
    4.1838    7.6368   18.5848 C   0  0  0  0  0  0  0  0  0  0  0  0
    2.7993    7.5806   18.9348 C   0  0  0  0  0  0  0  0  0  0  0  0
    1.9342    8.4142   19.6781 C   0  0  0  0  0  0  0  0  0  0  0  0
    0.5930    8.0568   19.8366 C   0  0  0  0  0  0  0  0  0  0  0  0
   -0.4574    9.0786   20.7430 Cl  0  0  0  0  0  0  0  0  0  0  0  0
    0.0911    6.8899   19.2747 C   0  0  0  0  0  0  0  0  0  0  0  0
    0.9204    6.0434   18.5357 C   0  0  0  0  0  0  0  0  0  0  0  0
    2.2697    6.4058   18.3735 C   0  0  0  0  0  0  0  0  0  0  0  0
    3.3039    5.7625   17.7079 N   0  0  0  0  0  0  0  0  0  0  0  0
    4.4336    6.5131   17.8152 C   0  0  0  0  0  0  0  0  0  0  0  0
    5.8483    6.2436   17.2185 C   0  0  0  0  0  0  0  0  0  0  0  0
    5.3724    9.7019   19.5803 C   0  0  0  0  0  0  0  0  0  0  0  0
    4.5017   10.2037   20.2615 O   0  0  0  0  0  0  0  0  0  0  0  0
    6.6443   10.2105   19.4360 N   0  0  0  0  0  0  0  0  0  0  0  0
    7.5101    9.3353   18.7242 C   0  0  0  0  0  0  0  0  0  0  0  0
    8.0385   10.0837   17.6642 O   0  0  0  0  0  0  0  0  0  0  0  0
    6.9242   11.0862   19.7880 H   0  0  0  0  0  0  0  0  0  0  0  0
    7.3135   10.4647   17.1445 H   0  0  0  0  0  0  0  0  0  0  0  0
    2.9777    3.2299   12.2705 C   0  0  0  0  0  0  0  0  0  0  0  0
    2.4636    3.9868   13.4016 N   0  0  0  0  0  0  0  0  0  0  0  0
    1.5030    3.6927   13.5784 H   0  0  0  0  0  0  0  0  0  0  0  0
    4.3415    5.9090   14.5008 O   0  0  0  0  0  0  0  0  0  0  0  0
    5.0963    6.5441   13.4769 C   0  0  0  0  0  0  0  0  0  0  0  0
 36 37  1  0
  1 37  1  0
  1  2  1  0
  3  2  1  0
  3  4  1  0
  4  5  1  0
  5  6  1  0
  5  7  1  0
  7 39  1  0
 39 40  1  0
  5  8  1  0
  8  9  1  0
  9 10  2  0
 10 11  1  0
 11 12  2  0
 12 13  1  0
 13 14  2  0
 14 15  1  0
 15 16  2  0
 16 17  1  0
 17 18  2  0
 18 19  1  0
 19 20  2  0
 20 21  1  0
 21 22  1  0
 21 23  2  0
 23 24  1  0
 24 25  2  0
 25 26  1  0
 26 27  1  0
 27 28  2  0
 17 29  1  0
 29 30  2  0
 29 31  1  0
 31 32  1  0
 32 33  1  0
  7  1  1  0
 28  8  1  0
 26  3  1  0
 14  9  1  0
 28 15  1  0
 32 16  1  0
 27 18  1  0
 25 19  1  0
 37 38  1  0
 31 34  1  0
 33 35  1  0
M  END
> <minimizedAffinity>
-13.79443

> <CNNscore>
0.9974259734

> <CNNaffinity>
8.4492864609

> <CNN_VS>
8.4275379181

> <CNNaffinity_variance>
0.0884968042

$$$$



 40 47  0  0  0  0  0  0  0  0999 V2000
    4.0903    3.7939   13.7341 C   0  0  0  0  0  0  0  0  0  0  0  0
    2.7786    3.7266   14.5258 C   0  0  0  0  0  0  0  0  0  0  0  0
    3.0096    3.7102   16.0397 C   0  0  0  0  0  0  0  0  0  0  0  0
    4.3739    3.5791   16.4280 O   0  0  0  0  0  0  0  0  0  0  0  0
    5.3406    4.4695   15.8173 C   0  0  0  0  0  0  0  0  0  0  0  0
    6.5711    3.5321   15.7800 C   0  0  0  0  0  0  0  0  0  0  0  0
    4.9766    4.8974   14.3521 C   0  0  0  0  0  0  0  0  0  0  0  0
    5.5255    5.6276   16.7093 N   0  0  0  0  0  0  0  0  0  0  0  0
    6.6749    6.3864   16.9330 C   0  0  0  0  0  0  0  0  0  0  0  0
    7.9847    6.3122   16.4198 C   0  0  0  0  0  0  0  0  0  0  0  0
    8.9464    7.2288   16.8588 C   0  0  0  0  0  0  0  0  0  0  0  0
    8.6251    8.2149   17.7779 C   0  0  0  0  0  0  0  0  0  0  0  0
    7.3243    8.3139   18.2709 C   0  0  0  0  0  0  0  0  0  0  0  0
    6.3321    7.4019   17.8475 C   0  0  0  0  0  0  0  0  0  0  0  0
    4.9419    7.2913   18.1214 C   0  0  0  0  0  0  0  0  0  0  0  0
    3.9857    7.9892   18.8784 C   0  0  0  0  0  0  0  0  0  0  0  0
    2.6078    7.6132   18.8795 C   0  0  0  0  0  0  0  0  0  0  0  0
    2.0620    6.5421   18.1557 C   0  0  0  0  0  0  0  0  0  0  0  0
    0.7915    5.9303   17.9237 C   0  0  0  0  0  0  0  0  0  0  0  0
   -0.5260    6.1945   18.3601 C   0  0  0  0  0  0  0  0  0  0  0  0
   -1.5749    5.3757   17.9349 C   0  0  0  0  0  0  0  0  0  0  0  0
   -3.1798    5.7040   18.4694 Cl  0  0  0  0  0  0  0  0  0  0  0  0
   -1.3458    4.2998   17.0869 C   0  0  0  0  0  0  0  0  0  0  0  0
   -0.0550    4.0106   16.6388 C   0  0  0  0  0  0  0  0  0  0  0  0
    1.0001    4.8377   17.0645 C   0  0  0  0  0  0  0  0  0  0  0  0
    2.3591    4.7822   16.7880 N   0  0  0  0  0  0  0  0  0  0  0  0
    2.9814    5.8145   17.4190 C   0  0  0  0  0  0  0  0  0  0  0  0
    4.4898    6.2074   17.3993 C   0  0  0  0  0  0  0  0  0  0  0  0
    1.9128    8.5477   19.7755 C   0  0  0  0  0  0  0  0  0  0  0  0
    0.7471    8.5267   20.1137 O   0  0  0  0  0  0  0  0  0  0  0  0
    2.8358    9.4759   20.2044 N   0  0  0  0  0  0  0  0  0  0  0  0
    4.1610    9.1661   19.7921 C   0  0  0  0  0  0  0  0  0  0  0  0
    4.6380   10.3003   19.1221 O   0  0  0  0  0  0  0  0  0  0  0  0
    2.6030   10.2689   20.7392 H   0  0  0  0  0  0  0  0  0  0  0  0
    4.0249   10.5359   18.4083 H   0  0  0  0  0  0  0  0  0  0  0  0
    2.7409    3.0879   11.8160 C   0  0  0  0  0  0  0  0  0  0  0  0
    3.7296    4.0283   12.3208 N   0  0  0  0  0  0  0  0  0  0  0  0
    3.3523    4.9720   12.2351 H   0  0  0  0  0  0  0  0  0  0  0  0
    4.1959    6.1109   14.2892 O   0  0  0  0  0  0  0  0  0  0  0  0
    4.8796    7.1927   13.6696 C   0  0  0  0  0  0  0  0  0  0  0  0
 36 37  1  0
  1 37  1  0
  1  2  1  0
  3  2  1  0
  3  4  1  0
  4  5  1  0
  5  6  1  0
  5  7  1  0
  7 39  1  0
 39 40  1  0
  5  8  1  0
  8  9  1  0
  9 10  2  0
 10 11  1  0
 11 12  2  0
 12 13  1  0
 13 14  2  0
 14 15  1  0
 15 16  2  0
 16 17  1  0
 17 18  2  0
 18 19  1  0
 19 20  2  0
 20 21  1  0
 21 22  1  0
 21 23  2  0
 23 24  1  0
 24 25  2  0
 25 26  1  0
 26 27  1  0
 27 28  2  0
 17 29  1  0
 29 30  2  0
 29 31  1  0
 31 32  1  0
 32 33  1  0
  7  1  1  0
 28  8  1  0
 26  3  1  0
 14  9  1  0
 28 15  1  0
 32 16  1  0
 27 18  1  0
 25 19  1  0
 37 38  1  0
 31 34  1  0
 33 35  1  0
M  END
> <minimizedAffinity>
-12.20596

> <CNNscore>
0.9234786034

> <CNNaffinity>
7.9605813026

> <CNN_VS>
7.3514266014

> <CNNaffinity_variance>
0.0457507856

$$$$



 40 47  0  0  0  0  0  0  0  0999 V2000
    4.0254    3.6907   13.3029 C   0  0  0  0  0  0  0  0  0  0  0  0
    2.8670    3.8768   14.2905 C   0  0  0  0  0  0  0  0  0  0  0  0
    3.3238    3.7929   15.7499 C   0  0  0  0  0  0  0  0  0  0  0  0
    4.6777    3.3853   15.9230 O   0  0  0  0  0  0  0  0  0  0  0  0
    5.6957    4.0722   15.1533 C   0  0  0  0  0  0  0  0  0  0  0  0
    6.6922    2.9076   14.9412 C   0  0  0  0  0  0  0  0  0  0  0  0
    5.2004    4.5851   13.7555 C   0  0  0  0  0  0  0  0  0  0  0  0
    6.2460    5.1569   15.9850 N   0  0  0  0  0  0  0  0  0  0  0  0
    7.5446    5.6664   16.0132 C   0  0  0  0  0  0  0  0  0  0  0  0
    8.7164    5.3382   15.3034 C   0  0  0  0  0  0  0  0  0  0  0  0
    9.8987    6.0369   15.5708 C   0  0  0  0  0  0  0  0  0  0  0  0
    9.9292    7.0543   16.5112 C   0  0  0  0  0  0  0  0  0  0  0  0
    8.7681    7.4053   17.1992 C   0  0  0  0  0  0  0  0  0  0  0  0
    7.5595    6.7170   16.9519 C   0  0  0  0  0  0  0  0  0  0  0  0
    6.2356    6.8838   17.4411 C   0  0  0  0  0  0  0  0  0  0  0  0
    5.5689    7.7486   18.3255 C   0  0  0  0  0  0  0  0  0  0  0  0
    4.1611    7.6567   18.5482 C   0  0  0  0  0  0  0  0  0  0  0  0
    3.3055    6.7272   17.9373 C   0  0  0  0  0  0  0  0  0  0  0  0
    1.9178    6.3861   17.9172 C   0  0  0  0  0  0  0  0  0  0  0  0
    0.7648    6.9031   18.5489 C   0  0  0  0  0  0  0  0  0  0  0  0
   -0.4803    6.3175   18.3070 C   0  0  0  0  0  0  0  0  0  0  0  0
   -1.8832    6.9536   19.0794 Cl  0  0  0  0  0  0  0  0  0  0  0  0
   -0.6068    5.2296   17.4529 C   0  0  0  0  0  0  0  0  0  0  0  0
    0.5137    4.6937   16.8142 C   0  0  0  0  0  0  0  0  0  0  0  0
    1.7663    5.2862   17.0554 C   0  0  0  0  0  0  0  0  0  0  0  0
    3.0264    4.9630   16.5714 N   0  0  0  0  0  0  0  0  0  0  0  0
    3.9337    5.8404   17.0793 C   0  0  0  0  0  0  0  0  0  0  0  0
    5.4683    5.9229   16.8177 C   0  0  0  0  0  0  0  0  0  0  0  0
    3.8162    8.6989   19.5249 C   0  0  0  0  0  0  0  0  0  0  0  0
    2.7374    8.9074   20.0411 O   0  0  0  0  0  0  0  0  0  0  0  0
    4.9619    9.4168   19.7881 N   0  0  0  0  0  0  0  0  0  0  0  0
    6.1171    8.8532   19.1797 C   0  0  0  0  0  0  0  0  0  0  0  0
    6.7010    9.8780   18.4236 O   0  0  0  0  0  0  0  0  0  0  0  0
    4.9792   10.2328   20.3386 H   0  0  0  0  0  0  0  0  0  0  0  0
    6.0436   10.2420   17.8101 H   0  0  0  0  0  0  0  0  0  0  0  0
    3.5908    2.8999   11.0260 C   0  0  0  0  0  0  0  0  0  0  0  0
    3.5026    4.0127   11.9591 N   0  0  0  0  0  0  0  0  0  0  0  0
    2.5233    4.2832   12.0489 H   0  0  0  0  0  0  0  0  0  0  0  0
    4.6786    5.9314   13.7937 O   0  0  0  0  0  0  0  0  0  0  0  0
    4.2623    6.3408   15.0901 C   0  0  0  0  0  0  0  0  0  0  0  0
 36 37  1  0
  1 37  1  0
  1  2  1  0
  3  2  1  0
  3  4  1  0
  4  5  1  0
  5  6  1  0
  5  7  1  0
  7 39  1  0
 39 40  1  0
  5  8  1  0
  8  9  1  0
  9 10  2  0
 10 11  1  0
 11 12  2  0
 12 13  1  0
 13 14  2  0
 14 15  1  0
 15 16  2  0
 16 17  1  0
 17 18  2  0
 18 19  1  0
 19 20  2  0
 20 21  1  0
 21 22  1  0
 21 23  2  0
 23 24  1  0
 24 25  2  0
 25 26  1  0
 26 27  1  0
 27 28  2  0
 17 29  1  0
 29 30  2  0
 29 31  1  0
 31 32  1  0
 32 33  1  0
  7  1  1  0
 28  8  1  0
 26  3  1  0
 14  9  1  0
 28 15  1  0
 32 16  1  0
 27 18  1  0
 25 19  1  0
 37 38  1  0
 31 34  1  0
 33 35  1  0
M  END
> <minimizedAffinity>
-12.44398

> <CNNscore>
0.8141123056

> <CNNaffinity>
7.5811381340

> <CNN_VS>
6.1718978882

> <CNNaffinity_variance>
0.0514903627

$$$$



 40 47  0  0  0  0  0  0  0  0999 V2000
    3.8929    3.2043   11.2310 C   0  0  0  0  0  0  0  0  0  0  0  0
    2.7357    2.3232   10.7450 C   0  0  0  0  0  0  0  0  0  0  0  0
    3.1590    1.3670    9.6260 C   0  0  0  0  0  0  0  0  0  0  0  0
    4.4735    1.5894    9.1242 O   0  0  0  0  0  0  0  0  0  0  0  0
    5.5554    1.6956   10.0825 C   0  0  0  0  0  0  0  0  0  0  0  0
    6.4610    2.7085    9.3420 C   0  0  0  0  0  0  0  0  0  0  0  0
    5.1264    2.3045   11.4636 C   0  0  0  0  0  0  0  0  0  0  0  0
    6.1747    0.3661   10.2248 N   0  0  0  0  0  0  0  0  0  0  0  0
    7.5086    0.0434   10.4764 C   0  0  0  0  0  0  0  0  0  0  0  0
    8.6632    0.8281   10.6653 C   0  0  0  0  0  0  0  0  0  0  0  0
    9.8919    0.1976   10.8898 C   0  0  0  0  0  0  0  0  0  0  0  0
    9.9858   -1.1839   10.9432 C   0  0  0  0  0  0  0  0  0  0  0  0
    8.8440   -1.9688   10.7850 C   0  0  0  0  0  0  0  0  0  0  0  0
    7.5896   -1.3610   10.5555 C   0  0  0  0  0  0  0  0  0  0  0  0
    6.2745   -1.8823   10.4184 C   0  0  0  0  0  0  0  0  0  0  0  0
    5.6625   -3.1467   10.4509 C   0  0  0  0  0  0  0  0  0  0  0  0
    4.2481   -3.3005   10.3248 C   0  0  0  0  0  0  0  0  0  0  0  0
    3.3329   -2.2501   10.1573 C   0  0  0  0  0  0  0  0  0  0  0  0
    1.9233   -2.0554   10.0249 C   0  0  0  0  0  0  0  0  0  0  0  0
    0.8036   -2.9169   10.0230 C   0  0  0  0  0  0  0  0  0  0  0  0
   -0.4792   -2.3868    9.8646 C   0  0  0  0  0  0  0  0  0  0  0  0
   -1.8410   -3.4426    9.8647 Cl  0  0  0  0  0  0  0  0  0  0  0  0
   -0.6758   -1.0209    9.7071 C   0  0  0  0  0  0  0  0  0  0  0  0
    0.4101   -0.1426    9.7028 C   0  0  0  0  0  0  0  0  0  0  0  0
    1.7010   -0.6768    9.8660 C   0  0  0  0  0  0  0  0  0  0  0  0
    2.9401   -0.0519    9.8933 N   0  0  0  0  0  0  0  0  0  0  0  0
    3.9045   -0.9904   10.0932 C   0  0  0  0  0  0  0  0  0  0  0  0
    5.4451   -0.7970   10.2316 C   0  0  0  0  0  0  0  0  0  0  0  0
    3.9691   -4.7414   10.3956 C   0  0  0  0  0  0  0  0  0  0  0  0
    2.9012   -5.3006   10.2523 O   0  0  0  0  0  0  0  0  0  0  0  0
    5.1629   -5.3840   10.6391 N   0  0  0  0  0  0  0  0  0  0  0  0
    6.2808   -4.5063   10.5915 C   0  0  0  0  0  0  0  0  0  0  0  0
    6.9564   -4.6662   11.8084 O   0  0  0  0  0  0  0  0  0  0  0  0
    5.2346   -6.3479   10.8261 H   0  0  0  0  0  0  0  0  0  0  0  0
    6.3404   -4.5156   12.5424 H   0  0  0  0  0  0  0  0  0  0  0  0
    4.4669    4.6648   13.1115 C   0  0  0  0  0  0  0  0  0  0  0  0
    3.4206    3.9081   12.4411 N   0  0  0  0  0  0  0  0  0  0  0  0
    2.6771    4.5523   12.1715 H   0  0  0  0  0  0  0  0  0  0  0  0
    4.7114    1.3075   12.4227 O   0  0  0  0  0  0  0  0  0  0  0  0
    5.5976    1.1808   13.5273 C   0  0  0  0  0  0  0  0  0  0  0  0
 36 37  1  0
  1 37  1  0
  1  2  1  0
  3  2  1  0
  3  4  1  0
  4  5  1  0
  5  6  1  0
  5  7  1  0
  7 39  1  0
 39 40  1  0
  5  8  1  0
  8  9  1  0
  9 10  2  0
 10 11  1  0
 11 12  2  0
 12 13  1  0
 13 14  2  0
 14 15  1  0
 15 16  2  0
 16 17  1  0
 17 18  2  0
 18 19  1  0
 19 20  2  0
 20 21  1  0
 21 22  1  0
 21 23  2  0
 23 24  1  0
 24 25  2  0
 25 26  1  0
 26 27  1  0
 27 28  2  0
 17 29  1  0
 29 30  2  0
 29 31  1  0
 31 32  1  0
 32 33  1  0
  7  1  1  0
 28  8  1  0
 26  3  1  0
 14  9  1  0
 28 15  1  0
 32 16  1  0
 27 18  1  0
 25 19  1  0
 37 38  1  0
 31 34  1  0
 33 35  1  0
M  END
> <minimizedAffinity>
-6.12999

> <CNNscore>
0.3463875353

> <CNNaffinity>
5.6255455017

> <CNN_VS>
1.9486188889

> <CNNaffinity_variance>
0.4123891294

$$$$



 40 47  0  0  0  0  0  0  0  0999 V2000
    7.7686    0.4807   10.7852 C   0  0  0  0  0  0  0  0  0  0  0  0
    9.2436    0.6774   11.1554 C   0  0  0  0  0  0  0  0  0  0  0  0
   10.0203   -0.6423   11.1840 C   0  0  0  0  0  0  0  0  0  0  0  0
    9.2120   -1.8069   11.0440 O   0  0  0  0  0  0  0  0  0  0  0  0
    8.2642   -1.8459    9.9483 C   0  0  0  0  0  0  0  0  0  0  0  0
    7.1384   -2.6784   10.6071 C   0  0  0  0  0  0  0  0  0  0  0  0
    7.6951   -0.4396    9.5471 C   0  0  0  0  0  0  0  0  0  0  0  0
    8.9024   -2.5362    8.8137 N   0  0  0  0  0  0  0  0  0  0  0  0
    8.3181   -3.3494    7.8421 C   0  0  0  0  0  0  0  0  0  0  0  0
    6.9935   -3.7752    7.6217 C   0  0  0  0  0  0  0  0  0  0  0  0
    6.7158   -4.6225    6.5434 C   0  0  0  0  0  0  0  0  0  0  0  0
    7.7207   -5.0357    5.6833 C   0  0  0  0  0  0  0  0  0  0  0  0
    9.0304   -4.5974    5.8768 C   0  0  0  0  0  0  0  0  0  0  0  0
    9.3418   -3.7427    6.9575 C   0  0  0  0  0  0  0  0  0  0  0  0
   10.5419   -3.0999    7.3656 C   0  0  0  0  0  0  0  0  0  0  0  0
   11.8696   -3.0206    6.9127 C   0  0  0  0  0  0  0  0  0  0  0  0
   12.8392   -2.2007    7.5667 C   0  0  0  0  0  0  0  0  0  0  0  0
   12.5952   -1.4072    8.6980 C   0  0  0  0  0  0  0  0  0  0  0  0
   13.2930   -0.4972    9.5509 C   0  0  0  0  0  0  0  0  0  0  0  0
   14.6103    0.0120    9.5841 C   0  0  0  0  0  0  0  0  0  0  0  0
   14.9808    0.9130   10.5855 C   0  0  0  0  0  0  0  0  0  0  0  0
   16.5887    1.5317   10.6197 Cl  0  0  0  0  0  0  0  0  0  0  0  0
   14.0734    1.3193   11.5554 C   0  0  0  0  0  0  0  0  0  0  0  0
   12.7641    0.8332   11.5516 C   0  0  0  0  0  0  0  0  0  0  0  0
   12.3909   -0.0710   10.5409 C   0  0  0  0  0  0  0  0  0  0  0  0
   11.1818   -0.7092   10.3015 N   0  0  0  0  0  0  0  0  0  0  0  0
   11.3024   -1.4822    9.1885 C   0  0  0  0  0  0  0  0  0  0  0  0
   10.2260   -2.3674    8.4900 C   0  0  0  0  0  0  0  0  0  0  0  0
   14.1016   -2.3682    6.8338 C   0  0  0  0  0  0  0  0  0  0  0  0
   15.1897   -1.9062    7.1103 O   0  0  0  0  0  0  0  0  0  0  0  0
   13.8488   -3.1825    5.7519 N   0  0  0  0  0  0  0  0  0  0  0  0
   12.5323   -3.7199    5.7626 C   0  0  0  0  0  0  0  0  0  0  0  0
   11.9617   -3.3831    4.5281 O   0  0  0  0  0  0  0  0  0  0  0  0
   14.5090   -3.3722    5.0467 H   0  0  0  0  0  0  0  0  0  0  0  0
   12.0182   -2.4237    4.3968 H   0  0  0  0  0  0  0  0  0  0  0  0
    6.0705    1.8320    9.6497 C   0  0  0  0  0  0  0  0  0  0  0  0
    7.1936    1.8253   10.5745 N   0  0  0  0  0  0  0  0  0  0  0  0
    6.8747    2.1856   11.4739 H   0  0  0  0  0  0  0  0  0  0  0  0
    8.4701    0.2180    8.5210 O   0  0  0  0  0  0  0  0  0  0  0  0
    8.7829    1.5708    8.8272 C   0  0  0  0  0  0  0  0  0  0  0  0
 36 37  1  0
  1 37  1  0
  1  2  1  0
  3  2  1  0
  3  4  1  0
  4  5  1  0
  5  6  1  0
  5  7  1  0
  7 39  1  0
 39 40  1  0
  5  8  1  0
  8  9  1  0
  9 10  2  0
 10 11  1  0
 11 12  2  0
 12 13  1  0
 13 14  2  0
 14 15  1  0
 15 16  2  0
 16 17  1  0
 17 18  2  0
 18 19  1  0
 19 20  2  0
 20 21  1  0
 21 22  1  0
 21 23  2  0
 23 24  1  0
 24 25  2  0
 25 26  1  0
 26 27  1  0
 27 28  2  0
 17 29  1  0
 29 30  2  0
 29 31  1  0
 31 32  1  0
 32 33  1  0
  7  1  1  0
 28  8  1  0
 26  3  1  0
 14  9  1  0
 28 15  1  0
 32 16  1  0
 27 18  1  0
 25 19  1  0
 37 38  1  0
 31 34  1  0
 33 35  1  0
M  END
> <minimizedAffinity>
-5.69354

> <CNNscore>
0.3403293490

> <CNNaffinity>
5.9557666779

> <CNN_VS>
2.0269222260

> <CNNaffinity_variance>
0.0057819951

$$$$



 40 47  0  0  0  0  0  0  0  0999 V2000
    2.9929    3.0516   13.3545 C   0  0  0  0  0  0  0  0  0  0  0  0
    2.8888    3.9134   14.6186 C   0  0  0  0  0  0  0  0  0  0  0  0
    3.8633    3.4667   15.7126 C   0  0  0  0  0  0  0  0  0  0  0  0
    4.5457    2.2476   15.4344 O   0  0  0  0  0  0  0  0  0  0  0  0
    5.1960    2.1140   14.1462 C   0  0  0  0  0  0  0  0  0  0  0  0
    5.0082    0.5955   13.9157 C   0  0  0  0  0  0  0  0  0  0  0  0
    4.4859    2.9006   12.9889 C   0  0  0  0  0  0  0  0  0  0  0  0
    6.6087    2.5025   14.3027 N   0  0  0  0  0  0  0  0  0  0  0  0
    7.7322    2.0066   13.6403 C   0  0  0  0  0  0  0  0  0  0  0  0
    7.9006    1.0158   12.6532 C   0  0  0  0  0  0  0  0  0  0  0  0
    9.1869    0.7251   12.1857 C   0  0  0  0  0  0  0  0  0  0  0  0
   10.2927    1.4067   12.6685 C   0  0  0  0  0  0  0  0  0  0  0  0
   10.1333    2.4084   13.6255 C   0  0  0  0  0  0  0  0  0  0  0  0
    8.8473    2.7234   14.1178 C   0  0  0  0  0  0  0  0  0  0  0  0
    8.3759    3.7087   15.0272 C   0  0  0  0  0  0  0  0  0  0  0  0
    8.9300    4.7482   15.7932 C   0  0  0  0  0  0  0  0  0  0  0  0
    8.1164    5.6128   16.5872 C   0  0  0  0  0  0  0  0  0  0  0  0
    6.7198    5.5321   16.6972 C   0  0  0  0  0  0  0  0  0  0  0  0
    5.6461    6.2118   17.3511 C   0  0  0  0  0  0  0  0  0  0  0  0
    5.5625    7.3339   18.2054 C   0  0  0  0  0  0  0  0  0  0  0  0
    4.3181    7.7490   18.6856 C   0  0  0  0  0  0  0  0  0  0  0  0
    4.2226    9.1192   19.7261 Cl  0  0  0  0  0  0  0  0  0  0  0  0
    3.1545    7.0749   18.3379 C   0  0  0  0  0  0  0  0  0  0  0  0
    3.2030    5.9611   17.4966 C   0  0  0  0  0  0  0  0  0  0  0  0
    4.4560    5.5461   17.0106 C   0  0  0  0  0  0  0  0  0  0  0  0
    4.7969    4.4876   16.1800 N   0  0  0  0  0  0  0  0  0  0  0  0
    6.1420    4.5006   15.9763 C   0  0  0  0  0  0  0  0  0  0  0  0
    7.0088    3.5462   15.1000 C   0  0  0  0  0  0  0  0  0  0  0  0
    9.0230    6.5626   17.2467 C   0  0  0  0  0  0  0  0  0  0  0  0
    8.7420    7.4129   18.0664 O   0  0  0  0  0  0  0  0  0  0  0  0
   10.2959    6.3108   16.7846 N   0  0  0  0  0  0  0  0  0  0  0  0
   10.3649    5.1516   15.9638 C   0  0  0  0  0  0  0  0  0  0  0  0
   10.9555    5.5585   14.7603 O   0  0  0  0  0  0  0  0  0  0  0  0
   11.0748    6.8733   16.9996 H   0  0  0  0  0  0  0  0  0  0  0  0
   10.4545    6.3015   14.3892 H   0  0  0  0  0  0  0  0  0  0  0  0
    2.1462    2.9792   11.0574 C   0  0  0  0  0  0  0  0  0  0  0  0
    2.1790    3.7125   12.3136 N   0  0  0  0  0  0  0  0  0  0  0  0
    1.2239    3.8050   12.6595 H   0  0  0  0  0  0  0  0  0  0  0  0
    4.9879    4.2443   12.8203 O   0  0  0  0  0  0  0  0  0  0  0  0
    4.0174    5.2489   13.0858 C   0  0  0  0  0  0  0  0  0  0  0  0
 36 37  1  0
  1 37  1  0
  1  2  1  0
  3  2  1  0
  3  4  1  0
  4  5  1  0
  5  6  1  0
  5  7  1  0
  7 39  1  0
 39 40  1  0
  5  8  1  0
  8  9  1  0
  9 10  2  0
 10 11  1  0
 11 12  2  0
 12 13  1  0
 13 14  2  0
 14 15  1  0
 15 16  2  0
 16 17  1  0
 17 18  2  0
 18 19  1  0
 19 20  2  0
 20 21  1  0
 21 22  1  0
 21 23  2  0
 23 24  1  0
 24 25  2  0
 25 26  1  0
 26 27  1  0
 27 28  2  0
 17 29  1  0
 29 30  2  0
 29 31  1  0
 31 32  1  0
 32 33  1  0
  7  1  1  0
 28  8  1  0
 26  3  1  0
 14  9  1  0
 28 15  1  0
 32 16  1  0
 27 18  1  0
 25 19  1  0
 37 38  1  0
 31 34  1  0
 33 35  1  0
M  END
> <minimizedAffinity>
-11.02184

> <CNNscore>
0.3279493451

> <CNNaffinity>
6.8862719536

> <CNN_VS>
2.2583484650

> <CNNaffinity_variance>
0.1557460427

$$$$



 40 47  0  0  0  0  0  0  0  0999 V2000
    3.3206    1.5546   14.0719 C   0  0  0  0  0  0  0  0  0  0  0  0
    4.0992    0.3041   13.6455 C   0  0  0  0  0  0  0  0  0  0  0  0
    3.1768   -0.8628   13.2806 C   0  0  0  0  0  0  0  0  0  0  0  0
    1.7999   -0.6409   13.5708 O   0  0  0  0  0  0  0  0  0  0  0  0
    1.1996    0.5930   13.1044 C   0  0  0  0  0  0  0  0  0  0  0  0
    0.1805    0.8340   14.2435 C   0  0  0  0  0  0  0  0  0  0  0  0
    2.1963    1.8035   13.0427 C   0  0  0  0  0  0  0  0  0  0  0  0
    0.5585    0.3287   11.8043 N   0  0  0  0  0  0  0  0  0  0  0  0
   -0.5931    0.9013   11.2629 C   0  0  0  0  0  0  0  0  0  0  0  0
   -1.4959    1.8702   11.7430 C   0  0  0  0  0  0  0  0  0  0  0  0
   -2.5924    2.2364   10.9548 C   0  0  0  0  0  0  0  0  0  0  0  0
   -2.7937    1.6711    9.7057 C   0  0  0  0  0  0  0  0  0  0  0  0
   -1.8905    0.7315    9.2098 C   0  0  0  0  0  0  0  0  0  0  0  0
   -0.7748    0.3407    9.9831 C   0  0  0  0  0  0  0  0  0  0  0  0
    0.3212   -0.5274    9.7274 C   0  0  0  0  0  0  0  0  0  0  0  0
    0.7682   -1.3316    8.6654 C   0  0  0  0  0  0  0  0  0  0  0  0
    1.9955   -2.0585    8.7381 C   0  0  0  0  0  0  0  0  0  0  0  0
    2.8695   -2.0605    9.8359 C   0  0  0  0  0  0  0  0  0  0  0  0
    4.1245   -2.6280   10.2173 C   0  0  0  0  0  0  0  0  0  0  0  0
    5.0616   -3.4708    9.5791 C   0  0  0  0  0  0  0  0  0  0  0  0
    6.2237   -3.8526   10.2540 C   0  0  0  0  0  0  0  0  0  0  0  0
    7.3636   -4.8796    9.4696 Cl  0  0  0  0  0  0  0  0  0  0  0  0
    6.4763   -3.4175   11.5486 C   0  0  0  0  0  0  0  0  0  0  0  0
    5.5693   -2.5850   12.2080 C   0  0  0  0  0  0  0  0  0  0  0  0
    4.4013   -2.1981   11.5265 C   0  0  0  0  0  0  0  0  0  0  0  0
    3.3418   -1.3986   11.9323 N   0  0  0  0  0  0  0  0  0  0  0  0
    2.4466   -1.2994   10.9126 C   0  0  0  0  0  0  0  0  0  0  0  0
    1.1127   -0.4948   10.8558 C   0  0  0  0  0  0  0  0  0  0  0  0
    2.1358   -2.7840    7.4680 C   0  0  0  0  0  0  0  0  0  0  0  0
    2.9998   -3.5776    7.1558 O   0  0  0  0  0  0  0  0  0  0  0  0
    1.0775   -2.4221    6.6640 N   0  0  0  0  0  0  0  0  0  0  0  0
    0.1242   -1.6117    7.3397 C   0  0  0  0  0  0  0  0  0  0  0  0
   -0.0292   -0.4564    6.5620 O   0  0  0  0  0  0  0  0  0  0  0  0
    0.9904   -2.6954    5.7222 H   0  0  0  0  0  0  0  0  0  0  0  0
    0.8379   -0.0461    6.4181 H   0  0  0  0  0  0  0  0  0  0  0  0
    4.1077    3.4838   15.3593 C   0  0  0  0  0  0  0  0  0  0  0  0
    4.2988    2.6567   14.1777 N   0  0  0  0  0  0  0  0  0  0  0  0
    5.2360    2.2557   14.2113 H   0  0  0  0  0  0  0  0  0  0  0  0
    2.8550    1.9358   11.7641 O   0  0  0  0  0  0  0  0  0  0  0  0
    2.8324    3.2611   11.2499 C   0  0  0  0  0  0  0  0  0  0  0  0
 36 37  1  0
  1 37  1  0
  1  2  1  0
  3  2  1  0
  3  4  1  0
  4  5  1  0
  5  6  1  0
  5  7  1  0
  7 39  1  0
 39 40  1  0
  5  8  1  0
  8  9  1  0
  9 10  2  0
 10 11  1  0
 11 12  2  0
 12 13  1  0
 13 14  2  0
 14 15  1  0
 15 16  2  0
 16 17  1  0
 17 18  2  0
 18 19  1  0
 19 20  2  0
 20 21  1  0
 21 22  1  0
 21 23  2  0
 23 24  1  0
 24 25  2  0
 25 26  1  0
 26 27  1  0
 27 28  2  0
 17 29  1  0
 29 30  2  0
 29 31  1  0
 31 32  1  0
 32 33  1  0
  7  1  1  0
 28  8  1  0
 26  3  1  0
 14  9  1  0
 28 15  1  0
 32 16  1  0
 27 18  1  0
 25 19  1  0
 37 38  1  0
 31 34  1  0
 33 35  1  0
M  END
> <minimizedAffinity>
-5.29417

> <CNNscore>
0.2639020085

> <CNNaffinity>
5.7005753517

> <CNN_VS>
1.5043933392

> <CNNaffinity_variance>
0.0387207679

$$$$



 40 47  0  0  0  0  0  0  0  0999 V2000
    4.0820    3.8638   13.2920 C   0  0  0  0  0  0  0  0  0  0  0  0
    3.0840    3.1155   14.1841 C   0  0  0  0  0  0  0  0  0  0  0  0
    2.2515    2.0953   13.4021 C   0  0  0  0  0  0  0  0  0  0  0  0
    2.4215    2.1525   11.9889 O   0  0  0  0  0  0  0  0  0  0  0  0
    3.7742    2.1490   11.4687 C   0  0  0  0  0  0  0  0  0  0  0  0
    3.5738    3.0346   10.2158 C   0  0  0  0  0  0  0  0  0  0  0  0
    4.8234    2.8301   12.4162 C   0  0  0  0  0  0  0  0  0  0  0  0
    4.1359    0.7591   11.1398 N   0  0  0  0  0  0  0  0  0  0  0  0
    4.9622    0.2869   10.1194 C   0  0  0  0  0  0  0  0  0  0  0  0
    5.6920    0.9342    9.1031 C   0  0  0  0  0  0  0  0  0  0  0  0
    6.4341    0.1683    8.1974 C   0  0  0  0  0  0  0  0  0  0  0  0
    6.4727   -1.2135    8.2952 C   0  0  0  0  0  0  0  0  0  0  0  0
    5.7761   -1.8618    9.3146 C   0  0  0  0  0  0  0  0  0  0  0  0
    5.0168   -1.1155   10.2430 C   0  0  0  0  0  0  0  0  0  0  0  0
    4.2689   -1.4815   11.3949 C   0  0  0  0  0  0  0  0  0  0  0  0
    3.9677   -2.6645   12.0906 C   0  0  0  0  0  0  0  0  0  0  0  0
    3.1975   -2.6537   13.2934 C   0  0  0  0  0  0  0  0  0  0  0  0
    2.6663   -1.5065   13.9024 C   0  0  0  0  0  0  0  0  0  0  0  0
    1.9059   -1.1504   15.0588 C   0  0  0  0  0  0  0  0  0  0  0  0
    1.3552   -1.8744   16.1397 C   0  0  0  0  0  0  0  0  0  0  0  0
    0.6429   -1.2006   17.1348 C   0  0  0  0  0  0  0  0  0  0  0  0
   -0.0252   -2.0891   18.4514 Cl  0  0  0  0  0  0  0  0  0  0  0  0
    0.4640    0.1757   17.0810 C   0  0  0  0  0  0  0  0  0  0  0  0
    0.9944    0.9203   16.0251 C   0  0  0  0  0  0  0  0  0  0  0  0
    1.7144    0.2416   15.0255 C   0  0  0  0  0  0  0  0  0  0  0  0
    2.3339    0.7172   13.8781 N   0  0  0  0  0  0  0  0  0  0  0  0
    2.9207   -0.3240   13.2282 C   0  0  0  0  0  0  0  0  0  0  0  0
    3.7615   -0.3101   11.9155 C   0  0  0  0  0  0  0  0  0  0  0  0
    3.0773   -4.0503   13.7339 C   0  0  0  0  0  0  0  0  0  0  0  0
    2.4364   -4.4830   14.6697 O   0  0  0  0  0  0  0  0  0  0  0  0
    3.8197   -4.8238   12.8690 N   0  0  0  0  0  0  0  0  0  0  0  0
    4.3264   -4.0844   11.7651 C   0  0  0  0  0  0  0  0  0  0  0  0
    5.7107   -4.2994   11.7518 O   0  0  0  0  0  0  0  0  0  0  0  0
    3.9822   -5.7858   13.0011 H   0  0  0  0  0  0  0  0  0  0  0  0
    6.0828   -4.0638   12.6161 H   0  0  0  0  0  0  0  0  0  0  0  0
    4.8568    6.0788   13.9934 C   0  0  0  0  0  0  0  0  0  0  0  0
    4.9631    4.6408   14.1878 N   0  0  0  0  0  0  0  0  0  0  0  0
    4.7146    4.4253   15.1533 H   0  0  0  0  0  0  0  0  0  0  0  0
    5.4445    1.9069   13.3372 O   0  0  0  0  0  0  0  0  0  0  0  0
    6.8470    1.7733   13.1456 C   0  0  0  0  0  0  0  0  0  0  0  0
 36 37  1  0
  1 37  1  0
  1  2  1  0
  3  2  1  0
  3  4  1  0
  4  5  1  0
  5  6  1  0
  5  7  1  0
  7 39  1  0
 39 40  1  0
  5  8  1  0
  8  9  1  0
  9 10  2  0
 10 11  1  0
 11 12  2  0
 12 13  1  0
 13 14  2  0
 14 15  1  0
 15 16  2  0
 16 17  1  0
 17 18  2  0
 18 19  1  0
 19 20  2  0
 20 21  1  0
 21 22  1  0
 21 23  2  0
 23 24  1  0
 24 25  2  0
 25 26  1  0
 26 27  1  0
 27 28  2  0
 17 29  1  0
 29 30  2  0
 29 31  1  0
 31 32  1  0
 32 33  1  0
  7  1  1  0
 28  8  1  0
 26  3  1  0
 14  9  1  0
 28 15  1  0
 32 16  1  0
 27 18  1  0
 25 19  1  0
 37 38  1  0
 31 34  1  0
 33 35  1  0
M  END
> <minimizedAffinity>
-6.31944

> <CNNscore>
0.1436946839

> <CNNaffinity>
4.7948098183

> <CNN_VS>
0.6889886856

> <CNNaffinity_variance>
0.7398278713

$$$$



 40 47  0  0  0  0  0  0  0  0999 V2000
    5.9937    3.3315   13.2247 C   0  0  0  0  0  0  0  0  0  0  0  0
    4.6763    2.7010   13.6923 C   0  0  0  0  0  0  0  0  0  0  0  0
    4.5855    2.6001   15.2179 C   0  0  0  0  0  0  0  0  0  0  0  0
    5.7880    2.9337   15.9049 O   0  0  0  0  0  0  0  0  0  0  0  0
    6.4439    4.1783   15.5570 C   0  0  0  0  0  0  0  0  0  0  0  0
    7.9190    3.7659   15.7769 C   0  0  0  0  0  0  0  0  0  0  0  0
    6.2480    4.6055   14.0598 C   0  0  0  0  0  0  0  0  0  0  0  0
    5.9893    5.2157   16.4994 N   0  0  0  0  0  0  0  0  0  0  0  0
    6.6918    6.3117   17.0016 C   0  0  0  0  0  0  0  0  0  0  0  0
    8.0053    6.7794   16.8006 C   0  0  0  0  0  0  0  0  0  0  0  0
    8.4349    7.9284   17.4736 C   0  0  0  0  0  0  0  0  0  0  0  0
    7.5836    8.6188   18.3216 C   0  0  0  0  0  0  0  0  0  0  0  0
    6.2730    8.1796   18.5058 C   0  0  0  0  0  0  0  0  0  0  0  0
    5.8109    7.0220   17.8410 C   0  0  0  0  0  0  0  0  0  0  0  0
    4.5435    6.3811   17.7857 C   0  0  0  0  0  0  0  0  0  0  0  0
    3.2621    6.5915   18.3223 C   0  0  0  0  0  0  0  0  0  0  0  0
    2.1621    5.7406   17.9971 C   0  0  0  0  0  0  0  0  0  0  0  0
    2.2240    4.6328   17.1379 C   0  0  0  0  0  0  0  0  0  0  0  0
    1.3579    3.6293   16.6040 C   0  0  0  0  0  0  0  0  0  0  0  0
   -0.0195    3.3431   16.7338 C   0  0  0  0  0  0  0  0  0  0  0  0
   -0.5679    2.2510   16.0568 C   0  0  0  0  0  0  0  0  0  0  0  0
   -2.2489    1.9080   16.2181 Cl  0  0  0  0  0  0  0  0  0  0  0  0
    0.2201    1.4359   15.2545 C   0  0  0  0  0  0  0  0  0  0  0  0
    1.5853    1.6907   15.1065 C   0  0  0  0  0  0  0  0  0  0  0  0
    2.1359    2.7926   15.7855 C   0  0  0  0  0  0  0  0  0  0  0  0
    3.4390    3.2689   15.8265 N   0  0  0  0  0  0  0  0  0  0  0  0
    3.4795    4.3791   16.6118 C   0  0  0  0  0  0  0  0  0  0  0  0
    4.6946    5.2955   16.9494 C   0  0  0  0  0  0  0  0  0  0  0  0
    0.9980    6.2494   18.7354 C   0  0  0  0  0  0  0  0  0  0  0  0
   -0.1139    5.7660   18.7966 O   0  0  0  0  0  0  0  0  0  0  0  0
    1.3904    7.3961   19.3901 N   0  0  0  0  0  0  0  0  0  0  0  0
    2.7873    7.6403   19.2842 C   0  0  0  0  0  0  0  0  0  0  0  0
    2.9204    8.9380   18.7731 O   0  0  0  0  0  0  0  0  0  0  0  0
    0.7701    7.9837   19.8791 H   0  0  0  0  0  0  0  0  0  0  0  0
    2.4214    9.0120   17.9446 H   0  0  0  0  0  0  0  0  0  0  0  0
    5.8114    2.3521   10.9873 C   0  0  0  0  0  0  0  0  0  0  0  0
    5.8640    3.5753   11.7734 N   0  0  0  0  0  0  0  0  0  0  0  0
    5.0068    4.1031   11.6089 H   0  0  0  0  0  0  0  0  0  0  0  0
    5.0936    5.4487   13.8533 O   0  0  0  0  0  0  0  0  0  0  0  0
    5.4237    6.7731   13.4551 C   0  0  0  0  0  0  0  0  0  0  0  0
 36 37  1  0
  1 37  1  0
  1  2  1  0
  3  2  1  0
  3  4  1  0
  4  5  1  0
  5  6  1  0
  5  7  1  0
  7 39  1  0
 39 40  1  0
  5  8  1  0
  8  9  1  0
  9 10  2  0
 10 11  1  0
 11 12  2  0
 12 13  1  0
 13 14  2  0
 14 15  1  0
 15 16  2  0
 16 17  1  0
 17 18  2  0
 18 19  1  0
 19 20  2  0
 20 21  1  0
 21 22  1  0
 21 23  2  0
 23 24  1  0
 24 25  2  0
 25 26  1  0
 26 27  1  0
 27 28  2  0
 17 29  1  0
 29 30  2  0
 29 31  1  0
 31 32  1  0
 32 33  1  0
  7  1  1  0
 28  8  1  0
 26  3  1  0
 14  9  1  0
 28 15  1  0
 32 16  1  0
 27 18  1  0
 25 19  1  0
 37 38  1  0
 31 34  1  0
 33 35  1  0
M  END
> <minimizedAffinity>
-11.08566

> <CNNscore>
0.1346326321

> <CNNaffinity>
6.3329024315

> <CNN_VS>
0.8526152968

> <CNNaffinity_variance>
0.3990747035

$$$$
