


 14 14  0  0  0  0  0  0  0  0999 V2000
   31.5391   64.9017    9.6890 N   0  0  0  0  0  0  0  0  0  0  0  0
   31.4213   66.3308    9.3593 C   0  0  0  0  0  0  0  0  0  0  0  0
   29.9423   66.7130    9.1480 C   0  0  0  0  0  0  0  0  0  0  0  0
   29.7933   67.0418    7.6542 C   0  0  0  0  0  0  0  0  0  0  0  0
   28.5875   66.5214    7.1064 O   0  0  0  0  0  0  0  0  0  0  0  0
   31.0119   66.3977    6.9827 C   0  0  0  0  0  0  0  0  0  0  0  0
   30.7703   64.9917    6.8257 O   0  0  0  0  0  0  0  0  0  0  0  0
   32.1014   66.6921    8.0186 C   0  0  0  0  0  0  0  0  0  0  0  0
   33.3142   65.9851    7.7961 O   0  0  0  0  0  0  0  0  0  0  0  0
   31.0755   64.7187   10.5790 H   0  0  0  0  0  0  0  0  0  0  0  0
   32.5248   64.6495    9.7610 H   0  0  0  0  0  0  0  0  0  0  0  0
   28.5702   65.5582    7.2195 H   0  0  0  0  0  0  0  0  0  0  0  0
   30.5408   64.6051    7.6853 H   0  0  0  0  0  0  0  0  0  0  0  0
   33.1393   65.0311    7.8087 H   0  0  0  0  0  0  0  0  0  0  0  0
  2  1  1  0
  2  3  1  0
  3  4  1  0
  4  5  1  0
  4  6  1  0
  6  7  1  0
  6  8  1  0
  8  9  1  0
  8  2  1  0
  1 10  1  0
  1 11  1  0
  5 12  1  0
  7 13  1  0
  9 14  1  0
M  END
> <minimizedAffinity>
-6.48276

> <CNNscore>
0.9539822936

> <CNNaffinity>
5.0492115021

> <CNN_VS>
4.8168582916

> <CNNaffinity_variance>
0.0352649428

$$$$



 14 14  0  0  0  0  0  0  0  0999 V2000
   33.4747   65.8369    7.4435 N   0  0  0  0  0  0  0  0  0  0  0  0
   32.5724   66.6124    8.3093 C   0  0  0  0  0  0  0  0  0  0  0  0
   32.0006   65.7176    9.4276 C   0  0  0  0  0  0  0  0  0  0  0  0
   30.5003   65.5665    9.1313 C   0  0  0  0  0  0  0  0  0  0  0  0
   30.0390   64.2388    9.3535 O   0  0  0  0  0  0  0  0  0  0  0  0
   30.3469   65.9498    7.6547 C   0  0  0  0  0  0  0  0  0  0  0  0
   30.7477   64.8388    6.8393 O   0  0  0  0  0  0  0  0  0  0  0  0
   31.3222   67.1274    7.5594 C   0  0  0  0  0  0  0  0  0  0  0  0
   31.5973   67.5415    6.2279 O   0  0  0  0  0  0  0  0  0  0  0  0
   34.2794   65.5226    7.9859 H   0  0  0  0  0  0  0  0  0  0  0  0
   33.7928   66.4233    6.6719 H   0  0  0  0  0  0  0  0  0  0  0  0
   30.5344   63.6256    8.7883 H   0  0  0  0  0  0  0  0  0  0  0  0
   31.6444   64.5634    7.0862 H   0  0  0  0  0  0  0  0  0  0  0  0
   31.9746   66.7995    5.7300 H   0  0  0  0  0  0  0  0  0  0  0  0
  2  1  1  0
  2  3  1  0
  3  4  1  0
  4  5  1  0
  4  6  1  0
  6  7  1  0
  6  8  1  0
  8  9  1  0
  8  2  1  0
  1 10  1  0
  1 11  1  0
  5 12  1  0
  7 13  1  0
  9 14  1  0
M  END
> <minimizedAffinity>
-6.84604

> <CNNscore>
0.9531269073

> <CNNaffinity>
5.0313038826

> <CNN_VS>
4.7954711914

> <CNNaffinity_variance>
0.1465962380

$$$$



 14 14  0  0  0  0  0  0  0  0999 V2000
   30.0169   64.2562    9.1425 N   0  0  0  0  0  0  0  0  0  0  0  0
   30.0513   65.6053    8.5563 C   0  0  0  0  0  0  0  0  0  0  0  0
   30.9878   65.6348    7.3314 C   0  0  0  0  0  0  0  0  0  0  0  0
   32.1901   66.5044    7.7314 C   0  0  0  0  0  0  0  0  0  0  0  0
   33.4230   65.9616    7.2727 O   0  0  0  0  0  0  0  0  0  0  0  0
   32.1571   66.5465    9.2637 C   0  0  0  0  0  0  0  0  0  0  0  0
   32.7099   65.3255    9.7768 O   0  0  0  0  0  0  0  0  0  0  0  0
   30.6503   66.6585    9.5169 C   0  0  0  0  0  0  0  0  0  0  0  0
   30.2775   66.4571   10.8735 O   0  0  0  0  0  0  0  0  0  0  0  0
   29.6145   63.6034    8.4700 H   0  0  0  0  0  0  0  0  0  0  0  0
   29.4469   64.2675    9.9884 H   0  0  0  0  0  0  0  0  0  0  0  0
   33.5417   65.0722    7.6414 H   0  0  0  0  0  0  0  0  0  0  0  0
   32.2394   64.5702    9.3908 H   0  0  0  0  0  0  0  0  0  0  0  0
   30.5645   65.5761   11.1603 H   0  0  0  0  0  0  0  0  0  0  0  0
  2  1  1  0
  2  3  1  0
  3  4  1  0
  4  5  1  0
  4  6  1  0
  6  7  1  0
  6  8  1  0
  8  9  1  0
  8  2  1  0
  1 10  1  0
  1 11  1  0
  5 12  1  0
  7 13  1  0
  9 14  1  0
M  END
> <minimizedAffinity>
-6.27349

> <CNNscore>
0.8547281623

> <CNNaffinity>
4.4497895241

> <CNN_VS>
3.8033604622

> <CNNaffinity_variance>
0.3610777855

$$$$



 14 14  0  0  0  0  0  0  0  0999 V2000
   25.2943   66.0831    9.2416 N   0  0  0  0  0  0  0  0  0  0  0  0
   24.2257   65.1258    9.5681 C   0  0  0  0  0  0  0  0  0  0  0  0
   24.3336   64.6825   11.0413 C   0  0  0  0  0  0  0  0  0  0  0  0
   24.7368   63.1998   11.0147 C   0  0  0  0  0  0  0  0  0  0  0  0
   25.7112   62.8895   12.0043 O   0  0  0  0  0  0  0  0  0  0  0  0
   25.3038   62.9678    9.6092 C   0  0  0  0  0  0  0  0  0  0  0  0
   26.6496   63.4641    9.5604 O   0  0  0  0  0  0  0  0  0  0  0  0
   24.3392   63.8084    8.7666 C   0  0  0  0  0  0  0  0  0  0  0  0
   24.7656   64.0028    7.4248 O   0  0  0  0  0  0  0  0  0  0  0  0
   25.1725   66.9307    9.7959 H   0  0  0  0  0  0  0  0  0  0  0  0
   25.2504   66.3164    8.2496 H   0  0  0  0  0  0  0  0  0  0  0  0
   26.5019   63.4329   11.8611 H   0  0  0  0  0  0  0  0  0  0  0  0
   26.6628   64.3913    9.8451 H   0  0  0  0  0  0  0  0  0  0  0  0
   25.6293   64.4444    7.4208 H   0  0  0  0  0  0  0  0  0  0  0  0
  2  1  1  0
  2  3  1  0
  3  4  1  0
  4  5  1  0
  4  6  1  0
  6  7  1  0
  6  8  1  0
  8  9  1  0
  8  2  1  0
  1 10  1  0
  1 11  1  0
  5 12  1  0
  7 13  1  0
  9 14  1  0
M  END
> <minimizedAffinity>
-4.20688

> <CNNscore>
0.7415775061

> <CNNaffinity>
2.6616389751

> <CNN_VS>
1.9738116264

> <CNNaffinity_variance>
0.5243640542

$$$$



 14 14  0  0  0  0  0  0  0  0999 V2000
   30.0490   65.5708    6.4962 N   0  0  0  0  0  0  0  0  0  0  0  0
   30.4375   66.6921    7.3661 C   0  0  0  0  0  0  0  0  0  0  0  0
   31.9149   66.5579    7.7875 C   0  0  0  0  0  0  0  0  0  0  0  0
   31.9059   66.2646    9.2960 C   0  0  0  0  0  0  0  0  0  0  0  0
   32.8640   65.2765    9.6577 O   0  0  0  0  0  0  0  0  0  0  0  0
   30.4852   65.7725    9.5961 C   0  0  0  0  0  0  0  0  0  0  0  0
   30.3737   64.3973    9.2008 O   0  0  0  0  0  0  0  0  0  0  0  0
   29.6617   66.7065    8.7035 C   0  0  0  0  0  0  0  0  0  0  0  0
   28.3006   66.3209    8.5670 O   0  0  0  0  0  0  0  0  0  0  0  0
   30.5886   65.6087    5.6314 H   0  0  0  0  0  0  0  0  0  0  0  0
   29.0545   65.6372    6.2796 H   0  0  0  0  0  0  0  0  0  0  0  0
   32.6785   64.4549    9.1765 H   0  0  0  0  0  0  0  0  0  0  0  0
   30.6370   64.3055    8.2718 H   0  0  0  0  0  0  0  0  0  0  0  0
   28.2535   65.4284    8.1900 H   0  0  0  0  0  0  0  0  0  0  0  0
  2  1  1  0
  2  3  1  0
  3  4  1  0
  4  5  1  0
  4  6  1  0
  6  7  1  0
  6  8  1  0
  8  9  1  0
  8  2  1  0
  1 10  1  0
  1 11  1  0
  5 12  1  0
  7 13  1  0
  9 14  1  0
M  END
> <minimizedAffinity>
-6.36090

> <CNNscore>
0.7304722667

> <CNNaffinity>
4.4638409615

> <CNN_VS>
3.2607119083

> <CNNaffinity_variance>
0.0143504953

$$$$



 14 14  0  0  0  0  0  0  0  0999 V2000
   31.9432   66.6156   10.0753 N   0  0  0  0  0  0  0  0  0  0  0  0
   31.4970   65.6878    9.0242 C   0  0  0  0  0  0  0  0  0  0  0  0
   31.1958   66.4566    7.7217 C   0  0  0  0  0  0  0  0  0  0  0  0
   29.6759   66.3680    7.5127 C   0  0  0  0  0  0  0  0  0  0  0  0
   29.1222   67.5989    7.0619 O   0  0  0  0  0  0  0  0  0  0  0  0
   29.1077   65.9930    8.8866 C   0  0  0  0  0  0  0  0  0  0  0  0
   29.0527   67.1697    9.7065 O   0  0  0  0  0  0  0  0  0  0  0  0
   30.1608   64.9912    9.3707 C   0  0  0  0  0  0  0  0  0  0  0  0
   30.0446   64.6526   10.7462 O   0  0  0  0  0  0  0  0  0  0  0  0
   32.8251   67.0459    9.7971 H   0  0  0  0  0  0  0  0  0  0  0  0
   32.0750   66.1034   10.9475 H   0  0  0  0  0  0  0  0  0  0  0  0
   29.3103   68.2950    7.7107 H   0  0  0  0  0  0  0  0  0  0  0  0
   29.9300   67.5821    9.7396 H   0  0  0  0  0  0  0  0  0  0  0  0
   30.1253   65.4554   11.2847 H   0  0  0  0  0  0  0  0  0  0  0  0
  2  1  1  0
  2  3  1  0
  3  4  1  0
  4  5  1  0
  4  6  1  0
  6  7  1  0
  6  8  1  0
  8  9  1  0
  8  2  1  0
  1 10  1  0
  1 11  1  0
  5 12  1  0
  7 13  1  0
  9 14  1  0
M  END
> <minimizedAffinity>
-4.80524

> <CNNscore>
0.5869728327

> <CNNaffinity>
3.8647944927

> <CNN_VS>
2.2685294151

> <CNNaffinity_variance>
0.1575764269

$$$$



 14 14  0  0  0  0  0  0  0  0999 V2000
   26.3232   61.2600    9.4581 N   0  0  0  0  0  0  0  0  0  0  0  0
   24.9988   61.8032    9.7983 C   0  0  0  0  0  0  0  0  0  0  0  0
   24.3071   62.3606    8.5377 C   0  0  0  0  0  0  0  0  0  0  0  0
   24.2399   63.8846    8.7234 C   0  0  0  0  0  0  0  0  0  0  0  0
   24.5372   64.5866    7.5219 O   0  0  0  0  0  0  0  0  0  0  0  0
   25.2824   64.1991    9.8028 C   0  0  0  0  0  0  0  0  0  0  0  0
   26.5873   64.2035    9.2052 O   0  0  0  0  0  0  0  0  0  0  0  0
   25.0786   63.0158   10.7543 C   0  0  0  0  0  0  0  0  0  0  0  0
   26.0945   62.8874   11.7400 O   0  0  0  0  0  0  0  0  0  0  0  0
   26.2132   60.4655    8.8279 H   0  0  0  0  0  0  0  0  0  0  0  0
   26.7949   60.9557   10.3097 H   0  0  0  0  0  0  0  0  0  0  0  0
   25.4264   64.3458    7.2182 H   0  0  0  0  0  0  0  0  0  0  0  0
   26.7348   63.3626    8.7446 H   0  0  0  0  0  0  0  0  0  0  0  0
   26.9546   62.7772   11.3054 H   0  0  0  0  0  0  0  0  0  0  0  0
  2  1  1  0
  2  3  1  0
  3  4  1  0
  4  5  1  0
  4  6  1  0
  6  7  1  0
  6  8  1  0
  8  9  1  0
  8  2  1  0
  1 10  1  0
  1 11  1  0
  5 12  1  0
  7 13  1  0
  9 14  1  0
M  END
> <minimizedAffinity>
-4.74495

> <CNNscore>
0.4302527308

> <CNNaffinity>
2.5040047169

> <CNN_VS>
1.0773549080

> <CNNaffinity_variance>
0.5355759263

$$$$



 14 14  0  0  0  0  0  0  0  0999 V2000
   33.2874   66.7989   19.7225 N   0  0  0  0  0  0  0  0  0  0  0  0
   32.0529   67.5742   19.5228 C   0  0  0  0  0  0  0  0  0  0  0  0
   30.8798   66.9208   20.2812 C   0  0  0  0  0  0  0  0  0  0  0  0
   29.9214   66.3823   19.2073 C   0  0  0  0  0  0  0  0  0  0  0  0
   29.4031   65.1002   19.5431 O   0  0  0  0  0  0  0  0  0  0  0  0
   30.7625   66.3049   17.9277 C   0  0  0  0  0  0  0  0  0  0  0  0
   31.5755   65.1230   17.9736 O   0  0  0  0  0  0  0  0  0  0  0  0
   31.5894   67.5889   18.0478 C   0  0  0  0  0  0  0  0  0  0  0  0
   32.6650   67.6703   17.1222 O   0  0  0  0  0  0  0  0  0  0  0  0
   33.5475   66.8219   20.7085 H   0  0  0  0  0  0  0  0  0  0  0  0
   34.0379   67.2045   19.1633 H   0  0  0  0  0  0  0  0  0  0  0  0
   30.1356   64.4740   19.6533 H   0  0  0  0  0  0  0  0  0  0  0  0
   32.0971   65.1209   18.7915 H   0  0  0  0  0  0  0  0  0  0  0  0
   33.2617   66.9168   17.2530 H   0  0  0  0  0  0  0  0  0  0  0  0
  2  1  1  0
  2  3  1  0
  3  4  1  0
  4  5  1  0
  4  6  1  0
  6  7  1  0
  6  8  1  0
  8  9  1  0
  8  2  1  0
  1 10  1  0
  1 11  1  0
  5 12  1  0
  7 13  1  0
  9 14  1  0
M  END
> <minimizedAffinity>
-4.25166

> <CNNscore>
0.4302524030

> <CNNaffinity>
2.7595994473

> <CNN_VS>
1.1873242855

> <CNNaffinity_variance>
0.3101454079

$$$$



 14 14  0  0  0  0  0  0  0  0999 V2000
   27.3032   65.4512   11.3303 N   0  0  0  0  0  0  0  0  0  0  0  0
   25.8424   65.4261   11.1561 C   0  0  0  0  0  0  0  0  0  0  0  0
   25.1541   64.9686   12.4581 C   0  0  0  0  0  0  0  0  0  0  0  0
   24.5426   63.5909   12.1589 C   0  0  0  0  0  0  0  0  0  0  0  0
   24.7179   62.6788   13.2371 O   0  0  0  0  0  0  0  0  0  0  0  0
   25.2771   63.0938   10.9082 C   0  0  0  0  0  0  0  0  0  0  0  0
   26.5606   62.5798   11.2934 O   0  0  0  0  0  0  0  0  0  0  0  0
   25.3847   64.3919   10.1018 C   0  0  0  0  0  0  0  0  0  0  0  0
   26.2587   64.3052    8.9843 O   0  0  0  0  0  0  0  0  0  0  0  0
   27.5498   66.1474   12.0337 H   0  0  0  0  0  0  0  0  0  0  0  0
   27.7473   65.6913   10.4440 H   0  0  0  0  0  0  0  0  0  0  0  0
   25.6647   62.5700   13.4178 H   0  0  0  0  0  0  0  0  0  0  0  0
   27.0430   63.2564   11.7937 H   0  0  0  0  0  0  0  0  0  0  0  0
   27.1486   64.0667    9.2876 H   0  0  0  0  0  0  0  0  0  0  0  0
  2  1  1  0
  2  3  1  0
  3  4  1  0
  4  5  1  0
  4  6  1  0
  6  7  1  0
  6  8  1  0
  8  9  1  0
  8  2  1  0
  1 10  1  0
  1 11  1  0
  5 12  1  0
  7 13  1  0
  9 14  1  0
M  END
> <minimizedAffinity>
-3.62672

> <CNNscore>
0.3915017843

> <CNNaffinity>
2.5683586597

> <CNN_VS>
1.0055170059

> <CNNaffinity_variance>
0.4416854084

$$$$
