


 39 41  0  0  0  0  0  0  0  0999 V2000
   20.9690    9.4214    4.8686 C   0  0  0  0  0  0  0  0  0  0  0  0
   21.7715    9.2361    6.0513 O   0  0  0  0  0  0  0  0  0  0  0  0
   23.1766    9.2478    5.6853 C   0  0  0  0  0  0  0  0  0  0  0  0
   23.2330    9.6903    4.2178 C   0  0  0  0  0  0  0  0  0  0  0  0
   23.3425   11.1221    4.1238 O   0  0  0  0  0  0  0  0  0  0  0  0
   21.8990    9.2073    3.6812 C   0  0  0  0  0  0  0  0  0  0  0  0
   21.4773    9.9530    2.5526 O   0  0  0  0  0  0  0  0  0  0  0  0
   22.6025   11.5347    4.5961 H   0  0  0  0  0  0  0  0  0  0  0  0
   21.4250   10.8928    2.7872 H   0  0  0  0  0  0  0  0  0  0  0  0
   23.7266    7.9320    5.9723 N   0  0  0  0  0  0  0  0  0  0  0  0
   24.7558    7.6512    6.8367 C   0  0  0  0  0  0  0  0  0  0  0  0
   25.0550    6.3702    6.8539 N   0  0  0  0  0  0  0  0  0  0  0  0
   24.2259    5.8021    5.9141 C   0  0  0  0  0  0  0  0  0  0  0  0
   24.0820    4.4833    5.4508 C   0  0  0  0  0  0  0  0  0  0  0  0
   24.8596    3.4390    5.9092 N   0  0  0  0  0  0  0  0  0  0  0  0
   23.1358    4.2207    4.5248 N   0  0  0  0  0  0  0  0  0  0  0  0
   22.4072    5.2537    4.0631 C   0  0  0  0  0  0  0  0  0  0  0  0
   21.2173    4.8532    2.9021 Cl  0  0  0  0  0  0  0  0  0  0  0  0
   22.4560    6.5540    4.4123 N   0  0  0  0  0  0  0  0  0  0  0  0
   23.3922    6.7562    5.3534 C   0  0  0  0  0  0  0  0  0  0  0  0
   25.5567    3.6039    6.5845 H   0  0  0  0  0  0  0  0  0  0  0  0
   24.7171    2.5293    5.5608 H   0  0  0  0  0  0  0  0  0  0  0  0
   19.8071    8.4242    4.8511 C   0  0  0  0  0  0  0  0  0  0  0  0
   18.9863    8.5723    3.6946 O   0  0  0  0  0  0  0  0  0  0  0  0
   17.4976    9.2077    3.8556 S   0  0  0  0  0  0  0  0  0  0  0  0
   16.5390    8.2848    3.2801 O   0  0  0  0  0  0  0  0  0  0  0  0
   17.5181   10.5851    3.4349 O   0  0  0  0  0  0  0  0  0  0  0  0
   15.9217    9.0245    6.0512 C   0  0  0  0  0  0  0  0  0  0  0  0
   14.8993    8.8664    5.3937 O   0  0  0  0  0  0  0  0  0  0  0  0
   17.1994    9.1343    5.4816 N   0  0  0  0  0  0  0  0  0  0  0  0
   17.9715    9.1701    6.0913 H   0  0  0  0  0  0  0  0  0  0  0  0
   15.9172    9.0849    7.6029 C   0  0  0  0  0  0  0  0  0  0  0  0
   15.9917    7.7136    8.1517 N   0  0  0  0  0  0  0  0  0  0  0  0
   15.1692    7.1855    7.8601 H   0  0  0  0  0  0  0  0  0  0  0  0
   16.0248    7.7563    9.1703 H   0  0  0  0  0  0  0  0  0  0  0  0
   13.5635    8.9589    8.5291 C   0  0  0  0  0  0  0  0  0  0  0  0
   14.7240    9.9122    8.1795 C   0  0  0  0  0  0  0  0  0  0  0  0
   15.1559   10.6280    9.4815 C   0  0  0  0  0  0  0  0  0  0  0  0
   14.1917   10.9723    7.1940 C   0  0  0  0  0  0  0  0  0  0  0  0
 36 37  1  0
 37 38  1  0
 37 39  1  0
 37 32  1  0
 32 33  1  0
 32 28  1  0
 28 29  2  0
 28 30  1  0
 30 25  1  0
 25 26  2  0
 25 27  2  0
 25 24  1  0
 24 23  1  0
  1 23  1  0
  1  2  1  0
  2  3  1  0
  3 10  1  0
 10 11  1  0
 11 12  2  0
 12 13  1  0
 13 14  2  0
 14 15  1  0
 14 16  1  0
 16 17  2  0
 17 18  1  0
 17 19  1  0
 19 20  2  0
  3  4  1  0
  4  5  1  0
  4  6  1  0
  6  7  1  0
  6  1  1  0
 20 10  1  0
 20 13  1  0
 33 34  1  0
 33 35  1  0
 30 31  1  0
 15 21  1  0
 15 22  1  0
  5  8  1  0
  7  9  1  0
M  END
> <minimizedAffinity>
-9.01926

> <CNNscore>
0.1325568408

> <CNNaffinity>
5.1609711647

> <CNN_VS>
0.6841220260

> <CNNaffinity_variance>
0.6910915375

$$$$



 39 41  0  0  0  0  0  0  0  0999 V2000
   19.5311   11.3299    1.9254 C   0  0  0  0  0  0  0  0  0  0  0  0
   20.8409   11.7588    2.3471 O   0  0  0  0  0  0  0  0  0  0  0  0
   21.7968   10.6932    2.1039 C   0  0  0  0  0  0  0  0  0  0  0  0
   21.0564    9.6343    1.2775 C   0  0  0  0  0  0  0  0  0  0  0  0
   21.2037    9.8952   -0.1300 O   0  0  0  0  0  0  0  0  0  0  0  0
   19.6181    9.8228    1.7213 C   0  0  0  0  0  0  0  0  0  0  0  0
   18.6959    9.3792    0.7413 O   0  0  0  0  0  0  0  0  0  0  0  0
   20.8887   10.7912   -0.3275 H   0  0  0  0  0  0  0  0  0  0  0  0
   18.8559    9.8518   -0.0906 H   0  0  0  0  0  0  0  0  0  0  0  0
   22.3107   10.2484    3.3901 N   0  0  0  0  0  0  0  0  0  0  0  0
   22.7756   11.0513    4.4023 C   0  0  0  0  0  0  0  0  0  0  0  0
   23.2116   10.3542    5.4293 N   0  0  0  0  0  0  0  0  0  0  0  0
   23.0820    9.0397    5.0434 C   0  0  0  0  0  0  0  0  0  0  0  0
   23.3976    7.8289    5.6828 C   0  0  0  0  0  0  0  0  0  0  0  0
   23.9743    7.7712    6.9356 N   0  0  0  0  0  0  0  0  0  0  0  0
   23.1162    6.6695    5.0517 N   0  0  0  0  0  0  0  0  0  0  0  0
   22.5843    6.7410    3.8176 C   0  0  0  0  0  0  0  0  0  0  0  0
   22.2393    5.2385    3.0776 Cl  0  0  0  0  0  0  0  0  0  0  0  0
   22.2500    7.8284    3.0956 N   0  0  0  0  0  0  0  0  0  0  0  0
   22.5243    8.9518    3.7781 C   0  0  0  0  0  0  0  0  0  0  0  0
   24.1895    8.6025    7.4172 H   0  0  0  0  0  0  0  0  0  0  0  0
   24.1705    6.8988    7.3475 H   0  0  0  0  0  0  0  0  0  0  0  0
   18.4860   11.6873    2.9859 C   0  0  0  0  0  0  0  0  0  0  0  0
   17.1590   11.3892    2.5579 O   0  0  0  0  0  0  0  0  0  0  0  0
   15.9024   11.9228    3.4422 S   0  0  0  0  0  0  0  0  0  0  0  0
   14.6862   11.3371    2.9133 O   0  0  0  0  0  0  0  0  0  0  0  0
   16.0059   13.3500    3.6066 O   0  0  0  0  0  0  0  0  0  0  0  0
   16.0477    9.7979    5.1159 C   0  0  0  0  0  0  0  0  0  0  0  0
   15.9568    8.9821    4.2055 O   0  0  0  0  0  0  0  0  0  0  0  0
   16.0979   11.1850    4.9104 N   0  0  0  0  0  0  0  0  0  0  0  0
   16.2605   11.7588    5.6937 H   0  0  0  0  0  0  0  0  0  0  0  0
   16.1545    9.3784    6.6072 C   0  0  0  0  0  0  0  0  0  0  0  0
   16.9557    8.1401    6.7167 N   0  0  0  0  0  0  0  0  0  0  0  0
   16.4860    7.3858    6.2159 H   0  0  0  0  0  0  0  0  0  0  0  0
   17.0553    7.8853    7.6994 H   0  0  0  0  0  0  0  0  0  0  0  0
   13.8694    8.2889    6.5380 C   0  0  0  0  0  0  0  0  0  0  0  0
   14.7655    9.2746    7.3145 C   0  0  0  0  0  0  0  0  0  0  0  0
   14.9416    8.7231    8.7494 C   0  0  0  0  0  0  0  0  0  0  0  0
   14.0280   10.6265    7.3990 C   0  0  0  0  0  0  0  0  0  0  0  0
 36 37  1  0
 37 38  1  0
 37 39  1  0
 37 32  1  0
 32 33  1  0
 32 28  1  0
 28 29  2  0
 28 30  1  0
 30 25  1  0
 25 26  2  0
 25 27  2  0
 25 24  1  0
 24 23  1  0
  1 23  1  0
  1  2  1  0
  2  3  1  0
  3 10  1  0
 10 11  1  0
 11 12  2  0
 12 13  1  0
 13 14  2  0
 14 15  1  0
 14 16  1  0
 16 17  2  0
 17 18  1  0
 17 19  1  0
 19 20  2  0
  3  4  1  0
  4  5  1  0
  4  6  1  0
  6  7  1  0
  6  1  1  0
 20 10  1  0
 20 13  1  0
 33 34  1  0
 33 35  1  0
 30 31  1  0
 15 21  1  0
 15 22  1  0
  5  8  1  0
  7  9  1  0
M  END
> <minimizedAffinity>
-8.87602

> <CNNscore>
0.1106612608

> <CNNaffinity>
5.3224473000

> <CNN_VS>
0.5889887214

> <CNNaffinity_variance>
0.2914021015

$$$$



 39 41  0  0  0  0  0  0  0  0999 V2000
   18.8680   12.1510    1.3451 C   0  0  0  0  0  0  0  0  0  0  0  0
   19.6013   11.8643    2.5523 O   0  0  0  0  0  0  0  0  0  0  0  0
   20.9315   11.3958    2.2066 C   0  0  0  0  0  0  0  0  0  0  0  0
   21.0874   11.6249    0.6980 C   0  0  0  0  0  0  0  0  0  0  0  0
   21.6336   12.9305    0.4371 O   0  0  0  0  0  0  0  0  0  0  0  0
   19.6570   11.5216    0.2040 C   0  0  0  0  0  0  0  0  0  0  0  0
   19.4608   12.2248   -1.0103 O   0  0  0  0  0  0  0  0  0  0  0  0
   21.0697   13.6047    0.8474 H   0  0  0  0  0  0  0  0  0  0  0  0
   19.7083   13.1548   -0.8890 H   0  0  0  0  0  0  0  0  0  0  0  0
   21.0527   10.0170    2.6543 N   0  0  0  0  0  0  0  0  0  0  0  0
   20.1299    9.0173    2.4689 C   0  0  0  0  0  0  0  0  0  0  0  0
   20.5060    7.8847    3.0227 N   0  0  0  0  0  0  0  0  0  0  0  0
   21.6963    8.1767    3.6486 C   0  0  0  0  0  0  0  0  0  0  0  0
   22.5724    7.4019    4.4273 C   0  0  0  0  0  0  0  0  0  0  0  0
   22.3296    6.0786    4.7359 N   0  0  0  0  0  0  0  0  0  0  0  0
   23.7072    7.9703    4.8865 N   0  0  0  0  0  0  0  0  0  0  0  0
   23.9152    9.2698    4.6056 C   0  0  0  0  0  0  0  0  0  0  0  0
   25.3760    9.9268    5.2043 Cl  0  0  0  0  0  0  0  0  0  0  0  0
   23.1539   10.1187    3.8878 N   0  0  0  0  0  0  0  0  0  0  0  0
   22.0538    9.4978    3.4325 C   0  0  0  0  0  0  0  0  0  0  0  0
   21.5092    5.6404    4.4131 H   0  0  0  0  0  0  0  0  0  0  0  0
   22.9768    5.5729    5.2787 H   0  0  0  0  0  0  0  0  0  0  0  0
   17.4539   11.5697    1.4296 C   0  0  0  0  0  0  0  0  0  0  0  0
   17.1381   11.1070    2.7409 O   0  0  0  0  0  0  0  0  0  0  0  0
   15.9081   11.7983    3.5502 S   0  0  0  0  0  0  0  0  0  0  0  0
   14.6609   11.2955    3.0084 O   0  0  0  0  0  0  0  0  0  0  0  0
   16.1359   13.2174    3.6443 O   0  0  0  0  0  0  0  0  0  0  0  0
   15.9392    9.7498    5.3223 C   0  0  0  0  0  0  0  0  0  0  0  0
   15.9349    8.8943    4.4444 O   0  0  0  0  0  0  0  0  0  0  0  0
   15.9892   11.1275    5.0608 N   0  0  0  0  0  0  0  0  0  0  0  0
   16.0786   11.7369    5.8288 H   0  0  0  0  0  0  0  0  0  0  0  0
   15.9261    9.3965    6.8344 C   0  0  0  0  0  0  0  0  0  0  0  0
   16.6571    8.1295    7.0529 N   0  0  0  0  0  0  0  0  0  0  0  0
   16.1856    7.3747    6.5545 H   0  0  0  0  0  0  0  0  0  0  0  0
   16.6786    7.9170    8.0503 H   0  0  0  0  0  0  0  0  0  0  0  0
   14.1301   10.8120    7.9226 C   0  0  0  0  0  0  0  0  0  0  0  0
   14.4897    9.3894    7.4486 C   0  0  0  0  0  0  0  0  0  0  0  0
   13.4564    8.9741    6.3744 C   0  0  0  0  0  0  0  0  0  0  0  0
   14.3519    8.4352    8.6523 C   0  0  0  0  0  0  0  0  0  0  0  0
 36 37  1  0
 37 38  1  0
 37 39  1  0
 37 32  1  0
 32 33  1  0
 32 28  1  0
 28 29  2  0
 28 30  1  0
 30 25  1  0
 25 26  2  0
 25 27  2  0
 25 24  1  0
 24 23  1  0
  1 23  1  0
  1  2  1  0
  2  3  1  0
  3 10  1  0
 10 11  1  0
 11 12  2  0
 12 13  1  0
 13 14  2  0
 14 15  1  0
 14 16  1  0
 16 17  2  0
 17 18  1  0
 17 19  1  0
 19 20  2  0
  3  4  1  0
  4  5  1  0
  4  6  1  0
  6  7  1  0
  6  1  1  0
 20 10  1  0
 20 13  1  0
 33 34  1  0
 33 35  1  0
 30 31  1  0
 15 21  1  0
 15 22  1  0
  5  8  1  0
  7  9  1  0
M  END
> <minimizedAffinity>
-9.66208

> <CNNscore>
0.0809995234

> <CNNaffinity>
5.2075695992

> <CNN_VS>
0.4218106568

> <CNNaffinity_variance>
0.2528456151

$$$$



 39 41  0  0  0  0  0  0  0  0999 V2000
   19.9709    9.2633    1.6340 C   0  0  0  0  0  0  0  0  0  0  0  0
   21.0225    8.3060    1.8683 O   0  0  0  0  0  0  0  0  0  0  0  0
   20.9929    7.8905    3.2593 C   0  0  0  0  0  0  0  0  0  0  0  0
   19.7005    8.4670    3.8508 C   0  0  0  0  0  0  0  0  0  0  0  0
   18.6134    7.5367    3.6972 O   0  0  0  0  0  0  0  0  0  0  0  0
   19.4819    9.7081    3.0065 C   0  0  0  0  0  0  0  0  0  0  0  0
   18.1191   10.0943    2.9702 O   0  0  0  0  0  0  0  0  0  0  0  0
   18.5109    7.3111    2.7594 H   0  0  0  0  0  0  0  0  0  0  0  0
   17.5837    9.3593    2.6326 H   0  0  0  0  0  0  0  0  0  0  0  0
   22.2291    8.3318    3.8864 N   0  0  0  0  0  0  0  0  0  0  0  0
   22.7325    9.6092    3.8825 C   0  0  0  0  0  0  0  0  0  0  0  0
   23.8908    9.6889    4.5012 N   0  0  0  0  0  0  0  0  0  0  0  0
   24.1831    8.3957    4.8698 C   0  0  0  0  0  0  0  0  0  0  0  0
   25.2828    7.8248    5.5326 C   0  0  0  0  0  0  0  0  0  0  0  0
   26.3753    8.5618    5.9433 N   0  0  0  0  0  0  0  0  0  0  0  0
   25.2686    6.5000    5.7902 N   0  0  0  0  0  0  0  0  0  0  0  0
   24.2123    5.7885    5.3554 C   0  0  0  0  0  0  0  0  0  0  0  0
   24.2484    4.1192    5.7243 Cl  0  0  0  0  0  0  0  0  0  0  0  0
   23.1116    6.2100    4.7028 N   0  0  0  0  0  0  0  0  0  0  0  0
   23.1630    7.5358    4.4962 C   0  0  0  0  0  0  0  0  0  0  0  0
   26.4103    9.5299    5.7676 H   0  0  0  0  0  0  0  0  0  0  0  0
   27.1196    8.1193    6.4117 H   0  0  0  0  0  0  0  0  0  0  0  0
   20.5001   10.4486    0.8219 C   0  0  0  0  0  0  0  0  0  0  0  0
   19.9899   11.6948    1.2907 O   0  0  0  0  0  0  0  0  0  0  0  0
   19.0217   12.5702    0.3201 S   0  0  0  0  0  0  0  0  0  0  0  0
   19.2840   12.1908   -1.0543 O   0  0  0  0  0  0  0  0  0  0  0  0
   19.0789   13.9551    0.7118 O   0  0  0  0  0  0  0  0  0  0  0  0
   16.9257   10.8983   -0.0664 C   0  0  0  0  0  0  0  0  0  0  0  0
   17.5274   10.2165   -0.8883 O   0  0  0  0  0  0  0  0  0  0  0  0
   17.5059   11.9771    0.6181 N   0  0  0  0  0  0  0  0  0  0  0  0
   16.9745   12.4110    1.3243 H   0  0  0  0  0  0  0  0  0  0  0  0
   15.4527   10.6165    0.3363 C   0  0  0  0  0  0  0  0  0  0  0  0
   15.4033    9.4556    1.2513 N   0  0  0  0  0  0  0  0  0  0  0  0
   15.7564    8.6283    0.7702 H   0  0  0  0  0  0  0  0  0  0  0  0
   14.4395    9.2936    1.5433 H   0  0  0  0  0  0  0  0  0  0  0  0
   13.0771   10.9083   -0.4914 C   0  0  0  0  0  0  0  0  0  0  0  0
   14.4998   10.4695   -0.8929 C   0  0  0  0  0  0  0  0  0  0  0  0
   14.9719   11.3916   -2.0422 C   0  0  0  0  0  0  0  0  0  0  0  0
   14.4217    9.0250   -1.4275 C   0  0  0  0  0  0  0  0  0  0  0  0
 36 37  1  0
 37 38  1  0
 37 39  1  0
 37 32  1  0
 32 33  1  0
 32 28  1  0
 28 29  2  0
 28 30  1  0
 30 25  1  0
 25 26  2  0
 25 27  2  0
 25 24  1  0
 24 23  1  0
  1 23  1  0
  1  2  1  0
  2  3  1  0
  3 10  1  0
 10 11  1  0
 11 12  2  0
 12 13  1  0
 13 14  2  0
 14 15  1  0
 14 16  1  0
 16 17  2  0
 17 18  1  0
 17 19  1  0
 19 20  2  0
  3  4  1  0
  4  5  1  0
  4  6  1  0
  6  7  1  0
  6  1  1  0
 20 10  1  0
 20 13  1  0
 33 34  1  0
 33 35  1  0
 30 31  1  0
 15 21  1  0
 15 22  1  0
  5  8  1  0
  7  9  1  0
M  END
> <minimizedAffinity>
-9.55098

> <CNNscore>
0.0758185908

> <CNNaffinity>
5.2768034935

> <CNN_VS>
0.4000798166

> <CNNaffinity_variance>
0.0078818277

$$$$



 39 41  0  0  0  0  0  0  0  0999 V2000
   20.0706   10.5359    1.7016 C   0  0  0  0  0  0  0  0  0  0  0  0
   18.9268    9.9117    1.0857 O   0  0  0  0  0  0  0  0  0  0  0  0
   18.1400   10.9208    0.3995 C   0  0  0  0  0  0  0  0  0  0  0  0
   18.9814   12.2032    0.4150 C   0  0  0  0  0  0  0  0  0  0  0  0
   19.8238   12.2711   -0.7497 O   0  0  0  0  0  0  0  0  0  0  0  0
   19.8057   12.0359    1.6773 C   0  0  0  0  0  0  0  0  0  0  0  0
   21.0140   12.7740    1.6261 O   0  0  0  0  0  0  0  0  0  0  0  0
   20.3788   11.4768   -0.7941 H   0  0  0  0  0  0  0  0  0  0  0  0
   21.5277   12.4999    0.8503 H   0  0  0  0  0  0  0  0  0  0  0  0
   16.8449   11.0043    1.0566 N   0  0  0  0  0  0  0  0  0  0  0  0
   16.6164   11.3646    2.3617 C   0  0  0  0  0  0  0  0  0  0  0  0
   15.3403   11.3083    2.6768 N   0  0  0  0  0  0  0  0  0  0  0  0
   14.7188   10.8313    1.5455 C   0  0  0  0  0  0  0  0  0  0  0  0
   13.3772   10.5284    1.2577 C   0  0  0  0  0  0  0  0  0  0  0  0
   12.3637   10.6596    2.1856 N   0  0  0  0  0  0  0  0  0  0  0  0
   13.0605   10.1004    0.0174 N   0  0  0  0  0  0  0  0  0  0  0  0
   14.0630    9.9460   -0.8671 C   0  0  0  0  0  0  0  0  0  0  0  0
   13.5948    9.4138   -2.4232 Cl  0  0  0  0  0  0  0  0  0  0  0  0
   15.3797   10.1864   -0.7130 N   0  0  0  0  0  0  0  0  0  0  0  0
   15.6366   10.6349    0.5263 C   0  0  0  0  0  0  0  0  0  0  0  0
   12.5681   10.9699    3.0972 H   0  0  0  0  0  0  0  0  0  0  0  0
   11.4364   10.4429    1.9357 H   0  0  0  0  0  0  0  0  0  0  0  0
   20.2490   10.0264    3.1345 C   0  0  0  0  0  0  0  0  0  0  0  0
   19.0449    9.4780    3.6660 O   0  0  0  0  0  0  0  0  0  0  0  0
   19.1220    8.1347    4.5802 S   0  0  0  0  0  0  0  0  0  0  0  0
   20.4107    8.1033    5.2436 O   0  0  0  0  0  0  0  0  0  0  0  0
   18.6792    7.0039    3.8058 O   0  0  0  0  0  0  0  0  0  0  0  0
   16.6889    8.7188    5.6180 C   0  0  0  0  0  0  0  0  0  0  0  0
   16.1373    8.7021    4.5234 O   0  0  0  0  0  0  0  0  0  0  0  0
   18.0462    8.4165    5.8057 N   0  0  0  0  0  0  0  0  0  0  0  0
   18.3816    8.3687    6.7300 H   0  0  0  0  0  0  0  0  0  0  0  0
   15.9291    9.0443    6.9325 C   0  0  0  0  0  0  0  0  0  0  0  0
   16.2222    8.0057    7.9437 N   0  0  0  0  0  0  0  0  0  0  0  0
   15.8886    7.1017    7.6092 H   0  0  0  0  0  0  0  0  0  0  0  0
   15.7513    8.2396    8.8178 H   0  0  0  0  0  0  0  0  0  0  0  0
   13.6120    8.1195    7.3675 C   0  0  0  0  0  0  0  0  0  0  0  0
   14.3992    9.2733    6.7142 C   0  0  0  0  0  0  0  0  0  0  0  0
   13.9584   10.5909    7.3951 C   0  0  0  0  0  0  0  0  0  0  0  0
   14.0045    9.3384    5.2248 C   0  0  0  0  0  0  0  0  0  0  0  0
 36 37  1  0
 37 38  1  0
 37 39  1  0
 37 32  1  0
 32 33  1  0
 32 28  1  0
 28 29  2  0
 28 30  1  0
 30 25  1  0
 25 26  2  0
 25 27  2  0
 25 24  1  0
 24 23  1  0
  1 23  1  0
  1  2  1  0
  2  3  1  0
  3 10  1  0
 10 11  1  0
 11 12  2  0
 12 13  1  0
 13 14  2  0
 14 15  1  0
 14 16  1  0
 16 17  2  0
 17 18  1  0
 17 19  1  0
 19 20  2  0
  3  4  1  0
  4  5  1  0
  4  6  1  0
  6  7  1  0
  6  1  1  0
 20 10  1  0
 20 13  1  0
 33 34  1  0
 33 35  1  0
 30 31  1  0
 15 21  1  0
 15 22  1  0
  5  8  1  0
  7  9  1  0
M  END
> <minimizedAffinity>
-9.78639

> <CNNscore>
0.0692546964

> <CNNaffinity>
5.0316443443

> <CNN_VS>
0.3484649956

> <CNNaffinity_variance>
1.1928392649

$$$$



 39 41  0  0  0  0  0  0  0  0999 V2000
   17.8132   10.4671    2.7196 C   0  0  0  0  0  0  0  0  0  0  0  0
   18.1940    9.9257    1.4394 O   0  0  0  0  0  0  0  0  0  0  0  0
   18.3005   11.0049    0.4737 C   0  0  0  0  0  0  0  0  0  0  0  0
   18.1930   12.3084    1.2749 C   0  0  0  0  0  0  0  0  0  0  0  0
   19.4946   12.7508    1.7005 O   0  0  0  0  0  0  0  0  0  0  0  0
   17.3422   11.8924    2.4598 C   0  0  0  0  0  0  0  0  0  0  0  0
   17.5578   12.7223    3.5878 O   0  0  0  0  0  0  0  0  0  0  0  0
   19.9237   12.0475    2.2127 H   0  0  0  0  0  0  0  0  0  0  0  0
   18.4978   12.7057    3.8265 H   0  0  0  0  0  0  0  0  0  0  0  0
   17.2808   10.8000   -0.5433 N   0  0  0  0  0  0  0  0  0  0  0  0
   17.4697   10.8317   -1.9029 C   0  0  0  0  0  0  0  0  0  0  0  0
   16.3476   10.6491   -2.5651 N   0  0  0  0  0  0  0  0  0  0  0  0
   15.3768   10.5563   -1.5944 C   0  0  0  0  0  0  0  0  0  0  0  0
   13.9834   10.3871   -1.6608 C   0  0  0  0  0  0  0  0  0  0  0  0
   13.2953   10.2998   -2.8542 N   0  0  0  0  0  0  0  0  0  0  0  0
   13.2856   10.2947   -0.5093 N   0  0  0  0  0  0  0  0  0  0  0  0
   13.9648   10.4142    0.6463 C   0  0  0  0  0  0  0  0  0  0  0  0
   13.0259   10.2753    2.0687 Cl  0  0  0  0  0  0  0  0  0  0  0  0
   15.2859   10.5907    0.8436 N   0  0  0  0  0  0  0  0  0  0  0  0
   15.9358   10.6484   -0.3299 C   0  0  0  0  0  0  0  0  0  0  0  0
   13.7808   10.3642   -3.7083 H   0  0  0  0  0  0  0  0  0  0  0  0
   12.3189   10.1732   -2.8514 H   0  0  0  0  0  0  0  0  0  0  0  0
   16.7022    9.6207    3.3473 C   0  0  0  0  0  0  0  0  0  0  0  0
   16.1675   10.2200    4.5254 O   0  0  0  0  0  0  0  0  0  0  0  0
   15.7392    9.2691    5.7737 S   0  0  0  0  0  0  0  0  0  0  0  0
   16.9017    8.5123    6.1953 O   0  0  0  0  0  0  0  0  0  0  0  0
   14.5095    8.5894    5.4565 O   0  0  0  0  0  0  0  0  0  0  0  0
   15.3812    9.9593    8.3686 C   0  0  0  0  0  0  0  0  0  0  0  0
   15.5879    8.8216    8.7754 O   0  0  0  0  0  0  0  0  0  0  0  0
   15.4764   10.3279    7.0180 N   0  0  0  0  0  0  0  0  0  0  0  0
   15.3804   11.2821    6.7954 H   0  0  0  0  0  0  0  0  0  0  0  0
   15.0233   11.1349    9.3179 C   0  0  0  0  0  0  0  0  0  0  0  0
   16.0288   11.2217   10.3989 N   0  0  0  0  0  0  0  0  0  0  0  0
   16.0113   10.3631   10.9493 H   0  0  0  0  0  0  0  0  0  0  0  0
   15.8128   12.0161   11.0012 H   0  0  0  0  0  0  0  0  0  0  0  0
   13.5247   11.5221   11.3224 C   0  0  0  0  0  0  0  0  0  0  0  0
   13.5558   11.0670    9.8494 C   0  0  0  0  0  0  0  0  0  0  0  0
   12.6539   12.0281    9.0389 C   0  0  0  0  0  0  0  0  0  0  0  0
   12.9507    9.6505    9.7737 C   0  0  0  0  0  0  0  0  0  0  0  0
 36 37  1  0
 37 38  1  0
 37 39  1  0
 37 32  1  0
 32 33  1  0
 32 28  1  0
 28 29  2  0
 28 30  1  0
 30 25  1  0
 25 26  2  0
 25 27  2  0
 25 24  1  0
 24 23  1  0
  1 23  1  0
  1  2  1  0
  2  3  1  0
  3 10  1  0
 10 11  1  0
 11 12  2  0
 12 13  1  0
 13 14  2  0
 14 15  1  0
 14 16  1  0
 16 17  2  0
 17 18  1  0
 17 19  1  0
 19 20  2  0
  3  4  1  0
  4  5  1  0
  4  6  1  0
  6  7  1  0
  6  1  1  0
 20 10  1  0
 20 13  1  0
 33 34  1  0
 33 35  1  0
 30 31  1  0
 15 21  1  0
 15 22  1  0
  5  8  1  0
  7  9  1  0
M  END
> <minimizedAffinity>
-9.93787

> <CNNscore>
0.0678089708

> <CNNaffinity>
5.5560135841

> <CNN_VS>
0.3767475486

> <CNNaffinity_variance>
0.4206688404

$$$$



 39 41  0  0  0  0  0  0  0  0999 V2000
   21.2699    9.4753    4.4419 C   0  0  0  0  0  0  0  0  0  0  0  0
   21.6623    9.1172    5.7816 O   0  0  0  0  0  0  0  0  0  0  0  0
   23.1047    9.2287    5.9059 C   0  0  0  0  0  0  0  0  0  0  0  0
   23.5933    9.9117    4.6224 C   0  0  0  0  0  0  0  0  0  0  0  0
   23.6110   11.3416    4.7840 O   0  0  0  0  0  0  0  0  0  0  0  0
   22.5460    9.4885    3.6100 C   0  0  0  0  0  0  0  0  0  0  0  0
   22.4502   10.4005    2.5299 O   0  0  0  0  0  0  0  0  0  0  0  0
   22.7277   11.6488    5.0416 H   0  0  0  0  0  0  0  0  0  0  0  0
   22.2494   11.2860    2.8712 H   0  0  0  0  0  0  0  0  0  0  0  0
   23.6380    7.8992    6.1590 N   0  0  0  0  0  0  0  0  0  0  0  0
   24.6031    7.5712    7.0790 C   0  0  0  0  0  0  0  0  0  0  0  0
   24.9056    6.2913    7.0473 N   0  0  0  0  0  0  0  0  0  0  0  0
   24.1492    5.7759    6.0198 C   0  0  0  0  0  0  0  0  0  0  0  0
   24.0449    4.4847    5.4752 C   0  0  0  0  0  0  0  0  0  0  0  0
   24.7917    3.4168    5.9306 N   0  0  0  0  0  0  0  0  0  0  0  0
   23.1695    4.2735    4.4699 N   0  0  0  0  0  0  0  0  0  0  0  0
   22.4719    5.3303    4.0142 C   0  0  0  0  0  0  0  0  0  0  0  0
   21.3711    4.9944    2.7495 Cl  0  0  0  0  0  0  0  0  0  0  0  0
   22.4897    6.6094    4.4372 N   0  0  0  0  0  0  0  0  0  0  0  0
   23.3544    6.7594    5.4535 C   0  0  0  0  0  0  0  0  0  0  0  0
   25.4373    3.5443    6.6628 H   0  0  0  0  0  0  0  0  0  0  0  0
   24.6787    2.5277    5.5231 H   0  0  0  0  0  0  0  0  0  0  0  0
   20.2598    8.4634    3.8937 C   0  0  0  0  0  0  0  0  0  0  0  0
   19.8351    8.7870    2.5716 O   0  0  0  0  0  0  0  0  0  0  0  0
   18.9548   10.1333    2.3294 S   0  0  0  0  0  0  0  0  0  0  0  0
   19.8616   11.2391    2.0918 O   0  0  0  0  0  0  0  0  0  0  0  0
   17.9441   10.2332    3.3508 O   0  0  0  0  0  0  0  0  0  0  0  0
   17.6882   10.9021    0.0617 C   0  0  0  0  0  0  0  0  0  0  0  0
   17.7897   12.0954    0.3230 O   0  0  0  0  0  0  0  0  0  0  0  0
   18.2306    9.8854    0.8623 N   0  0  0  0  0  0  0  0  0  0  0  0
   18.1766    8.9609    0.5282 H   0  0  0  0  0  0  0  0  0  0  0  0
   16.9722   10.3834   -1.2149 C   0  0  0  0  0  0  0  0  0  0  0  0
   17.4765   11.1153   -2.3970 N   0  0  0  0  0  0  0  0  0  0  0  0
   17.2586   12.1071   -2.3012 H   0  0  0  0  0  0  0  0  0  0  0  0
   17.0318   10.7491   -3.2387 H   0  0  0  0  0  0  0  0  0  0  0  0
   14.8387    9.0889   -1.6461 C   0  0  0  0  0  0  0  0  0  0  0  0
   15.4147   10.4092   -1.0961 C   0  0  0  0  0  0  0  0  0  0  0  0
   14.9987   10.5234    0.3898 C   0  0  0  0  0  0  0  0  0  0  0  0
   14.7686   11.5736   -1.8740 C   0  0  0  0  0  0  0  0  0  0  0  0
 36 37  1  0
 37 38  1  0
 37 39  1  0
 37 32  1  0
 32 33  1  0
 32 28  1  0
 28 29  2  0
 28 30  1  0
 30 25  1  0
 25 26  2  0
 25 27  2  0
 25 24  1  0
 24 23  1  0
  1 23  1  0
  1  2  1  0
  2  3  1  0
  3 10  1  0
 10 11  1  0
 11 12  2  0
 12 13  1  0
 13 14  2  0
 14 15  1  0
 14 16  1  0
 16 17  2  0
 17 18  1  0
 17 19  1  0
 19 20  2  0
  3  4  1  0
  4  5  1  0
  4  6  1  0
  6  7  1  0
  6  1  1  0
 20 10  1  0
 20 13  1  0
 33 34  1  0
 33 35  1  0
 30 31  1  0
 15 21  1  0
 15 22  1  0
  5  8  1  0
  7  9  1  0
M  END
> <minimizedAffinity>
-8.59457

> <CNNscore>
0.0634099916

> <CNNaffinity>
4.7191987038

> <CNN_VS>
0.2992443442

> <CNNaffinity_variance>
1.0130131245

$$$$



 39 41  0  0  0  0  0  0  0  0999 V2000
   19.3883   10.6478    2.2284 C   0  0  0  0  0  0  0  0  0  0  0  0
   20.3792   11.3733    2.9826 O   0  0  0  0  0  0  0  0  0  0  0  0
   21.7039   10.9269    2.5897 C   0  0  0  0  0  0  0  0  0  0  0  0
   21.5066   10.0315    1.3601 C   0  0  0  0  0  0  0  0  0  0  0  0
   21.5653   10.8101    0.1512 O   0  0  0  0  0  0  0  0  0  0  0  0
   20.1141    9.4735    1.5843 C   0  0  0  0  0  0  0  0  0  0  0  0
   19.4943    9.0847    0.3709 O   0  0  0  0  0  0  0  0  0  0  0  0
   20.9040   11.5187    0.1906 H   0  0  0  0  0  0  0  0  0  0  0  0
   19.4593    9.8438   -0.2320 H   0  0  0  0  0  0  0  0  0  0  0  0
   22.3246   10.2929    3.7425 N   0  0  0  0  0  0  0  0  0  0  0  0
   22.9309   10.9332    4.7950 C   0  0  0  0  0  0  0  0  0  0  0  0
   23.4350   10.0876    5.6676 N   0  0  0  0  0  0  0  0  0  0  0  0
   23.2007    8.8434    5.1284 C   0  0  0  0  0  0  0  0  0  0  0  0
   23.5196    7.5463    5.5646 C   0  0  0  0  0  0  0  0  0  0  0  0
   24.2187    7.2978    6.7287 N   0  0  0  0  0  0  0  0  0  0  0  0
   23.1170    6.4945    4.8208 N   0  0  0  0  0  0  0  0  0  0  0  0
   22.4651    6.7524    3.6721 C   0  0  0  0  0  0  0  0  0  0  0  0
   21.9709    5.3781    2.7827 Cl  0  0  0  0  0  0  0  0  0  0  0  0
   22.1130    7.9393    3.1403 N   0  0  0  0  0  0  0  0  0  0  0  0
   22.5120    8.9487    3.9308 C   0  0  0  0  0  0  0  0  0  0  0  0
   24.5236    8.0475    7.2892 H   0  0  0  0  0  0  0  0  0  0  0  0
   24.4123    6.3710    6.9983 H   0  0  0  0  0  0  0  0  0  0  0  0
   18.2632   10.1678    3.1496 C   0  0  0  0  0  0  0  0  0  0  0  0
   17.1901    9.5709    2.4250 O   0  0  0  0  0  0  0  0  0  0  0  0
   15.6746    9.7037    3.0008 S   0  0  0  0  0  0  0  0  0  0  0  0
   14.8680    8.6481    2.4203 O   0  0  0  0  0  0  0  0  0  0  0  0
   15.2466   11.0758    2.9072 O   0  0  0  0  0  0  0  0  0  0  0  0
   15.5707   10.1444    5.6715 C   0  0  0  0  0  0  0  0  0  0  0  0
   15.1375   11.2836    5.5403 O   0  0  0  0  0  0  0  0  0  0  0  0
   15.8077    9.2772    4.5941 N   0  0  0  0  0  0  0  0  0  0  0  0
   16.0714    8.3514    4.8004 H   0  0  0  0  0  0  0  0  0  0  0  0
   15.8728    9.5194    7.0606 C   0  0  0  0  0  0  0  0  0  0  0  0
   16.7718    8.3568    6.8952 N   0  0  0  0  0  0  0  0  0  0  0  0
   16.3076    7.6457    6.3302 H   0  0  0  0  0  0  0  0  0  0  0  0
   16.9982    7.9690    7.8110 H   0  0  0  0  0  0  0  0  0  0  0  0
   14.1401   10.4334    8.6655 C   0  0  0  0  0  0  0  0  0  0  0  0
   14.5821    9.1855    7.8750 C   0  0  0  0  0  0  0  0  0  0  0  0
   13.4322    8.8044    6.9124 C   0  0  0  0  0  0  0  0  0  0  0  0
   14.7819    8.0305    8.8772 C   0  0  0  0  0  0  0  0  0  0  0  0
 36 37  1  0
 37 38  1  0
 37 39  1  0
 37 32  1  0
 32 33  1  0
 32 28  1  0
 28 29  2  0
 28 30  1  0
 30 25  1  0
 25 26  2  0
 25 27  2  0
 25 24  1  0
 24 23  1  0
  1 23  1  0
  1  2  1  0
  2  3  1  0
  3 10  1  0
 10 11  1  0
 11 12  2  0
 12 13  1  0
 13 14  2  0
 14 15  1  0
 14 16  1  0
 16 17  2  0
 17 18  1  0
 17 19  1  0
 19 20  2  0
  3  4  1  0
  4  5  1  0
  4  6  1  0
  6  7  1  0
  6  1  1  0
 20 10  1  0
 20 13  1  0
 33 34  1  0
 33 35  1  0
 30 31  1  0
 15 21  1  0
 15 22  1  0
  5  8  1  0
  7  9  1  0
M  END
> <minimizedAffinity>
-9.02738

> <CNNscore>
0.0506544113

> <CNNaffinity>
5.0135459900

> <CNN_VS>
0.2539582253

> <CNNaffinity_variance>
0.4696490765

$$$$



 39 41  0  0  0  0  0  0  0  0999 V2000
   18.4579    8.4681    3.8896 C   0  0  0  0  0  0  0  0  0  0  0  0
   19.7196    8.0629    3.3230 O   0  0  0  0  0  0  0  0  0  0  0  0
   20.5258    7.4276    4.3500 C   0  0  0  0  0  0  0  0  0  0  0  0
   19.6040    7.2380    5.5613 C   0  0  0  0  0  0  0  0  0  0  0  0
   18.9372    5.9643    5.4965 O   0  0  0  0  0  0  0  0  0  0  0  0
   18.6186    8.3801    5.4019 C   0  0  0  0  0  0  0  0  0  0  0  0
   17.3822    8.1096    6.0388 O   0  0  0  0  0  0  0  0  0  0  0  0
   18.4511    5.8960    4.6599 H   0  0  0  0  0  0  0  0  0  0  0  0
   17.0071    7.2895    5.6816 H   0  0  0  0  0  0  0  0  0  0  0  0
   21.7027    8.2533    4.5722 N   0  0  0  0  0  0  0  0  0  0  0  0
   21.7476    9.6256    4.5619 C   0  0  0  0  0  0  0  0  0  0  0  0
   22.9651   10.0846    4.7562 N   0  0  0  0  0  0  0  0  0  0  0  0
   23.7566    8.9617    4.8346 C   0  0  0  0  0  0  0  0  0  0  0  0
   25.1404    8.7878    5.0065 C   0  0  0  0  0  0  0  0  0  0  0  0
   26.0209    9.8455    5.1134 N   0  0  0  0  0  0  0  0  0  0  0  0
   25.6321    7.5332    5.0813 N   0  0  0  0  0  0  0  0  0  0  0  0
   24.7668    6.5118    4.9428 C   0  0  0  0  0  0  0  0  0  0  0  0
   25.4499    4.9486    5.0601 Cl  0  0  0  0  0  0  0  0  0  0  0  0
   23.4321    6.5445    4.7617 N   0  0  0  0  0  0  0  0  0  0  0  0
   22.9913    7.8122    4.7218 C   0  0  0  0  0  0  0  0  0  0  0  0
   25.6877   10.7705    5.0621 H   0  0  0  0  0  0  0  0  0  0  0  0
   26.9820    9.6749    5.2410 H   0  0  0  0  0  0  0  0  0  0  0  0
   18.1089    9.8928    3.4500 C   0  0  0  0  0  0  0  0  0  0  0  0
   17.3867    9.9166    2.2208 O   0  0  0  0  0  0  0  0  0  0  0  0
   18.0628   10.6173    0.9179 S   0  0  0  0  0  0  0  0  0  0  0  0
   19.3631   10.0161    0.6952 O   0  0  0  0  0  0  0  0  0  0  0  0
   17.9362   12.0481    1.0254 O   0  0  0  0  0  0  0  0  0  0  0  0
   16.6356   10.9007   -1.3669 C   0  0  0  0  0  0  0  0  0  0  0  0
   16.9021   12.0926   -1.4715 O   0  0  0  0  0  0  0  0  0  0  0  0
   17.1486   10.0788   -0.3520 N   0  0  0  0  0  0  0  0  0  0  0  0
   16.9511    9.1154   -0.3986 H   0  0  0  0  0  0  0  0  0  0  0  0
   15.7210   10.1564   -2.3773 C   0  0  0  0  0  0  0  0  0  0  0  0
   15.7636   10.8464   -3.6847 N   0  0  0  0  0  0  0  0  0  0  0  0
   15.4025   11.7946   -3.5807 H   0  0  0  0  0  0  0  0  0  0  0  0
   15.1909   10.3363   -4.3572 H   0  0  0  0  0  0  0  0  0  0  0  0
   13.7594   11.2506   -1.2075 C   0  0  0  0  0  0  0  0  0  0  0  0
   14.2682    9.9417   -1.8443 C   0  0  0  0  0  0  0  0  0  0  0  0
   13.3214    9.5870   -3.0155 C   0  0  0  0  0  0  0  0  0  0  0  0
   14.1722    8.8254   -0.7846 C   0  0  0  0  0  0  0  0  0  0  0  0
 36 37  1  0
 37 38  1  0
 37 39  1  0
 37 32  1  0
 32 33  1  0
 32 28  1  0
 28 29  2  0
 28 30  1  0
 30 25  1  0
 25 26  2  0
 25 27  2  0
 25 24  1  0
 24 23  1  0
  1 23  1  0
  1  2  1  0
  2  3  1  0
  3 10  1  0
 10 11  1  0
 11 12  2  0
 12 13  1  0
 13 14  2  0
 14 15  1  0
 14 16  1  0
 16 17  2  0
 17 18  1  0
 17 19  1  0
 19 20  2  0
  3  4  1  0
  4  5  1  0
  4  6  1  0
  6  7  1  0
  6  1  1  0
 20 10  1  0
 20 13  1  0
 33 34  1  0
 33 35  1  0
 30 31  1  0
 15 21  1  0
 15 22  1  0
  5  8  1  0
  7  9  1  0
M  END
> <minimizedAffinity>
-8.52454

> <CNNscore>
0.0461024605

> <CNNaffinity>
4.3396534920

> <CNN_VS>
0.2000686973

> <CNNaffinity_variance>
0.5721377730

$$$$
