


 39 41  0  0  0  0  0  0  0  0999 V2000
   13.7085   10.3002    2.2669 C   0  0  0  0  0  0  0  0  0  0  0  0
   13.3075   10.6548    0.9326 O   0  0  0  0  0  0  0  0  0  0  0  0
   13.5022    9.4995    0.0749 C   0  0  0  0  0  0  0  0  0  0  0  0
   14.0819    8.3777    0.9549 C   0  0  0  0  0  0  0  0  0  0  0  0
   13.0352    7.5336    1.4648 O   0  0  0  0  0  0  0  0  0  0  0  0
   14.6983    9.1539    2.1045 C   0  0  0  0  0  0  0  0  0  0  0  0
   14.8536    8.3563    3.2682 O   0  0  0  0  0  0  0  0  0  0  0  0
   12.3928    8.0734    1.9516 H   0  0  0  0  0  0  0  0  0  0  0  0
   13.9932    7.9902    3.5264 H   0  0  0  0  0  0  0  0  0  0  0  0
   14.3484    9.8982   -1.0366 N   0  0  0  0  0  0  0  0  0  0  0  0
   15.6175   10.4221   -0.9644 C   0  0  0  0  0  0  0  0  0  0  0  0
   16.0967   10.7219   -2.1544 N   0  0  0  0  0  0  0  0  0  0  0  0
   15.0820   10.4046   -3.0335 C   0  0  0  0  0  0  0  0  0  0  0  0
   14.9683   10.5067   -4.4283 C   0  0  0  0  0  0  0  0  0  0  0  0
   15.9858   10.9950   -5.2380 N   0  0  0  0  0  0  0  0  0  0  0  0
   13.8099   10.1283   -5.0115 N   0  0  0  0  0  0  0  0  0  0  0  0
   12.8121    9.6491   -4.2323 C   0  0  0  0  0  0  0  0  0  0  0  0
   11.2164    9.1069   -5.1315 Br  0  0  0  0  0  0  0  0  0  0  0  0
   12.8156    9.5040   -2.8893 N   0  0  0  0  0  0  0  0  0  0  0  0
   13.9813    9.9039   -2.3571 C   0  0  0  0  0  0  0  0  0  0  0  0
   16.8400   11.2777   -4.8384 H   0  0  0  0  0  0  0  0  0  0  0  0
   15.8528   11.0584   -6.2114 H   0  0  0  0  0  0  0  0  0  0  0  0
   14.3233   11.5080    2.9775 C   0  0  0  0  0  0  0  0  0  0  0  0
   15.6880   11.7229    2.6219 O   0  0  0  0  0  0  0  0  0  0  0  0
   16.8450   11.4085    3.7174 S   0  0  0  0  0  0  0  0  0  0  0  0
   17.6229   12.6160    3.8729 O   0  0  0  0  0  0  0  0  0  0  0  0
   17.4420   10.1476    3.3549 O   0  0  0  0  0  0  0  0  0  0  0  0
   16.0375   10.0563    5.8907 C   0  0  0  0  0  0  0  0  0  0  0  0
   16.7567    9.1073    5.6144 O   0  0  0  0  0  0  0  0  0  0  0  0
   15.9411   11.1978    5.0852 N   0  0  0  0  0  0  0  0  0  0  0  0
   15.3076   11.9053    5.3447 H   0  0  0  0  0  0  0  0  0  0  0  0
   15.2029   10.1150    7.1975 C   0  0  0  0  0  0  0  0  0  0  0  0
   16.1033    9.8980    8.3544 N   0  0  0  0  0  0  0  0  0  0  0  0
   16.5273    8.9728    8.2864 H   0  0  0  0  0  0  0  0  0  0  0  0
   15.5671    9.9634    9.2196 H   0  0  0  0  0  0  0  0  0  0  0  0
   14.4818    7.7014    7.4861 C   0  0  0  0  0  0  0  0  0  0  0  0
   13.9879    9.1348    7.1887 C   0  0  0  0  0  0  0  0  0  0  0  0
   12.9824    9.5173    8.2952 C   0  0  0  0  0  0  0  0  0  0  0  0
   13.2451    9.1194    5.8387 C   0  0  0  0  0  0  0  0  0  0  0  0
 36 37  1  0
 37 38  1  0
 37 39  1  0
 37 32  1  0
 32 33  1  0
 32 28  1  0
 28 29  2  0
 28 30  1  0
 30 25  1  0
 25 26  2  0
 25 27  2  0
 25 24  1  0
 24 23  1  0
  1 23  1  0
  1  2  1  0
  2  3  1  0
  3 10  1  0
 10 11  1  0
 11 12  2  0
 12 13  1  0
 13 14  2  0
 14 15  1  0
 14 16  1  0
 16 17  2  0
 17 18  1  0
 17 19  1  0
 19 20  2  0
  3  4  1  0
  4  5  1  0
  4  6  1  0
  6  7  1  0
  6  1  1  0
 20 10  1  0
 20 13  1  0
 33 34  1  0
 33 35  1  0
 30 31  1  0
 15 21  1  0
 15 22  1  0
  5  8  1  0
  7  9  1  0
M  END
> <minimizedAffinity>
-8.62201

> <CNNscore>
0.7203780413

> <CNNaffinity>
6.3540244102

> <CNN_VS>
4.5772995949

> <CNNaffinity_variance>
0.2780230045

$$$$



 39 41  0  0  0  0  0  0  0  0999 V2000
   18.7600   11.8915    1.3314 C   0  0  0  0  0  0  0  0  0  0  0  0
   19.4725   11.8921    2.5800 O   0  0  0  0  0  0  0  0  0  0  0  0
   20.8838   11.6961    2.3008 C   0  0  0  0  0  0  0  0  0  0  0  0
   21.0246   11.5457    0.7755 C   0  0  0  0  0  0  0  0  0  0  0  0
   21.3156   12.8127    0.1604 O   0  0  0  0  0  0  0  0  0  0  0  0
   19.6325   11.1021    0.3641 C   0  0  0  0  0  0  0  0  0  0  0  0
   19.3663   11.3705   -1.0039 O   0  0  0  0  0  0  0  0  0  0  0  0
   20.6244   13.4518    0.3939 H   0  0  0  0  0  0  0  0  0  0  0  0
   19.4876   12.3171   -1.1773 H   0  0  0  0  0  0  0  0  0  0  0  0
   21.3425   10.5515    3.0688 N   0  0  0  0  0  0  0  0  0  0  0  0
   20.6546    9.3851    3.3074 C   0  0  0  0  0  0  0  0  0  0  0  0
   21.3325    8.5609    4.0798 N   0  0  0  0  0  0  0  0  0  0  0  0
   22.4985    9.2352    4.3778 C   0  0  0  0  0  0  0  0  0  0  0  0
   23.6128    8.9027    5.1631 C   0  0  0  0  0  0  0  0  0  0  0  0
   23.7317    7.6939    5.8368 N   0  0  0  0  0  0  0  0  0  0  0  0
   24.6105    9.8056    5.2839 N   0  0  0  0  0  0  0  0  0  0  0  0
   24.5061   10.9863    4.6302 C   0  0  0  0  0  0  0  0  0  0  0  0
   25.9689   12.1991    4.8255 Br  0  0  0  0  0  0  0  0  0  0  0  0
   23.4872   11.4056    3.8486 N   0  0  0  0  0  0  0  0  0  0  0  0
   22.5180   10.4802    3.7701 C   0  0  0  0  0  0  0  0  0  0  0  0
   23.0190    7.0185    5.7657 H   0  0  0  0  0  0  0  0  0  0  0  0
   24.5288    7.5125    6.3855 H   0  0  0  0  0  0  0  0  0  0  0  0
   17.3731   11.2698    1.5093 C   0  0  0  0  0  0  0  0  0  0  0  0
   17.0584   11.0020    2.8746 O   0  0  0  0  0  0  0  0  0  0  0  0
   15.7916   11.7590    3.5528 S   0  0  0  0  0  0  0  0  0  0  0  0
   14.6045   11.2928    2.8740 O   0  0  0  0  0  0  0  0  0  0  0  0
   16.1303   13.1572    3.6423 O   0  0  0  0  0  0  0  0  0  0  0  0
   15.9064    9.7307    5.3068 C   0  0  0  0  0  0  0  0  0  0  0  0
   15.9362    8.9040    4.4069 O   0  0  0  0  0  0  0  0  0  0  0  0
   15.8061   11.1076    5.0720 N   0  0  0  0  0  0  0  0  0  0  0  0
   15.7415   11.7139    5.8450 H   0  0  0  0  0  0  0  0  0  0  0  0
   16.0378    9.3380    6.8022 C   0  0  0  0  0  0  0  0  0  0  0  0
   16.8152    8.0803    6.9035 N   0  0  0  0  0  0  0  0  0  0  0  0
   16.3181    7.3333    6.4186 H   0  0  0  0  0  0  0  0  0  0  0  0
   16.9307    7.8302    7.8856 H   0  0  0  0  0  0  0  0  0  0  0  0
   14.7405    8.2007    8.6603 C   0  0  0  0  0  0  0  0  0  0  0  0
   14.6609    9.2545    7.5332 C   0  0  0  0  0  0  0  0  0  0  0  0
   14.3189   10.6092    8.1888 C   0  0  0  0  0  0  0  0  0  0  0  0
   13.5077    8.8649    6.5883 C   0  0  0  0  0  0  0  0  0  0  0  0
 36 37  1  0
 37 38  1  0
 37 39  1  0
 37 32  1  0
 32 33  1  0
 32 28  1  0
 28 29  2  0
 28 30  1  0
 30 25  1  0
 25 26  2  0
 25 27  2  0
 25 24  1  0
 24 23  1  0
  1 23  1  0
  1  2  1  0
  2  3  1  0
  3 10  1  0
 10 11  1  0
 11 12  2  0
 12 13  1  0
 13 14  2  0
 14 15  1  0
 14 16  1  0
 16 17  2  0
 17 18  1  0
 17 19  1  0
 19 20  2  0
  3  4  1  0
  4  5  1  0
  4  6  1  0
  6  7  1  0
  6  1  1  0
 20 10  1  0
 20 13  1  0
 33 34  1  0
 33 35  1  0
 30 31  1  0
 15 21  1  0
 15 22  1  0
  5  8  1  0
  7  9  1  0
M  END
> <minimizedAffinity>
-9.43553

> <CNNscore>
0.1887667179

> <CNNaffinity>
5.5432868004

> <CNN_VS>
1.0463880301

> <CNNaffinity_variance>
0.1115672365

$$$$



 39 41  0  0  0  0  0  0  0  0999 V2000
   13.7559   10.2315    2.4620 C   0  0  0  0  0  0  0  0  0  0  0  0
   12.9453   10.4807    1.3011 O   0  0  0  0  0  0  0  0  0  0  0  0
   12.9780    9.2985    0.4588 C   0  0  0  0  0  0  0  0  0  0  0  0
   13.8918    8.2743    1.1551 C   0  0  0  0  0  0  0  0  0  0  0  0
   13.1247    7.3816    1.9814 O   0  0  0  0  0  0  0  0  0  0  0  0
   14.7507    9.1572    2.0421 C   0  0  0  0  0  0  0  0  0  0  0  0
   15.3167    8.4388    3.1274 O   0  0  0  0  0  0  0  0  0  0  0  0
   12.6110    7.8964    2.6234 H   0  0  0  0  0  0  0  0  0  0  0  0
   14.6089    8.0224    3.6437 H   0  0  0  0  0  0  0  0  0  0  0  0
   13.4151    9.6995   -0.8674 N   0  0  0  0  0  0  0  0  0  0  0  0
   12.6864    9.6418   -2.0319 C   0  0  0  0  0  0  0  0  0  0  0  0
   13.3879   10.0387   -3.0739 N   0  0  0  0  0  0  0  0  0  0  0  0
   14.6347   10.3397   -2.5659 C   0  0  0  0  0  0  0  0  0  0  0  0
   15.8191   10.7947   -3.1652 C   0  0  0  0  0  0  0  0  0  0  0  0
   15.9302   11.0506   -4.5259 N   0  0  0  0  0  0  0  0  0  0  0  0
   16.9081   10.9775   -2.3868 N   0  0  0  0  0  0  0  0  0  0  0  0
   16.8107   10.7330   -1.0590 C   0  0  0  0  0  0  0  0  0  0  0  0
   18.3832   11.0422   -0.0196 Br  0  0  0  0  0  0  0  0  0  0  0  0
   15.7259   10.2997   -0.3805 N   0  0  0  0  0  0  0  0  0  0  0  0
   14.6762   10.1223   -1.1981 C   0  0  0  0  0  0  0  0  0  0  0  0
   15.1518   10.9254   -5.1155 H   0  0  0  0  0  0  0  0  0  0  0  0
   16.7874   11.3572   -4.9007 H   0  0  0  0  0  0  0  0  0  0  0  0
   14.4438   11.5199    2.9185 C   0  0  0  0  0  0  0  0  0  0  0  0
   15.8254   11.5635    2.5662 O   0  0  0  0  0  0  0  0  0  0  0  0
   16.9407   11.4193    3.7379 S   0  0  0  0  0  0  0  0  0  0  0  0
   17.5926   12.7024    3.8648 O   0  0  0  0  0  0  0  0  0  0  0  0
   17.6725   10.2043    3.4809 O   0  0  0  0  0  0  0  0  0  0  0  0
   16.0949   10.0782    5.9035 C   0  0  0  0  0  0  0  0  0  0  0  0
   16.8729    9.1608    5.6862 O   0  0  0  0  0  0  0  0  0  0  0  0
   15.9820   11.1946    5.0656 N   0  0  0  0  0  0  0  0  0  0  0  0
   15.3022   11.8749    5.2763 H   0  0  0  0  0  0  0  0  0  0  0  0
   15.1950   10.1245    7.1667 C   0  0  0  0  0  0  0  0  0  0  0  0
   16.0499   10.0094    8.3718 N   0  0  0  0  0  0  0  0  0  0  0  0
   16.5375    9.1136    8.3585 H   0  0  0  0  0  0  0  0  0  0  0  0
   15.4686   10.0678    9.2079 H   0  0  0  0  0  0  0  0  0  0  0  0
   13.4482    8.9955    5.7166 C   0  0  0  0  0  0  0  0  0  0  0  0
   14.0499    9.0639    7.1380 C   0  0  0  0  0  0  0  0  0  0  0  0
   14.6069    7.6642    7.4732 C   0  0  0  0  0  0  0  0  0  0  0  0
   12.9142    9.3869    8.1282 C   0  0  0  0  0  0  0  0  0  0  0  0
 36 37  1  0
 37 38  1  0
 37 39  1  0
 37 32  1  0
 32 33  1  0
 32 28  1  0
 28 29  2  0
 28 30  1  0
 30 25  1  0
 25 26  2  0
 25 27  2  0
 25 24  1  0
 24 23  1  0
  1 23  1  0
  1  2  1  0
  2  3  1  0
  3 10  1  0
 10 11  1  0
 11 12  2  0
 12 13  1  0
 13 14  2  0
 14 15  1  0
 14 16  1  0
 16 17  2  0
 17 18  1  0
 17 19  1  0
 19 20  2  0
  3  4  1  0
  4  5  1  0
  4  6  1  0
  6  7  1  0
  6  1  1  0
 20 10  1  0
 20 13  1  0
 33 34  1  0
 33 35  1  0
 30 31  1  0
 15 21  1  0
 15 22  1  0
  5  8  1  0
  7  9  1  0
M  END
> <minimizedAffinity>
-8.79042

> <CNNscore>
0.1787196100

> <CNNaffinity>
6.0063605309

> <CNN_VS>
1.0734543800

> <CNNaffinity_variance>
0.1994110346

$$$$



 39 41  0  0  0  0  0  0  0  0999 V2000
   18.4067    7.8739    4.0469 C   0  0  0  0  0  0  0  0  0  0  0  0
   19.3110    8.3518    3.0365 O   0  0  0  0  0  0  0  0  0  0  0  0
   20.6638    8.0037    3.4326 C   0  0  0  0  0  0  0  0  0  0  0  0
   20.5648    7.2836    4.7893 C   0  0  0  0  0  0  0  0  0  0  0  0
   20.4978    5.8584    4.6093 O   0  0  0  0  0  0  0  0  0  0  0  0
   19.2333    7.7799    5.3228 C   0  0  0  0  0  0  0  0  0  0  0  0
   18.6883    6.9075    6.3006 O   0  0  0  0  0  0  0  0  0  0  0  0
   19.7482    5.6401    4.0336 H   0  0  0  0  0  0  0  0  0  0  0  0
   18.5948    6.0183    5.9244 H   0  0  0  0  0  0  0  0  0  0  0  0
   21.4584    9.2197    3.4470 N   0  0  0  0  0  0  0  0  0  0  0  0
   21.2243   10.3702    2.7315 C   0  0  0  0  0  0  0  0  0  0  0  0
   22.1587   11.2767    2.9337 N   0  0  0  0  0  0  0  0  0  0  0  0
   23.0523   10.6759    3.7961 C   0  0  0  0  0  0  0  0  0  0  0  0
   24.2561   11.1117    4.3704 C   0  0  0  0  0  0  0  0  0  0  0  0
   24.7950   12.3704    4.1372 N   0  0  0  0  0  0  0  0  0  0  0  0
   24.9323   10.2631    5.1752 N   0  0  0  0  0  0  0  0  0  0  0  0
   24.4154    9.0344    5.4110 C   0  0  0  0  0  0  0  0  0  0  0  0
   25.4133    7.9021    6.5818 Br  0  0  0  0  0  0  0  0  0  0  0  0
   23.2696    8.5164    4.9175 N   0  0  0  0  0  0  0  0  0  0  0  0
   22.6422    9.3917    4.1163 C   0  0  0  0  0  0  0  0  0  0  0  0
   24.3225   13.0080    3.5546 H   0  0  0  0  0  0  0  0  0  0  0  0
   25.6496   12.6250    4.5545 H   0  0  0  0  0  0  0  0  0  0  0  0
   17.2161    8.8246    4.1895 C   0  0  0  0  0  0  0  0  0  0  0  0
   16.2673    8.6844    3.1336 O   0  0  0  0  0  0  0  0  0  0  0  0
   14.9913    9.6880    3.0845 S   0  0  0  0  0  0  0  0  0  0  0  0
   14.0595    9.1445    2.1233 O   0  0  0  0  0  0  0  0  0  0  0  0
   15.5093   11.0293    2.9835 O   0  0  0  0  0  0  0  0  0  0  0  0
   14.5753   10.3731    5.6460 C   0  0  0  0  0  0  0  0  0  0  0  0
   15.2939   11.3563    5.5395 O   0  0  0  0  0  0  0  0  0  0  0  0
   14.3573    9.4727    4.5958 N   0  0  0  0  0  0  0  0  0  0  0  0
   13.8026    8.6771    4.7650 H   0  0  0  0  0  0  0  0  0  0  0  0
   13.7832   10.0580    6.9425 C   0  0  0  0  0  0  0  0  0  0  0  0
   13.6796   11.2925    7.7559 N   0  0  0  0  0  0  0  0  0  0  0  0
   14.6139   11.6055    8.0194 H   0  0  0  0  0  0  0  0  0  0  0  0
   13.1354   11.1008    8.5970 H   0  0  0  0  0  0  0  0  0  0  0  0
   14.0522    9.0290    9.2442 C   0  0  0  0  0  0  0  0  0  0  0  0
   14.3791    8.8580    7.7438 C   0  0  0  0  0  0  0  0  0  0  0  0
   13.7402    7.5325    7.2785 C   0  0  0  0  0  0  0  0  0  0  0  0
   15.9083    8.7419    7.5928 C   0  0  0  0  0  0  0  0  0  0  0  0
 36 37  1  0
 37 38  1  0
 37 39  1  0
 37 32  1  0
 32 33  1  0
 32 28  1  0
 28 29  2  0
 28 30  1  0
 30 25  1  0
 25 26  2  0
 25 27  2  0
 25 24  1  0
 24 23  1  0
  1 23  1  0
  1  2  1  0
  2  3  1  0
  3 10  1  0
 10 11  1  0
 11 12  2  0
 12 13  1  0
 13 14  2  0
 14 15  1  0
 14 16  1  0
 16 17  2  0
 17 18  1  0
 17 19  1  0
 19 20  2  0
  3  4  1  0
  4  5  1  0
  4  6  1  0
  6  7  1  0
  6  1  1  0
 20 10  1  0
 20 13  1  0
 33 34  1  0
 33 35  1  0
 30 31  1  0
 15 21  1  0
 15 22  1  0
  5  8  1  0
  7  9  1  0
M  END
> <minimizedAffinity>
-9.13634

> <CNNscore>
0.1281654835

> <CNNaffinity>
5.3170833588

> <CNN_VS>
0.6814665794

> <CNNaffinity_variance>
0.2263994217

$$$$



 39 41  0  0  0  0  0  0  0  0999 V2000
   18.6689    8.6015    3.4808 C   0  0  0  0  0  0  0  0  0  0  0  0
   19.9599    8.3735    2.8907 O   0  0  0  0  0  0  0  0  0  0  0  0
   20.6615    7.3879    3.6935 C   0  0  0  0  0  0  0  0  0  0  0  0
   19.7317    7.0139    4.8616 C   0  0  0  0  0  0  0  0  0  0  0  0
   18.9460    5.8532    4.5397 O   0  0  0  0  0  0  0  0  0  0  0  0
   18.8186    8.2232    4.9487 C   0  0  0  0  0  0  0  0  0  0  0  0
   17.5914    7.9235    5.5955 O   0  0  0  0  0  0  0  0  0  0  0  0
   18.4468    6.0168    3.7242 H   0  0  0  0  0  0  0  0  0  0  0  0
   17.1500    7.1958    5.1302 H   0  0  0  0  0  0  0  0  0  0  0  0
   21.9388    7.9543    4.0913 N   0  0  0  0  0  0  0  0  0  0  0  0
   22.3416    9.2623    3.9594 C   0  0  0  0  0  0  0  0  0  0  0  0
   23.5779    9.4431    4.3771 N   0  0  0  0  0  0  0  0  0  0  0  0
   24.0041    8.1914    4.7702 C   0  0  0  0  0  0  0  0  0  0  0  0
   25.2213    7.7224    5.2873 C   0  0  0  0  0  0  0  0  0  0  0  0
   26.3146    8.5473    5.5184 N   0  0  0  0  0  0  0  0  0  0  0  0
   25.3430    6.4045    5.5585 N   0  0  0  0  0  0  0  0  0  0  0  0
   24.2832    5.5915    5.3389 C   0  0  0  0  0  0  0  0  0  0  0  0
   24.5217    3.7469    5.7737 Br  0  0  0  0  0  0  0  0  0  0  0  0
   23.0710    5.9351    4.8518 N   0  0  0  0  0  0  0  0  0  0  0  0
   23.0045    7.2494    4.5876 C   0  0  0  0  0  0  0  0  0  0  0  0
   26.2526    9.5114    5.3292 H   0  0  0  0  0  0  0  0  0  0  0  0
   27.1517    8.1678    5.8714 H   0  0  0  0  0  0  0  0  0  0  0  0
   18.2468   10.0603    3.2925 C   0  0  0  0  0  0  0  0  0  0  0  0
   17.2988   10.4916    4.2672 O   0  0  0  0  0  0  0  0  0  0  0  0
   15.9928   11.3248    3.7793 S   0  0  0  0  0  0  0  0  0  0  0  0
   15.4203   10.6041    2.6656 O   0  0  0  0  0  0  0  0  0  0  0  0
   16.3833   12.7090    3.6836 O   0  0  0  0  0  0  0  0  0  0  0  0
   14.5633    9.8889    5.5395 C   0  0  0  0  0  0  0  0  0  0  0  0
   14.8532    8.8420    4.9788 O   0  0  0  0  0  0  0  0  0  0  0  0
   14.9917   11.1411    5.0817 N   0  0  0  0  0  0  0  0  0  0  0  0
   14.6833   11.9468    5.5561 H   0  0  0  0  0  0  0  0  0  0  0  0
   13.7387    9.9284    6.8532 C   0  0  0  0  0  0  0  0  0  0  0  0
   13.8050   11.2950    7.4228 N   0  0  0  0  0  0  0  0  0  0  0  0
   14.7737   11.5238    7.6457 H   0  0  0  0  0  0  0  0  0  0  0  0
   13.2416   11.3370    8.2721 H   0  0  0  0  0  0  0  0  0  0  0  0
   13.4270    9.0531    9.2124 C   0  0  0  0  0  0  0  0  0  0  0  0
   14.1681    8.8293    7.8753 C   0  0  0  0  0  0  0  0  0  0  0  0
   13.7742    7.4305    7.3557 C   0  0  0  0  0  0  0  0  0  0  0  0
   15.6833    8.8366    8.1559 C   0  0  0  0  0  0  0  0  0  0  0  0
 36 37  1  0
 37 38  1  0
 37 39  1  0
 37 32  1  0
 32 33  1  0
 32 28  1  0
 28 29  2  0
 28 30  1  0
 30 25  1  0
 25 26  2  0
 25 27  2  0
 25 24  1  0
 24 23  1  0
  1 23  1  0
  1  2  1  0
  2  3  1  0
  3 10  1  0
 10 11  1  0
 11 12  2  0
 12 13  1  0
 13 14  2  0
 14 15  1  0
 14 16  1  0
 16 17  2  0
 17 18  1  0
 17 19  1  0
 19 20  2  0
  3  4  1  0
  4  5  1  0
  4  6  1  0
  6  7  1  0
  6  1  1  0
 20 10  1  0
 20 13  1  0
 33 34  1  0
 33 35  1  0
 30 31  1  0
 15 21  1  0
 15 22  1  0
  5  8  1  0
  7  9  1  0
M  END
> <minimizedAffinity>
-8.98147

> <CNNscore>
0.1010236368

> <CNNaffinity>
4.9571127892

> <CNN_VS>
0.5007855892

> <CNNaffinity_variance>
0.4237686098

$$$$



 39 41  0  0  0  0  0  0  0  0999 V2000
   17.9362   10.4633    2.6497 C   0  0  0  0  0  0  0  0  0  0  0  0
   18.1276    9.9146    1.3347 O   0  0  0  0  0  0  0  0  0  0  0  0
   18.2333   11.0138    0.3920 C   0  0  0  0  0  0  0  0  0  0  0  0
   18.0720   12.3153    1.1977 C   0  0  0  0  0  0  0  0  0  0  0  0
   19.3533   12.8353    1.5930 O   0  0  0  0  0  0  0  0  0  0  0  0
   17.3260   11.8418    2.4318 C   0  0  0  0  0  0  0  0  0  0  0  0
   17.4900   12.7257    3.5300 O   0  0  0  0  0  0  0  0  0  0  0  0
   19.8344   12.1605    2.0971 H   0  0  0  0  0  0  0  0  0  0  0  0
   18.4350   12.8307    3.7222 H   0  0  0  0  0  0  0  0  0  0  0  0
   17.2380   10.8158   -0.6476 N   0  0  0  0  0  0  0  0  0  0  0  0
   17.4143   10.9696   -2.0025 C   0  0  0  0  0  0  0  0  0  0  0  0
   16.3001   10.7581   -2.6729 N   0  0  0  0  0  0  0  0  0  0  0  0
   15.3541   10.4832   -1.7071 C   0  0  0  0  0  0  0  0  0  0  0  0
   13.9833   10.1920   -1.7773 C   0  0  0  0  0  0  0  0  0  0  0  0
   13.2843   10.1191   -2.9753 N   0  0  0  0  0  0  0  0  0  0  0  0
   13.3063    9.9887   -0.6260 N   0  0  0  0  0  0  0  0  0  0  0  0
   13.9778   10.0554    0.5475 C   0  0  0  0  0  0  0  0  0  0  0  0
   12.9597    9.7278    2.1301 Br  0  0  0  0  0  0  0  0  0  0  0  0
   15.2895   10.3221    0.7297 N   0  0  0  0  0  0  0  0  0  0  0  0
   15.9141   10.5278   -0.4405 C   0  0  0  0  0  0  0  0  0  0  0  0
   13.7537   10.2633   -3.8286 H   0  0  0  0  0  0  0  0  0  0  0  0
   12.3194    9.9234   -2.9712 H   0  0  0  0  0  0  0  0  0  0  0  0
   17.0348    9.5493    3.4827 C   0  0  0  0  0  0  0  0  0  0  0  0
   16.7034   10.1082    4.7527 O   0  0  0  0  0  0  0  0  0  0  0  0
   16.0244    9.1546    5.8784 S   0  0  0  0  0  0  0  0  0  0  0  0
   17.0794    8.3437    6.4414 O   0  0  0  0  0  0  0  0  0  0  0  0
   14.8401    8.5803    5.2907 O   0  0  0  0  0  0  0  0  0  0  0  0
   15.3202    9.9362    8.3476 C   0  0  0  0  0  0  0  0  0  0  0  0
   15.3643    8.7880    8.7649 O   0  0  0  0  0  0  0  0  0  0  0  0
   15.5714   10.2701    7.0110 N   0  0  0  0  0  0  0  0  0  0  0  0
   15.4740   11.2098    6.7339 H   0  0  0  0  0  0  0  0  0  0  0  0
   15.0393   11.1482    9.2748 C   0  0  0  0  0  0  0  0  0  0  0  0
   16.0994   11.2204   10.3080 N   0  0  0  0  0  0  0  0  0  0  0  0
   16.0803   10.3724   10.8745 H   0  0  0  0  0  0  0  0  0  0  0  0
   15.9379   12.0317   10.9047 H   0  0  0  0  0  0  0  0  0  0  0  0
   12.6816   12.0580    9.0680 C   0  0  0  0  0  0  0  0  0  0  0  0
   13.6033   11.1268    9.8869 C   0  0  0  0  0  0  0  0  0  0  0  0
   13.0095    9.7043    9.8120 C   0  0  0  0  0  0  0  0  0  0  0  0
   13.5755   11.5903   11.3563 C   0  0  0  0  0  0  0  0  0  0  0  0
 36 37  1  0
 37 38  1  0
 37 39  1  0
 37 32  1  0
 32 33  1  0
 32 28  1  0
 28 29  2  0
 28 30  1  0
 30 25  1  0
 25 26  2  0
 25 27  2  0
 25 24  1  0
 24 23  1  0
  1 23  1  0
  1  2  1  0
  2  3  1  0
  3 10  1  0
 10 11  1  0
 11 12  2  0
 12 13  1  0
 13 14  2  0
 14 15  1  0
 14 16  1  0
 16 17  2  0
 17 18  1  0
 17 19  1  0
 19 20  2  0
  3  4  1  0
  4  5  1  0
  4  6  1  0
  6  7  1  0
  6  1  1  0
 20 10  1  0
 20 13  1  0
 33 34  1  0
 33 35  1  0
 30 31  1  0
 15 21  1  0
 15 22  1  0
  5  8  1  0
  7  9  1  0
M  END
> <minimizedAffinity>
-9.79078

> <CNNscore>
0.0760958418

> <CNNaffinity>
5.6294512749

> <CNN_VS>
0.4283778369

> <CNNaffinity_variance>
0.3738587797

$$$$



 39 41  0  0  0  0  0  0  0  0999 V2000
   20.1037    7.7395    3.1688 C   0  0  0  0  0  0  0  0  0  0  0  0
   21.5247    7.8833    3.0051 O   0  0  0  0  0  0  0  0  0  0  0  0
   22.1498    6.6057    3.2967 C   0  0  0  0  0  0  0  0  0  0  0  0
   21.0234    5.6310    3.6840 C   0  0  0  0  0  0  0  0  0  0  0  0
   20.5727    4.8875    2.5385 O   0  0  0  0  0  0  0  0  0  0  0  0
   19.9198    6.5726    4.1305 C   0  0  0  0  0  0  0  0  0  0  0  0
   18.6381    5.9667    4.0643 O   0  0  0  0  0  0  0  0  0  0  0  0
   20.2893    5.5031    1.8445 H   0  0  0  0  0  0  0  0  0  0  0  0
   18.4746    5.6538    3.1609 H   0  0  0  0  0  0  0  0  0  0  0  0
   23.1516    6.8166    4.3274 N   0  0  0  0  0  0  0  0  0  0  0  0
   23.6377    5.8836    5.2127 C   0  0  0  0  0  0  0  0  0  0  0  0
   24.5077    6.4058    6.0528 N   0  0  0  0  0  0  0  0  0  0  0  0
   24.5661    7.7421    5.7149 C   0  0  0  0  0  0  0  0  0  0  0  0
   25.2892    8.8233    6.2411 C   0  0  0  0  0  0  0  0  0  0  0  0
   26.1704    8.6985    7.3075 N   0  0  0  0  0  0  0  0  0  0  0  0
   25.1094   10.0468    5.6971 N   0  0  0  0  0  0  0  0  0  0  0  0
   24.2544   10.1798    4.6561 C   0  0  0  0  0  0  0  0  0  0  0  0
   24.0749   11.9338    3.9214 Br  0  0  0  0  0  0  0  0  0  0  0  0
   23.5154    9.2122    4.0708 N   0  0  0  0  0  0  0  0  0  0  0  0
   23.7200    8.0204    4.6535 C   0  0  0  0  0  0  0  0  0  0  0  0
   26.3197    7.8182    7.7223 H   0  0  0  0  0  0  0  0  0  0  0  0
   26.6456    9.4904    7.6487 H   0  0  0  0  0  0  0  0  0  0  0  0
   19.4942    9.0382    3.7011 C   0  0  0  0  0  0  0  0  0  0  0  0
   18.8467    9.8021    2.6851 O   0  0  0  0  0  0  0  0  0  0  0  0
   17.4271   10.5154    3.0219 S   0  0  0  0  0  0  0  0  0  0  0  0
   16.4557    9.9903    2.0903 O   0  0  0  0  0  0  0  0  0  0  0  0
   17.6824   11.9277    3.1559 O   0  0  0  0  0  0  0  0  0  0  0  0
   16.1130   10.4105    5.3599 C   0  0  0  0  0  0  0  0  0  0  0  0
   15.4560   11.4022    5.0786 O   0  0  0  0  0  0  0  0  0  0  0  0
   17.1006    9.8876    4.5158 N   0  0  0  0  0  0  0  0  0  0  0  0
   17.6230    9.1127    4.8255 H   0  0  0  0  0  0  0  0  0  0  0  0
   15.8747    9.5952    6.6583 C   0  0  0  0  0  0  0  0  0  0  0  0
   16.7856    8.4262    6.6674 N   0  0  0  0  0  0  0  0  0  0  0  0
   16.5766    7.8262    5.8694 H   0  0  0  0  0  0  0  0  0  0  0  0
   16.6553    7.9003    7.5316 H   0  0  0  0  0  0  0  0  0  0  0  0
   13.6407   10.3251    7.6101 C   0  0  0  0  0  0  0  0  0  0  0  0
   14.3795    9.1942    6.8599 C   0  0  0  0  0  0  0  0  0  0  0  0
   13.6841    9.0128    5.4942 C   0  0  0  0  0  0  0  0  0  0  0  0
   14.2159    7.8919    7.6674 C   0  0  0  0  0  0  0  0  0  0  0  0
 36 37  1  0
 37 38  1  0
 37 39  1  0
 37 32  1  0
 32 33  1  0
 32 28  1  0
 28 29  2  0
 28 30  1  0
 30 25  1  0
 25 26  2  0
 25 27  2  0
 25 24  1  0
 24 23  1  0
  1 23  1  0
  1  2  1  0
  2  3  1  0
  3 10  1  0
 10 11  1  0
 11 12  2  0
 12 13  1  0
 13 14  2  0
 14 15  1  0
 14 16  1  0
 16 17  2  0
 17 18  1  0
 17 19  1  0
 19 20  2  0
  3  4  1  0
  4  5  1  0
  4  6  1  0
  6  7  1  0
  6  1  1  0
 20 10  1  0
 20 13  1  0
 33 34  1  0
 33 35  1  0
 30 31  1  0
 15 21  1  0
 15 22  1  0
  5  8  1  0
  7  9  1  0
M  END
> <minimizedAffinity>
-8.35648

> <CNNscore>
0.0757579207

> <CNNaffinity>
5.3294224739

> <CNN_VS>
0.4037459791

> <CNNaffinity_variance>
0.1543804854

$$$$



 39 41  0  0  0  0  0  0  0  0999 V2000
   20.0055   10.1490    1.7940 C   0  0  0  0  0  0  0  0  0  0  0  0
   18.7453    9.7037    1.2644 O   0  0  0  0  0  0  0  0  0  0  0  0
   18.0944   10.8325    0.6239 C   0  0  0  0  0  0  0  0  0  0  0  0
   19.0224   12.0476    0.8011 C   0  0  0  0  0  0  0  0  0  0  0  0
   19.8906   12.1994   -0.3354 O   0  0  0  0  0  0  0  0  0  0  0  0
   19.8507   11.6490    2.0090 C   0  0  0  0  0  0  0  0  0  0  0  0
   21.0813   12.3531    2.0717 O   0  0  0  0  0  0  0  0  0  0  0  0
   20.3948   11.3814   -0.4686 H   0  0  0  0  0  0  0  0  0  0  0  0
   21.5800   12.2062    1.2528 H   0  0  0  0  0  0  0  0  0  0  0  0
   16.7741   10.9862    1.2100 N   0  0  0  0  0  0  0  0  0  0  0  0
   16.4795   11.3362    2.5066 C   0  0  0  0  0  0  0  0  0  0  0  0
   15.1818   11.3447    2.7335 N   0  0  0  0  0  0  0  0  0  0  0  0
   14.6123   10.9553    1.5388 C   0  0  0  0  0  0  0  0  0  0  0  0
   13.2810   10.7567    1.1423 C   0  0  0  0  0  0  0  0  0  0  0  0
   12.1999   10.9527    1.9921 N   0  0  0  0  0  0  0  0  0  0  0  0
   13.0381   10.3397   -0.1195 N   0  0  0  0  0  0  0  0  0  0  0  0
   14.0841   10.1472   -0.9569 C   0  0  0  0  0  0  0  0  0  0  0  0
   13.6600    9.5860   -2.7328 Br  0  0  0  0  0  0  0  0  0  0  0  0
   15.3968   10.3118   -0.6835 N   0  0  0  0  0  0  0  0  0  0  0  0
   15.5860   10.7143    0.5830 C   0  0  0  0  0  0  0  0  0  0  0  0
   12.3492   11.2563    2.9166 H   0  0  0  0  0  0  0  0  0  0  0  0
   11.2843   10.7881    1.6698 H   0  0  0  0  0  0  0  0  0  0  0  0
   20.3331    9.4029    3.0892 C   0  0  0  0  0  0  0  0  0  0  0  0
   19.2246    9.3371    3.9847 O   0  0  0  0  0  0  0  0  0  0  0  0
   18.6572    7.8814    4.4281 S   0  0  0  0  0  0  0  0  0  0  0  0
   19.8003    7.0622    4.7591 O   0  0  0  0  0  0  0  0  0  0  0  0
   17.6846    7.4857    3.4406 O   0  0  0  0  0  0  0  0  0  0  0  0
   16.6171    8.8846    5.8547 C   0  0  0  0  0  0  0  0  0  0  0  0
   16.0366    9.2464    4.8416 O   0  0  0  0  0  0  0  0  0  0  0  0
   17.8700    8.2593    5.8316 N   0  0  0  0  0  0  0  0  0  0  0  0
   18.3005    8.0352    6.6881 H   0  0  0  0  0  0  0  0  0  0  0  0
   15.9930    9.0294    7.2679 C   0  0  0  0  0  0  0  0  0  0  0  0
   16.3044    7.8153    8.0588 N   0  0  0  0  0  0  0  0  0  0  0  0
   15.8898    6.9999    7.6075 H   0  0  0  0  0  0  0  0  0  0  0  0
   15.9218    7.9147    8.9991 H   0  0  0  0  0  0  0  0  0  0  0  0
   13.8090    8.8758    8.5466 C   0  0  0  0  0  0  0  0  0  0  0  0
   14.4650    9.3466    7.2294 C   0  0  0  0  0  0  0  0  0  0  0  0
   14.2359   10.8685    7.1157 C   0  0  0  0  0  0  0  0  0  0  0  0
   13.7428    8.6556    6.0564 C   0  0  0  0  0  0  0  0  0  0  0  0
 36 37  1  0
 37 38  1  0
 37 39  1  0
 37 32  1  0
 32 33  1  0
 32 28  1  0
 28 29  2  0
 28 30  1  0
 30 25  1  0
 25 26  2  0
 25 27  2  0
 25 24  1  0
 24 23  1  0
  1 23  1  0
  1  2  1  0
  2  3  1  0
  3 10  1  0
 10 11  1  0
 11 12  2  0
 12 13  1  0
 13 14  2  0
 14 15  1  0
 14 16  1  0
 16 17  2  0
 17 18  1  0
 17 19  1  0
 19 20  2  0
  3  4  1  0
  4  5  1  0
  4  6  1  0
  6  7  1  0
  6  1  1  0
 20 10  1  0
 20 13  1  0
 33 34  1  0
 33 35  1  0
 30 31  1  0
 15 21  1  0
 15 22  1  0
  5  8  1  0
  7  9  1  0
M  END
> <minimizedAffinity>
-9.21952

> <CNNscore>
0.0625767335

> <CNNaffinity>
5.1202807426

> <CNN_VS>
0.3204104304

> <CNNaffinity_variance>
1.0122488737

$$$$



 39 41  0  0  0  0  0  0  0  0999 V2000
   18.1996    8.3116    3.7502 C   0  0  0  0  0  0  0  0  0  0  0  0
   19.4470    8.2366    3.0393 O   0  0  0  0  0  0  0  0  0  0  0  0
   20.4860    7.8550    3.9789 C   0  0  0  0  0  0  0  0  0  0  0  0
   19.8164    7.7118    5.3573 C   0  0  0  0  0  0  0  0  0  0  0  0
   19.4218    6.3497    5.5962 O   0  0  0  0  0  0  0  0  0  0  0  0
   18.5735    8.5693    5.2041 C   0  0  0  0  0  0  0  0  0  0  0  0
   17.5597    8.2154    6.1321 O   0  0  0  0  0  0  0  0  0  0  0  0
   18.8362    6.0527    4.8822 H   0  0  0  0  0  0  0  0  0  0  0  0
   17.3407    7.2760    6.0291 H   0  0  0  0  0  0  0  0  0  0  0  0
   21.5409    8.8519    3.9168 N   0  0  0  0  0  0  0  0  0  0  0  0
   21.6486    9.8885    3.0199 C   0  0  0  0  0  0  0  0  0  0  0  0
   22.7492   10.5888    3.2039 N   0  0  0  0  0  0  0  0  0  0  0  0
   23.3966    9.9607    4.2478 C   0  0  0  0  0  0  0  0  0  0  0  0
   24.6141   10.2123    4.8983 C   0  0  0  0  0  0  0  0  0  0  0  0
   25.4534   11.2646    4.5552 N   0  0  0  0  0  0  0  0  0  0  0  0
   24.9977    9.3841    5.8942 N   0  0  0  0  0  0  0  0  0  0  0  0
   24.1867    8.3563    6.2382 C   0  0  0  0  0  0  0  0  0  0  0  0
   24.7825    7.2465    7.6742 Br  0  0  0  0  0  0  0  0  0  0  0  0
   22.9988    8.0265    5.6861 N   0  0  0  0  0  0  0  0  0  0  0  0
   22.6684    8.8704    4.6959 C   0  0  0  0  0  0  0  0  0  0  0  0
   25.1976   11.8829    3.8330 H   0  0  0  0  0  0  0  0  0  0  0  0
   26.3039   11.3922    5.0342 H   0  0  0  0  0  0  0  0  0  0  0  0
   17.3195    9.4193    3.1670 C   0  0  0  0  0  0  0  0  0  0  0  0
   17.9765   10.6849    3.1289 O   0  0  0  0  0  0  0  0  0  0  0  0
   17.2701   11.9141    2.3367 S   0  0  0  0  0  0  0  0  0  0  0  0
   18.0396   12.1441    1.1357 O   0  0  0  0  0  0  0  0  0  0  0  0
   17.0189   12.9539    3.3028 O   0  0  0  0  0  0  0  0  0  0  0  0
   14.6634   11.3658    2.6659 C   0  0  0  0  0  0  0  0  0  0  0  0
   14.6354   11.9558    3.7360 O   0  0  0  0  0  0  0  0  0  0  0  0
   15.8298   11.2289    1.9029 N   0  0  0  0  0  0  0  0  0  0  0  0
   15.7901   10.7018    1.0723 H   0  0  0  0  0  0  0  0  0  0  0  0
   13.3913   10.7597    2.0164 C   0  0  0  0  0  0  0  0  0  0  0  0
   12.2472   11.6706    2.2561 N   0  0  0  0  0  0  0  0  0  0  0  0
   12.0850   11.7559    3.2595 H   0  0  0  0  0  0  0  0  0  0  0  0
   11.4124   11.2933    1.8076 H   0  0  0  0  0  0  0  0  0  0  0  0
   13.6711    9.0952    3.9085 C   0  0  0  0  0  0  0  0  0  0  0  0
   13.1052    9.2984    2.4853 C   0  0  0  0  0  0  0  0  0  0  0  0
   11.5844    9.0442    2.5507 C   0  0  0  0  0  0  0  0  0  0  0  0
   13.7371    8.2413    1.5589 C   0  0  0  0  0  0  0  0  0  0  0  0
 36 37  1  0
 37 38  1  0
 37 39  1  0
 37 32  1  0
 32 33  1  0
 32 28  1  0
 28 29  2  0
 28 30  1  0
 30 25  1  0
 25 26  2  0
 25 27  2  0
 25 24  1  0
 24 23  1  0
  1 23  1  0
  1  2  1  0
  2  3  1  0
  3 10  1  0
 10 11  1  0
 11 12  2  0
 12 13  1  0
 13 14  2  0
 14 15  1  0
 14 16  1  0
 16 17  2  0
 17 18  1  0
 17 19  1  0
 19 20  2  0
  3  4  1  0
  4  5  1  0
  4  6  1  0
  6  7  1  0
  6  1  1  0
 20 10  1  0
 20 13  1  0
 33 34  1  0
 33 35  1  0
 30 31  1  0
 15 21  1  0
 15 22  1  0
  5  8  1  0
  7  9  1  0
M  END
> <minimizedAffinity>
-8.65046

> <CNNscore>
0.0581210852

> <CNNaffinity>
4.5726504326

> <CNN_VS>
0.2657673955

> <CNNaffinity_variance>
0.6126534939

$$$$
