


 29 30  0  0  0  0  0  0  0  0999 V2000
   13.1060    2.8290   39.0390 C   0  0  0  0  0  0  0  0  0  0  0  0
   12.5607    1.6370   38.4485 O   0  0  0  0  0  0  0  0  0  0  0  0
   11.8574    3.6775   39.4128 C   0  0  0  0  0  0  0  0  0  0  0  0
   11.2028    3.2864   40.7405 C   0  0  0  0  0  0  0  0  0  0  0  0
    9.7801    3.4662   40.6644 O   0  0  0  0  0  0  0  0  0  0  0  0
   11.4938    1.8499   41.1700 C   0  0  0  0  0  0  0  0  0  0  0  0
   10.8955    1.6422   42.4493 O   0  0  0  0  0  0  0  0  0  0  0  0
   13.0040    1.5701   41.1832 C   0  0  0  0  0  0  0  0  0  0  0  0
   13.4879    0.6503   41.8491 O   0  0  0  0  0  0  0  0  0  0  0  0
   13.9108    2.4419   40.3043 C   0  0  0  0  0  0  0  0  0  0  0  0
   12.0549    1.8717   37.6548 H   0  0  0  0  0  0  0  0  0  0  0  0
    9.4146    2.8712   39.9911 H   0  0  0  0  0  0  0  0  0  0  0  0
   11.2742    2.2659   43.0884 H   0  0  0  0  0  0  0  0  0  0  0  0
   13.8646    3.6012   37.9141 C   0  0  0  0  0  0  0  0  0  0  0  0
   15.3519    3.3101   37.4934 C   0  0  0  0  0  0  0  0  0  0  0  0
   16.0670    2.4646   38.5621 C   0  0  0  0  0  0  0  0  0  0  0  0
   16.0624    4.6864   37.4702 C   0  0  0  0  0  0  0  0  0  0  0  0
   15.4548    2.6186   36.1076 C   0  0  0  0  0  0  0  0  0  0  0  0
   17.9478    2.4433   36.6525 C   0  0  0  0  0  0  0  0  0  0  0  0
   16.8540    2.2055   35.6201 C   0  0  0  0  0  0  0  0  0  0  0  0
   14.4564    3.6424   41.1093 C   0  0  0  0  0  0  0  0  0  0  0  0
   15.4799    3.2939   42.1694 C   0  0  0  0  0  0  0  0  0  0  0  0
   16.5104    2.3818   41.9063 C   0  0  0  0  0  0  0  0  0  0  0  0
   17.4562    2.0575   42.8871 C   0  0  0  0  0  0  0  0  0  0  0  0
   17.3792    2.6316   44.1541 C   0  0  0  0  0  0  0  0  0  0  0  0
   16.3432    3.5243   44.4304 C   0  0  0  0  0  0  0  0  0  0  0  0
   15.4007    3.8514   43.4512 C   0  0  0  0  0  0  0  0  0  0  0  0
   18.2338    2.4033   45.1969 O   0  0  0  0  0  0  0  0  0  0  0  0
   18.2713    3.3910   46.2198 C   0  0  0  0  0  0  0  0  0  0  0  0
 19 20  1  0
 20 18  1  0
 18 15  1  0
 15 16  1  0
 15 17  1  0
 15 14  1  0
 14  1  1  0
  1  2  1  0
  1  3  1  0
  3  4  1  0
  4  5  1  0
  4  6  1  0
  6  7  1  0
  6  8  1  0
  8  9  2  0
  8 10  1  0
 10 21  1  0
 21 22  1  0
 22 23  2  0
 23 24  1  0
 24 25  2  0
 25 28  1  0
 28 29  1  0
 25 26  1  0
 26 27  2  0
 10  1  1  0
 27 22  1  0
  2 11  1  0
  5 12  1  0
  7 13  1  0
M  END
> <minimizedAffinity>
-6.43778

> <CNNscore>
0.4146703780

> <CNNaffinity>
5.2746005058

> <CNN_VS>
2.1872205734

> <CNNaffinity_variance>
0.2862879038

$$$$



 29 30  0  0  0  0  0  0  0  0999 V2000
   13.9818    2.9569   40.4891 C   0  0  0  0  0  0  0  0  0  0  0  0
   13.7172    3.8399   41.5922 O   0  0  0  0  0  0  0  0  0  0  0  0
   13.4038    1.5875   40.9469 C   0  0  0  0  0  0  0  0  0  0  0  0
   11.8942    1.4384   40.7396 C   0  0  0  0  0  0  0  0  0  0  0  0
   11.3252    0.6420   41.7903 O   0  0  0  0  0  0  0  0  0  0  0  0
   11.1481    2.7695   40.6736 C   0  0  0  0  0  0  0  0  0  0  0  0
    9.7745    2.4922   40.4015 O   0  0  0  0  0  0  0  0  0  0  0  0
   11.7707    3.7028   39.6246 C   0  0  0  0  0  0  0  0  0  0  0  0
   11.1333    4.6341   39.1245 O   0  0  0  0  0  0  0  0  0  0  0  0
   13.2382    3.4798   39.2353 C   0  0  0  0  0  0  0  0  0  0  0  0
   14.1801    3.5185   42.3818 H   0  0  0  0  0  0  0  0  0  0  0  0
   11.4434    1.0953   42.6397 H   0  0  0  0  0  0  0  0  0  0  0  0
    9.7006    2.0247   39.5548 H   0  0  0  0  0  0  0  0  0  0  0  0
   15.5307    2.7894   40.3874 C   0  0  0  0  0  0  0  0  0  0  0  0
   16.5415    3.2395   41.5051 C   0  0  0  0  0  0  0  0  0  0  0  0
   16.3077    2.4488   42.8045 C   0  0  0  0  0  0  0  0  0  0  0  0
   16.1961    4.7168   41.8183 C   0  0  0  0  0  0  0  0  0  0  0  0
   18.0220    3.1074   41.0580 C   0  0  0  0  0  0  0  0  0  0  0  0
   19.4502    2.0122   39.2404 C   0  0  0  0  0  0  0  0  0  0  0  0
   18.4418    1.8016   40.3619 C   0  0  0  0  0  0  0  0  0  0  0  0
   13.3386    2.5582   37.9994 C   0  0  0  0  0  0  0  0  0  0  0  0
   14.6418    2.6489   37.2338 C   0  0  0  0  0  0  0  0  0  0  0  0
   14.8156    1.9702   36.0206 C   0  0  0  0  0  0  0  0  0  0  0  0
   16.0215    2.0522   35.3130 C   0  0  0  0  0  0  0  0  0  0  0  0
   17.0804    2.8056   35.8149 C   0  0  0  0  0  0  0  0  0  0  0  0
   16.9224    3.4669   37.0332 C   0  0  0  0  0  0  0  0  0  0  0  0
   15.7181    3.3886   37.7385 C   0  0  0  0  0  0  0  0  0  0  0  0
   18.3044    2.9691   35.2274 O   0  0  0  0  0  0  0  0  0  0  0  0
   19.2831    1.9744   35.5031 C   0  0  0  0  0  0  0  0  0  0  0  0
 19 20  1  0
 20 18  1  0
 18 15  1  0
 15 16  1  0
 15 17  1  0
 15 14  1  0
 14  1  1  0
  1  2  1  0
  1  3  1  0
  3  4  1  0
  4  5  1  0
  4  6  1  0
  6  7  1  0
  6  8  1  0
  8  9  2  0
  8 10  1  0
 10 21  1  0
 21 22  1  0
 22 23  2  0
 23 24  1  0
 24 25  2  0
 25 28  1  0
 28 29  1  0
 25 26  1  0
 26 27  2  0
 10  1  1  0
 27 22  1  0
  2 11  1  0
  5 12  1  0
  7 13  1  0
M  END
> <minimizedAffinity>
-7.29714

> <CNNscore>
0.2668189704

> <CNNaffinity>
4.6745190620

> <CNN_VS>
1.2472503185

> <CNNaffinity_variance>
1.0443634987

$$$$



 29 30  0  0  0  0  0  0  0  0999 V2000
   21.6835   -0.9147   39.3480 C   0  0  0  0  0  0  0  0  0  0  0  0
   22.5877   -1.6254   38.4853 O   0  0  0  0  0  0  0  0  0  0  0  0
   22.3906   -0.9211   40.7332 C   0  0  0  0  0  0  0  0  0  0  0  0
   23.4532    0.1678   40.9046 C   0  0  0  0  0  0  0  0  0  0  0  0
   24.5290   -0.3133   41.7253 O   0  0  0  0  0  0  0  0  0  0  0  0
   24.0316    0.6757   39.5854 C   0  0  0  0  0  0  0  0  0  0  0  0
   24.9442    1.7326   39.8817 O   0  0  0  0  0  0  0  0  0  0  0  0
   22.9176    1.1224   38.6269 C   0  0  0  0  0  0  0  0  0  0  0  0
   23.1354    1.9073   37.6994 O   0  0  0  0  0  0  0  0  0  0  0  0
   21.5147    0.5313   38.8198 C   0  0  0  0  0  0  0  0  0  0  0  0
   22.6985   -2.5327   38.8101 H   0  0  0  0  0  0  0  0  0  0  0  0
   24.9658   -1.0575   41.2822 H   0  0  0  0  0  0  0  0  0  0  0  0
   24.4738    2.4475   40.3383 H   0  0  0  0  0  0  0  0  0  0  0  0
   20.3937   -1.7831   39.4881 C   0  0  0  0  0  0  0  0  0  0  0  0
   19.7659   -2.2138   40.8643 C   0  0  0  0  0  0  0  0  0  0  0  0
   18.2603   -2.4950   40.7144 C   0  0  0  0  0  0  0  0  0  0  0  0
   19.8950   -0.9808   41.7930 C   0  0  0  0  0  0  0  0  0  0  0  0
   20.4800   -3.4437   41.4863 C   0  0  0  0  0  0  0  0  0  0  0  0
   19.5444   -4.4057   43.6638 C   0  0  0  0  0  0  0  0  0  0  0  0
   19.6006   -4.5192   42.1463 C   0  0  0  0  0  0  0  0  0  0  0  0
   20.6582    1.4475   39.7219 C   0  0  0  0  0  0  0  0  0  0  0  0
   19.3966    1.9848   39.0796 C   0  0  0  0  0  0  0  0  0  0  0  0
   18.2897    2.3506   39.8567 C   0  0  0  0  0  0  0  0  0  0  0  0
   17.1219    2.8457   39.2630 C   0  0  0  0  0  0  0  0  0  0  0  0
   17.0369    2.9713   37.8781 C   0  0  0  0  0  0  0  0  0  0  0  0
   18.1271    2.5888   37.0961 C   0  0  0  0  0  0  0  0  0  0  0  0
   19.2946    2.0977   37.6878 C   0  0  0  0  0  0  0  0  0  0  0  0
   15.9615    3.4385   37.1746 O   0  0  0  0  0  0  0  0  0  0  0  0
   15.0323    2.4675   36.7087 C   0  0  0  0  0  0  0  0  0  0  0  0
 19 20  1  0
 20 18  1  0
 18 15  1  0
 15 16  1  0
 15 17  1  0
 15 14  1  0
 14  1  1  0
  1  2  1  0
  1  3  1  0
  3  4  1  0
  4  5  1  0
  4  6  1  0
  6  7  1  0
  6  8  1  0
  8  9  2  0
  8 10  1  0
 10 21  1  0
 21 22  1  0
 22 23  2  0
 23 24  1  0
 24 25  2  0
 25 28  1  0
 28 29  1  0
 25 26  1  0
 26 27  2  0
 10  1  1  0
 27 22  1  0
  2 11  1  0
  5 12  1  0
  7 13  1  0
M  END
> <minimizedAffinity>
-5.66956

> <CNNscore>
0.2579918504

> <CNNaffinity>
4.5964369774

> <CNN_VS>
1.1858432293

> <CNNaffinity_variance>
0.1292034388

$$$$



 29 30  0  0  0  0  0  0  0  0999 V2000
   22.7377    0.6327   40.4286 C   0  0  0  0  0  0  0  0  0  0  0  0
   22.6373   -0.3049   41.5137 O   0  0  0  0  0  0  0  0  0  0  0  0
   24.2351    0.5782   40.0120 C   0  0  0  0  0  0  0  0  0  0  0  0
   24.5887   -0.5823   39.0780 C   0  0  0  0  0  0  0  0  0  0  0  0
   25.9171   -1.0535   39.3527 O   0  0  0  0  0  0  0  0  0  0  0  0
   23.6214   -1.7609   39.1682 C   0  0  0  0  0  0  0  0  0  0  0  0
   24.0171   -2.7314   38.1990 O   0  0  0  0  0  0  0  0  0  0  0  0
   22.1688   -1.3025   38.9712 C   0  0  0  0  0  0  0  0  0  0  0  0
   21.2832   -2.0861   38.6170 O   0  0  0  0  0  0  0  0  0  0  0  0
   21.8238    0.1626   39.2701 C   0  0  0  0  0  0  0  0  0  0  0  0
   23.2075   -0.0168   42.2437 H   0  0  0  0  0  0  0  0  0  0  0  0
   25.9552   -1.4051   40.2559 H   0  0  0  0  0  0  0  0  0  0  0  0
   23.9823   -2.3368   37.3135 H   0  0  0  0  0  0  0  0  0  0  0  0
   22.4773    2.0554   41.0164 C   0  0  0  0  0  0  0  0  0  0  0  0
   21.4346    2.3624   42.1532 C   0  0  0  0  0  0  0  0  0  0  0  0
   21.4542    3.8558   42.5245 C   0  0  0  0  0  0  0  0  0  0  0  0
   21.9292    1.5899   43.4014 C   0  0  0  0  0  0  0  0  0  0  0  0
   19.9942    1.9245   41.7748 C   0  0  0  0  0  0  0  0  0  0  0  0
   18.4922   -0.1060   41.3703 C   0  0  0  0  0  0  0  0  0  0  0  0
   19.5061    0.5601   42.2907 C   0  0  0  0  0  0  0  0  0  0  0  0
   21.9242    1.0172   37.9869 C   0  0  0  0  0  0  0  0  0  0  0  0
   20.6074    1.5558   37.4685 C   0  0  0  0  0  0  0  0  0  0  0  0
   19.6658    2.1215   38.3381 C   0  0  0  0  0  0  0  0  0  0  0  0
   18.4468    2.6181   37.8594 C   0  0  0  0  0  0  0  0  0  0  0  0
   18.1433    2.5449   36.5017 C   0  0  0  0  0  0  0  0  0  0  0  0
   19.0667    1.9633   35.6325 C   0  0  0  0  0  0  0  0  0  0  0  0
   20.2852    1.4706   36.1087 C   0  0  0  0  0  0  0  0  0  0  0  0
   16.9957    2.9903   35.9061 O   0  0  0  0  0  0  0  0  0  0  0  0
   15.8338    2.1883   36.0791 C   0  0  0  0  0  0  0  0  0  0  0  0
 19 20  1  0
 20 18  1  0
 18 15  1  0
 15 16  1  0
 15 17  1  0
 15 14  1  0
 14  1  1  0
  1  2  1  0
  1  3  1  0
  3  4  1  0
  4  5  1  0
  4  6  1  0
  6  7  1  0
  6  8  1  0
  8  9  2  0
  8 10  1  0
 10 21  1  0
 21 22  1  0
 22 23  2  0
 23 24  1  0
 24 25  2  0
 25 28  1  0
 28 29  1  0
 25 26  1  0
 26 27  2  0
 10  1  1  0
 27 22  1  0
  2 11  1  0
  5 12  1  0
  7 13  1  0
M  END
> <minimizedAffinity>
-5.67969

> <CNNscore>
0.2051714063

> <CNNaffinity>
4.4031376839

> <CNN_VS>
0.9033979774

> <CNNaffinity_variance>
0.4071061909

$$$$



 29 30  0  0  0  0  0  0  0  0999 V2000
   18.8628    1.2753   40.4995 C   0  0  0  0  0  0  0  0  0  0  0  0
   17.6472    1.7930   39.9328 O   0  0  0  0  0  0  0  0  0  0  0  0
   19.4525    2.4713   41.3000 C   0  0  0  0  0  0  0  0  0  0  0  0
   18.8489    2.6563   42.6948 C   0  0  0  0  0  0  0  0  0  0  0  0
   18.7887    4.0517   43.0285 O   0  0  0  0  0  0  0  0  0  0  0  0
   17.4530    2.0549   42.8455 C   0  0  0  0  0  0  0  0  0  0  0  0
   17.0430    2.2263   44.2021 O   0  0  0  0  0  0  0  0  0  0  0  0
   17.4350    0.5804   42.4156 C   0  0  0  0  0  0  0  0  0  0  0  0
   16.5603   -0.1986   42.8050 O   0  0  0  0  0  0  0  0  0  0  0  0
   18.5173    0.0957   41.4417 C   0  0  0  0  0  0  0  0  0  0  0  0
   17.8558    2.5327   39.3411 H   0  0  0  0  0  0  0  0  0  0  0  0
   18.1968    4.5069   42.4094 H   0  0  0  0  0  0  0  0  0  0  0  0
   17.6682    1.7723   44.7886 H   0  0  0  0  0  0  0  0  0  0  0  0
   19.8420    0.9875   39.3181 C   0  0  0  0  0  0  0  0  0  0  0  0
   19.9505    1.8776   38.0260 C   0  0  0  0  0  0  0  0  0  0  0  0
   20.4960    1.0591   36.8423 C   0  0  0  0  0  0  0  0  0  0  0  0
   21.0142    2.9578   38.3440 C   0  0  0  0  0  0  0  0  0  0  0  0
   18.5991    2.5376   37.6418 C   0  0  0  0  0  0  0  0  0  0  0  0
   16.5116    2.4203   36.1682 C   0  0  0  0  0  0  0  0  0  0  0  0
   18.0181    2.2152   36.2546 C   0  0  0  0  0  0  0  0  0  0  0  0
   19.7239   -0.4825   42.2141 C   0  0  0  0  0  0  0  0  0  0  0  0
   19.6471   -1.9655   42.5100 C   0  0  0  0  0  0  0  0  0  0  0  0
   18.9069   -2.8281   41.6908 C   0  0  0  0  0  0  0  0  0  0  0  0
   18.8339   -4.1996   41.9651 C   0  0  0  0  0  0  0  0  0  0  0  0
   19.4907   -4.7302   43.0733 C   0  0  0  0  0  0  0  0  0  0  0  0
   20.2120   -3.8741   43.9060 C   0  0  0  0  0  0  0  0  0  0  0  0
   20.2886   -2.5056   43.6311 C   0  0  0  0  0  0  0  0  0  0  0  0
   19.5014   -6.0439   43.4526 O   0  0  0  0  0  0  0  0  0  0  0  0
   18.7733   -6.9509   42.6339 C   0  0  0  0  0  0  0  0  0  0  0  0
 19 20  1  0
 20 18  1  0
 18 15  1  0
 15 16  1  0
 15 17  1  0
 15 14  1  0
 14  1  1  0
  1  2  1  0
  1  3  1  0
  3  4  1  0
  4  5  1  0
  4  6  1  0
  6  7  1  0
  6  8  1  0
  8  9  2  0
  8 10  1  0
 10 21  1  0
 21 22  1  0
 22 23  2  0
 23 24  1  0
 24 25  2  0
 25 28  1  0
 28 29  1  0
 25 26  1  0
 26 27  2  0
 10  1  1  0
 27 22  1  0
  2 11  1  0
  5 12  1  0
  7 13  1  0
M  END
> <minimizedAffinity>
-6.08244

> <CNNscore>
0.2003109604

> <CNNaffinity>
3.8709812164

> <CNN_VS>
0.7753999829

> <CNNaffinity_variance>
0.7498169541

$$$$



 29 30  0  0  0  0  0  0  0  0999 V2000
   14.7150    3.2268   40.1349 C   0  0  0  0  0  0  0  0  0  0  0  0
   14.2648    2.4084   41.2278 O   0  0  0  0  0  0  0  0  0  0  0  0
   15.0232    4.6039   40.7887 C   0  0  0  0  0  0  0  0  0  0  0  0
   16.3980    4.6920   41.4567 C   0  0  0  0  0  0  0  0  0  0  0  0
   16.3330    5.5358   42.6168 O   0  0  0  0  0  0  0  0  0  0  0  0
   16.9703    3.3366   41.8670 C   0  0  0  0  0  0  0  0  0  0  0  0
   18.2765    3.5527   42.4006 O   0  0  0  0  0  0  0  0  0  0  0  0
   16.9815    2.3580   40.6832 C   0  0  0  0  0  0  0  0  0  0  0  0
   17.7304    1.3771   40.6591 O   0  0  0  0  0  0  0  0  0  0  0  0
   15.9969    2.6015   39.5316 C   0  0  0  0  0  0  0  0  0  0  0  0
   13.4615    2.7941   41.6110 H   0  0  0  0  0  0  0  0  0  0  0  0
   15.7339    5.1418   43.2700 H   0  0  0  0  0  0  0  0  0  0  0  0
   18.8384    3.9625   41.7243 H   0  0  0  0  0  0  0  0  0  0  0  0
   13.4993    3.4359   39.1779 C   0  0  0  0  0  0  0  0  0  0  0  0
   12.1281    2.6778   39.3156 C   0  0  0  0  0  0  0  0  0  0  0  0
   11.2147    3.3806   40.3354 C   0  0  0  0  0  0  0  0  0  0  0  0
   12.4699    1.2894   39.9114 C   0  0  0  0  0  0  0  0  0  0  0  0
   11.3934    2.5236   37.9569 C   0  0  0  0  0  0  0  0  0  0  0  0
   13.2593    2.2397   36.2305 C   0  0  0  0  0  0  0  0  0  0  0  0
   12.0401    1.6162   36.8966 C   0  0  0  0  0  0  0  0  0  0  0  0
   16.6594    3.4448   38.4194 C   0  0  0  0  0  0  0  0  0  0  0  0
   17.8531    2.7992   37.7479 C   0  0  0  0  0  0  0  0  0  0  0  0
   17.7744    2.3301   36.4301 C   0  0  0  0  0  0  0  0  0  0  0  0
   18.8776    1.7312   35.8091 C   0  0  0  0  0  0  0  0  0  0  0  0
   20.0767    1.5793   36.5019 C   0  0  0  0  0  0  0  0  0  0  0  0
   20.1564    2.0243   37.8218 C   0  0  0  0  0  0  0  0  0  0  0  0
   19.0569    2.6255   38.4414 C   0  0  0  0  0  0  0  0  0  0  0  0
   21.2239    1.0157   36.0159 O   0  0  0  0  0  0  0  0  0  0  0  0
   22.3381    0.9725   36.8990 C   0  0  0  0  0  0  0  0  0  0  0  0
 19 20  1  0
 20 18  1  0
 18 15  1  0
 15 16  1  0
 15 17  1  0
 15 14  1  0
 14  1  1  0
  1  2  1  0
  1  3  1  0
  3  4  1  0
  4  5  1  0
  4  6  1  0
  6  7  1  0
  6  8  1  0
  8  9  2  0
  8 10  1  0
 10 21  1  0
 21 22  1  0
 22 23  2  0
 23 24  1  0
 24 25  2  0
 25 28  1  0
 28 29  1  0
 25 26  1  0
 26 27  2  0
 10  1  1  0
 27 22  1  0
  2 11  1  0
  5 12  1  0
  7 13  1  0
M  END
> <minimizedAffinity>
-7.92182

> <CNNscore>
0.1965804845

> <CNNaffinity>
5.1360874176

> <CNN_VS>
1.0096545219

> <CNNaffinity_variance>
0.4136221111

$$$$



 29 30  0  0  0  0  0  0  0  0999 V2000
   19.2664    1.0066   40.6986 C   0  0  0  0  0  0  0  0  0  0  0  0
   18.7055   -0.2937   40.9464 O   0  0  0  0  0  0  0  0  0  0  0  0
   18.0747    1.8391   40.1457 C   0  0  0  0  0  0  0  0  0  0  0  0
   17.1514    2.4128   41.2239 C   0  0  0  0  0  0  0  0  0  0  0  0
   15.7954    2.4414   40.7522 O   0  0  0  0  0  0  0  0  0  0  0  0
   17.1960    1.6454   42.5437 C   0  0  0  0  0  0  0  0  0  0  0  0
   16.3571    2.3249   43.4776 O   0  0  0  0  0  0  0  0  0  0  0  0
   18.6376    1.5037   43.0545 C   0  0  0  0  0  0  0  0  0  0  0  0
   18.8863    1.2852   44.2436 O   0  0  0  0  0  0  0  0  0  0  0  0
   19.7806    1.5967   42.0349 C   0  0  0  0  0  0  0  0  0  0  0  0
   18.3810   -0.6700   40.1133 H   0  0  0  0  0  0  0  0  0  0  0  0
   15.4926    1.5355   40.5835 H   0  0  0  0  0  0  0  0  0  0  0  0
   16.6822    3.2298   43.6054 H   0  0  0  0  0  0  0  0  0  0  0  0
   20.2978    0.8554   39.5364 C   0  0  0  0  0  0  0  0  0  0  0  0
   20.2253    1.6544   38.1836 C   0  0  0  0  0  0  0  0  0  0  0  0
   20.8884    0.8610   37.0437 C   0  0  0  0  0  0  0  0  0  0  0  0
   21.0850    2.9254   38.3960 C   0  0  0  0  0  0  0  0  0  0  0  0
   18.7721    2.0363   37.7942 C   0  0  0  0  0  0  0  0  0  0  0  0
   17.1544    2.8927   36.0074 C   0  0  0  0  0  0  0  0  0  0  0  0
   18.4355    2.1216   36.2957 C   0  0  0  0  0  0  0  0  0  0  0  0
   20.3041    3.0470   41.9361 C   0  0  0  0  0  0  0  0  0  0  0  0
   21.7765    3.2214   42.2432 C   0  0  0  0  0  0  0  0  0  0  0  0
   22.7073    2.2304   41.9047 C   0  0  0  0  0  0  0  0  0  0  0  0
   24.0691    2.3903   42.1902 C   0  0  0  0  0  0  0  0  0  0  0  0
   24.5216    3.5410   42.8322 C   0  0  0  0  0  0  0  0  0  0  0  0
   23.5979    4.5227   43.1919 C   0  0  0  0  0  0  0  0  0  0  0  0
   22.2389    4.3657   42.9042 C   0  0  0  0  0  0  0  0  0  0  0  0
   25.8174    3.8216   43.1671 O   0  0  0  0  0  0  0  0  0  0  0  0
   26.1327    3.8223   44.5541 C   0  0  0  0  0  0  0  0  0  0  0  0
 19 20  1  0
 20 18  1  0
 18 15  1  0
 15 16  1  0
 15 17  1  0
 15 14  1  0
 14  1  1  0
  1  2  1  0
  1  3  1  0
  3  4  1  0
  4  5  1  0
  4  6  1  0
  6  7  1  0
  6  8  1  0
  8  9  2  0
  8 10  1  0
 10 21  1  0
 21 22  1  0
 22 23  2  0
 23 24  1  0
 24 25  2  0
 25 28  1  0
 28 29  1  0
 25 26  1  0
 26 27  2  0
 10  1  1  0
 27 22  1  0
  2 11  1  0
  5 12  1  0
  7 13  1  0
M  END
> <minimizedAffinity>
-5.13736

> <CNNscore>
0.1952845603

> <CNNaffinity>
3.5774867535

> <CNN_VS>
0.6986279488

> <CNNaffinity_variance>
1.0600148439

$$$$



 29 30  0  0  0  0  0  0  0  0999 V2000
   15.1239    3.2418   40.7857 C   0  0  0  0  0  0  0  0  0  0  0  0
   13.9558    3.4325   41.6018 O   0  0  0  0  0  0  0  0  0  0  0  0
   15.6171    4.6846   40.4792 C   0  0  0  0  0  0  0  0  0  0  0  0
   16.4627    5.3121   41.5906 C   0  0  0  0  0  0  0  0  0  0  0  0
   16.2221    6.7262   41.6589 O   0  0  0  0  0  0  0  0  0  0  0  0
   16.2142    4.7047   42.9697 C   0  0  0  0  0  0  0  0  0  0  0  0
   17.1140    5.3200   43.8913 O   0  0  0  0  0  0  0  0  0  0  0  0
   16.3695    3.1769   42.9391 C   0  0  0  0  0  0  0  0  0  0  0  0
   16.6025    2.5275   43.9626 O   0  0  0  0  0  0  0  0  0  0  0  0
   16.1830    2.4558   41.5974 C   0  0  0  0  0  0  0  0  0  0  0  0
   13.2874    3.9245   41.0997 H   0  0  0  0  0  0  0  0  0  0  0  0
   15.2948    6.8854   41.8948 H   0  0  0  0  0  0  0  0  0  0  0  0
   18.0277    5.1529   43.6116 H   0  0  0  0  0  0  0  0  0  0  0  0
   14.6510    2.6222   39.4330 C   0  0  0  0  0  0  0  0  0  0  0  0
   14.8213    3.3225   38.0350 C   0  0  0  0  0  0  0  0  0  0  0  0
   15.3231    4.7674   38.2047 C   0  0  0  0  0  0  0  0  0  0  0  0
   13.3973    3.4170   37.4325 C   0  0  0  0  0  0  0  0  0  0  0  0
   15.7652    2.5367   37.0859 C   0  0  0  0  0  0  0  0  0  0  0  0
   18.0459    2.2249   35.9704 C   0  0  0  0  0  0  0  0  0  0  0  0
   17.2337    2.9880   37.0082 C   0  0  0  0  0  0  0  0  0  0  0  0
   17.5406    2.2818   40.8807 C   0  0  0  0  0  0  0  0  0  0  0  0
   18.2111    0.9405   41.0907 C   0  0  0  0  0  0  0  0  0  0  0  0
   19.2857    0.5365   40.2875 C   0  0  0  0  0  0  0  0  0  0  0  0
   19.9050   -0.7048   40.4800 C   0  0  0  0  0  0  0  0  0  0  0  0
   19.4504   -1.5701   41.4728 C   0  0  0  0  0  0  0  0  0  0  0  0
   18.3670   -1.1840   42.2624 C   0  0  0  0  0  0  0  0  0  0  0  0
   17.7503    0.0562   42.0735 C   0  0  0  0  0  0  0  0  0  0  0  0
   19.9630   -2.8037   41.7649 O   0  0  0  0  0  0  0  0  0  0  0  0
   19.0244   -3.8499   41.9836 C   0  0  0  0  0  0  0  0  0  0  0  0
 19 20  1  0
 20 18  1  0
 18 15  1  0
 15 16  1  0
 15 17  1  0
 15 14  1  0
 14  1  1  0
  1  2  1  0
  1  3  1  0
  3  4  1  0
  4  5  1  0
  4  6  1  0
  6  7  1  0
  6  8  1  0
  8  9  2  0
  8 10  1  0
 10 21  1  0
 21 22  1  0
 22 23  2  0
 23 24  1  0
 24 25  2  0
 25 28  1  0
 28 29  1  0
 25 26  1  0
 26 27  2  0
 10  1  1  0
 27 22  1  0
  2 11  1  0
  5 12  1  0
  7 13  1  0
M  END
> <minimizedAffinity>
-6.97516

> <CNNscore>
0.1820555329

> <CNNaffinity>
4.0348629951

> <CNN_VS>
0.7345691323

> <CNNaffinity_variance>
1.1759623289

$$$$



 29 30  0  0  0  0  0  0  0  0999 V2000
   14.9303    3.4418   41.5366 C   0  0  0  0  0  0  0  0  0  0  0  0
   13.8043    3.7807   42.3636 O   0  0  0  0  0  0  0  0  0  0  0  0
   15.5955    4.8104   41.2150 C   0  0  0  0  0  0  0  0  0  0  0  0
   16.5250    5.3341   42.3131 C   0  0  0  0  0  0  0  0  0  0  0  0
   16.4626    6.7675   42.3742 O   0  0  0  0  0  0  0  0  0  0  0  0
   16.2185    4.7699   43.6989 C   0  0  0  0  0  0  0  0  0  0  0  0
   17.1981    5.2737   44.6068 O   0  0  0  0  0  0  0  0  0  0  0  0
   16.1824    3.2345   43.6771 C   0  0  0  0  0  0  0  0  0  0  0  0
   16.3445    2.5668   44.7026 O   0  0  0  0  0  0  0  0  0  0  0  0
   15.8927    2.5348   42.3425 C   0  0  0  0  0  0  0  0  0  0  0  0
   13.1965    4.3492   41.8652 H   0  0  0  0  0  0  0  0  0  0  0  0
   15.5650    7.0420   42.6188 H   0  0  0  0  0  0  0  0  0  0  0  0
   18.0807    4.9927   44.3187 H   0  0  0  0  0  0  0  0  0  0  0  0
   14.3689    2.8784   40.1932 C   0  0  0  0  0  0  0  0  0  0  0  0
   12.8367    2.7560   39.8601 C   0  0  0  0  0  0  0  0  0  0  0  0
   11.9827    3.3851   40.9751 C   0  0  0  0  0  0  0  0  0  0  0  0
   12.5222    1.2392   39.8648 C   0  0  0  0  0  0  0  0  0  0  0  0
   12.4729    3.3852   38.4885 C   0  0  0  0  0  0  0  0  0  0  0  0
   13.0915    2.2160   36.2993 C   0  0  0  0  0  0  0  0  0  0  0  0
   12.0260    2.4344   37.3650 C   0  0  0  0  0  0  0  0  0  0  0  0
   17.2100    2.1894   41.6128 C   0  0  0  0  0  0  0  0  0  0  0  0
   17.1970    2.4242   40.1170 C   0  0  0  0  0  0  0  0  0  0  0  0
   18.3680    2.3052   39.3569 C   0  0  0  0  0  0  0  0  0  0  0  0
   18.3569    2.5241   37.9736 C   0  0  0  0  0  0  0  0  0  0  0  0
   17.1745    2.8793   37.3282 C   0  0  0  0  0  0  0  0  0  0  0  0
   16.0088    3.0208   38.0816 C   0  0  0  0  0  0  0  0  0  0  0  0
   16.0179    2.7991   39.4618 C   0  0  0  0  0  0  0  0  0  0  0  0
   17.0262    3.1198   35.9903 O   0  0  0  0  0  0  0  0  0  0  0  0
   18.1521    2.8496   35.1642 C   0  0  0  0  0  0  0  0  0  0  0  0
 19 20  1  0
 20 18  1  0
 18 15  1  0
 15 16  1  0
 15 17  1  0
 15 14  1  0
 14  1  1  0
  1  2  1  0
  1  3  1  0
  3  4  1  0
  4  5  1  0
  4  6  1  0
  6  7  1  0
  6  8  1  0
  8  9  2  0
  8 10  1  0
 10 21  1  0
 21 22  1  0
 22 23  2  0
 23 24  1  0
 24 25  2  0
 25 28  1  0
 28 29  1  0
 25 26  1  0
 26 27  2  0
 10  1  1  0
 27 22  1  0
  2 11  1  0
  5 12  1  0
  7 13  1  0
M  END
> <minimizedAffinity>
-7.44022

> <CNNscore>
0.1777032614

> <CNNaffinity>
4.3786349297

> <CNN_VS>
0.7780976892

> <CNNaffinity_variance>
0.8603241444

$$$$
