


 60 64  0  0  0  0  0  0  0  0999 V2000
  -30.1166  -29.9678   16.8237 P   0  0  0  0  0  0  0  0  0  0  0  0
  -30.1858  -30.4933   15.4074 O   0  0  0  0  0  0  0  0  0  0  0  0
  -31.3810  -30.0235   17.6692 O   0  0  0  0  0  0  0  0  0  0  0  0
  -28.7689  -30.3330   17.5563 O   0  0  0  0  0  0  0  0  0  0  0  0
  -28.2517  -30.2977   19.0581 P   0  0  0  0  0  0  0  0  0  0  0  0
  -29.4468  -30.1428   19.9810 O   0  0  0  0  0  0  0  0  0  0  0  0
  -27.0770  -29.3757   19.2708 O   0  0  0  0  0  0  0  0  0  0  0  0
  -27.7066  -31.8174   19.2463 O   0  0  0  0  0  0  0  0  0  0  0  0
  -25.0552  -33.6927   18.3472 C   0  0  0  0  0  0  0  0  0  0  0  0
  -25.5274  -32.2522   18.3537 C   0  0  0  0  0  0  0  0  0  0  0  0
  -27.0159  -32.3391   18.1204 C   0  0  0  0  0  0  0  0  0  0  0  0
  -27.3140  -33.8233   17.9007 C   0  0  0  0  0  0  0  0  0  0  0  0
  -26.0420  -34.4747   17.6636 O   0  0  0  0  0  0  0  0  0  0  0  0
  -22.4962  -33.9712   14.1047 C   0  0  0  0  0  0  0  0  0  0  0  0
  -22.5821  -33.9617   15.5939 C   0  0  0  0  0  0  0  0  0  0  0  0
  -23.7299  -33.8699   16.2781 C   0  0  0  0  0  0  0  0  0  0  0  0
  -23.7697  -33.8577   17.6613 N   0  0  0  0  0  0  0  0  0  0  0  0
  -22.6116  -33.8741   18.4252 C   0  0  0  0  0  0  0  0  0  0  0  0
  -22.5779  -33.7877   19.6496 O   0  0  0  0  0  0  0  0  0  0  0  0
  -21.4369  -33.9943   17.7167 N   0  0  0  0  0  0  0  0  0  0  0  0
  -21.3182  -34.0498   16.3612 C   0  0  0  0  0  0  0  0  0  0  0  0
  -20.2305  -34.1705   15.8060 O   0  0  0  0  0  0  0  0  0  0  0  0
  -20.6043  -34.0449   18.2395 H   0  0  0  0  0  0  0  0  0  0  0  0
  -28.2165  -34.0729   16.6875 C   0  0  0  0  0  0  0  0  0  0  0  0
  -29.5675  -34.2113   17.1446 O   0  0  0  0  0  0  0  0  0  0  0  0
  -30.7031  -34.7258   16.1458 P   0  0  0  0  0  0  0  0  0  0  0  0
  -31.7214  -35.6280   16.7496 O   0  0  0  0  0  0  0  0  0  0  0  0
  -29.8744  -35.2951   14.9102 O   0  0  0  0  0  0  0  0  0  0  0  0
  -31.3104  -33.3589   15.5745 O   0  0  0  0  0  0  0  0  0  0  0  0
  -29.4602  -36.1363   15.1586 H   0  0  0  0  0  0  0  0  0  0  0  0
  -31.8411  -32.9282   16.2629 H   0  0  0  0  0  0  0  0  0  0  0  0
  -29.8713  -28.3591   16.6984 O   0  0  0  0  0  0  0  0  0  0  0  0
  -30.8896  -27.5616   16.1541 C   0  0  0  0  0  0  0  0  0  0  0  0
  -31.1780  -26.4035   17.1148 C   0  0  0  0  0  0  0  0  0  0  0  0
  -30.0175  -25.5389   17.1590 O   0  0  0  0  0  0  0  0  0  0  0  0
  -30.4356  -24.2105   16.7845 C   0  0  0  0  0  0  0  0  0  0  0  0
  -31.8197  -24.2935   16.1556 C   0  0  0  0  0  0  0  0  0  0  0  0
  -32.6105  -23.1186   16.3586 O   0  0  0  0  0  0  0  0  0  0  0  0
  -32.4020  -25.5491   16.7676 C   0  0  0  0  0  0  0  0  0  0  0  0
  -32.7151  -22.9596   17.3098 H   0  0  0  0  0  0  0  0  0  0  0  0
  -29.4510  -23.6664   15.8607 N   0  0  0  0  0  0  0  0  0  0  0  0
  -28.9495  -22.3822   15.8671 C   0  0  0  0  0  0  0  0  0  0  0  0
  -27.9900  -22.2204   14.9759 N   0  0  0  0  0  0  0  0  0  0  0  0
  -27.8496  -23.4613   14.3852 C   0  0  0  0  0  0  0  0  0  0  0  0
  -26.9693  -23.9355   13.3983 C   0  0  0  0  0  0  0  0  0  0  0  0
  -25.9991  -23.1300   12.8064 N   0  0  0  0  0  0  0  0  0  0  0  0
  -27.0882  -25.2187   12.9863 N   0  0  0  0  0  0  0  0  0  0  0  0
  -28.0383  -25.9757   13.5754 C   0  0  0  0  0  0  0  0  0  0  0  0
  -28.1712  -27.5767   12.9625 Cl  0  0  0  0  0  0  0  0  0  0  0  0
  -28.9272  -25.6496   14.5300 N   0  0  0  0  0  0  0  0  0  0  0  0
  -28.7676  -24.3652   14.8980 C   0  0  0  0  0  0  0  0  0  0  0  0
  -25.8960  -22.1934   13.0916 H   0  0  0  0  0  0  0  0  0  0  0  0
  -25.4165  -23.4973   12.1029 H   0  0  0  0  0  0  0  0  0  0  0  0
  -33.2016  -25.2973   17.9175 O   0  0  0  0  0  0  0  0  0  0  0  0
  -32.6275  -25.9381   19.2799 P   0  0  0  0  0  0  0  0  0  0  0  0
  -33.5681  -25.9988   20.4465 O   0  0  0  0  0  0  0  0  0  0  0  0
  -31.1638  -25.3482   19.5146 O   0  0  0  0  0  0  0  0  0  0  0  0
  -32.2512  -27.3998   18.7396 O   0  0  0  0  0  0  0  0  0  0  0  0
  -31.2310  -24.4411   19.8517 H   0  0  0  0  0  0  0  0  0  0  0  0
  -33.0643  -27.8928   18.5476 H   0  0  0  0  0  0  0  0  0  0  0  0
 14 15  1  0
 15 16  2  0
 16 17  1  0
  9 17  1  0
  9 10  1  0
 10 11  1  0
 11  8  1  0
  8  5  1  0
  5  6  2  0
  5  7  1  0
  5  4  1  0
  4  1  1  0
  1  2  2  0
  1  3  1  0
  1 32  1  0
 32 33  1  0
 34 33  1  0
 34 35  1  0
 35 36  1  0
 36 41  1  0
 41 42  1  0
 42 43  2  0
 43 44  1  0
 44 45  2  0
 45 46  1  0
 45 47  1  0
 47 48  2  0
 48 49  1  0
 48 50  1  0
 50 51  2  0
 36 37  1  0
 37 38  1  0
 37 39  1  0
 39 54  1  0
 54 55  1  0
 55 56  2  0
 55 57  1  0
 55 58  1  0
 11 12  1  0
 12 24  1  0
 24 25  1  0
 25 26  1  0
 26 27  2  0
 26 28  1  0
 26 29  1  0
 12 13  1  0
 17 18  1  0
 18 19  2  0
 18 20  1  0
 20 21  1  0
 21 22  2  0
 21 15  1  0
 13  9  1  0
 39 34  1  0
 51 41  1  0
 51 44  1  0
 46 52  1  0
 46 53  1  0
 38 40  1  0
 57 59  1  0
 58 60  1  0
 28 30  1  0
 29 31  1  0
 20 23  1  0
M  CHG 1   3  -1
M  CHG 1   7  -1
M  END
> <minimizedAffinity>
-9.31672

> <CNNscore>
0.8422015309

> <CNNaffinity>
5.9093074799

> <CNN_VS>
4.9768276215

> <CNNaffinity_variance>
0.8856088519

$$$$



 60 64  0  0  0  0  0  0  0  0999 V2000
  -29.0769  -29.2272   19.1483 P   0  0  0  0  0  0  0  0  0  0  0  0
  -29.9103  -28.8805   20.3615 O   0  0  0  0  0  0  0  0  0  0  0  0
  -27.5683  -29.3289   19.3228 O   0  0  0  0  0  0  0  0  0  0  0  0
  -29.7486  -30.3134   18.2234 O   0  0  0  0  0  0  0  0  0  0  0  0
  -29.2435  -31.2980   17.0835 P   0  0  0  0  0  0  0  0  0  0  0  0
  -28.6266  -30.4747   15.9673 O   0  0  0  0  0  0  0  0  0  0  0  0
  -30.2547  -32.3503   16.7024 O   0  0  0  0  0  0  0  0  0  0  0  0
  -28.0208  -32.0605   17.8357 O   0  0  0  0  0  0  0  0  0  0  0  0
  -25.0987  -33.7379   17.7846 C   0  0  0  0  0  0  0  0  0  0  0  0
  -25.6537  -32.3389   17.6036 C   0  0  0  0  0  0  0  0  0  0  0  0
  -27.0067  -32.5460   16.9680 C   0  0  0  0  0  0  0  0  0  0  0  0
  -27.1261  -34.0525   16.7314 C   0  0  0  0  0  0  0  0  0  0  0  0
  -25.7963  -34.6064   16.8837 O   0  0  0  0  0  0  0  0  0  0  0  0
  -21.4215  -33.6405   14.4539 C   0  0  0  0  0  0  0  0  0  0  0  0
  -21.9305  -33.7365   15.8529 C   0  0  0  0  0  0  0  0  0  0  0  0
  -23.2293  -33.7292   16.1802 C   0  0  0  0  0  0  0  0  0  0  0  0
  -23.6640  -33.8137   17.4912 N   0  0  0  0  0  0  0  0  0  0  0  0
  -22.7738  -33.8456   18.5550 C   0  0  0  0  0  0  0  0  0  0  0  0
  -23.0965  -33.8429   19.7398 O   0  0  0  0  0  0  0  0  0  0  0  0
  -21.4410  -33.8787   18.2105 N   0  0  0  0  0  0  0  0  0  0  0  0
  -20.9365  -33.8367   16.9464 C   0  0  0  0  0  0  0  0  0  0  0  0
  -19.7307  -33.8837   16.7233 O   0  0  0  0  0  0  0  0  0  0  0  0
  -20.7914  -33.9385   18.9479 H   0  0  0  0  0  0  0  0  0  0  0  0
  -27.6316  -34.3930   15.3253 C   0  0  0  0  0  0  0  0  0  0  0  0
  -26.6309  -35.1705   14.6564 O   0  0  0  0  0  0  0  0  0  0  0  0
  -26.8636  -36.7306   14.4041 P   0  0  0  0  0  0  0  0  0  0  0  0
  -26.2952  -37.2625   13.1354 O   0  0  0  0  0  0  0  0  0  0  0  0
  -28.4312  -36.9081   14.6247 O   0  0  0  0  0  0  0  0  0  0  0  0
  -26.2362  -37.3939   15.7195 O   0  0  0  0  0  0  0  0  0  0  0  0
  -28.9087  -36.5316   13.8690 H   0  0  0  0  0  0  0  0  0  0  0  0
  -25.2688  -37.3355   15.6812 H   0  0  0  0  0  0  0  0  0  0  0  0
  -29.2088  -27.9581   18.1306 O   0  0  0  0  0  0  0  0  0  0  0  0
  -30.4306  -27.7432   17.4746 C   0  0  0  0  0  0  0  0  0  0  0  0
  -31.0182  -26.4096   17.9474 C   0  0  0  0  0  0  0  0  0  0  0  0
  -30.0106  -25.3808   17.7973 O   0  0  0  0  0  0  0  0  0  0  0  0
  -30.5518  -24.3454   16.9519 C   0  0  0  0  0  0  0  0  0  0  0  0
  -31.8020  -24.8789   16.2661 C   0  0  0  0  0  0  0  0  0  0  0  0
  -32.7718  -23.8669   15.9790 O   0  0  0  0  0  0  0  0  0  0  0  0
  -32.2855  -25.9525   17.2168 C   0  0  0  0  0  0  0  0  0  0  0  0
  -33.0372  -23.4302   16.8035 H   0  0  0  0  0  0  0  0  0  0  0  0
  -29.5281  -23.9599   15.9915 N   0  0  0  0  0  0  0  0  0  0  0  0
  -28.8733  -22.7477   15.9405 C   0  0  0  0  0  0  0  0  0  0  0  0
  -27.9205  -22.7370   15.0278 N   0  0  0  0  0  0  0  0  0  0  0  0
  -27.9456  -24.0061   14.4825 C   0  0  0  0  0  0  0  0  0  0  0  0
  -27.1511  -24.6200   13.4996 C   0  0  0  0  0  0  0  0  0  0  0  0
  -26.1026  -23.9616   12.8612 N   0  0  0  0  0  0  0  0  0  0  0  0
  -27.4349  -25.8928   13.1390 N   0  0  0  0  0  0  0  0  0  0  0  0
  -28.4576  -26.5056   13.7724 C   0  0  0  0  0  0  0  0  0  0  0  0
  -28.7983  -28.0990   13.2234 Cl  0  0  0  0  0  0  0  0  0  0  0  0
  -29.2793  -26.0388   14.7288 N   0  0  0  0  0  0  0  0  0  0  0  0
  -28.9559  -24.7713   15.0448 C   0  0  0  0  0  0  0  0  0  0  0  0
  -25.8797  -23.0352   13.1087 H   0  0  0  0  0  0  0  0  0  0  0  0
  -25.5846  -24.4227   12.1625 H   0  0  0  0  0  0  0  0  0  0  0  0
  -33.2737  -25.4921   18.1314 O   0  0  0  0  0  0  0  0  0  0  0  0
  -32.8664  -25.6450   19.6829 P   0  0  0  0  0  0  0  0  0  0  0  0
  -33.9896  -25.6710   20.6766 O   0  0  0  0  0  0  0  0  0  0  0  0
  -31.6312  -24.6735   19.9585 O   0  0  0  0  0  0  0  0  0  0  0  0
  -32.0996  -27.0511   19.6116 O   0  0  0  0  0  0  0  0  0  0  0  0
  -31.9480  -23.7594   20.0281 H   0  0  0  0  0  0  0  0  0  0  0  0
  -32.7398  -27.7603   19.4440 H   0  0  0  0  0  0  0  0  0  0  0  0
 14 15  1  0
 15 16  2  0
 16 17  1  0
  9 17  1  0
  9 10  1  0
 10 11  1  0
 11  8  1  0
  8  5  1  0
  5  6  2  0
  5  7  1  0
  5  4  1  0
  4  1  1  0
  1  2  2  0
  1  3  1  0
  1 32  1  0
 32 33  1  0
 34 33  1  0
 34 35  1  0
 35 36  1  0
 36 41  1  0
 41 42  1  0
 42 43  2  0
 43 44  1  0
 44 45  2  0
 45 46  1  0
 45 47  1  0
 47 48  2  0
 48 49  1  0
 48 50  1  0
 50 51  2  0
 36 37  1  0
 37 38  1  0
 37 39  1  0
 39 54  1  0
 54 55  1  0
 55 56  2  0
 55 57  1  0
 55 58  1  0
 11 12  1  0
 12 24  1  0
 24 25  1  0
 25 26  1  0
 26 27  2  0
 26 28  1  0
 26 29  1  0
 12 13  1  0
 17 18  1  0
 18 19  2  0
 18 20  1  0
 20 21  1  0
 21 22  2  0
 21 15  1  0
 13  9  1  0
 39 34  1  0
 51 41  1  0
 51 44  1  0
 46 52  1  0
 46 53  1  0
 38 40  1  0
 57 59  1  0
 58 60  1  0
 28 30  1  0
 29 31  1  0
 20 23  1  0
M  CHG 1   3  -1
M  CHG 1   7  -1
M  END
> <minimizedAffinity>
-9.02297

> <CNNscore>
0.7552672625

> <CNNaffinity>
6.0188145638

> <CNN_VS>
4.5458135605

> <CNNaffinity_variance>
0.5622735023

$$$$



 60 64  0  0  0  0  0  0  0  0999 V2000
  -29.8910  -29.6186   18.5162 P   0  0  0  0  0  0  0  0  0  0  0  0
  -31.2914  -29.8935   18.0161 O   0  0  0  0  0  0  0  0  0  0  0  0
  -29.7120  -29.2794   19.9891 O   0  0  0  0  0  0  0  0  0  0  0  0
  -28.8067  -30.5713   17.8812 O   0  0  0  0  0  0  0  0  0  0  0  0
  -27.4956  -31.3005   18.4039 P   0  0  0  0  0  0  0  0  0  0  0  0
  -27.8793  -32.2445   19.5290 O   0  0  0  0  0  0  0  0  0  0  0  0
  -26.3365  -30.3641   18.6386 O   0  0  0  0  0  0  0  0  0  0  0  0
  -27.1106  -32.2262   17.1245 O   0  0  0  0  0  0  0  0  0  0  0  0
  -24.1848  -33.7835   16.5170 C   0  0  0  0  0  0  0  0  0  0  0  0
  -24.8058  -32.7785   17.4669 C   0  0  0  0  0  0  0  0  0  0  0  0
  -25.7988  -32.0194   16.6213 C   0  0  0  0  0  0  0  0  0  0  0  0
  -25.6355  -32.5654   15.2017 C   0  0  0  0  0  0  0  0  0  0  0  0
  -24.3938  -33.3111   15.1807 O   0  0  0  0  0  0  0  0  0  0  0  0
  -19.5452  -33.3959   14.7999 C   0  0  0  0  0  0  0  0  0  0  0  0
  -20.5312  -33.7184   15.8718 C   0  0  0  0  0  0  0  0  0  0  0  0
  -21.8594  -33.6440   15.7157 C   0  0  0  0  0  0  0  0  0  0  0  0
  -22.7440  -33.9453   16.7363 N   0  0  0  0  0  0  0  0  0  0  0  0
  -22.3039  -34.2813   18.0085 C   0  0  0  0  0  0  0  0  0  0  0  0
  -23.0362  -34.4837   18.9732 O   0  0  0  0  0  0  0  0  0  0  0  0
  -20.9383  -34.3809   18.1552 N   0  0  0  0  0  0  0  0  0  0  0  0
  -20.0068  -34.1376   17.1921 C   0  0  0  0  0  0  0  0  0  0  0  0
  -18.8041  -34.2621   17.4015 O   0  0  0  0  0  0  0  0  0  0  0  0
  -20.6038  -34.6539   19.0400 H   0  0  0  0  0  0  0  0  0  0  0  0
  -25.5496  -31.4568   14.1470 C   0  0  0  0  0  0  0  0  0  0  0  0
  -24.8047  -31.9497   13.0265 O   0  0  0  0  0  0  0  0  0  0  0  0
  -23.5585  -31.1224   12.4658 P   0  0  0  0  0  0  0  0  0  0  0  0
  -23.5609  -30.8848   10.9964 O   0  0  0  0  0  0  0  0  0  0  0  0
  -22.3035  -31.8942   13.0715 O   0  0  0  0  0  0  0  0  0  0  0  0
  -23.6114  -29.7795   13.3361 O   0  0  0  0  0  0  0  0  0  0  0  0
  -22.1846  -32.7355   12.6036 H   0  0  0  0  0  0  0  0  0  0  0  0
  -24.3546  -29.2312   13.0398 H   0  0  0  0  0  0  0  0  0  0  0  0
  -29.4168  -28.2329   17.7961 O   0  0  0  0  0  0  0  0  0  0  0  0
  -30.2996  -27.5963   16.9102 C   0  0  0  0  0  0  0  0  0  0  0  0
  -30.8843  -26.3587   17.5984 C   0  0  0  0  0  0  0  0  0  0  0  0
  -29.9029  -25.2953   17.5500 O   0  0  0  0  0  0  0  0  0  0  0  0
  -30.5038  -24.1625   16.8901 C   0  0  0  0  0  0  0  0  0  0  0  0
  -31.7785  -24.6218   16.1956 C   0  0  0  0  0  0  0  0  0  0  0  0
  -32.7784  -23.6025   16.1049 O   0  0  0  0  0  0  0  0  0  0  0  0
  -32.1948  -25.8318   17.0036 C   0  0  0  0  0  0  0  0  0  0  0  0
  -33.0084  -23.2949   16.9956 H   0  0  0  0  0  0  0  0  0  0  0  0
  -29.5372  -23.6191   15.9471 N   0  0  0  0  0  0  0  0  0  0  0  0
  -29.0395  -22.3334   15.9398 C   0  0  0  0  0  0  0  0  0  0  0  0
  -28.0962  -22.1721   15.0314 N   0  0  0  0  0  0  0  0  0  0  0  0
  -27.9625  -23.4148   14.4430 C   0  0  0  0  0  0  0  0  0  0  0  0
  -27.0981  -23.8902   13.4426 C   0  0  0  0  0  0  0  0  0  0  0  0
  -26.1409  -23.0841   12.8308 N   0  0  0  0  0  0  0  0  0  0  0  0
  -27.2203  -25.1754   13.0376 N   0  0  0  0  0  0  0  0  0  0  0  0
  -28.1577  -25.9329   13.6461 C   0  0  0  0  0  0  0  0  0  0  0  0
  -28.2965  -27.5367   13.0417 Cl  0  0  0  0  0  0  0  0  0  0  0  0
  -29.0307  -25.6058   14.6149 N   0  0  0  0  0  0  0  0  0  0  0  0
  -28.8685  -24.3195   14.9752 C   0  0  0  0  0  0  0  0  0  0  0  0
  -26.0356  -22.1461   13.1106 H   0  0  0  0  0  0  0  0  0  0  0  0
  -25.5696  -23.4524   12.1186 H   0  0  0  0  0  0  0  0  0  0  0  0
  -33.1423  -25.5310   18.0217 O   0  0  0  0  0  0  0  0  0  0  0  0
  -32.4931  -25.2204   19.4635 P   0  0  0  0  0  0  0  0  0  0  0  0
  -31.9242  -23.8476   19.6664 O   0  0  0  0  0  0  0  0  0  0  0  0
  -31.6045  -26.4793   19.8770 O   0  0  0  0  0  0  0  0  0  0  0  0
  -33.7787  -25.4764   20.3865 O   0  0  0  0  0  0  0  0  0  0  0  0
  -30.7687  -26.4607   19.3851 H   0  0  0  0  0  0  0  0  0  0  0  0
  -34.4274  -24.7702   20.2404 H   0  0  0  0  0  0  0  0  0  0  0  0
 14 15  1  0
 15 16  2  0
 16 17  1  0
  9 17  1  0
  9 10  1  0
 10 11  1  0
 11  8  1  0
  8  5  1  0
  5  6  2  0
  5  7  1  0
  5  4  1  0
  4  1  1  0
  1  2  2  0
  1  3  1  0
  1 32  1  0
 32 33  1  0
 34 33  1  0
 34 35  1  0
 35 36  1  0
 36 41  1  0
 41 42  1  0
 42 43  2  0
 43 44  1  0
 44 45  2  0
 45 46  1  0
 45 47  1  0
 47 48  2  0
 48 49  1  0
 48 50  1  0
 50 51  2  0
 36 37  1  0
 37 38  1  0
 37 39  1  0
 39 54  1  0
 54 55  1  0
 55 56  2  0
 55 57  1  0
 55 58  1  0
 11 12  1  0
 12 24  1  0
 24 25  1  0
 25 26  1  0
 26 27  2  0
 26 28  1  0
 26 29  1  0
 12 13  1  0
 17 18  1  0
 18 19  2  0
 18 20  1  0
 20 21  1  0
 21 22  2  0
 21 15  1  0
 13  9  1  0
 39 34  1  0
 51 41  1  0
 51 44  1  0
 46 52  1  0
 46 53  1  0
 38 40  1  0
 57 59  1  0
 58 60  1  0
 28 30  1  0
 29 31  1  0
 20 23  1  0
M  CHG 1   3  -1
M  CHG 1   7  -1
M  END
> <minimizedAffinity>
-9.79065

> <CNNscore>
0.6803796291

> <CNNaffinity>
6.0901427269

> <CNN_VS>
4.1436090469

> <CNNaffinity_variance>
0.3931500018

$$$$



 60 64  0  0  0  0  0  0  0  0999 V2000
  -29.5626  -30.0914   19.0687 P   0  0  0  0  0  0  0  0  0  0  0  0
  -30.3486  -31.3676   19.2690 O   0  0  0  0  0  0  0  0  0  0  0  0
  -29.4425  -29.1339   20.2458 O   0  0  0  0  0  0  0  0  0  0  0  0
  -28.2651  -30.2919   18.1953 O   0  0  0  0  0  0  0  0  0  0  0  0
  -27.4935  -31.5393   17.5848 P   0  0  0  0  0  0  0  0  0  0  0  0
  -28.0658  -32.8088   18.1889 O   0  0  0  0  0  0  0  0  0  0  0  0
  -25.9937  -31.3788   17.5805 O   0  0  0  0  0  0  0  0  0  0  0  0
  -27.9835  -31.4938   16.0356 O   0  0  0  0  0  0  0  0  0  0  0  0
  -25.1755  -31.8575   14.2086 C   0  0  0  0  0  0  0  0  0  0  0  0
  -26.6640  -31.6241   14.0415 C   0  0  0  0  0  0  0  0  0  0  0  0
  -27.2989  -32.3923   15.1748 C   0  0  0  0  0  0  0  0  0  0  0  0
  -26.1480  -33.1053   15.8867 C   0  0  0  0  0  0  0  0  0  0  0  0
  -25.0031  -33.0381   15.0017 O   0  0  0  0  0  0  0  0  0  0  0  0
  -24.4425  -34.6099   10.1451 C   0  0  0  0  0  0  0  0  0  0  0  0
  -24.1920  -33.3992   10.9798 C   0  0  0  0  0  0  0  0  0  0  0  0
  -24.7427  -33.1910   12.1829 C   0  0  0  0  0  0  0  0  0  0  0  0
  -24.4914  -32.0511   12.9261 N   0  0  0  0  0  0  0  0  0  0  0  0
  -23.7010  -31.0206   12.4379 C   0  0  0  0  0  0  0  0  0  0  0  0
  -23.5035  -29.9547   13.0146 O   0  0  0  0  0  0  0  0  0  0  0  0
  -23.1176  -31.2520   11.2122 N   0  0  0  0  0  0  0  0  0  0  0  0
  -23.2855  -32.3602   10.4388 C   0  0  0  0  0  0  0  0  0  0  0  0
  -22.7169  -32.4948    9.3597 O   0  0  0  0  0  0  0  0  0  0  0  0
  -22.5229  -30.5500   10.8620 H   0  0  0  0  0  0  0  0  0  0  0  0
  -26.4508  -34.5804   16.1715 C   0  0  0  0  0  0  0  0  0  0  0  0
  -27.2745  -35.0894   15.1152 O   0  0  0  0  0  0  0  0  0  0  0  0
  -26.9915  -36.5383   14.5050 P   0  0  0  0  0  0  0  0  0  0  0  0
  -26.1919  -37.4486   15.3696 O   0  0  0  0  0  0  0  0  0  0  0  0
  -26.4089  -36.2192   13.0572 O   0  0  0  0  0  0  0  0  0  0  0  0
  -28.4657  -37.0781   14.1903 O   0  0  0  0  0  0  0  0  0  0  0  0
  -25.5038  -35.8804   13.1403 H   0  0  0  0  0  0  0  0  0  0  0  0
  -28.9118  -37.3038   15.0216 H   0  0  0  0  0  0  0  0  0  0  0  0
  -30.4131  -29.1987   17.9995 O   0  0  0  0  0  0  0  0  0  0  0  0
  -29.8501  -28.0078   17.5159 C   0  0  0  0  0  0  0  0  0  0  0  0
  -30.7367  -26.8328   17.9407 C   0  0  0  0  0  0  0  0  0  0  0  0
  -29.9762  -25.6078   17.8091 O   0  0  0  0  0  0  0  0  0  0  0  0
  -30.6979  -24.7269   16.9244 C   0  0  0  0  0  0  0  0  0  0  0  0
  -31.7702  -25.5312   16.2024 C   0  0  0  0  0  0  0  0  0  0  0  0
  -32.9271  -24.7623   15.8599 O   0  0  0  0  0  0  0  0  0  0  0  0
  -32.0429  -26.6754   17.1546 C   0  0  0  0  0  0  0  0  0  0  0  0
  -33.3159  -24.3868   16.6654 H   0  0  0  0  0  0  0  0  0  0  0  0
  -29.7464  -24.1339   15.9959 N   0  0  0  0  0  0  0  0  0  0  0  0
  -29.2862  -22.8346   16.0193 C   0  0  0  0  0  0  0  0  0  0  0  0
  -28.3469  -22.6250   15.1166 N   0  0  0  0  0  0  0  0  0  0  0  0
  -28.1767  -23.8494   14.4997 C   0  0  0  0  0  0  0  0  0  0  0  0
  -27.2978  -24.2762   13.4901 C   0  0  0  0  0  0  0  0  0  0  0  0
  -26.3637  -23.4288   12.8988 N   0  0  0  0  0  0  0  0  0  0  0  0
  -27.3824  -25.5546   13.0552 N   0  0  0  0  0  0  0  0  0  0  0  0
  -28.2981  -26.3528   13.6444 C   0  0  0  0  0  0  0  0  0  0  0  0
  -28.3897  -27.9455   13.0027 Cl  0  0  0  0  0  0  0  0  0  0  0  0
  -29.1812  -26.0737   14.6190 N   0  0  0  0  0  0  0  0  0  0  0  0
  -29.0567  -24.7919   15.0093 C   0  0  0  0  0  0  0  0  0  0  0  0
  -26.2859  -22.4949   13.2005 H   0  0  0  0  0  0  0  0  0  0  0  0
  -25.7812  -23.7638   12.1793 H   0  0  0  0  0  0  0  0  0  0  0  0
  -33.1449  -26.4362   18.0225 O   0  0  0  0  0  0  0  0  0  0  0  0
  -34.3562  -27.4870   17.8641 P   0  0  0  0  0  0  0  0  0  0  0  0
  -34.0419  -28.9269   18.1421 O   0  0  0  0  0  0  0  0  0  0  0  0
  -35.1394  -27.1262   16.5217 O   0  0  0  0  0  0  0  0  0  0  0  0
  -35.3702  -26.8775   18.9461 O   0  0  0  0  0  0  0  0  0  0  0  0
  -34.6329  -27.4419   15.7571 H   0  0  0  0  0  0  0  0  0  0  0  0
  -35.0184  -27.0250   19.8379 H   0  0  0  0  0  0  0  0  0  0  0  0
 14 15  1  0
 15 16  2  0
 16 17  1  0
  9 17  1  0
  9 10  1  0
 10 11  1  0
 11  8  1  0
  8  5  1  0
  5  6  2  0
  5  7  1  0
  5  4  1  0
  4  1  1  0
  1  2  2  0
  1  3  1  0
  1 32  1  0
 32 33  1  0
 34 33  1  0
 34 35  1  0
 35 36  1  0
 36 41  1  0
 41 42  1  0
 42 43  2  0
 43 44  1  0
 44 45  2  0
 45 46  1  0
 45 47  1  0
 47 48  2  0
 48 49  1  0
 48 50  1  0
 50 51  2  0
 36 37  1  0
 37 38  1  0
 37 39  1  0
 39 54  1  0
 54 55  1  0
 55 56  2  0
 55 57  1  0
 55 58  1  0
 11 12  1  0
 12 24  1  0
 24 25  1  0
 25 26  1  0
 26 27  2  0
 26 28  1  0
 26 29  1  0
 12 13  1  0
 17 18  1  0
 18 19  2  0
 18 20  1  0
 20 21  1  0
 21 22  2  0
 21 15  1  0
 13  9  1  0
 39 34  1  0
 51 41  1  0
 51 44  1  0
 46 52  1  0
 46 53  1  0
 38 40  1  0
 57 59  1  0
 58 60  1  0
 28 30  1  0
 29 31  1  0
 20 23  1  0
M  CHG 1   3  -1
M  CHG 1   7  -1
M  END
> <minimizedAffinity>
-7.39903

> <CNNscore>
0.5260406137

> <CNNaffinity>
6.1769185066

> <CNN_VS>
3.2493100166

> <CNNaffinity_variance>
0.0218580365

$$$$



 60 64  0  0  0  0  0  0  0  0999 V2000
  -27.5752  -34.3319   11.9773 P   0  0  0  0  0  0  0  0  0  0  0  0
  -27.3279  -35.4895   11.0363 O   0  0  0  0  0  0  0  0  0  0  0  0
  -28.8878  -33.5725   11.8464 O   0  0  0  0  0  0  0  0  0  0  0  0
  -27.0696  -34.6063   13.4455 O   0  0  0  0  0  0  0  0  0  0  0  0
  -25.8008  -35.3105   14.0923 P   0  0  0  0  0  0  0  0  0  0  0  0
  -25.0063  -35.9887   12.9910 O   0  0  0  0  0  0  0  0  0  0  0  0
  -26.1213  -36.1181   15.3253 O   0  0  0  0  0  0  0  0  0  0  0  0
  -24.9311  -34.0251   14.5758 O   0  0  0  0  0  0  0  0  0  0  0  0
  -21.8311  -33.4096   15.7444 C   0  0  0  0  0  0  0  0  0  0  0  0
  -22.6624  -34.5304   15.1520 C   0  0  0  0  0  0  0  0  0  0  0  0
  -24.0588  -34.2809   15.6669 C   0  0  0  0  0  0  0  0  0  0  0  0
  -23.9448  -33.0782   16.6052 C   0  0  0  0  0  0  0  0  0  0  0  0
  -22.5346  -32.8958   16.8818 O   0  0  0  0  0  0  0  0  0  0  0  0
  -16.9040  -33.3554   15.1567 C   0  0  0  0  0  0  0  0  0  0  0  0
  -18.1417  -33.7863   15.8692 C   0  0  0  0  0  0  0  0  0  0  0  0
  -19.3812  -33.4505   15.4887 C   0  0  0  0  0  0  0  0  0  0  0  0
  -20.5066  -33.8643   16.1794 N   0  0  0  0  0  0  0  0  0  0  0  0
  -20.4141  -34.6016   17.3511 C   0  0  0  0  0  0  0  0  0  0  0  0
  -21.3689  -34.9321   18.0489 O   0  0  0  0  0  0  0  0  0  0  0  0
  -19.1389  -34.9650   17.7225 N   0  0  0  0  0  0  0  0  0  0  0  0
  -17.9876  -34.6296   17.0771 C   0  0  0  0  0  0  0  0  0  0  0  0
  -16.8871  -35.0063   17.4680 O   0  0  0  0  0  0  0  0  0  0  0  0
  -19.0512  -35.5198   18.5311 H   0  0  0  0  0  0  0  0  0  0  0  0
  -24.6728  -33.2943   17.9364 C   0  0  0  0  0  0  0  0  0  0  0  0
  -25.0579  -32.0167   18.4585 O   0  0  0  0  0  0  0  0  0  0  0  0
  -26.5514  -31.4861   18.2590 P   0  0  0  0  0  0  0  0  0  0  0  0
  -27.0827  -31.5853   16.8721 O   0  0  0  0  0  0  0  0  0  0  0  0
  -26.5167  -30.0363   18.9181 O   0  0  0  0  0  0  0  0  0  0  0  0
  -27.3738  -32.3493   19.3278 O   0  0  0  0  0  0  0  0  0  0  0  0
  -26.0321  -29.4288   18.3377 H   0  0  0  0  0  0  0  0  0  0  0  0
  -27.4516  -33.2638   19.0138 H   0  0  0  0  0  0  0  0  0  0  0  0
  -26.4858  -33.1838   11.5792 O   0  0  0  0  0  0  0  0  0  0  0  0
  -26.4884  -31.9749   12.2918 C   0  0  0  0  0  0  0  0  0  0  0  0
  -25.7607  -30.9109   11.4639 C   0  0  0  0  0  0  0  0  0  0  0  0
  -24.6038  -31.5199   10.8417 O   0  0  0  0  0  0  0  0  0  0  0  0
  -24.7134  -31.3333    9.4159 C   0  0  0  0  0  0  0  0  0  0  0  0
  -26.1353  -30.8986    9.0883 C   0  0  0  0  0  0  0  0  0  0  0  0
  -26.2242  -30.0614    7.9314 O   0  0  0  0  0  0  0  0  0  0  0  0
  -26.5988  -30.2406   10.3698 C   0  0  0  0  0  0  0  0  0  0  0  0
  -25.6839  -29.2670    8.0649 H   0  0  0  0  0  0  0  0  0  0  0  0
  -24.3651  -32.5874    8.7642 N   0  0  0  0  0  0  0  0  0  0  0  0
  -25.2292  -33.4222    8.0881 C   0  0  0  0  0  0  0  0  0  0  0  0
  -24.5980  -34.4271    7.5112 N   0  0  0  0  0  0  0  0  0  0  0  0
  -23.2651  -34.2182    7.8081 C   0  0  0  0  0  0  0  0  0  0  0  0
  -22.1029  -34.9194    7.4455 C   0  0  0  0  0  0  0  0  0  0  0  0
  -22.1310  -36.0563    6.6410 N   0  0  0  0  0  0  0  0  0  0  0  0
  -20.9115  -34.4890    7.9207 N   0  0  0  0  0  0  0  0  0  0  0  0
  -20.9142  -33.3863    8.6998 C   0  0  0  0  0  0  0  0  0  0  0  0
  -19.3745  -32.9309    9.3150 Cl  0  0  0  0  0  0  0  0  0  0  0  0
  -21.9445  -32.6244    9.1069 N   0  0  0  0  0  0  0  0  0  0  0  0
  -23.1016  -33.0992    8.6103 C   0  0  0  0  0  0  0  0  0  0  0  0
  -22.9874  -36.3863    6.2849 H   0  0  0  0  0  0  0  0  0  0  0  0
  -21.2944  -36.5298    6.4285 H   0  0  0  0  0  0  0  0  0  0  0  0
  -26.4231  -28.8285   10.3740 O   0  0  0  0  0  0  0  0  0  0  0  0
  -26.3448  -28.1726   11.8438 P   0  0  0  0  0  0  0  0  0  0  0  0
  -26.5293  -26.6867   11.9310 O   0  0  0  0  0  0  0  0  0  0  0  0
  -25.1049  -28.8296   12.6031 O   0  0  0  0  0  0  0  0  0  0  0  0
  -27.5484  -28.9659   12.5454 O   0  0  0  0  0  0  0  0  0  0  0  0
  -24.2804  -28.4379   12.2750 H   0  0  0  0  0  0  0  0  0  0  0  0
  -28.3930  -28.6649   12.1755 H   0  0  0  0  0  0  0  0  0  0  0  0
 14 15  1  0
 15 16  2  0
 16 17  1  0
  9 17  1  0
  9 10  1  0
 10 11  1  0
 11  8  1  0
  8  5  1  0
  5  6  2  0
  5  7  1  0
  5  4  1  0
  4  1  1  0
  1  2  2  0
  1  3  1  0
  1 32  1  0
 32 33  1  0
 34 33  1  0
 34 35  1  0
 35 36  1  0
 36 41  1  0
 41 42  1  0
 42 43  2  0
 43 44  1  0
 44 45  2  0
 45 46  1  0
 45 47  1  0
 47 48  2  0
 48 49  1  0
 48 50  1  0
 50 51  2  0
 36 37  1  0
 37 38  1  0
 37 39  1  0
 39 54  1  0
 54 55  1  0
 55 56  2  0
 55 57  1  0
 55 58  1  0
 11 12  1  0
 12 24  1  0
 24 25  1  0
 25 26  1  0
 26 27  2  0
 26 28  1  0
 26 29  1  0
 12 13  1  0
 17 18  1  0
 18 19  2  0
 18 20  1  0
 20 21  1  0
 21 22  2  0
 21 15  1  0
 13  9  1  0
 39 34  1  0
 51 41  1  0
 51 44  1  0
 46 52  1  0
 46 53  1  0
 38 40  1  0
 57 59  1  0
 58 60  1  0
 28 30  1  0
 29 31  1  0
 20 23  1  0
M  CHG 1   3  -1
M  CHG 1   7  -1
M  END
> <minimizedAffinity>
-8.30611

> <CNNscore>
0.5200232267

> <CNNaffinity>
6.1762986183

> <CNN_VS>
3.2118186951

> <CNNaffinity_variance>
0.4973759651

$$$$



 60 64  0  0  0  0  0  0  0  0999 V2000
  -29.2558  -30.0010   18.5330 P   0  0  0  0  0  0  0  0  0  0  0  0
  -30.1194  -30.9652   19.3147 O   0  0  0  0  0  0  0  0  0  0  0  0
  -28.7387  -28.7620   19.2501 O   0  0  0  0  0  0  0  0  0  0  0  0
  -28.2426  -30.7212   17.5628 O   0  0  0  0  0  0  0  0  0  0  0  0
  -28.3593  -31.8015   16.4037 P   0  0  0  0  0  0  0  0  0  0  0  0
  -27.9672  -31.1500   15.0900 O   0  0  0  0  0  0  0  0  0  0  0  0
  -29.6448  -32.5896   16.4397 O   0  0  0  0  0  0  0  0  0  0  0  0
  -27.1597  -32.8256   16.7967 O   0  0  0  0  0  0  0  0  0  0  0  0
  -24.0307  -33.9757   16.3054 C   0  0  0  0  0  0  0  0  0  0  0  0
  -24.7897  -32.6763   16.4883 C   0  0  0  0  0  0  0  0  0  0  0  0
  -26.1249  -32.9198   15.8286 C   0  0  0  0  0  0  0  0  0  0  0  0
  -26.0352  -34.3195   15.2181 C   0  0  0  0  0  0  0  0  0  0  0  0
  -24.6339  -34.6865   15.2175 O   0  0  0  0  0  0  0  0  0  0  0  0
  -19.2597  -34.9161   17.2942 C   0  0  0  0  0  0  0  0  0  0  0  0
  -20.3359  -34.2611   16.4955 C   0  0  0  0  0  0  0  0  0  0  0  0
  -21.6433  -34.3760   16.7627 C   0  0  0  0  0  0  0  0  0  0  0  0
  -22.6143  -33.7581   15.9944 N   0  0  0  0  0  0  0  0  0  0  0  0
  -22.2926  -33.0321   14.8567 C   0  0  0  0  0  0  0  0  0  0  0  0
  -23.1104  -32.5264   14.0930 O   0  0  0  0  0  0  0  0  0  0  0  0
  -20.9461  -32.8964   14.6024 N   0  0  0  0  0  0  0  0  0  0  0  0
  -19.9320  -33.4411   15.3299 C   0  0  0  0  0  0  0  0  0  0  0  0
  -18.7528  -33.2610   15.0421 O   0  0  0  0  0  0  0  0  0  0  0  0
  -20.6926  -32.3543   13.8206 H   0  0  0  0  0  0  0  0  0  0  0  0
  -26.5470  -34.3699   13.7744 C   0  0  0  0  0  0  0  0  0  0  0  0
  -27.2721  -35.5919   13.5896 O   0  0  0  0  0  0  0  0  0  0  0  0
  -26.4917  -36.9441   13.2515 P   0  0  0  0  0  0  0  0  0  0  0  0
  -27.2089  -37.8845   12.3477 O   0  0  0  0  0  0  0  0  0  0  0  0
  -26.0755  -37.4961   14.6866 O   0  0  0  0  0  0  0  0  0  0  0  0
  -25.1061  -36.4072   12.6551 O   0  0  0  0  0  0  0  0  0  0  0  0
  -26.8587  -37.8495   15.1367 H   0  0  0  0  0  0  0  0  0  0  0  0
  -25.2549  -36.0445   11.7679 H   0  0  0  0  0  0  0  0  0  0  0  0
  -30.2245  -29.3460   17.3945 O   0  0  0  0  0  0  0  0  0  0  0  0
  -29.8368  -28.1398   16.7912 C   0  0  0  0  0  0  0  0  0  0  0  0
  -30.6917  -27.0037   17.3620 C   0  0  0  0  0  0  0  0  0  0  0  0
  -29.8940  -25.7959   17.3949 O   0  0  0  0  0  0  0  0  0  0  0  0
  -30.5818  -24.7853   16.6297 C   0  0  0  0  0  0  0  0  0  0  0  0
  -31.6714  -25.4555   15.8041 C   0  0  0  0  0  0  0  0  0  0  0  0
  -32.8021  -24.6134   15.5599 O   0  0  0  0  0  0  0  0  0  0  0  0
  -31.9859  -26.7053   16.5974 C   0  0  0  0  0  0  0  0  0  0  0  0
  -33.1862  -24.3346   16.4059 H   0  0  0  0  0  0  0  0  0  0  0  0
  -29.6053  -24.1057   15.7909 N   0  0  0  0  0  0  0  0  0  0  0  0
  -29.1959  -22.7951   15.9147 C   0  0  0  0  0  0  0  0  0  0  0  0
  -28.2188  -22.4999   15.0786 N   0  0  0  0  0  0  0  0  0  0  0  0
  -27.9703  -23.6786   14.4023 C   0  0  0  0  0  0  0  0  0  0  0  0
  -27.0239  -24.0140   13.4196 C   0  0  0  0  0  0  0  0  0  0  0  0
  -26.0922  -23.1013   12.9306 N   0  0  0  0  0  0  0  0  0  0  0  0
  -27.0374  -25.2663   12.9075 N   0  0  0  0  0  0  0  0  0  0  0  0
  -27.9525  -26.1292   13.3982 C   0  0  0  0  0  0  0  0  0  0  0  0
  -27.9503  -27.6828   12.6615 Cl  0  0  0  0  0  0  0  0  0  0  0  0
  -28.8958  -25.9393   14.3372 N   0  0  0  0  0  0  0  0  0  0  0  0
  -28.8402  -24.6796   14.8073 C   0  0  0  0  0  0  0  0  0  0  0  0
  -26.0655  -22.1849   13.2896 H   0  0  0  0  0  0  0  0  0  0  0  0
  -25.4603  -23.3725   12.2260 H   0  0  0  0  0  0  0  0  0  0  0  0
  -33.0875  -26.5477   17.4843 O   0  0  0  0  0  0  0  0  0  0  0  0
  -34.2071  -27.7005   17.3652 P   0  0  0  0  0  0  0  0  0  0  0  0
  -34.5998  -28.1201   15.9798 O   0  0  0  0  0  0  0  0  0  0  0  0
  -35.3625  -27.3651   18.4131 O   0  0  0  0  0  0  0  0  0  0  0  0
  -33.4534  -28.8753   18.1538 O   0  0  0  0  0  0  0  0  0  0  0  0
  -35.9178  -26.6504   18.0644 H   0  0  0  0  0  0  0  0  0  0  0  0
  -32.7040  -29.1908   17.6249 H   0  0  0  0  0  0  0  0  0  0  0  0
 14 15  1  0
 15 16  2  0
 16 17  1  0
  9 17  1  0
  9 10  1  0
 10 11  1  0
 11  8  1  0
  8  5  1  0
  5  6  2  0
  5  7  1  0
  5  4  1  0
  4  1  1  0
  1  2  2  0
  1  3  1  0
  1 32  1  0
 32 33  1  0
 34 33  1  0
 34 35  1  0
 35 36  1  0
 36 41  1  0
 41 42  1  0
 42 43  2  0
 43 44  1  0
 44 45  2  0
 45 46  1  0
 45 47  1  0
 47 48  2  0
 48 49  1  0
 48 50  1  0
 50 51  2  0
 36 37  1  0
 37 38  1  0
 37 39  1  0
 39 54  1  0
 54 55  1  0
 55 56  2  0
 55 57  1  0
 55 58  1  0
 11 12  1  0
 12 24  1  0
 24 25  1  0
 25 26  1  0
 26 27  2  0
 26 28  1  0
 26 29  1  0
 12 13  1  0
 17 18  1  0
 18 19  2  0
 18 20  1  0
 20 21  1  0
 21 22  2  0
 21 15  1  0
 13  9  1  0
 39 34  1  0
 51 41  1  0
 51 44  1  0
 46 52  1  0
 46 53  1  0
 38 40  1  0
 57 59  1  0
 58 60  1  0
 28 30  1  0
 29 31  1  0
 20 23  1  0
M  CHG 1   3  -1
M  CHG 1   7  -1
M  END
> <minimizedAffinity>
-7.62883

> <CNNscore>
0.4954398274

> <CNNaffinity>
5.8374247551

> <CNN_VS>
2.8920927048

> <CNNaffinity_variance>
0.5110756755

$$$$



 60 64  0  0  0  0  0  0  0  0999 V2000
  -28.1389  -34.2396   13.1468 P   0  0  0  0  0  0  0  0  0  0  0  0
  -29.2442  -35.2220   12.8307 O   0  0  0  0  0  0  0  0  0  0  0  0
  -26.6995  -34.7155   13.0115 O   0  0  0  0  0  0  0  0  0  0  0  0
  -28.4430  -32.7783   12.6383 O   0  0  0  0  0  0  0  0  0  0  0  0
  -28.1418  -31.3106   13.1668 P   0  0  0  0  0  0  0  0  0  0  0  0
  -26.6917  -31.2409   13.6100 O   0  0  0  0  0  0  0  0  0  0  0  0
  -29.1908  -30.7824   14.1134 O   0  0  0  0  0  0  0  0  0  0  0  0
  -28.2562  -30.4452   11.7956 O   0  0  0  0  0  0  0  0  0  0  0  0
  -27.7055  -27.2097   12.5594 C   0  0  0  0  0  0  0  0  0  0  0  0
  -28.3312  -28.4635   13.1379 C   0  0  0  0  0  0  0  0  0  0  0  0
  -28.9020  -29.1891   11.9441 C   0  0  0  0  0  0  0  0  0  0  0  0
  -28.6551  -28.2712   10.7455 C   0  0  0  0  0  0  0  0  0  0  0  0
  -28.3038  -26.9713   11.2797 O   0  0  0  0  0  0  0  0  0  0  0  0
  -30.3554  -24.9308   16.0820 C   0  0  0  0  0  0  0  0  0  0  0  0
  -29.2178  -24.9891   15.1188 C   0  0  0  0  0  0  0  0  0  0  0  0
  -28.9960  -26.0107   14.2815 C   0  0  0  0  0  0  0  0  0  0  0  0
  -27.9251  -26.0324   13.4055 N   0  0  0  0  0  0  0  0  0  0  0  0
  -26.9752  -25.0212   13.3883 C   0  0  0  0  0  0  0  0  0  0  0  0
  -25.9645  -25.0202   12.6911 O   0  0  0  0  0  0  0  0  0  0  0  0
  -27.2229  -23.9622   14.2330 N   0  0  0  0  0  0  0  0  0  0  0  0
  -28.2710  -23.8503   15.0952 C   0  0  0  0  0  0  0  0  0  0  0  0
  -28.4269  -22.8635   15.8079 O   0  0  0  0  0  0  0  0  0  0  0  0
  -26.5817  -23.2155   14.2115 H   0  0  0  0  0  0  0  0  0  0  0  0
  -29.8944  -28.1087    9.8588 C   0  0  0  0  0  0  0  0  0  0  0  0
  -29.5603  -28.5206    8.5276 O   0  0  0  0  0  0  0  0  0  0  0  0
  -29.4483  -27.4385    7.3579 P   0  0  0  0  0  0  0  0  0  0  0  0
  -29.5098  -26.0175    7.7965 O   0  0  0  0  0  0  0  0  0  0  0  0
  -30.5451  -27.9192    6.3073 O   0  0  0  0  0  0  0  0  0  0  0  0
  -28.0693  -27.8348    6.6472 O   0  0  0  0  0  0  0  0  0  0  0  0
  -31.4304  -27.7206    6.6504 H   0  0  0  0  0  0  0  0  0  0  0  0
  -27.3269  -27.5791    7.2168 H   0  0  0  0  0  0  0  0  0  0  0  0
  -28.2415  -33.9423   14.7483 O   0  0  0  0  0  0  0  0  0  0  0  0
  -27.1403  -34.2468   15.5630 C   0  0  0  0  0  0  0  0  0  0  0  0
  -27.3516  -33.6085   16.9396 C   0  0  0  0  0  0  0  0  0  0  0  0
  -26.3539  -34.1304   17.8499 O   0  0  0  0  0  0  0  0  0  0  0  0
  -25.6155  -33.0157   18.3901 C   0  0  0  0  0  0  0  0  0  0  0  0
  -25.9146  -31.7800   17.5525 C   0  0  0  0  0  0  0  0  0  0  0  0
  -25.8429  -30.5575   18.2925 O   0  0  0  0  0  0  0  0  0  0  0  0
  -27.2808  -32.0779   16.9738 C   0  0  0  0  0  0  0  0  0  0  0  0
  -26.4729  -30.5882   19.0294 H   0  0  0  0  0  0  0  0  0  0  0  0
  -24.2000  -33.3548   18.3714 N   0  0  0  0  0  0  0  0  0  0  0  0
  -23.3951  -33.5552   19.4726 C   0  0  0  0  0  0  0  0  0  0  0  0
  -22.1850  -33.9587   19.1353 N   0  0  0  0  0  0  0  0  0  0  0  0
  -22.2179  -34.0457   17.7570 C   0  0  0  0  0  0  0  0  0  0  0  0
  -21.2543  -34.4557   16.8203 C   0  0  0  0  0  0  0  0  0  0  0  0
  -19.9811  -34.8836   17.1896 N   0  0  0  0  0  0  0  0  0  0  0  0
  -21.5667  -34.4053   15.5049 N   0  0  0  0  0  0  0  0  0  0  0  0
  -22.8066  -33.9846   15.1756 C   0  0  0  0  0  0  0  0  0  0  0  0
  -23.1143  -33.8906   13.4865 Cl  0  0  0  0  0  0  0  0  0  0  0  0
  -23.8153  -33.5803   15.9673 N   0  0  0  0  0  0  0  0  0  0  0  0
  -23.4493  -33.6460   17.2606 C   0  0  0  0  0  0  0  0  0  0  0  0
  -19.7335  -34.9275   18.1415 H   0  0  0  0  0  0  0  0  0  0  0  0
  -19.3290  -35.1421   16.4989 H   0  0  0  0  0  0  0  0  0  0  0  0
  -28.3484  -31.5263   17.7359 O   0  0  0  0  0  0  0  0  0  0  0  0
  -29.3634  -32.6189   18.3464 P   0  0  0  0  0  0  0  0  0  0  0  0
  -29.7933  -33.7269   17.4315 O   0  0  0  0  0  0  0  0  0  0  0  0
  -30.4839  -31.8348   19.1681 O   0  0  0  0  0  0  0  0  0  0  0  0
  -28.4628  -33.1601   19.5574 O   0  0  0  0  0  0  0  0  0  0  0  0
  -31.1206  -31.4408   18.5516 H   0  0  0  0  0  0  0  0  0  0  0  0
  -27.7186  -33.6718   19.2033 H   0  0  0  0  0  0  0  0  0  0  0  0
 14 15  1  0
 15 16  2  0
 16 17  1  0
  9 17  1  0
  9 10  1  0
 10 11  1  0
 11  8  1  0
  8  5  1  0
  5  6  2  0
  5  7  1  0
  5  4  1  0
  4  1  1  0
  1  2  2  0
  1  3  1  0
  1 32  1  0
 32 33  1  0
 34 33  1  0
 34 35  1  0
 35 36  1  0
 36 41  1  0
 41 42  1  0
 42 43  2  0
 43 44  1  0
 44 45  2  0
 45 46  1  0
 45 47  1  0
 47 48  2  0
 48 49  1  0
 48 50  1  0
 50 51  2  0
 36 37  1  0
 37 38  1  0
 37 39  1  0
 39 54  1  0
 54 55  1  0
 55 56  2  0
 55 57  1  0
 55 58  1  0
 11 12  1  0
 12 24  1  0
 24 25  1  0
 25 26  1  0
 26 27  2  0
 26 28  1  0
 26 29  1  0
 12 13  1  0
 17 18  1  0
 18 19  2  0
 18 20  1  0
 20 21  1  0
 21 22  2  0
 21 15  1  0
 13  9  1  0
 39 34  1  0
 51 41  1  0
 51 44  1  0
 46 52  1  0
 46 53  1  0
 38 40  1  0
 57 59  1  0
 58 60  1  0
 28 30  1  0
 29 31  1  0
 20 23  1  0
M  CHG 1   3  -1
M  CHG 1   7  -1
M  END
> <minimizedAffinity>
-9.09954

> <CNNscore>
0.4946200848

> <CNNaffinity>
5.8589344025

> <CNN_VS>
2.8979465961

> <CNNaffinity_variance>
0.6115512252

$$$$



 60 64  0  0  0  0  0  0  0  0999 V2000
  -29.9866  -34.2410   16.2832 P   0  0  0  0  0  0  0  0  0  0  0  0
  -29.7425  -35.7222   16.1016 O   0  0  0  0  0  0  0  0  0  0  0  0
  -30.1400  -33.7106   17.7016 O   0  0  0  0  0  0  0  0  0  0  0  0
  -29.1500  -33.3474   15.2892 O   0  0  0  0  0  0  0  0  0  0  0  0
  -27.7585  -33.4909   14.5362 P   0  0  0  0  0  0  0  0  0  0  0  0
  -27.9194  -32.9821   13.1151 O   0  0  0  0  0  0  0  0  0  0  0  0
  -27.1027  -34.8353   14.7299 O   0  0  0  0  0  0  0  0  0  0  0  0
  -26.8509  -32.3982   15.3265 O   0  0  0  0  0  0  0  0  0  0  0  0
  -23.9309  -34.0036   15.8273 C   0  0  0  0  0  0  0  0  0  0  0  0
  -24.6309  -32.7036   16.1708 C   0  0  0  0  0  0  0  0  0  0  0  0
  -25.4787  -32.3971   14.9605 C   0  0  0  0  0  0  0  0  0  0  0  0
  -25.1552  -33.4910   13.9414 C   0  0  0  0  0  0  0  0  0  0  0  0
  -23.9494  -34.1485   14.4021 O   0  0  0  0  0  0  0  0  0  0  0  0
  -19.1228  -33.2459   14.8616 C   0  0  0  0  0  0  0  0  0  0  0  0
  -20.2400  -33.6246   15.7747 C   0  0  0  0  0  0  0  0  0  0  0  0
  -21.5261  -33.6766   15.4042 C   0  0  0  0  0  0  0  0  0  0  0  0
  -22.5370  -34.0264   16.2821 N   0  0  0  0  0  0  0  0  0  0  0  0
  -22.2843  -34.2819   17.6222 C   0  0  0  0  0  0  0  0  0  0  0  0
  -23.1448  -34.5210   18.4649 O   0  0  0  0  0  0  0  0  0  0  0  0
  -20.9578  -34.2518   17.9905 N   0  0  0  0  0  0  0  0  0  0  0  0
  -19.9053  -33.9537   17.1795 C   0  0  0  0  0  0  0  0  0  0  0  0
  -18.7469  -33.9614   17.5846 O   0  0  0  0  0  0  0  0  0  0  0  0
  -20.7508  -34.4660   18.9289 H   0  0  0  0  0  0  0  0  0  0  0  0
  -24.8940  -32.9343   12.5377 C   0  0  0  0  0  0  0  0  0  0  0  0
  -24.5445  -31.5495   12.6537 O   0  0  0  0  0  0  0  0  0  0  0  0
  -24.9247  -30.5262   11.4875 P   0  0  0  0  0  0  0  0  0  0  0  0
  -26.3681  -30.4786   11.1272 O   0  0  0  0  0  0  0  0  0  0  0  0
  -23.9010  -30.8981   10.3250 O   0  0  0  0  0  0  0  0  0  0  0  0
  -24.3526  -29.1373   12.0420 O   0  0  0  0  0  0  0  0  0  0  0  0
  -24.1648  -31.7384    9.9185 H   0  0  0  0  0  0  0  0  0  0  0  0
  -24.9160  -28.8214   12.7657 H   0  0  0  0  0  0  0  0  0  0  0  0
  -31.4642  -33.9453   15.6563 O   0  0  0  0  0  0  0  0  0  0  0  0
  -31.8557  -32.6135   15.4505 C   0  0  0  0  0  0  0  0  0  0  0  0
  -33.1729  -32.3647   16.1924 C   0  0  0  0  0  0  0  0  0  0  0  0
  -33.8947  -33.6164   16.2863 O   0  0  0  0  0  0  0  0  0  0  0  0
  -34.1459  -33.8835   17.6811 C   0  0  0  0  0  0  0  0  0  0  0  0
  -33.2709  -32.9623   18.5199 C   0  0  0  0  0  0  0  0  0  0  0  0
  -33.8490  -32.6197   19.7830 O   0  0  0  0  0  0  0  0  0  0  0  0
  -33.0344  -31.7818   17.6030 C   0  0  0  0  0  0  0  0  0  0  0  0
  -34.7037  -32.1840   19.6399 H   0  0  0  0  0  0  0  0  0  0  0  0
  -33.8568  -35.2873   17.9353 N   0  0  0  0  0  0  0  0  0  0  0  0
  -33.2661  -36.1701   17.0565 C   0  0  0  0  0  0  0  0  0  0  0  0
  -33.0349  -37.3438   17.6132 N   0  0  0  0  0  0  0  0  0  0  0  0
  -33.4737  -37.2045   18.9157 C   0  0  0  0  0  0  0  0  0  0  0  0
  -33.4594  -38.0867   20.0091 C   0  0  0  0  0  0  0  0  0  0  0  0
  -32.9399  -39.3766   19.9277 N   0  0  0  0  0  0  0  0  0  0  0  0
  -33.9982  -37.6759   21.1802 N   0  0  0  0  0  0  0  0  0  0  0  0
  -34.4963  -36.4220   21.2299 C   0  0  0  0  0  0  0  0  0  0  0  0
  -35.2165  -35.9883   22.7299 Cl  0  0  0  0  0  0  0  0  0  0  0  0
  -34.5595  -35.4838   20.2690 N   0  0  0  0  0  0  0  0  0  0  0  0
  -34.0155  -35.9460   19.1282 C   0  0  0  0  0  0  0  0  0  0  0  0
  -32.5434  -39.6952   19.0848 H   0  0  0  0  0  0  0  0  0  0  0  0
  -32.9693  -39.9696   20.7130 H   0  0  0  0  0  0  0  0  0  0  0  0
  -33.9486  -30.7120   17.8140 O   0  0  0  0  0  0  0  0  0  0  0  0
  -33.4038  -29.2696   17.3456 P   0  0  0  0  0  0  0  0  0  0  0  0
  -31.9592  -29.1891   16.9504 O   0  0  0  0  0  0  0  0  0  0  0  0
  -33.9744  -28.1813   18.3632 O   0  0  0  0  0  0  0  0  0  0  0  0
  -34.3790  -29.0175   16.0984 O   0  0  0  0  0  0  0  0  0  0  0  0
  -33.4685  -28.2153   19.1902 H   0  0  0  0  0  0  0  0  0  0  0  0
  -34.1469  -29.6249   15.3785 H   0  0  0  0  0  0  0  0  0  0  0  0
 14 15  1  0
 15 16  2  0
 16 17  1  0
  9 17  1  0
  9 10  1  0
 10 11  1  0
 11  8  1  0
  8  5  1  0
  5  6  2  0
  5  7  1  0
  5  4  1  0
  4  1  1  0
  1  2  2  0
  1  3  1  0
  1 32  1  0
 32 33  1  0
 34 33  1  0
 34 35  1  0
 35 36  1  0
 36 41  1  0
 41 42  1  0
 42 43  2  0
 43 44  1  0
 44 45  2  0
 45 46  1  0
 45 47  1  0
 47 48  2  0
 48 49  1  0
 48 50  1  0
 50 51  2  0
 36 37  1  0
 37 38  1  0
 37 39  1  0
 39 54  1  0
 54 55  1  0
 55 56  2  0
 55 57  1  0
 55 58  1  0
 11 12  1  0
 12 24  1  0
 24 25  1  0
 25 26  1  0
 26 27  2  0
 26 28  1  0
 26 29  1  0
 12 13  1  0
 17 18  1  0
 18 19  2  0
 18 20  1  0
 20 21  1  0
 21 22  2  0
 21 15  1  0
 13  9  1  0
 39 34  1  0
 51 41  1  0
 51 44  1  0
 46 52  1  0
 46 53  1  0
 38 40  1  0
 57 59  1  0
 58 60  1  0
 28 30  1  0
 29 31  1  0
 20 23  1  0
M  CHG 1   3  -1
M  CHG 1   7  -1
M  END
> <minimizedAffinity>
-7.64366

> <CNNscore>
0.4624463022

> <CNNaffinity>
5.3412070274

> <CNN_VS>
2.4700214863

> <CNNaffinity_variance>
0.4014374018

$$$$



 60 64  0  0  0  0  0  0  0  0999 V2000
  -27.3896  -33.8465   12.4289 P   0  0  0  0  0  0  0  0  0  0  0  0
  -26.5696  -34.7399   11.5254 O   0  0  0  0  0  0  0  0  0  0  0  0
  -28.7413  -33.3646   11.9218 O   0  0  0  0  0  0  0  0  0  0  0  0
  -27.3221  -34.2686   13.9467 O   0  0  0  0  0  0  0  0  0  0  0  0
  -26.2569  -34.9990   14.8719 P   0  0  0  0  0  0  0  0  0  0  0  0
  -25.6571  -36.1604   14.1003 O   0  0  0  0  0  0  0  0  0  0  0  0
  -26.7551  -35.2683   16.2699 O   0  0  0  0  0  0  0  0  0  0  0  0
  -25.0993  -33.8638   14.9875 O   0  0  0  0  0  0  0  0  0  0  0  0
  -21.8891  -33.3421   15.8693 C   0  0  0  0  0  0  0  0  0  0  0  0
  -22.8217  -34.4545   15.4324 C   0  0  0  0  0  0  0  0  0  0  0  0
  -24.1584  -34.0858   16.0279 C   0  0  0  0  0  0  0  0  0  0  0  0
  -23.9085  -32.8237   16.8552 C   0  0  0  0  0  0  0  0  0  0  0  0
  -22.4733  -32.7030   17.0107 O   0  0  0  0  0  0  0  0  0  0  0  0
  -16.9894  -33.3902   15.0851 C   0  0  0  0  0  0  0  0  0  0  0  0
  -18.2081  -33.8089   15.8366 C   0  0  0  0  0  0  0  0  0  0  0  0
  -19.4531  -33.4347   15.5142 C   0  0  0  0  0  0  0  0  0  0  0  0
  -20.5600  -33.8384   16.2399 N   0  0  0  0  0  0  0  0  0  0  0  0
  -20.4393  -34.6059   17.3894 C   0  0  0  0  0  0  0  0  0  0  0  0
  -21.3735  -34.9306   18.1172 O   0  0  0  0  0  0  0  0  0  0  0  0
  -19.1597  -35.0084   17.7006 N   0  0  0  0  0  0  0  0  0  0  0  0
  -18.0270  -34.6847   17.0173 C   0  0  0  0  0  0  0  0  0  0  0  0
  -16.9214  -35.0967   17.3548 O   0  0  0  0  0  0  0  0  0  0  0  0
  -19.0537  -35.5845   18.4918 H   0  0  0  0  0  0  0  0  0  0  0  0
  -24.5398  -32.8950   18.2498 C   0  0  0  0  0  0  0  0  0  0  0  0
  -25.4723  -31.8153   18.3844 O   0  0  0  0  0  0  0  0  0  0  0  0
  -27.0368  -32.0793   18.1992 P   0  0  0  0  0  0  0  0  0  0  0  0
  -27.5861  -31.7380   16.8586 O   0  0  0  0  0  0  0  0  0  0  0  0
  -27.6841  -31.3430   19.4548 O   0  0  0  0  0  0  0  0  0  0  0  0
  -27.1762  -33.6288   18.5776 O   0  0  0  0  0  0  0  0  0  0  0  0
  -27.6477  -30.3830   19.3209 H   0  0  0  0  0  0  0  0  0  0  0  0
  -26.8045  -34.1706   17.8641 H   0  0  0  0  0  0  0  0  0  0  0  0
  -26.5621  -32.4451   12.5522 O   0  0  0  0  0  0  0  0  0  0  0  0
  -27.2409  -31.2967   12.9874 C   0  0  0  0  0  0  0  0  0  0  0  0
  -26.6428  -30.0728   12.2863 C   0  0  0  0  0  0  0  0  0  0  0  0
  -25.2153  -30.2709   12.1470 O   0  0  0  0  0  0  0  0  0  0  0  0
  -24.8854  -30.1729   10.7465 C   0  0  0  0  0  0  0  0  0  0  0  0
  -26.1710  -30.2553    9.9352 C   0  0  0  0  0  0  0  0  0  0  0  0
  -26.1157  -29.5309    8.7025 O   0  0  0  0  0  0  0  0  0  0  0  0
  -27.2224  -29.7574   10.9030 C   0  0  0  0  0  0  0  0  0  0  0  0
  -25.9276  -28.5969    8.8846 H   0  0  0  0  0  0  0  0  0  0  0  0
  -23.9659  -31.2526   10.4184 N   0  0  0  0  0  0  0  0  0  0  0  0
  -22.8515  -31.6222   11.1411 C   0  0  0  0  0  0  0  0  0  0  0  0
  -22.2813  -32.7073   10.6527 N   0  0  0  0  0  0  0  0  0  0  0  0
  -23.0768  -33.0675    9.5822 C   0  0  0  0  0  0  0  0  0  0  0  0
  -23.0145  -34.1520    8.6911 C   0  0  0  0  0  0  0  0  0  0  0  0
  -22.0289  -35.1332    8.7688 N   0  0  0  0  0  0  0  0  0  0  0  0
  -23.9325  -34.2300    7.7003 N   0  0  0  0  0  0  0  0  0  0  0  0
  -24.8746  -33.2644    7.6475 C   0  0  0  0  0  0  0  0  0  0  0  0
  -25.9717  -33.3948    6.3300 Cl  0  0  0  0  0  0  0  0  0  0  0  0
  -25.0503  -32.1913    8.4383 N   0  0  0  0  0  0  0  0  0  0  0  0
  -24.1101  -32.1609    9.4005 C   0  0  0  0  0  0  0  0  0  0  0  0
  -21.3514  -35.0950    9.4821 H   0  0  0  0  0  0  0  0  0  0  0  0
  -22.0097  -35.8649    8.1105 H   0  0  0  0  0  0  0  0  0  0  0  0
  -27.5053  -28.3699   10.7634 O   0  0  0  0  0  0  0  0  0  0  0  0
  -29.0759  -28.0141   10.7048 P   0  0  0  0  0  0  0  0  0  0  0  0
  -29.4751  -26.8611    9.8327 O   0  0  0  0  0  0  0  0  0  0  0  0
  -29.6422  -28.0706   12.1953 O   0  0  0  0  0  0  0  0  0  0  0  0
  -29.6360  -29.4081   10.1451 O   0  0  0  0  0  0  0  0  0  0  0  0
  -29.3762  -27.2692   12.6728 H   0  0  0  0  0  0  0  0  0  0  0  0
  -29.3639  -29.5181    9.2206 H   0  0  0  0  0  0  0  0  0  0  0  0
 14 15  1  0
 15 16  2  0
 16 17  1  0
  9 17  1  0
  9 10  1  0
 10 11  1  0
 11  8  1  0
  8  5  1  0
  5  6  2  0
  5  7  1  0
  5  4  1  0
  4  1  1  0
  1  2  2  0
  1  3  1  0
  1 32  1  0
 32 33  1  0
 34 33  1  0
 34 35  1  0
 35 36  1  0
 36 41  1  0
 41 42  1  0
 42 43  2  0
 43 44  1  0
 44 45  2  0
 45 46  1  0
 45 47  1  0
 47 48  2  0
 48 49  1  0
 48 50  1  0
 50 51  2  0
 36 37  1  0
 37 38  1  0
 37 39  1  0
 39 54  1  0
 54 55  1  0
 55 56  2  0
 55 57  1  0
 55 58  1  0
 11 12  1  0
 12 24  1  0
 24 25  1  0
 25 26  1  0
 26 27  2  0
 26 28  1  0
 26 29  1  0
 12 13  1  0
 17 18  1  0
 18 19  2  0
 18 20  1  0
 20 21  1  0
 21 22  2  0
 21 15  1  0
 13  9  1  0
 39 34  1  0
 51 41  1  0
 51 44  1  0
 46 52  1  0
 46 53  1  0
 38 40  1  0
 57 59  1  0
 58 60  1  0
 28 30  1  0
 29 31  1  0
 20 23  1  0
M  CHG 1   3  -1
M  CHG 1   7  -1
M  END
> <minimizedAffinity>
-7.61814

> <CNNscore>
0.3749625981

> <CNNaffinity>
6.0576481819

> <CNN_VS>
2.2713913918

> <CNNaffinity_variance>
0.1202351376

$$$$
