


 42 46  0  0  0  0  0  0  0  0999 V2000
  -51.5773  -11.4438  -24.6991 C   0  0  0  0  0  0  0  0  0  0  0  0
  -49.7787   -9.3132  -24.1118 O   0  0  0  0  0  0  0  0  0  0  0  0
  -50.1268  -10.0843  -23.2273 C   0  0  0  0  0  0  0  0  0  0  0  0
  -50.9959  -11.1239  -23.3983 N   0  0  0  0  0  0  0  0  0  0  0  0
  -51.2381  -11.6753  -22.6195 H   0  0  0  0  0  0  0  0  0  0  0  0
  -49.5554   -9.9612  -21.8658 C   0  0  0  0  0  0  0  0  0  0  0  0
  -48.4730  -10.6445  -21.4613 C   0  0  0  0  0  0  0  0  0  0  0  0
  -47.9202  -10.4666  -20.1157 C   0  0  0  0  0  0  0  0  0  0  0  0
  -46.5204  -10.2820  -20.0800 C   0  0  0  0  0  0  0  0  0  0  0  0
  -45.8439  -10.1158  -18.8737 C   0  0  0  0  0  0  0  0  0  0  0  0
  -44.1396   -9.8961  -18.8678 Cl  0  0  0  0  0  0  0  0  0  0  0  0
  -46.5453  -10.1264  -17.6796 C   0  0  0  0  0  0  0  0  0  0  0  0
  -47.9328  -10.2989  -17.6926 C   0  0  0  0  0  0  0  0  0  0  0  0
  -48.6431  -10.4705  -18.9040 C   0  0  0  0  0  0  0  0  0  0  0  0
  -50.0564  -10.6352  -18.8092 N   0  0  0  0  0  0  0  0  0  0  0  0
  -51.0856   -9.7319  -18.7131 C   0  0  0  0  0  0  0  0  0  0  0  0
  -52.2341  -10.3706  -18.6431 N   0  0  0  0  0  0  0  0  0  0  0  0
  -51.9251  -11.6983  -18.7051 N   0  0  0  0  0  0  0  0  0  0  0  0
  -50.6168  -11.8744  -18.8089 N   0  0  0  0  0  0  0  0  0  0  0  0
  -52.8748  -10.6208  -24.8587 C   0  0  0  0  0  0  0  0  0  0  0  0
  -53.9636  -11.0774  -24.5070 O   0  0  0  0  0  0  0  0  0  0  0  0
  -52.6643   -9.3995  -25.4804 N   0  0  0  0  0  0  0  0  0  0  0  0
  -51.7295   -9.1789  -25.6967 H   0  0  0  0  0  0  0  0  0  0  0  0
  -53.6291   -8.4350  -25.8403 C   0  0  0  0  0  0  0  0  0  0  0  0
  -54.4609   -7.7807  -24.9324 C   0  0  0  0  0  0  0  0  0  0  0  0
  -55.3924   -6.8290  -25.3737 C   0  0  0  0  0  0  0  0  0  0  0  0
  -55.5133   -6.5206  -26.7327 C   0  0  0  0  0  0  0  0  0  0  0  0
  -54.6893   -7.1950  -27.6428 C   0  0  0  0  0  0  0  0  0  0  0  0
  -53.7554   -8.1367  -27.2010 C   0  0  0  0  0  0  0  0  0  0  0  0
  -56.4665   -5.5350  -27.2267 C   0  0  0  0  0  0  0  0  0  0  0  0
  -57.3695   -4.8714  -26.5279 N   0  0  0  0  0  0  0  0  0  0  0  0
  -58.0591   -4.0913  -27.4243 N   0  0  0  0  0  0  0  0  0  0  0  0
  -57.6079   -4.2690  -28.6586 N   0  0  0  0  0  0  0  0  0  0  0  0
  -56.6164   -5.1580  -28.5370 N   0  0  0  0  0  0  0  0  0  0  0  0
  -56.0703   -5.4949  -29.2837 H   0  0  0  0  0  0  0  0  0  0  0  0
  -51.9234  -12.9414  -24.8263 C   0  0  0  0  0  0  0  0  0  0  0  0
  -52.3441  -13.3930  -26.2068 C   0  0  0  0  0  0  0  0  0  0  0  0
  -51.9026  -12.7195  -27.3537 C   0  0  0  0  0  0  0  0  0  0  0  0
  -52.2950  -13.1504  -28.6218 C   0  0  0  0  0  0  0  0  0  0  0  0
  -53.1429  -14.2480  -28.7603 C   0  0  0  0  0  0  0  0  0  0  0  0
  -53.5999  -14.9170  -27.6276 C   0  0  0  0  0  0  0  0  0  0  0  0
  -53.2059  -14.4912  -26.3580 C   0  0  0  0  0  0  0  0  0  0  0  0
  2  3  2  0
  3  6  1  0
  6  7  2  0
  7  8  1  0
  8  9  2  0
  9 10  1  0
 10 11  1  0
 10 12  2  0
 12 13  1  0
 13 14  2  0
 14 15  1  0
 15 16  1  0
 16 17  2  0
 17 18  1  0
 18 19  2  0
  3  4  1  0
  4  1  1  0
  1 36  1  0
 36 37  1  0
 37 38  2  0
 38 39  1  0
 39 40  2  0
 40 41  1  0
 41 42  2  0
  1 20  1  0
 20 21  2  0
 20 22  1  0
 22 24  1  0
 24 25  2  0
 25 26  1  0
 26 27  2  0
 27 30  1  0
 30 31  2  0
 31 32  1  0
 32 33  2  0
 33 34  1  0
 27 28  1  0
 28 29  2  0
 14  8  1  0
 19 15  1  0
 42 37  1  0
 29 24  1  0
 34 30  1  0
  4  5  1  0
 22 23  1  0
 34 35  1  0
M  END
> <minimizedAffinity>
-9.74751

> <CNNscore>
0.9520918727

> <CNNaffinity>
8.4709358215

> <CNN_VS>
8.0651092529

> <CNNaffinity_variance>
0.0195861943

$$$$



 42 46  0  0  0  0  0  0  0  0999 V2000
  -50.9479  -11.6543  -25.0625 C   0  0  0  0  0  0  0  0  0  0  0  0
  -52.1876  -10.3385  -22.8599 O   0  0  0  0  0  0  0  0  0  0  0  0
  -51.0074  -10.6574  -22.7996 C   0  0  0  0  0  0  0  0  0  0  0  0
  -50.3245  -11.3057  -23.7888 N   0  0  0  0  0  0  0  0  0  0  0  0
  -49.3816  -11.5456  -23.6384 H   0  0  0  0  0  0  0  0  0  0  0  0
  -50.1980  -10.2923  -21.6134 C   0  0  0  0  0  0  0  0  0  0  0  0
  -49.4506  -11.1780  -20.9359 C   0  0  0  0  0  0  0  0  0  0  0  0
  -48.6377  -10.7668  -19.7879 C   0  0  0  0  0  0  0  0  0  0  0  0
  -47.2527  -10.6857  -20.0532 C   0  0  0  0  0  0  0  0  0  0  0  0
  -46.3465  -10.3243  -19.0591 C   0  0  0  0  0  0  0  0  0  0  0  0
  -44.6679  -10.2383  -19.4169 Cl  0  0  0  0  0  0  0  0  0  0  0  0
  -46.7987  -10.0330  -17.7829 C   0  0  0  0  0  0  0  0  0  0  0  0
  -48.1667  -10.0986  -17.5008 C   0  0  0  0  0  0  0  0  0  0  0  0
  -49.1072  -10.4637  -18.4924 C   0  0  0  0  0  0  0  0  0  0  0  0
  -50.4790  -10.4972  -18.1040 N   0  0  0  0  0  0  0  0  0  0  0  0
  -51.1842  -11.3407  -17.2821 C   0  0  0  0  0  0  0  0  0  0  0  0
  -52.4455  -10.9676  -17.2372 N   0  0  0  0  0  0  0  0  0  0  0  0
  -52.5356   -9.8655  -18.0369 N   0  0  0  0  0  0  0  0  0  0  0  0
  -51.3580   -9.5670  -18.5640 N   0  0  0  0  0  0  0  0  0  0  0  0
  -51.4875  -10.3559  -25.7024 C   0  0  0  0  0  0  0  0  0  0  0  0
  -50.7200   -9.4917  -26.1287 O   0  0  0  0  0  0  0  0  0  0  0  0
  -52.8710  -10.2733  -25.6670 N   0  0  0  0  0  0  0  0  0  0  0  0
  -53.3423  -11.0537  -25.2954 H   0  0  0  0  0  0  0  0  0  0  0  0
  -53.6846   -9.2048  -26.0998 C   0  0  0  0  0  0  0  0  0  0  0  0
  -54.0003   -8.9496  -27.4337 C   0  0  0  0  0  0  0  0  0  0  0  0
  -54.8221   -7.8663  -27.7792 C   0  0  0  0  0  0  0  0  0  0  0  0
  -55.3364   -7.0144  -26.7961 C   0  0  0  0  0  0  0  0  0  0  0  0
  -55.0001   -7.2633  -25.4593 C   0  0  0  0  0  0  0  0  0  0  0  0
  -54.1885   -8.3482  -25.1155 C   0  0  0  0  0  0  0  0  0  0  0  0
  -56.1961   -5.8823  -27.1176 C   0  0  0  0  0  0  0  0  0  0  0  0
  -56.9174   -5.1591  -26.2805 N   0  0  0  0  0  0  0  0  0  0  0  0
  -57.5901   -4.2358  -27.0437 N   0  0  0  0  0  0  0  0  0  0  0  0
  -57.3072   -4.3826  -28.3310 N   0  0  0  0  0  0  0  0  0  0  0  0
  -56.4382   -5.3979  -28.3779 N   0  0  0  0  0  0  0  0  0  0  0  0
  -56.0292   -5.7487  -29.2019 H   0  0  0  0  0  0  0  0  0  0  0  0
  -52.1201  -12.6406  -24.8829 C   0  0  0  0  0  0  0  0  0  0  0  0
  -51.7315  -14.0329  -24.4388 C   0  0  0  0  0  0  0  0  0  0  0  0
  -50.8235  -14.2301  -23.3898 C   0  0  0  0  0  0  0  0  0  0  0  0
  -50.4778  -15.5210  -22.9872 C   0  0  0  0  0  0  0  0  0  0  0  0
  -51.0218  -16.6288  -23.6348 C   0  0  0  0  0  0  0  0  0  0  0  0
  -51.9144  -16.4459  -24.6879 C   0  0  0  0  0  0  0  0  0  0  0  0
  -52.2656  -15.1562  -25.0902 C   0  0  0  0  0  0  0  0  0  0  0  0
  2  3  2  0
  3  6  1  0
  6  7  2  0
  7  8  1  0
  8  9  2  0
  9 10  1  0
 10 11  1  0
 10 12  2  0
 12 13  1  0
 13 14  2  0
 14 15  1  0
 15 16  1  0
 16 17  2  0
 17 18  1  0
 18 19  2  0
  3  4  1  0
  4  1  1  0
  1 36  1  0
 36 37  1  0
 37 38  2  0
 38 39  1  0
 39 40  2  0
 40 41  1  0
 41 42  2  0
  1 20  1  0
 20 21  2  0
 20 22  1  0
 22 24  1  0
 24 25  2  0
 25 26  1  0
 26 27  2  0
 27 30  1  0
 30 31  2  0
 31 32  1  0
 32 33  2  0
 33 34  1  0
 27 28  1  0
 28 29  2  0
 14  8  1  0
 19 15  1  0
 42 37  1  0
 29 24  1  0
 34 30  1  0
  4  5  1  0
 22 23  1  0
 34 35  1  0
M  END
> <minimizedAffinity>
-9.08954

> <CNNscore>
0.8737447262

> <CNNaffinity>
8.2633304596

> <CNN_VS>
7.2200412750

> <CNNaffinity_variance>
0.0396176279

$$$$



 42 46  0  0  0  0  0  0  0  0999 V2000
  -52.5361  -10.8344  -24.2877 C   0  0  0  0  0  0  0  0  0  0  0  0
  -49.8852   -9.8267  -24.0108 O   0  0  0  0  0  0  0  0  0  0  0  0
  -50.5314  -10.1358  -23.0183 C   0  0  0  0  0  0  0  0  0  0  0  0
  -51.8120  -10.6099  -23.0396 N   0  0  0  0  0  0  0  0  0  0  0  0
  -52.2614  -10.8067  -22.1860 H   0  0  0  0  0  0  0  0  0  0  0  0
  -49.9119  -10.0609  -21.6744 C   0  0  0  0  0  0  0  0  0  0  0  0
  -48.6651  -10.4874  -21.4179 C   0  0  0  0  0  0  0  0  0  0  0  0
  -48.0787  -10.3629  -20.0806 C   0  0  0  0  0  0  0  0  0  0  0  0
  -46.6824  -10.1500  -20.0736 C   0  0  0  0  0  0  0  0  0  0  0  0
  -45.9760  -10.0278  -18.8793 C   0  0  0  0  0  0  0  0  0  0  0  0
  -44.2770   -9.7719  -18.9085 Cl  0  0  0  0  0  0  0  0  0  0  0  0
  -46.6434  -10.1113  -17.6687 C   0  0  0  0  0  0  0  0  0  0  0  0
  -48.0270  -10.3129  -17.6527 C   0  0  0  0  0  0  0  0  0  0  0  0
  -48.7672  -10.4410  -18.8515 C   0  0  0  0  0  0  0  0  0  0  0  0
  -50.1737  -10.6405  -18.7269 N   0  0  0  0  0  0  0  0  0  0  0  0
  -51.2230   -9.7628  -18.6126 C   0  0  0  0  0  0  0  0  0  0  0  0
  -52.3534  -10.4297  -18.5166 N   0  0  0  0  0  0  0  0  0  0  0  0
  -52.0126  -11.7496  -18.5802 N   0  0  0  0  0  0  0  0  0  0  0  0
  -50.7027  -11.8933  -18.7106 N   0  0  0  0  0  0  0  0  0  0  0  0
  -52.0055  -12.1400  -24.9204 C   0  0  0  0  0  0  0  0  0  0  0  0
  -51.2321  -12.1125  -25.8789 O   0  0  0  0  0  0  0  0  0  0  0  0
  -52.5448  -13.2774  -24.3392 N   0  0  0  0  0  0  0  0  0  0  0  0
  -53.1483  -13.1292  -23.5756 H   0  0  0  0  0  0  0  0  0  0  0  0
  -52.3324  -14.6218  -24.7109 C   0  0  0  0  0  0  0  0  0  0  0  0
  -51.6288  -15.5469  -23.9406 C   0  0  0  0  0  0  0  0  0  0  0  0
  -51.4670  -16.8687  -24.3819 C   0  0  0  0  0  0  0  0  0  0  0  0
  -52.0003  -17.2864  -25.6058 C   0  0  0  0  0  0  0  0  0  0  0  0
  -52.6892  -16.3483  -26.3850 C   0  0  0  0  0  0  0  0  0  0  0  0
  -52.8573  -15.0338  -25.9403 C   0  0  0  0  0  0  0  0  0  0  0  0
  -51.8553  -18.6520  -26.0939 C   0  0  0  0  0  0  0  0  0  0  0  0
  -51.6336  -19.7404  -25.3795 N   0  0  0  0  0  0  0  0  0  0  0  0
  -51.5312  -20.7786  -26.2735 N   0  0  0  0  0  0  0  0  0  0  0  0
  -51.6738  -20.3511  -27.5208 N   0  0  0  0  0  0  0  0  0  0  0  0
  -51.8817  -19.0347  -27.4108 N   0  0  0  0  0  0  0  0  0  0  0  0
  -52.0325  -18.4254  -28.1692 H   0  0  0  0  0  0  0  0  0  0  0  0
  -52.3323   -9.6808  -25.2911 C   0  0  0  0  0  0  0  0  0  0  0  0
  -53.5031   -8.7347  -25.4353 C   0  0  0  0  0  0  0  0  0  0  0  0
  -54.5473   -8.7289  -24.5008 C   0  0  0  0  0  0  0  0  0  0  0  0
  -55.6192   -7.8466  -24.6438 C   0  0  0  0  0  0  0  0  0  0  0  0
  -55.6694   -6.9710  -25.7270 C   0  0  0  0  0  0  0  0  0  0  0  0
  -54.6448   -6.9769  -26.6701 C   0  0  0  0  0  0  0  0  0  0  0  0
  -53.5692   -7.8551  -26.5277 C   0  0  0  0  0  0  0  0  0  0  0  0
  2  3  2  0
  3  6  1  0
  6  7  2  0
  7  8  1  0
  8  9  2  0
  9 10  1  0
 10 11  1  0
 10 12  2  0
 12 13  1  0
 13 14  2  0
 14 15  1  0
 15 16  1  0
 16 17  2  0
 17 18  1  0
 18 19  2  0
  3  4  1  0
  4  1  1  0
  1 36  1  0
 36 37  1  0
 37 38  2  0
 38 39  1  0
 39 40  2  0
 40 41  1  0
 41 42  2  0
  1 20  1  0
 20 21  2  0
 20 22  1  0
 22 24  1  0
 24 25  2  0
 25 26  1  0
 26 27  2  0
 27 30  1  0
 30 31  2  0
 31 32  1  0
 32 33  2  0
 33 34  1  0
 27 28  1  0
 28 29  2  0
 14  8  1  0
 19 15  1  0
 42 37  1  0
 29 24  1  0
 34 30  1  0
  4  5  1  0
 22 23  1  0
 34 35  1  0
M  END
> <minimizedAffinity>
-10.07174

> <CNNscore>
0.7636943460

> <CNNaffinity>
7.8708910942

> <CNN_VS>
6.0109548569

> <CNNaffinity_variance>
0.1334245950

$$$$



 42 46  0  0  0  0  0  0  0  0999 V2000
  -51.7478  -13.8483  -23.4773 C   0  0  0  0  0  0  0  0  0  0  0  0
  -49.5639  -12.0210  -23.5802 O   0  0  0  0  0  0  0  0  0  0  0  0
  -49.9897  -12.4088  -22.5002 C   0  0  0  0  0  0  0  0  0  0  0  0
  -51.0398  -13.2671  -22.3400 N   0  0  0  0  0  0  0  0  0  0  0  0
  -51.3287  -13.5016  -21.4285 H   0  0  0  0  0  0  0  0  0  0  0  0
  -49.3229  -11.9912  -21.2445 C   0  0  0  0  0  0  0  0  0  0  0  0
  -48.4346  -10.9865  -21.1862 C   0  0  0  0  0  0  0  0  0  0  0  0
  -47.8242  -10.5837  -19.9162 C   0  0  0  0  0  0  0  0  0  0  0  0
  -46.4138  -10.5120  -19.9438 C   0  0  0  0  0  0  0  0  0  0  0  0
  -45.6858  -10.1593  -18.8098 C   0  0  0  0  0  0  0  0  0  0  0  0
  -43.9704  -10.0846  -18.8792 Cl  0  0  0  0  0  0  0  0  0  0  0  0
  -46.3448   -9.8678  -17.6272 C   0  0  0  0  0  0  0  0  0  0  0  0
  -47.7411   -9.9241  -17.5800 C   0  0  0  0  0  0  0  0  0  0  0  0
  -48.5034  -10.2803  -18.7173 C   0  0  0  0  0  0  0  0  0  0  0  0
  -49.9212  -10.3048  -18.5659 N   0  0  0  0  0  0  0  0  0  0  0  0
  -50.7532  -11.0814  -17.7985 C   0  0  0  0  0  0  0  0  0  0  0  0
  -52.0051  -10.7313  -18.0042 N   0  0  0  0  0  0  0  0  0  0  0  0
  -51.9615   -9.7112  -18.9096 N   0  0  0  0  0  0  0  0  0  0  0  0
  -50.7123   -9.4398  -19.2554 N   0  0  0  0  0  0  0  0  0  0  0  0
  -52.7729  -12.8098  -23.9842 C   0  0  0  0  0  0  0  0  0  0  0  0
  -53.9222  -12.7838  -23.5416 O   0  0  0  0  0  0  0  0  0  0  0  0
  -52.2696  -12.0067  -24.9961 N   0  0  0  0  0  0  0  0  0  0  0  0
  -51.3252  -12.1506  -25.2343 H   0  0  0  0  0  0  0  0  0  0  0  0
  -52.9486  -11.0078  -25.7255 C   0  0  0  0  0  0  0  0  0  0  0  0
  -53.3932  -11.1605  -27.0382 C   0  0  0  0  0  0  0  0  0  0  0  0
  -54.0662  -10.1169  -27.6909 C   0  0  0  0  0  0  0  0  0  0  0  0
  -54.2996   -8.8988  -27.0439 C   0  0  0  0  0  0  0  0  0  0  0  0
  -53.8335   -8.7434  -25.7322 C   0  0  0  0  0  0  0  0  0  0  0  0
  -53.1708   -9.7870  -25.0798 C   0  0  0  0  0  0  0  0  0  0  0  0
  -54.9985   -7.7947  -27.6892 C   0  0  0  0  0  0  0  0  0  0  0  0
  -56.2872   -7.7127  -27.9657 N   0  0  0  0  0  0  0  0  0  0  0  0
  -56.4720   -6.5122  -28.6079 N   0  0  0  0  0  0  0  0  0  0  0  0
  -55.3249   -5.8605  -28.7420 N   0  0  0  0  0  0  0  0  0  0  0  0
  -54.4119   -6.6505  -28.1671 N   0  0  0  0  0  0  0  0  0  0  0  0
  -53.4527   -6.4403  -28.0966 H   0  0  0  0  0  0  0  0  0  0  0  0
  -52.5005  -15.1386  -23.0930 C   0  0  0  0  0  0  0  0  0  0  0  0
  -52.2181  -16.3377  -23.9699 C   0  0  0  0  0  0  0  0  0  0  0  0
  -52.6713  -16.3871  -25.2950 C   0  0  0  0  0  0  0  0  0  0  0  0
  -52.3991  -17.4982  -26.0945 C   0  0  0  0  0  0  0  0  0  0  0  0
  -51.6850  -18.5780  -25.5780 C   0  0  0  0  0  0  0  0  0  0  0  0
  -51.2414  -18.5470  -24.2583 C   0  0  0  0  0  0  0  0  0  0  0  0
  -51.5083  -17.4354  -23.4573 C   0  0  0  0  0  0  0  0  0  0  0  0
  2  3  2  0
  3  6  1  0
  6  7  2  0
  7  8  1  0
  8  9  2  0
  9 10  1  0
 10 11  1  0
 10 12  2  0
 12 13  1  0
 13 14  2  0
 14 15  1  0
 15 16  1  0
 16 17  2  0
 17 18  1  0
 18 19  2  0
  3  4  1  0
  4  1  1  0
  1 36  1  0
 36 37  1  0
 37 38  2  0
 38 39  1  0
 39 40  2  0
 40 41  1  0
 41 42  2  0
  1 20  1  0
 20 21  2  0
 20 22  1  0
 22 24  1  0
 24 25  2  0
 25 26  1  0
 26 27  2  0
 27 30  1  0
 30 31  2  0
 31 32  1  0
 32 33  2  0
 33 34  1  0
 27 28  1  0
 28 29  2  0
 14  8  1  0
 19 15  1  0
 42 37  1  0
 29 24  1  0
 34 30  1  0
  4  5  1  0
 22 23  1  0
 34 35  1  0
M  END
> <minimizedAffinity>
-9.45171

> <CNNscore>
0.6632588506

> <CNNaffinity>
7.8377737999

> <CNN_VS>
5.1984729767

> <CNNaffinity_variance>
0.0384965986

$$$$



 42 46  0  0  0  0  0  0  0  0999 V2000
  -52.1308  -13.5548  -23.3976 C   0  0  0  0  0  0  0  0  0  0  0  0
  -49.6402  -12.1816  -23.5731 O   0  0  0  0  0  0  0  0  0  0  0  0
  -50.1509  -12.3900  -22.4804 C   0  0  0  0  0  0  0  0  0  0  0  0
  -51.3466  -13.0210  -22.2873 N   0  0  0  0  0  0  0  0  0  0  0  0
  -51.6909  -13.1191  -21.3703 H   0  0  0  0  0  0  0  0  0  0  0  0
  -49.4402  -11.9986  -21.2405 C   0  0  0  0  0  0  0  0  0  0  0  0
  -48.5896  -10.9618  -21.1802 C   0  0  0  0  0  0  0  0  0  0  0  0
  -47.9338  -10.5881  -19.9239 C   0  0  0  0  0  0  0  0  0  0  0  0
  -46.5250  -10.5201  -19.9992 C   0  0  0  0  0  0  0  0  0  0  0  0
  -45.7566  -10.1940  -18.8841 C   0  0  0  0  0  0  0  0  0  0  0  0
  -44.0444  -10.1230  -19.0116 Cl  0  0  0  0  0  0  0  0  0  0  0  0
  -46.3730   -9.9258  -17.6732 C   0  0  0  0  0  0  0  0  0  0  0  0
  -47.7670   -9.9789  -17.5786 C   0  0  0  0  0  0  0  0  0  0  0  0
  -48.5697  -10.3083  -18.6959 C   0  0  0  0  0  0  0  0  0  0  0  0
  -49.9815  -10.3317  -18.4957 N   0  0  0  0  0  0  0  0  0  0  0  0
  -51.0082   -9.6382  -19.0867 C   0  0  0  0  0  0  0  0  0  0  0  0
  -52.1559  -10.0032  -18.5561 N   0  0  0  0  0  0  0  0  0  0  0  0
  -51.8491  -10.9489  -17.6213 N   0  0  0  0  0  0  0  0  0  0  0  0
  -50.5427  -11.1607  -17.5752 N   0  0  0  0  0  0  0  0  0  0  0  0
  -53.1322  -12.4661  -23.8430 C   0  0  0  0  0  0  0  0  0  0  0  0
  -54.2809  -12.4400  -23.3986 O   0  0  0  0  0  0  0  0  0  0  0  0
  -52.6107  -11.6174  -24.8074 N   0  0  0  0  0  0  0  0  0  0  0  0
  -51.6697  -11.7685  -25.0542 H   0  0  0  0  0  0  0  0  0  0  0  0
  -53.2668  -10.5633  -25.4774 C   0  0  0  0  0  0  0  0  0  0  0  0
  -53.1983   -9.2252  -25.0913 C   0  0  0  0  0  0  0  0  0  0  0  0
  -53.8785   -8.2360  -25.8171 C   0  0  0  0  0  0  0  0  0  0  0  0
  -54.6460   -8.5694  -26.9381 C   0  0  0  0  0  0  0  0  0  0  0  0
  -54.7278   -9.9173  -27.3101 C   0  0  0  0  0  0  0  0  0  0  0  0
  -54.0424  -10.9010  -26.5914 C   0  0  0  0  0  0  0  0  0  0  0  0
  -55.3626   -7.5683  -27.7181 C   0  0  0  0  0  0  0  0  0  0  0  0
  -56.6064   -7.6323  -28.1570 N   0  0  0  0  0  0  0  0  0  0  0  0
  -56.8258   -6.4812  -28.8743 N   0  0  0  0  0  0  0  0  0  0  0  0
  -55.7420   -5.7173  -28.8952 N   0  0  0  0  0  0  0  0  0  0  0  0
  -54.8366   -6.3861  -28.1734 N   0  0  0  0  0  0  0  0  0  0  0  0
  -53.9204   -6.0737  -27.9938 H   0  0  0  0  0  0  0  0  0  0  0  0
  -52.9202  -14.8172  -22.9949 C   0  0  0  0  0  0  0  0  0  0  0  0
  -53.0448  -15.0547  -21.5067 C   0  0  0  0  0  0  0  0  0  0  0  0
  -52.1050  -15.8329  -20.8176 C   0  0  0  0  0  0  0  0  0  0  0  0
  -52.2298  -16.0397  -19.4430 C   0  0  0  0  0  0  0  0  0  0  0  0
  -53.3001  -15.4856  -18.7430 C   0  0  0  0  0  0  0  0  0  0  0  0
  -54.2485  -14.7220  -19.4189 C   0  0  0  0  0  0  0  0  0  0  0  0
  -54.1242  -14.5097  -20.7929 C   0  0  0  0  0  0  0  0  0  0  0  0
  2  3  2  0
  3  6  1  0
  6  7  2  0
  7  8  1  0
  8  9  2  0
  9 10  1  0
 10 11  1  0
 10 12  2  0
 12 13  1  0
 13 14  2  0
 14 15  1  0
 15 16  1  0
 16 17  2  0
 17 18  1  0
 18 19  2  0
  3  4  1  0
  4  1  1  0
  1 36  1  0
 36 37  1  0
 37 38  2  0
 38 39  1  0
 39 40  2  0
 40 41  1  0
 41 42  2  0
  1 20  1  0
 20 21  2  0
 20 22  1  0
 22 24  1  0
 24 25  2  0
 25 26  1  0
 26 27  2  0
 27 30  1  0
 30 31  2  0
 31 32  1  0
 32 33  2  0
 33 34  1  0
 27 28  1  0
 28 29  2  0
 14  8  1  0
 19 15  1  0
 42 37  1  0
 29 24  1  0
 34 30  1  0
  4  5  1  0
 22 23  1  0
 34 35  1  0
M  END
> <minimizedAffinity>
-8.45094

> <CNNscore>
0.6352667212

> <CNNaffinity>
7.7092308998

> <CNN_VS>
4.8974180222

> <CNNaffinity_variance>
0.0585958399

$$$$



 42 46  0  0  0  0  0  0  0  0999 V2000
  -52.5337  -10.9715  -25.1695 C   0  0  0  0  0  0  0  0  0  0  0  0
  -53.9790  -12.1784  -23.0308 O   0  0  0  0  0  0  0  0  0  0  0  0
  -53.3938  -12.8772  -23.8478 C   0  0  0  0  0  0  0  0  0  0  0  0
  -52.6897  -12.4014  -24.9169 N   0  0  0  0  0  0  0  0  0  0  0  0
  -52.2740  -13.0429  -25.5372 H   0  0  0  0  0  0  0  0  0  0  0  0
  -53.3693  -14.3497  -23.6850 C   0  0  0  0  0  0  0  0  0  0  0  0
  -54.1339  -15.1797  -24.4120 C   0  0  0  0  0  0  0  0  0  0  0  0
  -54.0530  -16.6332  -24.2422 C   0  0  0  0  0  0  0  0  0  0  0  0
  -52.7739  -17.1788  -24.4896 C   0  0  0  0  0  0  0  0  0  0  0  0
  -52.5400  -18.5481  -24.3862 C   0  0  0  0  0  0  0  0  0  0  0  0
  -50.9715  -19.1775  -24.6970 Cl  0  0  0  0  0  0  0  0  0  0  0  0
  -53.5714  -19.4016  -24.0317 C   0  0  0  0  0  0  0  0  0  0  0  0
  -54.8435  -18.8815  -23.7738 C   0  0  0  0  0  0  0  0  0  0  0  0
  -55.1070  -17.4952  -23.8727 C   0  0  0  0  0  0  0  0  0  0  0  0
  -56.4364  -17.0658  -23.5858 N   0  0  0  0  0  0  0  0  0  0  0  0
  -56.9600  -15.8377  -23.2667 C   0  0  0  0  0  0  0  0  0  0  0  0
  -58.2588  -15.9414  -23.0817 N   0  0  0  0  0  0  0  0  0  0  0  0
  -58.5609  -17.2547  -23.2964 N   0  0  0  0  0  0  0  0  0  0  0  0
  -57.4737  -17.9451  -23.6047 N   0  0  0  0  0  0  0  0  0  0  0  0
  -51.3071  -10.4758  -24.3719 C   0  0  0  0  0  0  0  0  0  0  0  0
  -50.5531   -9.6185  -24.8347 O   0  0  0  0  0  0  0  0  0  0  0  0
  -51.1439  -11.1418  -23.1669 N   0  0  0  0  0  0  0  0  0  0  0  0
  -51.8389  -11.8006  -22.9384 H   0  0  0  0  0  0  0  0  0  0  0  0
  -50.1012  -10.9885  -22.2288 C   0  0  0  0  0  0  0  0  0  0  0  0
  -50.0041  -11.7091  -21.0391 C   0  0  0  0  0  0  0  0  0  0  0  0
  -48.9299  -11.4989  -20.1616 C   0  0  0  0  0  0  0  0  0  0  0  0
  -47.9374  -10.5581  -20.4557 C   0  0  0  0  0  0  0  0  0  0  0  0
  -48.0499   -9.8226  -21.6424 C   0  0  0  0  0  0  0  0  0  0  0  0
  -49.1161  -10.0392  -22.5203 C   0  0  0  0  0  0  0  0  0  0  0  0
  -46.8055  -10.3162  -19.5700 C   0  0  0  0  0  0  0  0  0  0  0  0
  -45.5458  -10.6610  -19.7650 N   0  0  0  0  0  0  0  0  0  0  0  0
  -44.8550  -10.2609  -18.6468 N   0  0  0  0  0  0  0  0  0  0  0  0
  -45.6635   -9.6884  -17.7651 N   0  0  0  0  0  0  0  0  0  0  0  0
  -46.8712   -9.7156  -18.3385 N   0  0  0  0  0  0  0  0  0  0  0  0
  -47.6928   -9.3549  -17.9334 H   0  0  0  0  0  0  0  0  0  0  0  0
  -53.7713  -10.1662  -24.7235 C   0  0  0  0  0  0  0  0  0  0  0  0
  -54.0546   -8.9175  -25.5280 C   0  0  0  0  0  0  0  0  0  0  0  0
  -53.6282   -8.8020  -26.8579 C   0  0  0  0  0  0  0  0  0  0  0  0
  -53.9011   -7.6455  -27.5900 C   0  0  0  0  0  0  0  0  0  0  0  0
  -54.5888   -6.5861  -27.0005 C   0  0  0  0  0  0  0  0  0  0  0  0
  -55.0055   -6.6831  -25.6752 C   0  0  0  0  0  0  0  0  0  0  0  0
  -54.7379   -7.8401  -24.9416 C   0  0  0  0  0  0  0  0  0  0  0  0
  2  3  2  0
  3  6  1  0
  6  7  2  0
  7  8  1  0
  8  9  2  0
  9 10  1  0
 10 11  1  0
 10 12  2  0
 12 13  1  0
 13 14  2  0
 14 15  1  0
 15 16  1  0
 16 17  2  0
 17 18  1  0
 18 19  2  0
  3  4  1  0
  4  1  1  0
  1 36  1  0
 36 37  1  0
 37 38  2  0
 38 39  1  0
 39 40  2  0
 40 41  1  0
 41 42  2  0
  1 20  1  0
 20 21  2  0
 20 22  1  0
 22 24  1  0
 24 25  2  0
 25 26  1  0
 26 27  2  0
 27 30  1  0
 30 31  2  0
 31 32  1  0
 32 33  2  0
 33 34  1  0
 27 28  1  0
 28 29  2  0
 14  8  1  0
 19 15  1  0
 42 37  1  0
 29 24  1  0
 34 30  1  0
  4  5  1  0
 22 23  1  0
 34 35  1  0
M  END
> <minimizedAffinity>
-8.09152

> <CNNscore>
0.3003483713

> <CNNaffinity>
6.4781608582

> <CNN_VS>
1.9457050562

> <CNNaffinity_variance>
1.1444431543

$$$$



 42 46  0  0  0  0  0  0  0  0999 V2000
  -52.3958  -10.3073  -25.1588 C   0  0  0  0  0  0  0  0  0  0  0  0
  -51.5181  -12.3326  -26.9608 O   0  0  0  0  0  0  0  0  0  0  0  0
  -52.1989  -12.6293  -25.9879 C   0  0  0  0  0  0  0  0  0  0  0  0
  -52.6545  -11.7408  -25.0562 N   0  0  0  0  0  0  0  0  0  0  0  0
  -53.1741  -12.0776  -24.2908 H   0  0  0  0  0  0  0  0  0  0  0  0
  -52.6347  -14.0309  -25.7847 C   0  0  0  0  0  0  0  0  0  0  0  0
  -52.9601  -14.8507  -26.7967 C   0  0  0  0  0  0  0  0  0  0  0  0
  -53.3532  -16.2413  -26.5528 C   0  0  0  0  0  0  0  0  0  0  0  0
  -52.3416  -17.0407  -25.9761 C   0  0  0  0  0  0  0  0  0  0  0  0
  -52.5560  -18.3888  -25.6989 C   0  0  0  0  0  0  0  0  0  0  0  0
  -51.3014  -19.3320  -24.9992 Cl  0  0  0  0  0  0  0  0  0  0  0  0
  -53.7806  -18.9683  -25.9862 C   0  0  0  0  0  0  0  0  0  0  0  0
  -54.7989  -18.1930  -26.5492 C   0  0  0  0  0  0  0  0  0  0  0  0
  -54.6063  -16.8222  -26.8409 C   0  0  0  0  0  0  0  0  0  0  0  0
  -55.7086  -16.1194  -27.4107 N   0  0  0  0  0  0  0  0  0  0  0  0
  -57.0609  -16.1860  -27.1845 C   0  0  0  0  0  0  0  0  0  0  0  0
  -57.6864  -15.3339  -27.9683 N   0  0  0  0  0  0  0  0  0  0  0  0
  -56.7120  -14.7131  -28.6947 N   0  0  0  0  0  0  0  0  0  0  0  0
  -55.5140  -15.1730  -28.3678 N   0  0  0  0  0  0  0  0  0  0  0  0
  -51.1401   -9.9863  -24.3183 C   0  0  0  0  0  0  0  0  0  0  0  0
  -50.1290   -9.5158  -24.8416 O   0  0  0  0  0  0  0  0  0  0  0  0
  -51.2777  -10.3464  -22.9865 N   0  0  0  0  0  0  0  0  0  0  0  0
  -52.1550  -10.7079  -22.7238 H   0  0  0  0  0  0  0  0  0  0  0  0
  -50.3112  -10.2569  -21.9625 C   0  0  0  0  0  0  0  0  0  0  0  0
  -48.9467  -10.0759  -22.1853 C   0  0  0  0  0  0  0  0  0  0  0  0
  -48.0515   -9.9922  -21.1085 C   0  0  0  0  0  0  0  0  0  0  0  0
  -48.5050  -10.0958  -19.7893 C   0  0  0  0  0  0  0  0  0  0  0  0
  -49.8739  -10.2975  -19.5713 C   0  0  0  0  0  0  0  0  0  0  0  0
  -50.7661  -10.3719  -20.6448 C   0  0  0  0  0  0  0  0  0  0  0  0
  -47.6048  -10.0095  -18.6463 C   0  0  0  0  0  0  0  0  0  0  0  0
  -46.2851  -10.0582  -18.6587 N   0  0  0  0  0  0  0  0  0  0  0  0
  -45.8804   -9.9789  -17.3481 N   0  0  0  0  0  0  0  0  0  0  0  0
  -46.9213   -9.8938  -16.5308 N   0  0  0  0  0  0  0  0  0  0  0  0
  -47.9903   -9.9056  -17.3341 N   0  0  0  0  0  0  0  0  0  0  0  0
  -48.9238   -9.8478  -17.0265 H   0  0  0  0  0  0  0  0  0  0  0  0
  -53.5745   -9.4665  -24.6271 C   0  0  0  0  0  0  0  0  0  0  0  0
  -54.0609   -8.3754  -25.5542 C   0  0  0  0  0  0  0  0  0  0  0  0
  -53.5813   -8.2753  -26.8672 C   0  0  0  0  0  0  0  0  0  0  0  0
  -54.0428   -7.2660  -27.7135 C   0  0  0  0  0  0  0  0  0  0  0  0
  -54.9760   -6.3371  -27.2563 C   0  0  0  0  0  0  0  0  0  0  0  0
  -55.4496   -6.4174  -25.9492 C   0  0  0  0  0  0  0  0  0  0  0  0
  -54.9933   -7.4282  -25.1015 C   0  0  0  0  0  0  0  0  0  0  0  0
  2  3  2  0
  3  6  1  0
  6  7  2  0
  7  8  1  0
  8  9  2  0
  9 10  1  0
 10 11  1  0
 10 12  2  0
 12 13  1  0
 13 14  2  0
 14 15  1  0
 15 16  1  0
 16 17  2  0
 17 18  1  0
 18 19  2  0
  3  4  1  0
  4  1  1  0
  1 36  1  0
 36 37  1  0
 37 38  2  0
 38 39  1  0
 39 40  2  0
 40 41  1  0
 41 42  2  0
  1 20  1  0
 20 21  2  0
 20 22  1  0
 22 24  1  0
 24 25  2  0
 25 26  1  0
 26 27  2  0
 27 30  1  0
 30 31  2  0
 31 32  1  0
 32 33  2  0
 33 34  1  0
 27 28  1  0
 28 29  2  0
 14  8  1  0
 19 15  1  0
 42 37  1  0
 29 24  1  0
 34 30  1  0
  4  5  1  0
 22 23  1  0
 34 35  1  0
M  END
> <minimizedAffinity>
-9.96608

> <CNNscore>
0.2896398604

> <CNNaffinity>
6.5996170044

> <CNN_VS>
1.9115121365

> <CNNaffinity_variance>
1.0656456947

$$$$



 42 46  0  0  0  0  0  0  0  0999 V2000
  -52.7841  -10.9316  -24.6926 C   0  0  0  0  0  0  0  0  0  0  0  0
  -53.2754  -13.3075  -26.1870 O   0  0  0  0  0  0  0  0  0  0  0  0
  -53.3785  -13.3168  -24.9674 C   0  0  0  0  0  0  0  0  0  0  0  0
  -53.1482  -12.2410  -24.1583 N   0  0  0  0  0  0  0  0  0  0  0  0
  -53.2304  -12.3517  -23.1835 H   0  0  0  0  0  0  0  0  0  0  0  0
  -53.8342  -14.5416  -24.2689 C   0  0  0  0  0  0  0  0  0  0  0  0
  -52.9899  -15.4227  -23.7096 C   0  0  0  0  0  0  0  0  0  0  0  0
  -53.4852  -16.6043  -22.9980 C   0  0  0  0  0  0  0  0  0  0  0  0
  -54.1882  -16.3159  -21.8074 C   0  0  0  0  0  0  0  0  0  0  0  0
  -54.7068  -17.3334  -21.0098 C   0  0  0  0  0  0  0  0  0  0  0  0
  -55.5547  -16.9457  -19.5663 Cl  0  0  0  0  0  0  0  0  0  0  0  0
  -54.5401  -18.6571  -21.3813 C   0  0  0  0  0  0  0  0  0  0  0  0
  -53.8549  -18.9647  -22.5607 C   0  0  0  0  0  0  0  0  0  0  0  0
  -53.3181  -17.9501  -23.3875 C   0  0  0  0  0  0  0  0  0  0  0  0
  -52.6402  -18.3685  -24.5703 N   0  0  0  0  0  0  0  0  0  0  0  0
  -52.5333  -17.8083  -25.8189 C   0  0  0  0  0  0  0  0  0  0  0  0
  -51.7967  -18.5782  -26.5913 N   0  0  0  0  0  0  0  0  0  0  0  0
  -51.4253  -19.6371  -25.8146 N   0  0  0  0  0  0  0  0  0  0  0  0
  -51.9229  -19.5238  -24.5926 N   0  0  0  0  0  0  0  0  0  0  0  0
  -51.4391  -10.5132  -24.0582 C   0  0  0  0  0  0  0  0  0  0  0  0
  -50.6136   -9.8571  -24.6950 O   0  0  0  0  0  0  0  0  0  0  0  0
  -51.2721  -11.0100  -22.7746 N   0  0  0  0  0  0  0  0  0  0  0  0
  -52.0309  -11.5156  -22.4036 H   0  0  0  0  0  0  0  0  0  0  0  0
  -50.1448  -10.8778  -21.9364 C   0  0  0  0  0  0  0  0  0  0  0  0
  -50.0189  -11.4879  -20.6890 C   0  0  0  0  0  0  0  0  0  0  0  0
  -48.8600  -11.3084  -19.9191 C   0  0  0  0  0  0  0  0  0  0  0  0
  -47.8092  -10.5087  -20.3808 C   0  0  0  0  0  0  0  0  0  0  0  0
  -47.9488   -9.8820  -21.6256 C   0  0  0  0  0  0  0  0  0  0  0  0
  -49.1003  -10.0687  -22.3958 C   0  0  0  0  0  0  0  0  0  0  0  0
  -46.5894  -10.3030  -19.6102 C   0  0  0  0  0  0  0  0  0  0  0  0
  -45.3918  -10.8031  -19.8546 N   0  0  0  0  0  0  0  0  0  0  0  0
  -44.5739  -10.3683  -18.8399 N   0  0  0  0  0  0  0  0  0  0  0  0
  -45.2441   -9.6222  -17.9723 N   0  0  0  0  0  0  0  0  0  0  0  0
  -46.4915   -9.5749  -18.4518 N   0  0  0  0  0  0  0  0  0  0  0  0
  -47.2358   -9.0859  -18.0321 H   0  0  0  0  0  0  0  0  0  0  0  0
  -53.8409   -9.8574  -24.3636 C   0  0  0  0  0  0  0  0  0  0  0  0
  -54.0136   -8.7785  -25.4090 C   0  0  0  0  0  0  0  0  0  0  0  0
  -53.6181   -8.9884  -26.7368 C   0  0  0  0  0  0  0  0  0  0  0  0
  -53.7881   -7.9853  -27.6922 C   0  0  0  0  0  0  0  0  0  0  0  0
  -54.3404   -6.7575  -27.3319 C   0  0  0  0  0  0  0  0  0  0  0  0
  -54.7243   -6.5315  -26.0124 C   0  0  0  0  0  0  0  0  0  0  0  0
  -54.5597   -7.5342  -25.0554 C   0  0  0  0  0  0  0  0  0  0  0  0
  2  3  2  0
  3  6  1  0
  6  7  2  0
  7  8  1  0
  8  9  2  0
  9 10  1  0
 10 11  1  0
 10 12  2  0
 12 13  1  0
 13 14  2  0
 14 15  1  0
 15 16  1  0
 16 17  2  0
 17 18  1  0
 18 19  2  0
  3  4  1  0
  4  1  1  0
  1 36  1  0
 36 37  1  0
 37 38  2  0
 38 39  1  0
 39 40  2  0
 40 41  1  0
 41 42  2  0
  1 20  1  0
 20 21  2  0
 20 22  1  0
 22 24  1  0
 24 25  2  0
 25 26  1  0
 26 27  2  0
 27 30  1  0
 30 31  2  0
 31 32  1  0
 32 33  2  0
 33 34  1  0
 27 28  1  0
 28 29  2  0
 14  8  1  0
 19 15  1  0
 42 37  1  0
 29 24  1  0
 34 30  1  0
  4  5  1  0
 22 23  1  0
 34 35  1  0
M  END
> <minimizedAffinity>
-8.70508

> <CNNscore>
0.2730045319

> <CNNaffinity>
6.3086323738

> <CNN_VS>
1.7222852707

> <CNNaffinity_variance>
1.1664204597

$$$$



 42 46  0  0  0  0  0  0  0  0999 V2000
  -52.2066  -11.1216  -25.4425 C   0  0  0  0  0  0  0  0  0  0  0  0
  -53.4653  -12.9863  -27.1912 O   0  0  0  0  0  0  0  0  0  0  0  0
  -52.6498  -13.3736  -26.3646 C   0  0  0  0  0  0  0  0  0  0  0  0
  -51.9784  -12.5631  -25.4943 N   0  0  0  0  0  0  0  0  0  0  0  0
  -51.3194  -12.9634  -24.8822 H   0  0  0  0  0  0  0  0  0  0  0  0
  -52.3708  -14.8213  -26.2167 C   0  0  0  0  0  0  0  0  0  0  0  0
  -52.1699  -15.4106  -25.0275 C   0  0  0  0  0  0  0  0  0  0  0  0
  -51.9309  -16.8529  -24.9240 C   0  0  0  0  0  0  0  0  0  0  0  0
  -52.3368  -17.5939  -26.0559 C   0  0  0  0  0  0  0  0  0  0  0  0
  -52.1912  -18.9784  -26.1035 C   0  0  0  0  0  0  0  0  0  0  0  0
  -52.6985  -19.8481  -27.4961 Cl  0  0  0  0  0  0  0  0  0  0  0  0
  -51.6364  -19.6534  -25.0290 C   0  0  0  0  0  0  0  0  0  0  0  0
  -51.2197  -18.9383  -23.9020 C   0  0  0  0  0  0  0  0  0  0  0  0
  -51.3573  -17.5323  -23.8285 C   0  0  0  0  0  0  0  0  0  0  0  0
  -50.8982  -16.8972  -22.6371 N   0  0  0  0  0  0  0  0  0  0  0  0
  -51.0119  -17.2327  -21.3109 C   0  0  0  0  0  0  0  0  0  0  0  0
  -50.4232  -16.3196  -20.5681 N   0  0  0  0  0  0  0  0  0  0  0  0
  -49.9222  -15.3975  -21.4406 N   0  0  0  0  0  0  0  0  0  0  0  0
  -50.1972  -15.7331  -22.6917 N   0  0  0  0  0  0  0  0  0  0  0  0
  -51.2009  -10.5137  -24.4397 C   0  0  0  0  0  0  0  0  0  0  0  0
  -50.4379   -9.6071  -24.7764 O   0  0  0  0  0  0  0  0  0  0  0  0
  -51.2270  -11.1419  -23.2040 N   0  0  0  0  0  0  0  0  0  0  0  0
  -51.9015  -11.8503  -23.0922 H   0  0  0  0  0  0  0  0  0  0  0  0
  -50.4029  -10.8875  -22.0874 C   0  0  0  0  0  0  0  0  0  0  0  0
  -50.8348  -10.2577  -20.9208 C   0  0  0  0  0  0  0  0  0  0  0  0
  -49.9502  -10.0470  -19.8525 C   0  0  0  0  0  0  0  0  0  0  0  0
  -48.6151  -10.4562  -19.9358 C   0  0  0  0  0  0  0  0  0  0  0  0
  -48.1811  -11.0705  -21.1174 C   0  0  0  0  0  0  0  0  0  0  0  0
  -49.0657  -11.2879  -22.1777 C   0  0  0  0  0  0  0  0  0  0  0  0
  -47.6693  -10.2575  -18.8449 C   0  0  0  0  0  0  0  0  0  0  0  0
  -47.9398  -10.1602  -17.5559 N   0  0  0  0  0  0  0  0  0  0  0  0
  -46.7411   -9.9381  -16.9223 N   0  0  0  0  0  0  0  0  0  0  0  0
  -45.7426   -9.8857  -17.7936 N   0  0  0  0  0  0  0  0  0  0  0  0
  -46.3151  -10.0903  -18.9846 N   0  0  0  0  0  0  0  0  0  0  0  0
  -45.8320  -10.1173  -19.8420 H   0  0  0  0  0  0  0  0  0  0  0  0
  -53.6366  -10.7779  -24.9778 C   0  0  0  0  0  0  0  0  0  0  0  0
  -54.0774   -9.3553  -25.2397 C   0  0  0  0  0  0  0  0  0  0  0  0
  -55.0308   -8.7320  -24.4236 C   0  0  0  0  0  0  0  0  0  0  0  0
  -55.4246   -7.4167  -24.6742 C   0  0  0  0  0  0  0  0  0  0  0  0
  -54.8836   -6.7134  -25.7491 C   0  0  0  0  0  0  0  0  0  0  0  0
  -53.9457   -7.3266  -26.5759 C   0  0  0  0  0  0  0  0  0  0  0  0
  -53.5464   -8.6405  -26.3254 C   0  0  0  0  0  0  0  0  0  0  0  0
  2  3  2  0
  3  6  1  0
  6  7  2  0
  7  8  1  0
  8  9  2  0
  9 10  1  0
 10 11  1  0
 10 12  2  0
 12 13  1  0
 13 14  2  0
 14 15  1  0
 15 16  1  0
 16 17  2  0
 17 18  1  0
 18 19  2  0
  3  4  1  0
  4  1  1  0
  1 36  1  0
 36 37  1  0
 37 38  2  0
 38 39  1  0
 39 40  2  0
 40 41  1  0
 41 42  2  0
  1 20  1  0
 20 21  2  0
 20 22  1  0
 22 24  1  0
 24 25  2  0
 25 26  1  0
 26 27  2  0
 27 30  1  0
 30 31  2  0
 31 32  1  0
 32 33  2  0
 33 34  1  0
 27 28  1  0
 28 29  2  0
 14  8  1  0
 19 15  1  0
 42 37  1  0
 29 24  1  0
 34 30  1  0
  4  5  1  0
 22 23  1  0
 34 35  1  0
M  END
> <minimizedAffinity>
-10.08967

> <CNNscore>
0.2569143772

> <CNNaffinity>
6.5291228294

> <CNN_VS>
1.6774255037

> <CNNaffinity_variance>
1.3076602221

$$$$
