


 36 38  0  0  0  0  0  0  0  0999 V2000
   20.3601  -28.2070   12.1489 C   0  0  0  0  0  0  0  0  0  0  0  0
   21.5588  -27.9987   11.5770 C   0  0  0  0  0  0  0  0  0  0  0  0
   19.3908  -31.6644   13.0736 C   0  0  0  0  0  0  0  0  0  0  0  0
   20.3497  -30.7376   12.3264 C   0  0  0  0  0  0  0  0  0  0  0  0
   20.0209  -29.4001   12.9965 C   0  0  0  0  0  0  0  0  0  0  0  0
   18.5930  -29.3957   13.1831 O   0  0  0  0  0  0  0  0  0  0  0  0
   18.1368  -30.7686   13.1605 C   0  0  0  0  0  0  0  0  0  0  0  0
   20.3393  -33.2392   14.6214 C   0  0  0  0  0  0  0  0  0  0  0  0
   19.8028  -31.9360   14.4307 O   0  0  0  0  0  0  0  0  0  0  0  0
   21.7300  -31.0795   12.4302 O   0  0  0  0  0  0  0  0  0  0  0  0
   22.0854  -32.1713   11.5892 C   0  0  0  0  0  0  0  0  0  0  0  0
   16.9806  -31.0075   11.7495 S   0  0  0  0  0  0  0  0  0  0  0  0
   15.4044  -30.7950   12.5592 C   0  0  0  0  0  0  0  0  0  0  0  0
   14.3501  -31.6323   12.1970 C   0  0  0  0  0  0  0  0  0  0  0  0
   13.1318  -31.4702   12.8345 C   0  0  0  0  0  0  0  0  0  0  0  0
   12.9037  -30.5426   13.7866 N   0  0  0  0  0  0  0  0  0  0  0  0
   13.9305  -29.7242   14.0980 C   0  0  0  0  0  0  0  0  0  0  0  0
   15.1849  -29.8066   13.5163 C   0  0  0  0  0  0  0  0  0  0  0  0
   21.8936  -26.8004   10.7505 C   0  0  0  0  0  0  0  0  0  0  0  0
   22.7295  -27.2509    9.6639 N   0  0  0  0  0  0  0  0  0  0  0  0
   22.1716  -27.9303    8.6041 C   0  0  0  0  0  0  0  0  0  0  0  0
   20.9915  -28.2757    8.5651 O   0  0  0  0  0  0  0  0  0  0  0  0
   23.6976  -27.0728    9.6804 H   0  0  0  0  0  0  0  0  0  0  0  0
   23.0462  -28.1998    7.4281 C   0  0  0  0  0  0  0  0  0  0  0  0
   23.1070  -29.4747    6.8479 C   0  0  0  0  0  0  0  0  0  0  0  0
   23.9604  -29.6993    5.7550 C   0  0  0  0  0  0  0  0  0  0  0  0
   24.7461  -28.6683    5.2251 C   0  0  0  0  0  0  0  0  0  0  0  0
   24.6624  -27.3994    5.7938 C   0  0  0  0  0  0  0  0  0  0  0  0
   25.4122  -26.3732    5.2892 O   0  0  0  0  0  0  0  0  0  0  0  0
   23.8134  -27.1556    6.8810 C   0  0  0  0  0  0  0  0  0  0  0  0
   23.7679  -25.8767    7.3785 O   0  0  0  0  0  0  0  0  0  0  0  0
   25.9837  -26.5240    4.5622 H   0  0  0  0  0  0  0  0  0  0  0  0
   24.2923  -25.2042    6.9903 H   0  0  0  0  0  0  0  0  0  0  0  0
   24.0349  -31.0396    5.1578 N   0  0  0  0  0  0  0  0  0  0  0  0
   23.0079  -31.4918    4.6347 O   0  0  0  0  0  0  0  0  0  0  0  0
   25.1186  -31.6374    5.2156 O   0  0  0  0  0  0  0  0  0  0  0  0
  8  9  1  0
  3  9  1  0
  3  4  1  0
  4 10  1  0
 10 11  1  0
  4  5  1  0
  5  1  1  0
  1  2  2  0
  2 19  1  0
 19 20  1  0
 20 21  1  0
 21 22  2  0
 21 24  1  0
 24 25  2  0
 25 26  1  0
 26 34  1  0
 34 35  2  0
 34 36  1  0
 26 27  2  0
 27 28  1  0
 28 29  1  0
 28 30  2  0
 30 31  1  0
  5  6  1  0
  6  7  1  0
  7 12  1  0
 12 13  1  0
 13 14  2  0
 14 15  1  0
 15 16  2  0
 16 17  1  0
 17 18  2  0
  7  3  1  0
 18 13  1  0
 30 24  1  0
 20 23  1  0
 29 32  1  0
 31 33  1  0
M  CHG 1  34   1
M  CHG 1  36  -1
M  END
> <minimizedAffinity>
-9.24438

> <CNNscore>
0.9495693445

> <CNNaffinity>
6.9609990120

> <CNN_VS>
6.6099514961

> <CNNaffinity_variance>
0.3505860865

$$$$



 36 38  0  0  0  0  0  0  0  0999 V2000
   20.4663  -31.2026    9.6518 C   0  0  0  0  0  0  0  0  0  0  0  0
   20.7193  -30.8190    8.3884 C   0  0  0  0  0  0  0  0  0  0  0  0
   19.6823  -29.9852   13.0652 C   0  0  0  0  0  0  0  0  0  0  0  0
   20.6334  -30.7462   12.1416 C   0  0  0  0  0  0  0  0  0  0  0  0
   20.1413  -30.2595   10.7752 C   0  0  0  0  0  0  0  0  0  0  0  0
   18.7061  -30.1971   10.8750 O   0  0  0  0  0  0  0  0  0  0  0  0
   18.3606  -30.1058   12.2770 C   0  0  0  0  0  0  0  0  0  0  0  0
   20.8141  -28.0932   12.1088 C   0  0  0  0  0  0  0  0  0  0  0  0
   19.9842  -28.5761   13.1579 O   0  0  0  0  0  0  0  0  0  0  0  0
   22.0199  -30.4876   12.3504 O   0  0  0  0  0  0  0  0  0  0  0  0
   22.7517  -31.6656   12.6698 C   0  0  0  0  0  0  0  0  0  0  0  0
   17.3643  -31.5750   12.7602 S   0  0  0  0  0  0  0  0  0  0  0  0
   15.7309  -30.8628   12.8594 C   0  0  0  0  0  0  0  0  0  0  0  0
   14.6788  -31.5144   12.2171 C   0  0  0  0  0  0  0  0  0  0  0  0
   13.4117  -30.9635   12.3047 C   0  0  0  0  0  0  0  0  0  0  0  0
   13.1355  -29.8262   12.9748 N   0  0  0  0  0  0  0  0  0  0  0  0
   14.1751  -29.1977   13.5622 C   0  0  0  0  0  0  0  0  0  0  0  0
   15.4775  -29.6682   13.5301 C   0  0  0  0  0  0  0  0  0  0  0  0
   21.0237  -31.7647    7.2729 C   0  0  0  0  0  0  0  0  0  0  0  0
   22.0897  -31.1796    6.4960 N   0  0  0  0  0  0  0  0  0  0  0  0
   22.5539  -29.9206    6.8049 C   0  0  0  0  0  0  0  0  0  0  0  0
   22.0416  -29.1995    7.6598 O   0  0  0  0  0  0  0  0  0  0  0  0
   22.4847  -31.6801    5.7459 H   0  0  0  0  0  0  0  0  0  0  0  0
   23.7769  -29.4496    6.0957 C   0  0  0  0  0  0  0  0  0  0  0  0
   24.6712  -30.3586    5.5128 C   0  0  0  0  0  0  0  0  0  0  0  0
   25.8266  -29.8808    4.8726 C   0  0  0  0  0  0  0  0  0  0  0  0
   26.0980  -28.5092    4.7955 C   0  0  0  0  0  0  0  0  0  0  0  0
   25.1924  -27.6124    5.3578 C   0  0  0  0  0  0  0  0  0  0  0  0
   25.4293  -26.2674    5.2881 O   0  0  0  0  0  0  0  0  0  0  0  0
   24.0325  -28.0702    5.9961 C   0  0  0  0  0  0  0  0  0  0  0  0
   23.1759  -27.1288    6.5110 O   0  0  0  0  0  0  0  0  0  0  0  0
   26.2017  -25.9491    4.8637 H   0  0  0  0  0  0  0  0  0  0  0  0
   23.3765  -26.2173    6.4273 H   0  0  0  0  0  0  0  0  0  0  0  0
   26.7709  -30.8352    4.2758 N   0  0  0  0  0  0  0  0  0  0  0  0
   27.5206  -30.4177    3.3833 O   0  0  0  0  0  0  0  0  0  0  0  0
   26.7587  -31.9997    4.6988 O   0  0  0  0  0  0  0  0  0  0  0  0
  8  9  1  0
  3  9  1  0
  3  4  1  0
  4 10  1  0
 10 11  1  0
  4  5  1  0
  5  1  1  0
  1  2  2  0
  2 19  1  0
 19 20  1  0
 20 21  1  0
 21 22  2  0
 21 24  1  0
 24 25  2  0
 25 26  1  0
 26 34  1  0
 34 35  2  0
 34 36  1  0
 26 27  2  0
 27 28  1  0
 28 29  1  0
 28 30  2  0
 30 31  1  0
  5  6  1  0
  6  7  1  0
  7 12  1  0
 12 13  1  0
 13 14  2  0
 14 15  1  0
 15 16  2  0
 16 17  1  0
 17 18  2  0
  7  3  1  0
 18 13  1  0
 30 24  1  0
 20 23  1  0
 29 32  1  0
 31 33  1  0
M  CHG 1  34   1
M  CHG 1  36  -1
M  END
> <minimizedAffinity>
-8.97406

> <CNNscore>
0.9472408295

> <CNNaffinity>
6.6650090218

> <CNN_VS>
6.3133687973

> <CNNaffinity_variance>
0.3717557490

$$$$



 36 38  0  0  0  0  0  0  0  0999 V2000
   20.8450  -32.7826   13.5001 C   0  0  0  0  0  0  0  0  0  0  0  0
   19.6458  -32.2736   13.1680 C   0  0  0  0  0  0  0  0  0  0  0  0
   20.4992  -36.4351   12.9637 C   0  0  0  0  0  0  0  0  0  0  0  0
   20.5270  -35.0288   12.3650 C   0  0  0  0  0  0  0  0  0  0  0  0
   21.1681  -34.2497   13.5173 C   0  0  0  0  0  0  0  0  0  0  0  0
   20.6002  -34.7950   14.7230 O   0  0  0  0  0  0  0  0  0  0  0  0
   20.0986  -36.1180   14.4202 C   0  0  0  0  0  0  0  0  0  0  0  0
   21.9175  -38.2223   12.2090 C   0  0  0  0  0  0  0  0  0  0  0  0
   21.8011  -37.0575   13.0165 O   0  0  0  0  0  0  0  0  0  0  0  0
   21.2534  -34.9021   11.1447 O   0  0  0  0  0  0  0  0  0  0  0  0
   22.3982  -34.0669   11.2765 C   0  0  0  0  0  0  0  0  0  0  0  0
   18.2798  -36.1617   14.6937 S   0  0  0  0  0  0  0  0  0  0  0  0
   18.1846  -37.0958   16.2115 C   0  0  0  0  0  0  0  0  0  0  0  0
   19.1772  -38.0378   16.4785 C   0  0  0  0  0  0  0  0  0  0  0  0
   19.1047  -38.7533   17.6615 C   0  0  0  0  0  0  0  0  0  0  0  0
   18.1231  -38.5942   18.5726 N   0  0  0  0  0  0  0  0  0  0  0  0
   17.1576  -37.6989   18.2775 C   0  0  0  0  0  0  0  0  0  0  0  0
   17.1414  -36.9365   17.1211 C   0  0  0  0  0  0  0  0  0  0  0  0
   19.3381  -30.8123   13.1358 C   0  0  0  0  0  0  0  0  0  0  0  0
   17.9226  -30.6685   13.3766 N   0  0  0  0  0  0  0  0  0  0  0  0
   17.0319  -30.7969   12.3343 C   0  0  0  0  0  0  0  0  0  0  0  0
   17.3755  -30.9321   11.1609 O   0  0  0  0  0  0  0  0  0  0  0  0
   17.5941  -30.4788   14.2851 H   0  0  0  0  0  0  0  0  0  0  0  0
   15.5814  -30.8297   12.6746 C   0  0  0  0  0  0  0  0  0  0  0  0
   14.6855  -31.6281   11.9497 C   0  0  0  0  0  0  0  0  0  0  0  0
   13.3208  -31.6165   12.2826 C   0  0  0  0  0  0  0  0  0  0  0  0
   12.8380  -30.8288   13.3348 C   0  0  0  0  0  0  0  0  0  0  0  0
   13.7390  -30.0559   14.0639 C   0  0  0  0  0  0  0  0  0  0  0  0
   13.2945  -29.2849   15.1022 O   0  0  0  0  0  0  0  0  0  0  0  0
   15.1041  -30.0584   13.7495 C   0  0  0  0  0  0  0  0  0  0  0  0
   15.9363  -29.2870   14.5224 O   0  0  0  0  0  0  0  0  0  0  0  0
   12.3838  -29.2750   15.3220 H   0  0  0  0  0  0  0  0  0  0  0  0
   15.5854  -28.7849   15.2314 H   0  0  0  0  0  0  0  0  0  0  0  0
   12.3806  -32.4418   11.5121 N   0  0  0  0  0  0  0  0  0  0  0  0
   11.9609  -31.9841   10.4410 O   0  0  0  0  0  0  0  0  0  0  0  0
   12.0621  -33.5435   11.9810 O   0  0  0  0  0  0  0  0  0  0  0  0
  8  9  1  0
  3  9  1  0
  3  4  1  0
  4 10  1  0
 10 11  1  0
  4  5  1  0
  5  1  1  0
  1  2  2  0
  2 19  1  0
 19 20  1  0
 20 21  1  0
 21 22  2  0
 21 24  1  0
 24 25  2  0
 25 26  1  0
 26 34  1  0
 34 35  2  0
 34 36  1  0
 26 27  2  0
 27 28  1  0
 28 29  1  0
 28 30  2  0
 30 31  1  0
  5  6  1  0
  6  7  1  0
  7 12  1  0
 12 13  1  0
 13 14  2  0
 14 15  1  0
 15 16  2  0
 16 17  1  0
 17 18  2  0
  7  3  1  0
 18 13  1  0
 30 24  1  0
 20 23  1  0
 29 32  1  0
 31 33  1  0
M  CHG 1  34   1
M  CHG 1  36  -1
M  END
> <minimizedAffinity>
-8.11323

> <CNNscore>
0.7091237903

> <CNNaffinity>
6.6002974510

> <CNN_VS>
4.6804280281

> <CNNaffinity_variance>
0.1434943676

$$$$



 36 38  0  0  0  0  0  0  0  0999 V2000
   20.8588  -32.1874   12.6271 C   0  0  0  0  0  0  0  0  0  0  0  0
   19.7045  -31.7219   13.1353 C   0  0  0  0  0  0  0  0  0  0  0  0
   22.6224  -35.3075   13.5771 C   0  0  0  0  0  0  0  0  0  0  0  0
   21.7556  -34.1220   14.0013 C   0  0  0  0  0  0  0  0  0  0  0  0
   21.2664  -33.6334   12.6346 C   0  0  0  0  0  0  0  0  0  0  0  0
   22.3927  -33.7612   11.7465 O   0  0  0  0  0  0  0  0  0  0  0  0
   23.3042  -34.7278   12.3194 C   0  0  0  0  0  0  0  0  0  0  0  0
   22.4872  -37.2242   12.1338 C   0  0  0  0  0  0  0  0  0  0  0  0
   21.8527  -36.4498   13.1438 O   0  0  0  0  0  0  0  0  0  0  0  0
   20.6844  -34.4387   14.8873 O   0  0  0  0  0  0  0  0  0  0  0  0
   19.5857  -35.0473   14.2180 C   0  0  0  0  0  0  0  0  0  0  0  0
   24.9135  -33.9135   12.6820 S   0  0  0  0  0  0  0  0  0  0  0  0
   25.1710  -34.4050   14.3783 C   0  0  0  0  0  0  0  0  0  0  0  0
   25.8720  -35.5831   14.6324 C   0  0  0  0  0  0  0  0  0  0  0  0
   26.0777  -35.9556   15.9499 C   0  0  0  0  0  0  0  0  0  0  0  0
   25.6338  -35.2441   17.0061 N   0  0  0  0  0  0  0  0  0  0  0  0
   24.9318  -34.1242   16.7343 C   0  0  0  0  0  0  0  0  0  0  0  0
   24.6729  -33.6696   15.4517 C   0  0  0  0  0  0  0  0  0  0  0  0
   19.2985  -30.2847   13.1074 C   0  0  0  0  0  0  0  0  0  0  0  0
   17.8720  -30.2396   13.3205 N   0  0  0  0  0  0  0  0  0  0  0  0
   17.0145  -30.6205   12.3128 C   0  0  0  0  0  0  0  0  0  0  0  0
   17.3884  -30.9114   11.1775 O   0  0  0  0  0  0  0  0  0  0  0  0
   17.5123  -29.9369   14.1855 H   0  0  0  0  0  0  0  0  0  0  0  0
   15.5682  -30.7360   12.6528 C   0  0  0  0  0  0  0  0  0  0  0  0
   14.7126  -31.5594   11.9075 C   0  0  0  0  0  0  0  0  0  0  0  0
   13.3497  -31.6261   12.2413 C   0  0  0  0  0  0  0  0  0  0  0  0
   12.8295  -30.8921   13.3144 C   0  0  0  0  0  0  0  0  0  0  0  0
   13.6915  -30.0941   14.0633 C   0  0  0  0  0  0  0  0  0  0  0  0
   13.2105  -29.3745   15.1220 O   0  0  0  0  0  0  0  0  0  0  0  0
   15.0543  -30.0188   13.7482 C   0  0  0  0  0  0  0  0  0  0  0  0
   15.8478  -29.2270   14.5409 O   0  0  0  0  0  0  0  0  0  0  0  0
   12.3008  -29.4167   15.3425 H   0  0  0  0  0  0  0  0  0  0  0  0
   15.4732  -28.7624   15.2632 H   0  0  0  0  0  0  0  0  0  0  0  0
   12.4511  -32.4772   11.4497 N   0  0  0  0  0  0  0  0  0  0  0  0
   11.8576  -33.3893   12.0403 O   0  0  0  0  0  0  0  0  0  0  0  0
   12.3432  -32.2336   10.2397 O   0  0  0  0  0  0  0  0  0  0  0  0
  8  9  1  0
  3  9  1  0
  3  4  1  0
  4 10  1  0
 10 11  1  0
  4  5  1  0
  5  1  1  0
  1  2  2  0
  2 19  1  0
 19 20  1  0
 20 21  1  0
 21 22  2  0
 21 24  1  0
 24 25  2  0
 25 26  1  0
 26 34  1  0
 34 35  2  0
 34 36  1  0
 26 27  2  0
 27 28  1  0
 28 29  1  0
 28 30  2  0
 30 31  1  0
  5  6  1  0
  6  7  1  0
  7 12  1  0
 12 13  1  0
 13 14  2  0
 14 15  1  0
 15 16  2  0
 16 17  1  0
 17 18  2  0
  7  3  1  0
 18 13  1  0
 30 24  1  0
 20 23  1  0
 29 32  1  0
 31 33  1  0
M  CHG 1  34   1
M  CHG 1  36  -1
M  END
> <minimizedAffinity>
-8.21111

> <CNNscore>
0.5794382095

> <CNNaffinity>
6.4646306038

> <CNN_VS>
3.7458539009

> <CNNaffinity_variance>
0.1340060979

$$$$



 36 38  0  0  0  0  0  0  0  0999 V2000
   21.1893  -32.5280   13.7984 C   0  0  0  0  0  0  0  0  0  0  0  0
   19.9064  -32.1377   13.7023 C   0  0  0  0  0  0  0  0  0  0  0  0
   22.1106  -36.1121   14.0286 C   0  0  0  0  0  0  0  0  0  0  0  0
   22.3409  -34.7487   13.3770 C   0  0  0  0  0  0  0  0  0  0  0  0
   21.6356  -33.8369   14.3855 C   0  0  0  0  0  0  0  0  0  0  0  0
   20.4500  -34.5456   14.7924 O   0  0  0  0  0  0  0  0  0  0  0  0
   20.6566  -35.9518   14.5213 C   0  0  0  0  0  0  0  0  0  0  0  0
   23.0500  -37.6948   15.5740 C   0  0  0  0  0  0  0  0  0  0  0  0
   22.9256  -36.3281   15.2010 O   0  0  0  0  0  0  0  0  0  0  0  0
   23.7073  -34.3937   13.1770 O   0  0  0  0  0  0  0  0  0  0  0  0
   24.3369  -35.1907   12.1802 C   0  0  0  0  0  0  0  0  0  0  0  0
   19.4121  -36.5296   13.2958 S   0  0  0  0  0  0  0  0  0  0  0  0
   18.1148  -37.1116   14.3743 C   0  0  0  0  0  0  0  0  0  0  0  0
   17.4220  -38.2688   14.0205 C   0  0  0  0  0  0  0  0  0  0  0  0
   16.4229  -38.7220   14.8650 C   0  0  0  0  0  0  0  0  0  0  0  0
   16.0766  -38.1043   16.0127 N   0  0  0  0  0  0  0  0  0  0  0  0
   16.7404  -36.9698   16.3180 C   0  0  0  0  0  0  0  0  0  0  0  0
   17.7533  -36.4364   15.5381 C   0  0  0  0  0  0  0  0  0  0  0  0
   19.4698  -30.8422   13.1004 C   0  0  0  0  0  0  0  0  0  0  0  0
   18.0554  -30.7091   13.3529 N   0  0  0  0  0  0  0  0  0  0  0  0
   17.1608  -30.7862   12.3089 C   0  0  0  0  0  0  0  0  0  0  0  0
   17.5002  -30.8647   11.1291 O   0  0  0  0  0  0  0  0  0  0  0  0
   17.7302  -30.5633   14.2707 H   0  0  0  0  0  0  0  0  0  0  0  0
   15.7116  -30.8342   12.6523 C   0  0  0  0  0  0  0  0  0  0  0  0
   14.8186  -31.6248   11.9154 C   0  0  0  0  0  0  0  0  0  0  0  0
   13.4548  -31.6278   12.2521 C   0  0  0  0  0  0  0  0  0  0  0  0
   12.9700  -30.8624   13.3198 C   0  0  0  0  0  0  0  0  0  0  0  0
   13.8682  -30.0973   14.0604 C   0  0  0  0  0  0  0  0  0  0  0  0
   13.4219  -29.3480   15.1137 O   0  0  0  0  0  0  0  0  0  0  0  0
   15.2324  -30.0855   13.7424 C   0  0  0  0  0  0  0  0  0  0  0  0
   16.0621  -29.3232   14.5270 O   0  0  0  0  0  0  0  0  0  0  0  0
   12.5117  -29.3478   15.3361 H   0  0  0  0  0  0  0  0  0  0  0  0
   15.7100  -28.8362   15.2459 H   0  0  0  0  0  0  0  0  0  0  0  0
   12.5175  -32.4447   11.4692 N   0  0  0  0  0  0  0  0  0  0  0  0
   11.9738  -33.3992   12.0405 O   0  0  0  0  0  0  0  0  0  0  0  0
   12.3296  -32.1319   10.2853 O   0  0  0  0  0  0  0  0  0  0  0  0
  8  9  1  0
  3  9  1  0
  3  4  1  0
  4 10  1  0
 10 11  1  0
  4  5  1  0
  5  1  1  0
  1  2  2  0
  2 19  1  0
 19 20  1  0
 20 21  1  0
 21 22  2  0
 21 24  1  0
 24 25  2  0
 25 26  1  0
 26 34  1  0
 34 35  2  0
 34 36  1  0
 26 27  2  0
 27 28  1  0
 28 29  1  0
 28 30  2  0
 30 31  1  0
  5  6  1  0
  6  7  1  0
  7 12  1  0
 12 13  1  0
 13 14  2  0
 14 15  1  0
 15 16  2  0
 16 17  1  0
 17 18  2  0
  7  3  1  0
 18 13  1  0
 30 24  1  0
 20 23  1  0
 29 32  1  0
 31 33  1  0
M  CHG 1  34   1
M  CHG 1  36  -1
M  END
> <minimizedAffinity>
-7.68223

> <CNNscore>
0.5273435116

> <CNNaffinity>
6.4767365456

> <CNN_VS>
3.4154648781

> <CNNaffinity_variance>
0.0798213929

$$$$



 36 38  0  0  0  0  0  0  0  0999 V2000
   20.1448  -30.6285   10.0085 C   0  0  0  0  0  0  0  0  0  0  0  0
   20.9623  -31.0324    9.0206 C   0  0  0  0  0  0  0  0  0  0  0  0
   21.6327  -31.3313   13.3312 C   0  0  0  0  0  0  0  0  0  0  0  0
   21.3359  -30.3172   12.2266 C   0  0  0  0  0  0  0  0  0  0  0  0
   20.2604  -31.0719   11.4393 C   0  0  0  0  0  0  0  0  0  0  0  0
   20.6800  -32.4493   11.4240 O   0  0  0  0  0  0  0  0  0  0  0  0
   21.5937  -32.6488   12.5279 C   0  0  0  0  0  0  0  0  0  0  0  0
   20.2384  -32.7486   14.6812 C   0  0  0  0  0  0  0  0  0  0  0  0
   20.5858  -31.4171   14.3220 O   0  0  0  0  0  0  0  0  0  0  0  0
   20.8917  -29.0397   12.6778 O   0  0  0  0  0  0  0  0  0  0  0  0
   19.4743  -28.9148   12.6503 C   0  0  0  0  0  0  0  0  0  0  0  0
   23.2414  -33.1463   11.8781 S   0  0  0  0  0  0  0  0  0  0  0  0
   23.8592  -34.1323   13.2313 C   0  0  0  0  0  0  0  0  0  0  0  0
   24.2726  -33.4844   14.3946 C   0  0  0  0  0  0  0  0  0  0  0  0
   24.7422  -34.2540   15.4453 C   0  0  0  0  0  0  0  0  0  0  0  0
   24.8270  -35.5994   15.4072 N   0  0  0  0  0  0  0  0  0  0  0  0
   24.4499  -36.2012   14.2598 C   0  0  0  0  0  0  0  0  0  0  0  0
   23.9683  -35.5192   13.1545 C   0  0  0  0  0  0  0  0  0  0  0  0
   20.8518  -30.5724    7.6038 C   0  0  0  0  0  0  0  0  0  0  0  0
   22.1582  -30.1099    7.2018 N   0  0  0  0  0  0  0  0  0  0  0  0
   22.7374  -30.6009    6.0530 C   0  0  0  0  0  0  0  0  0  0  0  0
   22.2466  -31.5052    5.3789 O   0  0  0  0  0  0  0  0  0  0  0  0
   22.6349  -29.4440    7.7482 H   0  0  0  0  0  0  0  0  0  0  0  0
   23.9943  -29.9489    5.5885 C   0  0  0  0  0  0  0  0  0  0  0  0
   25.0673  -30.7089    5.1020 C   0  0  0  0  0  0  0  0  0  0  0  0
   26.2462  -30.0629    4.6946 C   0  0  0  0  0  0  0  0  0  0  0  0
   26.3670  -28.6691    4.7549 C   0  0  0  0  0  0  0  0  0  0  0  0
   25.2875  -27.9205    5.2186 C   0  0  0  0  0  0  0  0  0  0  0  0
   25.3764  -26.5573    5.2788 O   0  0  0  0  0  0  0  0  0  0  0  0
   24.1022  -28.5470    5.6247 C   0  0  0  0  0  0  0  0  0  0  0  0
   23.0731  -27.7452    6.0527 O   0  0  0  0  0  0  0  0  0  0  0  0
   26.1640  -26.1268    5.0099 H   0  0  0  0  0  0  0  0  0  0  0  0
   23.1783  -26.8142    6.0642 H   0  0  0  0  0  0  0  0  0  0  0  0
   27.3756  -30.8616    4.1996 N   0  0  0  0  0  0  0  0  0  0  0  0
   27.4965  -32.0145    4.6345 O   0  0  0  0  0  0  0  0  0  0  0  0
   28.1401  -30.3337    3.3799 O   0  0  0  0  0  0  0  0  0  0  0  0
  8  9  1  0
  3  9  1  0
  3  4  1  0
  4 10  1  0
 10 11  1  0
  4  5  1  0
  5  1  1  0
  1  2  2  0
  2 19  1  0
 19 20  1  0
 20 21  1  0
 21 22  2  0
 21 24  1  0
 24 25  2  0
 25 26  1  0
 26 34  1  0
 34 35  2  0
 34 36  1  0
 26 27  2  0
 27 28  1  0
 28 29  1  0
 28 30  2  0
 30 31  1  0
  5  6  1  0
  6  7  1  0
  7 12  1  0
 12 13  1  0
 13 14  2  0
 14 15  1  0
 15 16  2  0
 16 17  1  0
 17 18  2  0
  7  3  1  0
 18 13  1  0
 30 24  1  0
 20 23  1  0
 29 32  1  0
 31 33  1  0
M  CHG 1  34   1
M  CHG 1  36  -1
M  END
> <minimizedAffinity>
-7.06874

> <CNNscore>
0.5116490126

> <CNNaffinity>
6.4267330170

> <CNN_VS>
3.2882316113

> <CNNaffinity_variance>
0.2321527749

$$$$



 36 38  0  0  0  0  0  0  0  0999 V2000
   20.6980  -33.3502   13.4922 C   0  0  0  0  0  0  0  0  0  0  0  0
   19.5952  -32.6439   13.7957 C   0  0  0  0  0  0  0  0  0  0  0  0
   22.0196  -36.8086   13.6945 C   0  0  0  0  0  0  0  0  0  0  0  0
   22.2944  -35.3217   13.4707 C   0  0  0  0  0  0  0  0  0  0  0  0
   21.0096  -34.7135   14.0412 C   0  0  0  0  0  0  0  0  0  0  0  0
   19.9443  -35.5904   13.6293 O   0  0  0  0  0  0  0  0  0  0  0  0
   20.5225  -36.8815   13.3257 C   0  0  0  0  0  0  0  0  0  0  0  0
   21.3177  -38.3235   15.4231 C   0  0  0  0  0  0  0  0  0  0  0  0
   22.1267  -37.2057   15.0787 O   0  0  0  0  0  0  0  0  0  0  0  0
   23.4688  -34.8187   14.1037 O   0  0  0  0  0  0  0  0  0  0  0  0
   24.4046  -34.2874   13.1724 C   0  0  0  0  0  0  0  0  0  0  0  0
   20.2351  -37.2807   11.5529 S   0  0  0  0  0  0  0  0  0  0  0  0
   18.7666  -38.2889   11.6631 C   0  0  0  0  0  0  0  0  0  0  0  0
   18.1173  -38.6531   10.4842 C   0  0  0  0  0  0  0  0  0  0  0  0
   16.9840  -39.4432   10.5739 C   0  0  0  0  0  0  0  0  0  0  0  0
   16.4671  -39.8795   11.7407 N   0  0  0  0  0  0  0  0  0  0  0  0
   17.0953  -39.4886   12.8691 C   0  0  0  0  0  0  0  0  0  0  0  0
   18.2332  -38.6989   12.8832 C   0  0  0  0  0  0  0  0  0  0  0  0
   19.2840  -31.2965   13.2311 C   0  0  0  0  0  0  0  0  0  0  0  0
   17.8799  -31.0524   13.4575 N   0  0  0  0  0  0  0  0  0  0  0  0
   17.0164  -30.9666   12.3883 C   0  0  0  0  0  0  0  0  0  0  0  0
   17.3853  -30.9863   11.2150 O   0  0  0  0  0  0  0  0  0  0  0  0
   17.5397  -30.9474   14.3753 H   0  0  0  0  0  0  0  0  0  0  0  0
   15.5583  -30.9061   12.6902 C   0  0  0  0  0  0  0  0  0  0  0  0
   14.6344  -31.6602   11.9531 C   0  0  0  0  0  0  0  0  0  0  0  0
   13.2649  -31.5607   12.2492 C   0  0  0  0  0  0  0  0  0  0  0  0
   12.8040  -30.7286   13.2769 C   0  0  0  0  0  0  0  0  0  0  0  0
   13.7313  -30.0003   14.0186 C   0  0  0  0  0  0  0  0  0  0  0  0
   13.3081  -29.1873   15.0335 O   0  0  0  0  0  0  0  0  0  0  0  0
   15.1013  -30.0903   13.7408 C   0  0  0  0  0  0  0  0  0  0  0  0
   15.9589  -29.3586   14.5246 O   0  0  0  0  0  0  0  0  0  0  0  0
   12.3942  -29.1188   15.2288 H   0  0  0  0  0  0  0  0  0  0  0  0
   15.6210  -28.8250   15.2167 H   0  0  0  0  0  0  0  0  0  0  0  0
   12.2962  -32.3396   11.4658 N   0  0  0  0  0  0  0  0  0  0  0  0
   12.0659  -33.5004   11.8297 O   0  0  0  0  0  0  0  0  0  0  0  0
   11.7705  -31.7901   10.4877 O   0  0  0  0  0  0  0  0  0  0  0  0
  8  9  1  0
  3  9  1  0
  3  4  1  0
  4 10  1  0
 10 11  1  0
  4  5  1  0
  5  1  1  0
  1  2  2  0
  2 19  1  0
 19 20  1  0
 20 21  1  0
 21 22  2  0
 21 24  1  0
 24 25  2  0
 25 26  1  0
 26 34  1  0
 34 35  2  0
 34 36  1  0
 26 27  2  0
 27 28  1  0
 28 29  1  0
 28 30  2  0
 30 31  1  0
  5  6  1  0
  6  7  1  0
  7 12  1  0
 12 13  1  0
 13 14  2  0
 14 15  1  0
 15 16  2  0
 16 17  1  0
 17 18  2  0
  7  3  1  0
 18 13  1  0
 30 24  1  0
 20 23  1  0
 29 32  1  0
 31 33  1  0
M  CHG 1  34   1
M  CHG 1  36  -1
M  END
> <minimizedAffinity>
-7.63804

> <CNNscore>
0.4418367743

> <CNNaffinity>
6.1688880920

> <CNN_VS>
2.7256417274

> <CNNaffinity_variance>
0.0403794721

$$$$



 36 38  0  0  0  0  0  0  0  0999 V2000
   20.1003  -30.6027    9.5511 C   0  0  0  0  0  0  0  0  0  0  0  0
   21.2686  -31.0871    9.0951 C   0  0  0  0  0  0  0  0  0  0  0  0
   19.6348  -30.3108   13.2180 C   0  0  0  0  0  0  0  0  0  0  0  0
   20.4724  -30.8314   12.0500 C   0  0  0  0  0  0  0  0  0  0  0  0
   19.9108  -29.9818   10.9059 C   0  0  0  0  0  0  0  0  0  0  0  0
   18.4924  -29.8981   11.1396 O   0  0  0  0  0  0  0  0  0  0  0  0
   18.2549  -30.1710   12.5405 C   0  0  0  0  0  0  0  0  0  0  0  0
   20.3440  -28.1033   12.5862 C   0  0  0  0  0  0  0  0  0  0  0  0
   20.0212  -28.9886   13.6513 O   0  0  0  0  0  0  0  0  0  0  0  0
   21.8827  -30.6863   12.2013 O   0  0  0  0  0  0  0  0  0  0  0  0
   22.5003  -31.8644   12.7074 C   0  0  0  0  0  0  0  0  0  0  0  0
   17.2152  -31.6800   12.7037 S   0  0  0  0  0  0  0  0  0  0  0  0
   15.5891  -30.9603   12.8547 C   0  0  0  0  0  0  0  0  0  0  0  0
   14.5160  -31.6007   12.2364 C   0  0  0  0  0  0  0  0  0  0  0  0
   13.2548  -31.0440   12.3643 C   0  0  0  0  0  0  0  0  0  0  0  0
   13.0037  -29.9111   13.0515 N   0  0  0  0  0  0  0  0  0  0  0  0
   14.0627  -29.2932   13.6150 C   0  0  0  0  0  0  0  0  0  0  0  0
   15.3612  -29.7702   13.5425 C   0  0  0  0  0  0  0  0  0  0  0  0
   21.4527  -31.6864    7.7393 C   0  0  0  0  0  0  0  0  0  0  0  0
   22.6725  -31.1419    7.1938 N   0  0  0  0  0  0  0  0  0  0  0  0
   23.2442  -31.7170    6.0809 C   0  0  0  0  0  0  0  0  0  0  0  0
   22.8285  -32.7525    5.5630 O   0  0  0  0  0  0  0  0  0  0  0  0
   23.0956  -30.3600    7.6167 H   0  0  0  0  0  0  0  0  0  0  0  0
   24.3894  -30.9998    5.4524 C   0  0  0  0  0  0  0  0  0  0  0  0
   24.5569  -29.6177    5.6180 C   0  0  0  0  0  0  0  0  0  0  0  0
   25.6345  -28.9699    4.9917 C   0  0  0  0  0  0  0  0  0  0  0  0
   26.5539  -29.6819    4.2115 C   0  0  0  0  0  0  0  0  0  0  0  0
   26.3922  -31.0583    4.0710 C   0  0  0  0  0  0  0  0  0  0  0  0
   27.2814  -31.7783    3.3219 O   0  0  0  0  0  0  0  0  0  0  0  0
   25.3264  -31.7222    4.6920 C   0  0  0  0  0  0  0  0  0  0  0  0
   25.2401  -33.0822    4.5252 O   0  0  0  0  0  0  0  0  0  0  0  0
   27.9984  -31.3454    2.9017 H   0  0  0  0  0  0  0  0  0  0  0  0
   25.8816  -33.5329    4.0120 H   0  0  0  0  0  0  0  0  0  0  0  0
   25.8001  -27.5190    5.1533 N   0  0  0  0  0  0  0  0  0  0  0  0
   24.8989  -26.9005    5.7347 O   0  0  0  0  0  0  0  0  0  0  0  0
   26.8289  -27.0015    4.6963 O   0  0  0  0  0  0  0  0  0  0  0  0
  8  9  1  0
  3  9  1  0
  3  4  1  0
  4 10  1  0
 10 11  1  0
  4  5  1  0
  5  1  1  0
  1  2  2  0
  2 19  1  0
 19 20  1  0
 20 21  1  0
 21 22  2  0
 21 24  1  0
 24 25  2  0
 25 26  1  0
 26 34  1  0
 34 35  2  0
 34 36  1  0
 26 27  2  0
 27 28  1  0
 28 29  1  0
 28 30  2  0
 30 31  1  0
  5  6  1  0
  6  7  1  0
  7 12  1  0
 12 13  1  0
 13 14  2  0
 14 15  1  0
 15 16  2  0
 16 17  1  0
 17 18  2  0
  7  3  1  0
 18 13  1  0
 30 24  1  0
 20 23  1  0
 29 32  1  0
 31 33  1  0
M  CHG 1  34   1
M  CHG 1  36  -1
M  END
> <minimizedAffinity>
-7.88281

> <CNNscore>
0.4390618205

> <CNNaffinity>
5.5959515572

> <CNN_VS>
2.4569687843

> <CNNaffinity_variance>
0.8287527561

$$$$



 36 38  0  0  0  0  0  0  0  0999 V2000
   20.7647  -32.4983   13.2443 C   0  0  0  0  0  0  0  0  0  0  0  0
   19.6560  -31.8728   12.8118 C   0  0  0  0  0  0  0  0  0  0  0  0
   22.7253  -35.5566   12.5023 C   0  0  0  0  0  0  0  0  0  0  0  0
   22.4971  -34.3444   13.4052 C   0  0  0  0  0  0  0  0  0  0  0  0
   21.0828  -33.9419   12.9764 C   0  0  0  0  0  0  0  0  0  0  0  0
   21.0378  -34.1286   11.5493 O   0  0  0  0  0  0  0  0  0  0  0  0
   22.0852  -35.0594   11.1887 C   0  0  0  0  0  0  0  0  0  0  0  0
   20.8135  -36.9657   12.1357 C   0  0  0  0  0  0  0  0  0  0  0  0
   21.9786  -36.7220   12.9138 O   0  0  0  0  0  0  0  0  0  0  0  0
   22.5950  -34.6016   14.8042 O   0  0  0  0  0  0  0  0  0  0  0  0
   23.9395  -34.5756   15.2701 C   0  0  0  0  0  0  0  0  0  0  0  0
   23.2865  -34.2279   10.0706 S   0  0  0  0  0  0  0  0  0  0  0  0
   22.2553  -33.8854    8.6548 C   0  0  0  0  0  0  0  0  0  0  0  0
   21.9074  -32.5619    8.3874 C   0  0  0  0  0  0  0  0  0  0  0  0
   21.1152  -32.2999    7.2826 C   0  0  0  0  0  0  0  0  0  0  0  0
   20.6553  -33.2550    6.4488 N   0  0  0  0  0  0  0  0  0  0  0  0
   20.9799  -34.5306    6.7458 C   0  0  0  0  0  0  0  0  0  0  0  0
   21.7651  -34.8937    7.8277 C   0  0  0  0  0  0  0  0  0  0  0  0
   19.3560  -30.4319   13.0670 C   0  0  0  0  0  0  0  0  0  0  0  0
   17.9341  -30.3244   13.2882 N   0  0  0  0  0  0  0  0  0  0  0  0
   17.0545  -30.6924   12.2946 C   0  0  0  0  0  0  0  0  0  0  0  0
   17.4082  -31.0232   11.1638 O   0  0  0  0  0  0  0  0  0  0  0  0
   17.5932  -29.9884   14.1484 H   0  0  0  0  0  0  0  0  0  0  0  0
   15.6073  -30.7417   12.6464 C   0  0  0  0  0  0  0  0  0  0  0  0
   14.7077  -31.5198   11.9042 C   0  0  0  0  0  0  0  0  0  0  0  0
   13.3461  -31.5242   12.2492 C   0  0  0  0  0  0  0  0  0  0  0  0
   12.8699  -30.7726   13.3305 C   0  0  0  0  0  0  0  0  0  0  0  0
   13.7746  -30.0201   14.0761 C   0  0  0  0  0  0  0  0  0  0  0  0
   13.3368  -29.2845   15.1425 O   0  0  0  0  0  0  0  0  0  0  0  0
   15.1369  -30.0072   13.7498 C   0  0  0  0  0  0  0  0  0  0  0  0
   15.9733  -29.2579   14.5397 O   0  0  0  0  0  0  0  0  0  0  0  0
   12.4280  -29.2852   15.3706 H   0  0  0  0  0  0  0  0  0  0  0  0
   15.6269  -28.7802   15.2676 H   0  0  0  0  0  0  0  0  0  0  0  0
   12.4019  -32.3278   11.4610 N   0  0  0  0  0  0  0  0  0  0  0  0
   11.9180  -31.8109   10.4453 O   0  0  0  0  0  0  0  0  0  0  0  0
   12.1446  -33.4720   11.8606 O   0  0  0  0  0  0  0  0  0  0  0  0
  8  9  1  0
  3  9  1  0
  3  4  1  0
  4 10  1  0
 10 11  1  0
  4  5  1  0
  5  1  1  0
  1  2  2  0
  2 19  1  0
 19 20  1  0
 20 21  1  0
 21 22  2  0
 21 24  1  0
 24 25  2  0
 25 26  1  0
 26 34  1  0
 34 35  2  0
 34 36  1  0
 26 27  2  0
 27 28  1  0
 28 29  1  0
 28 30  2  0
 30 31  1  0
  5  6  1  0
  6  7  1  0
  7 12  1  0
 12 13  1  0
 13 14  2  0
 14 15  1  0
 15 16  2  0
 16 17  1  0
 17 18  2  0
  7  3  1  0
 18 13  1  0
 30 24  1  0
 20 23  1  0
 29 32  1  0
 31 33  1  0
M  CHG 1  34   1
M  CHG 1  36  -1
M  END
> <minimizedAffinity>
-8.09906

> <CNNscore>
0.3966541886

> <CNNaffinity>
6.1445984840

> <CNN_VS>
2.4372806549

> <CNNaffinity_variance>
0.4117616415

$$$$
