


 20 20  0  0  0  0  0  0  0  0999 V2000
    2.7018   11.6604   24.4467 C   0  0  0  0  0  0  0  0  0  0  0  0
    3.8363   10.8055   24.5919 O   0  0  0  0  0  0  0  0  0  0  0  0
    3.2300   13.0718   24.4892 C   0  0  0  0  0  0  0  0  0  0  0  0
    3.2636   13.9088   23.4310 C   0  0  0  0  0  0  0  0  0  0  0  0
    2.7850   13.4605   22.0717 C   0  0  0  0  0  0  0  0  0  0  0  0
    3.6463   13.9696   21.0542 O   0  0  0  0  0  0  0  0  0  0  0  0
    2.7310   11.9230   21.9425 C   0  0  0  0  0  0  0  0  0  0  0  0
    2.0532   11.5889   20.7224 O   0  0  0  0  0  0  0  0  0  0  0  0
    1.9984   11.3073   23.1298 C   0  0  0  0  0  0  0  0  0  0  0  0
    4.2947   11.0145   25.4208 H   0  0  0  0  0  0  0  0  0  0  0  0
    4.5392   13.6111   21.1772 H   0  0  0  0  0  0  0  0  0  0  0  0
    1.1520   11.9469   20.7447 H   0  0  0  0  0  0  0  0  0  0  0  0
    0.5964   10.9225   25.5652 O   0  0  0  0  0  0  0  0  0  0  0  0
    1.6932   11.4543   25.6049 C   0  0  0  0  0  0  0  0  0  0  0  0
    2.1842   11.9184   26.7831 O   0  0  0  0  0  0  0  0  0  0  0  0
    3.0271   12.3266   26.8110 H   0  0  0  0  0  0  0  0  0  0  0  0
    3.7387   15.3395   23.5649 C   0  0  0  0  0  0  0  0  0  0  0  0
    4.1111   15.9859   22.2272 C   0  0  0  0  0  0  0  0  0  0  0  0
    5.5257   15.9962   22.0358 O   0  0  0  0  0  0  0  0  0  0  0  0
    5.9440   16.5110   22.7436 H   0  0  0  0  0  0  0  0  0  0  0  0
 13 14  2  0
 14 15  1  0
 14  1  1  0
  1  2  1  0
  1  3  1  0
  3  4  2  0
  4 17  1  0
 17 18  1  0
 18 19  1  0
  4  5  1  0
  5  6  1  0
  5  7  1  0
  7  8  1  0
  7  9  1  0
  9  1  1  0
 15 16  1  0
  2 10  1  0
 19 20  1  0
  6 11  1  0
  8 12  1  0
M  END
> <minimizedAffinity>
-8.95374

> <CNNscore>
0.9583457112

> <CNNaffinity>
5.1120133400

> <CNN_VS>
4.8990759850

> <CNNaffinity_variance>
0.1876110882

$$$$



 20 20  0  0  0  0  0  0  0  0999 V2000
    2.7412   11.6539   24.5031 C   0  0  0  0  0  0  0  0  0  0  0  0
    3.9008   10.8379   24.6718 O   0  0  0  0  0  0  0  0  0  0  0  0
    3.2048   13.0805   24.6533 C   0  0  0  0  0  0  0  0  0  0  0  0
    3.2649   13.9761   23.6455 C   0  0  0  0  0  0  0  0  0  0  0  0
    2.8874   13.5860   22.2373 C   0  0  0  0  0  0  0  0  0  0  0  0
    3.7848   14.1851   21.3034 O   0  0  0  0  0  0  0  0  0  0  0  0
    2.9073   12.0572   22.0231 C   0  0  0  0  0  0  0  0  0  0  0  0
    2.3180   11.7653   20.7475 O   0  0  0  0  0  0  0  0  0  0  0  0
    2.1328   11.3474   23.1284 C   0  0  0  0  0  0  0  0  0  0  0  0
    4.2999   11.0182   25.5373 H   0  0  0  0  0  0  0  0  0  0  0  0
    4.6834   13.8560   21.4618 H   0  0  0  0  0  0  0  0  0  0  0  0
    1.4025   12.0855   20.7334 H   0  0  0  0  0  0  0  0  0  0  0  0
    0.5976   10.7904   25.4450 O   0  0  0  0  0  0  0  0  0  0  0  0
    1.6756   11.3434   25.5844 C   0  0  0  0  0  0  0  0  0  0  0  0
    2.0873   11.7347   26.8180 O   0  0  0  0  0  0  0  0  0  0  0  0
    2.9160   12.1594   26.9225 H   0  0  0  0  0  0  0  0  0  0  0  0
    3.6694   15.4149   23.8847 C   0  0  0  0  0  0  0  0  0  0  0  0
    3.3217   15.9204   25.2881 C   0  0  0  0  0  0  0  0  0  0  0  0
    3.1399   17.3363   25.2956 O   0  0  0  0  0  0  0  0  0  0  0  0
    3.9619   17.7693   25.0166 H   0  0  0  0  0  0  0  0  0  0  0  0
 13 14  2  0
 14 15  1  0
 14  1  1  0
  1  2  1  0
  1  3  1  0
  3  4  2  0
  4 17  1  0
 17 18  1  0
 18 19  1  0
  4  5  1  0
  5  6  1  0
  5  7  1  0
  7  8  1  0
  7  9  1  0
  9  1  1  0
 15 16  1  0
  2 10  1  0
 19 20  1  0
  6 11  1  0
  8 12  1  0
M  END
> <minimizedAffinity>
-8.65242

> <CNNscore>
0.9288640618

> <CNNaffinity>
4.9799933434

> <CNN_VS>
4.6257367134

> <CNNaffinity_variance>
0.7060531974

$$$$



 20 20  0  0  0  0  0  0  0  0999 V2000
   -5.7433   12.5092   32.1567 C   0  0  0  0  0  0  0  0  0  0  0  0
   -6.7630   13.4978   32.0085 O   0  0  0  0  0  0  0  0  0  0  0  0
   -6.4512   11.2217   32.4949 C   0  0  0  0  0  0  0  0  0  0  0  0
   -6.5455   10.1598   31.6674 C   0  0  0  0  0  0  0  0  0  0  0  0
   -5.9526   10.2021   30.2801 C   0  0  0  0  0  0  0  0  0  0  0  0
   -6.8263    9.5606   29.3519 O   0  0  0  0  0  0  0  0  0  0  0  0
   -5.6944   11.6439   29.7925 C   0  0  0  0  0  0  0  0  0  0  0  0
   -4.9252   11.5877   28.5822 O   0  0  0  0  0  0  0  0  0  0  0  0
   -4.9420   12.4445   30.8501 C   0  0  0  0  0  0  0  0  0  0  0  0
   -7.2812   13.5530   32.8267 H   0  0  0  0  0  0  0  0  0  0  0  0
   -7.6699   10.0383   29.3187 H   0  0  0  0  0  0  0  0  0  0  0  0
   -4.0798   11.1453   28.7566 H   0  0  0  0  0  0  0  0  0  0  0  0
   -4.9865   12.8869   34.5046 O   0  0  0  0  0  0  0  0  0  0  0  0
   -4.7694   12.8766   33.3046 C   0  0  0  0  0  0  0  0  0  0  0  0
   -3.5317   13.1762   32.8326 O   0  0  0  0  0  0  0  0  0  0  0  0
   -3.3673   13.1677   31.9101 H   0  0  0  0  0  0  0  0  0  0  0  0
   -7.2074    8.8701   32.1027 C   0  0  0  0  0  0  0  0  0  0  0  0
   -8.5364    9.0836   32.8335 C   0  0  0  0  0  0  0  0  0  0  0  0
   -9.6315    9.0990   31.9178 O   0  0  0  0  0  0  0  0  0  0  0  0
   -9.5160    9.8275   31.2878 H   0  0  0  0  0  0  0  0  0  0  0  0
 13 14  2  0
 14 15  1  0
 14  1  1  0
  1  2  1  0
  1  3  1  0
  3  4  2  0
  4 17  1  0
 17 18  1  0
 18 19  1  0
  4  5  1  0
  5  6  1  0
  5  7  1  0
  7  8  1  0
  7  9  1  0
  9  1  1  0
 15 16  1  0
  2 10  1  0
 19 20  1  0
  6 11  1  0
  8 12  1  0
M  END
> <minimizedAffinity>
-4.42560

> <CNNscore>
0.4965136349

> <CNNaffinity>
3.0659971237

> <CNN_VS>
1.5223094225

> <CNNaffinity_variance>
0.2669439316

$$$$



 20 20  0  0  0  0  0  0  0  0999 V2000
   -6.5227   10.4208   28.3922 C   0  0  0  0  0  0  0  0  0  0  0  0
   -5.5284    9.4213   28.1652 O   0  0  0  0  0  0  0  0  0  0  0  0
   -7.5140    9.8175   29.3547 C   0  0  0  0  0  0  0  0  0  0  0  0
   -7.6676   10.2048   30.6384 C   0  0  0  0  0  0  0  0  0  0  0  0
   -6.8013   11.2894   31.2306 C   0  0  0  0  0  0  0  0  0  0  0  0
   -6.4375   10.9529   32.5687 O   0  0  0  0  0  0  0  0  0  0  0  0
   -5.5103   11.5235   30.4170 C   0  0  0  0  0  0  0  0  0  0  0  0
   -4.8693   12.7109   30.9057 O   0  0  0  0  0  0  0  0  0  0  0  0
   -5.8279   11.6769   28.9334 C   0  0  0  0  0  0  0  0  0  0  0  0
   -5.9500    8.6179   27.8221 H   0  0  0  0  0  0  0  0  0  0  0  0
   -5.9140   10.1363   32.5659 H   0  0  0  0  0  0  0  0  0  0  0  0
   -5.4658   13.4682   30.7974 H   0  0  0  0  0  0  0  0  0  0  0  0
   -8.2458   11.4856   26.9345 O   0  0  0  0  0  0  0  0  0  0  0  0
   -7.2487   10.7978   27.0762 C   0  0  0  0  0  0  0  0  0  0  0  0
   -6.6101   10.2901   25.9905 O   0  0  0  0  0  0  0  0  0  0  0  0
   -5.8443    9.7619   26.1020 H   0  0  0  0  0  0  0  0  0  0  0  0
   -8.7364    9.6048   31.5264 C   0  0  0  0  0  0  0  0  0  0  0  0
   -8.4631    8.1472   31.9093 C   0  0  0  0  0  0  0  0  0  0  0  0
   -7.0942    7.9561   32.2667 O   0  0  0  0  0  0  0  0  0  0  0  0
   -6.5287    8.1780   31.5106 H   0  0  0  0  0  0  0  0  0  0  0  0
 13 14  2  0
 14 15  1  0
 14  1  1  0
  1  2  1  0
  1  3  1  0
  3  4  2  0
  4 17  1  0
 17 18  1  0
 18 19  1  0
  4  5  1  0
  5  6  1  0
  5  7  1  0
  7  8  1  0
  7  9  1  0
  9  1  1  0
 15 16  1  0
  2 10  1  0
 19 20  1  0
  6 11  1  0
  8 12  1  0
M  END
> <minimizedAffinity>
-4.35397

> <CNNscore>
0.3928718269

> <CNNaffinity>
2.7361755371

> <CNN_VS>
1.0749663115

> <CNNaffinity_variance>
0.3707635105

$$$$



 20 20  0  0  0  0  0  0  0  0999 V2000
    2.3082   17.6633   20.5185 C   0  0  0  0  0  0  0  0  0  0  0  0
    2.5393   19.0240   20.8845 O   0  0  0  0  0  0  0  0  0  0  0  0
    2.6670   17.5534   19.0583 C   0  0  0  0  0  0  0  0  0  0  0  0
    3.7405   16.8886   18.5816 C   0  0  0  0  0  0  0  0  0  0  0  0
    4.7109   16.2098   19.5171 C   0  0  0  0  0  0  0  0  0  0  0  0
    6.0491   16.3959   19.0578 O   0  0  0  0  0  0  0  0  0  0  0  0
    4.6107   16.7453   20.9616 C   0  0  0  0  0  0  0  0  0  0  0  0
    5.3877   15.8972   21.8199 O   0  0  0  0  0  0  0  0  0  0  0  0
    3.1593   16.7687   21.4289 C   0  0  0  0  0  0  0  0  0  0  0  0
    2.0083   19.6058   20.3183 H   0  0  0  0  0  0  0  0  0  0  0  0
    6.2627   17.3421   19.0590 H   0  0  0  0  0  0  0  0  0  0  0  0
    5.0395   14.9926   21.7818 H   0  0  0  0  0  0  0  0  0  0  0  0
    0.2236   16.3176   20.2509 O   0  0  0  0  0  0  0  0  0  0  0  0
    0.8205   17.2758   20.7124 C   0  0  0  0  0  0  0  0  0  0  0  0
    0.1831   18.1415   21.5422 O   0  0  0  0  0  0  0  0  0  0  0  0
    0.6438   18.8770   21.8955 H   0  0  0  0  0  0  0  0  0  0  0  0
    3.9972   16.7563   17.0959 C   0  0  0  0  0  0  0  0  0  0  0  0
    3.1248   15.6951   16.4187 C   0  0  0  0  0  0  0  0  0  0  0  0
    3.4006   14.3938   16.9368 O   0  0  0  0  0  0  0  0  0  0  0  0
    4.3292   14.1692   16.7692 H   0  0  0  0  0  0  0  0  0  0  0  0
 13 14  2  0
 14 15  1  0
 14  1  1  0
  1  2  1  0
  1  3  1  0
  3  4  2  0
  4 17  1  0
 17 18  1  0
 18 19  1  0
  4  5  1  0
  5  6  1  0
  5  7  1  0
  7  8  1  0
  7  9  1  0
  9  1  1  0
 15 16  1  0
  2 10  1  0
 19 20  1  0
  6 11  1  0
  8 12  1  0
M  END
> <minimizedAffinity>
-4.25967

> <CNNscore>
0.3770059347

> <CNNaffinity>
2.8343820572

> <CNN_VS>
1.0685788393

> <CNNaffinity_variance>
0.3953696191

$$$$



 20 20  0  0  0  0  0  0  0  0999 V2000
   -5.8768   12.4040   30.6299 C   0  0  0  0  0  0  0  0  0  0  0  0
   -4.9418   12.8298   29.6382 O   0  0  0  0  0  0  0  0  0  0  0  0
   -7.1186   13.2331   30.4213 C   0  0  0  0  0  0  0  0  0  0  0  0
   -8.2889   12.7537   29.9502 C   0  0  0  0  0  0  0  0  0  0  0  0
   -8.4306   11.3043   29.5544 C   0  0  0  0  0  0  0  0  0  0  0  0
   -9.2162   11.1926   28.3683 O   0  0  0  0  0  0  0  0  0  0  0  0
   -7.0671   10.6250   29.3036 C   0  0  0  0  0  0  0  0  0  0  0  0
   -7.2774    9.2122   29.1648 O   0  0  0  0  0  0  0  0  0  0  0  0
   -6.1084   10.8972   30.4578 C   0  0  0  0  0  0  0  0  0  0  0  0
   -4.7826   13.7820   29.7315 H   0  0  0  0  0  0  0  0  0  0  0  0
   -8.7667   11.6472   27.6388 H   0  0  0  0  0  0  0  0  0  0  0  0
   -7.6719    8.8625   29.9790 H   0  0  0  0  0  0  0  0  0  0  0  0
   -4.2227   13.0456   32.3849 O   0  0  0  0  0  0  0  0  0  0  0  0
   -5.3291   12.6498   32.0585 C   0  0  0  0  0  0  0  0  0  0  0  0
   -6.2729   12.4059   33.0040 O   0  0  0  0  0  0  0  0  0  0  0  0
   -7.1223   12.1019   32.7506 H   0  0  0  0  0  0  0  0  0  0  0  0
   -9.5181   13.6297   29.8375 C   0  0  0  0  0  0  0  0  0  0  0  0
   -9.9623   14.2314   31.1741 C   0  0  0  0  0  0  0  0  0  0  0  0
   -9.6349   15.6189   31.2490 O   0  0  0  0  0  0  0  0  0  0  0  0
   -8.6739   15.7287   31.1760 H   0  0  0  0  0  0  0  0  0  0  0  0
 13 14  2  0
 14 15  1  0
 14  1  1  0
  1  2  1  0
  1  3  1  0
  3  4  2  0
  4 17  1  0
 17 18  1  0
 18 19  1  0
  4  5  1  0
  5  6  1  0
  5  7  1  0
  7  8  1  0
  7  9  1  0
  9  1  1  0
 15 16  1  0
  2 10  1  0
 19 20  1  0
  6 11  1  0
  8 12  1  0
M  END
> <minimizedAffinity>
-3.96313

> <CNNscore>
0.3050201535

> <CNNaffinity>
3.3042247295

> <CNN_VS>
1.0078551769

> <CNNaffinity_variance>
0.1349998862

$$$$



 20 20  0  0  0  0  0  0  0  0999 V2000
   -6.6811   10.2593   29.1477 C   0  0  0  0  0  0  0  0  0  0  0  0
   -5.3499    9.7977   28.9157 O   0  0  0  0  0  0  0  0  0  0  0  0
   -6.9573   10.0295   30.6118 C   0  0  0  0  0  0  0  0  0  0  0  0
   -7.0813   11.0102   31.5307 C   0  0  0  0  0  0  0  0  0  0  0  0
   -6.9139   12.4598   31.1457 C   0  0  0  0  0  0  0  0  0  0  0  0
   -6.1979   13.1594   32.1626 O   0  0  0  0  0  0  0  0  0  0  0  0
   -6.1597   12.6322   29.8097 C   0  0  0  0  0  0  0  0  0  0  0  0
   -6.2494   14.0066   29.4066 O   0  0  0  0  0  0  0  0  0  0  0  0
   -6.7584   11.7342   28.7324 C   0  0  0  0  0  0  0  0  0  0  0  0
   -5.2817    8.8649   29.1730 H   0  0  0  0  0  0  0  0  0  0  0  0
   -5.3092   12.7810   32.2509 H   0  0  0  0  0  0  0  0  0  0  0  0
   -7.1813   14.2491   29.2895 H   0  0  0  0  0  0  0  0  0  0  0  0
   -7.5118    8.4729   27.6159 O   0  0  0  0  0  0  0  0  0  0  0  0
   -7.7058    9.4633   28.3006 C   0  0  0  0  0  0  0  0  0  0  0  0
   -8.9578    9.9757   28.4200 O   0  0  0  0  0  0  0  0  0  0  0  0
   -9.1042   10.7368   28.9466 H   0  0  0  0  0  0  0  0  0  0  0  0
   -7.4341   10.7086   32.9713 C   0  0  0  0  0  0  0  0  0  0  0  0
   -6.2799   10.0883   33.7644 C   0  0  0  0  0  0  0  0  0  0  0  0
   -6.4916    8.6925   33.9763 O   0  0  0  0  0  0  0  0  0  0  0  0
   -7.3076    8.5628   34.4844 H   0  0  0  0  0  0  0  0  0  0  0  0
 13 14  2  0
 14 15  1  0
 14  1  1  0
  1  2  1  0
  1  3  1  0
  3  4  2  0
  4 17  1  0
 17 18  1  0
 18 19  1  0
  4  5  1  0
  5  6  1  0
  5  7  1  0
  7  8  1  0
  7  9  1  0
  9  1  1  0
 15 16  1  0
  2 10  1  0
 19 20  1  0
  6 11  1  0
  8 12  1  0
M  END
> <minimizedAffinity>
-4.65311

> <CNNscore>
0.2847841084

> <CNNaffinity>
2.7549135685

> <CNN_VS>
0.7845556140

> <CNNaffinity_variance>
0.2975498736

$$$$



 20 20  0  0  0  0  0  0  0  0999 V2000
    2.2035   12.0325   23.1208 C   0  0  0  0  0  0  0  0  0  0  0  0
    0.8149   12.1972   22.8311 O   0  0  0  0  0  0  0  0  0  0  0  0
    2.8184   13.4060   23.0292 C   0  0  0  0  0  0  0  0  0  0  0  0
    3.2803   14.1099   24.0840 C   0  0  0  0  0  0  0  0  0  0  0  0
    3.1798   13.5618   25.4865 C   0  0  0  0  0  0  0  0  0  0  0  0
    2.8292   14.6026   26.3976 O   0  0  0  0  0  0  0  0  0  0  0  0
    2.1322   12.4340   25.6057 C   0  0  0  0  0  0  0  0  0  0  0  0
    2.2658   11.8186   26.8952 O   0  0  0  0  0  0  0  0  0  0  0  0
    2.3329   11.3932   24.5094 C   0  0  0  0  0  0  0  0  0  0  0  0
    0.7131   12.6010   21.9550 H   0  0  0  0  0  0  0  0  0  0  0  0
    1.9567   14.9564   26.1640 H   0  0  0  0  0  0  0  0  0  0  0  0
    3.1574   11.4474   26.9856 H   0  0  0  0  0  0  0  0  0  0  0  0
    3.0375    9.8875   22.1559 O   0  0  0  0  0  0  0  0  0  0  0  0
    2.8834   11.0955   22.0909 C   0  0  0  0  0  0  0  0  0  0  0  0
    3.2980   11.7780   20.9924 O   0  0  0  0  0  0  0  0  0  0  0  0
    3.1785   12.7062   20.9448 H   0  0  0  0  0  0  0  0  0  0  0  0
    3.9549   15.4533   23.9080 C   0  0  0  0  0  0  0  0  0  0  0  0
    4.1379   15.8560   22.4417 C   0  0  0  0  0  0  0  0  0  0  0  0
    5.5212   15.9502   22.1018 O   0  0  0  0  0  0  0  0  0  0  0  0
    5.9443   16.6270   22.6531 H   0  0  0  0  0  0  0  0  0  0  0  0
 13 14  2  0
 14 15  1  0
 14  1  1  0
  1  2  1  0
  1  3  1  0
  3  4  2  0
  4 17  1  0
 17 18  1  0
 18 19  1  0
  4  5  1  0
  5  6  1  0
  5  7  1  0
  7  8  1  0
  7  9  1  0
  9  1  1  0
 15 16  1  0
  2 10  1  0
 19 20  1  0
  6 11  1  0
  8 12  1  0
M  END
> <minimizedAffinity>
-7.52352

> <CNNscore>
0.2692604959

> <CNNaffinity>
3.8465526104

> <CNN_VS>
1.0357246399

> <CNNaffinity_variance>
0.7486690879

$$$$



 20 20  0  0  0  0  0  0  0  0999 V2000
   -7.5115   13.1376   30.7334 C   0  0  0  0  0  0  0  0  0  0  0  0
   -8.3215   13.6565   29.6782 O   0  0  0  0  0  0  0  0  0  0  0  0
   -8.0119   11.7407   31.0004 C   0  0  0  0  0  0  0  0  0  0  0  0
   -7.3284   10.6140   30.7092 C   0  0  0  0  0  0  0  0  0  0  0  0
   -5.9767   10.6772   30.0411 C   0  0  0  0  0  0  0  0  0  0  0  0
   -5.8599    9.6402   29.0678 O   0  0  0  0  0  0  0  0  0  0  0  0
   -5.7255   12.0320   29.3447 C   0  0  0  0  0  0  0  0  0  0  0  0
   -4.3488   12.0931   28.9438 O   0  0  0  0  0  0  0  0  0  0  0  0
   -6.0453   13.1893   30.2848 C   0  0  0  0  0  0  0  0  0  0  0  0
   -9.2540   13.6317   29.9443 H   0  0  0  0  0  0  0  0  0  0  0  0
   -6.5284    9.7685   28.3768 H   0  0  0  0  0  0  0  0  0  0  0  0
   -3.7806   12.0175   29.7263 H   0  0  0  0  0  0  0  0  0  0  0  0
   -7.1372   13.8045   33.1089 O   0  0  0  0  0  0  0  0  0  0  0  0
   -7.6546   13.9891   32.0201 C   0  0  0  0  0  0  0  0  0  0  0  0
   -8.4406   15.0772   31.8139 O   0  0  0  0  0  0  0  0  0  0  0  0
   -8.8371   15.2169   30.9765 H   0  0  0  0  0  0  0  0  0  0  0  0
   -7.8611    9.2452   31.0748 C   0  0  0  0  0  0  0  0  0  0  0  0
   -8.9303    8.7289   30.1073 C   0  0  0  0  0  0  0  0  0  0  0  0
   -8.3563    7.8913   29.1039 O   0  0  0  0  0  0  0  0  0  0  0  0
   -7.7084    8.3990   28.5907 H   0  0  0  0  0  0  0  0  0  0  0  0
 13 14  2  0
 14 15  1  0
 14  1  1  0
  1  2  1  0
  1  3  1  0
  3  4  2  0
  4 17  1  0
 17 18  1  0
 18 19  1  0
  4  5  1  0
  5  6  1  0
  5  7  1  0
  7  8  1  0
  7  9  1  0
  9  1  1  0
 15 16  1  0
  2 10  1  0
 19 20  1  0
  6 11  1  0
  8 12  1  0
M  END
> <minimizedAffinity>
-4.51853

> <CNNscore>
0.2688460052

> <CNNaffinity>
2.8950583935

> <CNN_VS>
0.7783249021

> <CNNaffinity_variance>
0.2357917875

$$$$
