


 15 15  0  0  0  0  0  0  0  0999 V2000
    0.0637    8.9642    9.8405 C   0  0  0  0  0  0  0  0  0  0  0  0
    0.8095    9.6497    8.7599 N   0  0  0  0  0  0  0  0  0  0  0  0
    0.5420   11.0719    8.7761 N   0  0  0  0  0  0  0  0  0  0  0  0
   -0.8764   11.2793    8.4502 C   0  0  0  0  0  0  0  0  0  0  0  0
   -1.8021   10.6321    9.4934 C   0  0  0  0  0  0  0  0  0  0  0  0
   -1.4608    9.1303    9.6291 C   0  0  0  0  0  0  0  0  0  0  0  0
    0.5232    9.2654    7.8595 H   0  0  0  0  0  0  0  0  0  0  0  0
    1.1268   11.5406    8.0841 H   0  0  0  0  0  0  0  0  0  0  0  0
   -3.1618   10.8097    9.0549 O   0  0  0  0  0  0  0  0  0  0  0  0
   -3.6504    9.6952    8.3203 C   0  0  0  0  0  0  0  0  0  0  0  0
   -2.1434    8.5947   10.7845 O   0  0  0  0  0  0  0  0  0  0  0  0
   -1.5838    9.0798   12.0006 C   0  0  0  0  0  0  0  0  0  0  0  0
    0.4633    7.4733    9.9266 C   0  0  0  0  0  0  0  0  0  0  0  0
    0.5027    5.4044    8.7922 C   0  0  0  0  0  0  0  0  0  0  0  0
    0.0731    6.7577    8.7520 O   0  0  0  0  0  0  0  0  0  0  0  0
 14 15  1  0
 15 13  1  0
  1 13  1  0
  1  2  1  0
  2  3  1  0
  3  4  1  0
  4  5  1  0
  5  9  1  0
  9 10  1  0
  5  6  1  0
  6 11  1  0
 11 12  1  0
  6  1  1  0
  2  7  1  0
  3  8  1  0
M  END
> <minimizedAffinity>
-4.61604

> <CNNscore>
0.4599815607

> <CNNaffinity>
4.5164313316

> <CNN_VS>
2.0774750710

> <CNNaffinity_variance>
0.6727492809

$$$$



 15 15  0  0  0  0  0  0  0  0999 V2000
   -0.5357    4.9701   16.5441 C   0  0  0  0  0  0  0  0  0  0  0  0
    0.0341    3.9207   15.6679 N   0  0  0  0  0  0  0  0  0  0  0  0
   -0.0492    4.3141   14.2776 N   0  0  0  0  0  0  0  0  0  0  0  0
   -1.4687    4.3927   13.9037 C   0  0  0  0  0  0  0  0  0  0  0  0
   -2.2161    5.4585   14.7218 C   0  0  0  0  0  0  0  0  0  0  0  0
   -2.0380    5.1733   16.2309 C   0  0  0  0  0  0  0  0  0  0  0  0
   -0.4860    3.0536   15.8022 H   0  0  0  0  0  0  0  0  0  0  0  0
    0.4231    3.6229   13.6948 H   0  0  0  0  0  0  0  0  0  0  0  0
   -3.6070    5.4100   14.3532 O   0  0  0  0  0  0  0  0  0  0  0  0
   -4.2728    4.2683   14.8764 C   0  0  0  0  0  0  0  0  0  0  0  0
   -2.5120    6.3114   16.9845 O   0  0  0  0  0  0  0  0  0  0  0  0
   -2.0119    7.5373   16.4607 C   0  0  0  0  0  0  0  0  0  0  0  0
   -0.3106    4.6264   18.0345 C   0  0  0  0  0  0  0  0  0  0  0  0
   -1.2061    2.5238   18.6225 C   0  0  0  0  0  0  0  0  0  0  0  0
   -1.4286    3.9261   18.5854 O   0  0  0  0  0  0  0  0  0  0  0  0
 14 15  1  0
 15 13  1  0
  1 13  1  0
  1  2  1  0
  2  3  1  0
  3  4  1  0
  4  5  1  0
  5  9  1  0
  9 10  1  0
  5  6  1  0
  6 11  1  0
 11 12  1  0
  6  1  1  0
  2  7  1  0
  3  8  1  0
M  END
> <minimizedAffinity>
-4.07495

> <CNNscore>
0.3336512148

> <CNNaffinity>
3.2217547894

> <CNN_VS>
1.0749423504

> <CNNaffinity_variance>
0.4870006144

$$$$



 15 15  0  0  0  0  0  0  0  0999 V2000
   -1.9350    8.5343   10.1915 C   0  0  0  0  0  0  0  0  0  0  0  0
   -3.1572    9.2652    9.7845 N   0  0  0  0  0  0  0  0  0  0  0  0
   -3.1240    9.5701    8.3701 N   0  0  0  0  0  0  0  0  0  0  0  0
   -2.0197   10.5090    8.1253 C   0  0  0  0  0  0  0  0  0  0  0  0
   -0.6576    9.8952    8.4887 C   0  0  0  0  0  0  0  0  0  0  0  0
   -0.6817    9.4120    9.9572 C   0  0  0  0  0  0  0  0  0  0  0  0
   -3.2186   10.1354   10.3132 H   0  0  0  0  0  0  0  0  0  0  0  0
   -4.0072    9.9955    8.0883 H   0  0  0  0  0  0  0  0  0  0  0  0
    0.3515   10.9044    8.2991 O   0  0  0  0  0  0  0  0  0  0  0  0
   -0.1619   12.2235    8.4285 C   0  0  0  0  0  0  0  0  0  0  0  0
    0.4926    8.6082   10.2078 O   0  0  0  0  0  0  0  0  0  0  0  0
    0.6163    7.5461    9.2675 C   0  0  0  0  0  0  0  0  0  0  0  0
   -2.0336    8.0711   11.6631 C   0  0  0  0  0  0  0  0  0  0  0  0
   -1.5061    8.6016   13.9012 C   0  0  0  0  0  0  0  0  0  0  0  0
   -1.5415    9.0693   12.5606 O   0  0  0  0  0  0  0  0  0  0  0  0
 14 15  1  0
 15 13  1  0
  1 13  1  0
  1  2  1  0
  2  3  1  0
  3  4  1  0
  4  5  1  0
  5  9  1  0
  9 10  1  0
  5  6  1  0
  6 11  1  0
 11 12  1  0
  6  1  1  0
  2  7  1  0
  3  8  1  0
M  END
> <minimizedAffinity>
-5.44645

> <CNNscore>
0.3272940218

> <CNNaffinity>
4.2243523598

> <CNN_VS>
1.3826053143

> <CNNaffinity_variance>
0.2877728939

$$$$



 15 15  0  0  0  0  0  0  0  0999 V2000
   -1.2462    5.6355   16.1523 C   0  0  0  0  0  0  0  0  0  0  0  0
   -0.2804    6.6326   15.6358 N   0  0  0  0  0  0  0  0  0  0  0  0
    0.2129    6.2401   14.3331 N   0  0  0  0  0  0  0  0  0  0  0  0
    0.9899    5.0016   14.4869 C   0  0  0  0  0  0  0  0  0  0  0  0
    0.1226    3.8451   15.0104 C   0  0  0  0  0  0  0  0  0  0  0  0
   -0.5541    4.2632   16.3362 C   0  0  0  0  0  0  0  0  0  0  0  0
    0.5046    6.7050   16.2832 H   0  0  0  0  0  0  0  0  0  0  0  0
    0.8087    6.9760   13.9539 H   0  0  0  0  0  0  0  0  0  0  0  0
    0.9755    2.7025   15.2100 O   0  0  0  0  0  0  0  0  0  0  0  0
    1.7962    2.4280   14.0824 C   0  0  0  0  0  0  0  0  0  0  0  0
   -1.5613    3.2857   16.6796 O   0  0  0  0  0  0  0  0  0  0  0  0
   -1.2212    2.5699   17.8625 C   0  0  0  0  0  0  0  0  0  0  0  0
   -1.8919    6.1239   17.4693 C   0  0  0  0  0  0  0  0  0  0  0  0
   -0.5248    5.9532   19.3852 C   0  0  0  0  0  0  0  0  0  0  0  0
   -0.9387    6.7812   18.3079 O   0  0  0  0  0  0  0  0  0  0  0  0
 14 15  1  0
 15 13  1  0
  1 13  1  0
  1  2  1  0
  2  3  1  0
  3  4  1  0
  4  5  1  0
  5  9  1  0
  9 10  1  0
  5  6  1  0
  6 11  1  0
 11 12  1  0
  6  1  1  0
  2  7  1  0
  3  8  1  0
M  END
> <minimizedAffinity>
-4.54144

> <CNNscore>
0.2917528749

> <CNNaffinity>
3.0284144878

> <CNN_VS>
0.8835486174

> <CNNaffinity_variance>
1.0552841425

$$$$



 15 15  0  0  0  0  0  0  0  0999 V2000
   -0.3824    4.1016   15.1487 C   0  0  0  0  0  0  0  0  0  0  0  0
   -1.1814    3.0525   15.8231 N   0  0  0  0  0  0  0  0  0  0  0  0
   -2.3920    3.6128   16.3844 N   0  0  0  0  0  0  0  0  0  0  0  0
   -2.0156    4.5501   17.4525 C   0  0  0  0  0  0  0  0  0  0  0  0
   -1.1804    5.7233   16.9141 C   0  0  0  0  0  0  0  0  0  0  0  0
    0.0600    5.1782   16.1692 C   0  0  0  0  0  0  0  0  0  0  0  0
   -0.6261    2.6379   16.5715 H   0  0  0  0  0  0  0  0  0  0  0  0
   -2.9713    2.8666   16.7689 H   0  0  0  0  0  0  0  0  0  0  0  0
   -0.7869    6.5411   18.0318 O   0  0  0  0  0  0  0  0  0  0  0  0
   -0.5785    5.7849   19.2172 C   0  0  0  0  0  0  0  0  0  0  0  0
    0.6894    6.2605   15.4478 O   0  0  0  0  0  0  0  0  0  0  0  0
   -0.2294    6.9274   14.5885 C   0  0  0  0  0  0  0  0  0  0  0  0
    0.8311    3.4850   14.4158 C   0  0  0  0  0  0  0  0  0  0  0  0
    1.8192    4.5405   12.5508 C   0  0  0  0  0  0  0  0  0  0  0  0
    0.7609    3.7095   13.0057 O   0  0  0  0  0  0  0  0  0  0  0  0
 14 15  1  0
 15 13  1  0
  1 13  1  0
  1  2  1  0
  2  3  1  0
  3  4  1  0
  4  5  1  0
  5  9  1  0
  9 10  1  0
  5  6  1  0
  6 11  1  0
 11 12  1  0
  6  1  1  0
  2  7  1  0
  3  8  1  0
M  END
> <minimizedAffinity>
-4.50436

> <CNNscore>
0.2441518456

> <CNNaffinity>
2.9745800495

> <CNN_VS>
0.7262492180

> <CNNaffinity_variance>
1.0474280119

$$$$



 15 15  0  0  0  0  0  0  0  0999 V2000
   -0.7316    8.6238   10.8734 C   0  0  0  0  0  0  0  0  0  0  0  0
   -1.5262    9.3208   11.9109 N   0  0  0  0  0  0  0  0  0  0  0  0
   -1.0803    8.9448   13.2354 N   0  0  0  0  0  0  0  0  0  0  0  0
   -1.3673    7.5165   13.4318 C   0  0  0  0  0  0  0  0  0  0  0  0
   -0.6015    6.6375   12.4293 C   0  0  0  0  0  0  0  0  0  0  0  0
   -0.9255    7.0923   10.9876 C   0  0  0  0  0  0  0  0  0  0  0  0
   -2.5091    9.0697   11.8047 H   0  0  0  0  0  0  0  0  0  0  0  0
   -1.5769    9.4957   13.9357 H   0  0  0  0  0  0  0  0  0  0  0  0
   -1.0031    5.2705   12.6365 O   0  0  0  0  0  0  0  0  0  0  0  0
   -1.7950    5.1034   13.8050 C   0  0  0  0  0  0  0  0  0  0  0  0
   -0.0116    6.4465   10.0734 O   0  0  0  0  0  0  0  0  0  0  0  0
    1.3412    6.5783   10.4977 C   0  0  0  0  0  0  0  0  0  0  0  0
   -1.0976    9.1361    9.4615 C   0  0  0  0  0  0  0  0  0  0  0  0
   -3.2584    9.6920    8.6929 C   0  0  0  0  0  0  0  0  0  0  0  0
   -2.3692    8.6392    9.0372 O   0  0  0  0  0  0  0  0  0  0  0  0
 14 15  1  0
 15 13  1  0
  1 13  1  0
  1  2  1  0
  2  3  1  0
  3  4  1  0
  4  5  1  0
  5  9  1  0
  9 10  1  0
  5  6  1  0
  6 11  1  0
 11 12  1  0
  6  1  1  0
  2  7  1  0
  3  8  1  0
M  END
> <minimizedAffinity>
-4.68351

> <CNNscore>
0.2417269200

> <CNNaffinity>
3.5444946289

> <CNN_VS>
0.8567997813

> <CNNaffinity_variance>
0.7788958549

$$$$



 15 15  0  0  0  0  0  0  0  0999 V2000
   -1.3939    6.1884   15.8661 C   0  0  0  0  0  0  0  0  0  0  0  0
    0.0627    6.3493   15.6509 N   0  0  0  0  0  0  0  0  0  0  0  0
    0.4090    6.0801   14.2717 N   0  0  0  0  0  0  0  0  0  0  0  0
    0.1377    4.6620   13.9953 C   0  0  0  0  0  0  0  0  0  0  0  0
   -1.3525    4.3228   14.1629 C   0  0  0  0  0  0  0  0  0  0  0  0
   -1.8206    4.7283   15.5796 C   0  0  0  0  0  0  0  0  0  0  0  0
    0.5644    5.6985   16.2552 H   0  0  0  0  0  0  0  0  0  0  0  0
    1.3980    6.2780   14.1196 H   0  0  0  0  0  0  0  0  0  0  0  0
   -1.5139    2.9070   13.9570 O   0  0  0  0  0  0  0  0  0  0  0  0
   -1.5002    2.5485   12.5816 C   0  0  0  0  0  0  0  0  0  0  0  0
   -3.2624    4.6536   15.6385 O   0  0  0  0  0  0  0  0  0  0  0  0
   -3.8735    5.4076   14.5967 C   0  0  0  0  0  0  0  0  0  0  0  0
   -1.7916    6.6234   17.2953 C   0  0  0  0  0  0  0  0  0  0  0  0
   -0.6920    5.5127   19.0634 C   0  0  0  0  0  0  0  0  0  0  0  0
   -0.6654    6.6214   18.1760 O   0  0  0  0  0  0  0  0  0  0  0  0
 14 15  1  0
 15 13  1  0
  1 13  1  0
  1  2  1  0
  2  3  1  0
  3  4  1  0
  4  5  1  0
  5  9  1  0
  9 10  1  0
  5  6  1  0
  6 11  1  0
 11 12  1  0
  6  1  1  0
  2  7  1  0
  3  8  1  0
M  END
> <minimizedAffinity>
-4.32174

> <CNNscore>
0.2365916520

> <CNNaffinity>
2.9465963840

> <CNN_VS>
0.6971400976

> <CNNaffinity_variance>
0.8389754295

$$$$



 15 15  0  0  0  0  0  0  0  0999 V2000
    0.4909    7.1031   12.0881 C   0  0  0  0  0  0  0  0  0  0  0  0
   -0.2674    8.2856   11.6183 N   0  0  0  0  0  0  0  0  0  0  0  0
   -1.0395    8.8607   12.6989 N   0  0  0  0  0  0  0  0  0  0  0  0
   -2.0643    7.8876   13.1037 C   0  0  0  0  0  0  0  0  0  0  0  0
   -1.4386    6.5878   13.6356 C   0  0  0  0  0  0  0  0  0  0  0  0
   -0.4812    6.0004   12.5732 C   0  0  0  0  0  0  0  0  0  0  0  0
   -0.8991    8.0024   10.8693 H   0  0  0  0  0  0  0  0  0  0  0  0
   -1.4868    9.7212   12.3831 H   0  0  0  0  0  0  0  0  0  0  0  0
   -2.5052    5.6659   13.9278 O   0  0  0  0  0  0  0  0  0  0  0  0
   -3.7015    6.3214   14.3276 C   0  0  0  0  0  0  0  0  0  0  0  0
    0.2944    4.9393   13.1734 O   0  0  0  0  0  0  0  0  0  0  0  0
    0.9351    5.3658   14.3713 C   0  0  0  0  0  0  0  0  0  0  0  0
    1.4346    6.5780   10.9819 C   0  0  0  0  0  0  0  0  0  0  0  0
    0.5734    5.7335    8.9537 C   0  0  0  0  0  0  0  0  0  0  0  0
    0.9428    6.8980    9.6782 O   0  0  0  0  0  0  0  0  0  0  0  0
 14 15  1  0
 15 13  1  0
  1 13  1  0
  1  2  1  0
  2  3  1  0
  3  4  1  0
  4  5  1  0
  5  9  1  0
  9 10  1  0
  5  6  1  0
  6 11  1  0
 11 12  1  0
  6  1  1  0
  2  7  1  0
  3  8  1  0
M  END
> <minimizedAffinity>
-4.37621

> <CNNscore>
0.2322708368

> <CNNaffinity>
3.1056549549

> <CNN_VS>
0.7213530540

> <CNNaffinity_variance>
1.1491472721

$$$$



 15 15  0  0  0  0  0  0  0  0999 V2000
   -0.4235    7.5987    9.6642 C   0  0  0  0  0  0  0  0  0  0  0  0
   -0.4258    7.1732   11.0829 N   0  0  0  0  0  0  0  0  0  0  0  0
   -1.5127    7.8008   11.8036 N   0  0  0  0  0  0  0  0  0  0  0  0
   -1.2669    9.2496   11.8411 C   0  0  0  0  0  0  0  0  0  0  0  0
   -1.2453    9.8615   10.4307 C   0  0  0  0  0  0  0  0  0  0  0  0
   -0.1980    9.1267    9.5625 C   0  0  0  0  0  0  0  0  0  0  0  0
    0.4595    7.4397   11.5137 H   0  0  0  0  0  0  0  0  0  0  0  0
   -1.5537    7.4333   12.7542 H   0  0  0  0  0  0  0  0  0  0  0  0
   -0.9173   11.2579   10.5549 O   0  0  0  0  0  0  0  0  0  0  0  0
    0.3484   11.5754    9.9914 C   0  0  0  0  0  0  0  0  0  0  0  0
   -0.3680    9.5231    8.1834 O   0  0  0  0  0  0  0  0  0  0  0  0
   -1.6466   10.1065    7.9551 C   0  0  0  0  0  0  0  0  0  0  0  0
    0.6361    6.8159    8.8553 C   0  0  0  0  0  0  0  0  0  0  0  0
    0.3758    4.5251    8.3524 C   0  0  0  0  0  0  0  0  0  0  0  0
    0.7729    5.4747    9.3311 O   0  0  0  0  0  0  0  0  0  0  0  0
 14 15  1  0
 15 13  1  0
  1 13  1  0
  1  2  1  0
  2  3  1  0
  3  4  1  0
  4  5  1  0
  5  9  1  0
  9 10  1  0
  5  6  1  0
  6 11  1  0
 11 12  1  0
  6  1  1  0
  2  7  1  0
  3  8  1  0
M  END
> <minimizedAffinity>
-4.53154

> <CNNscore>
0.2271355540

> <CNNaffinity>
3.3334026337

> <CNN_VS>
0.7571342587

> <CNNaffinity_variance>
0.9921852946

$$$$
