


 34 34  0  0  0  0  0  0  0  0999 V2000
   -0.7106   34.9026   98.7642 C   0  0  0  0  0  0  0  0  0  0  0  0
    0.7015   34.9290   99.1821 N   0  0  0  0  0  0  0  0  0  0  0  0
    1.1279   35.8063   98.8843 H   0  0  0  0  0  0  0  0  0  0  0  0
    1.1974   34.1473   98.7539 H   0  0  0  0  0  0  0  0  0  0  0  0
   -0.8062   35.0389   97.2089 C   0  0  0  0  0  0  0  0  0  0  0  0
   -0.7613   33.7237   96.3731 N   0  0  0  0  0  0  0  0  0  0  0  0
   -1.2389   34.0995   94.9276 C   0  0  0  0  0  0  0  0  0  0  0  0
   -1.7809   32.6840   96.8612 C   0  0  0  0  0  0  0  0  0  0  0  0
    0.6407   33.1550   96.2007 C   0  0  0  0  0  0  0  0  0  0  0  0
    1.0051   32.1214   95.1303 N   0  0  0  0  0  0  0  0  0  0  0  0
    0.1027   30.8557   95.3468 C   0  0  0  0  0  0  0  0  0  0  0  0
    0.7972   32.5302   93.6945 C   0  0  0  0  0  0  0  0  0  0  0  0
    2.4346   31.5709   95.3929 C   0  0  0  0  0  0  0  0  0  0  0  0
    3.7722   33.7947   95.4160 C   0  0  0  0  0  0  0  0  0  0  0  0
    3.6883   32.3354   95.0050 N   0  0  0  0  0  0  0  0  0  0  0  0
    4.8685   31.6196   95.7687 C   0  0  0  0  0  0  0  0  0  0  0  0
    4.0776   32.2022   93.5185 C   0  0  0  0  0  0  0  0  0  0  0  0
   -1.5575   36.0407   99.4023 C   0  0  0  0  0  0  0  0  0  0  0  0
   -3.0258   35.7430   99.6314 C   0  0  0  0  0  0  0  0  0  0  0  0
   -3.8763   35.6536   98.5081 C   0  0  0  0  0  0  0  0  0  0  0  0
   -5.2435   35.3834   98.6388 C   0  0  0  0  0  0  0  0  0  0  0  0
   -6.1559   35.2138   97.1863 Cl  0  0  0  0  0  0  0  0  0  0  0  0
   -5.7692   35.2215   99.9144 C   0  0  0  0  0  0  0  0  0  0  0  0
   -4.9546   35.3165  101.0525 C   0  0  0  0  0  0  0  0  0  0  0  0
   -3.5804   35.5920  100.9263 C   0  0  0  0  0  0  0  0  0  0  0  0
   -7.1779   34.9463  100.1127 N   0  0  0  0  0  0  0  0  0  0  0  0
   -7.6434   33.9896   99.4809 O   0  0  0  0  0  0  0  0  0  0  0  0
   -7.7869   35.6615  100.9174 O   0  0  0  0  0  0  0  0  0  0  0  0
   -2.7662   35.7156  102.2022 C   0  0  0  0  0  0  0  0  0  0  0  0
   -2.5390   34.3721  102.8908 C   0  0  0  0  0  0  0  0  0  0  0  0
   -3.1593   34.3615  104.2623 C   0  0  0  0  0  0  0  0  0  0  0  0
   -2.6440   34.8059  105.2836 O   0  0  0  0  0  0  0  0  0  0  0  0
   -4.3890   33.8285  104.2529 O   0  0  0  0  0  0  0  0  0  0  0  0
   -4.7506   33.4988  103.4539 H   0  0  0  0  0  0  0  0  0  0  0  0
 14 15  1  0
 15 16  1  0
 15 17  1  0
 15 13  1  0
 13 10  1  0
 10 11  1  0
 10 12  1  0
 10  9  1  0
  9  6  1  0
  6  7  1  0
  6  8  1  0
  6  5  1  0
  5  1  1  0
  1  2  1  0
  1 18  1  0
 18 19  1  0
 19 20  2  0
 20 21  1  0
 21 22  1  0
 21 23  2  0
 23 26  1  0
 26 27  2  0
 26 28  1  0
 23 24  1  0
 24 25  2  0
 25 29  1  0
 29 30  1  0
 30 31  1  0
 31 32  2  0
 31 33  1  0
 25 19  1  0
  2  3  1  0
  2  4  1  0
 33 34  1  0
M  CHG 1   6   1
M  CHG 1  10   1
M  CHG 1  15   1
M  CHG 1  26   1
M  CHG 1  28  -1
M  END
> <minimizedAffinity>
-7.79828

> <CNNscore>
0.2681452036

> <CNNaffinity>
5.8683242798

> <CNN_VS>
1.5735629797

> <CNNaffinity_variance>
0.3255645335

$$$$



 34 34  0  0  0  0  0  0  0  0999 V2000
   -1.6874   34.6853   98.4130 C   0  0  0  0  0  0  0  0  0  0  0  0
   -0.3434   34.2643   98.8439 N   0  0  0  0  0  0  0  0  0  0  0  0
    0.2939   35.0593   98.7953 H   0  0  0  0  0  0  0  0  0  0  0  0
   -0.0072   33.5211   98.2315 H   0  0  0  0  0  0  0  0  0  0  0  0
   -1.6284   35.2302   96.9479 C   0  0  0  0  0  0  0  0  0  0  0  0
   -2.5466   34.5418   95.8929 N   0  0  0  0  0  0  0  0  0  0  0  0
   -3.9104   35.3152   95.9189 C   0  0  0  0  0  0  0  0  0  0  0  0
   -2.9094   33.1012   96.2824 C   0  0  0  0  0  0  0  0  0  0  0  0
   -2.0378   34.6673   94.4631 C   0  0  0  0  0  0  0  0  0  0  0  0
   -2.4788   33.7387   93.3272 N   0  0  0  0  0  0  0  0  0  0  0  0
   -4.0427   33.8111   93.2169 C   0  0  0  0  0  0  0  0  0  0  0  0
   -1.9572   34.0577   91.9495 C   0  0  0  0  0  0  0  0  0  0  0  0
   -2.2328   32.2580   93.7302 C   0  0  0  0  0  0  0  0  0  0  0  0
   -2.2761   31.2107   91.3560 C   0  0  0  0  0  0  0  0  0  0  0  0
   -1.6903   31.2259   92.7569 N   0  0  0  0  0  0  0  0  0  0  0  0
   -0.1671   31.5892   92.5670 C   0  0  0  0  0  0  0  0  0  0  0  0
   -1.6591   29.7868   93.3110 C   0  0  0  0  0  0  0  0  0  0  0  0
   -2.2991   35.7936   99.3169 C   0  0  0  0  0  0  0  0  0  0  0  0
   -1.4174   36.3189  100.4321 C   0  0  0  0  0  0  0  0  0  0  0  0
   -0.3040   37.1164  100.0892 C   0  0  0  0  0  0  0  0  0  0  0  0
    0.5574   37.6366  101.0622 C   0  0  0  0  0  0  0  0  0  0  0  0
    1.8288   38.6663  100.5201 Cl  0  0  0  0  0  0  0  0  0  0  0  0
    0.3112   37.3357  102.3959 C   0  0  0  0  0  0  0  0  0  0  0  0
   -0.7788   36.5360  102.7703 C   0  0  0  0  0  0  0  0  0  0  0  0
   -1.6450   36.0074  101.7953 C   0  0  0  0  0  0  0  0  0  0  0  0
    1.1716   37.8404  103.4468 N   0  0  0  0  0  0  0  0  0  0  0  0
    0.8893   38.9581  103.8966 O   0  0  0  0  0  0  0  0  0  0  0  0
    2.0888   37.1043  103.8303 O   0  0  0  0  0  0  0  0  0  0  0  0
   -2.7834   35.1214  102.2698 C   0  0  0  0  0  0  0  0  0  0  0  0
   -2.3462   34.1145  103.3308 C   0  0  0  0  0  0  0  0  0  0  0  0
   -3.4622   33.8429  104.3037 C   0  0  0  0  0  0  0  0  0  0  0  0
   -4.6615   33.8868  104.0466 O   0  0  0  0  0  0  0  0  0  0  0  0
   -3.0005   33.5041  105.5154 O   0  0  0  0  0  0  0  0  0  0  0  0
   -2.0776   33.4813  105.6756 H   0  0  0  0  0  0  0  0  0  0  0  0
 14 15  1  0
 15 16  1  0
 15 17  1  0
 15 13  1  0
 13 10  1  0
 10 11  1  0
 10 12  1  0
 10  9  1  0
  9  6  1  0
  6  7  1  0
  6  8  1  0
  6  5  1  0
  5  1  1  0
  1  2  1  0
  1 18  1  0
 18 19  1  0
 19 20  2  0
 20 21  1  0
 21 22  1  0
 21 23  2  0
 23 26  1  0
 26 27  2  0
 26 28  1  0
 23 24  1  0
 24 25  2  0
 25 29  1  0
 29 30  1  0
 30 31  1  0
 31 32  2  0
 31 33  1  0
 25 19  1  0
  2  3  1  0
  2  4  1  0
 33 34  1  0
M  CHG 1   6   1
M  CHG 1  10   1
M  CHG 1  15   1
M  CHG 1  26   1
M  CHG 1  28  -1
M  END
> <minimizedAffinity>
-6.78166

> <CNNscore>
0.1642564684

> <CNNaffinity>
5.9255318642

> <CNN_VS>
0.9733069539

> <CNNaffinity_variance>
0.2971673906

$$$$



 34 34  0  0  0  0  0  0  0  0999 V2000
   -0.4208   34.8011   98.6517 C   0  0  0  0  0  0  0  0  0  0  0  0
    0.9867   34.6961   99.0727 N   0  0  0  0  0  0  0  0  0  0  0  0
    1.4976   35.5216   98.7598 H   0  0  0  0  0  0  0  0  0  0  0  0
    1.4036   33.8616   98.6602 H   0  0  0  0  0  0  0  0  0  0  0  0
   -0.5015   34.9172   97.0939 C   0  0  0  0  0  0  0  0  0  0  0  0
   -0.6013   33.5893   96.2834 N   0  0  0  0  0  0  0  0  0  0  0  0
   -1.4975   32.6193   97.1287 C   0  0  0  0  0  0  0  0  0  0  0  0
    0.7505   32.8692   96.1694 C   0  0  0  0  0  0  0  0  0  0  0  0
   -1.3163   33.7394   94.9474 C   0  0  0  0  0  0  0  0  0  0  0  0
   -0.8711   33.0234   93.6682 N   0  0  0  0  0  0  0  0  0  0  0  0
   -1.3436   33.8791   92.4402 C   0  0  0  0  0  0  0  0  0  0  0  0
    0.6116   32.8266   93.4824 C   0  0  0  0  0  0  0  0  0  0  0  0
   -1.6744   31.7043   93.4948 C   0  0  0  0  0  0  0  0  0  0  0  0
   -0.5639   29.8237   94.8966 C   0  0  0  0  0  0  0  0  0  0  0  0
   -1.0173   30.3357   93.5410 N   0  0  0  0  0  0  0  0  0  0  0  0
   -2.1273   29.3218   93.0633 C   0  0  0  0  0  0  0  0  0  0  0  0
    0.1209   30.1442   92.5179 C   0  0  0  0  0  0  0  0  0  0  0  0
   -1.1521   36.0286   99.2667 C   0  0  0  0  0  0  0  0  0  0  0  0
   -2.5894   35.8131   99.6966 C   0  0  0  0  0  0  0  0  0  0  0  0
   -3.6147   36.0486   98.7550 C   0  0  0  0  0  0  0  0  0  0  0  0
   -4.9655   35.8732   99.0773 C   0  0  0  0  0  0  0  0  0  0  0  0
   -6.1143   36.1095   97.8143 Cl  0  0  0  0  0  0  0  0  0  0  0  0
   -5.2940   35.4766  100.3675 C   0  0  0  0  0  0  0  0  0  0  0  0
   -4.3009   35.2462  101.3310 C   0  0  0  0  0  0  0  0  0  0  0  0
   -2.9419   35.4252  101.0128 C   0  0  0  0  0  0  0  0  0  0  0  0
   -6.6751   35.2848  100.7613 N   0  0  0  0  0  0  0  0  0  0  0  0
   -7.1228   36.0818  101.5953 O   0  0  0  0  0  0  0  0  0  0  0  0
   -7.2994   34.3701  100.2102 O   0  0  0  0  0  0  0  0  0  0  0  0
   -1.9233   35.1919  102.1147 C   0  0  0  0  0  0  0  0  0  0  0  0
   -2.2085   36.0162  103.3676 C   0  0  0  0  0  0  0  0  0  0  0  0
   -1.5971   37.3873  103.2576 C   0  0  0  0  0  0  0  0  0  0  0  0
   -2.1997   38.4183  102.9745 O   0  0  0  0  0  0  0  0  0  0  0  0
   -0.2873   37.3771  103.5411 O   0  0  0  0  0  0  0  0  0  0  0  0
    0.1400   36.5705  103.7530 H   0  0  0  0  0  0  0  0  0  0  0  0
 14 15  1  0
 15 16  1  0
 15 17  1  0
 15 13  1  0
 13 10  1  0
 10 11  1  0
 10 12  1  0
 10  9  1  0
  9  6  1  0
  6  7  1  0
  6  8  1  0
  6  5  1  0
  5  1  1  0
  1  2  1  0
  1 18  1  0
 18 19  1  0
 19 20  2  0
 20 21  1  0
 21 22  1  0
 21 23  2  0
 23 26  1  0
 26 27  2  0
 26 28  1  0
 23 24  1  0
 24 25  2  0
 25 29  1  0
 29 30  1  0
 30 31  1  0
 31 32  2  0
 31 33  1  0
 25 19  1  0
  2  3  1  0
  2  4  1  0
 33 34  1  0
M  CHG 1   6   1
M  CHG 1  10   1
M  CHG 1  15   1
M  CHG 1  26   1
M  CHG 1  28  -1
M  END
> <minimizedAffinity>
-7.42854

> <CNNscore>
0.1619290113

> <CNNaffinity>
5.3510303497

> <CNN_VS>
0.8664870262

> <CNNaffinity_variance>
0.8441706300

$$$$



 34 34  0  0  0  0  0  0  0  0999 V2000
   -0.3877   34.8543   98.7835 C   0  0  0  0  0  0  0  0  0  0  0  0
    1.0190   34.7144   99.1968 N   0  0  0  0  0  0  0  0  0  0  0  0
    1.5356   35.5539   98.9345 H   0  0  0  0  0  0  0  0  0  0  0  0
    1.4303   33.9037   98.7342 H   0  0  0  0  0  0  0  0  0  0  0  0
   -0.4674   35.0655   97.2356 C   0  0  0  0  0  0  0  0  0  0  0  0
   -0.5204   33.7886   96.3429 N   0  0  0  0  0  0  0  0  0  0  0  0
   -1.4761   32.7790   97.0680 C   0  0  0  0  0  0  0  0  0  0  0  0
    0.8320   33.0638   96.2757 C   0  0  0  0  0  0  0  0  0  0  0  0
   -1.1443   34.0239   94.9738 C   0  0  0  0  0  0  0  0  0  0  0  0
   -1.1824   32.9610   93.8712 N   0  0  0  0  0  0  0  0  0  0  0  0
    0.2456   32.8762   93.2254 C   0  0  0  0  0  0  0  0  0  0  0  0
   -1.5223   31.5553   94.2960 C   0  0  0  0  0  0  0  0  0  0  0  0
   -2.0626   33.4567   92.6902 C   0  0  0  0  0  0  0  0  0  0  0  0
   -3.6450   35.5134   92.6604 C   0  0  0  0  0  0  0  0  0  0  0  0
   -3.4566   34.0247   92.8927 N   0  0  0  0  0  0  0  0  0  0  0  0
   -4.3587   33.3172   91.8093 C   0  0  0  0  0  0  0  0  0  0  0  0
   -4.1130   33.6316   94.2319 C   0  0  0  0  0  0  0  0  0  0  0  0
   -1.1106   36.0471   99.4722 C   0  0  0  0  0  0  0  0  0  0  0  0
   -2.5598   35.8273   99.8576 C   0  0  0  0  0  0  0  0  0  0  0  0
   -3.5565   36.0617   98.8854 C   0  0  0  0  0  0  0  0  0  0  0  0
   -4.9160   35.8823   99.1660 C   0  0  0  0  0  0  0  0  0  0  0  0
   -6.0263   36.1178   97.8689 Cl  0  0  0  0  0  0  0  0  0  0  0  0
   -5.2828   35.4827  100.4449 C   0  0  0  0  0  0  0  0  0  0  0  0
   -4.3190   35.2532  101.4380 C   0  0  0  0  0  0  0  0  0  0  0  0
   -2.9514   35.4362  101.1618 C   0  0  0  0  0  0  0  0  0  0  0  0
   -6.6749   35.2867  100.7960 N   0  0  0  0  0  0  0  0  0  0  0  0
   -7.1628   36.1091  101.5814 O   0  0  0  0  0  0  0  0  0  0  0  0
   -7.2668   34.3426  100.2592 O   0  0  0  0  0  0  0  0  0  0  0  0
   -1.9664   35.2037  102.2939 C   0  0  0  0  0  0  0  0  0  0  0  0
   -2.1591   36.1767  103.4544 C   0  0  0  0  0  0  0  0  0  0  0  0
   -1.5974   37.5317  103.1163 C   0  0  0  0  0  0  0  0  0  0  0  0
   -2.2525   38.5145  102.7828 O   0  0  0  0  0  0  0  0  0  0  0  0
   -0.2645   37.5706  103.2513 O   0  0  0  0  0  0  0  0  0  0  0  0
    0.2031   36.8002  103.5078 H   0  0  0  0  0  0  0  0  0  0  0  0
 14 15  1  0
 15 16  1  0
 15 17  1  0
 15 13  1  0
 13 10  1  0
 10 11  1  0
 10 12  1  0
 10  9  1  0
  9  6  1  0
  6  7  1  0
  6  8  1  0
  6  5  1  0
  5  1  1  0
  1  2  1  0
  1 18  1  0
 18 19  1  0
 19 20  2  0
 20 21  1  0
 21 22  1  0
 21 23  2  0
 23 26  1  0
 26 27  2  0
 26 28  1  0
 23 24  1  0
 24 25  2  0
 25 29  1  0
 29 30  1  0
 30 31  1  0
 31 32  2  0
 31 33  1  0
 25 19  1  0
  2  3  1  0
  2  4  1  0
 33 34  1  0
M  CHG 1   6   1
M  CHG 1  10   1
M  CHG 1  15   1
M  CHG 1  26   1
M  CHG 1  28  -1
M  END
> <minimizedAffinity>
-7.40241

> <CNNscore>
0.1537567377

> <CNNaffinity>
5.3933205605

> <CNN_VS>
0.8292593956

> <CNNaffinity_variance>
0.8314306736

$$$$



 34 34  0  0  0  0  0  0  0  0999 V2000
   -2.1598   34.9218   97.8194 C   0  0  0  0  0  0  0  0  0  0  0  0
   -0.9945   34.1257   98.2411 N   0  0  0  0  0  0  0  0  0  0  0  0
   -1.2711   33.4864   98.9862 H   0  0  0  0  0  0  0  0  0  0  0  0
   -0.2624   34.7487   98.5819 H   0  0  0  0  0  0  0  0  0  0  0  0
   -2.7166   35.7326   99.0357 C   0  0  0  0  0  0  0  0  0  0  0  0
   -1.7098   36.1054  100.1660 N   0  0  0  0  0  0  0  0  0  0  0  0
   -2.2264   37.4445  100.7972 C   0  0  0  0  0  0  0  0  0  0  0  0
   -0.3152   36.4457   99.6200 C   0  0  0  0  0  0  0  0  0  0  0  0
   -1.6777   35.1038  101.3126 C   0  0  0  0  0  0  0  0  0  0  0  0
   -0.5756   35.0756  102.3763 N   0  0  0  0  0  0  0  0  0  0  0  0
   -0.6724   36.3989  103.2147 C   0  0  0  0  0  0  0  0  0  0  0  0
   -0.6301   33.9520  103.3795 C   0  0  0  0  0  0  0  0  0  0  0  0
    0.8167   35.2024  101.6975 C   0  0  0  0  0  0  0  0  0  0  0  0
    3.3792   34.8000  101.6141 C   0  0  0  0  0  0  0  0  0  0  0  0
    2.1151   34.9462  102.4427 N   0  0  0  0  0  0  0  0  0  0  0  0
    2.3470   36.2276  103.3329 C   0  0  0  0  0  0  0  0  0  0  0  0
    2.0419   33.7950  103.4666 C   0  0  0  0  0  0  0  0  0  0  0  0
   -3.3167   34.0543   97.2461 C   0  0  0  0  0  0  0  0  0  0  0  0
   -4.3926   34.7894   96.4721 C   0  0  0  0  0  0  0  0  0  0  0  0
   -4.0636   35.3248   95.2079 C   0  0  0  0  0  0  0  0  0  0  0  0
   -5.0021   36.0176   94.4343 C   0  0  0  0  0  0  0  0  0  0  0  0
   -4.5002   36.5461   92.8724 Cl  0  0  0  0  0  0  0  0  0  0  0  0
   -6.2821   36.1943   94.9444 C   0  0  0  0  0  0  0  0  0  0  0  0
   -6.6387   35.6861   96.2022 C   0  0  0  0  0  0  0  0  0  0  0  0
   -5.6974   34.9926   96.9853 C   0  0  0  0  0  0  0  0  0  0  0  0
   -7.2942   36.9082   94.1923 N   0  0  0  0  0  0  0  0  0  0  0  0
   -7.0365   38.0842   93.9062 O   0  0  0  0  0  0  0  0  0  0  0  0
   -8.3090   36.2789   93.8694 O   0  0  0  0  0  0  0  0  0  0  0  0
   -6.1424   34.5009   98.3514 C   0  0  0  0  0  0  0  0  0  0  0  0
   -7.0723   35.4832   99.0592 C   0  0  0  0  0  0  0  0  0  0  0  0
   -6.7470   35.5664  100.5266 C   0  0  0  0  0  0  0  0  0  0  0  0
   -5.6193   35.6327  101.0063 O   0  0  0  0  0  0  0  0  0  0  0  0
   -7.8517   35.5947  101.2849 O   0  0  0  0  0  0  0  0  0  0  0  0
   -8.6968   35.5418  100.8838 H   0  0  0  0  0  0  0  0  0  0  0  0
 14 15  1  0
 15 16  1  0
 15 17  1  0
 15 13  1  0
 13 10  1  0
 10 11  1  0
 10 12  1  0
 10  9  1  0
  9  6  1  0
  6  7  1  0
  6  8  1  0
  6  5  1  0
  5  1  1  0
  1  2  1  0
  1 18  1  0
 18 19  1  0
 19 20  2  0
 20 21  1  0
 21 22  1  0
 21 23  2  0
 23 26  1  0
 26 27  2  0
 26 28  1  0
 23 24  1  0
 24 25  2  0
 25 29  1  0
 29 30  1  0
 30 31  1  0
 31 32  2  0
 31 33  1  0
 25 19  1  0
  2  3  1  0
  2  4  1  0
 33 34  1  0
M  CHG 1   6   1
M  CHG 1  10   1
M  CHG 1  15   1
M  CHG 1  26   1
M  CHG 1  28  -1
M  END
> <minimizedAffinity>
-7.02799

> <CNNscore>
0.1441998482

> <CNNaffinity>
5.7241191864

> <CNN_VS>
0.8254171014

> <CNNaffinity_variance>
0.6078889966

$$$$



 34 34  0  0  0  0  0  0  0  0999 V2000
   -2.7957   33.1233   96.1072 C   0  0  0  0  0  0  0  0  0  0  0  0
   -3.7105   32.2723   96.8870 N   0  0  0  0  0  0  0  0  0  0  0  0
   -3.5380   32.4108   97.8827 H   0  0  0  0  0  0  0  0  0  0  0  0
   -3.5517   31.2936   96.6474 H   0  0  0  0  0  0  0  0  0  0  0  0
   -1.3129   32.7578   96.4456 C   0  0  0  0  0  0  0  0  0  0  0  0
   -0.5007   31.9911   95.3580 N   0  0  0  0  0  0  0  0  0  0  0  0
    0.8944   31.6633   95.9942 C   0  0  0  0  0  0  0  0  0  0  0  0
   -0.1761   32.8697   94.1409 C   0  0  0  0  0  0  0  0  0  0  0  0
   -1.1008   30.6428   94.9824 C   0  0  0  0  0  0  0  0  0  0  0  0
   -0.6663   29.8406   93.7517 N   0  0  0  0  0  0  0  0  0  0  0  0
   -0.6351   30.8138   92.5207 C   0  0  0  0  0  0  0  0  0  0  0  0
    0.6993   29.2049   93.8042 C   0  0  0  0  0  0  0  0  0  0  0  0
   -1.7802   28.8300   93.3600 C   0  0  0  0  0  0  0  0  0  0  0  0
   -0.2683   27.2202   91.9971 C   0  0  0  0  0  0  0  0  0  0  0  0
   -1.4744   27.4156   92.8986 N   0  0  0  0  0  0  0  0  0  0  0  0
   -1.1466   26.6078   94.2132 C   0  0  0  0  0  0  0  0  0  0  0  0
   -2.6837   26.6688   92.2997 C   0  0  0  0  0  0  0  0  0  0  0  0
   -2.9935   34.6420   96.3794 C   0  0  0  0  0  0  0  0  0  0  0  0
   -2.9682   35.0771   97.8309 C   0  0  0  0  0  0  0  0  0  0  0  0
   -1.7216   35.3834   98.4188 C   0  0  0  0  0  0  0  0  0  0  0  0
   -1.6168   35.7906   99.7539 C   0  0  0  0  0  0  0  0  0  0  0  0
   -0.0485   36.2186  100.3266 Cl  0  0  0  0  0  0  0  0  0  0  0  0
   -2.7753   35.8715  100.5161 C   0  0  0  0  0  0  0  0  0  0  0  0
   -4.0285   35.5623   99.9669 C   0  0  0  0  0  0  0  0  0  0  0  0
   -4.1384   35.1486   98.6264 C   0  0  0  0  0  0  0  0  0  0  0  0
   -2.7287   36.2810  101.9052 N   0  0  0  0  0  0  0  0  0  0  0  0
   -2.7510   35.3727  102.7452 O   0  0  0  0  0  0  0  0  0  0  0  0
   -2.6352   37.4927  102.1356 O   0  0  0  0  0  0  0  0  0  0  0  0
   -5.5218   34.7962   98.1085 C   0  0  0  0  0  0  0  0  0  0  0  0
   -6.6263   35.6217   98.7639 C   0  0  0  0  0  0  0  0  0  0  0  0
   -7.4984   34.7556   99.6329 C   0  0  0  0  0  0  0  0  0  0  0  0
   -7.4242   34.6639  100.8545 O   0  0  0  0  0  0  0  0  0  0  0  0
   -8.4196   34.0941   98.9187 O   0  0  0  0  0  0  0  0  0  0  0  0
   -8.4464   34.1883   97.9868 H   0  0  0  0  0  0  0  0  0  0  0  0
 14 15  1  0
 15 16  1  0
 15 17  1  0
 15 13  1  0
 13 10  1  0
 10 11  1  0
 10 12  1  0
 10  9  1  0
  9  6  1  0
  6  7  1  0
  6  8  1  0
  6  5  1  0
  5  1  1  0
  1  2  1  0
  1 18  1  0
 18 19  1  0
 19 20  2  0
 20 21  1  0
 21 22  1  0
 21 23  2  0
 23 26  1  0
 26 27  2  0
 26 28  1  0
 23 24  1  0
 24 25  2  0
 25 29  1  0
 29 30  1  0
 30 31  1  0
 31 32  2  0
 31 33  1  0
 25 19  1  0
  2  3  1  0
  2  4  1  0
 33 34  1  0
M  CHG 1   6   1
M  CHG 1  10   1
M  CHG 1  15   1
M  CHG 1  26   1
M  CHG 1  28  -1
M  END
> <minimizedAffinity>
-7.04299

> <CNNscore>
0.1417444944

> <CNNaffinity>
5.6476407051

> <CNN_VS>
0.8005219698

> <CNNaffinity_variance>
0.2269572467

$$$$



 34 34  0  0  0  0  0  0  0  0999 V2000
   -2.7498   33.2341   96.2475 C   0  0  0  0  0  0  0  0  0  0  0  0
   -3.7907   32.3949   96.8653 N   0  0  0  0  0  0  0  0  0  0  0  0
   -3.7351   32.4766   97.8805 H   0  0  0  0  0  0  0  0  0  0  0  0
   -3.6482   31.4220   96.5941 H   0  0  0  0  0  0  0  0  0  0  0  0
   -1.3376   32.7770   96.7409 C   0  0  0  0  0  0  0  0  0  0  0  0
   -0.2009   32.6981   95.6770 N   0  0  0  0  0  0  0  0  0  0  0  0
    1.0233   33.4729   96.2766 C   0  0  0  0  0  0  0  0  0  0  0  0
   -0.5495   33.4590   94.3892 C   0  0  0  0  0  0  0  0  0  0  0  0
    0.3017   31.2836   95.4214 C   0  0  0  0  0  0  0  0  0  0  0  0
   -0.2368   30.3875   94.3015 N   0  0  0  0  0  0  0  0  0  0  0  0
   -0.9766   29.1714   94.9625 C   0  0  0  0  0  0  0  0  0  0  0  0
   -1.2344   31.0080   93.3572 C   0  0  0  0  0  0  0  0  0  0  0  0
    0.9447   29.7052   93.5572 C   0  0  0  0  0  0  0  0  0  0  0  0
    2.0135   31.8592   92.5811 C   0  0  0  0  0  0  0  0  0  0  0  0
    2.1958   30.4610   93.1445 N   0  0  0  0  0  0  0  0  0  0  0  0
    3.0264   30.6524   94.4718 C   0  0  0  0  0  0  0  0  0  0  0  0
    3.1453   29.6628   92.2279 C   0  0  0  0  0  0  0  0  0  0  0  0
   -2.9105   34.7462   96.5752 C   0  0  0  0  0  0  0  0  0  0  0  0
   -2.8601   35.1288   98.0409 C   0  0  0  0  0  0  0  0  0  0  0  0
   -1.5968   35.2710   98.6550 C   0  0  0  0  0  0  0  0  0  0  0  0
   -1.4687   35.6205  100.0043 C   0  0  0  0  0  0  0  0  0  0  0  0
    0.1283   35.8471  100.6117 Cl  0  0  0  0  0  0  0  0  0  0  0  0
   -2.6231   35.8095  100.7536 C   0  0  0  0  0  0  0  0  0  0  0  0
   -3.8940   35.6640  100.1779 C   0  0  0  0  0  0  0  0  0  0  0  0
   -4.0278   35.3087   98.8228 C   0  0  0  0  0  0  0  0  0  0  0  0
   -2.5535   36.1663  102.1562 N   0  0  0  0  0  0  0  0  0  0  0  0
   -2.4671   35.2268  102.9569 O   0  0  0  0  0  0  0  0  0  0  0  0
   -2.5500   37.3715  102.4345 O   0  0  0  0  0  0  0  0  0  0  0  0
   -5.4335   35.1343   98.2753 C   0  0  0  0  0  0  0  0  0  0  0  0
   -6.5039   35.7055   99.2019 C   0  0  0  0  0  0  0  0  0  0  0  0
   -7.4278   34.6203   99.6862 C   0  0  0  0  0  0  0  0  0  0  0  0
   -7.8838   33.7106   99.0002 O   0  0  0  0  0  0  0  0  0  0  0  0
   -7.6878   34.7300  100.9964 O   0  0  0  0  0  0  0  0  0  0  0  0
   -7.3221   35.4383  101.4889 H   0  0  0  0  0  0  0  0  0  0  0  0
 14 15  1  0
 15 16  1  0
 15 17  1  0
 15 13  1  0
 13 10  1  0
 10 11  1  0
 10 12  1  0
 10  9  1  0
  9  6  1  0
  6  7  1  0
  6  8  1  0
  6  5  1  0
  5  1  1  0
  1  2  1  0
  1 18  1  0
 18 19  1  0
 19 20  2  0
 20 21  1  0
 21 22  1  0
 21 23  2  0
 23 26  1  0
 26 27  2  0
 26 28  1  0
 23 24  1  0
 24 25  2  0
 25 29  1  0
 29 30  1  0
 30 31  1  0
 31 32  2  0
 31 33  1  0
 25 19  1  0
  2  3  1  0
  2  4  1  0
 33 34  1  0
M  CHG 1   6   1
M  CHG 1  10   1
M  CHG 1  15   1
M  CHG 1  26   1
M  CHG 1  28  -1
M  END
> <minimizedAffinity>
-6.91821

> <CNNscore>
0.1117176712

> <CNNaffinity>
5.3792510033

> <CNN_VS>
0.6009573936

> <CNNaffinity_variance>
0.5414651036

$$$$



 34 34  0  0  0  0  0  0  0  0999 V2000
   -1.8612   35.3689   96.4304 C   0  0  0  0  0  0  0  0  0  0  0  0
   -2.6006   35.7184   95.2055 N   0  0  0  0  0  0  0  0  0  0  0  0
   -3.0326   34.8796   94.8181 H   0  0  0  0  0  0  0  0  0  0  0  0
   -1.9568   36.1161   94.5216 H   0  0  0  0  0  0  0  0  0  0  0  0
   -0.7602   34.3077   96.1010 C   0  0  0  0  0  0  0  0  0  0  0  0
   -1.2386   32.9314   95.5467 N   0  0  0  0  0  0  0  0  0  0  0  0
   -2.6686   33.1664   94.9482 C   0  0  0  0  0  0  0  0  0  0  0  0
   -1.4484   31.8927   96.6584 C   0  0  0  0  0  0  0  0  0  0  0  0
   -0.3964   32.4109   94.3897 C   0  0  0  0  0  0  0  0  0  0  0  0
    0.9828   31.7698   94.5730 N   0  0  0  0  0  0  0  0  0  0  0  0
    1.8609   32.1354   93.3245 C   0  0  0  0  0  0  0  0  0  0  0  0
    1.7798   32.2079   95.7750 C   0  0  0  0  0  0  0  0  0  0  0  0
    0.8648   30.2238   94.4667 C   0  0  0  0  0  0  0  0  0  0  0  0
   -1.4950   29.2133   94.0856 C   0  0  0  0  0  0  0  0  0  0  0  0
   -0.1197   29.5421   93.5324 N   0  0  0  0  0  0  0  0  0  0  0  0
   -0.3757   30.5747   92.3677 C   0  0  0  0  0  0  0  0  0  0  0  0
    0.4469   28.3037   92.8083 C   0  0  0  0  0  0  0  0  0  0  0  0
   -2.7729   34.7885   97.5492 C   0  0  0  0  0  0  0  0  0  0  0  0
   -2.6430   35.4188   98.9214 C   0  0  0  0  0  0  0  0  0  0  0  0
   -1.4031   35.9884   99.2843 C   0  0  0  0  0  0  0  0  0  0  0  0
   -1.2051   36.5873  100.5338 C   0  0  0  0  0  0  0  0  0  0  0  0
    0.3270   37.3226  100.8216 Cl  0  0  0  0  0  0  0  0  0  0  0  0
   -2.2581   36.5967  101.4399 C   0  0  0  0  0  0  0  0  0  0  0  0
   -3.4991   36.0286  101.1162 C   0  0  0  0  0  0  0  0  0  0  0  0
   -3.7017   35.4217   99.8628 C   0  0  0  0  0  0  0  0  0  0  0  0
   -2.1107   37.1965  102.7506 N   0  0  0  0  0  0  0  0  0  0  0  0
   -2.2784   38.4209  102.8148 O   0  0  0  0  0  0  0  0  0  0  0  0
   -1.8666   36.4378  103.6965 O   0  0  0  0  0  0  0  0  0  0  0  0
   -5.0590   34.7961   99.5937 C   0  0  0  0  0  0  0  0  0  0  0  0
   -6.0305   35.7599   98.9170 C   0  0  0  0  0  0  0  0  0  0  0  0
   -7.3844   35.1243   98.7470 C   0  0  0  0  0  0  0  0  0  0  0  0
   -7.6647   33.9583   99.0078 O   0  0  0  0  0  0  0  0  0  0  0  0
   -8.2959   35.9975   98.2965 O   0  0  0  0  0  0  0  0  0  0  0  0
   -8.0456   36.8804   98.1077 H   0  0  0  0  0  0  0  0  0  0  0  0
 14 15  1  0
 15 16  1  0
 15 17  1  0
 15 13  1  0
 13 10  1  0
 10 11  1  0
 10 12  1  0
 10  9  1  0
  9  6  1  0
  6  7  1  0
  6  8  1  0
  6  5  1  0
  5  1  1  0
  1  2  1  0
  1 18  1  0
 18 19  1  0
 19 20  2  0
 20 21  1  0
 21 22  1  0
 21 23  2  0
 23 26  1  0
 26 27  2  0
 26 28  1  0
 23 24  1  0
 24 25  2  0
 25 29  1  0
 29 30  1  0
 30 31  1  0
 31 32  2  0
 31 33  1  0
 25 19  1  0
  2  3  1  0
  2  4  1  0
 33 34  1  0
M  CHG 1   6   1
M  CHG 1  10   1
M  CHG 1  15   1
M  CHG 1  26   1
M  CHG 1  28  -1
M  END
> <minimizedAffinity>
-7.21397

> <CNNscore>
0.1014882624

> <CNNaffinity>
4.9247241020

> <CNN_VS>
0.4998016953

> <CNNaffinity_variance>
0.9645981193

$$$$



 34 34  0  0  0  0  0  0  0  0999 V2000
   -2.3469   35.6784   96.3427 C   0  0  0  0  0  0  0  0  0  0  0  0
   -3.4275   36.0560   95.4159 N   0  0  0  0  0  0  0  0  0  0  0  0
   -3.8642   35.2136   95.0415 H   0  0  0  0  0  0  0  0  0  0  0  0
   -3.0412   36.6078   94.6499 H   0  0  0  0  0  0  0  0  0  0  0  0
   -1.2802   34.8160   95.5909 C   0  0  0  0  0  0  0  0  0  0  0  0
   -1.8060   33.7549   94.5771 N   0  0  0  0  0  0  0  0  0  0  0  0
   -1.9323   34.4851   93.1953 C   0  0  0  0  0  0  0  0  0  0  0  0
   -3.2330   33.2898   94.9027 C   0  0  0  0  0  0  0  0  0  0  0  0
   -0.8387   32.6032   94.3389 C   0  0  0  0  0  0  0  0  0  0  0  0
   -0.3197   31.6937   95.4572 N   0  0  0  0  0  0  0  0  0  0  0  0
    1.1176   32.1821   95.8561 C   0  0  0  0  0  0  0  0  0  0  0  0
   -1.1140   31.6733   96.7380 C   0  0  0  0  0  0  0  0  0  0  0  0
   -0.0532   30.2685   94.8977 C   0  0  0  0  0  0  0  0  0  0  0  0
    0.4100   30.5053   92.3551 C   0  0  0  0  0  0  0  0  0  0  0  0
   -0.3997   29.8723   93.4729 N   0  0  0  0  0  0  0  0  0  0  0  0
   -0.0967   28.3269   93.3825 C   0  0  0  0  0  0  0  0  0  0  0  0
   -1.9009   29.9735   93.1341 C   0  0  0  0  0  0  0  0  0  0  0  0
   -2.8507   34.8639   97.5684 C   0  0  0  0  0  0  0  0  0  0  0  0
   -2.6303   35.4886   98.9316 C   0  0  0  0  0  0  0  0  0  0  0  0
   -1.3297   35.9218   99.2697 C   0  0  0  0  0  0  0  0  0  0  0  0
   -1.0471   36.5067  100.5095 C   0  0  0  0  0  0  0  0  0  0  0  0
    0.5609   37.0718  100.7662 Cl  0  0  0  0  0  0  0  0  0  0  0  0
   -2.0780   36.6401  101.4311 C   0  0  0  0  0  0  0  0  0  0  0  0
   -3.3789   36.2089  101.1322 C   0  0  0  0  0  0  0  0  0  0  0  0
   -3.6670   35.6165   99.8887 C   0  0  0  0  0  0  0  0  0  0  0  0
   -1.8446   37.2321  102.7328 N   0  0  0  0  0  0  0  0  0  0  0  0
   -1.2804   36.5142  103.5680 O   0  0  0  0  0  0  0  0  0  0  0  0
   -2.1930   38.4084  102.8907 O   0  0  0  0  0  0  0  0  0  0  0  0
   -5.0889   35.1413   99.6467 C   0  0  0  0  0  0  0  0  0  0  0  0
   -5.9569   35.2109  100.9007 C   0  0  0  0  0  0  0  0  0  0  0  0
   -7.4177   35.1324  100.5461 C   0  0  0  0  0  0  0  0  0  0  0  0
   -7.8940   34.4893   99.6156 O   0  0  0  0  0  0  0  0  0  0  0  0
   -8.1793   35.8336  101.3972 O   0  0  0  0  0  0  0  0  0  0  0  0
   -7.7807   36.3131  102.0966 H   0  0  0  0  0  0  0  0  0  0  0  0
 14 15  1  0
 15 16  1  0
 15 17  1  0
 15 13  1  0
 13 10  1  0
 10 11  1  0
 10 12  1  0
 10  9  1  0
  9  6  1  0
  6  7  1  0
  6  8  1  0
  6  5  1  0
  5  1  1  0
  1  2  1  0
  1 18  1  0
 18 19  1  0
 19 20  2  0
 20 21  1  0
 21 22  1  0
 21 23  2  0
 23 26  1  0
 26 27  2  0
 26 28  1  0
 23 24  1  0
 24 25  2  0
 25 29  1  0
 29 30  1  0
 30 31  1  0
 31 32  2  0
 31 33  1  0
 25 19  1  0
  2  3  1  0
  2  4  1  0
 33 34  1  0
M  CHG 1   6   1
M  CHG 1  10   1
M  CHG 1  15   1
M  CHG 1  26   1
M  CHG 1  28  -1
M  END
> <minimizedAffinity>
-7.04571

> <CNNscore>
0.0996272266

> <CNNaffinity>
4.9688773155

> <CNN_VS>
0.4950354695

> <CNNaffinity_variance>
1.0144561529

$$$$
