


 21 22  0  0  0  0  0  0  0  0999 V2000
   28.3396   65.5267   11.6988 C   0  0  0  0  0  0  0  0  0  0  0  0
   29.3138   64.6771   10.8331 C   0  0  0  0  0  0  0  0  0  0  0  0
   29.8011   65.4376    9.5691 C   0  0  0  0  0  0  0  0  0  0  0  0
   28.5846   65.9376    8.7365 C   0  0  0  0  0  0  0  0  0  0  0  0
   27.7200   66.8357    9.6357 C   0  0  0  0  0  0  0  0  0  0  0  0
   26.4746   67.2437    9.0503 N   0  0  0  0  0  0  0  0  0  0  0  0
   25.4846   67.2771   10.0081 C   0  0  0  0  0  0  0  0  0  0  0  0
   24.3942   67.7960    9.9252 O   0  0  0  0  0  0  0  0  0  0  0  0
   26.0713   66.5343   11.2405 C   0  0  0  0  0  0  0  0  0  0  0  0
   25.5109   66.3296   12.2944 O   0  0  0  0  0  0  0  0  0  0  0  0
   27.3441   66.1829   10.8588 N   0  0  0  0  0  0  0  0  0  0  0  0
   26.3462   67.4677    8.1003 H   0  0  0  0  0  0  0  0  0  0  0  0
   28.5983   63.4939   10.4135 O   0  0  0  0  0  0  0  0  0  0  0  0
   27.8181   62.9164   11.4533 C   0  0  0  0  0  0  0  0  0  0  0  0
   30.6256   66.5637    9.9084 O   0  0  0  0  0  0  0  0  0  0  0  0
   31.9504   66.4744    9.3989 C   0  0  0  0  0  0  0  0  0  0  0  0
   28.9770   66.7068    7.5812 O   0  0  0  0  0  0  0  0  0  0  0  0
   29.5520   65.9221    6.5465 C   0  0  0  0  0  0  0  0  0  0  0  0
   29.0525   66.5363   12.6218 C   0  0  0  0  0  0  0  0  0  0  0  0
   28.0302   67.7972   14.3563 C   0  0  0  0  0  0  0  0  0  0  0  0
   28.5298   66.5268   13.9528 O   0  0  0  0  0  0  0  0  0  0  0  0
 20 21  1  0
 21 19  1  0
  1 19  1  0
  1  2  1  0
  2 13  1  0
 13 14  1  0
  2  3  1  0
  3 15  1  0
 15 16  1  0
  3  4  1  0
  4 17  1  0
 17 18  1  0
  4  5  1  0
  5  6  1  0
  6  7  1  0
  7  8  2  0
  7  9  1  0
  9 10  2  0
  9 11  1  0
 11  1  1  0
 11  5  1  0
  6 12  1  0
M  END
> <minimizedAffinity>
-4.78086

> <CNNscore>
0.2444819659

> <CNNaffinity>
3.6808025837

> <CNN_VS>
0.8998898268

> <CNNaffinity_variance>
0.6771460176

$$$$



 21 22  0  0  0  0  0  0  0  0999 V2000
   24.2668   65.0729   13.7094 C   0  0  0  0  0  0  0  0  0  0  0  0
   24.8490   65.4472   12.3160 C   0  0  0  0  0  0  0  0  0  0  0  0
   26.1122   64.6166   11.9584 C   0  0  0  0  0  0  0  0  0  0  0  0
   27.1830   64.7510   13.0800 C   0  0  0  0  0  0  0  0  0  0  0  0
   26.5576   64.2830   14.4038 C   0  0  0  0  0  0  0  0  0  0  0  0
   27.3787   64.4997   15.5609 N   0  0  0  0  0  0  0  0  0  0  0  0
   26.5996   64.8582   16.6395 C   0  0  0  0  0  0  0  0  0  0  0  0
   26.9196   64.8808   17.8065 O   0  0  0  0  0  0  0  0  0  0  0  0
   25.2028   65.1991   16.0500 C   0  0  0  0  0  0  0  0  0  0  0  0
   24.2310   65.5755   16.6668 O   0  0  0  0  0  0  0  0  0  0  0  0
   25.3316   64.9700   14.7008 N   0  0  0  0  0  0  0  0  0  0  0  0
   28.3584   64.4055   15.5812 H   0  0  0  0  0  0  0  0  0  0  0  0
   25.2124   66.8449   12.3616 O   0  0  0  0  0  0  0  0  0  0  0  0
   25.4071   67.4125   11.0718 C   0  0  0  0  0  0  0  0  0  0  0  0
   25.8027   63.2259   11.7764 O   0  0  0  0  0  0  0  0  0  0  0  0
   25.2027   62.9349   10.5201 C   0  0  0  0  0  0  0  0  0  0  0  0
   28.3557   63.9489   12.8314 O   0  0  0  0  0  0  0  0  0  0  0  0
   28.2675   62.6356   13.3647 C   0  0  0  0  0  0  0  0  0  0  0  0
   23.3878   63.8054   13.6922 C   0  0  0  0  0  0  0  0  0  0  0  0
   21.7673   63.3552   15.3698 C   0  0  0  0  0  0  0  0  0  0  0  0
   22.0605   64.0519   14.1637 O   0  0  0  0  0  0  0  0  0  0  0  0
 20 21  1  0
 21 19  1  0
  1 19  1  0
  1  2  1  0
  2 13  1  0
 13 14  1  0
  2  3  1  0
  3 15  1  0
 15 16  1  0
  3  4  1  0
  4 17  1  0
 17 18  1  0
  4  5  1  0
  5  6  1  0
  6  7  1  0
  7  8  2  0
  7  9  1  0
  9 10  2  0
  9 11  1  0
 11  1  1  0
 11  5  1  0
  6 12  1  0
M  END
> <minimizedAffinity>
-4.69312

> <CNNscore>
0.2211810201

> <CNNaffinity>
3.5442190170

> <CNN_VS>
0.7839139700

> <CNNaffinity_variance>
0.5718140006

$$$$



 21 22  0  0  0  0  0  0  0  0999 V2000
   25.0206   66.8776   11.0690 C   0  0  0  0  0  0  0  0  0  0  0  0
   25.7884   65.6376   11.6109 C   0  0  0  0  0  0  0  0  0  0  0  0
   26.1509   64.6272   10.4879 C   0  0  0  0  0  0  0  0  0  0  0  0
   24.8733   64.2102    9.7027 C   0  0  0  0  0  0  0  0  0  0  0  0
   24.2224   65.4792    9.1297 C   0  0  0  0  0  0  0  0  0  0  0  0
   22.9440   65.2675    8.5126 N   0  0  0  0  0  0  0  0  0  0  0  0
   22.1069   66.3312    8.7702 C   0  0  0  0  0  0  0  0  0  0  0  0
   21.0621   66.5987    8.2207 O   0  0  0  0  0  0  0  0  0  0  0  0
   22.8005   67.1441    9.8983 C   0  0  0  0  0  0  0  0  0  0  0  0
   22.3815   68.1507   10.4254 O   0  0  0  0  0  0  0  0  0  0  0  0
   23.9727   66.4685   10.1408 N   0  0  0  0  0  0  0  0  0  0  0  0
   22.7000   64.4754    7.9812 H   0  0  0  0  0  0  0  0  0  0  0  0
   24.9256   64.9789   12.5646 O   0  0  0  0  0  0  0  0  0  0  0  0
   25.6211   64.0722   13.4118 C   0  0  0  0  0  0  0  0  0  0  0  0
   27.1050   65.1751    9.5645 O   0  0  0  0  0  0  0  0  0  0  0  0
   28.3992   65.3601   10.1246 C   0  0  0  0  0  0  0  0  0  0  0  0
   25.1585   63.3192    8.6049 O   0  0  0  0  0  0  0  0  0  0  0  0
   24.4677   62.0810    8.6857 C   0  0  0  0  0  0  0  0  0  0  0  0
   25.9384   67.9498   10.4464 C   0  0  0  0  0  0  0  0  0  0  0  0
   25.1974   69.6863   11.8882 C   0  0  0  0  0  0  0  0  0  0  0  0
   26.3142   68.9619   11.3841 O   0  0  0  0  0  0  0  0  0  0  0  0
 20 21  1  0
 21 19  1  0
  1 19  1  0
  1  2  1  0
  2 13  1  0
 13 14  1  0
  2  3  1  0
  3 15  1  0
 15 16  1  0
  3  4  1  0
  4 17  1  0
 17 18  1  0
  4  5  1  0
  5  6  1  0
  6  7  1  0
  7  8  2  0
  7  9  1  0
  9 10  2  0
  9 11  1  0
 11  1  1  0
 11  5  1  0
  6 12  1  0
M  END
> <minimizedAffinity>
-5.27634

> <CNNscore>
0.1752326488

> <CNNaffinity>
3.7142665386

> <CNN_VS>
0.6508607864

> <CNNaffinity_variance>
0.3082303107

$$$$



 21 22  0  0  0  0  0  0  0  0999 V2000
   24.8459   63.9111   11.4476 C   0  0  0  0  0  0  0  0  0  0  0  0
   26.0888   63.2848   10.7523 C   0  0  0  0  0  0  0  0  0  0  0  0
   27.3552   64.1743   10.8877 C   0  0  0  0  0  0  0  0  0  0  0  0
   27.0670   65.6094   10.3584 C   0  0  0  0  0  0  0  0  0  0  0  0
   25.8847   66.1886   11.1517 C   0  0  0  0  0  0  0  0  0  0  0  0
   25.4011   67.4497   10.6659 N   0  0  0  0  0  0  0  0  0  0  0  0
   24.0292   67.5110   10.7789 C   0  0  0  0  0  0  0  0  0  0  0  0
   23.3244   68.4915   10.6946 O   0  0  0  0  0  0  0  0  0  0  0  0
   23.5694   66.0560   11.0725 C   0  0  0  0  0  0  0  0  0  0  0  0
   22.4298   65.6757   11.2252 O   0  0  0  0  0  0  0  0  0  0  0  0
   24.7346   65.3286   11.1225 N   0  0  0  0  0  0  0  0  0  0  0  0
   25.9685   68.1681   10.3038 H   0  0  0  0  0  0  0  0  0  0  0  0
   25.7722   63.1417    9.3498 O   0  0  0  0  0  0  0  0  0  0  0  0
   24.6045   62.3629    9.1186 C   0  0  0  0  0  0  0  0  0  0  0  0
   27.8021   64.2630   12.2499 O   0  0  0  0  0  0  0  0  0  0  0  0
   28.2794   63.0302   12.7747 C   0  0  0  0  0  0  0  0  0  0  0  0
   28.1910   66.4993   10.5175 O   0  0  0  0  0  0  0  0  0  0  0  0
   28.9496   66.6719    9.3294 C   0  0  0  0  0  0  0  0  0  0  0  0
   24.8065   63.6774   12.9718 C   0  0  0  0  0  0  0  0  0  0  0  0
   22.7836   63.7337   14.2160 C   0  0  0  0  0  0  0  0  0  0  0  0
   23.6422   62.9583   13.3866 O   0  0  0  0  0  0  0  0  0  0  0  0
 20 21  1  0
 21 19  1  0
  1 19  1  0
  1  2  1  0
  2 13  1  0
 13 14  1  0
  2  3  1  0
  3 15  1  0
 15 16  1  0
  3  4  1  0
  4 17  1  0
 17 18  1  0
  4  5  1  0
  5  6  1  0
  6  7  1  0
  7  8  2  0
  7  9  1  0
  9 10  2  0
  9 11  1  0
 11  1  1  0
 11  5  1  0
  6 12  1  0
M  END
> <minimizedAffinity>
-4.92592

> <CNNscore>
0.1722385734

> <CNNaffinity>
3.0798778534

> <CNN_VS>
0.5304737687

> <CNNaffinity_variance>
0.9002419114

$$$$



 21 22  0  0  0  0  0  0  0  0999 V2000
   25.3989   65.9734   10.1707 C   0  0  0  0  0  0  0  0  0  0  0  0
   25.8905   66.1457   11.6367 C   0  0  0  0  0  0  0  0  0  0  0  0
   27.0180   65.1427   12.0060 C   0  0  0  0  0  0  0  0  0  0  0  0
   26.5561   63.6829   11.7259 C   0  0  0  0  0  0  0  0  0  0  0  0
   26.1697   63.5745   10.2422 C   0  0  0  0  0  0  0  0  0  0  0  0
   25.5717   62.3236    9.8713 N   0  0  0  0  0  0  0  0  0  0  0  0
   24.5791   62.5266    8.9374 C   0  0  0  0  0  0  0  0  0  0  0  0
   24.0417   61.6971    8.2387 O   0  0  0  0  0  0  0  0  0  0  0  0
   24.3106   64.0572    8.9401 C   0  0  0  0  0  0  0  0  0  0  0  0
   23.4949   64.6485    8.2681 O   0  0  0  0  0  0  0  0  0  0  0  0
   25.2011   64.5628    9.8571 N   0  0  0  0  0  0  0  0  0  0  0  0
   25.8333   61.4459   10.2325 H   0  0  0  0  0  0  0  0  0  0  0  0
   24.7583   65.9076   12.5023 O   0  0  0  0  0  0  0  0  0  0  0  0
   23.6709   66.7902   12.2531 C   0  0  0  0  0  0  0  0  0  0  0  0
   28.2228   65.3981   11.2668 O   0  0  0  0  0  0  0  0  0  0  0  0
   29.0074   66.4562   11.8034 C   0  0  0  0  0  0  0  0  0  0  0  0
   27.5875   62.7102   11.9916 O   0  0  0  0  0  0  0  0  0  0  0  0
   28.1101   62.7843   13.3100 C   0  0  0  0  0  0  0  0  0  0  0  0
   26.3058   66.6608    9.1294 C   0  0  0  0  0  0  0  0  0  0  0  0
   27.8247   66.3545    7.3287 C   0  0  0  0  0  0  0  0  0  0  0  0
   26.9835   65.7237    8.2883 O   0  0  0  0  0  0  0  0  0  0  0  0
 20 21  1  0
 21 19  1  0
  1 19  1  0
  1  2  1  0
  2 13  1  0
 13 14  1  0
  2  3  1  0
  3 15  1  0
 15 16  1  0
  3  4  1  0
  4 17  1  0
 17 18  1  0
  4  5  1  0
  5  6  1  0
  6  7  1  0
  7  8  2  0
  7  9  1  0
  9 10  2  0
  9 11  1  0
 11  1  1  0
 11  5  1  0
  6 12  1  0
M  END
> <minimizedAffinity>
-5.62119

> <CNNscore>
0.1632110775

> <CNNaffinity>
3.7514030933

> <CNN_VS>
0.6122705340

> <CNNaffinity_variance>
0.2624733746

$$$$



 21 22  0  0  0  0  0  0  0  0999 V2000
   22.5496   66.6539   10.4385 C   0  0  0  0  0  0  0  0  0  0  0  0
   22.7969   67.3167   11.8242 C   0  0  0  0  0  0  0  0  0  0  0  0
   23.8195   68.4839   11.7493 C   0  0  0  0  0  0  0  0  0  0  0  0
   25.1492   67.9969   11.1032 C   0  0  0  0  0  0  0  0  0  0  0  0
   24.8316   67.4363    9.7077 C   0  0  0  0  0  0  0  0  0  0  0  0
   25.9404   66.8026    9.0528 N   0  0  0  0  0  0  0  0  0  0  0  0
   25.5106   65.7047    8.3397 C   0  0  0  0  0  0  0  0  0  0  0  0
   26.1182   65.0906    7.4920 O   0  0  0  0  0  0  0  0  0  0  0  0
   24.0601   65.4330    8.8266 C   0  0  0  0  0  0  0  0  0  0  0  0
   23.3295   64.5407    8.4570 O   0  0  0  0  0  0  0  0  0  0  0  0
   23.8122   66.4250    9.7452 N   0  0  0  0  0  0  0  0  0  0  0  0
   26.8747   67.1087    9.1055 H   0  0  0  0  0  0  0  0  0  0  0  0
   23.3227   66.2971   12.7026 O   0  0  0  0  0  0  0  0  0  0  0  0
   22.4358   65.1983   12.8749 C   0  0  0  0  0  0  0  0  0  0  0  0
   23.3115   69.5906   10.9877 O   0  0  0  0  0  0  0  0  0  0  0  0
   23.0029   70.7324   11.7776 C   0  0  0  0  0  0  0  0  0  0  0  0
   26.1162   69.0562   10.9499 O   0  0  0  0  0  0  0  0  0  0  0  0
   27.2744   68.8868   11.7541 C   0  0  0  0  0  0  0  0  0  0  0  0
   21.5517   67.4272    9.5522 C   0  0  0  0  0  0  0  0  0  0  0  0
   19.3592   66.9871   10.3537 C   0  0  0  0  0  0  0  0  0  0  0  0
   20.3299   66.7125    9.3494 O   0  0  0  0  0  0  0  0  0  0  0  0
 20 21  1  0
 21 19  1  0
  1 19  1  0
  1  2  1  0
  2 13  1  0
 13 14  1  0
  2  3  1  0
  3 15  1  0
 15 16  1  0
  3  4  1  0
  4 17  1  0
 17 18  1  0
  4  5  1  0
  5  6  1  0
  6  7  1  0
  7  8  2  0
  7  9  1  0
  9 10  2  0
  9 11  1  0
 11  1  1  0
 11  5  1  0
  6 12  1  0
M  END
> <minimizedAffinity>
-4.76573

> <CNNscore>
0.1493031532

> <CNNaffinity>
2.8885793686

> <CNN_VS>
0.4312739968

> <CNNaffinity_variance>
0.8912380338

$$$$



 21 22  0  0  0  0  0  0  0  0999 V2000
   28.2468   66.0097   10.7879 C   0  0  0  0  0  0  0  0  0  0  0  0
   27.6207   67.3541   11.2581 C   0  0  0  0  0  0  0  0  0  0  0  0
   28.0880   67.7596   12.6832 C   0  0  0  0  0  0  0  0  0  0  0  0
   27.8007   66.6110   13.6936 C   0  0  0  0  0  0  0  0  0  0  0  0
   28.5215   65.3449   13.2037 C   0  0  0  0  0  0  0  0  0  0  0  0
   28.2179   64.1583   13.9521 N   0  0  0  0  0  0  0  0  0  0  0  0
   28.1549   63.0671   13.1131 C   0  0  0  0  0  0  0  0  0  0  0  0
   28.1602   61.8969   13.4220 O   0  0  0  0  0  0  0  0  0  0  0  0
   28.1086   63.6502   11.6734 C   0  0  0  0  0  0  0  0  0  0  0  0
   28.0334   63.0208   10.6415 O   0  0  0  0  0  0  0  0  0  0  0  0
   28.1787   65.0116   11.8492 N   0  0  0  0  0  0  0  0  0  0  0  0
   28.0752   64.1284   14.9257 H   0  0  0  0  0  0  0  0  0  0  0  0
   26.1864   67.1799   11.2740 O   0  0  0  0  0  0  0  0  0  0  0  0
   25.4846   68.2846   10.7167 C   0  0  0  0  0  0  0  0  0  0  0  0
   29.4904   68.0680   12.7175 O   0  0  0  0  0  0  0  0  0  0  0  0
   29.7733   69.3866   13.1693 C   0  0  0  0  0  0  0  0  0  0  0  0
   28.2719   66.9072   15.0243 O   0  0  0  0  0  0  0  0  0  0  0  0
   29.5757   66.4094   15.2876 C   0  0  0  0  0  0  0  0  0  0  0  0
   29.6817   66.1536   10.2403 C   0  0  0  0  0  0  0  0  0  0  0  0
   29.3210   66.4022    7.9055 C   0  0  0  0  0  0  0  0  0  0  0  0
   29.8344   65.5731    8.9424 O   0  0  0  0  0  0  0  0  0  0  0  0
 20 21  1  0
 21 19  1  0
  1 19  1  0
  1  2  1  0
  2 13  1  0
 13 14  1  0
  2  3  1  0
  3 15  1  0
 15 16  1  0
  3  4  1  0
  4 17  1  0
 17 18  1  0
  4  5  1  0
  5  6  1  0
  6  7  1  0
  7  8  2  0
  7  9  1  0
  9 10  2  0
  9 11  1  0
 11  1  1  0
 11  5  1  0
  6 12  1  0
M  END
> <minimizedAffinity>
-5.04806

> <CNNscore>
0.1364267021

> <CNNaffinity>
3.0738067627

> <CNN_VS>
0.4193493128

> <CNNaffinity_variance>
1.3924211264

$$$$



 21 22  0  0  0  0  0  0  0  0999 V2000
   25.2100   63.9479   12.2041 C   0  0  0  0  0  0  0  0  0  0  0  0
   26.2861   64.8231   12.9088 C   0  0  0  0  0  0  0  0  0  0  0  0
   26.2350   66.3074   12.4528 C   0  0  0  0  0  0  0  0  0  0  0  0
   26.3473   66.4010   10.9031 C   0  0  0  0  0  0  0  0  0  0  0  0
   25.2024   65.5825   10.2853 C   0  0  0  0  0  0  0  0  0  0  0  0
   25.2698   65.4452    8.8582 N   0  0  0  0  0  0  0  0  0  0  0  0
   24.8460   64.1903    8.4782 C   0  0  0  0  0  0  0  0  0  0  0  0
   24.5476   63.8170    7.3662 O   0  0  0  0  0  0  0  0  0  0  0  0
   24.7966   63.3530    9.7863 C   0  0  0  0  0  0  0  0  0  0  0  0
   24.4867   62.1865    9.8857 O   0  0  0  0  0  0  0  0  0  0  0  0
   25.1716   64.2322   10.7741 N   0  0  0  0  0  0  0  0  0  0  0  0
   25.5753   66.1472    8.2392 H   0  0  0  0  0  0  0  0  0  0  0  0
   27.5790   64.2779   12.5641 O   0  0  0  0  0  0  0  0  0  0  0  0
   27.9556   63.1767   13.3822 C   0  0  0  0  0  0  0  0  0  0  0  0
   25.0215   66.9526   12.8700 O   0  0  0  0  0  0  0  0  0  0  0  0
   25.1796   67.7764   14.0186 C   0  0  0  0  0  0  0  0  0  0  0  0
   26.2423   67.7548   10.4165 O   0  0  0  0  0  0  0  0  0  0  0  0
   24.9031   68.2134   10.3016 C   0  0  0  0  0  0  0  0  0  0  0  0
   23.8087   64.0602   12.8391 C   0  0  0  0  0  0  0  0  0  0  0  0
   22.4009   63.1725   14.5341 C   0  0  0  0  0  0  0  0  0  0  0  0
   23.4730   62.9190   13.6328 O   0  0  0  0  0  0  0  0  0  0  0  0
 20 21  1  0
 21 19  1  0
  1 19  1  0
  1  2  1  0
  2 13  1  0
 13 14  1  0
  2  3  1  0
  3 15  1  0
 15 16  1  0
  3  4  1  0
  4 17  1  0
 17 18  1  0
  4  5  1  0
  5  6  1  0
  6  7  1  0
  7  8  2  0
  7  9  1  0
  9 10  2  0
  9 11  1  0
 11  1  1  0
 11  5  1  0
  6 12  1  0
M  END
> <minimizedAffinity>
-4.87678

> <CNNscore>
0.1321658045

> <CNNaffinity>
3.6094105244

> <CNN_VS>
0.4770406485

> <CNNaffinity_variance>
0.2050520182

$$$$



 21 22  0  0  0  0  0  0  0  0999 V2000
   26.2952   65.7781   10.1944 C   0  0  0  0  0  0  0  0  0  0  0  0
   27.1547   66.9721    9.6885 C   0  0  0  0  0  0  0  0  0  0  0  0
   28.5576   66.5251    9.1929 C   0  0  0  0  0  0  0  0  0  0  0  0
   29.2933   65.7221   10.3049 C   0  0  0  0  0  0  0  0  0  0  0  0
   28.4206   64.5160   10.6877 C   0  0  0  0  0  0  0  0  0  0  0  0
   28.8975   63.7690   11.8167 N   0  0  0  0  0  0  0  0  0  0  0  0
   27.8385   63.3290   12.5806 C   0  0  0  0  0  0  0  0  0  0  0  0
   27.8545   62.4870   13.4499 O   0  0  0  0  0  0  0  0  0  0  0  0
   26.6005   64.1180   12.0709 C   0  0  0  0  0  0  0  0  0  0  0  0
   25.4683   64.0361   12.4927 O   0  0  0  0  0  0  0  0  0  0  0  0
   27.0858   64.9021   11.0516 N   0  0  0  0  0  0  0  0  0  0  0  0
   29.8458   63.5957   12.0167 H   0  0  0  0  0  0  0  0  0  0  0  0
   27.3248   67.8821   10.7980 O   0  0  0  0  0  0  0  0  0  0  0  0
   26.1431   68.6112   11.1069 C   0  0  0  0  0  0  0  0  0  0  0  0
   28.4724   65.7116    8.0122 O   0  0  0  0  0  0  0  0  0  0  0  0
   28.8137   66.4035    6.8173 C   0  0  0  0  0  0  0  0  0  0  0  0
   30.5787   65.2262    9.8780 O   0  0  0  0  0  0  0  0  0  0  0  0
   31.4765   66.2509    9.4768 C   0  0  0  0  0  0  0  0  0  0  0  0
   25.6068   64.9881    9.0624 C   0  0  0  0  0  0  0  0  0  0  0  0
   24.7309   62.7823    9.1644 C   0  0  0  0  0  0  0  0  0  0  0  0
   25.9020   63.5897    9.1112 O   0  0  0  0  0  0  0  0  0  0  0  0
 20 21  1  0
 21 19  1  0
  1 19  1  0
  1  2  1  0
  2 13  1  0
 13 14  1  0
  2  3  1  0
  3 15  1  0
 15 16  1  0
  3  4  1  0
  4 17  1  0
 17 18  1  0
  4  5  1  0
  5  6  1  0
  6  7  1  0
  7  8  2  0
  7  9  1  0
  9 10  2  0
  9 11  1  0
 11  1  1  0
 11  5  1  0
  6 12  1  0
M  END
> <minimizedAffinity>
-6.20629

> <CNNscore>
0.1138059273

> <CNNaffinity>
3.5312633514

> <CNN_VS>
0.4018787146

> <CNNaffinity_variance>
1.0712589025

$$$$
