


 52 54  0  0  0  0  0  0  0  0999 V2000
    8.2137   28.8944    5.1136 C   0  0  0  0  0  0  0  0  0  0  0  0
    8.4374   29.2245    7.5299 N   0  0  0  0  0  0  0  0  0  0  0  0
    7.6762   28.6236    6.5322 C   0  0  0  0  0  0  0  0  0  0  0  0
    6.7433   27.8611    6.7786 O   0  0  0  0  0  0  0  0  0  0  0  0
    9.1834   29.8241    7.2995 H   0  0  0  0  0  0  0  0  0  0  0  0
    8.1062   28.9468    8.9330 C   0  0  0  0  0  0  0  0  0  0  0  0
    6.8026   29.6845    9.3266 C   0  0  0  0  0  0  0  0  0  0  0  0
    5.8249   28.8997    9.8653 N   0  0  0  0  0  0  0  0  0  0  0  0
    6.5978   30.8682    9.0652 O   0  0  0  0  0  0  0  0  0  0  0  0
    6.0085   27.9539   10.0676 H   0  0  0  0  0  0  0  0  0  0  0  0
    4.9358   29.2793   10.0516 H   0  0  0  0  0  0  0  0  0  0  0  0
    9.2838   29.3536    9.8438 C   0  0  0  0  0  0  0  0  0  0  0  0
    8.9848   29.7176   11.3181 C   0  0  0  0  0  0  0  0  0  0  0  0
   10.2177   29.7597   12.2298 C   0  0  0  0  0  0  0  0  0  0  0  0
   10.2072   28.7152   13.3805 N   0  0  0  0  0  0  0  0  0  0  0  0
   10.6514   29.2768   14.7096 C   0  0  0  0  0  0  0  0  0  0  0  0
   11.2709   27.6340   12.9815 C   0  0  0  0  0  0  0  0  0  0  0  0
    8.8880   27.9507   13.3884 C   0  0  0  0  0  0  0  0  0  0  0  0
    8.4505   27.3346   15.7167 C   0  0  0  0  0  0  0  0  0  0  0  0
    7.8761   28.1279   14.5126 N   0  0  0  0  0  0  0  0  0  0  0  0
    7.7623   29.5741   14.9900 C   0  0  0  0  0  0  0  0  0  0  0  0
    6.4996   27.5545   14.2609 C   0  0  0  0  0  0  0  0  0  0  0  0
    7.7310   27.7933    4.2909 N   0  0  0  0  0  0  0  0  0  0  0  0
    8.5471   26.7025    4.0413 C   0  0  0  0  0  0  0  0  0  0  0  0
    9.7268   26.6713    4.3951 O   0  0  0  0  0  0  0  0  0  0  0  0
    6.8231   27.8246    3.9115 H   0  0  0  0  0  0  0  0  0  0  0  0
    7.8115   25.5740    3.3581 C   0  0  0  0  0  0  0  0  0  0  0  0
    7.9966   24.2165    4.0350 C   0  0  0  0  0  0  0  0  0  0  0  0
    6.7759   23.9149    4.8730 C   0  0  0  0  0  0  0  0  0  0  0  0
    5.5345   24.4832    4.5475 C   0  0  0  0  0  0  0  0  0  0  0  0
    4.3716   24.0923    5.2185 C   0  0  0  0  0  0  0  0  0  0  0  0
    4.4293   23.1179    6.2227 C   0  0  0  0  0  0  0  0  0  0  0  0
    5.6764   22.5925    6.5881 C   0  0  0  0  0  0  0  0  0  0  0  0
    6.8384   22.9846    5.9160 C   0  0  0  0  0  0  0  0  0  0  0  0
    3.1991   22.6292    6.8459 C   0  0  0  0  0  0  0  0  0  0  0  0
    1.8880   22.9346    6.5380 C   0  0  0  0  0  0  0  0  0  0  0  0
    0.9433   22.2566    7.3738 C   0  0  0  0  0  0  0  0  0  0  0  0
    1.5859   21.4184    8.2632 C   0  0  0  0  0  0  0  0  0  0  0  0
    3.2868   21.4703    8.1054 S   0  0  0  0  0  0  0  0  0  0  0  0
   -0.5126   22.3421    7.3277 C   0  0  0  0  0  0  0  0  0  0  0  0
   -1.2926   21.2423    7.7001 C   0  0  0  0  0  0  0  0  0  0  0  0
   -2.6859   21.3220    7.6664 C   0  0  0  0  0  0  0  0  0  0  0  0
   -3.3085   22.4968    7.2559 C   0  0  0  0  0  0  0  0  0  0  0  0
   -2.5428   23.5975    6.8849 C   0  0  0  0  0  0  0  0  0  0  0  0
   -1.1502   23.5216    6.9193 C   0  0  0  0  0  0  0  0  0  0  0  0
    7.7271   30.2393    4.5701 C   0  0  0  0  0  0  0  0  0  0  0  0
    8.7839   31.3350    4.6970 C   0  0  0  0  0  0  0  0  0  0  0  0
    8.3034   32.5279    5.4921 C   0  0  0  0  0  0  0  0  0  0  0  0
    8.3533   32.3832    6.8464 N   0  0  0  0  0  0  0  0  0  0  0  0
    7.8934   33.5626    4.9667 O   0  0  0  0  0  0  0  0  0  0  0  0
    8.6860   31.5442    7.2398 H   0  0  0  0  0  0  0  0  0  0  0  0
    8.0568   33.1175    7.4312 H   0  0  0  0  0  0  0  0  0  0  0  0
 19 20  1  0
 20 21  1  0
 20 22  1  0
 20 18  1  0
 18 15  1  0
 15 16  1  0
 15 17  1  0
 15 14  1  0
 14 13  1  0
 13 12  1  0
  6 12  1  0
  6  2  1  0
  2  3  1  0
  3  4  2  0
  3  1  1  0
  1 46  1  0
 46 47  1  0
 47 48  1  0
 48 49  1  0
 48 50  2  0
  1 23  1  0
 23 24  1  0
 24 25  2  0
 24 27  1  0
 27 28  1  0
 28 29  1  0
 29 30  2  0
 30 31  1  0
 31 32  2  0
 32 35  1  0
 35 36  2  0
 36 37  1  0
 37 40  1  0
 40 41  2  0
 41 42  1  0
 42 43  2  0
 43 44  1  0
 44 45  2  0
 37 38  2  0
 38 39  1  0
 32 33  1  0
 33 34  2  0
  6  7  1  0
  7  8  1  0
  7  9  2  0
 34 29  1  0
 39 35  1  0
 45 40  1  0
  2  5  1  0
 49 51  1  0
 49 52  1  0
 23 26  1  0
  8 10  1  0
  8 11  1  0
M  CHG 1  15   1
M  CHG 1  20   1
M  END
> <minimizedAffinity>
-8.65057

> <CNNscore>
0.8772617579

> <CNNaffinity>
8.2844238281

> <CNN_VS>
7.2676081657

> <CNNaffinity_variance>
0.5699246526

$$$$



 52 54  0  0  0  0  0  0  0  0999 V2000
    7.9522   28.7354    5.9319 C   0  0  0  0  0  0  0  0  0  0  0  0
    8.5119   29.6727    8.1240 N   0  0  0  0  0  0  0  0  0  0  0  0
    7.5108   29.0680    7.3704 C   0  0  0  0  0  0  0  0  0  0  0  0
    6.4298   28.7328    7.8514 O   0  0  0  0  0  0  0  0  0  0  0  0
    9.3700   29.9220    7.7108 H   0  0  0  0  0  0  0  0  0  0  0  0
    8.2635   29.9319    9.5476 C   0  0  0  0  0  0  0  0  0  0  0  0
    8.9139   31.2743    9.9641 C   0  0  0  0  0  0  0  0  0  0  0  0
    9.8949   31.1823   10.9082 N   0  0  0  0  0  0  0  0  0  0  0  0
    8.5039   32.3662    9.5756 O   0  0  0  0  0  0  0  0  0  0  0  0
   10.2099   30.2984   11.2063 H   0  0  0  0  0  0  0  0  0  0  0  0
   10.2877   31.9997   11.2912 H   0  0  0  0  0  0  0  0  0  0  0  0
    8.7936   28.7583   10.3982 C   0  0  0  0  0  0  0  0  0  0  0  0
    7.8043   28.0144   11.3272 C   0  0  0  0  0  0  0  0  0  0  0  0
    8.4639   27.0697   12.3399 C   0  0  0  0  0  0  0  0  0  0  0  0
    8.4280   27.5708   13.8105 N   0  0  0  0  0  0  0  0  0  0  0  0
    8.0671   29.0309   13.9420 C   0  0  0  0  0  0  0  0  0  0  0  0
    9.8967   27.4306   14.3423 C   0  0  0  0  0  0  0  0  0  0  0  0
    7.6270   26.6064   14.6782 C   0  0  0  0  0  0  0  0  0  0  0  0
    5.6620   26.0018   16.0068 C   0  0  0  0  0  0  0  0  0  0  0  0
    6.7299   27.1092   15.8014 N   0  0  0  0  0  0  0  0  0  0  0  0
    7.4587   27.2303   17.1379 C   0  0  0  0  0  0  0  0  0  0  0  0
    5.9576   28.3774   15.5145 C   0  0  0  0  0  0  0  0  0  0  0  0
    7.7773   27.2963    5.7874 N   0  0  0  0  0  0  0  0  0  0  0  0
    8.7187   26.5473    5.1011 C   0  0  0  0  0  0  0  0  0  0  0  0
    9.6575   27.0681    4.4967 O   0  0  0  0  0  0  0  0  0  0  0  0
    6.9886   26.8555    6.1782 H   0  0  0  0  0  0  0  0  0  0  0  0
    8.4862   25.0610    5.2370 C   0  0  0  0  0  0  0  0  0  0  0  0
    7.6457   24.4616    4.1104 C   0  0  0  0  0  0  0  0  0  0  0  0
    6.3786   23.8837    4.6968 C   0  0  0  0  0  0  0  0  0  0  0  0
    6.4324   22.7498    5.5223 C   0  0  0  0  0  0  0  0  0  0  0  0
    5.2911   22.2995    6.1932 C   0  0  0  0  0  0  0  0  0  0  0  0
    4.0760   22.9821    6.0564 C   0  0  0  0  0  0  0  0  0  0  0  0
    4.0078   24.0794    5.1870 C   0  0  0  0  0  0  0  0  0  0  0  0
    5.1501   24.5285    4.5168 C   0  0  0  0  0  0  0  0  0  0  0  0
    2.9116   22.5776    6.8445 C   0  0  0  0  0  0  0  0  0  0  0  0
    1.5707   22.7679    6.5747 C   0  0  0  0  0  0  0  0  0  0  0  0
    0.7132   22.2299    7.5876 C   0  0  0  0  0  0  0  0  0  0  0  0
    1.4493   21.6049    8.5745 C   0  0  0  0  0  0  0  0  0  0  0  0
    3.1330   21.6892    8.2932 S   0  0  0  0  0  0  0  0  0  0  0  0
   -0.7453   22.2500    7.6261 C   0  0  0  0  0  0  0  0  0  0  0  0
   -1.4442   23.3733    7.1716 C   0  0  0  0  0  0  0  0  0  0  0  0
   -2.8398   23.3939    7.1978 C   0  0  0  0  0  0  0  0  0  0  0  0
   -3.5455   22.2969    7.6826 C   0  0  0  0  0  0  0  0  0  0  0  0
   -2.8610   21.1736    8.1357 C   0  0  0  0  0  0  0  0  0  0  0  0
   -1.4662   21.1492    8.1089 C   0  0  0  0  0  0  0  0  0  0  0  0
    7.1232   29.4954    4.8945 C   0  0  0  0  0  0  0  0  0  0  0  0
    7.9646   30.4816    4.0865 C   0  0  0  0  0  0  0  0  0  0  0  0
    7.9275   30.2081    2.5999 C   0  0  0  0  0  0  0  0  0  0  0  0
    6.7342   29.7563    2.1209 N   0  0  0  0  0  0  0  0  0  0  0  0
    8.8984   30.3770    1.8627 O   0  0  0  0  0  0  0  0  0  0  0  0
    5.9738   29.6302    2.7334 H   0  0  0  0  0  0  0  0  0  0  0  0
    6.6326   29.5559    1.1624 H   0  0  0  0  0  0  0  0  0  0  0  0
 19 20  1  0
 20 21  1  0
 20 22  1  0
 20 18  1  0
 18 15  1  0
 15 16  1  0
 15 17  1  0
 15 14  1  0
 14 13  1  0
 13 12  1  0
  6 12  1  0
  6  2  1  0
  2  3  1  0
  3  4  2  0
  3  1  1  0
  1 46  1  0
 46 47  1  0
 47 48  1  0
 48 49  1  0
 48 50  2  0
  1 23  1  0
 23 24  1  0
 24 25  2  0
 24 27  1  0
 27 28  1  0
 28 29  1  0
 29 30  2  0
 30 31  1  0
 31 32  2  0
 32 35  1  0
 35 36  2  0
 36 37  1  0
 37 40  1  0
 40 41  2  0
 41 42  1  0
 42 43  2  0
 43 44  1  0
 44 45  2  0
 37 38  2  0
 38 39  1  0
 32 33  1  0
 33 34  2  0
  6  7  1  0
  7  8  1  0
  7  9  2  0
 34 29  1  0
 39 35  1  0
 45 40  1  0
  2  5  1  0
 49 51  1  0
 49 52  1  0
 23 26  1  0
  8 10  1  0
  8 11  1  0
M  CHG 1  15   1
M  CHG 1  20   1
M  END
> <minimizedAffinity>
-8.85369

> <CNNscore>
0.8621112704

> <CNNaffinity>
8.4839849472

> <CNN_VS>
7.3141388893

> <CNNaffinity_variance>
0.3641396463

$$$$



 52 54  0  0  0  0  0  0  0  0999 V2000
    7.5779   24.7452    3.3159 C   0  0  0  0  0  0  0  0  0  0  0  0
    7.9067   26.8376    4.5452 N   0  0  0  0  0  0  0  0  0  0  0  0
    8.4759   25.6099    4.2218 C   0  0  0  0  0  0  0  0  0  0  0  0
    9.6261   25.3090    4.5363 O   0  0  0  0  0  0  0  0  0  0  0  0
    6.9854   27.0514    4.2716 H   0  0  0  0  0  0  0  0  0  0  0  0
    8.7069   27.8081    5.3024 C   0  0  0  0  0  0  0  0  0  0  0  0
    7.9126   28.3030    6.5364 C   0  0  0  0  0  0  0  0  0  0  0  0
    8.6612   28.8712    7.5259 N   0  0  0  0  0  0  0  0  0  0  0  0
    6.7104   28.0949    6.6867 O   0  0  0  0  0  0  0  0  0  0  0  0
    9.6227   29.0298    7.3862 H   0  0  0  0  0  0  0  0  0  0  0  0
    8.2396   29.1226    8.3793 H   0  0  0  0  0  0  0  0  0  0  0  0
    9.1194   28.9805    4.3875 C   0  0  0  0  0  0  0  0  0  0  0  0
    8.1909   30.2161    4.3074 C   0  0  0  0  0  0  0  0  0  0  0  0
    8.3981   31.0933    3.0662 C   0  0  0  0  0  0  0  0  0  0  0  0
    7.9810   32.5793    3.2474 N   0  0  0  0  0  0  0  0  0  0  0  0
    6.9643   32.7916    4.3431 C   0  0  0  0  0  0  0  0  0  0  0  0
    7.2763   32.9884    1.9074 C   0  0  0  0  0  0  0  0  0  0  0  0
    9.2159   33.4719    3.3032 C   0  0  0  0  0  0  0  0  0  0  0  0
   11.4367   34.2512    2.6303 C   0  0  0  0  0  0  0  0  0  0  0  0
   10.5745   32.9756    2.8267 N   0  0  0  0  0  0  0  0  0  0  0  0
   11.3067   32.1423    3.8764 C   0  0  0  0  0  0  0  0  0  0  0  0
   10.5882   32.2605    1.4943 C   0  0  0  0  0  0  0  0  0  0  0  0
    6.3205   24.5921    4.0356 N   0  0  0  0  0  0  0  0  0  0  0  0
    6.1285   23.5085    4.8764 C   0  0  0  0  0  0  0  0  0  0  0  0
    6.9440   22.5887    4.9578 O   0  0  0  0  0  0  0  0  0  0  0  0
    5.6061   25.2602    3.9241 H   0  0  0  0  0  0  0  0  0  0  0  0
    4.8645   23.6282    5.6948 C   0  0  0  0  0  0  0  0  0  0  0  0
    4.4962   22.3535    6.4528 C   0  0  0  0  0  0  0  0  0  0  0  0
    2.9941   22.2882    6.6036 C   0  0  0  0  0  0  0  0  0  0  0  0
    2.4140   21.4430    7.5623 C   0  0  0  0  0  0  0  0  0  0  0  0
    1.0397   21.4880    7.8167 C   0  0  0  0  0  0  0  0  0  0  0  0
    0.2218   22.3872    7.1211 C   0  0  0  0  0  0  0  0  0  0  0  0
    0.7908   23.1901    6.1231 C   0  0  0  0  0  0  0  0  0  0  0  0
    2.1653   23.1438    5.8699 C   0  0  0  0  0  0  0  0  0  0  0  0
   -1.1945   22.5122    7.4661 C   0  0  0  0  0  0  0  0  0  0  0  0
   -2.0496   21.5612    7.9870 C   0  0  0  0  0  0  0  0  0  0  0  0
   -3.3776   22.0550    8.1949 C   0  0  0  0  0  0  0  0  0  0  0  0
   -3.4634   23.3920    7.8608 C   0  0  0  0  0  0  0  0  0  0  0  0
   -1.9821   24.0240    7.2886 S   0  0  0  0  0  0  0  0  0  0  0  0
   -4.5265   21.3306    8.7281 C   0  0  0  0  0  0  0  0  0  0  0  0
   -4.4544   19.9476    8.9257 C   0  0  0  0  0  0  0  0  0  0  0  0
   -5.5476   19.2514    9.4442 C   0  0  0  0  0  0  0  0  0  0  0  0
   -6.7202   19.9295    9.7629 C   0  0  0  0  0  0  0  0  0  0  0  0
   -6.8027   21.3051    9.5721 C   0  0  0  0  0  0  0  0  0  0  0  0
   -5.7112   22.0041    9.0560 C   0  0  0  0  0  0  0  0  0  0  0  0
    7.3525   25.3987    1.9510 C   0  0  0  0  0  0  0  0  0  0  0  0
    8.6637   25.7420    1.2465 C   0  0  0  0  0  0  0  0  0  0  0  0
    9.1165   24.6649    0.2867 C   0  0  0  0  0  0  0  0  0  0  0  0
   10.2587   24.9427   -0.4030 N   0  0  0  0  0  0  0  0  0  0  0  0
    8.5065   23.6077    0.1293 O   0  0  0  0  0  0  0  0  0  0  0  0
   10.7263   25.7967   -0.2573 H   0  0  0  0  0  0  0  0  0  0  0  0
   10.6160   24.2894   -1.0470 H   0  0  0  0  0  0  0  0  0  0  0  0
 19 20  1  0
 20 21  1  0
 20 22  1  0
 20 18  1  0
 18 15  1  0
 15 16  1  0
 15 17  1  0
 15 14  1  0
 14 13  1  0
 13 12  1  0
  6 12  1  0
  6  2  1  0
  2  3  1  0
  3  4  2  0
  3  1  1  0
  1 46  1  0
 46 47  1  0
 47 48  1  0
 48 49  1  0
 48 50  2  0
  1 23  1  0
 23 24  1  0
 24 25  2  0
 24 27  1  0
 27 28  1  0
 28 29  1  0
 29 30  2  0
 30 31  1  0
 31 32  2  0
 32 35  1  0
 35 36  2  0
 36 37  1  0
 37 40  1  0
 40 41  2  0
 41 42  1  0
 42 43  2  0
 43 44  1  0
 44 45  2  0
 37 38  2  0
 38 39  1  0
 32 33  1  0
 33 34  2  0
  6  7  1  0
  7  8  1  0
  7  9  2  0
 34 29  1  0
 39 35  1  0
 45 40  1  0
  2  5  1  0
 49 51  1  0
 49 52  1  0
 23 26  1  0
  8 10  1  0
  8 11  1  0
M  CHG 1  15   1
M  CHG 1  20   1
M  END
> <minimizedAffinity>
-9.54036

> <CNNscore>
0.7562888265

> <CNNaffinity>
8.1692476273

> <CNN_VS>
6.1783108711

> <CNNaffinity_variance>
0.2279835492

$$$$



 52 54  0  0  0  0  0  0  0  0999 V2000
    8.8335   27.8553    5.4076 C   0  0  0  0  0  0  0  0  0  0  0  0
    8.4635   29.7019    6.9731 N   0  0  0  0  0  0  0  0  0  0  0  0
    7.8402   28.7780    6.1402 C   0  0  0  0  0  0  0  0  0  0  0  0
    6.6184   28.6453    6.0941 O   0  0  0  0  0  0  0  0  0  0  0  0
    9.4448   29.7780    6.9926 H   0  0  0  0  0  0  0  0  0  0  0  0
    7.6290   30.5611    7.8221 C   0  0  0  0  0  0  0  0  0  0  0  0
    8.3513   31.9046    8.0901 C   0  0  0  0  0  0  0  0  0  0  0  0
    8.3891   32.7702    7.0359 N   0  0  0  0  0  0  0  0  0  0  0  0
    8.9613   32.1411    9.1309 O   0  0  0  0  0  0  0  0  0  0  0  0
    7.8937   32.5629    6.2107 H   0  0  0  0  0  0  0  0  0  0  0  0
    8.9117   33.6021    7.1004 H   0  0  0  0  0  0  0  0  0  0  0  0
    7.2864   29.8305    9.1376 C   0  0  0  0  0  0  0  0  0  0  0  0
    8.2286   28.7024    9.6222 C   0  0  0  0  0  0  0  0  0  0  0  0
    9.0896   29.0657   10.8387 C   0  0  0  0  0  0  0  0  0  0  0  0
    8.6602   28.3769   12.1639 N   0  0  0  0  0  0  0  0  0  0  0  0
    8.6867   26.8689   12.0966 C   0  0  0  0  0  0  0  0  0  0  0  0
    7.1613   28.7816   12.3858 C   0  0  0  0  0  0  0  0  0  0  0  0
    9.3911   29.0034   13.3463 C   0  0  0  0  0  0  0  0  0  0  0  0
   11.4031   27.6659   13.7403 C   0  0  0  0  0  0  0  0  0  0  0  0
   10.0806   28.1437   14.3974 N   0  0  0  0  0  0  0  0  0  0  0  0
   10.4990   28.9354   15.6345 C   0  0  0  0  0  0  0  0  0  0  0  0
    9.3479   26.8865   14.8090 C   0  0  0  0  0  0  0  0  0  0  0  0
    8.2340   26.5278    5.4346 N   0  0  0  0  0  0  0  0  0  0  0  0
    8.9206   25.4444    4.9124 C   0  0  0  0  0  0  0  0  0  0  0  0
    9.9881   25.5723    4.3108 O   0  0  0  0  0  0  0  0  0  0  0  0
    7.3390   26.4007    5.8248 H   0  0  0  0  0  0  0  0  0  0  0  0
    8.2447   24.1288    5.2191 C   0  0  0  0  0  0  0  0  0  0  0  0
    7.0508   23.8222    4.3159 C   0  0  0  0  0  0  0  0  0  0  0  0
    5.8421   23.5407    5.1779 C   0  0  0  0  0  0  0  0  0  0  0  0
    4.6130   24.1584    4.8989 C   0  0  0  0  0  0  0  0  0  0  0  0
    3.4548   23.7898    5.5903 C   0  0  0  0  0  0  0  0  0  0  0  0
    3.5045   22.7890    6.5687 C   0  0  0  0  0  0  0  0  0  0  0  0
    4.7417   22.2130    6.8884 C   0  0  0  0  0  0  0  0  0  0  0  0
    5.8991   22.5827    6.1960 C   0  0  0  0  0  0  0  0  0  0  0  0
    2.2745   22.3262    7.2117 C   0  0  0  0  0  0  0  0  0  0  0  0
    0.9711   22.7180    6.9781 C   0  0  0  0  0  0  0  0  0  0  0  0
    0.0238   22.0384    7.8096 C   0  0  0  0  0  0  0  0  0  0  0  0
    0.6537   21.1134    8.6186 C   0  0  0  0  0  0  0  0  0  0  0  0
    2.3476   21.0871    8.3933 S   0  0  0  0  0  0  0  0  0  0  0  0
   -1.4260   22.2019    7.8297 C   0  0  0  0  0  0  0  0  0  0  0  0
   -2.2599   21.0982    7.6219 C   0  0  0  0  0  0  0  0  0  0  0  0
   -3.6476   21.2477    7.6491 C   0  0  0  0  0  0  0  0  0  0  0  0
   -4.2108   22.4994    7.8781 C   0  0  0  0  0  0  0  0  0  0  0  0
   -3.3912   23.6038    8.0877 C   0  0  0  0  0  0  0  0  0  0  0  0
   -2.0040   23.4573    8.0630 C   0  0  0  0  0  0  0  0  0  0  0  0
    9.0808   28.3161    3.9698 C   0  0  0  0  0  0  0  0  0  0  0  0
    7.9353   29.1684    3.4268 C   0  0  0  0  0  0  0  0  0  0  0  0
    7.9608   29.2992    1.9206 C   0  0  0  0  0  0  0  0  0  0  0  0
    7.1204   28.4621    1.2494 N   0  0  0  0  0  0  0  0  0  0  0  0
    8.6843   30.1002    1.3294 O   0  0  0  0  0  0  0  0  0  0  0  0
    6.5525   27.8311    1.7480 H   0  0  0  0  0  0  0  0  0  0  0  0
    7.0811   28.4886    0.2661 H   0  0  0  0  0  0  0  0  0  0  0  0
 19 20  1  0
 20 21  1  0
 20 22  1  0
 20 18  1  0
 18 15  1  0
 15 16  1  0
 15 17  1  0
 15 14  1  0
 14 13  1  0
 13 12  1  0
  6 12  1  0
  6  2  1  0
  2  3  1  0
  3  4  2  0
  3  1  1  0
  1 46  1  0
 46 47  1  0
 47 48  1  0
 48 49  1  0
 48 50  2  0
  1 23  1  0
 23 24  1  0
 24 25  2  0
 24 27  1  0
 27 28  1  0
 28 29  1  0
 29 30  2  0
 30 31  1  0
 31 32  2  0
 32 35  1  0
 35 36  2  0
 36 37  1  0
 37 40  1  0
 40 41  2  0
 41 42  1  0
 42 43  2  0
 43 44  1  0
 44 45  2  0
 37 38  2  0
 38 39  1  0
 32 33  1  0
 33 34  2  0
  6  7  1  0
  7  8  1  0
  7  9  2  0
 34 29  1  0
 39 35  1  0
 45 40  1  0
  2  5  1  0
 49 51  1  0
 49 52  1  0
 23 26  1  0
  8 10  1  0
  8 11  1  0
M  CHG 1  15   1
M  CHG 1  20   1
M  END
> <minimizedAffinity>
-8.96291

> <CNNscore>
0.7525905371

> <CNNaffinity>
8.3354272842

> <CNN_VS>
6.2731637955

> <CNNaffinity_variance>
0.3565853834

$$$$



 52 54  0  0  0  0  0  0  0  0999 V2000
    9.1238   25.7899    3.4522 C   0  0  0  0  0  0  0  0  0  0  0  0
    8.6755   28.1962    3.5325 N   0  0  0  0  0  0  0  0  0  0  0  0
    9.1939   27.1142    4.2371 C   0  0  0  0  0  0  0  0  0  0  0  0
    9.7541   27.2384    5.3249 O   0  0  0  0  0  0  0  0  0  0  0  0
    8.2397   28.0643    2.6597 H   0  0  0  0  0  0  0  0  0  0  0  0
    8.7911   29.5383    4.1163 C   0  0  0  0  0  0  0  0  0  0  0  0
    7.9842   29.6144    5.4360 C   0  0  0  0  0  0  0  0  0  0  0  0
    8.6609   30.1186    6.5084 N   0  0  0  0  0  0  0  0  0  0  0  0
    6.8552   29.1437    5.5588 O   0  0  0  0  0  0  0  0  0  0  0  0
    9.5643   30.4913    6.3895 H   0  0  0  0  0  0  0  0  0  0  0  0
    8.2456   30.1096    7.4010 H   0  0  0  0  0  0  0  0  0  0  0  0
    8.3159   30.5985    3.1005 C   0  0  0  0  0  0  0  0  0  0  0  0
    6.8992   31.1985    3.2683 C   0  0  0  0  0  0  0  0  0  0  0  0
    6.6719   32.5211    2.5252 C   0  0  0  0  0  0  0  0  0  0  0  0
    6.9184   33.7946    3.3812 N   0  0  0  0  0  0  0  0  0  0  0  0
    6.5068   33.6400    4.8255 C   0  0  0  0  0  0  0  0  0  0  0  0
    5.9870   34.9006    2.7738 C   0  0  0  0  0  0  0  0  0  0  0  0
    8.3274   34.3264    3.1438 C   0  0  0  0  0  0  0  0  0  0  0  0
   10.6443   34.9379    3.6441 C   0  0  0  0  0  0  0  0  0  0  0  0
    9.2849   34.5779    4.3010 N   0  0  0  0  0  0  0  0  0  0  0  0
    8.8994   35.7939    5.1406 C   0  0  0  0  0  0  0  0  0  0  0  0
    9.5630   33.3937    5.1996 C   0  0  0  0  0  0  0  0  0  0  0  0
    7.9843   25.0657    3.9995 N   0  0  0  0  0  0  0  0  0  0  0  0
    8.1811   23.8875    4.7003 C   0  0  0  0  0  0  0  0  0  0  0  0
    9.2875   23.3523    4.7861 O   0  0  0  0  0  0  0  0  0  0  0  0
    7.0727   25.4144    3.8708 H   0  0  0  0  0  0  0  0  0  0  0  0
    6.9203   23.3959    5.3712 C   0  0  0  0  0  0  0  0  0  0  0  0
    5.7097   24.3021    5.1511 C   0  0  0  0  0  0  0  0  0  0  0  0
    4.4658   23.5822    5.6175 C   0  0  0  0  0  0  0  0  0  0  0  0
    4.5455   22.6110    6.6278 C   0  0  0  0  0  0  0  0  0  0  0  0
    3.3864   22.0512    7.1741 C   0  0  0  0  0  0  0  0  0  0  0  0
    2.1248   22.4603    6.7244 C   0  0  0  0  0  0  0  0  0  0  0  0
    2.0455   23.3869    5.6757 C   0  0  0  0  0  0  0  0  0  0  0  0
    3.2057   23.9458    5.1304 C   0  0  0  0  0  0  0  0  0  0  0  0
    0.9135   21.9575    7.3727 C   0  0  0  0  0  0  0  0  0  0  0  0
   -0.3671   22.4735    7.3418 C   0  0  0  0  0  0  0  0  0  0  0  0
   -1.3011   21.7017    8.1052 C   0  0  0  0  0  0  0  0  0  0  0  0
   -0.6900   20.5914    8.6534 C   0  0  0  0  0  0  0  0  0  0  0  0
    0.9737   20.5006    8.2732 S   0  0  0  0  0  0  0  0  0  0  0  0
   -2.7265   21.9525    8.2900 C   0  0  0  0  0  0  0  0  0  0  0  0
   -3.2149   23.2634    8.2874 C   0  0  0  0  0  0  0  0  0  0  0  0
   -4.5790   23.5081    8.4547 C   0  0  0  0  0  0  0  0  0  0  0  0
   -5.4624   22.4476    8.6310 C   0  0  0  0  0  0  0  0  0  0  0  0
   -4.9882   21.1396    8.6336 C   0  0  0  0  0  0  0  0  0  0  0  0
   -3.6257   20.8916    8.4647 C   0  0  0  0  0  0  0  0  0  0  0  0
    8.9518   26.0291    1.9509 C   0  0  0  0  0  0  0  0  0  0  0  0
    8.2779   24.8524    1.2476 C   0  0  0  0  0  0  0  0  0  0  0  0
    8.7562   24.6633   -0.1743 C   0  0  0  0  0  0  0  0  0  0  0  0
    8.8279   25.8015   -0.9205 N   0  0  0  0  0  0  0  0  0  0  0  0
    9.0622   23.5652   -0.6382 O   0  0  0  0  0  0  0  0  0  0  0  0
    8.5769   26.6668   -0.5237 H   0  0  0  0  0  0  0  0  0  0  0  0
    9.1308   25.7584   -1.8562 H   0  0  0  0  0  0  0  0  0  0  0  0
 19 20  1  0
 20 21  1  0
 20 22  1  0
 20 18  1  0
 18 15  1  0
 15 16  1  0
 15 17  1  0
 15 14  1  0
 14 13  1  0
 13 12  1  0
  6 12  1  0
  6  2  1  0
  2  3  1  0
  3  4  2  0
  3  1  1  0
  1 46  1  0
 46 47  1  0
 47 48  1  0
 48 49  1  0
 48 50  2  0
  1 23  1  0
 23 24  1  0
 24 25  2  0
 24 27  1  0
 27 28  1  0
 28 29  1  0
 29 30  2  0
 30 31  1  0
 31 32  2  0
 32 35  1  0
 35 36  2  0
 36 37  1  0
 37 40  1  0
 40 41  2  0
 41 42  1  0
 42 43  2  0
 43 44  1  0
 44 45  2  0
 37 38  2  0
 38 39  1  0
 32 33  1  0
 33 34  2  0
  6  7  1  0
  7  8  1  0
  7  9  2  0
 34 29  1  0
 39 35  1  0
 45 40  1  0
  2  5  1  0
 49 51  1  0
 49 52  1  0
 23 26  1  0
  8 10  1  0
  8 11  1  0
M  CHG 1  15   1
M  CHG 1  20   1
M  END
> <minimizedAffinity>
-8.22994

> <CNNscore>
0.7492949963

> <CNNaffinity>
8.1480703354

> <CNN_VS>
6.1053085327

> <CNNaffinity_variance>
0.1122980118

$$$$



 52 54  0  0  0  0  0  0  0  0999 V2000
    8.8585   26.9652    2.4209 C   0  0  0  0  0  0  0  0  0  0  0  0
    9.0947   28.7054    4.1279 N   0  0  0  0  0  0  0  0  0  0  0  0
    8.5275   28.3932    2.8963 C   0  0  0  0  0  0  0  0  0  0  0  0
    7.7485   29.1467    2.3151 O   0  0  0  0  0  0  0  0  0  0  0  0
    9.7089   28.0767    4.5714 H   0  0  0  0  0  0  0  0  0  0  0  0
    8.7591   29.9907    4.7531 C   0  0  0  0  0  0  0  0  0  0  0  0
    7.4762   29.8459    5.6085 C   0  0  0  0  0  0  0  0  0  0  0  0
    7.1057   30.9609    6.3025 N   0  0  0  0  0  0  0  0  0  0  0  0
    6.8910   28.7758    5.7623 O   0  0  0  0  0  0  0  0  0  0  0  0
    7.5869   31.8087    6.1653 H   0  0  0  0  0  0  0  0  0  0  0  0
    6.3571   30.9175    6.9404 H   0  0  0  0  0  0  0  0  0  0  0  0
    8.5976   31.0783    3.6702 C   0  0  0  0  0  0  0  0  0  0  0  0
    7.7808   32.3470    4.0146 C   0  0  0  0  0  0  0  0  0  0  0  0
    6.7162   32.7244    2.9767 C   0  0  0  0  0  0  0  0  0  0  0  0
    6.9374   34.1035    2.2954 N   0  0  0  0  0  0  0  0  0  0  0  0
    8.3855   34.3991    1.9871 C   0  0  0  0  0  0  0  0  0  0  0  0
    6.4837   35.1741    3.3478 C   0  0  0  0  0  0  0  0  0  0  0  0
    5.9603   34.2846    1.1390 C   0  0  0  0  0  0  0  0  0  0  0  0
    4.5517   32.7314   -0.1241 C   0  0  0  0  0  0  0  0  0  0  0  0
    5.9738   33.3503   -0.0635 N   0  0  0  0  0  0  0  0  0  0  0  0
    6.1583   34.0865   -1.3888 C   0  0  0  0  0  0  0  0  0  0  0  0
    6.9286   32.1804    0.0176 C   0  0  0  0  0  0  0  0  0  0  0  0
    7.7273   26.1414    2.8260 N   0  0  0  0  0  0  0  0  0  0  0  0
    7.9017   25.1302    3.7560 C   0  0  0  0  0  0  0  0  0  0  0  0
    9.0143   24.8138    4.1802 O   0  0  0  0  0  0  0  0  0  0  0  0
    6.8372   26.3038    2.4378 H   0  0  0  0  0  0  0  0  0  0  0  0
    6.5922   24.5299    4.2104 C   0  0  0  0  0  0  0  0  0  0  0  0
    6.7523   23.3619    5.1827 C   0  0  0  0  0  0  0  0  0  0  0  0
    5.4281   23.1042    5.8634 C   0  0  0  0  0  0  0  0  0  0  0  0
    4.2575   23.7193    5.3926 C   0  0  0  0  0  0  0  0  0  0  0  0
    3.0077   23.3707    5.9140 C   0  0  0  0  0  0  0  0  0  0  0  0
    2.9063   22.3926    6.9111 C   0  0  0  0  0  0  0  0  0  0  0  0
    4.0792   21.8201    7.4224 C   0  0  0  0  0  0  0  0  0  0  0  0
    5.3283   22.1699    6.8999 C   0  0  0  0  0  0  0  0  0  0  0  0
    1.5920   21.9488    7.3762 C   0  0  0  0  0  0  0  0  0  0  0  0
    0.3922   22.6325    7.3724 C   0  0  0  0  0  0  0  0  0  0  0  0
   -0.6907   21.8675    7.9135 C   0  0  0  0  0  0  0  0  0  0  0  0
   -0.2697   20.6011    8.2678 C   0  0  0  0  0  0  0  0  0  0  0  0
    1.3961   20.3551    7.9751 S   0  0  0  0  0  0  0  0  0  0  0  0
   -2.0847   22.2728    8.0602 C   0  0  0  0  0  0  0  0  0  0  0  0
   -2.4422   23.6187    7.9275 C   0  0  0  0  0  0  0  0  0  0  0  0
   -3.7757   24.0104    8.0579 C   0  0  0  0  0  0  0  0  0  0  0  0
   -4.7587   23.0631    8.3270 C   0  0  0  0  0  0  0  0  0  0  0  0
   -4.4151   21.7215    8.4593 C   0  0  0  0  0  0  0  0  0  0  0  0
   -3.0835   21.3265    8.3276 C   0  0  0  0  0  0  0  0  0  0  0  0
    9.0657   26.9056    0.9062 C   0  0  0  0  0  0  0  0  0  0  0  0
    9.5494   25.5342    0.4385 C   0  0  0  0  0  0  0  0  0  0  0  0
    8.5282   24.8055   -0.4055 C   0  0  0  0  0  0  0  0  0  0  0  0
    7.6911   23.9769    0.2802 N   0  0  0  0  0  0  0  0  0  0  0  0
    8.4474   24.9412   -1.6260 O   0  0  0  0  0  0  0  0  0  0  0  0
    7.7781   23.8874    1.2567 H   0  0  0  0  0  0  0  0  0  0  0  0
    6.9993   23.4679   -0.2011 H   0  0  0  0  0  0  0  0  0  0  0  0
 19 20  1  0
 20 21  1  0
 20 22  1  0
 20 18  1  0
 18 15  1  0
 15 16  1  0
 15 17  1  0
 15 14  1  0
 14 13  1  0
 13 12  1  0
  6 12  1  0
  6  2  1  0
  2  3  1  0
  3  4  2  0
  3  1  1  0
  1 46  1  0
 46 47  1  0
 47 48  1  0
 48 49  1  0
 48 50  2  0
  1 23  1  0
 23 24  1  0
 24 25  2  0
 24 27  1  0
 27 28  1  0
 28 29  1  0
 29 30  2  0
 30 31  1  0
 31 32  2  0
 32 35  1  0
 35 36  2  0
 36 37  1  0
 37 40  1  0
 40 41  2  0
 41 42  1  0
 42 43  2  0
 43 44  1  0
 44 45  2  0
 37 38  2  0
 38 39  1  0
 32 33  1  0
 33 34  2  0
  6  7  1  0
  7  8  1  0
  7  9  2  0
 34 29  1  0
 39 35  1  0
 45 40  1  0
  2  5  1  0
 49 51  1  0
 49 52  1  0
 23 26  1  0
  8 10  1  0
  8 11  1  0
M  CHG 1  15   1
M  CHG 1  20   1
M  END
> <minimizedAffinity>
-8.34907

> <CNNscore>
0.7174552679

> <CNNaffinity>
8.0223360062

> <CNN_VS>
5.7556672096

> <CNNaffinity_variance>
0.2695504725

$$$$



 52 54  0  0  0  0  0  0  0  0999 V2000
    7.9276   25.0371    3.3616 C   0  0  0  0  0  0  0  0  0  0  0  0
    7.9889   27.3892    4.0411 N   0  0  0  0  0  0  0  0  0  0  0  0
    8.7381   26.2231    3.9195 C   0  0  0  0  0  0  0  0  0  0  0  0
    9.9497   26.1887    4.1279 O   0  0  0  0  0  0  0  0  0  0  0  0
    7.0214   27.3853    3.8592 H   0  0  0  0  0  0  0  0  0  0  0  0
    8.6695   28.6255    4.4459 C   0  0  0  0  0  0  0  0  0  0  0  0
    7.9331   29.2676    5.6476 C   0  0  0  0  0  0  0  0  0  0  0  0
    8.6631   30.1659    6.3702 N   0  0  0  0  0  0  0  0  0  0  0  0
    6.8145   28.9136    6.0144 O   0  0  0  0  0  0  0  0  0  0  0  0
    9.5572   30.4369    6.0596 H   0  0  0  0  0  0  0  0  0  0  0  0
    8.2957   30.5431    7.2020 H   0  0  0  0  0  0  0  0  0  0  0  0
    8.7550   29.5970    3.2498 C   0  0  0  0  0  0  0  0  0  0  0  0
    7.5972   30.6002    3.0298 C   0  0  0  0  0  0  0  0  0  0  0  0
    7.8608   31.6547    1.9473 C   0  0  0  0  0  0  0  0  0  0  0  0
    6.6578   32.5931    1.6518 N   0  0  0  0  0  0  0  0  0  0  0  0
    5.7090   32.0486    0.6114 C   0  0  0  0  0  0  0  0  0  0  0  0
    7.2778   33.8983    1.0424 C   0  0  0  0  0  0  0  0  0  0  0  0
    6.0195   33.0605    2.9552 C   0  0  0  0  0  0  0  0  0  0  0  0
    3.6722   32.9810    2.2653 C   0  0  0  0  0  0  0  0  0  0  0  0
    4.7333   33.8759    2.9598 N   0  0  0  0  0  0  0  0  0  0  0  0
    4.1961   34.1345    4.3658 C   0  0  0  0  0  0  0  0  0  0  0  0
    4.7641   35.1655    2.1706 C   0  0  0  0  0  0  0  0  0  0  0  0
    6.7990   24.8685    4.2672 N   0  0  0  0  0  0  0  0  0  0  0  0
    6.6053   23.6622    4.9193 C   0  0  0  0  0  0  0  0  0  0  0  0
    7.2912   22.6679    4.6767 O   0  0  0  0  0  0  0  0  0  0  0  0
    6.1728   25.6135    4.4159 H   0  0  0  0  0  0  0  0  0  0  0  0
    5.5235   23.7400    5.9706 C   0  0  0  0  0  0  0  0  0  0  0  0
    5.0780   22.3778    6.5007 C   0  0  0  0  0  0  0  0  0  0  0  0
    3.5700   22.3561    6.5937 C   0  0  0  0  0  0  0  0  0  0  0  0
    2.9310   21.5739    7.5684 C   0  0  0  0  0  0  0  0  0  0  0  0
    1.5495   21.6644    7.7645 C   0  0  0  0  0  0  0  0  0  0  0  0
    0.7830   22.5470    6.9934 C   0  0  0  0  0  0  0  0  0  0  0  0
    1.4112   23.2853    5.9810 C   0  0  0  0  0  0  0  0  0  0  0  0
    2.7930   23.1936    5.7862 C   0  0  0  0  0  0  0  0  0  0  0  0
   -0.6421   22.7230    7.2742 C   0  0  0  0  0  0  0  0  0  0  0  0
   -1.5466   21.8123    7.7835 C   0  0  0  0  0  0  0  0  0  0  0  0
   -2.8665   22.3503    7.9215 C   0  0  0  0  0  0  0  0  0  0  0  0
   -2.8976   23.6794    7.5484 C   0  0  0  0  0  0  0  0  0  0  0  0
   -1.3753   24.2516    7.0231 S   0  0  0  0  0  0  0  0  0  0  0  0
   -4.0581   21.6750    8.4245 C   0  0  0  0  0  0  0  0  0  0  0  0
   -5.2024   22.4141    8.7426 C   0  0  0  0  0  0  0  0  0  0  0  0
   -6.3480   21.7717    9.2155 C   0  0  0  0  0  0  0  0  0  0  0  0
   -6.3567   20.3899    9.3791 C   0  0  0  0  0  0  0  0  0  0  0  0
   -5.2250   19.6444    9.0643 C   0  0  0  0  0  0  0  0  0  0  0  0
   -4.0791   20.2833    8.5895 C   0  0  0  0  0  0  0  0  0  0  0  0
    7.4493   25.2997    1.9322 C   0  0  0  0  0  0  0  0  0  0  0  0
    8.5961   25.6713    0.9939 C   0  0  0  0  0  0  0  0  0  0  0  0
    8.9127   24.5848   -0.0088 C   0  0  0  0  0  0  0  0  0  0  0  0
    8.1356   23.4685    0.0778 N   0  0  0  0  0  0  0  0  0  0  0  0
    9.8061   24.6876   -0.8490 O   0  0  0  0  0  0  0  0  0  0  0  0
    7.4278   23.4131    0.7598 H   0  0  0  0  0  0  0  0  0  0  0  0
    8.2821   22.7175   -0.5417 H   0  0  0  0  0  0  0  0  0  0  0  0
 19 20  1  0
 20 21  1  0
 20 22  1  0
 20 18  1  0
 18 15  1  0
 15 16  1  0
 15 17  1  0
 15 14  1  0
 14 13  1  0
 13 12  1  0
  6 12  1  0
  6  2  1  0
  2  3  1  0
  3  4  2  0
  3  1  1  0
  1 46  1  0
 46 47  1  0
 47 48  1  0
 48 49  1  0
 48 50  2  0
  1 23  1  0
 23 24  1  0
 24 25  2  0
 24 27  1  0
 27 28  1  0
 28 29  1  0
 29 30  2  0
 30 31  1  0
 31 32  2  0
 32 35  1  0
 35 36  2  0
 36 37  1  0
 37 40  1  0
 40 41  2  0
 41 42  1  0
 42 43  2  0
 43 44  1  0
 44 45  2  0
 37 38  2  0
 38 39  1  0
 32 33  1  0
 33 34  2  0
  6  7  1  0
  7  8  1  0
  7  9  2  0
 34 29  1  0
 39 35  1  0
 45 40  1  0
  2  5  1  0
 49 51  1  0
 49 52  1  0
 23 26  1  0
  8 10  1  0
  8 11  1  0
M  CHG 1  15   1
M  CHG 1  20   1
M  END
> <minimizedAffinity>
-9.29407

> <CNNscore>
0.7153401375

> <CNNaffinity>
7.8708596230

> <CNN_VS>
5.6303420067

> <CNNaffinity_variance>
0.4445442259

$$$$



 52 54  0  0  0  0  0  0  0  0999 V2000
    7.6085   24.6816    3.3177 C   0  0  0  0  0  0  0  0  0  0  0  0
    7.9129   26.7980    4.5118 N   0  0  0  0  0  0  0  0  0  0  0  0
    8.4951   25.5705    4.2114 C   0  0  0  0  0  0  0  0  0  0  0  0
    9.6471   25.2862    4.5346 O   0  0  0  0  0  0  0  0  0  0  0  0
    6.9906   26.9980    4.2316 H   0  0  0  0  0  0  0  0  0  0  0  0
    8.7011   27.7891    5.2547 C   0  0  0  0  0  0  0  0  0  0  0  0
    7.9192   28.2591    6.5061 C   0  0  0  0  0  0  0  0  0  0  0  0
    8.6538   28.9347    7.4367 N   0  0  0  0  0  0  0  0  0  0  0  0
    6.7498   27.9470    6.7215 O   0  0  0  0  0  0  0  0  0  0  0  0
    9.5890   29.1757    7.2453 H   0  0  0  0  0  0  0  0  0  0  0  0
    8.2487   29.1811    8.2995 H   0  0  0  0  0  0  0  0  0  0  0  0
    9.0615   28.9744    4.3343 C   0  0  0  0  0  0  0  0  0  0  0  0
    7.9517   29.9899    3.9703 C   0  0  0  0  0  0  0  0  0  0  0  0
    7.4330   29.8826    2.5306 C   0  0  0  0  0  0  0  0  0  0  0  0
    7.1929   31.2470    1.8263 N   0  0  0  0  0  0  0  0  0  0  0  0
    8.1564   32.3265    2.2572 C   0  0  0  0  0  0  0  0  0  0  0  0
    5.7696   31.7174    2.2872 C   0  0  0  0  0  0  0  0  0  0  0  0
    7.0470   31.0468    0.3219 C   0  0  0  0  0  0  0  0  0  0  0  0
    7.6935   30.8482   -2.0307 C   0  0  0  0  0  0  0  0  0  0  0  0
    8.2565   31.0792   -0.6028 N   0  0  0  0  0  0  0  0  0  0  0  0
    8.9379   32.4453   -0.6459 C   0  0  0  0  0  0  0  0  0  0  0  0
    9.2855   29.9926   -0.3855 C   0  0  0  0  0  0  0  0  0  0  0  0
    6.3419   24.5480    4.0250 N   0  0  0  0  0  0  0  0  0  0  0  0
    6.1268   23.4703    4.8677 C   0  0  0  0  0  0  0  0  0  0  0  0
    6.9291   22.5399    4.9607 O   0  0  0  0  0  0  0  0  0  0  0  0
    5.6377   25.2252    3.9037 H   0  0  0  0  0  0  0  0  0  0  0  0
    4.8563   23.6099    5.6727 C   0  0  0  0  0  0  0  0  0  0  0  0
    4.4861   22.3569    6.4652 C   0  0  0  0  0  0  0  0  0  0  0  0
    2.9835   22.2939    6.6112 C   0  0  0  0  0  0  0  0  0  0  0  0
    2.3992   21.4545    7.5725 C   0  0  0  0  0  0  0  0  0  0  0  0
    1.0240   21.5023    7.8218 C   0  0  0  0  0  0  0  0  0  0  0  0
    0.2094   22.3984    7.1184 C   0  0  0  0  0  0  0  0  0  0  0  0
    0.7827   23.1953    6.1179 C   0  0  0  0  0  0  0  0  0  0  0  0
    2.1581   23.1463    5.8699 C   0  0  0  0  0  0  0  0  0  0  0  0
   -1.2079   22.5268    7.4577 C   0  0  0  0  0  0  0  0  0  0  0  0
   -2.0715   21.5730    7.9594 C   0  0  0  0  0  0  0  0  0  0  0  0
   -3.3976   22.0717    8.1678 C   0  0  0  0  0  0  0  0  0  0  0  0
   -3.4736   23.4141    7.8538 C   0  0  0  0  0  0  0  0  0  0  0  0
   -1.9855   24.0458    7.2994 S   0  0  0  0  0  0  0  0  0  0  0  0
   -4.5537   21.3461    8.6837 C   0  0  0  0  0  0  0  0  0  0  0  0
   -4.4602   19.9765    8.9527 C   0  0  0  0  0  0  0  0  0  0  0  0
   -5.5606   19.2797    9.4550 C   0  0  0  0  0  0  0  0  0  0  0  0
   -6.7615   19.9437    9.6862 C   0  0  0  0  0  0  0  0  0  0  0  0
   -6.8655   21.3059    9.4239 C   0  0  0  0  0  0  0  0  0  0  0  0
   -5.7670   22.0056    8.9237 C   0  0  0  0  0  0  0  0  0  0  0  0
    7.4009   25.2980    1.9328 C   0  0  0  0  0  0  0  0  0  0  0  0
    8.7213   25.6076    1.2298 C   0  0  0  0  0  0  0  0  0  0  0  0
    8.8852   24.8577   -0.0729 C   0  0  0  0  0  0  0  0  0  0  0  0
    9.2283   23.5445    0.0507 N   0  0  0  0  0  0  0  0  0  0  0  0
    8.7236   25.3833   -1.1739 O   0  0  0  0  0  0  0  0  0  0  0  0
    9.3512   23.1498    0.9443 H   0  0  0  0  0  0  0  0  0  0  0  0
    9.3532   22.9905   -0.7535 H   0  0  0  0  0  0  0  0  0  0  0  0
 19 20  1  0
 20 21  1  0
 20 22  1  0
 20 18  1  0
 18 15  1  0
 15 16  1  0
 15 17  1  0
 15 14  1  0
 14 13  1  0
 13 12  1  0
  6 12  1  0
  6  2  1  0
  2  3  1  0
  3  4  2  0
  3  1  1  0
  1 46  1  0
 46 47  1  0
 47 48  1  0
 48 49  1  0
 48 50  2  0
  1 23  1  0
 23 24  1  0
 24 25  2  0
 24 27  1  0
 27 28  1  0
 28 29  1  0
 29 30  2  0
 30 31  1  0
 31 32  2  0
 32 35  1  0
 35 36  2  0
 36 37  1  0
 37 40  1  0
 40 41  2  0
 41 42  1  0
 42 43  2  0
 43 44  1  0
 44 45  2  0
 37 38  2  0
 38 39  1  0
 32 33  1  0
 33 34  2  0
  6  7  1  0
  7  8  1  0
  7  9  2  0
 34 29  1  0
 39 35  1  0
 45 40  1  0
  2  5  1  0
 49 51  1  0
 49 52  1  0
 23 26  1  0
  8 10  1  0
  8 11  1  0
M  CHG 1  15   1
M  CHG 1  20   1
M  END
> <minimizedAffinity>
-9.70982

> <CNNscore>
0.6768773794

> <CNNaffinity>
8.0078754425

> <CNN_VS>
5.4203495979

> <CNNaffinity_variance>
0.8148433566

$$$$



 52 54  0  0  0  0  0  0  0  0999 V2000
    8.7549   28.5302    4.3442 C   0  0  0  0  0  0  0  0  0  0  0  0
    8.8577   30.4786    5.8244 N   0  0  0  0  0  0  0  0  0  0  0  0
    8.1787   29.8984    4.7576 C   0  0  0  0  0  0  0  0  0  0  0  0
    7.1540   30.3838    4.2811 O   0  0  0  0  0  0  0  0  0  0  0  0
    9.6713   30.0606    6.1884 H   0  0  0  0  0  0  0  0  0  0  0  0
    8.3371   31.7264    6.3967 C   0  0  0  0  0  0  0  0  0  0  0  0
    9.3778   32.8612    6.2307 C   0  0  0  0  0  0  0  0  0  0  0  0
    9.2261   33.9235    7.0737 N   0  0  0  0  0  0  0  0  0  0  0  0
   10.2113   32.8787    5.3272 O   0  0  0  0  0  0  0  0  0  0  0  0
    8.5529   33.8902    7.7913 H   0  0  0  0  0  0  0  0  0  0  0  0
    9.7898   34.7231    6.9643 H   0  0  0  0  0  0  0  0  0  0  0  0
    7.9648   31.5123    7.8790 C   0  0  0  0  0  0  0  0  0  0  0  0
    8.7680   30.4743    8.6992 C   0  0  0  0  0  0  0  0  0  0  0  0
    7.9475   29.7143    9.7490 C   0  0  0  0  0  0  0  0  0  0  0  0
    7.4801   30.5776   10.9538 N   0  0  0  0  0  0  0  0  0  0  0  0
    6.0477   31.0418   10.8440 C   0  0  0  0  0  0  0  0  0  0  0  0
    8.3663   31.8710   10.9177 C   0  0  0  0  0  0  0  0  0  0  0  0
    7.8626   29.9037   12.2669 C   0  0  0  0  0  0  0  0  0  0  0  0
    8.8567   28.2575   13.7814 C   0  0  0  0  0  0  0  0  0  0  0  0
    8.8239   28.7230   12.3011 N   0  0  0  0  0  0  0  0  0  0  0  0
    8.3213   27.5215   11.5035 C   0  0  0  0  0  0  0  0  0  0  0  0
   10.2589   29.0267   11.9333 C   0  0  0  0  0  0  0  0  0  0  0  0
    7.7384   27.5492    4.7001 N   0  0  0  0  0  0  0  0  0  0  0  0
    8.1115   26.2913    5.1433 C   0  0  0  0  0  0  0  0  0  0  0  0
    9.2852   25.9168    5.1420 O   0  0  0  0  0  0  0  0  0  0  0  0
    6.7844   27.7809    4.6253 H   0  0  0  0  0  0  0  0  0  0  0  0
    6.9415   25.4915    5.6659 C   0  0  0  0  0  0  0  0  0  0  0  0
    6.7910   24.1182    5.0127 C   0  0  0  0  0  0  0  0  0  0  0  0
    5.4848   23.5028    5.4583 C   0  0  0  0  0  0  0  0  0  0  0  0
    5.4799   22.4139    6.3440 C   0  0  0  0  0  0  0  0  0  0  0  0
    4.2811   21.9364    6.8828 C   0  0  0  0  0  0  0  0  0  0  0  0
    3.0650   22.5465    6.5509 C   0  0  0  0  0  0  0  0  0  0  0  0
    3.0633   23.5961    5.6218 C   0  0  0  0  0  0  0  0  0  0  0  0
    4.2631   24.0724    5.0839 C   0  0  0  0  0  0  0  0  0  0  0  0
    1.8256   22.1191    7.2001 C   0  0  0  0  0  0  0  0  0  0  0  0
    0.5570   22.6534    7.0890 C   0  0  0  0  0  0  0  0  0  0  0  0
   -0.4139   21.9623    7.8830 C   0  0  0  0  0  0  0  0  0  0  0  0
    0.1587   20.8893    8.5367 C   0  0  0  0  0  0  0  0  0  0  0  0
    1.8306   20.7388    8.2160 S   0  0  0  0  0  0  0  0  0  0  0  0
   -1.8388   22.2523    8.0035 C   0  0  0  0  0  0  0  0  0  0  0  0
   -2.7516   21.2131    8.2126 C   0  0  0  0  0  0  0  0  0  0  0  0
   -4.1148   21.4862    8.3378 C   0  0  0  0  0  0  0  0  0  0  0  0
   -4.5756   22.7962    8.2493 C   0  0  0  0  0  0  0  0  0  0  0  0
   -3.6769   23.8379    8.0431 C   0  0  0  0  0  0  0  0  0  0  0  0
   -2.3135   23.5684    7.9197 C   0  0  0  0  0  0  0  0  0  0  0  0
    9.0692   28.4761    2.8478 C   0  0  0  0  0  0  0  0  0  0  0  0
    8.0709   27.6168    2.0742 C   0  0  0  0  0  0  0  0  0  0  0  0
    8.7276   26.4754    1.3310 C   0  0  0  0  0  0  0  0  0  0  0  0
    9.6919   25.8074    2.0249 N   0  0  0  0  0  0  0  0  0  0  0  0
    8.4231   26.1611    0.1808 O   0  0  0  0  0  0  0  0  0  0  0  0
    9.9154   26.0804    2.9440 H   0  0  0  0  0  0  0  0  0  0  0  0
   10.1649   25.0518    1.6070 H   0  0  0  0  0  0  0  0  0  0  0  0
 19 20  1  0
 20 21  1  0
 20 22  1  0
 20 18  1  0
 18 15  1  0
 15 16  1  0
 15 17  1  0
 15 14  1  0
 14 13  1  0
 13 12  1  0
  6 12  1  0
  6  2  1  0
  2  3  1  0
  3  4  2  0
  3  1  1  0
  1 46  1  0
 46 47  1  0
 47 48  1  0
 48 49  1  0
 48 50  2  0
  1 23  1  0
 23 24  1  0
 24 25  2  0
 24 27  1  0
 27 28  1  0
 28 29  1  0
 29 30  2  0
 30 31  1  0
 31 32  2  0
 32 35  1  0
 35 36  2  0
 36 37  1  0
 37 40  1  0
 40 41  2  0
 41 42  1  0
 42 43  2  0
 43 44  1  0
 44 45  2  0
 37 38  2  0
 38 39  1  0
 32 33  1  0
 33 34  2  0
  6  7  1  0
  7  8  1  0
  7  9  2  0
 34 29  1  0
 39 35  1  0
 45 40  1  0
  2  5  1  0
 49 51  1  0
 49 52  1  0
 23 26  1  0
  8 10  1  0
  8 11  1  0
M  CHG 1  15   1
M  CHG 1  20   1
M  END
> <minimizedAffinity>
-8.45321

> <CNNscore>
0.6037927866

> <CNNaffinity>
8.0403671265

> <CNN_VS>
4.8547158241

> <CNNaffinity_variance>
0.4091591835

$$$$
