


 22 24  0  0  0  0  0  0  0  0999 V2000
    8.5732    9.8093    4.1535 S   0  0  0  0  0  0  0  0  0  0  0  0
    8.5005    8.5926    4.9334 O   0  0  0  0  0  0  0  0  0  0  0  0
    8.6036   11.0985    4.8117 O   0  0  0  0  0  0  0  0  0  0  0  0
    7.1983    9.8288    3.0182 C   0  0  0  0  0  0  0  0  0  0  0  0
    7.5030    9.8148    1.6498 C   0  0  0  0  0  0  0  0  0  0  0  0
    6.4737    9.8201    0.7256 C   0  0  0  0  0  0  0  0  0  0  0  0
    6.7605    9.8133   -0.5819 F   0  0  0  0  0  0  0  0  0  0  0  0
    5.1478    9.8354    1.1321 C   0  0  0  0  0  0  0  0  0  0  0  0
    4.8284    9.8440    2.4989 C   0  0  0  0  0  0  0  0  0  0  0  0
    3.4978    9.8627    2.9240 C   0  0  0  0  0  0  0  0  0  0  0  0
    3.1021    9.8783    4.2147 N   0  0  0  0  0  0  0  0  0  0  0  0
    4.0787    9.8681    5.1386 C   0  0  0  0  0  0  0  0  0  0  0  0
    5.4309    9.8508    4.8304 C   0  0  0  0  0  0  0  0  0  0  0  0
    5.8491    9.8373    3.4795 C   0  0  0  0  0  0  0  0  0  0  0  0
   10.1344    8.1048    1.2421 C   0  0  0  0  0  0  0  0  0  0  0  0
   10.3594    8.2931    2.7411 C   0  0  0  0  0  0  0  0  0  0  0  0
   11.8461    8.0039    3.0856 C   0  0  0  0  0  0  0  0  0  0  0  0
   12.2060    8.4047    4.4454 N   0  0  0  0  0  0  0  0  0  0  0  0
   11.8983    9.8216    4.6938 C   0  0  0  0  0  0  0  0  0  0  0  0
   11.0917   10.5258    3.5844 C   0  0  0  0  0  0  0  0  0  0  0  0
    9.9352    9.6975    3.1175 N   0  0  0  0  0  0  0  0  0  0  0  0
   13.2059    8.2548    4.5806 H   0  0  0  0  0  0  0  0  0  0  0  0
 16 15  1  0
 16 17  1  0
 17 18  1  0
 18 19  1  0
 19 20  1  0
 20 21  1  0
 21  1  1  0
  1  2  2  0
  1  3  2  0
  1  4  1  0
  4  5  2  0
  5  6  1  0
  6  7  1  0
  6  8  2  0
  8  9  1  0
  9 10  2  0
 10 11  1  0
 11 12  2  0
 12 13  1  0
 13 14  2  0
 21 16  1  0
 14  4  1  0
 14  9  1  0
 18 22  1  0
M  END
> <minimizedAffinity>
-8.63687

> <CNNscore>
0.9754416347

> <CNNaffinity>
6.5906434059

> <CNN_VS>
6.4287881851

> <CNNaffinity_variance>
0.0279217865

$$$$



 22 24  0  0  0  0  0  0  0  0999 V2000
    8.7041    9.8357    4.4889 S   0  0  0  0  0  0  0  0  0  0  0  0
    8.3475    8.9022    5.5356 O   0  0  0  0  0  0  0  0  0  0  0  0
    9.0027   11.2154    4.8108 O   0  0  0  0  0  0  0  0  0  0  0  0
    7.3931    9.8479    3.2803 C   0  0  0  0  0  0  0  0  0  0  0  0
    7.7719    9.8150    1.9308 C   0  0  0  0  0  0  0  0  0  0  0  0
    6.7945    9.8140    0.9518 C   0  0  0  0  0  0  0  0  0  0  0  0
    7.1521    9.7892   -0.3380 F   0  0  0  0  0  0  0  0  0  0  0  0
    5.4485    9.8412    1.2851 C   0  0  0  0  0  0  0  0  0  0  0  0
    5.0552    9.8687    2.6322 C   0  0  0  0  0  0  0  0  0  0  0  0
    3.7035    9.8995    2.9839 C   0  0  0  0  0  0  0  0  0  0  0  0
    3.2382    9.9334    4.2507 N   0  0  0  0  0  0  0  0  0  0  0  0
    4.1630    9.9299    5.2266 C   0  0  0  0  0  0  0  0  0  0  0  0
    5.5298    9.9018    4.9929 C   0  0  0  0  0  0  0  0  0  0  0  0
    6.0209    9.8691    3.6671 C   0  0  0  0  0  0  0  0  0  0  0  0
   11.2446    7.1313    4.2652 C   0  0  0  0  0  0  0  0  0  0  0  0
   11.1661    8.6433    4.4669 C   0  0  0  0  0  0  0  0  0  0  0  0
   12.5343    9.2883    4.1140 C   0  0  0  0  0  0  0  0  0  0  0  0
   12.4746   10.7475    4.0337 N   0  0  0  0  0  0  0  0  0  0  0  0
   11.4459   11.1978    3.0834 C   0  0  0  0  0  0  0  0  0  0  0  0
   10.5224   10.0905    2.5373 C   0  0  0  0  0  0  0  0  0  0  0  0
   10.0310    9.1822    3.6213 N   0  0  0  0  0  0  0  0  0  0  0  0
   13.3824   11.0993    3.7296 H   0  0  0  0  0  0  0  0  0  0  0  0
 16 15  1  0
 16 17  1  0
 17 18  1  0
 18 19  1  0
 19 20  1  0
 20 21  1  0
 21  1  1  0
  1  2  2  0
  1  3  2  0
  1  4  1  0
  4  5  2  0
  5  6  1  0
  6  7  1  0
  6  8  2  0
  8  9  1  0
  9 10  2  0
 10 11  1  0
 11 12  2  0
 12 13  1  0
 13 14  2  0
 21 16  1  0
 14  4  1  0
 14  9  1  0
 18 22  1  0
M  END
> <minimizedAffinity>
-8.42077

> <CNNscore>
0.8992448449

> <CNNaffinity>
6.3621978760

> <CNN_VS>
5.7211737633

> <CNNaffinity_variance>
0.0770874098

$$$$



 22 24  0  0  0  0  0  0  0  0999 V2000
    9.7559   10.3926    4.1392 S   0  0  0  0  0  0  0  0  0  0  0  0
    9.1044   10.9609    5.2996 O   0  0  0  0  0  0  0  0  0  0  0  0
   10.8552   11.0888    3.5041 O   0  0  0  0  0  0  0  0  0  0  0  0
    8.5188   10.1069    2.8872 C   0  0  0  0  0  0  0  0  0  0  0  0
    7.1892   10.0014    3.3193 C   0  0  0  0  0  0  0  0  0  0  0  0
    6.1883    9.7884    2.3883 C   0  0  0  0  0  0  0  0  0  0  0  0
    4.9183    9.6807    2.7974 F   0  0  0  0  0  0  0  0  0  0  0  0
    6.4800    9.6818    1.0366 C   0  0  0  0  0  0  0  0  0  0  0  0
    7.8061    9.7909    0.5897 C   0  0  0  0  0  0  0  0  0  0  0  0
    8.1162    9.6824   -0.7681 C   0  0  0  0  0  0  0  0  0  0  0  0
    9.3613    9.7685   -1.2827 N   0  0  0  0  0  0  0  0  0  0  0  0
   10.3568    9.9807   -0.4044 C   0  0  0  0  0  0  0  0  0  0  0  0
   10.1645   10.1030    0.9637 C   0  0  0  0  0  0  0  0  0  0  0  0
    8.8618   10.0105    1.5066 C   0  0  0  0  0  0  0  0  0  0  0  0
   12.6298    8.1756    4.9418 C   0  0  0  0  0  0  0  0  0  0  0  0
   11.5545    8.3487    3.8710 C   0  0  0  0  0  0  0  0  0  0  0  0
   11.3744    7.0167    3.0927 C   0  0  0  0  0  0  0  0  0  0  0  0
   10.1960    7.0158    2.2263 N   0  0  0  0  0  0  0  0  0  0  0  0
    8.9700    7.3302    2.9760 C   0  0  0  0  0  0  0  0  0  0  0  0
    9.1867    7.7905    4.4315 C   0  0  0  0  0  0  0  0  0  0  0  0
   10.2778    8.8097    4.5428 N   0  0  0  0  0  0  0  0  0  0  0  0
   10.0973    6.0929    1.8032 H   0  0  0  0  0  0  0  0  0  0  0  0
 16 15  1  0
 16 17  1  0
 17 18  1  0
 18 19  1  0
 19 20  1  0
 20 21  1  0
 21  1  1  0
  1  2  2  0
  1  3  2  0
  1  4  1  0
  4  5  2  0
  5  6  1  0
  6  7  1  0
  6  8  2  0
  8  9  1  0
  9 10  2  0
 10 11  1  0
 11 12  2  0
 12 13  1  0
 13 14  2  0
 21 16  1  0
 14  4  1  0
 14  9  1  0
 18 22  1  0
M  END
> <minimizedAffinity>
-7.69465

> <CNNscore>
0.6344479322

> <CNNaffinity>
5.4152812958

> <CNN_VS>
3.4357140064

> <CNNaffinity_variance>
0.8900175691

$$$$



 22 24  0  0  0  0  0  0  0  0999 V2000
    9.7926    9.5653    0.7211 S   0  0  0  0  0  0  0  0  0  0  0  0
    9.8330   10.8166   -0.0048 O   0  0  0  0  0  0  0  0  0  0  0  0
    9.3353    8.3564    0.0685 O   0  0  0  0  0  0  0  0  0  0  0  0
    8.7845    9.7941    2.1740 C   0  0  0  0  0  0  0  0  0  0  0  0
    9.4540    9.9172    3.3997 C   0  0  0  0  0  0  0  0  0  0  0  0
    8.7203   10.1051    4.5573 C   0  0  0  0  0  0  0  0  0  0  0  0
    9.3554   10.2167    5.7305 F   0  0  0  0  0  0  0  0  0  0  0  0
    7.3358   10.1771    4.5227 C   0  0  0  0  0  0  0  0  0  0  0  0
    6.6531   10.0610    3.3018 C   0  0  0  0  0  0  0  0  0  0  0  0
    5.2586   10.1281    3.2510 C   0  0  0  0  0  0  0  0  0  0  0  0
    4.5232   10.0202    2.1241 N   0  0  0  0  0  0  0  0  0  0  0  0
    5.2066    9.8421    0.9801 C   0  0  0  0  0  0  0  0  0  0  0  0
    6.5895    9.7597    0.9135 C   0  0  0  0  0  0  0  0  0  0  0  0
    7.3630    9.8695    2.0923 C   0  0  0  0  0  0  0  0  0  0  0  0
   11.8454    7.6186    3.1324 C   0  0  0  0  0  0  0  0  0  0  0  0
   11.4122    9.0590    2.8669 C   0  0  0  0  0  0  0  0  0  0  0  0
   12.3899   10.0366    3.5746 C   0  0  0  0  0  0  0  0  0  0  0  0
   12.2016   11.4284    3.1665 N   0  0  0  0  0  0  0  0  0  0  0  0
   12.3017   11.5853    1.7073 C   0  0  0  0  0  0  0  0  0  0  0  0
   12.3712   10.2700    0.9058 C   0  0  0  0  0  0  0  0  0  0  0  0
   11.3534    9.2743    1.3689 N   0  0  0  0  0  0  0  0  0  0  0  0
   12.9179   12.0030    3.6107 H   0  0  0  0  0  0  0  0  0  0  0  0
 16 15  1  0
 16 17  1  0
 17 18  1  0
 18 19  1  0
 19 20  1  0
 20 21  1  0
 21  1  1  0
  1  2  2  0
  1  3  2  0
  1  4  1  0
  4  5  2  0
  5  6  1  0
  6  7  1  0
  6  8  2  0
  8  9  1  0
  9 10  2  0
 10 11  1  0
 11 12  2  0
 12 13  1  0
 13 14  2  0
 21 16  1  0
 14  4  1  0
 14  9  1  0
 18 22  1  0
M  END
> <minimizedAffinity>
-8.55983

> <CNNscore>
0.5928249359

> <CNNaffinity>
6.2844815254

> <CNN_VS>
3.7255973816

> <CNNaffinity_variance>
0.2152003199

$$$$



 22 24  0  0  0  0  0  0  0  0999 V2000
    9.9731   10.4208    3.9154 S   0  0  0  0  0  0  0  0  0  0  0  0
    8.9841   10.6292    4.9512 O   0  0  0  0  0  0  0  0  0  0  0  0
   10.9928   11.4182    3.6674 O   0  0  0  0  0  0  0  0  0  0  0  0
    9.1192   10.1448    2.3745 C   0  0  0  0  0  0  0  0  0  0  0  0
    9.9105    9.9944    1.2270 C   0  0  0  0  0  0  0  0  0  0  0  0
    9.2994    9.7695    0.0064 C   0  0  0  0  0  0  0  0  0  0  0  0
   10.0511    9.6318   -1.0927 F   0  0  0  0  0  0  0  0  0  0  0  0
    7.9189    9.6870   -0.0977 C   0  0  0  0  0  0  0  0  0  0  0  0
    7.1150    9.8302    1.0440 C   0  0  0  0  0  0  0  0  0  0  0  0
    5.7230    9.7530    0.9548 C   0  0  0  0  0  0  0  0  0  0  0  0
    4.8762    9.8850    1.9979 N   0  0  0  0  0  0  0  0  0  0  0  0
    5.4388   10.0993    3.2000 C   0  0  0  0  0  0  0  0  0  0  0  0
    6.8073   10.1949    3.4044 C   0  0  0  0  0  0  0  0  0  0  0  0
    7.6972   10.0599    2.3135 C   0  0  0  0  0  0  0  0  0  0  0  0
   13.0294    8.3535    3.4645 C   0  0  0  0  0  0  0  0  0  0  0  0
   11.5567    8.3608    3.0595 C   0  0  0  0  0  0  0  0  0  0  0  0
   11.1192    6.9257    2.6578 C   0  0  0  0  0  0  0  0  0  0  0  0
    9.6710    6.7922    2.5022 N   0  0  0  0  0  0  0  0  0  0  0  0
    8.9528    7.2166    3.7139 C   0  0  0  0  0  0  0  0  0  0  0  0
    9.8219    7.8934    4.7927 C   0  0  0  0  0  0  0  0  0  0  0  0
   10.7450    8.9182    4.2103 N   0  0  0  0  0  0  0  0  0  0  0  0
    9.4476    5.8156    2.3104 H   0  0  0  0  0  0  0  0  0  0  0  0
 16 15  1  0
 16 17  1  0
 17 18  1  0
 18 19  1  0
 19 20  1  0
 20 21  1  0
 21  1  1  0
  1  2  2  0
  1  3  2  0
  1  4  1  0
  4  5  2  0
  5  6  1  0
  6  7  1  0
  6  8  2  0
  8  9  1  0
  9 10  2  0
 10 11  1  0
 11 12  2  0
 12 13  1  0
 13 14  2  0
 21 16  1  0
 14  4  1  0
 14  9  1  0
 18 22  1  0
M  END
> <minimizedAffinity>
-7.41613

> <CNNscore>
0.5661224723

> <CNNaffinity>
5.6397967339

> <CNN_VS>
3.1928157806

> <CNNaffinity_variance>
0.1498405337

$$$$



 22 24  0  0  0  0  0  0  0  0999 V2000
   10.5718   10.0544    2.4026 S   0  0  0  0  0  0  0  0  0  0  0  0
   10.7127   10.8874    3.5775 O   0  0  0  0  0  0  0  0  0  0  0  0
   11.3118   10.3610    1.1964 O   0  0  0  0  0  0  0  0  0  0  0  0
    8.8450    9.9967    1.9618 C   0  0  0  0  0  0  0  0  0  0  0  0
    8.5405    9.8179    0.6049 C   0  0  0  0  0  0  0  0  0  0  0  0
    7.2163    9.7573    0.2093 C   0  0  0  0  0  0  0  0  0  0  0  0
    6.9213    9.5931   -1.0861 F   0  0  0  0  0  0  0  0  0  0  0  0
    6.1881    9.8668    1.1335 C   0  0  0  0  0  0  0  0  0  0  0  0
    6.4787   10.0406    2.4956 C   0  0  0  0  0  0  0  0  0  0  0  0
    5.4541   10.1558    3.4382 C   0  0  0  0  0  0  0  0  0  0  0  0
    5.6432   10.3307    4.7635 N   0  0  0  0  0  0  0  0  0  0  0  0
    6.9196   10.3885    5.1817 C   0  0  0  0  0  0  0  0  0  0  0  0
    8.0133   10.2870    4.3350 C   0  0  0  0  0  0  0  0  0  0  0  0
    7.8191   10.1065    2.9458 C   0  0  0  0  0  0  0  0  0  0  0  0
    9.7362    7.2034    4.6369 C   0  0  0  0  0  0  0  0  0  0  0  0
   10.8972    8.1505    4.3400 C   0  0  0  0  0  0  0  0  0  0  0  0
   12.2247    7.5228    4.8460 C   0  0  0  0  0  0  0  0  0  0  0  0
   13.4107    8.2398    4.3784 N   0  0  0  0  0  0  0  0  0  0  0  0
   13.4344    8.3529    2.9118 C   0  0  0  0  0  0  0  0  0  0  0  0
   12.1479    7.8973    2.1943 C   0  0  0  0  0  0  0  0  0  0  0  0
   10.9157    8.4358    2.8526 N   0  0  0  0  0  0  0  0  0  0  0  0
   14.2434    7.7368    4.6847 H   0  0  0  0  0  0  0  0  0  0  0  0
 16 15  1  0
 16 17  1  0
 17 18  1  0
 18 19  1  0
 19 20  1  0
 20 21  1  0
 21  1  1  0
  1  2  2  0
  1  3  2  0
  1  4  1  0
  4  5  2  0
  5  6  1  0
  6  7  1  0
  6  8  2  0
  8  9  1  0
  9 10  2  0
 10 11  1  0
 11 12  2  0
 12 13  1  0
 13 14  2  0
 21 16  1  0
 14  4  1  0
 14  9  1  0
 18 22  1  0
M  END
> <minimizedAffinity>
-7.92483

> <CNNscore>
0.5233126283

> <CNNaffinity>
6.0334243774

> <CNN_VS>
3.1573672295

> <CNNaffinity_variance>
0.0468841456

$$$$



 22 24  0  0  0  0  0  0  0  0999 V2000
    9.7418    9.0793    4.3277 S   0  0  0  0  0  0  0  0  0  0  0  0
    9.4164    7.7264    4.7252 O   0  0  0  0  0  0  0  0  0  0  0  0
    9.6007   10.1711    5.2681 O   0  0  0  0  0  0  0  0  0  0  0  0
    8.7668    9.4901    2.8923 C   0  0  0  0  0  0  0  0  0  0  0  0
    9.4436    9.5781    1.6677 C   0  0  0  0  0  0  0  0  0  0  0  0
    8.7335    9.8853    0.5209 C   0  0  0  0  0  0  0  0  0  0  0  0
    9.3771    9.9767   -0.6494 F   0  0  0  0  0  0  0  0  0  0  0  0
    7.3646   10.1034    0.5643 C   0  0  0  0  0  0  0  0  0  0  0  0
    6.6736   10.0131    1.7827 C   0  0  0  0  0  0  0  0  0  0  0  0
    5.2954   10.2332    1.8432 C   0  0  0  0  0  0  0  0  0  0  0  0
    4.5549   10.1729    2.9704 N   0  0  0  0  0  0  0  0  0  0  0  0
    5.2144    9.8710    4.1024 C   0  0  0  0  0  0  0  0  0  0  0  0
    6.5798    9.6346    4.1591 C   0  0  0  0  0  0  0  0  0  0  0  0
    7.3592    9.6996    2.9807 C   0  0  0  0  0  0  0  0  0  0  0  0
   12.1831    7.5740    1.9629 C   0  0  0  0  0  0  0  0  0  0  0  0
   11.9565    7.7242    3.4659 C   0  0  0  0  0  0  0  0  0  0  0  0
   13.2985    7.5144    4.2191 C   0  0  0  0  0  0  0  0  0  0  0  0
   13.2262    7.8895    5.6310 N   0  0  0  0  0  0  0  0  0  0  0  0
   12.7643    9.2756    5.8022 C   0  0  0  0  0  0  0  0  0  0  0  0
   12.2628    9.9670    4.5185 C   0  0  0  0  0  0  0  0  0  0  0  0
   11.3475    9.0863    3.7259 N   0  0  0  0  0  0  0  0  0  0  0  0
   14.1533    7.7962    6.0458 H   0  0  0  0  0  0  0  0  0  0  0  0
 16 15  1  0
 16 17  1  0
 17 18  1  0
 18 19  1  0
 19 20  1  0
 20 21  1  0
 21  1  1  0
  1  2  2  0
  1  3  2  0
  1  4  1  0
  4  5  2  0
  5  6  1  0
  6  7  1  0
  6  8  2  0
  8  9  1  0
  9 10  2  0
 10 11  1  0
 11 12  2  0
 12 13  1  0
 13 14  2  0
 21 16  1  0
 14  4  1  0
 14  9  1  0
 18 22  1  0
M  END
> <minimizedAffinity>
-7.77951

> <CNNscore>
0.2998590767

> <CNNaffinity>
5.8771967888

> <CNN_VS>
1.7623307705

> <CNNaffinity_variance>
0.3260025680

$$$$



 22 24  0  0  0  0  0  0  0  0999 V2000
    9.8316    8.8566    0.8896 S   0  0  0  0  0  0  0  0  0  0  0  0
    9.6271    8.9961   -0.5361 O   0  0  0  0  0  0  0  0  0  0  0  0
   10.1280    7.5601    1.4619 O   0  0  0  0  0  0  0  0  0  0  0  0
    8.3872    9.4845    1.7257 C   0  0  0  0  0  0  0  0  0  0  0  0
    7.2832    9.8145    0.9271 C   0  0  0  0  0  0  0  0  0  0  0  0
    6.1334   10.2980    1.5255 C   0  0  0  0  0  0  0  0  0  0  0  0
    5.0794   10.6203    0.7660 F   0  0  0  0  0  0  0  0  0  0  0  0
    6.0560   10.4571    2.9011 C   0  0  0  0  0  0  0  0  0  0  0  0
    7.1518   10.1255    3.7130 C   0  0  0  0  0  0  0  0  0  0  0  0
    7.0903   10.2832    5.0997 C   0  0  0  0  0  0  0  0  0  0  0  0
    8.0966    9.9958    5.9526 N   0  0  0  0  0  0  0  0  0  0  0  0
    9.2269    9.5185    5.4030 C   0  0  0  0  0  0  0  0  0  0  0  0
    9.3986    9.3232    4.0407 C   0  0  0  0  0  0  0  0  0  0  0  0
    8.3477    9.6258    3.1440 C   0  0  0  0  0  0  0  0  0  0  0  0
   11.4091   12.1801    0.3566 C   0  0  0  0  0  0  0  0  0  0  0  0
   11.7471   10.6958    0.2322 C   0  0  0  0  0  0  0  0  0  0  0  0
   13.2891   10.5098    0.2388 C   0  0  0  0  0  0  0  0  0  0  0  0
   13.6956    9.1119    0.3799 N   0  0  0  0  0  0  0  0  0  0  0  0
   13.1090    8.4938    1.5791 C   0  0  0  0  0  0  0  0  0  0  0  0
   12.0510    9.3449    2.3095 C   0  0  0  0  0  0  0  0  0  0  0  0
   11.0642    9.9517    1.3609 N   0  0  0  0  0  0  0  0  0  0  0  0
   14.7123    9.0686    0.4493 H   0  0  0  0  0  0  0  0  0  0  0  0
 16 15  1  0
 16 17  1  0
 17 18  1  0
 18 19  1  0
 19 20  1  0
 20 21  1  0
 21  1  1  0
  1  2  2  0
  1  3  2  0
  1  4  1  0
  4  5  2  0
  5  6  1  0
  6  7  1  0
  6  8  2  0
  8  9  1  0
  9 10  2  0
 10 11  1  0
 11 12  2  0
 12 13  1  0
 13 14  2  0
 21 16  1  0
 14  4  1  0
 14  9  1  0
 18 22  1  0
M  END
> <minimizedAffinity>
-8.02453

> <CNNscore>
0.2664988041

> <CNNaffinity>
5.1930260658

> <CNN_VS>
1.3839352131

> <CNNaffinity_variance>
0.5428357720

$$$$



 22 24  0  0  0  0  0  0  0  0999 V2000
   12.3368    9.7827    3.1393 S   0  0  0  0  0  0  0  0  0  0  0  0
   12.6216   10.6368    4.2721 O   0  0  0  0  0  0  0  0  0  0  0  0
   12.8842    8.4437    3.0778 O   0  0  0  0  0  0  0  0  0  0  0  0
   12.8494   10.6307    1.6568 C   0  0  0  0  0  0  0  0  0  0  0  0
   12.1967   11.8341    1.3545 C   0  0  0  0  0  0  0  0  0  0  0  0
   12.5616   12.5373    0.2204 C   0  0  0  0  0  0  0  0  0  0  0  0
   11.9364   13.6835   -0.0752 F   0  0  0  0  0  0  0  0  0  0  0  0
   13.5638   12.0722   -0.6178 C   0  0  0  0  0  0  0  0  0  0  0  0
   14.2292   10.8717   -0.3242 C   0  0  0  0  0  0  0  0  0  0  0  0
   15.2385   10.3884   -1.1605 C   0  0  0  0  0  0  0  0  0  0  0  0
   15.9240    9.2432   -0.9574 N   0  0  0  0  0  0  0  0  0  0  0  0
   15.5971    8.5384    0.1398 C   0  0  0  0  0  0  0  0  0  0  0  0
   14.6120    8.9226    1.0373 C   0  0  0  0  0  0  0  0  0  0  0  0
   13.8899   10.1202    0.8263 C   0  0  0  0  0  0  0  0  0  0  0  0
    9.0111   10.3007    4.7172 C   0  0  0  0  0  0  0  0  0  0  0  0
    9.8794    9.1682    4.1726 C   0  0  0  0  0  0  0  0  0  0  0  0
    8.9883    7.9389    3.8456 C   0  0  0  0  0  0  0  0  0  0  0  0
    9.6941    6.9071    3.0863 N   0  0  0  0  0  0  0  0  0  0  0  0
   10.2796    7.4474    1.8496 C   0  0  0  0  0  0  0  0  0  0  0  0
   10.2190    8.9814    1.7065 C   0  0  0  0  0  0  0  0  0  0  0  0
   10.6341    9.6807    2.9636 N   0  0  0  0  0  0  0  0  0  0  0  0
    9.0361    6.1662    2.8444 H   0  0  0  0  0  0  0  0  0  0  0  0
 16 15  1  0
 16 17  1  0
 17 18  1  0
 18 19  1  0
 19 20  1  0
 20 21  1  0
 21  1  1  0
  1  2  2  0
  1  3  2  0
  1  4  1  0
  4  5  2  0
  5  6  1  0
  6  7  1  0
  6  8  2  0
  8  9  1  0
  9 10  2  0
 10 11  1  0
 11 12  2  0
 12 13  1  0
 13 14  2  0
 21 16  1  0
 14  4  1  0
 14  9  1  0
 18 22  1  0
M  END
> <minimizedAffinity>
-7.41392

> <CNNscore>
0.2294930220

> <CNNaffinity>
4.5792212486

> <CNN_VS>
1.0508992672

> <CNNaffinity_variance>
0.8336998820

$$$$
