


 31 33  0  0  0  0  0  0  0  0999 V2000
   19.3624   18.5470   33.4916 C   0  0  0  0  0  0  0  0  0  0  0  0
   19.0367   17.6706   32.4548 C   0  0  0  0  0  0  0  0  0  0  0  0
   19.9263   16.6553   32.0982 C   0  0  0  0  0  0  0  0  0  0  0  0
   21.1515   16.5075   32.7685 C   0  0  0  0  0  0  0  0  0  0  0  0
   22.0555   15.4911   32.4170 C   0  0  0  0  0  0  0  0  0  0  0  0
   23.2768   15.3609   33.0915 C   0  0  0  0  0  0  0  0  0  0  0  0
   23.5881   16.2282   34.1416 C   0  0  0  0  0  0  0  0  0  0  0  0
   22.6980   17.2426   34.4993 C   0  0  0  0  0  0  0  0  0  0  0  0
   21.4785   17.3965   33.8220 C   0  0  0  0  0  0  0  0  0  0  0  0
   20.5749   18.4118   34.1744 C   0  0  0  0  0  0  0  0  0  0  0  0
   17.1268   19.4350   33.8413 N   0  0  0  0  0  0  0  0  0  0  0  0
   18.4081   19.6206   33.8669 C   0  0  0  0  0  0  0  0  0  0  0  0
   18.8549   20.8443   34.2527 N   0  0  0  0  0  0  0  0  0  0  0  0
   16.5183   20.1659   34.0957 H   0  0  0  0  0  0  0  0  0  0  0  0
   18.2119   21.5479   34.4992 H   0  0  0  0  0  0  0  0  0  0  0  0
   19.8216   21.0274   34.2859 H   0  0  0  0  0  0  0  0  0  0  0  0
   24.2533   14.2927   32.7397 C   0  0  0  0  0  0  0  0  0  0  0  0
   24.5057   13.4408   33.5818 O   0  0  0  0  0  0  0  0  0  0  0  0
   24.8097   14.4083   31.4785 N   0  0  0  0  0  0  0  0  0  0  0  0
   24.5322   15.1902   30.9485 H   0  0  0  0  0  0  0  0  0  0  0  0
   25.7306   13.5310   30.8662 C   0  0  0  0  0  0  0  0  0  0  0  0
   26.1505   13.8517   29.5715 C   0  0  0  0  0  0  0  0  0  0  0  0
   27.0560   13.0323   28.8907 C   0  0  0  0  0  0  0  0  0  0  0  0
   27.5606   11.8639   29.4852 C   0  0  0  0  0  0  0  0  0  0  0  0
   27.1401   11.5518   30.7873 C   0  0  0  0  0  0  0  0  0  0  0  0
   27.7057   10.1428   31.6171 Cl  0  0  0  0  0  0  0  0  0  0  0  0
   26.2303   12.3756   31.4669 C   0  0  0  0  0  0  0  0  0  0  0  0
   28.5486   11.0252   28.7150 C   0  0  0  0  0  0  0  0  0  0  0  0
   27.9756    9.7395   28.3393 N   0  0  0  0  0  0  0  0  0  0  0  0
   27.7184    9.2231   29.1804 H   0  0  0  0  0  0  0  0  0  0  0  0
   28.6619    9.2037   27.8079 H   0  0  0  0  0  0  0  0  0  0  0  0
 11 12  2  0
 12 13  1  0
 12  1  1  0
  1  2  2  0
  2  3  1  0
  3  4  2  0
  4  5  1  0
  5  6  2  0
  6 17  1  0
 17 18  2  0
 17 19  1  0
 19 21  1  0
 21 22  2  0
 22 23  1  0
 23 24  2  0
 24 28  1  0
 28 29  1  0
 24 25  1  0
 25 26  1  0
 25 27  2  0
  6  7  1  0
  7  8  2  0
  8  9  1  0
  9 10  2  0
 10  1  1  0
  9  4  1  0
 27 21  1  0
 11 14  1  0
 13 15  1  0
 13 16  1  0
 19 20  1  0
 29 30  1  0
 29 31  1  0
M  END
> <minimizedAffinity>
-8.51300

> <CNNscore>
0.9193649888

> <CNNaffinity>
6.9421591759

> <CNN_VS>
6.3823781013

> <CNNaffinity_variance>
0.1229237318

$$$$



 31 33  0  0  0  0  0  0  0  0999 V2000
   19.3976   18.6896   33.2359 C   0  0  0  0  0  0  0  0  0  0  0  0
   18.8989   17.6084   32.5070 C   0  0  0  0  0  0  0  0  0  0  0  0
   19.7763   16.6458   32.0038 C   0  0  0  0  0  0  0  0  0  0  0  0
   21.1599   16.7550   32.2183 C   0  0  0  0  0  0  0  0  0  0  0  0
   22.0525   15.7939   31.7149 C   0  0  0  0  0  0  0  0  0  0  0  0
   23.4310   15.9207   31.9323 C   0  0  0  0  0  0  0  0  0  0  0  0
   23.9222   16.9939   32.6798 C   0  0  0  0  0  0  0  0  0  0  0  0
   23.0448   17.9556   33.1842 C   0  0  0  0  0  0  0  0  0  0  0  0
   21.6632   17.8517   32.9605 C   0  0  0  0  0  0  0  0  0  0  0  0
   20.7714   18.8120   33.4646 C   0  0  0  0  0  0  0  0  0  0  0  0
   18.8574   20.8798   34.1411 N   0  0  0  0  0  0  0  0  0  0  0  0
   18.4565   19.7055   33.7710 C   0  0  0  0  0  0  0  0  0  0  0  0
   17.1312   19.4310   33.8903 N   0  0  0  0  0  0  0  0  0  0  0  0
   18.2099   21.5330   34.4923 H   0  0  0  0  0  0  0  0  0  0  0  0
   16.5173   20.1132   34.2466 H   0  0  0  0  0  0  0  0  0  0  0  0
   16.7847   18.5499   33.6203 H   0  0  0  0  0  0  0  0  0  0  0  0
   24.3995   14.9167   31.4105 C   0  0  0  0  0  0  0  0  0  0  0  0
   24.2860   13.7563   31.7838 O   0  0  0  0  0  0  0  0  0  0  0  0
   25.3694   15.4300   30.5682 N   0  0  0  0  0  0  0  0  0  0  0  0
   25.3455   16.4023   30.4156 H   0  0  0  0  0  0  0  0  0  0  0  0
   26.3895   14.7161   29.9029 C   0  0  0  0  0  0  0  0  0  0  0  0
   26.1521   13.3632   29.6405 C   0  0  0  0  0  0  0  0  0  0  0  0
   27.1131   12.5821   28.9916 C   0  0  0  0  0  0  0  0  0  0  0  0
   28.3427   13.1328   28.5941 C   0  0  0  0  0  0  0  0  0  0  0  0
   28.5715   14.4927   28.8546 C   0  0  0  0  0  0  0  0  0  0  0  0
   30.0464   15.2747   28.3997 Cl  0  0  0  0  0  0  0  0  0  0  0  0
   27.6054   15.2732   29.5072 C   0  0  0  0  0  0  0  0  0  0  0  0
   29.3368   12.2515   27.8814 C   0  0  0  0  0  0  0  0  0  0  0  0
   28.7938   10.9203   27.6454 N   0  0  0  0  0  0  0  0  0  0  0  0
   28.5723   10.4803   28.5386 H   0  0  0  0  0  0  0  0  0  0  0  0
   29.4830   10.3550   27.1496 H   0  0  0  0  0  0  0  0  0  0  0  0
 11 12  2  0
 12 13  1  0
 12  1  1  0
  1  2  2  0
  2  3  1  0
  3  4  2  0
  4  5  1  0
  5  6  2  0
  6 17  1  0
 17 18  2  0
 17 19  1  0
 19 21  1  0
 21 22  2  0
 22 23  1  0
 23 24  2  0
 24 28  1  0
 28 29  1  0
 24 25  1  0
 25 26  1  0
 25 27  2  0
  6  7  1  0
  7  8  2  0
  8  9  1  0
  9 10  2  0
 10  1  1  0
  9  4  1  0
 27 21  1  0
 11 14  1  0
 13 15  1  0
 13 16  1  0
 19 20  1  0
 29 30  1  0
 29 31  1  0
M  END
> <minimizedAffinity>
-8.09403

> <CNNscore>
0.9073539972

> <CNNaffinity>
6.6519865990

> <CNN_VS>
6.0357065201

> <CNNaffinity_variance>
0.0427237004

$$$$



 31 33  0  0  0  0  0  0  0  0999 V2000
   19.2724   18.6078   33.2043 C   0  0  0  0  0  0  0  0  0  0  0  0
   18.7210   17.5332   32.5043 C   0  0  0  0  0  0  0  0  0  0  0  0
   19.5581   16.5680   31.9411 C   0  0  0  0  0  0  0  0  0  0  0  0
   20.9533   16.6681   32.0661 C   0  0  0  0  0  0  0  0  0  0  0  0
   21.8057   15.7043   31.5017 C   0  0  0  0  0  0  0  0  0  0  0  0
   23.1960   15.8220   31.6300 C   0  0  0  0  0  0  0  0  0  0  0  0
   23.7411   16.8887   32.3489 C   0  0  0  0  0  0  0  0  0  0  0  0
   22.9041   17.8530   32.9135 C   0  0  0  0  0  0  0  0  0  0  0  0
   21.5103   17.7582   32.7791 C   0  0  0  0  0  0  0  0  0  0  0  0
   20.6588   18.7212   33.3442 C   0  0  0  0  0  0  0  0  0  0  0  0
   17.1007   19.4267   33.9266 N   0  0  0  0  0  0  0  0  0  0  0  0
   18.3742   19.6266   33.8038 C   0  0  0  0  0  0  0  0  0  0  0  0
   18.8663   20.8131   34.2466 N   0  0  0  0  0  0  0  0  0  0  0  0
   16.5299   20.1210   34.3283 H   0  0  0  0  0  0  0  0  0  0  0  0
   18.2603   21.4805   34.6423 H   0  0  0  0  0  0  0  0  0  0  0  0
   19.8290   21.0054   34.1718 H   0  0  0  0  0  0  0  0  0  0  0  0
   24.1226   14.8150   31.0421 C   0  0  0  0  0  0  0  0  0  0  0  0
   24.5152   14.9911   29.8959 O   0  0  0  0  0  0  0  0  0  0  0  0
   24.4139   13.7437   31.8673 N   0  0  0  0  0  0  0  0  0  0  0  0
   23.9665   13.7333   32.7442 H   0  0  0  0  0  0  0  0  0  0  0  0
   25.2807   12.6637   31.5932 C   0  0  0  0  0  0  0  0  0  0  0  0
   26.4738   12.9589   30.9263 C   0  0  0  0  0  0  0  0  0  0  0  0
   27.3850   11.9465   30.6105 C   0  0  0  0  0  0  0  0  0  0  0  0
   27.1227   10.6082   30.9473 C   0  0  0  0  0  0  0  0  0  0  0  0
   25.9265   10.3202   31.6224 C   0  0  0  0  0  0  0  0  0  0  0  0
   25.5080    8.7085   32.0928 Cl  0  0  0  0  0  0  0  0  0  0  0  0
   25.0139   11.3384   31.9365 C   0  0  0  0  0  0  0  0  0  0  0  0
   28.1468    9.5577   30.6003 C   0  0  0  0  0  0  0  0  0  0  0  0
   28.0875    9.2033   29.1883 N   0  0  0  0  0  0  0  0  0  0  0  0
   27.1661    8.8232   28.9716 H   0  0  0  0  0  0  0  0  0  0  0  0
   28.8008    8.5037   28.9831 H   0  0  0  0  0  0  0  0  0  0  0  0
 11 12  2  0
 12 13  1  0
 12  1  1  0
  1  2  2  0
  2  3  1  0
  3  4  2  0
  4  5  1  0
  5  6  2  0
  6 17  1  0
 17 18  2  0
 17 19  1  0
 19 21  1  0
 21 22  2  0
 22 23  1  0
 23 24  2  0
 24 28  1  0
 28 29  1  0
 24 25  1  0
 25 26  1  0
 25 27  2  0
  6  7  1  0
  7  8  2  0
  8  9  1  0
  9 10  2  0
 10  1  1  0
  9  4  1  0
 27 21  1  0
 11 14  1  0
 13 15  1  0
 13 16  1  0
 19 20  1  0
 29 30  1  0
 29 31  1  0
M  END
> <minimizedAffinity>
-8.45291

> <CNNscore>
0.8729988337

> <CNNaffinity>
6.7044506073

> <CNN_VS>
5.8529777527

> <CNNaffinity_variance>
0.0232428908

$$$$



 31 33  0  0  0  0  0  0  0  0999 V2000
   19.2187   18.5605   33.5087 C   0  0  0  0  0  0  0  0  0  0  0  0
   18.8768   17.5711   32.5851 C   0  0  0  0  0  0  0  0  0  0  0  0
   19.7647   16.5251   32.3266 C   0  0  0  0  0  0  0  0  0  0  0  0
   21.0045   16.4585   32.9829 C   0  0  0  0  0  0  0  0  0  0  0  0
   21.9070   15.4121   32.7293 C   0  0  0  0  0  0  0  0  0  0  0  0
   23.1429   15.3635   33.3879 C   0  0  0  0  0  0  0  0  0  0  0  0
   23.4710   16.3453   34.3261 C   0  0  0  0  0  0  0  0  0  0  0  0
   22.5825   17.3904   34.5858 C   0  0  0  0  0  0  0  0  0  0  0  0
   21.3481   17.4623   33.9217 C   0  0  0  0  0  0  0  0  0  0  0  0
   20.4460   18.5078   34.1763 C   0  0  0  0  0  0  0  0  0  0  0  0
   16.9853   19.4758   33.7961 N   0  0  0  0  0  0  0  0  0  0  0  0
   18.2661   19.6662   33.7805 C   0  0  0  0  0  0  0  0  0  0  0  0
   18.7139   20.9257   34.0237 N   0  0  0  0  0  0  0  0  0  0  0  0
   16.3780   20.2287   33.9794 H   0  0  0  0  0  0  0  0  0  0  0  0
   18.0720   21.6504   34.2026 H   0  0  0  0  0  0  0  0  0  0  0  0
   19.6803   21.1137   34.0210 H   0  0  0  0  0  0  0  0  0  0  0  0
   24.1182   14.2659   33.1384 C   0  0  0  0  0  0  0  0  0  0  0  0
   25.2986   14.4745   33.3872 O   0  0  0  0  0  0  0  0  0  0  0  0
   23.5704   13.1141   32.6027 N   0  0  0  0  0  0  0  0  0  0  0  0
   22.6045   13.1365   32.4139 H   0  0  0  0  0  0  0  0  0  0  0  0
   24.2410   11.9102   32.2964 C   0  0  0  0  0  0  0  0  0  0  0  0
   23.5946   10.7177   32.6362 C   0  0  0  0  0  0  0  0  0  0  0  0
   24.1925    9.4813   32.3738 C   0  0  0  0  0  0  0  0  0  0  0  0
   25.4587    9.4051   31.7703 C   0  0  0  0  0  0  0  0  0  0  0  0
   26.0985   10.6057   31.4259 C   0  0  0  0  0  0  0  0  0  0  0  0
   27.6549   10.6275   30.6702 Cl  0  0  0  0  0  0  0  0  0  0  0  0
   25.4963   11.8446   31.6920 C   0  0  0  0  0  0  0  0  0  0  0  0
   26.0504    8.0466   31.4925 C   0  0  0  0  0  0  0  0  0  0  0  0
   26.4952    7.9332   30.1098 N   0  0  0  0  0  0  0  0  0  0  0  0
   25.6989    8.0594   29.4850 H   0  0  0  0  0  0  0  0  0  0  0  0
   26.9032    7.0107   29.9585 H   0  0  0  0  0  0  0  0  0  0  0  0
 11 12  2  0
 12 13  1  0
 12  1  1  0
  1  2  2  0
  2  3  1  0
  3  4  2  0
  4  5  1  0
  5  6  2  0
  6 17  1  0
 17 18  2  0
 17 19  1  0
 19 21  1  0
 21 22  2  0
 22 23  1  0
 23 24  2  0
 24 28  1  0
 28 29  1  0
 24 25  1  0
 25 26  1  0
 25 27  2  0
  6  7  1  0
  7  8  2  0
  8  9  1  0
  9 10  2  0
 10  1  1  0
  9  4  1  0
 27 21  1  0
 11 14  1  0
 13 15  1  0
 13 16  1  0
 19 20  1  0
 29 30  1  0
 29 31  1  0
M  END
> <minimizedAffinity>
-9.10903

> <CNNscore>
0.8678608537

> <CNNaffinity>
6.6544017792

> <CNN_VS>
5.7750949860

> <CNNaffinity_variance>
0.0173510611

$$$$



 31 33  0  0  0  0  0  0  0  0999 V2000
   25.5994    9.2322   33.9468 C   0  0  0  0  0  0  0  0  0  0  0  0
   24.4123    9.4110   34.6593 C   0  0  0  0  0  0  0  0  0  0  0  0
   23.6473   10.5614   34.4572 C   0  0  0  0  0  0  0  0  0  0  0  0
   24.0615   11.5469   33.5465 C   0  0  0  0  0  0  0  0  0  0  0  0
   23.3012   12.7095   33.3365 C   0  0  0  0  0  0  0  0  0  0  0  0
   23.7314   13.6864   32.4288 C   0  0  0  0  0  0  0  0  0  0  0  0
   24.9098   13.4925   31.7038 C   0  0  0  0  0  0  0  0  0  0  0  0
   25.6741   12.3415   31.9047 C   0  0  0  0  0  0  0  0  0  0  0  0
   25.2652   11.3619   32.8228 C   0  0  0  0  0  0  0  0  0  0  0  0
   26.0249   10.1996   33.0316 C   0  0  0  0  0  0  0  0  0  0  0  0
   26.8437    7.6744   35.3375 N   0  0  0  0  0  0  0  0  0  0  0  0
   26.4037    8.0035   34.1649 C   0  0  0  0  0  0  0  0  0  0  0  0
   26.7064    7.1778   33.1292 N   0  0  0  0  0  0  0  0  0  0  0  0
   27.3748    6.8533   35.4514 H   0  0  0  0  0  0  0  0  0  0  0  0
   27.2406    6.3659   33.2868 H   0  0  0  0  0  0  0  0  0  0  0  0
   26.3915    7.3913   32.2212 H   0  0  0  0  0  0  0  0  0  0  0  0
   22.9452   14.9280   32.1866 C   0  0  0  0  0  0  0  0  0  0  0  0
   23.1828   15.5738   31.1741 O   0  0  0  0  0  0  0  0  0  0  0  0
   22.0352   15.2411   33.1803 N   0  0  0  0  0  0  0  0  0  0  0  0
   22.0114   14.6368   33.9572 H   0  0  0  0  0  0  0  0  0  0  0  0
   21.1369   16.3297   33.2054 C   0  0  0  0  0  0  0  0  0  0  0  0
   21.4288   17.3753   34.0868 C   0  0  0  0  0  0  0  0  0  0  0  0
   20.5872   18.4881   34.1788 C   0  0  0  0  0  0  0  0  0  0  0  0
   19.4249   18.5809   33.3955 C   0  0  0  0  0  0  0  0  0  0  0  0
   19.1417   17.5311   32.5083 C   0  0  0  0  0  0  0  0  0  0  0  0
   17.7426   17.5473   31.4904 Cl  0  0  0  0  0  0  0  0  0  0  0  0
   19.9877   16.4155   32.4196 C   0  0  0  0  0  0  0  0  0  0  0  0
   18.5615   19.8106   33.5197 C   0  0  0  0  0  0  0  0  0  0  0  0
   17.2153   19.4725   33.9623 N   0  0  0  0  0  0  0  0  0  0  0  0
   16.7784   18.8534   33.2795 H   0  0  0  0  0  0  0  0  0  0  0  0
   16.6623   20.3251   34.0508 H   0  0  0  0  0  0  0  0  0  0  0  0
 11 12  2  0
 12 13  1  0
 12  1  1  0
  1  2  2  0
  2  3  1  0
  3  4  2  0
  4  5  1  0
  5  6  2  0
  6 17  1  0
 17 18  2  0
 17 19  1  0
 19 21  1  0
 21 22  2  0
 22 23  1  0
 23 24  2  0
 24 28  1  0
 28 29  1  0
 24 25  1  0
 25 26  1  0
 25 27  2  0
  6  7  1  0
  7  8  2  0
  8  9  1  0
  9 10  2  0
 10  1  1  0
  9  4  1  0
 27 21  1  0
 11 14  1  0
 13 15  1  0
 13 16  1  0
 19 20  1  0
 29 30  1  0
 29 31  1  0
M  END
> <minimizedAffinity>
-7.97275

> <CNNscore>
0.7480474710

> <CNNaffinity>
6.6370902061

> <CNN_VS>
4.9648585320

> <CNNaffinity_variance>
0.2353958338

$$$$



 31 33  0  0  0  0  0  0  0  0999 V2000
   19.1080   18.0517   32.8812 C   0  0  0  0  0  0  0  0  0  0  0  0
   19.3052   16.9270   32.0781 C   0  0  0  0  0  0  0  0  0  0  0  0
   20.5478   16.2904   32.0670 C   0  0  0  0  0  0  0  0  0  0  0  0
   21.6072   16.7723   32.8529 C   0  0  0  0  0  0  0  0  0  0  0  0
   22.8625   16.1415   32.8483 C   0  0  0  0  0  0  0  0  0  0  0  0
   23.9112   16.6385   33.6334 C   0  0  0  0  0  0  0  0  0  0  0  0
   23.7019   17.7523   34.4505 C   0  0  0  0  0  0  0  0  0  0  0  0
   22.4590   18.3880   34.4628 C   0  0  0  0  0  0  0  0  0  0  0  0
   21.4037   17.9123   33.6691 C   0  0  0  0  0  0  0  0  0  0  0  0
   20.1491   18.5426   33.6748 C   0  0  0  0  0  0  0  0  0  0  0  0
   17.4010   19.4685   33.8750 N   0  0  0  0  0  0  0  0  0  0  0  0
   17.7819   18.7191   32.8900 C   0  0  0  0  0  0  0  0  0  0  0  0
   16.9177   18.5622   31.8533 N   0  0  0  0  0  0  0  0  0  0  0  0
   16.5155   19.8982   33.8528 H   0  0  0  0  0  0  0  0  0  0  0  0
   16.0412   19.0101   31.8710 H   0  0  0  0  0  0  0  0  0  0  0  0
   17.1681   18.0006   31.0844 H   0  0  0  0  0  0  0  0  0  0  0  0
   25.2517   15.9894   33.6478 C   0  0  0  0  0  0  0  0  0  0  0  0
   26.0004   16.2312   34.5857 O   0  0  0  0  0  0  0  0  0  0  0  0
   25.5222   15.1934   32.5493 N   0  0  0  0  0  0  0  0  0  0  0  0
   24.8236   15.1521   31.8569 H   0  0  0  0  0  0  0  0  0  0  0  0
   26.6876   14.4337   32.3097 C   0  0  0  0  0  0  0  0  0  0  0  0
   26.5941   13.0504   32.4925 C   0  0  0  0  0  0  0  0  0  0  0  0
   27.7035   12.2257   32.2829 C   0  0  0  0  0  0  0  0  0  0  0  0
   28.9403   12.7646   31.8918 C   0  0  0  0  0  0  0  0  0  0  0  0
   29.0251   14.1528   31.7037 C   0  0  0  0  0  0  0  0  0  0  0  0
   30.4964   14.9203   31.2136 Cl  0  0  0  0  0  0  0  0  0  0  0  0
   27.9102   14.9775   31.9161 C   0  0  0  0  0  0  0  0  0  0  0  0
   30.1000   11.8293   31.6613 C   0  0  0  0  0  0  0  0  0  0  0  0
   30.0704   10.7068   32.5896 N   0  0  0  0  0  0  0  0  0  0  0  0
   30.1367   11.0549   33.5461 H   0  0  0  0  0  0  0  0  0  0  0  0
   30.8570   10.0864   32.3982 H   0  0  0  0  0  0  0  0  0  0  0  0
 11 12  2  0
 12 13  1  0
 12  1  1  0
  1  2  2  0
  2  3  1  0
  3  4  2  0
  4  5  1  0
  5  6  2  0
  6 17  1  0
 17 18  2  0
 17 19  1  0
 19 21  1  0
 21 22  2  0
 22 23  1  0
 23 24  2  0
 24 28  1  0
 28 29  1  0
 24 25  1  0
 25 26  1  0
 25 27  2  0
  6  7  1  0
  7  8  2  0
  8  9  1  0
  9 10  2  0
 10  1  1  0
  9  4  1  0
 27 21  1  0
 11 14  1  0
 13 15  1  0
 13 16  1  0
 19 20  1  0
 29 30  1  0
 29 31  1  0
M  END
> <minimizedAffinity>
-6.72308

> <CNNscore>
0.6078410745

> <CNNaffinity>
5.8820290565

> <CNN_VS>
3.5753388405

> <CNNaffinity_variance>
0.0617507286

$$$$



 31 33  0  0  0  0  0  0  0  0999 V2000
   19.4306   18.4179   33.3710 C   0  0  0  0  0  0  0  0  0  0  0  0
   18.9689   17.3431   32.6091 C   0  0  0  0  0  0  0  0  0  0  0  0
   19.8795   16.5282   31.9336 C   0  0  0  0  0  0  0  0  0  0  0  0
   21.2590   16.7805   32.0074 C   0  0  0  0  0  0  0  0  0  0  0  0
   22.1845   15.9688   31.3302 C   0  0  0  0  0  0  0  0  0  0  0  0
   23.5575   16.2376   31.4089 C   0  0  0  0  0  0  0  0  0  0  0  0
   24.0149   17.3023   32.1893 C   0  0  0  0  0  0  0  0  0  0  0  0
   23.1045   18.1163   32.8659 C   0  0  0  0  0  0  0  0  0  0  0  0
   21.7253   17.8702   32.7833 C   0  0  0  0  0  0  0  0  0  0  0  0
   20.8008   18.6811   33.4610 C   0  0  0  0  0  0  0  0  0  0  0  0
   17.1859   19.2249   33.8383 N   0  0  0  0  0  0  0  0  0  0  0  0
   18.4552   19.2759   34.0895 C   0  0  0  0  0  0  0  0  0  0  0  0
   18.8691   20.1509   35.0430 N   0  0  0  0  0  0  0  0  0  0  0  0
   16.5628   19.8063   34.3312 H   0  0  0  0  0  0  0  0  0  0  0  0
   18.2123   20.7145   35.5124 H   0  0  0  0  0  0  0  0  0  0  0  0
   19.8257   20.2214   35.2646 H   0  0  0  0  0  0  0  0  0  0  0  0
   24.5604   15.3936   30.7016 C   0  0  0  0  0  0  0  0  0  0  0  0
   24.2241   14.8495   29.6578 O   0  0  0  0  0  0  0  0  0  0  0  0
   25.7819   15.2858   31.3417 N   0  0  0  0  0  0  0  0  0  0  0  0
   25.8645   15.7488   32.2066 H   0  0  0  0  0  0  0  0  0  0  0  0
   26.9235   14.5863   30.8938 C   0  0  0  0  0  0  0  0  0  0  0  0
   27.7184   15.2160   29.9310 C   0  0  0  0  0  0  0  0  0  0  0  0
   28.8631   14.5896   29.4289 C   0  0  0  0  0  0  0  0  0  0  0  0
   29.2394   13.3108   29.8718 C   0  0  0  0  0  0  0  0  0  0  0  0
   28.4408   12.6876   30.8431 C   0  0  0  0  0  0  0  0  0  0  0  0
   28.8172   11.1177   31.4656 Cl  0  0  0  0  0  0  0  0  0  0  0  0
   27.2921   13.3186   31.3437 C   0  0  0  0  0  0  0  0  0  0  0  0
   30.4929   12.6877   29.3119 C   0  0  0  0  0  0  0  0  0  0  0  0
   31.6587   13.0207   30.1197 N   0  0  0  0  0  0  0  0  0  0  0  0
   31.7902   14.0322   30.1263 H   0  0  0  0  0  0  0  0  0  0  0  0
   32.4855   12.5729   29.7243 H   0  0  0  0  0  0  0  0  0  0  0  0
 11 12  2  0
 12 13  1  0
 12  1  1  0
  1  2  2  0
  2  3  1  0
  3  4  2  0
  4  5  1  0
  5  6  2  0
  6 17  1  0
 17 18  2  0
 17 19  1  0
 19 21  1  0
 21 22  2  0
 22 23  1  0
 23 24  2  0
 24 28  1  0
 28 29  1  0
 24 25  1  0
 25 26  1  0
 25 27  2  0
  6  7  1  0
  7  8  2  0
  8  9  1  0
  9 10  2  0
 10  1  1  0
  9  4  1  0
 27 21  1  0
 11 14  1  0
 13 15  1  0
 13 16  1  0
 19 20  1  0
 29 30  1  0
 29 31  1  0
M  END
> <minimizedAffinity>
-7.19789

> <CNNscore>
0.6027912498

> <CNNaffinity>
6.2964959145

> <CNN_VS>
3.7954726219

> <CNNaffinity_variance>
0.0877970085

$$$$



 31 33  0  0  0  0  0  0  0  0999 V2000
   20.5597   17.7401   33.2077 C   0  0  0  0  0  0  0  0  0  0  0  0
   20.5583   16.7744   32.1996 C   0  0  0  0  0  0  0  0  0  0  0  0
   21.7572   16.4131   31.5819 C   0  0  0  0  0  0  0  0  0  0  0  0
   22.9683   17.0151   31.9601 C   0  0  0  0  0  0  0  0  0  0  0  0
   24.1805   16.6614   31.3442 C   0  0  0  0  0  0  0  0  0  0  0  0
   25.3796   17.2760   31.7287 C   0  0  0  0  0  0  0  0  0  0  0  0
   25.3776   18.2270   32.7521 C   0  0  0  0  0  0  0  0  0  0  0  0
   24.1790   18.5872   33.3709 C   0  0  0  0  0  0  0  0  0  0  0  0
   22.9675   17.9930   32.9852 C   0  0  0  0  0  0  0  0  0  0  0  0
   21.7564   18.3462   33.6018 C   0  0  0  0  0  0  0  0  0  0  0  0
   19.1959   19.1240   34.6684 N   0  0  0  0  0  0  0  0  0  0  0  0
   19.2807   18.1144   33.8620 C   0  0  0  0  0  0  0  0  0  0  0  0
   18.1474   17.4009   33.6323 N   0  0  0  0  0  0  0  0  0  0  0  0
   18.3338   19.3481   35.0876 H   0  0  0  0  0  0  0  0  0  0  0  0
   17.3054   17.6592   34.0723 H   0  0  0  0  0  0  0  0  0  0  0  0
   18.1683   16.6255   33.0259 H   0  0  0  0  0  0  0  0  0  0  0  0
   26.6786   16.9200   31.0930 C   0  0  0  0  0  0  0  0  0  0  0  0
   27.5563   16.4427   31.8005 O   0  0  0  0  0  0  0  0  0  0  0  0
   26.7630   17.2121   29.7435 N   0  0  0  0  0  0  0  0  0  0  0  0
   25.9770   17.6468   29.3405 H   0  0  0  0  0  0  0  0  0  0  0  0
   27.8497   16.9569   28.8794 C   0  0  0  0  0  0  0  0  0  0  0  0
   28.4211   18.0576   28.2333 C   0  0  0  0  0  0  0  0  0  0  0  0
   29.4967   17.8916   27.3557 C   0  0  0  0  0  0  0  0  0  0  0  0
   30.0254   16.6167   27.0945 C   0  0  0  0  0  0  0  0  0  0  0  0
   29.4516   15.5174   27.7515 C   0  0  0  0  0  0  0  0  0  0  0  0
   30.0304   13.9047   27.5105 Cl  0  0  0  0  0  0  0  0  0  0  0  0
   28.3714   15.6875   28.6305 C   0  0  0  0  0  0  0  0  0  0  0  0
   31.1975   16.4950   26.1542 C   0  0  0  0  0  0  0  0  0  0  0  0
   30.9214   17.1351   24.8749 N   0  0  0  0  0  0  0  0  0  0  0  0
   30.1206   16.6826   24.4341 H   0  0  0  0  0  0  0  0  0  0  0  0
   31.7370   17.0489   24.2685 H   0  0  0  0  0  0  0  0  0  0  0  0
 11 12  2  0
 12 13  1  0
 12  1  1  0
  1  2  2  0
  2  3  1  0
  3  4  2  0
  4  5  1  0
  5  6  2  0
  6 17  1  0
 17 18  2  0
 17 19  1  0
 19 21  1  0
 21 22  2  0
 22 23  1  0
 23 24  2  0
 24 28  1  0
 28 29  1  0
 24 25  1  0
 25 26  1  0
 25 27  2  0
  6  7  1  0
  7  8  2  0
  8  9  1  0
  9 10  2  0
 10  1  1  0
  9  4  1  0
 27 21  1  0
 11 14  1  0
 13 15  1  0
 13 16  1  0
 19 20  1  0
 29 30  1  0
 29 31  1  0
M  END
> <minimizedAffinity>
-6.74314

> <CNNscore>
0.2872597575

> <CNNaffinity>
5.4107356071

> <CNN_VS>
1.5542865992

> <CNNaffinity_variance>
0.2587521970

$$$$



 31 33  0  0  0  0  0  0  0  0999 V2000
   30.2484   15.7738   26.1176 C   0  0  0  0  0  0  0  0  0  0  0  0
   29.6270   16.1983   27.2934 C   0  0  0  0  0  0  0  0  0  0  0  0
   29.0264   15.2632   28.1386 C   0  0  0  0  0  0  0  0  0  0  0  0
   29.0353   13.8962   27.8167 C   0  0  0  0  0  0  0  0  0  0  0  0
   28.4323   12.9464   28.6581 C   0  0  0  0  0  0  0  0  0  0  0  0
   28.4443   11.5867   28.3195 C   0  0  0  0  0  0  0  0  0  0  0  0
   29.0853   11.1657   27.1518 C   0  0  0  0  0  0  0  0  0  0  0  0
   29.6872   12.1005   26.3074 C   0  0  0  0  0  0  0  0  0  0  0  0
   29.6688   13.4677   26.6242 C   0  0  0  0  0  0  0  0  0  0  0  0
   30.2724   14.4164   25.7833 C   0  0  0  0  0  0  0  0  0  0  0  0
   31.0342   18.0113   25.5840 N   0  0  0  0  0  0  0  0  0  0  0  0
   30.8884   16.7749   25.2276 C   0  0  0  0  0  0  0  0  0  0  0  0
   31.3456   16.4206   23.9982 N   0  0  0  0  0  0  0  0  0  0  0  0
   31.4627   18.6526   24.9722 H   0  0  0  0  0  0  0  0  0  0  0  0
   31.7682   17.0938   23.4173 H   0  0  0  0  0  0  0  0  0  0  0  0
   31.2543   15.4906   23.6882 H   0  0  0  0  0  0  0  0  0  0  0  0
   27.8131   10.5587   29.1930 C   0  0  0  0  0  0  0  0  0  0  0  0
   26.7328   10.8208   29.7057 O   0  0  0  0  0  0  0  0  0  0  0  0
   28.5577    9.4052   29.3620 N   0  0  0  0  0  0  0  0  0  0  0  0
   29.4356    9.3826   28.9169 H   0  0  0  0  0  0  0  0  0  0  0  0
   28.2001    8.2568   30.1011 C   0  0  0  0  0  0  0  0  0  0  0  0
   27.8692    7.1094   29.3734 C   0  0  0  0  0  0  0  0  0  0  0  0
   27.4972    5.9312   30.0278 C   0  0  0  0  0  0  0  0  0  0  0  0
   27.4386    5.8716   31.4300 C   0  0  0  0  0  0  0  0  0  0  0  0
   27.7786    7.0248   32.1540 C   0  0  0  0  0  0  0  0  0  0  0  0
   27.7499    7.0594   33.8837 Cl  0  0  0  0  0  0  0  0  0  0  0  0
   28.1501    8.2058   31.4940 C   0  0  0  0  0  0  0  0  0  0  0  0
   27.0494    4.5714   32.0863 C   0  0  0  0  0  0  0  0  0  0  0  0
   26.3902    3.6767   31.1440 N   0  0  0  0  0  0  0  0  0  0  0  0
   25.5384    4.1170   30.7962 H   0  0  0  0  0  0  0  0  0  0  0  0
   26.1539    2.8026   31.6135 H   0  0  0  0  0  0  0  0  0  0  0  0
 11 12  2  0
 12 13  1  0
 12  1  1  0
  1  2  2  0
  2  3  1  0
  3  4  2  0
  4  5  1  0
  5  6  2  0
  6 17  1  0
 17 18  2  0
 17 19  1  0
 19 21  1  0
 21 22  2  0
 22 23  1  0
 23 24  2  0
 24 28  1  0
 28 29  1  0
 24 25  1  0
 25 26  1  0
 25 27  2  0
  6  7  1  0
  7  8  2  0
  8  9  1  0
  9 10  2  0
 10  1  1  0
  9  4  1  0
 27 21  1  0
 11 14  1  0
 13 15  1  0
 13 16  1  0
 19 20  1  0
 29 30  1  0
 29 31  1  0
M  END
> <minimizedAffinity>
-6.40222

> <CNNscore>
0.2107132226

> <CNNaffinity>
4.5231957436

> <CNN_VS>
0.9530971646

> <CNNaffinity_variance>
0.2774434984

$$$$
