


 37 41  0  0  0  0  0  0  0  0999 V2000
    6.5551   -6.6573   -0.7735 C   0  0  0  0  0  0  0  0  0  0  0  0
    7.6093   -7.0803   -1.4864 N   0  0  0  0  0  0  0  0  0  0  0  0
    7.3608   -7.5934   -2.7057 C   0  0  0  0  0  0  0  0  0  0  0  0
    6.1028   -7.6892   -3.2519 C   0  0  0  0  0  0  0  0  0  0  0  0
    5.0733   -7.2378   -2.4523 C   0  0  0  0  0  0  0  0  0  0  0  0
    5.2958   -6.7126   -1.2255 N   0  0  0  0  0  0  0  0  0  0  0  0
    3.6639   -7.2463   -2.8942 C   0  0  0  0  0  0  0  0  0  0  0  0
    2.8217   -6.1750   -2.5197 C   0  0  0  0  0  0  0  0  0  0  0  0
    1.4899   -6.1038   -2.9352 C   0  0  0  0  0  0  0  0  0  0  0  0
    0.9709   -7.1049   -3.7436 C   0  0  0  0  0  0  0  0  0  0  0  0
   -0.6628   -7.0183   -4.2738 Cl  0  0  0  0  0  0  0  0  0  0  0  0
    1.7652   -8.1814   -4.1273 C   0  0  0  0  0  0  0  0  0  0  0  0
    3.1024   -8.2673   -3.6943 C   0  0  0  0  0  0  0  0  0  0  0  0
    3.8762   -9.4883   -4.0994 C   0  0  0  0  0  0  0  0  0  0  0  0
    5.0981   -9.5032   -4.5171 N   0  0  0  0  0  0  0  0  0  0  0  0
    5.8485   -8.2588   -4.6051 C   0  0  0  0  0  0  0  0  0  0  0  0
    3.1947  -10.8034   -4.0006 C   0  0  0  0  0  0  0  0  0  0  0  0
    3.2491  -11.5401   -2.8180 C   0  0  0  0  0  0  0  0  0  0  0  0
    3.9020  -11.0675   -1.7468 F   0  0  0  0  0  0  0  0  0  0  0  0
    2.6337  -12.7859   -2.7236 C   0  0  0  0  0  0  0  0  0  0  0  0
    1.9596  -13.2994   -3.8300 C   0  0  0  0  0  0  0  0  0  0  0  0
    1.1193  -14.9876   -3.7139 Br  0  0  0  0  0  0  0  0  0  0  0  0
    1.8966  -12.5769   -5.0203 C   0  0  0  0  0  0  0  0  0  0  0  0
    2.5178  -11.3321   -5.0986 C   0  0  0  0  0  0  0  0  0  0  0  0
    2.4102  -10.6389   -6.2411 F   0  0  0  0  0  0  0  0  0  0  0  0
    6.8665   -6.1261    0.4745 N   0  0  0  0  0  0  0  0  0  0  0  0
    6.7478   -6.7717    1.2083 H   0  0  0  0  0  0  0  0  0  0  0  0
    8.3323   -2.4142    1.8756 C   0  0  0  0  0  0  0  0  0  0  0  0
    7.5926   -2.4612    0.6917 C   0  0  0  0  0  0  0  0  0  0  0  0
    7.0937   -3.6815    0.2173 C   0  0  0  0  0  0  0  0  0  0  0  0
    7.3112   -4.8755    0.9130 C   0  0  0  0  0  0  0  0  0  0  0  0
    8.0655   -4.8107    2.0969 C   0  0  0  0  0  0  0  0  0  0  0  0
    8.5695   -3.5966    2.5794 C   0  0  0  0  0  0  0  0  0  0  0  0
    9.5214   -0.9083    3.3305 O   0  0  0  0  0  0  0  0  0  0  0  0
    8.8423   -1.1016    2.3391 C   0  0  0  0  0  0  0  0  0  0  0  0
    8.4769   -0.0864    1.5360 O   0  0  0  0  0  0  0  0  0  0  0  0
    7.9538   -0.2545    0.7770 H   0  0  0  0  0  0  0  0  0  0  0  0
 34 35  2  0
 35 36  1  0
 35 28  1  0
 28 29  2  0
 29 30  1  0
 30 31  2  0
 31 26  1  0
 26  1  1  0
  1  2  2  0
  2  3  1  0
  3  4  2  0
  4  5  1  0
  5  6  2  0
  5  7  1  0
  7  8  2  0
  8  9  1  0
  9 10  2  0
 10 11  1  0
 10 12  1  0
 12 13  2  0
 13 14  1  0
 14 17  1  0
 17 18  2  0
 18 19  1  0
 18 20  1  0
 20 21  2  0
 21 22  1  0
 21 23  1  0
 23 24  2  0
 24 25  1  0
 14 15  2  0
 15 16  1  0
 31 32  1  0
 32 33  2  0
 33 28  1  0
  6  1  1  0
 13  7  1  0
 24 17  1  0
 16  4  1  0
 36 37  1  0
 26 27  1  0
M  END
> <minimizedAffinity>
-8.49395

> <CNNscore>
0.1057469100

> <CNNaffinity>
6.7400207520

> <CNN_VS>
0.7127363682

> <CNNaffinity_variance>
0.4249921739

$$$$



 37 41  0  0  0  0  0  0  0  0999 V2000
    9.3039   -4.8413    2.0083 C   0  0  0  0  0  0  0  0  0  0  0  0
    8.2963   -5.4068    2.6889 N   0  0  0  0  0  0  0  0  0  0  0  0
    8.5236   -5.7172    3.9788 C   0  0  0  0  0  0  0  0  0  0  0  0
    9.7123   -5.4730    4.6248 C   0  0  0  0  0  0  0  0  0  0  0  0
   10.6987   -4.8946    3.8531 C   0  0  0  0  0  0  0  0  0  0  0  0
   10.4949   -4.5677    2.5562 N   0  0  0  0  0  0  0  0  0  0  0  0
   12.0267   -4.5437    4.3961 C   0  0  0  0  0  0  0  0  0  0  0  0
   12.6579   -3.3599    3.9517 C   0  0  0  0  0  0  0  0  0  0  0  0
   13.8963   -2.9517    4.4527 C   0  0  0  0  0  0  0  0  0  0  0  0
   14.5306   -3.7198    5.4185 C   0  0  0  0  0  0  0  0  0  0  0  0
   16.0479   -3.2175    6.0534 Cl  0  0  0  0  0  0  0  0  0  0  0  0
   13.9462   -4.8970    5.8762 C   0  0  0  0  0  0  0  0  0  0  0  0
   12.7074   -5.3226    5.3593 C   0  0  0  0  0  0  0  0  0  0  0  0
   12.1711   -6.6331    5.8582 C   0  0  0  0  0  0  0  0  0  0  0  0
   10.9442   -6.8722    6.1822 N   0  0  0  0  0  0  0  0  0  0  0  0
    9.9437   -5.8222    6.0547 C   0  0  0  0  0  0  0  0  0  0  0  0
   13.1205   -7.7680    5.9789 C   0  0  0  0  0  0  0  0  0  0  0  0
   13.2210   -8.4808    7.1730 C   0  0  0  0  0  0  0  0  0  0  0  0
   12.4525   -8.1655    8.2251 F   0  0  0  0  0  0  0  0  0  0  0  0
   14.1261   -9.5313    7.3037 C   0  0  0  0  0  0  0  0  0  0  0  0
   14.9419   -9.8671    6.2249 C   0  0  0  0  0  0  0  0  0  0  0  0
   16.1726  -11.2912    6.3892 Br  0  0  0  0  0  0  0  0  0  0  0  0
   14.8553   -9.1642    5.0244 C   0  0  0  0  0  0  0  0  0  0  0  0
   13.9449   -8.1155    4.9098 C   0  0  0  0  0  0  0  0  0  0  0  0
   13.8524   -7.4800    3.7330 F   0  0  0  0  0  0  0  0  0  0  0  0
    9.0145   -4.5304    0.6831 N   0  0  0  0  0  0  0  0  0  0  0  0
    8.0807   -4.2491    0.5486 H   0  0  0  0  0  0  0  0  0  0  0  0
   11.2788   -4.3729   -2.8860 C   0  0  0  0  0  0  0  0  0  0  0  0
   11.3515   -5.5059   -2.0724 C   0  0  0  0  0  0  0  0  0  0  0  0
   10.6026   -5.5774   -0.8905 C   0  0  0  0  0  0  0  0  0  0  0  0
    9.7611   -4.5307   -0.4988 C   0  0  0  0  0  0  0  0  0  0  0  0
    9.7077   -3.3948   -1.3244 C   0  0  0  0  0  0  0  0  0  0  0  0
   10.4527   -3.3128   -2.5073 C   0  0  0  0  0  0  0  0  0  0  0  0
   13.1805   -3.8143   -4.2533 O   0  0  0  0  0  0  0  0  0  0  0  0
   12.0900   -4.3398   -4.1264 C   0  0  0  0  0  0  0  0  0  0  0  0
   11.4957   -4.9692   -5.1559 O   0  0  0  0  0  0  0  0  0  0  0  0
   10.6559   -5.3680   -5.0393 H   0  0  0  0  0  0  0  0  0  0  0  0
 34 35  2  0
 35 36  1  0
 35 28  1  0
 28 29  2  0
 29 30  1  0
 30 31  2  0
 31 26  1  0
 26  1  1  0
  1  2  2  0
  2  3  1  0
  3  4  2  0
  4  5  1  0
  5  6  2  0
  5  7  1  0
  7  8  2  0
  8  9  1  0
  9 10  2  0
 10 11  1  0
 10 12  1  0
 12 13  2  0
 13 14  1  0
 14 17  1  0
 17 18  2  0
 18 19  1  0
 18 20  1  0
 20 21  2  0
 21 22  1  0
 21 23  1  0
 23 24  2  0
 24 25  1  0
 14 15  2  0
 15 16  1  0
 31 32  1  0
 32 33  2  0
 33 28  1  0
  6  1  1  0
 13  7  1  0
 24 17  1  0
 16  4  1  0
 36 37  1  0
 26 27  1  0
M  END
> <minimizedAffinity>
-5.59020

> <CNNscore>
0.0986271724

> <CNNaffinity>
5.0695691109

> <CNN_VS>
0.4999972582

> <CNNaffinity_variance>
0.2414088100

$$$$



 37 41  0  0  0  0  0  0  0  0999 V2000
    8.5632  -11.6202   -3.7248 C   0  0  0  0  0  0  0  0  0  0  0  0
    8.6272  -11.9719   -5.0173 N   0  0  0  0  0  0  0  0  0  0  0  0
    7.8159  -11.3217   -5.8722 C   0  0  0  0  0  0  0  0  0  0  0  0
    6.9515  -10.3221   -5.4937 C   0  0  0  0  0  0  0  0  0  0  0  0
    6.9422  -10.0246   -4.1467 C   0  0  0  0  0  0  0  0  0  0  0  0
    7.7511  -10.6589   -3.2670 N   0  0  0  0  0  0  0  0  0  0  0  0
    6.0907   -8.9617   -3.5751 C   0  0  0  0  0  0  0  0  0  0  0  0
    6.5990   -8.1684   -2.5218 C   0  0  0  0  0  0  0  0  0  0  0  0
    5.8597   -7.1235   -1.9625 C   0  0  0  0  0  0  0  0  0  0  0  0
    4.5916   -6.8442   -2.4515 C   0  0  0  0  0  0  0  0  0  0  0  0
    3.6798   -5.5496   -1.7806 Cl  0  0  0  0  0  0  0  0  0  0  0  0
    4.0515   -7.6077   -3.4822 C   0  0  0  0  0  0  0  0  0  0  0  0
    4.7854   -8.6747   -4.0354 C   0  0  0  0  0  0  0  0  0  0  0  0
    4.1115   -9.4893   -5.1012 C   0  0  0  0  0  0  0  0  0  0  0  0
    4.6618   -9.9085   -6.1916 N   0  0  0  0  0  0  0  0  0  0  0  0
    6.0625   -9.6125   -6.4562 C   0  0  0  0  0  0  0  0  0  0  0  0
    2.6919   -9.8679   -4.8885 C   0  0  0  0  0  0  0  0  0  0  0  0
    2.3604  -11.1510   -4.4549 C   0  0  0  0  0  0  0  0  0  0  0  0
    3.3160  -12.0578   -4.2071 F   0  0  0  0  0  0  0  0  0  0  0  0
    1.0303  -11.5230   -4.2761 C   0  0  0  0  0  0  0  0  0  0  0  0
    0.0218  -10.5979   -4.5394 C   0  0  0  0  0  0  0  0  0  0  0  0
   -1.7864  -11.0901   -4.2990 Br  0  0  0  0  0  0  0  0  0  0  0  0
    0.3355   -9.3115   -4.9747 C   0  0  0  0  0  0  0  0  0  0  0  0
    1.6711   -8.9549   -5.1490 C   0  0  0  0  0  0  0  0  0  0  0  0
    1.9494   -7.7002   -5.5307 F   0  0  0  0  0  0  0  0  0  0  0  0
    9.4289  -12.3143   -2.8849 N   0  0  0  0  0  0  0  0  0  0  0  0
    8.9836  -13.0353   -2.3838 H   0  0  0  0  0  0  0  0  0  0  0  0
   13.5240  -11.8777   -1.9208 C   0  0  0  0  0  0  0  0  0  0  0  0
   13.0339  -13.1301   -2.2980 C   0  0  0  0  0  0  0  0  0  0  0  0
   11.6816  -13.2906   -2.6275 C   0  0  0  0  0  0  0  0  0  0  0  0
   10.7931  -12.2105   -2.5977 C   0  0  0  0  0  0  0  0  0  0  0  0
   11.3015  -10.9601   -2.2067 C   0  0  0  0  0  0  0  0  0  0  0  0
   12.6510  -10.7890   -1.8746 C   0  0  0  0  0  0  0  0  0  0  0  0
   15.5621  -10.7149   -1.3803 O   0  0  0  0  0  0  0  0  0  0  0  0
   14.9613  -11.7546   -1.5788 C   0  0  0  0  0  0  0  0  0  0  0  0
   15.5831  -12.9447   -1.5007 O   0  0  0  0  0  0  0  0  0  0  0  0
   15.1041  -13.7347   -1.6568 H   0  0  0  0  0  0  0  0  0  0  0  0
 34 35  2  0
 35 36  1  0
 35 28  1  0
 28 29  2  0
 29 30  1  0
 30 31  2  0
 31 26  1  0
 26  1  1  0
  1  2  2  0
  2  3  1  0
  3  4  2  0
  4  5  1  0
  5  6  2  0
  5  7  1  0
  7  8  2  0
  8  9  1  0
  9 10  2  0
 10 11  1  0
 10 12  1  0
 12 13  2  0
 13 14  1  0
 14 17  1  0
 17 18  2  0
 18 19  1  0
 18 20  1  0
 20 21  2  0
 21 22  1  0
 21 23  1  0
 23 24  2  0
 24 25  1  0
 14 15  2  0
 15 16  1  0
 31 32  1  0
 32 33  2  0
 33 28  1  0
  6  1  1  0
 13  7  1  0
 24 17  1  0
 16  4  1  0
 36 37  1  0
 26 27  1  0
M  END
> <minimizedAffinity>
-7.95765

> <CNNscore>
0.0975909159

> <CNNaffinity>
6.4698162079

> <CNN_VS>
0.6313952804

> <CNNaffinity_variance>
0.5491858125

$$$$



 37 41  0  0  0  0  0  0  0  0999 V2000
    8.1166  -11.3173   -3.7355 C   0  0  0  0  0  0  0  0  0  0  0  0
    8.2472  -11.3080   -5.0701 N   0  0  0  0  0  0  0  0  0  0  0  0
    7.4420  -10.4794   -5.7608 C   0  0  0  0  0  0  0  0  0  0  0  0
    6.5195   -9.6462   -5.1737 C   0  0  0  0  0  0  0  0  0  0  0  0
    6.4439   -9.7206   -3.7983 C   0  0  0  0  0  0  0  0  0  0  0  0
    7.2450  -10.5405   -3.0796 N   0  0  0  0  0  0  0  0  0  0  0  0
    5.5239   -8.8777   -3.0079 C   0  0  0  0  0  0  0  0  0  0  0  0
    5.9543   -8.3792   -1.7576 C   0  0  0  0  0  0  0  0  0  0  0  0
    5.1477   -7.5467   -0.9782 C   0  0  0  0  0  0  0  0  0  0  0  0
    3.8886   -7.1881   -1.4379 C   0  0  0  0  0  0  0  0  0  0  0  0
    2.8942   -6.1506   -0.4934 Cl  0  0  0  0  0  0  0  0  0  0  0  0
    3.4242   -7.6650   -2.6602 C   0  0  0  0  0  0  0  0  0  0  0  0
    4.2262   -8.5206   -3.4398 C   0  0  0  0  0  0  0  0  0  0  0  0
    3.6320   -9.0416   -4.7161 C   0  0  0  0  0  0  0  0  0  0  0  0
    4.2429   -9.1356   -5.8499 N   0  0  0  0  0  0  0  0  0  0  0  0
    5.6383   -8.7342   -5.9560 C   0  0  0  0  0  0  0  0  0  0  0  0
    2.2234   -9.5093   -4.6829 C   0  0  0  0  0  0  0  0  0  0  0  0
    1.1760   -8.6110   -4.8838 C   0  0  0  0  0  0  0  0  0  0  0  0
    1.4222   -7.3158   -5.1263 F   0  0  0  0  0  0  0  0  0  0  0  0
   -0.1493   -9.0357   -4.8301 C   0  0  0  0  0  0  0  0  0  0  0  0
   -0.4261  -10.3762   -4.5680 C   0  0  0  0  0  0  0  0  0  0  0  0
   -2.2199  -10.9649   -4.4944 Br  0  0  0  0  0  0  0  0  0  0  0  0
    0.6088  -11.2872   -4.3636 C   0  0  0  0  0  0  0  0  0  0  0  0
    1.9294  -10.8464   -4.4201 C   0  0  0  0  0  0  0  0  0  0  0  0
    2.9080  -11.7485   -4.2591 F   0  0  0  0  0  0  0  0  0  0  0  0
    8.9786  -12.1824   -3.0682 N   0  0  0  0  0  0  0  0  0  0  0  0
    8.7101  -12.3505   -2.1361 H   0  0  0  0  0  0  0  0  0  0  0  0
   12.4336  -14.2814   -4.3125 C   0  0  0  0  0  0  0  0  0  0  0  0
   12.5530  -13.2460   -3.3826 C   0  0  0  0  0  0  0  0  0  0  0  0
   11.4178  -12.5453   -2.9544 C   0  0  0  0  0  0  0  0  0  0  0  0
   10.1429  -12.8646   -3.4335 C   0  0  0  0  0  0  0  0  0  0  0  0
   10.0427  -13.9025   -4.3755 C   0  0  0  0  0  0  0  0  0  0  0  0
   11.1709  -14.6086   -4.8108 C   0  0  0  0  0  0  0  0  0  0  0  0
   14.7695  -14.5036   -4.8528 O   0  0  0  0  0  0  0  0  0  0  0  0
   13.6616  -14.9942   -4.7386 C   0  0  0  0  0  0  0  0  0  0  0  0
   13.4448  -16.2950   -5.0035 O   0  0  0  0  0  0  0  0  0  0  0  0
   12.5848  -16.6552   -4.9100 H   0  0  0  0  0  0  0  0  0  0  0  0
 34 35  2  0
 35 36  1  0
 35 28  1  0
 28 29  2  0
 29 30  1  0
 30 31  2  0
 31 26  1  0
 26  1  1  0
  1  2  2  0
  2  3  1  0
  3  4  2  0
  4  5  1  0
  5  6  2  0
  5  7  1  0
  7  8  2  0
  8  9  1  0
  9 10  2  0
 10 11  1  0
 10 12  1  0
 12 13  2  0
 13 14  1  0
 14 17  1  0
 17 18  2  0
 18 19  1  0
 18 20  1  0
 20 21  2  0
 21 22  1  0
 21 23  1  0
 23 24  2  0
 24 25  1  0
 14 15  2  0
 15 16  1  0
 31 32  1  0
 32 33  2  0
 33 28  1  0
  6  1  1  0
 13  7  1  0
 24 17  1  0
 16  4  1  0
 36 37  1  0
 26 27  1  0
M  END
> <minimizedAffinity>
-7.51030

> <CNNscore>
0.0922895893

> <CNNaffinity>
6.6946616173

> <CNN_VS>
0.6178475618

> <CNNaffinity_variance>
0.5039584637

$$$$



 37 41  0  0  0  0  0  0  0  0999 V2000
    8.3960   -5.9100    2.7565 C   0  0  0  0  0  0  0  0  0  0  0  0
    8.6294   -7.0661    3.3946 N   0  0  0  0  0  0  0  0  0  0  0  0
    8.7798   -7.0111    4.7311 C   0  0  0  0  0  0  0  0  0  0  0  0
    8.6922   -5.8501    5.4621 C   0  0  0  0  0  0  0  0  0  0  0  0
    8.4560   -4.7049    4.7302 C   0  0  0  0  0  0  0  0  0  0  0  0
    8.2956   -4.7329    3.3871 N   0  0  0  0  0  0  0  0  0  0  0  0
    8.3100   -3.3771    5.3604 C   0  0  0  0  0  0  0  0  0  0  0  0
    7.3651   -2.4682    4.8328 C   0  0  0  0  0  0  0  0  0  0  0  0
    7.1515   -1.2116    5.4045 C   0  0  0  0  0  0  0  0  0  0  0  0
    7.8781   -0.8375    6.5257 C   0  0  0  0  0  0  0  0  0  0  0  0
    7.6112    0.7008    7.2466 Cl  0  0  0  0  0  0  0  0  0  0  0  0
    8.8244   -1.7005    7.0705 C   0  0  0  0  0  0  0  0  0  0  0  0
    9.0571   -2.9601    6.4855 C   0  0  0  0  0  0  0  0  0  0  0  0
   10.1358   -3.8087    7.0936 C   0  0  0  0  0  0  0  0  0  0  0  0
   10.0626   -5.0791    7.3137 N   0  0  0  0  0  0  0  0  0  0  0  0
    8.8597   -5.8102    6.9422 C   0  0  0  0  0  0  0  0  0  0  0  0
   11.4112   -3.1455    7.4642 C   0  0  0  0  0  0  0  0  0  0  0  0
   11.6514   -2.7638    8.7837 C   0  0  0  0  0  0  0  0  0  0  0  0
   10.7445   -3.0032    9.7413 F   0  0  0  0  0  0  0  0  0  0  0  0
   12.8344   -2.1191    9.1365 C   0  0  0  0  0  0  0  0  0  0  0  0
   13.7849   -1.8511    8.1531 C   0  0  0  0  0  0  0  0  0  0  0  0
   15.3945   -0.9786    8.6196 Br  0  0  0  0  0  0  0  0  0  0  0  0
   13.5603   -2.2247    6.8292 C   0  0  0  0  0  0  0  0  0  0  0  0
   12.3715   -2.8686    6.4924 C   0  0  0  0  0  0  0  0  0  0  0  0
   12.1953   -3.2530    5.2201 F   0  0  0  0  0  0  0  0  0  0  0  0
    8.2376   -6.0227    1.3785 N   0  0  0  0  0  0  0  0  0  0  0  0
    7.5134   -6.6387    1.1232 H   0  0  0  0  0  0  0  0  0  0  0  0
   10.0515   -4.2337   -1.9979 C   0  0  0  0  0  0  0  0  0  0  0  0
   10.8133   -4.4747   -0.8522 C   0  0  0  0  0  0  0  0  0  0  0  0
   10.2298   -5.0730    0.2724 C   0  0  0  0  0  0  0  0  0  0  0  0
    8.8831   -5.4515    0.2779 C   0  0  0  0  0  0  0  0  0  0  0  0
    8.1296   -5.1927   -0.8798 C   0  0  0  0  0  0  0  0  0  0  0  0
    8.7027   -4.5945   -2.0088 C   0  0  0  0  0  0  0  0  0  0  0  0
   11.0044   -2.4201   -3.2632 O   0  0  0  0  0  0  0  0  0  0  0  0
   10.7097   -3.5968   -3.1636 C   0  0  0  0  0  0  0  0  0  0  0  0
   10.9700   -4.4668   -4.1558 O   0  0  0  0  0  0  0  0  0  0  0  0
   10.7359   -5.3691   -4.0612 H   0  0  0  0  0  0  0  0  0  0  0  0
 34 35  2  0
 35 36  1  0
 35 28  1  0
 28 29  2  0
 29 30  1  0
 30 31  2  0
 31 26  1  0
 26  1  1  0
  1  2  2  0
  2  3  1  0
  3  4  2  0
  4  5  1  0
  5  6  2  0
  5  7  1  0
  7  8  2  0
  8  9  1  0
  9 10  2  0
 10 11  1  0
 10 12  1  0
 12 13  2  0
 13 14  1  0
 14 17  1  0
 17 18  2  0
 18 19  1  0
 18 20  1  0
 20 21  2  0
 21 22  1  0
 21 23  1  0
 23 24  2  0
 24 25  1  0
 14 15  2  0
 15 16  1  0
 31 32  1  0
 32 33  2  0
 33 28  1  0
  6  1  1  0
 13  7  1  0
 24 17  1  0
 16  4  1  0
 36 37  1  0
 26 27  1  0
M  END
> <minimizedAffinity>
-5.66373

> <CNNscore>
0.0917550921

> <CNNaffinity>
5.4150185585

> <CNN_VS>
0.4968555272

> <CNNaffinity_variance>
0.1595967710

$$$$



 37 41  0  0  0  0  0  0  0  0999 V2000
    5.6307   -4.0666    0.5616 C   0  0  0  0  0  0  0  0  0  0  0  0
    5.3907   -3.1470    1.5076 N   0  0  0  0  0  0  0  0  0  0  0  0
    6.4114   -2.3408    1.8543 C   0  0  0  0  0  0  0  0  0  0  0  0
    7.6611   -2.4035    1.2849 C   0  0  0  0  0  0  0  0  0  0  0  0
    7.8270   -3.3800    0.3248 C   0  0  0  0  0  0  0  0  0  0  0  0
    6.8166   -4.1996   -0.0462 N   0  0  0  0  0  0  0  0  0  0  0  0
    9.0985   -3.5687   -0.4029 C   0  0  0  0  0  0  0  0  0  0  0  0
    9.0594   -3.9197   -1.7713 C   0  0  0  0  0  0  0  0  0  0  0  0
   10.2244   -4.0765   -2.5260 C   0  0  0  0  0  0  0  0  0  0  0  0
   11.4600   -3.8786   -1.9265 C   0  0  0  0  0  0  0  0  0  0  0  0
   12.8995   -4.0535   -2.8508 Cl  0  0  0  0  0  0  0  0  0  0  0  0
   11.5415   -3.5406   -0.5789 C   0  0  0  0  0  0  0  0  0  0  0  0
   10.3703   -3.4011    0.1905 C   0  0  0  0  0  0  0  0  0  0  0  0
   10.5423   -3.0950    1.6501 C   0  0  0  0  0  0  0  0  0  0  0  0
    9.8483   -2.2440    2.3297 N   0  0  0  0  0  0  0  0  0  0  0  0
    8.7779   -1.5002    1.6812 C   0  0  0  0  0  0  0  0  0  0  0  0
   11.5877   -3.8410    2.3947 C   0  0  0  0  0  0  0  0  0  0  0  0
   12.8084   -3.2373    2.6941 C   0  0  0  0  0  0  0  0  0  0  0  0
   13.0528   -1.9705    2.3303 F   0  0  0  0  0  0  0  0  0  0  0  0
   13.8044   -3.9372    3.3707 C   0  0  0  0  0  0  0  0  0  0  0  0
   13.5737   -5.2590    3.7474 C   0  0  0  0  0  0  0  0  0  0  0  0
   14.9165   -6.2184    4.6673 Br  0  0  0  0  0  0  0  0  0  0  0  0
   12.3597   -5.8781    3.4550 C   0  0  0  0  0  0  0  0  0  0  0  0
   11.3735   -5.1644    2.7771 C   0  0  0  0  0  0  0  0  0  0  0  0
   10.2001   -5.7685    2.5419 F   0  0  0  0  0  0  0  0  0  0  0  0
    4.5409   -4.8669    0.2322 N   0  0  0  0  0  0  0  0  0  0  0  0
    3.7336   -4.6515    0.7528 H   0  0  0  0  0  0  0  0  0  0  0  0
    3.9531   -8.1263   -2.3987 C   0  0  0  0  0  0  0  0  0  0  0  0
    3.4251   -6.8745   -2.7226 C   0  0  0  0  0  0  0  0  0  0  0  0
    3.6167   -5.7826   -1.8658 C   0  0  0  0  0  0  0  0  0  0  0  0
    4.3431   -5.9102   -0.6771 C   0  0  0  0  0  0  0  0  0  0  0  0
    4.8588   -7.1790   -0.3625 C   0  0  0  0  0  0  0  0  0  0  0  0
    4.6723   -8.2770   -1.2113 C   0  0  0  0  0  0  0  0  0  0  0  0
    3.9209   -9.2375   -4.5346 O   0  0  0  0  0  0  0  0  0  0  0  0
    3.7242   -9.2538   -3.3336 C   0  0  0  0  0  0  0  0  0  0  0  0
    3.2574  -10.3553   -2.7188 O   0  0  0  0  0  0  0  0  0  0  0  0
    3.1122  -10.3491   -1.7932 H   0  0  0  0  0  0  0  0  0  0  0  0
 34 35  2  0
 35 36  1  0
 35 28  1  0
 28 29  2  0
 29 30  1  0
 30 31  2  0
 31 26  1  0
 26  1  1  0
  1  2  2  0
  2  3  1  0
  3  4  2  0
  4  5  1  0
  5  6  2  0
  5  7  1  0
  7  8  2  0
  8  9  1  0
  9 10  2  0
 10 11  1  0
 10 12  1  0
 12 13  2  0
 13 14  1  0
 14 17  1  0
 17 18  2  0
 18 19  1  0
 18 20  1  0
 20 21  2  0
 21 22  1  0
 21 23  1  0
 23 24  2  0
 24 25  1  0
 14 15  2  0
 15 16  1  0
 31 32  1  0
 32 33  2  0
 33 28  1  0
  6  1  1  0
 13  7  1  0
 24 17  1  0
 16  4  1  0
 36 37  1  0
 26 27  1  0
M  END
> <minimizedAffinity>
-7.25586

> <CNNscore>
0.0904214010

> <CNNaffinity>
4.8611125946

> <CNN_VS>
0.4395486116

> <CNNaffinity_variance>
0.9290957451

$$$$



 37 41  0  0  0  0  0  0  0  0999 V2000
    5.0690   -5.1276   -0.3037 C   0  0  0  0  0  0  0  0  0  0  0  0
    5.6062   -6.3545   -0.2363 N   0  0  0  0  0  0  0  0  0  0  0  0
    6.8876   -6.4431    0.1664 C   0  0  0  0  0  0  0  0  0  0  0  0
    7.6536   -5.3577    0.5200 C   0  0  0  0  0  0  0  0  0  0  0  0
    7.0287   -4.1322    0.4174 C   0  0  0  0  0  0  0  0  0  0  0  0
    5.7405   -4.0153    0.0207 N   0  0  0  0  0  0  0  0  0  0  0  0
    7.6993   -2.8672    0.7805 C   0  0  0  0  0  0  0  0  0  0  0  0
    6.9488   -1.8505    1.4130 C   0  0  0  0  0  0  0  0  0  0  0  0
    7.5308   -0.6461    1.8155 C   0  0  0  0  0  0  0  0  0  0  0  0
    8.8847   -0.4341    1.5981 C   0  0  0  0  0  0  0  0  0  0  0  0
    9.6141    1.0387    2.1043 Cl  0  0  0  0  0  0  0  0  0  0  0  0
    9.6568   -1.4070    0.9703 C   0  0  0  0  0  0  0  0  0  0  0  0
    9.0699   -2.6144    0.5450 C   0  0  0  0  0  0  0  0  0  0  0  0
    9.9543   -3.5881   -0.1784 C   0  0  0  0  0  0  0  0  0  0  0  0
    9.9755   -4.8666    0.0023 N   0  0  0  0  0  0  0  0  0  0  0  0
    9.0705   -5.4769    0.9655 C   0  0  0  0  0  0  0  0  0  0  0  0
   10.8796   -3.0499   -1.2070 C   0  0  0  0  0  0  0  0  0  0  0  0
   12.1850   -2.6964   -0.8672 C   0  0  0  0  0  0  0  0  0  0  0  0
   12.6315   -2.8515    0.3872 F   0  0  0  0  0  0  0  0  0  0  0  0
   13.0527   -2.1678   -1.8197 C   0  0  0  0  0  0  0  0  0  0  0  0
   12.6035   -1.9883   -3.1268 C   0  0  0  0  0  0  0  0  0  0  0  0
   13.7717   -1.2736   -4.4284 Br  0  0  0  0  0  0  0  0  0  0  0  0
   11.3015   -2.3351   -3.4832 C   0  0  0  0  0  0  0  0  0  0  0  0
   10.4456   -2.8625   -2.5184 C   0  0  0  0  0  0  0  0  0  0  0  0
    9.2107   -3.2248   -2.8941 F   0  0  0  0  0  0  0  0  0  0  0  0
    3.7399   -5.0915   -0.7148 N   0  0  0  0  0  0  0  0  0  0  0  0
    3.1935   -4.4577   -0.1962 H   0  0  0  0  0  0  0  0  0  0  0  0
    1.6571   -7.2148   -3.7221 C   0  0  0  0  0  0  0  0  0  0  0  0
    0.9400   -6.5013   -2.7590 C   0  0  0  0  0  0  0  0  0  0  0  0
    1.6144   -5.7867   -1.7602 C   0  0  0  0  0  0  0  0  0  0  0  0
    3.0119   -5.7593   -1.7039 C   0  0  0  0  0  0  0  0  0  0  0  0
    3.7169   -6.4905   -2.6750 C   0  0  0  0  0  0  0  0  0  0  0  0
    3.0527   -7.2087   -3.6770 C   0  0  0  0  0  0  0  0  0  0  0  0
    1.3614   -8.7921   -5.5173 O   0  0  0  0  0  0  0  0  0  0  0  0
    0.9022   -7.9581   -4.7591 C   0  0  0  0  0  0  0  0  0  0  0  0
   -0.3994   -7.6213   -4.7993 O   0  0  0  0  0  0  0  0  0  0  0  0
   -0.7351   -6.9769   -4.2076 H   0  0  0  0  0  0  0  0  0  0  0  0
 34 35  2  0
 35 36  1  0
 35 28  1  0
 28 29  2  0
 29 30  1  0
 30 31  2  0
 31 26  1  0
 26  1  1  0
  1  2  2  0
  2  3  1  0
  3  4  2  0
  4  5  1  0
  5  6  2  0
  5  7  1  0
  7  8  2  0
  8  9  1  0
  9 10  2  0
 10 11  1  0
 10 12  1  0
 12 13  2  0
 13 14  1  0
 14 17  1  0
 17 18  2  0
 18 19  1  0
 18 20  1  0
 20 21  2  0
 21 22  1  0
 21 23  1  0
 23 24  2  0
 24 25  1  0
 14 15  2  0
 15 16  1  0
 31 32  1  0
 32 33  2  0
 33 28  1  0
  6  1  1  0
 13  7  1  0
 24 17  1  0
 16  4  1  0
 36 37  1  0
 26 27  1  0
M  END
> <minimizedAffinity>
-7.99173

> <CNNscore>
0.0854265764

> <CNNaffinity>
5.3738174438

> <CNN_VS>
0.4590668380

> <CNNaffinity_variance>
0.5153061748

$$$$



 37 41  0  0  0  0  0  0  0  0999 V2000
   10.4532   -4.1847   -2.5714 C   0  0  0  0  0  0  0  0  0  0  0  0
   11.0999   -5.2630   -2.1050 N   0  0  0  0  0  0  0  0  0  0  0  0
   12.3061   -5.5344   -2.6374 C   0  0  0  0  0  0  0  0  0  0  0  0
   12.9030   -4.7648   -3.6076 C   0  0  0  0  0  0  0  0  0  0  0  0
   12.1700   -3.6777   -4.0366 C   0  0  0  0  0  0  0  0  0  0  0  0
   10.9580   -3.3793   -3.5147 N   0  0  0  0  0  0  0  0  0  0  0  0
   12.6733   -2.7341   -5.0554 C   0  0  0  0  0  0  0  0  0  0  0  0
   12.3826   -1.3580   -4.9181 C   0  0  0  0  0  0  0  0  0  0  0  0
   12.8596   -0.4093   -5.8257 C   0  0  0  0  0  0  0  0  0  0  0  0
   13.6468   -0.8182   -6.8926 C   0  0  0  0  0  0  0  0  0  0  0  0
   14.2523    0.3437   -8.0065 Cl  0  0  0  0  0  0  0  0  0  0  0  0
   13.9486   -2.1655   -7.0680 C   0  0  0  0  0  0  0  0  0  0  0  0
   13.4533   -3.1275   -6.1667 C   0  0  0  0  0  0  0  0  0  0  0  0
   13.7712   -4.5656   -6.4571 C   0  0  0  0  0  0  0  0  0  0  0  0
   14.1331   -5.4489   -5.5874 N   0  0  0  0  0  0  0  0  0  0  0  0
   14.2407   -5.0808   -4.1830 C   0  0  0  0  0  0  0  0  0  0  0  0
   13.6468   -5.0316   -7.8610 C   0  0  0  0  0  0  0  0  0  0  0  0
   12.4155   -5.4585   -8.3571 C   0  0  0  0  0  0  0  0  0  0  0  0
   11.3219   -5.4401   -7.5821 F   0  0  0  0  0  0  0  0  0  0  0  0
   12.2939   -5.9205   -9.6653 C   0  0  0  0  0  0  0  0  0  0  0  0
   13.4218   -5.9580  -10.4832 C   0  0  0  0  0  0  0  0  0  0  0  0
   13.2693   -6.5811  -12.2603 Br  0  0  0  0  0  0  0  0  0  0  0  0
   14.6604   -5.5362  -10.0030 C   0  0  0  0  0  0  0  0  0  0  0  0
   14.7654   -5.0771   -8.6916 C   0  0  0  0  0  0  0  0  0  0  0  0
   15.9589   -4.6401   -8.2649 F   0  0  0  0  0  0  0  0  0  0  0  0
    9.2164   -3.9423   -1.9813 N   0  0  0  0  0  0  0  0  0  0  0  0
    8.4893   -3.8438   -2.6377 H   0  0  0  0  0  0  0  0  0  0  0  0
    7.9493   -3.6851    2.0460 C   0  0  0  0  0  0  0  0  0  0  0  0
    8.3222   -2.5242    1.3647 C   0  0  0  0  0  0  0  0  0  0  0  0
    8.7375   -2.5907    0.0282 C   0  0  0  0  0  0  0  0  0  0  0  0
    8.7818   -3.8082   -0.6594 C   0  0  0  0  0  0  0  0  0  0  0  0
    8.4124   -4.9670    0.0445 C   0  0  0  0  0  0  0  0  0  0  0  0
    7.9967   -4.9118    1.3805 C   0  0  0  0  0  0  0  0  0  0  0  0
    7.8980   -4.2647    4.3825 O   0  0  0  0  0  0  0  0  0  0  0  0
    7.5184   -3.5679    3.4596 C   0  0  0  0  0  0  0  0  0  0  0  0
    6.6277   -2.5789    3.6535 O   0  0  0  0  0  0  0  0  0  0  0  0
    6.3471   -2.0527    2.9308 H   0  0  0  0  0  0  0  0  0  0  0  0
 34 35  2  0
 35 36  1  0
 35 28  1  0
 28 29  2  0
 29 30  1  0
 30 31  2  0
 31 26  1  0
 26  1  1  0
  1  2  2  0
  2  3  1  0
  3  4  2  0
  4  5  1  0
  5  6  2  0
  5  7  1  0
  7  8  2  0
  8  9  1  0
  9 10  2  0
 10 11  1  0
 10 12  1  0
 12 13  2  0
 13 14  1  0
 14 17  1  0
 17 18  2  0
 18 19  1  0
 18 20  1  0
 20 21  2  0
 21 22  1  0
 21 23  1  0
 23 24  2  0
 24 25  1  0
 14 15  2  0
 15 16  1  0
 31 32  1  0
 32 33  2  0
 33 28  1  0
  6  1  1  0
 13  7  1  0
 24 17  1  0
 16  4  1  0
 36 37  1  0
 26 27  1  0
M  END
> <minimizedAffinity>
-5.56026

> <CNNscore>
0.0825498402

> <CNNaffinity>
5.1639876366

> <CNN_VS>
0.4262863398

> <CNNaffinity_variance>
0.0799234807

$$$$



 37 41  0  0  0  0  0  0  0  0999 V2000
    5.5979   -4.1224    0.6608 C   0  0  0  0  0  0  0  0  0  0  0  0
    5.2786   -3.1254    1.4989 N   0  0  0  0  0  0  0  0  0  0  0  0
    6.2931   -2.4972    2.1218 C   0  0  0  0  0  0  0  0  0  0  0  0
    7.6177   -2.8125    1.9321 C   0  0  0  0  0  0  0  0  0  0  0  0
    7.8606   -3.8528    1.0593 C   0  0  0  0  0  0  0  0  0  0  0  0
    6.8600   -4.4973    0.4161 N   0  0  0  0  0  0  0  0  0  0  0  0
    9.2265   -4.3041    0.7240 C   0  0  0  0  0  0  0  0  0  0  0  0
    9.5072   -4.7150   -0.5987 C   0  0  0  0  0  0  0  0  0  0  0  0
   10.7863   -5.1175   -0.9902 C   0  0  0  0  0  0  0  0  0  0  0  0
   11.8190   -5.1118   -0.0635 C   0  0  0  0  0  0  0  0  0  0  0  0
   13.4008   -5.5901   -0.5394 Cl  0  0  0  0  0  0  0  0  0  0  0  0
   11.5817   -4.7223    1.2514 C   0  0  0  0  0  0  0  0  0  0  0  0
   10.2894   -4.3349    1.6552 C   0  0  0  0  0  0  0  0  0  0  0  0
   10.1000   -3.9871    3.1032 C   0  0  0  0  0  0  0  0  0  0  0  0
    9.4149   -2.9907    3.5566 N   0  0  0  0  0  0  0  0  0  0  0  0
    8.7270   -2.1034    2.6298 C   0  0  0  0  0  0  0  0  0  0  0  0
   10.7370   -4.8670    4.1150 C   0  0  0  0  0  0  0  0  0  0  0  0
   10.0762   -6.0039    4.5786 C   0  0  0  0  0  0  0  0  0  0  0  0
    8.8644   -6.3308    4.1080 F   0  0  0  0  0  0  0  0  0  0  0  0
   10.6552   -6.8220    5.5457 C   0  0  0  0  0  0  0  0  0  0  0  0
   11.9097   -6.4927    6.0556 C   0  0  0  0  0  0  0  0  0  0  0  0
   12.7064   -7.5956    7.3666 Br  0  0  0  0  0  0  0  0  0  0  0  0
   12.5836   -5.3592    5.6043 C   0  0  0  0  0  0  0  0  0  0  0  0
   11.9905   -4.5508    4.6366 C   0  0  0  0  0  0  0  0  0  0  0  0
   12.6748   -3.4880    4.1900 F   0  0  0  0  0  0  0  0  0  0  0  0
    4.5146   -4.7316    0.0348 N   0  0  0  0  0  0  0  0  0  0  0  0
    3.6594   -4.2799    0.2191 H   0  0  0  0  0  0  0  0  0  0  0  0
    4.0950   -8.1937   -2.3585 C   0  0  0  0  0  0  0  0  0  0  0  0
    3.6185   -6.9680   -2.8291 C   0  0  0  0  0  0  0  0  0  0  0  0
    3.7559   -5.8102   -2.0522 C   0  0  0  0  0  0  0  0  0  0  0  0
    4.3762   -5.8452   -0.7988 C   0  0  0  0  0  0  0  0  0  0  0  0
    4.8409   -7.0885   -0.3372 C   0  0  0  0  0  0  0  0  0  0  0  0
    4.7079   -8.2519   -1.1053 C   0  0  0  0  0  0  0  0  0  0  0  0
    4.3095   -9.5113   -4.3625 O   0  0  0  0  0  0  0  0  0  0  0  0
    3.9265   -9.3932   -3.2133 C   0  0  0  0  0  0  0  0  0  0  0  0
    3.2830  -10.3945   -2.5868 O   0  0  0  0  0  0  0  0  0  0  0  0
    2.9955  -10.2853   -1.7017 H   0  0  0  0  0  0  0  0  0  0  0  0
 34 35  2  0
 35 36  1  0
 35 28  1  0
 28 29  2  0
 29 30  1  0
 30 31  2  0
 31 26  1  0
 26  1  1  0
  1  2  2  0
  2  3  1  0
  3  4  2  0
  4  5  1  0
  5  6  2  0
  5  7  1  0
  7  8  2  0
  8  9  1  0
  9 10  2  0
 10 11  1  0
 10 12  1  0
 12 13  2  0
 13 14  1  0
 14 17  1  0
 17 18  2  0
 18 19  1  0
 18 20  1  0
 20 21  2  0
 21 22  1  0
 21 23  1  0
 23 24  2  0
 24 25  1  0
 14 15  2  0
 15 16  1  0
 31 32  1  0
 32 33  2  0
 33 28  1  0
  6  1  1  0
 13  7  1  0
 24 17  1  0
 16  4  1  0
 36 37  1  0
 26 27  1  0
M  END
> <minimizedAffinity>
-7.75301

> <CNNscore>
0.0817564577

> <CNNaffinity>
4.5166401863

> <CNN_VS>
0.3692645133

> <CNNaffinity_variance>
1.6345475912

$$$$
