


 46 50  0  0  0  0  0  0  0  0999 V2000
    5.6125    8.4858   21.4258 C   0  0  0  0  0  0  0  0  0  0  0  0
    4.4861    9.2901   21.5243 C   0  0  0  0  0  0  0  0  0  0  0  0
    4.0031    9.2472   22.8533 C   0  0  0  0  0  0  0  0  0  0  0  0
    2.9228    9.8662   23.5102 C   0  0  0  0  0  0  0  0  0  0  0  0
    2.6960    9.6241   24.8695 C   0  0  0  0  0  0  0  0  0  0  0  0
    3.5459    8.7761   25.5712 C   0  0  0  0  0  0  0  0  0  0  0  0
    4.6362    8.1603   24.9388 C   0  0  0  0  0  0  0  0  0  0  0  0
    4.8491    8.4069   23.5720 C   0  0  0  0  0  0  0  0  0  0  0  0
    5.8122    7.9383   22.6874 N   0  0  0  0  0  0  0  0  0  0  0  0
    5.8306    7.5999   19.2335 N   0  0  0  0  0  0  0  0  0  0  0  0
    6.4541    8.2695   20.2633 C   0  0  0  0  0  0  0  0  0  0  0  0
    7.6161    8.6567   20.1754 O   0  0  0  0  0  0  0  0  0  0  0  0
    4.8982    7.3065   19.3514 H   0  0  0  0  0  0  0  0  0  0  0  0
    6.4990    7.3153   17.9901 C   0  0  0  0  0  0  0  0  0  0  0  0
    7.6081    3.1273   17.6409 C   0  0  0  0  0  0  0  0  0  0  0  0
    8.2189    3.9649   18.5879 C   0  0  0  0  0  0  0  0  0  0  0  0
    7.8444    5.3066   18.7110 C   0  0  0  0  0  0  0  0  0  0  0  0
    6.8486    5.8498   17.8934 C   0  0  0  0  0  0  0  0  0  0  0  0
    6.2392    5.0238   16.9439 C   0  0  0  0  0  0  0  0  0  0  0  0
    6.6114    3.6766   16.8228 C   0  0  0  0  0  0  0  0  0  0  0  0
    7.0875    0.8268   16.7111 C   0  0  0  0  0  0  0  0  0  0  0  0
    8.0609    1.6800   17.5227 N   0  0  0  0  0  0  0  0  0  0  0  0
    8.1623    1.0777   18.9221 C   0  0  0  0  0  0  0  0  0  0  0  0
    9.4132    1.6562   16.8154 C   0  0  0  0  0  0  0  0  0  0  0  0
    1.6154   10.2889   25.3812 O   0  0  0  0  0  0  0  0  0  0  0  0
    0.3271    9.8894   24.9235 C   0  0  0  0  0  0  0  0  0  0  0  0
   -0.6731   10.8921   25.4499 C   0  0  0  0  0  0  0  0  0  0  0  0
   -0.3475   12.2555   25.5244 C   0  0  0  0  0  0  0  0  0  0  0  0
   -1.2609   13.1718   26.0479 C   0  0  0  0  0  0  0  0  0  0  0  0
   -2.4978   12.7271   26.4987 C   0  0  0  0  0  0  0  0  0  0  0  0
   -3.3726   13.6082   26.9998 F   0  0  0  0  0  0  0  0  0  0  0  0
   -2.8376   11.3817   26.4412 C   0  0  0  0  0  0  0  0  0  0  0  0
   -1.9246   10.4632   25.9205 C   0  0  0  0  0  0  0  0  0  0  0  0
    6.8725    6.9960   23.0517 C   0  0  0  0  0  0  0  0  0  0  0  0
    8.0223    7.6794   23.7533 C   0  0  0  0  0  0  0  0  0  0  0  0
    8.6475    8.7960   23.1832 C   0  0  0  0  0  0  0  0  0  0  0  0
    9.7006    9.4340   23.8395 C   0  0  0  0  0  0  0  0  0  0  0  0
   10.1482    8.9622   25.0767 C   0  0  0  0  0  0  0  0  0  0  0  0
    9.5409    7.8458   25.6636 C   0  0  0  0  0  0  0  0  0  0  0  0
    8.4786    7.2158   25.0003 C   0  0  0  0  0  0  0  0  0  0  0  0
    9.9953    7.3145   26.9896 C   0  0  0  0  0  0  0  0  0  0  0  0
   11.2556    7.3359   27.2831 N   0  0  0  0  0  0  0  0  0  0  0  0
    9.1018    6.8244   27.8976 N   0  0  0  0  0  0  0  0  0  0  0  0
   11.9064    7.6878   26.6336 H   0  0  0  0  0  0  0  0  0  0  0  0
    8.1414    6.8048   27.6819 H   0  0  0  0  0  0  0  0  0  0  0  0
    9.4177    6.4906   28.7682 H   0  0  0  0  0  0  0  0  0  0  0  0
 21 22  1  0
 22 23  1  0
 22 24  1  0
 22 15  1  0
 15 16  2  0
 16 17  1  0
 17 18  2  0
 18 14  1  0
 14 10  1  0
 10 11  1  0
 11 12  2  0
 11  1  1  0
  1  2  2  0
  2  3  1  0
  3  4  2  0
  4  5  1  0
  5 25  1  0
 25 26  1  0
 26 27  1  0
 27 28  2  0
 28 29  1  0
 29 30  2  0
 30 31  1  0
 30 32  1  0
 32 33  2  0
  5  6  2  0
  6  7  1  0
  7  8  2  0
  8  9  1  0
  9 34  1  0
 34 35  1  0
 35 36  2  0
 36 37  1  0
 37 38  2  0
 38 39  1  0
 39 41  1  0
 41 42  2  0
 41 43  1  0
 39 40  2  0
 18 19  1  0
 19 20  2  0
 20 15  1  0
  9  1  1  0
 40 35  1  0
  8  3  1  0
 33 27  1  0
 10 13  1  0
 42 44  1  0
 43 45  1  0
 43 46  1  0
M  CHG 1  22   1
M  END
> <minimizedAffinity>
-9.56519

> <CNNscore>
0.9065854549

> <CNNaffinity>
8.2045555115

> <CNN_VS>
7.4381308556

> <CNNaffinity_variance>
0.1536079198

$$$$



 46 50  0  0  0  0  0  0  0  0999 V2000
    5.8897    7.5155   22.0547 C   0  0  0  0  0  0  0  0  0  0  0  0
    4.8389    8.2109   21.4734 C   0  0  0  0  0  0  0  0  0  0  0  0
    4.0580    8.8043   22.4928 C   0  0  0  0  0  0  0  0  0  0  0  0
    2.9073    9.6151   22.4815 C   0  0  0  0  0  0  0  0  0  0  0  0
    2.3517   10.0621   23.6853 C   0  0  0  0  0  0  0  0  0  0  0  0
    2.9446    9.7092   24.8927 C   0  0  0  0  0  0  0  0  0  0  0  0
    4.0996    8.9138   24.9255 C   0  0  0  0  0  0  0  0  0  0  0  0
    4.6437    8.4663   23.7098 C   0  0  0  0  0  0  0  0  0  0  0  0
    5.7459    7.6689   23.4284 N   0  0  0  0  0  0  0  0  0  0  0  0
    6.6953    5.4588   21.1836 N   0  0  0  0  0  0  0  0  0  0  0  0
    6.9588    6.7954   21.3879 C   0  0  0  0  0  0  0  0  0  0  0  0
    8.0066    7.3145   21.0130 O   0  0  0  0  0  0  0  0  0  0  0  0
    5.8421    5.0868   21.5045 H   0  0  0  0  0  0  0  0  0  0  0  0
    7.6280    4.5883   20.5157 C   0  0  0  0  0  0  0  0  0  0  0  0
    6.3586    3.8047   16.4333 C   0  0  0  0  0  0  0  0  0  0  0  0
    5.5116    4.4527   17.3466 C   0  0  0  0  0  0  0  0  0  0  0  0
    5.9315    4.7214   18.6530 C   0  0  0  0  0  0  0  0  0  0  0  0
    7.2094    4.3524   19.0844 C   0  0  0  0  0  0  0  0  0  0  0  0
    8.0572    3.7017   18.1826 C   0  0  0  0  0  0  0  0  0  0  0  0
    7.6380    3.4356   16.8706 C   0  0  0  0  0  0  0  0  0  0  0  0
    6.1657    4.6379   14.0465 C   0  0  0  0  0  0  0  0  0  0  0  0
    5.8551    3.5096   15.0285 N   0  0  0  0  0  0  0  0  0  0  0  0
    4.3398    3.3281   15.0744 C   0  0  0  0  0  0  0  0  0  0  0  0
    6.5448    2.2436   14.5274 C   0  0  0  0  0  0  0  0  0  0  0  0
    1.2381   10.8414   23.5297 O   0  0  0  0  0  0  0  0  0  0  0  0
    1.0245   11.8727   24.4886 C   0  0  0  0  0  0  0  0  0  0  0  0
   -0.3061   11.6065   25.1532 C   0  0  0  0  0  0  0  0  0  0  0  0
   -1.0630   12.6617   25.6862 C   0  0  0  0  0  0  0  0  0  0  0  0
   -2.2728   12.4060   26.3335 C   0  0  0  0  0  0  0  0  0  0  0  0
   -2.7257   11.0975   26.4505 C   0  0  0  0  0  0  0  0  0  0  0  0
   -3.8869   10.8549   27.0713 F   0  0  0  0  0  0  0  0  0  0  0  0
   -1.9891   10.0380   25.9370 C   0  0  0  0  0  0  0  0  0  0  0  0
   -0.7776   10.2912   25.2916 C   0  0  0  0  0  0  0  0  0  0  0  0
    6.6138    7.0780   24.4495 C   0  0  0  0  0  0  0  0  0  0  0  0
    7.9348    7.8021   24.5594 C   0  0  0  0  0  0  0  0  0  0  0  0
    8.2064    8.9218   23.7623 C   0  0  0  0  0  0  0  0  0  0  0  0
    9.4219    9.5974   23.8751 C   0  0  0  0  0  0  0  0  0  0  0  0
   10.3882    9.1607   24.7858 C   0  0  0  0  0  0  0  0  0  0  0  0
   10.1401    8.0420   25.5899 C   0  0  0  0  0  0  0  0  0  0  0  0
    8.9129    7.3740   25.4749 C   0  0  0  0  0  0  0  0  0  0  0  0
   11.1537    7.5478   26.5775 C   0  0  0  0  0  0  0  0  0  0  0  0
   10.7572    7.1190   27.7324 N   0  0  0  0  0  0  0  0  0  0  0  0
   12.4842    7.5274   26.2734 N   0  0  0  0  0  0  0  0  0  0  0  0
    9.7992    7.1305   27.9594 H   0  0  0  0  0  0  0  0  0  0  0  0
   12.7939    7.8518   25.3970 H   0  0  0  0  0  0  0  0  0  0  0  0
   13.1341    7.1883   26.9305 H   0  0  0  0  0  0  0  0  0  0  0  0
 21 22  1  0
 22 23  1  0
 22 24  1  0
 22 15  1  0
 15 16  2  0
 16 17  1  0
 17 18  2  0
 18 14  1  0
 14 10  1  0
 10 11  1  0
 11 12  2  0
 11  1  1  0
  1  2  2  0
  2  3  1  0
  3  4  2  0
  4  5  1  0
  5 25  1  0
 25 26  1  0
 26 27  1  0
 27 28  2  0
 28 29  1  0
 29 30  2  0
 30 31  1  0
 30 32  1  0
 32 33  2  0
  5  6  2  0
  6  7  1  0
  7  8  2  0
  8  9  1  0
  9 34  1  0
 34 35  1  0
 35 36  2  0
 36 37  1  0
 37 38  2  0
 38 39  1  0
 39 41  1  0
 41 42  2  0
 41 43  1  0
 39 40  2  0
 18 19  1  0
 19 20  2  0
 20 15  1  0
  9  1  1  0
 40 35  1  0
  8  3  1  0
 33 27  1  0
 10 13  1  0
 42 44  1  0
 43 45  1  0
 43 46  1  0
M  CHG 1  22   1
M  END
> <minimizedAffinity>
-8.95369

> <CNNscore>
0.7517179251

> <CNNaffinity>
7.8266258240

> <CNN_VS>
5.8834147453

> <CNNaffinity_variance>
0.0599325038

$$$$



 46 50  0  0  0  0  0  0  0  0999 V2000
    4.6951    8.3435   22.7532 C   0  0  0  0  0  0  0  0  0  0  0  0
    4.5065    8.3020   21.3790 C   0  0  0  0  0  0  0  0  0  0  0  0
    5.4621    7.4288   20.8082 C   0  0  0  0  0  0  0  0  0  0  0  0
    5.7215    7.0071   19.4904 C   0  0  0  0  0  0  0  0  0  0  0  0
    6.7627    6.1087   19.2330 C   0  0  0  0  0  0  0  0  0  0  0  0
    7.5355    5.6275   20.2843 C   0  0  0  0  0  0  0  0  0  0  0  0
    7.2847    6.0243   21.6063 C   0  0  0  0  0  0  0  0  0  0  0  0
    6.2402    6.9319   21.8503 C   0  0  0  0  0  0  0  0  0  0  0  0
    5.7733    7.5097   23.0241 N   0  0  0  0  0  0  0  0  0  0  0  0
    2.5615    8.8311   23.6743 N   0  0  0  0  0  0  0  0  0  0  0  0
    3.9164    9.0719   23.7378 C   0  0  0  0  0  0  0  0  0  0  0  0
    4.4023    9.8270   24.5753 O   0  0  0  0  0  0  0  0  0  0  0  0
    2.2180    8.2197   22.9834 H   0  0  0  0  0  0  0  0  0  0  0  0
    1.6316    9.4452   24.5864 C   0  0  0  0  0  0  0  0  0  0  0  0
   -0.5082   12.7401   22.7274 C   0  0  0  0  0  0  0  0  0  0  0  0
   -0.3147   12.6906   24.1172 C   0  0  0  0  0  0  0  0  0  0  0  0
    0.3922   11.6393   24.7091 C   0  0  0  0  0  0  0  0  0  0  0  0
    0.9274   10.6085   23.9304 C   0  0  0  0  0  0  0  0  0  0  0  0
    0.7344   10.6475   22.5460 C   0  0  0  0  0  0  0  0  0  0  0  0
    0.0288   11.7041   21.9512 C   0  0  0  0  0  0  0  0  0  0  0  0
   -0.5260   14.6342   21.0420 C   0  0  0  0  0  0  0  0  0  0  0  0
   -1.3036   13.8885   22.1253 N   0  0  0  0  0  0  0  0  0  0  0  0
   -1.6469   14.8850   23.2300 C   0  0  0  0  0  0  0  0  0  0  0  0
   -2.5678   13.3159   21.4902 C   0  0  0  0  0  0  0  0  0  0  0  0
    6.9037    5.7827   17.9118 O   0  0  0  0  0  0  0  0  0  0  0  0
    6.2760    4.5847   17.4651 C   0  0  0  0  0  0  0  0  0  0  0  0
    7.2216    3.4419   17.7527 C   0  0  0  0  0  0  0  0  0  0  0  0
    6.7422    2.2326   18.2800 C   0  0  0  0  0  0  0  0  0  0  0  0
    7.6252    1.1942   18.5804 C   0  0  0  0  0  0  0  0  0  0  0  0
    8.9861    1.3638   18.3564 C   0  0  0  0  0  0  0  0  0  0  0  0
    9.8310    0.3659   18.6446 F   0  0  0  0  0  0  0  0  0  0  0  0
    9.4825    2.5547   17.8424 C   0  0  0  0  0  0  0  0  0  0  0  0
    8.6016    3.5954   17.5438 C   0  0  0  0  0  0  0  0  0  0  0  0
    6.3545    7.2671   24.3463 C   0  0  0  0  0  0  0  0  0  0  0  0
    7.7271    7.8823   24.4841 C   0  0  0  0  0  0  0  0  0  0  0  0
    8.1270    8.9353   23.6510 C   0  0  0  0  0  0  0  0  0  0  0  0
    9.3904    9.5111   23.7891 C   0  0  0  0  0  0  0  0  0  0  0  0
   10.2765    9.0396   24.7617 C   0  0  0  0  0  0  0  0  0  0  0  0
    9.8998    7.9860   25.6029 C   0  0  0  0  0  0  0  0  0  0  0  0
    8.6256    7.4186   25.4617 C   0  0  0  0  0  0  0  0  0  0  0  0
   10.8250    7.4570   26.6570 C   0  0  0  0  0  0  0  0  0  0  0  0
   10.3292    6.9588   27.7438 N   0  0  0  0  0  0  0  0  0  0  0  0
   12.1786    7.4771   26.4831 N   0  0  0  0  0  0  0  0  0  0  0  0
    9.3539    6.9407   27.8768 H   0  0  0  0  0  0  0  0  0  0  0  0
   12.5635    7.8543   25.6592 H   0  0  0  0  0  0  0  0  0  0  0  0
   12.7701    7.1143   27.1815 H   0  0  0  0  0  0  0  0  0  0  0  0
 21 22  1  0
 22 23  1  0
 22 24  1  0
 22 15  1  0
 15 16  2  0
 16 17  1  0
 17 18  2  0
 18 14  1  0
 14 10  1  0
 10 11  1  0
 11 12  2  0
 11  1  1  0
  1  2  2  0
  2  3  1  0
  3  4  2  0
  4  5  1  0
  5 25  1  0
 25 26  1  0
 26 27  1  0
 27 28  2  0
 28 29  1  0
 29 30  2  0
 30 31  1  0
 30 32  1  0
 32 33  2  0
  5  6  2  0
  6  7  1  0
  7  8  2  0
  8  9  1  0
  9 34  1  0
 34 35  1  0
 35 36  2  0
 36 37  1  0
 37 38  2  0
 38 39  1  0
 39 41  1  0
 41 42  2  0
 41 43  1  0
 39 40  2  0
 18 19  1  0
 19 20  2  0
 20 15  1  0
  9  1  1  0
 40 35  1  0
  8  3  1  0
 33 27  1  0
 10 13  1  0
 42 44  1  0
 43 45  1  0
 43 46  1  0
M  CHG 1  22   1
M  END
> <minimizedAffinity>
-9.47093

> <CNNscore>
0.7396672368

> <CNNaffinity>
7.6585164070

> <CNN_VS>
5.6647534370

> <CNNaffinity_variance>
0.0957218111

$$$$



 46 50  0  0  0  0  0  0  0  0999 V2000
    4.9050    7.1633   23.3508 C   0  0  0  0  0  0  0  0  0  0  0  0
    4.7625    6.2223   22.3411 C   0  0  0  0  0  0  0  0  0  0  0  0
    5.7836    6.4166   21.3815 C   0  0  0  0  0  0  0  0  0  0  0  0
    6.1237    5.7588   20.1843 C   0  0  0  0  0  0  0  0  0  0  0  0
    7.2215    6.1920   19.4327 C   0  0  0  0  0  0  0  0  0  0  0  0
    7.9802    7.2697   19.8763 C   0  0  0  0  0  0  0  0  0  0  0  0
    7.6667    7.9301   21.0736 C   0  0  0  0  0  0  0  0  0  0  0  0
    6.5580    7.4891   21.8155 C   0  0  0  0  0  0  0  0  0  0  0  0
    6.0019    7.9433   23.0048 N   0  0  0  0  0  0  0  0  0  0  0  0
    2.8128    6.8535   24.4301 N   0  0  0  0  0  0  0  0  0  0  0  0
    4.1081    7.3055   24.5554 C   0  0  0  0  0  0  0  0  0  0  0  0
    4.5345    7.7675   25.6101 O   0  0  0  0  0  0  0  0  0  0  0  0
    2.5154    6.4936   23.5633 H   0  0  0  0  0  0  0  0  0  0  0  0
    1.8799    6.8905   25.5265 C   0  0  0  0  0  0  0  0  0  0  0  0
   -0.5962   10.4594   25.3746 C   0  0  0  0  0  0  0  0  0  0  0  0
    0.6927   10.4442   24.8178 C   0  0  0  0  0  0  0  0  0  0  0  0
    1.4780    9.2877   24.8505 C   0  0  0  0  0  0  0  0  0  0  0  0
    0.9985    8.1131   25.4384 C   0  0  0  0  0  0  0  0  0  0  0  0
   -0.2820    8.1214   26.0001 C   0  0  0  0  0  0  0  0  0  0  0  0
   -1.0720    9.2802   25.9640 C   0  0  0  0  0  0  0  0  0  0  0  0
   -0.6837   12.9140   26.0035 C   0  0  0  0  0  0  0  0  0  0  0  0
   -1.4090   11.7447   25.3395 N   0  0  0  0  0  0  0  0  0  0  0  0
   -2.7223   11.5197   26.0851 C   0  0  0  0  0  0  0  0  0  0  0  0
   -1.6623   12.1130   23.8802 C   0  0  0  0  0  0  0  0  0  0  0  0
    7.4397    5.4646   18.2947 O   0  0  0  0  0  0  0  0  0  0  0  0
    6.6961    4.2600   18.1380 C   0  0  0  0  0  0  0  0  0  0  0  0
    7.6814    3.1146   18.1382 C   0  0  0  0  0  0  0  0  0  0  0  0
    7.2888    1.8336   18.5570 C   0  0  0  0  0  0  0  0  0  0  0  0
    8.2131    0.7883   18.5923 C   0  0  0  0  0  0  0  0  0  0  0  0
    9.5289    1.0222   18.2115 C   0  0  0  0  0  0  0  0  0  0  0  0
   10.4134    0.0177   18.2455 F   0  0  0  0  0  0  0  0  0  0  0  0
    9.9404    2.2835   17.8010 C   0  0  0  0  0  0  0  0  0  0  0  0
    9.0184    3.3310   17.7675 C   0  0  0  0  0  0  0  0  0  0  0  0
    6.5102    9.0877   23.7643 C   0  0  0  0  0  0  0  0  0  0  0  0
    7.9556    8.9066   24.1636 C   0  0  0  0  0  0  0  0  0  0  0  0
    8.9826    9.5182   23.4327 C   0  0  0  0  0  0  0  0  0  0  0  0
   10.3162    9.3607   23.8114 C   0  0  0  0  0  0  0  0  0  0  0  0
   10.6445    8.5848   24.9266 C   0  0  0  0  0  0  0  0  0  0  0  0
    9.6352    7.9613   25.6698 C   0  0  0  0  0  0  0  0  0  0  0  0
    8.2975    8.1313   25.2861 C   0  0  0  0  0  0  0  0  0  0  0  0
    9.9522    7.1235   26.8716 C   0  0  0  0  0  0  0  0  0  0  0  0
   11.1248    6.5862   26.9786 N   0  0  0  0  0  0  0  0  0  0  0  0
    9.0319    6.9315   27.8611 N   0  0  0  0  0  0  0  0  0  0  0  0
   11.7941    6.7199   26.2692 H   0  0  0  0  0  0  0  0  0  0  0  0
    8.1378    7.3368   27.7872 H   0  0  0  0  0  0  0  0  0  0  0  0
    9.2622    6.3876   28.6488 H   0  0  0  0  0  0  0  0  0  0  0  0
 21 22  1  0
 22 23  1  0
 22 24  1  0
 22 15  1  0
 15 16  2  0
 16 17  1  0
 17 18  2  0
 18 14  1  0
 14 10  1  0
 10 11  1  0
 11 12  2  0
 11  1  1  0
  1  2  2  0
  2  3  1  0
  3  4  2  0
  4  5  1  0
  5 25  1  0
 25 26  1  0
 26 27  1  0
 27 28  2  0
 28 29  1  0
 29 30  2  0
 30 31  1  0
 30 32  1  0
 32 33  2  0
  5  6  2  0
  6  7  1  0
  7  8  2  0
  8  9  1  0
  9 34  1  0
 34 35  1  0
 35 36  2  0
 36 37  1  0
 37 38  2  0
 38 39  1  0
 39 41  1  0
 41 42  2  0
 41 43  1  0
 39 40  2  0
 18 19  1  0
 19 20  2  0
 20 15  1  0
  9  1  1  0
 40 35  1  0
  8  3  1  0
 33 27  1  0
 10 13  1  0
 42 44  1  0
 43 45  1  0
 43 46  1  0
M  CHG 1  22   1
M  END
> <minimizedAffinity>
-10.80800

> <CNNscore>
0.7304623723

> <CNNaffinity>
7.8487663269

> <CNN_VS>
5.7332286835

> <CNNaffinity_variance>
0.0399320461

$$$$



 46 50  0  0  0  0  0  0  0  0999 V2000
    5.7531    8.4929   21.4629 C   0  0  0  0  0  0  0  0  0  0  0  0
    4.6278    9.3041   21.4975 C   0  0  0  0  0  0  0  0  0  0  0  0
    4.0352    9.2170   22.7791 C   0  0  0  0  0  0  0  0  0  0  0  0
    2.9079    9.8219   23.3666 C   0  0  0  0  0  0  0  0  0  0  0  0
    2.5666    9.5320   24.6922 C   0  0  0  0  0  0  0  0  0  0  0  0
    3.3493    8.6503   25.4299 C   0  0  0  0  0  0  0  0  0  0  0  0
    4.4844    8.0476   24.8677 C   0  0  0  0  0  0  0  0  0  0  0  0
    4.8124    8.3424   23.5337 C   0  0  0  0  0  0  0  0  0  0  0  0
    5.8429    7.8973   22.7153 N   0  0  0  0  0  0  0  0  0  0  0  0
    7.0721    7.0041   20.1660 N   0  0  0  0  0  0  0  0  0  0  0  0
    6.6874    8.3115   20.3672 C   0  0  0  0  0  0  0  0  0  0  0  0
    7.0980    9.2250   19.6568 O   0  0  0  0  0  0  0  0  0  0  0  0
    6.7183    6.3060   20.7633 H   0  0  0  0  0  0  0  0  0  0  0  0
    7.9751    6.6260   19.1099 C   0  0  0  0  0  0  0  0  0  0  0  0
    6.5072    3.0113   17.1940 C   0  0  0  0  0  0  0  0  0  0  0  0
    5.6958    4.1507   17.3160 C   0  0  0  0  0  0  0  0  0  0  0  0
    6.1788    5.3185   17.9145 C   0  0  0  0  0  0  0  0  0  0  0  0
    7.4860    5.3826   18.4069 C   0  0  0  0  0  0  0  0  0  0  0  0
    8.2989    4.2504   18.2943 C   0  0  0  0  0  0  0  0  0  0  0  0
    7.8162    3.0800   17.6901 C   0  0  0  0  0  0  0  0  0  0  0  0
    4.7392    1.1992   17.3290 C   0  0  0  0  0  0  0  0  0  0  0  0
    5.9360    1.7531   16.5579 N   0  0  0  0  0  0  0  0  0  0  0  0
    7.0190    0.6771   16.5313 C   0  0  0  0  0  0  0  0  0  0  0  0
    5.4699    2.0981   15.1460 C   0  0  0  0  0  0  0  0  0  0  0  0
    1.4516   10.1881   25.1368 O   0  0  0  0  0  0  0  0  0  0  0  0
    0.2584   10.0374   24.3737 C   0  0  0  0  0  0  0  0  0  0  0  0
   -0.1947    8.6032   24.5177 C   0  0  0  0  0  0  0  0  0  0  0  0
   -0.6122    8.1067   25.7625 C   0  0  0  0  0  0  0  0  0  0  0  0
   -0.9926    6.7707   25.8980 C   0  0  0  0  0  0  0  0  0  0  0  0
   -0.9544    5.9303   24.7920 C   0  0  0  0  0  0  0  0  0  0  0  0
   -1.3205    4.6493   24.9244 F   0  0  0  0  0  0  0  0  0  0  0  0
   -0.5375    6.3989   23.5528 C   0  0  0  0  0  0  0  0  0  0  0  0
   -0.1540    7.7340   23.4156 C   0  0  0  0  0  0  0  0  0  0  0  0
    6.8627    6.9318   23.1309 C   0  0  0  0  0  0  0  0  0  0  0  0
    8.0411    7.6024   23.7964 C   0  0  0  0  0  0  0  0  0  0  0  0
    8.7099    8.6622   23.1699 C   0  0  0  0  0  0  0  0  0  0  0  0
    9.7897    9.2892   23.7925 C   0  0  0  0  0  0  0  0  0  0  0  0
   10.2208    8.8630   25.0519 C   0  0  0  0  0  0  0  0  0  0  0  0
    9.5699    7.8036   25.6952 C   0  0  0  0  0  0  0  0  0  0  0  0
    8.4811    7.1846   25.0652 C   0  0  0  0  0  0  0  0  0  0  0  0
   10.0054    7.3224   27.0463 C   0  0  0  0  0  0  0  0  0  0  0  0
   11.2546    7.4021   27.3755 N   0  0  0  0  0  0  0  0  0  0  0  0
    9.1057    6.8174   27.9398 N   0  0  0  0  0  0  0  0  0  0  0  0
   11.9098    7.7652   26.7367 H   0  0  0  0  0  0  0  0  0  0  0  0
    8.1537    6.7534   27.6970 H   0  0  0  0  0  0  0  0  0  0  0  0
    9.4086    6.5170   28.8271 H   0  0  0  0  0  0  0  0  0  0  0  0
 21 22  1  0
 22 23  1  0
 22 24  1  0
 22 15  1  0
 15 16  2  0
 16 17  1  0
 17 18  2  0
 18 14  1  0
 14 10  1  0
 10 11  1  0
 11 12  2  0
 11  1  1  0
  1  2  2  0
  2  3  1  0
  3  4  2  0
  4  5  1  0
  5 25  1  0
 25 26  1  0
 26 27  1  0
 27 28  2  0
 28 29  1  0
 29 30  2  0
 30 31  1  0
 30 32  1  0
 32 33  2  0
  5  6  2  0
  6  7  1  0
  7  8  2  0
  8  9  1  0
  9 34  1  0
 34 35  1  0
 35 36  2  0
 36 37  1  0
 37 38  2  0
 38 39  1  0
 39 41  1  0
 41 42  2  0
 41 43  1  0
 39 40  2  0
 18 19  1  0
 19 20  2  0
 20 15  1  0
  9  1  1  0
 40 35  1  0
  8  3  1  0
 33 27  1  0
 10 13  1  0
 42 44  1  0
 43 45  1  0
 43 46  1  0
M  CHG 1  22   1
M  END
> <minimizedAffinity>
-8.79605

> <CNNscore>
0.7219075561

> <CNNaffinity>
7.8157248497

> <CNN_VS>
5.6422309875

> <CNNaffinity_variance>
0.0087167984

$$$$



 46 50  0  0  0  0  0  0  0  0999 V2000
    4.7857    7.0852   23.4443 C   0  0  0  0  0  0  0  0  0  0  0  0
    4.6871    6.2135   22.3692 C   0  0  0  0  0  0  0  0  0  0  0  0
    5.7813    6.4286   21.4986 C   0  0  0  0  0  0  0  0  0  0  0  0
    6.1865    5.8332   20.2891 C   0  0  0  0  0  0  0  0  0  0  0  0
    7.3495    6.2711   19.6462 C   0  0  0  0  0  0  0  0  0  0  0  0
    8.1081    7.2911   20.2102 C   0  0  0  0  0  0  0  0  0  0  0  0
    7.7295    7.8881   21.4218 C   0  0  0  0  0  0  0  0  0  0  0  0
    6.5560    7.4434   22.0538 C   0  0  0  0  0  0  0  0  0  0  0  0
    5.9295    7.8442   23.2272 N   0  0  0  0  0  0  0  0  0  0  0  0
    2.7335    6.4737   24.4702 N   0  0  0  0  0  0  0  0  0  0  0  0
    3.9080    7.1826   24.5960 C   0  0  0  0  0  0  0  0  0  0  0  0
    4.1756    7.8191   25.6113 O   0  0  0  0  0  0  0  0  0  0  0  0
    2.5617    5.9804   23.6357 H   0  0  0  0  0  0  0  0  0  0  0  0
    1.7491    6.4312   25.5204 C   0  0  0  0  0  0  0  0  0  0  0  0
   -2.2427    5.6991   23.9644 C   0  0  0  0  0  0  0  0  0  0  0  0
   -2.0449    6.4433   25.1385 C   0  0  0  0  0  0  0  0  0  0  0  0
   -0.7580    6.6941   25.6244 C   0  0  0  0  0  0  0  0  0  0  0  0
    0.3682    6.2105   24.9512 C   0  0  0  0  0  0  0  0  0  0  0  0
    0.1797    5.4638   23.7841 C   0  0  0  0  0  0  0  0  0  0  0  0
   -1.1110    5.2154   23.2939 C   0  0  0  0  0  0  0  0  0  0  0  0
   -4.0341    6.2697   22.2634 C   0  0  0  0  0  0  0  0  0  0  0  0
   -3.6599    5.4283   23.4825 N   0  0  0  0  0  0  0  0  0  0  0  0
   -4.6372    5.7653   24.6061 C   0  0  0  0  0  0  0  0  0  0  0  0
   -3.7606    3.9568   23.0900 C   0  0  0  0  0  0  0  0  0  0  0  0
    7.6267    5.6071   18.4826 O   0  0  0  0  0  0  0  0  0  0  0  0
    6.8498    4.4495   18.1912 C   0  0  0  0  0  0  0  0  0  0  0  0
    7.7758    3.2566   18.2410 C   0  0  0  0  0  0  0  0  0  0  0  0
    9.1024    3.3620   17.7947 C   0  0  0  0  0  0  0  0  0  0  0  0
    9.9419    2.2470   17.8065 C   0  0  0  0  0  0  0  0  0  0  0  0
    9.4567    1.0271   18.2617 C   0  0  0  0  0  0  0  0  0  0  0  0
   10.2641   -0.0409   18.2728 F   0  0  0  0  0  0  0  0  0  0  0  0
    8.1453    0.8988   18.7008 C   0  0  0  0  0  0  0  0  0  0  0  0
    7.3032    2.0119   18.6873 C   0  0  0  0  0  0  0  0  0  0  0  0
    6.4175    8.9205   24.0921 C   0  0  0  0  0  0  0  0  0  0  0  0
    7.8813    8.7591   24.4275 C   0  0  0  0  0  0  0  0  0  0  0  0
    8.8655    9.4065   23.6691 C   0  0  0  0  0  0  0  0  0  0  0  0
   10.2164    9.2670   23.9889 C   0  0  0  0  0  0  0  0  0  0  0  0
   10.6052    8.4735   25.0719 C   0  0  0  0  0  0  0  0  0  0  0  0
    9.6394    7.8143   25.8415 C   0  0  0  0  0  0  0  0  0  0  0  0
    8.2840    7.9663   25.5172 C   0  0  0  0  0  0  0  0  0  0  0  0
   10.0216    6.9567   27.0101 C   0  0  0  0  0  0  0  0  0  0  0  0
    9.2034    6.0411   27.4192 N   0  0  0  0  0  0  0  0  0  0  0  0
   11.2229    7.1143   27.6385 N   0  0  0  0  0  0  0  0  0  0  0  0
    8.3350    5.9212   26.9712 H   0  0  0  0  0  0  0  0  0  0  0  0
   11.8508    7.8085   27.3333 H   0  0  0  0  0  0  0  0  0  0  0  0
   11.4616    6.5338   28.3970 H   0  0  0  0  0  0  0  0  0  0  0  0
 21 22  1  0
 22 23  1  0
 22 24  1  0
 22 15  1  0
 15 16  2  0
 16 17  1  0
 17 18  2  0
 18 14  1  0
 14 10  1  0
 10 11  1  0
 11 12  2  0
 11  1  1  0
  1  2  2  0
  2  3  1  0
  3  4  2  0
  4  5  1  0
  5 25  1  0
 25 26  1  0
 26 27  1  0
 27 28  2  0
 28 29  1  0
 29 30  2  0
 30 31  1  0
 30 32  1  0
 32 33  2  0
  5  6  2  0
  6  7  1  0
  7  8  2  0
  8  9  1  0
  9 34  1  0
 34 35  1  0
 35 36  2  0
 36 37  1  0
 37 38  2  0
 38 39  1  0
 39 41  1  0
 41 42  2  0
 41 43  1  0
 39 40  2  0
 18 19  1  0
 19 20  2  0
 20 15  1  0
  9  1  1  0
 40 35  1  0
  8  3  1  0
 33 27  1  0
 10 13  1  0
 42 44  1  0
 43 45  1  0
 43 46  1  0
M  CHG 1  22   1
M  END
> <minimizedAffinity>
-10.09963

> <CNNscore>
0.6954034567

> <CNNaffinity>
7.5992531776

> <CNN_VS>
5.2845468521

> <CNNaffinity_variance>
0.0445728302

$$$$



 46 50  0  0  0  0  0  0  0  0999 V2000
    4.1517    7.2866   22.0722 C   0  0  0  0  0  0  0  0  0  0  0  0
    3.1458    8.2251   21.8910 C   0  0  0  0  0  0  0  0  0  0  0  0
    3.0663    9.0444   23.0416 C   0  0  0  0  0  0  0  0  0  0  0  0
    2.2562   10.1403   23.3945 C   0  0  0  0  0  0  0  0  0  0  0  0
    2.4198   10.7629   24.6368 C   0  0  0  0  0  0  0  0  0  0  0  0
    3.3906   10.3003   25.5186 C   0  0  0  0  0  0  0  0  0  0  0  0
    4.2175    9.2187   25.1807 C   0  0  0  0  0  0  0  0  0  0  0  0
    4.0386    8.5985   23.9327 C   0  0  0  0  0  0  0  0  0  0  0  0
    4.6787    7.5191   23.3369 N   0  0  0  0  0  0  0  0  0  0  0  0
    4.7711    5.0268   21.6876 N   0  0  0  0  0  0  0  0  0  0  0  0
    4.6086    6.2778   21.1341 C   0  0  0  0  0  0  0  0  0  0  0  0
    4.8201    6.4927   19.9438 O   0  0  0  0  0  0  0  0  0  0  0  0
    4.5919    4.9036   22.6478 H   0  0  0  0  0  0  0  0  0  0  0  0
    5.1947    3.8935   20.9066 C   0  0  0  0  0  0  0  0  0  0  0  0
    2.6943    0.4725   21.8740 C   0  0  0  0  0  0  0  0  0  0  0  0
    2.5511    1.1569   20.6564 C   0  0  0  0  0  0  0  0  0  0  0  0
    3.3715    2.2442   20.3402 C   0  0  0  0  0  0  0  0  0  0  0  0
    4.3593    2.6782   21.2297 C   0  0  0  0  0  0  0  0  0  0  0  0
    4.5048    2.0055   22.4469 C   0  0  0  0  0  0  0  0  0  0  0  0
    3.6848    0.9120   22.7629 C   0  0  0  0  0  0  0  0  0  0  0  0
    0.4784   -0.2407   22.8786 C   0  0  0  0  0  0  0  0  0  0  0  0
    1.7660   -0.6903   22.1901 N   0  0  0  0  0  0  0  0  0  0  0  0
    2.4870   -1.6589   23.1245 C   0  0  0  0  0  0  0  0  0  0  0  0
    1.3870   -1.3725   20.8783 C   0  0  0  0  0  0  0  0  0  0  0  0
    1.5698   11.8135   24.8498 O   0  0  0  0  0  0  0  0  0  0  0  0
    0.4134   11.8950   24.0224 C   0  0  0  0  0  0  0  0  0  0  0  0
   -0.7874   12.0194   24.9309 C   0  0  0  0  0  0  0  0  0  0  0  0
   -1.3073   13.2809   25.2603 C   0  0  0  0  0  0  0  0  0  0  0  0
   -2.3925   13.3918   26.1311 C   0  0  0  0  0  0  0  0  0  0  0  0
   -2.9570   12.2440   26.6742 C   0  0  0  0  0  0  0  0  0  0  0  0
   -3.9983   12.3530   27.5087 F   0  0  0  0  0  0  0  0  0  0  0  0
   -2.4536   10.9865   26.3676 C   0  0  0  0  0  0  0  0  0  0  0  0
   -1.3668   10.8734   25.4992 C   0  0  0  0  0  0  0  0  0  0  0  0
    5.7480    6.7460   23.9722 C   0  0  0  0  0  0  0  0  0  0  0  0
    7.0402    7.5239   24.0517 C   0  0  0  0  0  0  0  0  0  0  0  0
    7.3697    8.4677   23.0700 C   0  0  0  0  0  0  0  0  0  0  0  0
    8.5575    9.1950   23.1527 C   0  0  0  0  0  0  0  0  0  0  0  0
    9.4378    8.9868   24.2182 C   0  0  0  0  0  0  0  0  0  0  0  0
    9.1311    8.0462   25.2086 C   0  0  0  0  0  0  0  0  0  0  0  0
    7.9318    7.3255   25.1212 C   0  0  0  0  0  0  0  0  0  0  0  0
   10.0521    7.7990   26.3651 C   0  0  0  0  0  0  0  0  0  0  0  0
   11.2653    8.2471   26.3166 N   0  0  0  0  0  0  0  0  0  0  0  0
    9.6284    7.1244   27.4735 N   0  0  0  0  0  0  0  0  0  0  0  0
   11.5786    8.7346   25.5208 H   0  0  0  0  0  0  0  0  0  0  0  0
    8.7071    6.7804   27.5181 H   0  0  0  0  0  0  0  0  0  0  0  0
   10.2442    6.9819   28.2283 H   0  0  0  0  0  0  0  0  0  0  0  0
 21 22  1  0
 22 23  1  0
 22 24  1  0
 22 15  1  0
 15 16  2  0
 16 17  1  0
 17 18  2  0
 18 14  1  0
 14 10  1  0
 10 11  1  0
 11 12  2  0
 11  1  1  0
  1  2  2  0
  2  3  1  0
  3  4  2  0
  4  5  1  0
  5 25  1  0
 25 26  1  0
 26 27  1  0
 27 28  2  0
 28 29  1  0
 29 30  2  0
 30 31  1  0
 30 32  1  0
 32 33  2  0
  5  6  2  0
  6  7  1  0
  7  8  2  0
  8  9  1  0
  9 34  1  0
 34 35  1  0
 35 36  2  0
 36 37  1  0
 37 38  2  0
 38 39  1  0
 39 41  1  0
 41 42  2  0
 41 43  1  0
 39 40  2  0
 18 19  1  0
 19 20  2  0
 20 15  1  0
  9  1  1  0
 40 35  1  0
  8  3  1  0
 33 27  1  0
 10 13  1  0
 42 44  1  0
 43 45  1  0
 43 46  1  0
M  CHG 1  22   1
M  END
> <minimizedAffinity>
-8.53163

> <CNNscore>
0.6953476667

> <CNNaffinity>
7.1001410484

> <CNN_VS>
4.9370665550

> <CNNaffinity_variance>
0.0270978510

$$$$



 46 50  0  0  0  0  0  0  0  0999 V2000
    4.1261    7.1838   23.8633 C   0  0  0  0  0  0  0  0  0  0  0  0
    3.8830    5.8956   23.4084 C   0  0  0  0  0  0  0  0  0  0  0  0
    4.8703    5.5481   22.4566 C   0  0  0  0  0  0  0  0  0  0  0  0
    5.1170    4.3879   21.6985 C   0  0  0  0  0  0  0  0  0  0  0  0
    6.2041    4.3422   20.8189 C   0  0  0  0  0  0  0  0  0  0  0  0
    7.0447    5.4439   20.7019 C   0  0  0  0  0  0  0  0  0  0  0  0
    6.8246    6.6045   21.4586 C   0  0  0  0  0  0  0  0  0  0  0  0
    5.7257    6.6396   22.3334 C   0  0  0  0  0  0  0  0  0  0  0  0
    5.2511    7.6321   23.1816 N   0  0  0  0  0  0  0  0  0  0  0  0
    2.8239    9.0920   24.4121 N   0  0  0  0  0  0  0  0  0  0  0  0
    3.3933    7.9254   24.8730 C   0  0  0  0  0  0  0  0  0  0  0  0
    3.2631    7.5558   26.0367 O   0  0  0  0  0  0  0  0  0  0  0  0
    2.9582    9.3485   23.4711 H   0  0  0  0  0  0  0  0  0  0  0  0
    2.0385    9.9483   25.2627 C   0  0  0  0  0  0  0  0  0  0  0  0
   -1.4620   11.5392   23.2361 C   0  0  0  0  0  0  0  0  0  0  0  0
   -0.3834   12.3682   23.5835 C   0  0  0  0  0  0  0  0  0  0  0  0
    0.7499   11.8486   24.2169 C   0  0  0  0  0  0  0  0  0  0  0  0
    0.8392   10.4864   24.5200 C   0  0  0  0  0  0  0  0  0  0  0  0
   -0.2331    9.6549   24.1823 C   0  0  0  0  0  0  0  0  0  0  0  0
   -1.3685   10.1749   23.5431 C   0  0  0  0  0  0  0  0  0  0  0  0
   -2.5389   12.2457   21.0522 C   0  0  0  0  0  0  0  0  0  0  0  0
   -2.6865   12.1480   22.5697 N   0  0  0  0  0  0  0  0  0  0  0  0
   -2.8963   13.5586   23.1150 C   0  0  0  0  0  0  0  0  0  0  0  0
   -3.8894   11.2582   22.8712 C   0  0  0  0  0  0  0  0  0  0  0  0
    6.3279    3.1569   20.1470 O   0  0  0  0  0  0  0  0  0  0  0  0
    7.5827    2.8846   19.5306 C   0  0  0  0  0  0  0  0  0  0  0  0
    7.3241    1.9621   18.3622 C   0  0  0  0  0  0  0  0  0  0  0  0
    6.0400    1.8565   17.8050 C   0  0  0  0  0  0  0  0  0  0  0  0
    5.7982    0.9738   16.7512 C   0  0  0  0  0  0  0  0  0  0  0  0
    6.8372    0.1955   16.2553 C   0  0  0  0  0  0  0  0  0  0  0  0
    6.6028   -0.6500   15.2440 F   0  0  0  0  0  0  0  0  0  0  0  0
    8.1134    0.2788   16.7968 C   0  0  0  0  0  0  0  0  0  0  0  0
    8.3569    1.1588   17.8524 C   0  0  0  0  0  0  0  0  0  0  0  0
    5.8599    8.9573   23.3163 C   0  0  0  0  0  0  0  0  0  0  0  0
    7.3514    8.8762   23.5404 C   0  0  0  0  0  0  0  0  0  0  0  0
    8.2487    9.2508   22.5317 C   0  0  0  0  0  0  0  0  0  0  0  0
    9.6260    9.1880   22.7455 C   0  0  0  0  0  0  0  0  0  0  0  0
   10.1285    8.7453   23.9723 C   0  0  0  0  0  0  0  0  0  0  0  0
    9.2508    8.3624   24.9934 C   0  0  0  0  0  0  0  0  0  0  0  0
    7.8683    8.4359   24.7720 C   0  0  0  0  0  0  0  0  0  0  0  0
    9.7559    7.8841   26.3212 C   0  0  0  0  0  0  0  0  0  0  0  0
    8.9803    7.1751   27.0767 N   0  0  0  0  0  0  0  0  0  0  0  0
   11.0236    8.1697   26.7389 N   0  0  0  0  0  0  0  0  0  0  0  0
    8.0646    6.9648   26.7826 H   0  0  0  0  0  0  0  0  0  0  0  0
   11.6197    8.7084   26.1700 H   0  0  0  0  0  0  0  0  0  0  0  0
   11.3418    7.8369   27.6091 H   0  0  0  0  0  0  0  0  0  0  0  0
 21 22  1  0
 22 23  1  0
 22 24  1  0
 22 15  1  0
 15 16  2  0
 16 17  1  0
 17 18  2  0
 18 14  1  0
 14 10  1  0
 10 11  1  0
 11 12  2  0
 11  1  1  0
  1  2  2  0
  2  3  1  0
  3  4  2  0
  4  5  1  0
  5 25  1  0
 25 26  1  0
 26 27  1  0
 27 28  2  0
 28 29  1  0
 29 30  2  0
 30 31  1  0
 30 32  1  0
 32 33  2  0
  5  6  2  0
  6  7  1  0
  7  8  2  0
  8  9  1  0
  9 34  1  0
 34 35  1  0
 35 36  2  0
 36 37  1  0
 37 38  2  0
 38 39  1  0
 39 41  1  0
 41 42  2  0
 41 43  1  0
 39 40  2  0
 18 19  1  0
 19 20  2  0
 20 15  1  0
  9  1  1  0
 40 35  1  0
  8  3  1  0
 33 27  1  0
 10 13  1  0
 42 44  1  0
 43 45  1  0
 43 46  1  0
M  CHG 1  22   1
M  END
> <minimizedAffinity>
-8.02195

> <CNNscore>
0.6595980525

> <CNNaffinity>
6.9166088104

> <CNN_VS>
4.5621814728

> <CNNaffinity_variance>
0.1432520002

$$$$



 46 50  0  0  0  0  0  0  0  0999 V2000
    4.9031    8.6251   22.8545 C   0  0  0  0  0  0  0  0  0  0  0  0
    4.7097    8.6081   21.4805 C   0  0  0  0  0  0  0  0  0  0  0  0
    5.6201    7.6956   20.8975 C   0  0  0  0  0  0  0  0  0  0  0  0
    5.8556    7.2763   19.5744 C   0  0  0  0  0  0  0  0  0  0  0  0
    6.8510    6.3309   19.3043 C   0  0  0  0  0  0  0  0  0  0  0  0
    7.6016    5.8009   20.3482 C   0  0  0  0  0  0  0  0  0  0  0  0
    7.3735    6.1947   21.6751 C   0  0  0  0  0  0  0  0  0  0  0  0
    6.3752    7.1496   21.9319 C   0  0  0  0  0  0  0  0  0  0  0  0
    5.9398    7.7365   23.1133 N   0  0  0  0  0  0  0  0  0  0  0  0
    2.9602    9.8771   23.3985 N   0  0  0  0  0  0  0  0  0  0  0  0
    4.1632    9.3798   23.8491 C   0  0  0  0  0  0  0  0  0  0  0  0
    4.5469    9.5566   25.0021 O   0  0  0  0  0  0  0  0  0  0  0  0
    2.6961    9.7119   22.4645 H   0  0  0  0  0  0  0  0  0  0  0  0
    2.0766   10.6309   24.2498 C   0  0  0  0  0  0  0  0  0  0  0  0
   -1.7022    8.5130   24.6058 C   0  0  0  0  0  0  0  0  0  0  0  0
   -0.5747    8.1178   25.3433 C   0  0  0  0  0  0  0  0  0  0  0  0
    0.6334    8.8145   25.2414 C   0  0  0  0  0  0  0  0  0  0  0  0
    0.7498    9.9266   24.4018 C   0  0  0  0  0  0  0  0  0  0  0  0
   -0.3669   10.3235   23.6597 C   0  0  0  0  0  0  0  0  0  0  0  0
   -1.5804    9.6274   23.7646 C   0  0  0  0  0  0  0  0  0  0  0  0
   -3.5725    7.3318   23.3669 C   0  0  0  0  0  0  0  0  0  0  0  0
   -2.9908    7.7138   24.7269 N   0  0  0  0  0  0  0  0  0  0  0  0
   -4.0286    8.5573   25.4636 C   0  0  0  0  0  0  0  0  0  0  0  0
   -2.6877    6.4268   25.4896 C   0  0  0  0  0  0  0  0  0  0  0  0
    6.9728    6.0130   17.9793 O   0  0  0  0  0  0  0  0  0  0  0  0
    6.2759    4.8595   17.5185 C   0  0  0  0  0  0  0  0  0  0  0  0
    7.1293    3.6547   17.8399 C   0  0  0  0  0  0  0  0  0  0  0  0
    6.5943    2.5683   18.5496 C   0  0  0  0  0  0  0  0  0  0  0  0
    7.3975    1.4751   18.8778 C   0  0  0  0  0  0  0  0  0  0  0  0
    8.7346    1.4673   18.4993 C   0  0  0  0  0  0  0  0  0  0  0  0
    9.5029    0.4172   18.8147 F   0  0  0  0  0  0  0  0  0  0  0  0
    9.2861    2.5350   17.8031 C   0  0  0  0  0  0  0  0  0  0  0  0
    8.4854    3.6305   17.4763 C   0  0  0  0  0  0  0  0  0  0  0  0
    6.5113    7.4512   24.4311 C   0  0  0  0  0  0  0  0  0  0  0  0
    7.9150    7.9915   24.5697 C   0  0  0  0  0  0  0  0  0  0  0  0
    8.3714    9.0217   23.7371 C   0  0  0  0  0  0  0  0  0  0  0  0
    9.6639    9.5286   23.8760 C   0  0  0  0  0  0  0  0  0  0  0  0
   10.5229    9.0098   24.8488 C   0  0  0  0  0  0  0  0  0  0  0  0
   10.0896    7.9776   25.6894 C   0  0  0  0  0  0  0  0  0  0  0  0
    8.7868    7.4797   25.5475 C   0  0  0  0  0  0  0  0  0  0  0  0
   10.9845    7.3992   26.7437 C   0  0  0  0  0  0  0  0  0  0  0  0
   10.4583    6.8595   27.7958 N   0  0  0  0  0  0  0  0  0  0  0  0
   12.3423    7.4176   26.6052 N   0  0  0  0  0  0  0  0  0  0  0  0
    9.4799    6.8423   27.9032 H   0  0  0  0  0  0  0  0  0  0  0  0
   12.7502    7.8262   25.8079 H   0  0  0  0  0  0  0  0  0  0  0  0
   12.9136    7.0222   27.3027 H   0  0  0  0  0  0  0  0  0  0  0  0
 21 22  1  0
 22 23  1  0
 22 24  1  0
 22 15  1  0
 15 16  2  0
 16 17  1  0
 17 18  2  0
 18 14  1  0
 14 10  1  0
 10 11  1  0
 11 12  2  0
 11  1  1  0
  1  2  2  0
  2  3  1  0
  3  4  2  0
  4  5  1  0
  5 25  1  0
 25 26  1  0
 26 27  1  0
 27 28  2  0
 28 29  1  0
 29 30  2  0
 30 31  1  0
 30 32  1  0
 32 33  2  0
  5  6  2  0
  6  7  1  0
  7  8  2  0
  8  9  1  0
  9 34  1  0
 34 35  1  0
 35 36  2  0
 36 37  1  0
 37 38  2  0
 38 39  1  0
 39 41  1  0
 41 42  2  0
 41 43  1  0
 39 40  2  0
 18 19  1  0
 19 20  2  0
 20 15  1  0
  9  1  1  0
 40 35  1  0
  8  3  1  0
 33 27  1  0
 10 13  1  0
 42 44  1  0
 43 45  1  0
 43 46  1  0
M  CHG 1  22   1
M  END
> <minimizedAffinity>
-9.86433

> <CNNscore>
0.6431033015

> <CNNaffinity>
7.6125893593

> <CNN_VS>
4.8956813812

> <CNNaffinity_variance>
0.0471702926

$$$$
