


 36 37  0  0  0  0  0  0  0  0999 V2000
   -9.7831   13.9521   20.7993 C   0  0  0  0  0  0  0  0  0  0  0  0
   -9.0657   14.2710   22.1331 C   0  0  0  0  0  0  0  0  0  0  0  0
   -7.6279   14.3453   22.0467 O   0  0  0  0  0  0  0  0  0  0  0  0
   -7.1652   15.7152   22.1880 C   0  0  0  0  0  0  0  0  0  0  0  0
   -8.4470   16.5580   22.2298 C   0  0  0  0  0  0  0  0  0  0  0  0
   -9.5178   15.5990   22.7141 C   0  0  0  0  0  0  0  0  0  0  0  0
  -10.8001   16.0435   22.2986 O   0  0  0  0  0  0  0  0  0  0  0  0
  -11.7375   14.9576   22.1767 C   0  0  0  0  0  0  0  0  0  0  0  0
  -11.3071   13.9154   21.1191 C   0  0  0  0  0  0  0  0  0  0  0  0
  -12.0869   14.0391   19.9266 O   0  0  0  0  0  0  0  0  0  0  0  0
  -11.9242   14.9057   19.5224 H   0  0  0  0  0  0  0  0  0  0  0  0
  -10.4461   15.9852   19.6430 C   0  0  0  0  0  0  0  0  0  0  0  0
   -9.4220   14.9394   19.7471 N   0  0  0  0  0  0  0  0  0  0  0  0
   -8.5277   15.3691   19.9840 H   0  0  0  0  0  0  0  0  0  0  0  0
   -6.3565   16.0311   20.9009 C   0  0  0  0  0  0  0  0  0  0  0  0
   -6.6580   15.1847   19.6578 C   0  0  0  0  0  0  0  0  0  0  0  0
   -6.7800   13.7612   20.0185 N   0  0  0  0  0  0  0  0  0  0  0  0
   -5.8905   13.4270   20.3893 H   0  0  0  0  0  0  0  0  0  0  0  0
   -7.0276   13.2205   19.1898 H   0  0  0  0  0  0  0  0  0  0  0  0
   -5.5978   15.3369   18.5581 C   0  0  0  0  0  0  0  0  0  0  0  0
   -5.4757   14.6423   17.5662 O   0  0  0  0  0  0  0  0  0  0  0  0
   -4.7611   16.3640   18.8106 O   0  0  0  0  0  0  0  0  0  0  0  0
   -4.8766   16.8837   19.5817 H   0  0  0  0  0  0  0  0  0  0  0  0
   -6.3337   15.6776   23.5232 C   0  0  0  0  0  0  0  0  0  0  0  0
   -6.8817   14.9288   24.8510 N   0  0  0  0  0  0  0  0  0  0  0  0
   -8.3819   14.7739   24.7585 C   0  0  0  0  0  0  0  0  0  0  0  0
   -6.6090   15.9827   25.9636 C   0  0  0  0  0  0  0  0  0  0  0  0
   -6.0234   13.6866   25.0620 C   0  0  0  0  0  0  0  0  0  0  0  0
   -6.0465   12.8275   26.3597 N   0  0  0  0  0  0  0  0  0  0  0  0
   -7.4788   12.5965   26.8315 C   0  0  0  0  0  0  0  0  0  0  0  0
   -5.5396   11.4497   25.8672 C   0  0  0  0  0  0  0  0  0  0  0  0
   -5.1383   13.4126   27.4211 C   0  0  0  0  0  0  0  0  0  0  0  0
   -4.8123   12.6942   28.7179 N   0  0  0  0  0  0  0  0  0  0  0  0
   -4.5735   13.8227   29.7814 C   0  0  0  0  0  0  0  0  0  0  0  0
   -3.4819   11.9168   28.7002 C   0  0  0  0  0  0  0  0  0  0  0  0
   -5.9018   11.8098   29.3161 C   0  0  0  0  0  0  0  0  0  0  0  0
 12 13  1  0
  1 13  1  0
  1  2  1  0
  2  3  1  0
  3  4  1  0
  4 15  1  0
 15 16  1  0
 16 17  1  0
 16 20  1  0
 20 21  2  0
 20 22  1  0
  4 24  1  0
 24 25  1  0
 25 26  1  0
 25 27  1  0
 25 28  1  0
 28 29  1  0
 29 30  1  0
 29 31  1  0
 29 32  1  0
 32 33  1  0
 33 34  1  0
 33 35  1  0
 33 36  1  0
  4  5  1  0
  6  5  1  0
  6  7  1  0
  7  8  1  0
  8  9  1  0
  9 10  1  0
  9  1  1  0
  6  2  1  0
 13 14  1  0
 17 18  1  0
 17 19  1  0
 22 23  1  0
 10 11  1  0
M  CHG 1  25   1
M  CHG 1  29   1
M  CHG 1  33   1
M  END
> <minimizedAffinity>
1.53746

> <CNNscore>
0.3792742193

> <CNNaffinity>
6.5746097565

> <CNN_VS>
2.4935798645

> <CNNaffinity_variance>
0.2569288015

$$$$



 36 37  0  0  0  0  0  0  0  0999 V2000
   -8.4765    4.9993   29.9284 C   0  0  0  0  0  0  0  0  0  0  0  0
   -7.8446    6.3728   30.2587 C   0  0  0  0  0  0  0  0  0  0  0  0
   -7.7839    7.2954   29.1517 O   0  0  0  0  0  0  0  0  0  0  0  0
   -8.7289    8.3851   29.3263 C   0  0  0  0  0  0  0  0  0  0  0  0
   -9.5237    8.0149   30.5857 C   0  0  0  0  0  0  0  0  0  0  0  0
   -8.6017    7.0926   31.3605 C   0  0  0  0  0  0  0  0  0  0  0  0
   -9.3552    6.2606   32.2291 O   0  0  0  0  0  0  0  0  0  0  0  0
   -8.6801    5.0214   32.5141 C   0  0  0  0  0  0  0  0  0  0  0  0
   -8.4373    4.1703   31.2465 C   0  0  0  0  0  0  0  0  0  0  0  0
   -9.3425    3.0647   31.1869 O   0  0  0  0  0  0  0  0  0  0  0  0
  -10.2515    3.3947   31.1113 H   0  0  0  0  0  0  0  0  0  0  0  0
  -10.6740    3.9891   29.6811 C   0  0  0  0  0  0  0  0  0  0  0  0
   -9.8457    5.1597   29.3698 N   0  0  0  0  0  0  0  0  0  0  0  0
  -10.2766    5.9915   29.7734 H   0  0  0  0  0  0  0  0  0  0  0  0
   -9.6539    8.3564   28.0797 C   0  0  0  0  0  0  0  0  0  0  0  0
  -10.5118    9.5998   27.8142 C   0  0  0  0  0  0  0  0  0  0  0  0
  -11.1748    9.5001   26.5019 N   0  0  0  0  0  0  0  0  0  0  0  0
  -10.4692    9.4708   25.7659 H   0  0  0  0  0  0  0  0  0  0  0  0
  -11.7776   10.3111   26.3630 H   0  0  0  0  0  0  0  0  0  0  0  0
   -9.7079   10.9062   27.8747 C   0  0  0  0  0  0  0  0  0  0  0  0
   -8.9929   11.3598   27.0006 O   0  0  0  0  0  0  0  0  0  0  0  0
   -9.8691   11.5368   29.0559 O   0  0  0  0  0  0  0  0  0  0  0  0
  -10.4254   11.1664   29.7126 H   0  0  0  0  0  0  0  0  0  0  0  0
   -7.8001    9.6485   29.4567 C   0  0  0  0  0  0  0  0  0  0  0  0
   -7.1254   10.0718   30.8673 N   0  0  0  0  0  0  0  0  0  0  0  0
   -6.6416    8.8335   31.5854 C   0  0  0  0  0  0  0  0  0  0  0  0
   -8.3455   10.6072   31.6722 C   0  0  0  0  0  0  0  0  0  0  0  0
   -6.1334   11.1934   30.5808 C   0  0  0  0  0  0  0  0  0  0  0  0
   -5.0018   11.6207   31.5603 N   0  0  0  0  0  0  0  0  0  0  0  0
   -5.5045   12.6736   32.5431 C   0  0  0  0  0  0  0  0  0  0  0  0
   -4.7730   10.3391   32.3990 C   0  0  0  0  0  0  0  0  0  0  0  0
   -3.7519   12.0301   30.8094 C   0  0  0  0  0  0  0  0  0  0  0  0
   -2.4220   11.3151   30.9658 N   0  0  0  0  0  0  0  0  0  0  0  0
   -2.7477    9.9650   31.6957 C   0  0  0  0  0  0  0  0  0  0  0  0
   -1.4281   12.0155   31.9125 C   0  0  0  0  0  0  0  0  0  0  0  0
   -1.6956   10.9095   29.6873 C   0  0  0  0  0  0  0  0  0  0  0  0
 12 13  1  0
  1 13  1  0
  1  2  1  0
  2  3  1  0
  3  4  1  0
  4 15  1  0
 15 16  1  0
 16 17  1  0
 16 20  1  0
 20 21  2  0
 20 22  1  0
  4 24  1  0
 24 25  1  0
 25 26  1  0
 25 27  1  0
 25 28  1  0
 28 29  1  0
 29 30  1  0
 29 31  1  0
 29 32  1  0
 32 33  1  0
 33 34  1  0
 33 35  1  0
 33 36  1  0
  4  5  1  0
  6  5  1  0
  6  7  1  0
  7  8  1  0
  8  9  1  0
  9 10  1  0
  9  1  1  0
  6  2  1  0
 13 14  1  0
 17 18  1  0
 17 19  1  0
 22 23  1  0
 10 11  1  0
M  CHG 1  25   1
M  CHG 1  29   1
M  CHG 1  33   1
M  END
> <minimizedAffinity>
-4.27167

> <CNNscore>
0.3361931145

> <CNNaffinity>
5.0232739449

> <CNN_VS>
1.6887900829

> <CNNaffinity_variance>
0.5496469736

$$$$



 36 37  0  0  0  0  0  0  0  0999 V2000
  -11.5198    8.8217   21.8179 C   0  0  0  0  0  0  0  0  0  0  0  0
  -12.5031    8.8972   23.0106 C   0  0  0  0  0  0  0  0  0  0  0  0
  -12.1418    9.8444   24.0366 O   0  0  0  0  0  0  0  0  0  0  0  0
  -13.0357   10.9897   24.0297 C   0  0  0  0  0  0  0  0  0  0  0  0
  -13.9340   10.7767   22.8039 C   0  0  0  0  0  0  0  0  0  0  0  0
  -13.9035    9.2790   22.5650 C   0  0  0  0  0  0  0  0  0  0  0  0
  -14.2140    8.9910   21.2103 O   0  0  0  0  0  0  0  0  0  0  0  0
  -13.6369    7.7462   20.7744 C   0  0  0  0  0  0  0  0  0  0  0  0
  -12.0926    7.7487   20.8449 C   0  0  0  0  0  0  0  0  0  0  0  0
  -11.5174    7.8756   19.5416 O   0  0  0  0  0  0  0  0  0  0  0  0
  -11.7641    8.7332   19.1614 H   0  0  0  0  0  0  0  0  0  0  0  0
  -10.0923   10.2005   20.4139 C   0  0  0  0  0  0  0  0  0  0  0  0
  -11.3384   10.1567   21.1876 N   0  0  0  0  0  0  0  0  0  0  0  0
  -12.1252   10.3430   20.5658 H   0  0  0  0  0  0  0  0  0  0  0  0
  -12.1348   12.2374   23.8250 C   0  0  0  0  0  0  0  0  0  0  0  0
  -11.9256   12.7228   22.3851 C   0  0  0  0  0  0  0  0  0  0  0  0
  -10.6154   12.2809   21.8756 N   0  0  0  0  0  0  0  0  0  0  0  0
   -9.8736   12.7017   22.4351 H   0  0  0  0  0  0  0  0  0  0  0  0
  -10.5136   12.5706   20.9029 H   0  0  0  0  0  0  0  0  0  0  0  0
  -12.0324   14.2478   22.2457 C   0  0  0  0  0  0  0  0  0  0  0  0
  -12.0736   15.0586   23.1524 O   0  0  0  0  0  0  0  0  0  0  0  0
  -12.0880   14.6279   20.9530 O   0  0  0  0  0  0  0  0  0  0  0  0
  -12.0543   13.9837   20.2734 H   0  0  0  0  0  0  0  0  0  0  0  0
  -13.7565   10.8911   25.4249 C   0  0  0  0  0  0  0  0  0  0  0  0
  -13.5082    9.6448   26.4294 N   0  0  0  0  0  0  0  0  0  0  0  0
  -12.0236    9.4492   26.6314 C   0  0  0  0  0  0  0  0  0  0  0  0
  -14.0081    8.4345   25.5878 C   0  0  0  0  0  0  0  0  0  0  0  0
  -14.3970    9.8576   27.6497 C   0  0  0  0  0  0  0  0  0  0  0  0
  -15.6309    8.9714   27.9881 N   0  0  0  0  0  0  0  0  0  0  0  0
  -16.9214    9.7794   27.8926 C   0  0  0  0  0  0  0  0  0  0  0  0
  -15.6715    7.9743   26.8039 C   0  0  0  0  0  0  0  0  0  0  0  0
  -15.4491    8.2610   29.3133 C   0  0  0  0  0  0  0  0  0  0  0  0
  -16.5830    7.5571   30.0364 N   0  0  0  0  0  0  0  0  0  0  0  0
  -17.0198    6.3783   29.0977 C   0  0  0  0  0  0  0  0  0  0  0  0
  -17.8637    8.4003   30.1895 C   0  0  0  0  0  0  0  0  0  0  0  0
  -16.2537    6.8987   31.3725 C   0  0  0  0  0  0  0  0  0  0  0  0
 12 13  1  0
  1 13  1  0
  1  2  1  0
  2  3  1  0
  3  4  1  0
  4 15  1  0
 15 16  1  0
 16 17  1  0
 16 20  1  0
 20 21  2  0
 20 22  1  0
  4 24  1  0
 24 25  1  0
 25 26  1  0
 25 27  1  0
 25 28  1  0
 28 29  1  0
 29 30  1  0
 29 31  1  0
 29 32  1  0
 32 33  1  0
 33 34  1  0
 33 35  1  0
 33 36  1  0
  4  5  1  0
  6  5  1  0
  6  7  1  0
  7  8  1  0
  8  9  1  0
  9 10  1  0
  9  1  1  0
  6  2  1  0
 13 14  1  0
 17 18  1  0
 17 19  1  0
 22 23  1  0
 10 11  1  0
M  CHG 1  25   1
M  CHG 1  29   1
M  CHG 1  33   1
M  END
> <minimizedAffinity>
14.59080

> <CNNscore>
0.3345346153

> <CNNaffinity>
6.0921759605

> <CNN_VS>
2.0380437374

> <CNNaffinity_variance>
0.0303650703

$$$$



 36 37  0  0  0  0  0  0  0  0999 V2000
   -6.7325   16.1366   21.0152 C   0  0  0  0  0  0  0  0  0  0  0  0
   -7.5418   14.9231   21.5323 C   0  0  0  0  0  0  0  0  0  0  0  0
   -8.5554   15.2403   22.5082 O   0  0  0  0  0  0  0  0  0  0  0  0
   -9.8870   15.0993   21.9444 C   0  0  0  0  0  0  0  0  0  0  0  0
   -9.6519   14.7993   20.4578 C   0  0  0  0  0  0  0  0  0  0  0  0
   -8.2590   14.2009   20.4056 C   0  0  0  0  0  0  0  0  0  0  0  0
   -7.6979   14.3739   19.1134 O   0  0  0  0  0  0  0  0  0  0  0  0
   -6.2589   14.4016   19.1462 C   0  0  0  0  0  0  0  0  0  0  0  0
   -5.7049   15.5732   19.9891 C   0  0  0  0  0  0  0  0  0  0  0  0
   -5.1903   16.6123   19.1519 O   0  0  0  0  0  0  0  0  0  0  0  0
   -5.9111   16.9877   18.6225 H   0  0  0  0  0  0  0  0  0  0  0  0
   -7.2730   18.5060   20.9509 C   0  0  0  0  0  0  0  0  0  0  0  0
   -7.6306   17.1759   20.4447 N   0  0  0  0  0  0  0  0  0  0  0  0
   -7.5454   17.1706   19.4282 H   0  0  0  0  0  0  0  0  0  0  0  0
  -10.5735   16.4817   22.1112 C   0  0  0  0  0  0  0  0  0  0  0  0
  -10.2137   17.5709   21.0930 C   0  0  0  0  0  0  0  0  0  0  0  0
  -10.6357   18.8955   21.5817 N   0  0  0  0  0  0  0  0  0  0  0  0
  -11.6507   18.9138   21.6809 H   0  0  0  0  0  0  0  0  0  0  0  0
  -10.3462   19.6117   20.9157 H   0  0  0  0  0  0  0  0  0  0  0  0
  -10.8306   17.3243   19.7091 C   0  0  0  0  0  0  0  0  0  0  0  0
  -10.5987   16.3878   18.9673 O   0  0  0  0  0  0  0  0  0  0  0  0
  -11.6960   18.3006   19.3676 O   0  0  0  0  0  0  0  0  0  0  0  0
  -11.8572   19.0111   19.9568 H   0  0  0  0  0  0  0  0  0  0  0  0
  -10.5098   13.9233   22.7839 C   0  0  0  0  0  0  0  0  0  0  0  0
  -11.5434   12.8605   22.1311 N   0  0  0  0  0  0  0  0  0  0  0  0
  -10.7719   11.6923   21.5625 C   0  0  0  0  0  0  0  0  0  0  0  0
  -12.1131   13.6527   20.9182 C   0  0  0  0  0  0  0  0  0  0  0  0
  -12.6346   12.5926   23.1615 C   0  0  0  0  0  0  0  0  0  0  0  0
  -13.0630   11.1681   23.6195 N   0  0  0  0  0  0  0  0  0  0  0  0
  -14.3844   10.7651   22.9724 C   0  0  0  0  0  0  0  0  0  0  0  0
  -11.9859   10.2623   22.9734 C   0  0  0  0  0  0  0  0  0  0  0  0
  -13.0598   11.0534   25.1297 C   0  0  0  0  0  0  0  0  0  0  0  0
  -13.3099    9.7463   25.8601 N   0  0  0  0  0  0  0  0  0  0  0  0
  -11.9531    9.3830   26.5591 C   0  0  0  0  0  0  0  0  0  0  0  0
  -13.5838    8.5422   24.9384 C   0  0  0  0  0  0  0  0  0  0  0  0
  -14.3423    9.7633   26.9829 C   0  0  0  0  0  0  0  0  0  0  0  0
 12 13  1  0
  1 13  1  0
  1  2  1  0
  2  3  1  0
  3  4  1  0
  4 15  1  0
 15 16  1  0
 16 17  1  0
 16 20  1  0
 20 21  2  0
 20 22  1  0
  4 24  1  0
 24 25  1  0
 25 26  1  0
 25 27  1  0
 25 28  1  0
 28 29  1  0
 29 30  1  0
 29 31  1  0
 29 32  1  0
 32 33  1  0
 33 34  1  0
 33 35  1  0
 33 36  1  0
  4  5  1  0
  6  5  1  0
  6  7  1  0
  7  8  1  0
  8  9  1  0
  9 10  1  0
  9  1  1  0
  6  2  1  0
 13 14  1  0
 17 18  1  0
 17 19  1  0
 22 23  1  0
 10 11  1  0
M  CHG 1  25   1
M  CHG 1  29   1
M  CHG 1  33   1
M  END
> <minimizedAffinity>
3.14173

> <CNNscore>
0.2582375407

> <CNNaffinity>
5.8982510567

> <CNN_VS>
1.5231498480

> <CNNaffinity_variance>
0.6359511018

$$$$



 36 37  0  0  0  0  0  0  0  0999 V2000
   -5.9376   16.7212   24.1134 C   0  0  0  0  0  0  0  0  0  0  0  0
   -7.2627   16.4713   23.3539 C   0  0  0  0  0  0  0  0  0  0  0  0
   -7.3114   17.0199   22.0208 O   0  0  0  0  0  0  0  0  0  0  0  0
   -7.2617   15.9680   21.0199 C   0  0  0  0  0  0  0  0  0  0  0  0
   -7.0278   14.6790   21.8191 C   0  0  0  0  0  0  0  0  0  0  0  0
   -7.5582   14.9893   23.2060 C   0  0  0  0  0  0  0  0  0  0  0  0
   -6.9445   14.1444   24.1673 O   0  0  0  0  0  0  0  0  0  0  0  0
   -6.9161   14.7431   25.4763 C   0  0  0  0  0  0  0  0  0  0  0  0
   -6.1024   16.0571   25.5127 C   0  0  0  0  0  0  0  0  0  0  0  0
   -4.8334   15.8601   26.1421 O   0  0  0  0  0  0  0  0  0  0  0  0
   -4.3051   15.2387   25.6172 H   0  0  0  0  0  0  0  0  0  0  0  0
   -3.6474   17.1416   23.4146 C   0  0  0  0  0  0  0  0  0  0  0  0
   -4.7738   16.2037   23.3452 N   0  0  0  0  0  0  0  0  0  0  0  0
   -4.4868   15.3064   23.7363 H   0  0  0  0  0  0  0  0  0  0  0  0
   -6.0285   16.2792   20.1296 C   0  0  0  0  0  0  0  0  0  0  0  0
   -5.9610   15.5922   18.7599 C   0  0  0  0  0  0  0  0  0  0  0  0
   -6.5585   14.2468   18.8261 N   0  0  0  0  0  0  0  0  0  0  0  0
   -6.0197   13.6668   19.4693 H   0  0  0  0  0  0  0  0  0  0  0  0
   -6.5486   13.8243   17.8978 H   0  0  0  0  0  0  0  0  0  0  0  0
   -4.5301   15.4819   18.2150 C   0  0  0  0  0  0  0  0  0  0  0  0
   -4.0980   14.6134   17.4801 O   0  0  0  0  0  0  0  0  0  0  0  0
   -3.7490   16.4883   18.6575 O   0  0  0  0  0  0  0  0  0  0  0  0
   -4.1060   17.1448   19.2227 H   0  0  0  0  0  0  0  0  0  0  0  0
   -8.6611   16.0818   20.3096 C   0  0  0  0  0  0  0  0  0  0  0  0
   -9.6822   17.2998   20.6221 N   0  0  0  0  0  0  0  0  0  0  0  0
  -10.6019   17.5013   19.4403 C   0  0  0  0  0  0  0  0  0  0  0  0
   -8.7297   18.5303   20.6621 C   0  0  0  0  0  0  0  0  0  0  0  0
  -10.2916   17.0439   21.9959 C   0  0  0  0  0  0  0  0  0  0  0  0
  -11.1124   15.7716   22.3565 N   0  0  0  0  0  0  0  0  0  0  0  0
  -11.8159   15.9427   23.6992 C   0  0  0  0  0  0  0  0  0  0  0  0
  -12.2358   15.7755   21.2907 C   0  0  0  0  0  0  0  0  0  0  0  0
  -10.2583   14.5241   22.2664 C   0  0  0  0  0  0  0  0  0  0  0  0
  -10.6314   13.3267   21.4112 N   0  0  0  0  0  0  0  0  0  0  0  0
  -11.3006   13.9172   20.1208 C   0  0  0  0  0  0  0  0  0  0  0  0
  -11.7265   12.4268   22.0156 C   0  0  0  0  0  0  0  0  0  0  0  0
   -9.4895   12.4532   20.9013 C   0  0  0  0  0  0  0  0  0  0  0  0
 12 13  1  0
  1 13  1  0
  1  2  1  0
  2  3  1  0
  3  4  1  0
  4 15  1  0
 15 16  1  0
 16 17  1  0
 16 20  1  0
 20 21  2  0
 20 22  1  0
  4 24  1  0
 24 25  1  0
 25 26  1  0
 25 27  1  0
 25 28  1  0
 28 29  1  0
 29 30  1  0
 29 31  1  0
 29 32  1  0
 32 33  1  0
 33 34  1  0
 33 35  1  0
 33 36  1  0
  4  5  1  0
  6  5  1  0
  6  7  1  0
  7  8  1  0
  8  9  1  0
  9 10  1  0
  9  1  1  0
  6  2  1  0
 13 14  1  0
 17 18  1  0
 17 19  1  0
 22 23  1  0
 10 11  1  0
M  CHG 1  25   1
M  CHG 1  29   1
M  CHG 1  33   1
M  END
> <minimizedAffinity>
6.37206

> <CNNscore>
0.2271230519

> <CNNaffinity>
6.2655482292

> <CNN_VS>
1.4230504036

> <CNNaffinity_variance>
0.0029834590

$$$$



 36 37  0  0  0  0  0  0  0  0999 V2000
  -11.6813    8.8099   22.0250 C   0  0  0  0  0  0  0  0  0  0  0  0
  -12.6738    8.8979   23.2093 C   0  0  0  0  0  0  0  0  0  0  0  0
  -12.2940    9.8182   24.2529 O   0  0  0  0  0  0  0  0  0  0  0  0
  -13.1524   10.9904   24.2549 C   0  0  0  0  0  0  0  0  0  0  0  0
  -14.0444   10.8233   23.0174 C   0  0  0  0  0  0  0  0  0  0  0  0
  -14.0573    9.3291   22.7561 C   0  0  0  0  0  0  0  0  0  0  0  0
  -14.3628    9.0710   21.3942 O   0  0  0  0  0  0  0  0  0  0  0  0
  -13.8197    7.8156   20.9450 C   0  0  0  0  0  0  0  0  0  0  0  0
  -12.2768    7.7696   21.0303 C   0  0  0  0  0  0  0  0  0  0  0  0
  -11.6850    7.8982   19.7348 O   0  0  0  0  0  0  0  0  0  0  0  0
  -11.9015    8.7686   19.3653 H   0  0  0  0  0  0  0  0  0  0  0  0
  -10.1734   10.1803   20.6990 C   0  0  0  0  0  0  0  0  0  0  0  0
  -11.4528   10.1479   21.4168 N   0  0  0  0  0  0  0  0  0  0  0  0
  -12.2087   10.3519   20.7630 H   0  0  0  0  0  0  0  0  0  0  0  0
  -12.2118   12.2127   24.0777 C   0  0  0  0  0  0  0  0  0  0  0  0
  -12.1835   12.8818   22.6978 C   0  0  0  0  0  0  0  0  0  0  0  0
  -11.0411   12.3897   21.9077 N   0  0  0  0  0  0  0  0  0  0  0  0
  -10.1704   12.6458   22.3731 H   0  0  0  0  0  0  0  0  0  0  0  0
  -11.0655   12.8081   20.9778 H   0  0  0  0  0  0  0  0  0  0  0  0
  -12.1196   14.4136   22.7762 C   0  0  0  0  0  0  0  0  0  0  0  0
  -12.4790   15.1085   23.7085 O   0  0  0  0  0  0  0  0  0  0  0  0
  -11.6075   14.9498   21.6497 O   0  0  0  0  0  0  0  0  0  0  0  0
  -11.3382   14.3927   20.9461 H   0  0  0  0  0  0  0  0  0  0  0  0
  -13.8898   10.8932   25.6413 C   0  0  0  0  0  0  0  0  0  0  0  0
  -13.6966    9.6210   26.6254 N   0  0  0  0  0  0  0  0  0  0  0  0
  -12.2246    9.4129   26.8956 C   0  0  0  0  0  0  0  0  0  0  0  0
  -14.1586    8.4347   25.7298 C   0  0  0  0  0  0  0  0  0  0  0  0
  -14.6440    9.8079   27.8050 C   0  0  0  0  0  0  0  0  0  0  0  0
  -15.9119    8.9375   28.0445 N   0  0  0  0  0  0  0  0  0  0  0  0
  -16.0360    7.8551   26.9767 C   0  0  0  0  0  0  0  0  0  0  0  0
  -15.5728    8.1931   29.3593 C   0  0  0  0  0  0  0  0  0  0  0  0
  -17.1490    9.7989   28.1908 C   0  0  0  0  0  0  0  0  0  0  0  0
  -18.5263    9.2266   28.4732 N   0  0  0  0  0  0  0  0  0  0  0  0
  -19.0092    9.9136   29.7985 C   0  0  0  0  0  0  0  0  0  0  0  0
  -18.5358    7.7235   28.8124 C   0  0  0  0  0  0  0  0  0  0  0  0
  -19.6229    9.5173   27.4535 C   0  0  0  0  0  0  0  0  0  0  0  0
 12 13  1  0
  1 13  1  0
  1  2  1  0
  2  3  1  0
  3  4  1  0
  4 15  1  0
 15 16  1  0
 16 17  1  0
 16 20  1  0
 20 21  2  0
 20 22  1  0
  4 24  1  0
 24 25  1  0
 25 26  1  0
 25 27  1  0
 25 28  1  0
 28 29  1  0
 29 30  1  0
 29 31  1  0
 29 32  1  0
 32 33  1  0
 33 34  1  0
 33 35  1  0
 33 36  1  0
  4  5  1  0
  6  5  1  0
  6  7  1  0
  7  8  1  0
  8  9  1  0
  9 10  1  0
  9  1  1  0
  6  2  1  0
 13 14  1  0
 17 18  1  0
 17 19  1  0
 22 23  1  0
 10 11  1  0
M  CHG 1  25   1
M  CHG 1  29   1
M  CHG 1  33   1
M  END
> <minimizedAffinity>
14.24119

> <CNNscore>
0.2223134190

> <CNNaffinity>
5.6221485138

> <CNN_VS>
1.2498790026

> <CNNaffinity_variance>
0.1918227226

$$$$



 36 37  0  0  0  0  0  0  0  0999 V2000
   -8.5339   12.4648   21.0689 C   0  0  0  0  0  0  0  0  0  0  0  0
   -8.6183   13.9622   21.4506 C   0  0  0  0  0  0  0  0  0  0  0  0
   -7.3453   14.6143   21.6362 O   0  0  0  0  0  0  0  0  0  0  0  0
   -7.0713   15.5448   20.5545 C   0  0  0  0  0  0  0  0  0  0  0  0
   -8.2209   15.3364   19.5595 C   0  0  0  0  0  0  0  0  0  0  0  0
   -9.3527   14.7730   20.3977 C   0  0  0  0  0  0  0  0  0  0  0  0
  -10.2527   14.0411   19.5799 O   0  0  0  0  0  0  0  0  0  0  0  0
  -10.9533   13.0241   20.3198 C   0  0  0  0  0  0  0  0  0  0  0  0
  -10.0023   11.9657   20.9243 C   0  0  0  0  0  0  0  0  0  0  0  0
  -10.0601   10.7407   20.1886 O   0  0  0  0  0  0  0  0  0  0  0  0
   -9.7438   10.8915   19.2841 H   0  0  0  0  0  0  0  0  0  0  0  0
   -8.1218   11.0467   19.1377 C   0  0  0  0  0  0  0  0  0  0  0  0
   -7.7182   12.2700   19.8404 N   0  0  0  0  0  0  0  0  0  0  0  0
   -7.8488   13.0702   19.2215 H   0  0  0  0  0  0  0  0  0  0  0  0
   -5.7271   15.0893   19.9253 C   0  0  0  0  0  0  0  0  0  0  0  0
   -5.6409   15.0686   18.3940 C   0  0  0  0  0  0  0  0  0  0  0  0
   -6.1708   13.8002   17.8632 N   0  0  0  0  0  0  0  0  0  0  0  0
   -5.5972   13.0258   18.1974 H   0  0  0  0  0  0  0  0  0  0  0  0
   -6.1504   13.8233   16.8437 H   0  0  0  0  0  0  0  0  0  0  0  0
   -4.2123   15.2759   17.8717 C   0  0  0  0  0  0  0  0  0  0  0  0
   -3.5441   14.4731   17.2470 O   0  0  0  0  0  0  0  0  0  0  0  0
   -3.7353   16.4953   18.1943 O   0  0  0  0  0  0  0  0  0  0  0  0
   -4.2701   17.0952   18.6761 H   0  0  0  0  0  0  0  0  0  0  0  0
   -7.0459   16.9410   21.2795 C   0  0  0  0  0  0  0  0  0  0  0  0
   -8.1209   18.1029   20.9354 N   0  0  0  0  0  0  0  0  0  0  0  0
   -8.3613   18.1405   19.4442 C   0  0  0  0  0  0  0  0  0  0  0  0
   -7.3365   19.3986   21.2944 C   0  0  0  0  0  0  0  0  0  0  0  0
   -9.3107   17.9157   21.8700 C   0  0  0  0  0  0  0  0  0  0  0  0
  -10.7899   18.1530   21.4479 N   0  0  0  0  0  0  0  0  0  0  0  0
  -11.0243   19.6183   21.0940 C   0  0  0  0  0  0  0  0  0  0  0  0
  -10.8934   17.3770   20.1118 C   0  0  0  0  0  0  0  0  0  0  0  0
  -11.7503   17.6119   22.4865 C   0  0  0  0  0  0  0  0  0  0  0  0
  -11.6519   16.2061   23.0506 N   0  0  0  0  0  0  0  0  0  0  0  0
  -12.4314   16.2381   24.4119 C   0  0  0  0  0  0  0  0  0  0  0  0
  -10.2272   15.7773   23.4516 C   0  0  0  0  0  0  0  0  0  0  0  0
  -12.3047   15.0864   22.2462 C   0  0  0  0  0  0  0  0  0  0  0  0
 12 13  1  0
  1 13  1  0
  1  2  1  0
  2  3  1  0
  3  4  1  0
  4 15  1  0
 15 16  1  0
 16 17  1  0
 16 20  1  0
 20 21  2  0
 20 22  1  0
  4 24  1  0
 24 25  1  0
 25 26  1  0
 25 27  1  0
 25 28  1  0
 28 29  1  0
 29 30  1  0
 29 31  1  0
 29 32  1  0
 32 33  1  0
 33 34  1  0
 33 35  1  0
 33 36  1  0
  4  5  1  0
  6  5  1  0
  6  7  1  0
  7  8  1  0
  8  9  1  0
  9 10  1  0
  9  1  1  0
  6  2  1  0
 13 14  1  0
 17 18  1  0
 17 19  1  0
 22 23  1  0
 10 11  1  0
M  CHG 1  25   1
M  CHG 1  29   1
M  CHG 1  33   1
M  END
> <minimizedAffinity>
4.32341

> <CNNscore>
0.1967390776

> <CNNaffinity>
6.3351187706

> <CNN_VS>
1.2463654280

> <CNNaffinity_variance>
0.0175807085

$$$$



 36 37  0  0  0  0  0  0  0  0999 V2000
   -9.0250   13.0976   20.5571 C   0  0  0  0  0  0  0  0  0  0  0  0
   -9.0120   13.7854   21.9434 C   0  0  0  0  0  0  0  0  0  0  0  0
   -7.7054   14.1685   22.4191 O   0  0  0  0  0  0  0  0  0  0  0  0
   -7.5411   15.6118   22.3920 C   0  0  0  0  0  0  0  0  0  0  0  0
   -8.8137   16.1372   21.7142 C   0  0  0  0  0  0  0  0  0  0  0  0
   -9.8476   15.0531   21.9529 C   0  0  0  0  0  0  0  0  0  0  0  0
  -10.8672   15.1209   20.9678 O   0  0  0  0  0  0  0  0  0  0  0  0
  -11.5007   13.8459   20.7541 C   0  0  0  0  0  0  0  0  0  0  0  0
  -10.5152   12.7693   20.2445 C   0  0  0  0  0  0  0  0  0  0  0  0
  -10.7053   12.5155   18.8499 O   0  0  0  0  0  0  0  0  0  0  0  0
  -10.5016   13.3179   18.3445 H   0  0  0  0  0  0  0  0  0  0  0  0
   -7.1107   13.3647   19.0824 C   0  0  0  0  0  0  0  0  0  0  0  0
   -8.3785   13.9546   19.5275 N   0  0  0  0  0  0  0  0  0  0  0  0
   -9.0042   14.0463   18.7273 H   0  0  0  0  0  0  0  0  0  0  0  0
   -6.3030   15.8871   21.4967 C   0  0  0  0  0  0  0  0  0  0  0  0
   -6.3590   17.1164   20.5810 C   0  0  0  0  0  0  0  0  0  0  0  0
   -7.5171   17.9619   20.9206 N   0  0  0  0  0  0  0  0  0  0  0  0
   -8.3783   17.4396   20.7595 H   0  0  0  0  0  0  0  0  0  0  0  0
   -7.5116   18.7972   20.3353 H   0  0  0  0  0  0  0  0  0  0  0  0
   -6.4213   16.7511   19.0913 C   0  0  0  0  0  0  0  0  0  0  0  0
   -5.5462   16.2130   18.4386 O   0  0  0  0  0  0  0  0  0  0  0  0
   -7.5981   17.1092   18.5386 O   0  0  0  0  0  0  0  0  0  0  0  0
   -8.2556   17.5222   19.0631 H   0  0  0  0  0  0  0  0  0  0  0  0
   -7.3789   15.9834   23.9123 C   0  0  0  0  0  0  0  0  0  0  0  0
   -7.0517   14.8636   25.0361 N   0  0  0  0  0  0  0  0  0  0  0  0
   -6.4837   13.6324   24.3693 C   0  0  0  0  0  0  0  0  0  0  0  0
   -8.4712   14.4804   25.5471 C   0  0  0  0  0  0  0  0  0  0  0  0
   -6.2466   15.5436   26.1378 C   0  0  0  0  0  0  0  0  0  0  0  0
   -4.9630   14.9356   26.7743 N   0  0  0  0  0  0  0  0  0  0  0  0
   -5.2614   14.3664   28.1579 C   0  0  0  0  0  0  0  0  0  0  0  0
   -4.6789   13.7115   25.8693 C   0  0  0  0  0  0  0  0  0  0  0  0
   -3.8179   15.9266   26.7531 C   0  0  0  0  0  0  0  0  0  0  0  0
   -3.9806   17.3685   26.3072 N   0  0  0  0  0  0  0  0  0  0  0  0
   -3.4888   17.4116   24.8180 C   0  0  0  0  0  0  0  0  0  0  0  0
   -3.0569   18.3682   27.0296 C   0  0  0  0  0  0  0  0  0  0  0  0
   -5.3983   17.9304   26.2731 C   0  0  0  0  0  0  0  0  0  0  0  0
 12 13  1  0
  1 13  1  0
  1  2  1  0
  2  3  1  0
  3  4  1  0
  4 15  1  0
 15 16  1  0
 16 17  1  0
 16 20  1  0
 20 21  2  0
 20 22  1  0
  4 24  1  0
 24 25  1  0
 25 26  1  0
 25 27  1  0
 25 28  1  0
 28 29  1  0
 29 30  1  0
 29 31  1  0
 29 32  1  0
 32 33  1  0
 33 34  1  0
 33 35  1  0
 33 36  1  0
  4  5  1  0
  6  5  1  0
  6  7  1  0
  7  8  1  0
  8  9  1  0
  9 10  1  0
  9  1  1  0
  6  2  1  0
 13 14  1  0
 17 18  1  0
 17 19  1  0
 22 23  1  0
 10 11  1  0
M  CHG 1  25   1
M  CHG 1  29   1
M  CHG 1  33   1
M  END
> <minimizedAffinity>
9.97236

> <CNNscore>
0.1904751360

> <CNNaffinity>
5.7627048492

> <CNN_VS>
1.0976519585

> <CNNaffinity_variance>
0.0365247019

$$$$



 36 37  0  0  0  0  0  0  0  0999 V2000
  -18.9879    6.3985   28.1052 C   0  0  0  0  0  0  0  0  0  0  0  0
  -17.6045    6.4501   27.4133 C   0  0  0  0  0  0  0  0  0  0  0  0
  -17.2322    7.7437   26.8955 O   0  0  0  0  0  0  0  0  0  0  0  0
  -16.1671    8.3370   27.6857 C   0  0  0  0  0  0  0  0  0  0  0  0
  -15.9719    7.3735   28.8641 C   0  0  0  0  0  0  0  0  0  0  0  0
  -16.4863    6.0403   28.3552 C   0  0  0  0  0  0  0  0  0  0  0  0
  -16.8744    5.2156   29.4431 O   0  0  0  0  0  0  0  0  0  0  0  0
  -17.8814    4.2583   29.0659 C   0  0  0  0  0  0  0  0  0  0  0  0
  -19.1868    4.9279   28.5786 C   0  0  0  0  0  0  0  0  0  0  0  0
  -20.2125    4.8406   29.5713 O   0  0  0  0  0  0  0  0  0  0  0  0
  -19.9421    5.3360   30.3602 H   0  0  0  0  0  0  0  0  0  0  0  0
  -19.3070    6.7239   30.4932 C   0  0  0  0  0  0  0  0  0  0  0  0
  -19.0728    7.3927   29.2082 N   0  0  0  0  0  0  0  0  0  0  0  0
  -18.1976    7.9143   29.2569 H   0  0  0  0  0  0  0  0  0  0  0  0
  -16.7140    9.6994   28.1909 C   0  0  0  0  0  0  0  0  0  0  0  0
  -18.1201    9.7071   28.8037 C   0  0  0  0  0  0  0  0  0  0  0  0
  -19.1057   10.2096   27.8303 N   0  0  0  0  0  0  0  0  0  0  0  0
  -18.8864   11.1771   27.5931 H   0  0  0  0  0  0  0  0  0  0  0  0
  -20.0398   10.1626   28.2372 H   0  0  0  0  0  0  0  0  0  0  0  0
  -18.2090   10.5428   30.0882 C   0  0  0  0  0  0  0  0  0  0  0  0
  -19.2098   10.7580   30.7466 O   0  0  0  0  0  0  0  0  0  0  0  0
  -17.0098   11.0528   30.4355 O   0  0  0  0  0  0  0  0  0  0  0  0
  -16.2544   10.8722   29.9115 H   0  0  0  0  0  0  0  0  0  0  0  0
  -14.9686    8.4183   26.6696 C   0  0  0  0  0  0  0  0  0  0  0  0
  -13.6774    9.3574   26.9436 N   0  0  0  0  0  0  0  0  0  0  0  0
  -12.8689    8.7815   28.0828 C   0  0  0  0  0  0  0  0  0  0  0  0
  -14.3266   10.6688   27.4744 C   0  0  0  0  0  0  0  0  0  0  0  0
  -12.9945    9.5977   25.6019 C   0  0  0  0  0  0  0  0  0  0  0  0
  -13.7556    9.6995   24.2481 N   0  0  0  0  0  0  0  0  0  0  0  0
  -14.2767    8.3327   23.8150 C   0  0  0  0  0  0  0  0  0  0  0  0
  -15.0097   10.5275   24.6217 C   0  0  0  0  0  0  0  0  0  0  0  0
  -12.9159   10.3964   23.1978 C   0  0  0  0  0  0  0  0  0  0  0  0
  -12.8735   11.9056   23.0409 N   0  0  0  0  0  0  0  0  0  0  0  0
  -14.0759   12.2699   22.1012 C   0  0  0  0  0  0  0  0  0  0  0  0
  -11.6402   12.4344   22.2834 C   0  0  0  0  0  0  0  0  0  0  0  0
  -13.0858   12.7420   24.2988 C   0  0  0  0  0  0  0  0  0  0  0  0
 12 13  1  0
  1 13  1  0
  1  2  1  0
  2  3  1  0
  3  4  1  0
  4 15  1  0
 15 16  1  0
 16 17  1  0
 16 20  1  0
 20 21  2  0
 20 22  1  0
  4 24  1  0
 24 25  1  0
 25 26  1  0
 25 27  1  0
 25 28  1  0
 28 29  1  0
 29 30  1  0
 29 31  1  0
 29 32  1  0
 32 33  1  0
 33 34  1  0
 33 35  1  0
 33 36  1  0
  4  5  1  0
  6  5  1  0
  6  7  1  0
  7  8  1  0
  8  9  1  0
  9 10  1  0
  9  1  1  0
  6  2  1  0
 13 14  1  0
 17 18  1  0
 17 19  1  0
 22 23  1  0
 10 11  1  0
M  CHG 1  25   1
M  CHG 1  29   1
M  CHG 1  33   1
M  END
> <minimizedAffinity>
9.66428

> <CNNscore>
0.1879707575

> <CNNaffinity>
4.1922430992

> <CNN_VS>
0.7880191207

> <CNNaffinity_variance>
0.5627298951

$$$$
