


 26 28  0  0  0  0  0  0  0  0999 V2000
   -8.3815   54.3069   12.0748 C   0  0  0  0  0  0  0  0  0  0  0  0
   -9.4204   53.6727   11.9409 O   0  0  0  0  0  0  0  0  0  0  0  0
   -8.1429   55.6102   11.6722 N   0  0  0  0  0  0  0  0  0  0  0  0
   -7.2671   55.9892   11.9140 H   0  0  0  0  0  0  0  0  0  0  0  0
   -5.5468   51.9149   12.8132 C   0  0  0  0  0  0  0  0  0  0  0  0
   -5.1172   52.3824   14.0649 C   0  0  0  0  0  0  0  0  0  0  0  0
   -5.7291   53.4844   14.6640 C   0  0  0  0  0  0  0  0  0  0  0  0
   -6.7891   54.1276   14.0247 C   0  0  0  0  0  0  0  0  0  0  0  0
   -7.2442   53.6580   12.7859 C   0  0  0  0  0  0  0  0  0  0  0  0
   -6.6123   52.5664   12.1759 C   0  0  0  0  0  0  0  0  0  0  0  0
   -4.8581   50.7360   12.1572 C   0  0  0  0  0  0  0  0  0  0  0  0
   -4.8734   50.5260    9.7617 C   0  0  0  0  0  0  0  0  0  0  0  0
   -4.1622   51.0951   10.9087 N   0  0  0  0  0  0  0  0  0  0  0  0
   -2.7753   50.6212   10.9147 C   0  0  0  0  0  0  0  0  0  0  0  0
   -9.0158   56.4564   10.9533 C   0  0  0  0  0  0  0  0  0  0  0  0
   -8.9061   56.6991    9.5846 C   0  0  0  0  0  0  0  0  0  0  0  0
   -9.8022   57.5569    8.9457 C   0  0  0  0  0  0  0  0  0  0  0  0
  -10.8163   58.1791    9.6721 C   0  0  0  0  0  0  0  0  0  0  0  0
  -10.9537   57.9541   11.0482 C   0  0  0  0  0  0  0  0  0  0  0  0
  -10.0398   57.0906   11.6782 C   0  0  0  0  0  0  0  0  0  0  0  0
  -12.0337   58.6244   11.7714 C   0  0  0  0  0  0  0  0  0  0  0  0
  -13.1164   58.0693   12.2876 N   0  0  0  0  0  0  0  0  0  0  0  0
  -13.8387   59.0788   12.8747 N   0  0  0  0  0  0  0  0  0  0  0  0
  -13.2242   60.2427   12.7349 N   0  0  0  0  0  0  0  0  0  0  0  0
  -12.1050   59.9618   12.0570 N   0  0  0  0  0  0  0  0  0  0  0  0
  -11.4256   60.6259   11.7990 H   0  0  0  0  0  0  0  0  0  0  0  0
 12 13  1  0
 13 14  1  0
 13 11  1  0
 11  5  1  0
  5  6  2  0
  6  7  1  0
  7  8  2  0
  8  9  1  0
  9  1  1  0
  1  2  2  0
  1  3  1  0
  3 15  1  0
 15 16  2  0
 16 17  1  0
 17 18  2  0
 18 19  1  0
 19 21  1  0
 21 22  2  0
 22 23  1  0
 23 24  2  0
 24 25  1  0
 19 20  2  0
  9 10  2  0
 10  5  1  0
 20 15  1  0
 25 21  1  0
  3  4  1  0
 25 26  1  0
M  END
> <minimizedAffinity>
-6.72202

> <CNNscore>
0.6987703443

> <CNNaffinity>
4.3973121643

> <CNN_VS>
3.0727112293

> <CNNaffinity_variance>
0.8954573274

$$$$



 26 28  0  0  0  0  0  0  0  0999 V2000
  -11.5250   57.2093   11.2604 C   0  0  0  0  0  0  0  0  0  0  0  0
  -12.4059   56.3723   11.4110 O   0  0  0  0  0  0  0  0  0  0  0  0
  -11.6488   58.5823   11.3914 N   0  0  0  0  0  0  0  0  0  0  0  0
  -10.8214   59.1072   11.2954 H   0  0  0  0  0  0  0  0  0  0  0  0
   -7.9865   55.9771   11.7734 C   0  0  0  0  0  0  0  0  0  0  0  0
   -7.5460   55.8585   10.4462 C   0  0  0  0  0  0  0  0  0  0  0  0
   -8.3979   56.1569    9.3817 C   0  0  0  0  0  0  0  0  0  0  0  0
   -9.7002   56.5907    9.6302 C   0  0  0  0  0  0  0  0  0  0  0  0
  -10.1465   56.7364   10.9500 C   0  0  0  0  0  0  0  0  0  0  0  0
   -9.2968   56.4131   12.0160 C   0  0  0  0  0  0  0  0  0  0  0  0
   -7.0644   55.6236   12.9221 C   0  0  0  0  0  0  0  0  0  0  0  0
   -6.3318   53.8404   14.3595 C   0  0  0  0  0  0  0  0  0  0  0  0
   -7.4758   54.4032   13.6386 N   0  0  0  0  0  0  0  0  0  0  0  0
   -8.0212   53.4014   12.7183 C   0  0  0  0  0  0  0  0  0  0  0  0
  -12.8296   59.3138   11.6473 C   0  0  0  0  0  0  0  0  0  0  0  0
  -13.5759   59.1940   12.8190 C   0  0  0  0  0  0  0  0  0  0  0  0
  -14.7389   59.9446   12.9950 C   0  0  0  0  0  0  0  0  0  0  0  0
  -15.1647   60.8220   11.9989 C   0  0  0  0  0  0  0  0  0  0  0  0
  -14.4356   60.9659   10.8111 C   0  0  0  0  0  0  0  0  0  0  0  0
  -13.2683   60.1988   10.6471 C   0  0  0  0  0  0  0  0  0  0  0  0
  -14.9159   61.9000    9.7936 C   0  0  0  0  0  0  0  0  0  0  0  0
  -16.1588   62.3077    9.6041 N   0  0  0  0  0  0  0  0  0  0  0  0
  -16.1328   63.1820    8.5456 N   0  0  0  0  0  0  0  0  0  0  0  0
  -14.9018   63.3249    8.0808 N   0  0  0  0  0  0  0  0  0  0  0  0
  -14.1476   62.5363    8.8555 N   0  0  0  0  0  0  0  0  0  0  0  0
  -13.1734   62.4283    8.7635 H   0  0  0  0  0  0  0  0  0  0  0  0
 12 13  1  0
 13 14  1  0
 13 11  1  0
 11  5  1  0
  5  6  2  0
  6  7  1  0
  7  8  2  0
  8  9  1  0
  9  1  1  0
  1  2  2  0
  1  3  1  0
  3 15  1  0
 15 16  2  0
 16 17  1  0
 17 18  2  0
 18 19  1  0
 19 21  1  0
 21 22  2  0
 22 23  1  0
 23 24  2  0
 24 25  1  0
 19 20  2  0
  9 10  2  0
 10  5  1  0
 20 15  1  0
 25 21  1  0
  3  4  1  0
 25 26  1  0
M  END
> <minimizedAffinity>
-5.91504

> <CNNscore>
0.5439029336

> <CNNaffinity>
4.4746603966

> <CNN_VS>
2.4337809086

> <CNNaffinity_variance>
0.4874733388

$$$$



 26 28  0  0  0  0  0  0  0  0999 V2000
  -11.6054   59.2049   10.6017 C   0  0  0  0  0  0  0  0  0  0  0  0
  -10.8940   60.0176   10.0248 O   0  0  0  0  0  0  0  0  0  0  0  0
  -11.2754   57.9049   10.9460 N   0  0  0  0  0  0  0  0  0  0  0  0
  -11.9474   57.4058   11.4643 H   0  0  0  0  0  0  0  0  0  0  0  0
  -15.2526   60.1910   10.4344 C   0  0  0  0  0  0  0  0  0  0  0  0
  -15.5221   60.4620   11.7849 C   0  0  0  0  0  0  0  0  0  0  0  0
  -14.5314   60.3071   12.7557 C   0  0  0  0  0  0  0  0  0  0  0  0
  -13.2520   59.8905   12.3875 C   0  0  0  0  0  0  0  0  0  0  0  0
  -12.9617   59.6388   11.0404 C   0  0  0  0  0  0  0  0  0  0  0  0
  -13.9648   59.7720   10.0714 C   0  0  0  0  0  0  0  0  0  0  0  0
  -16.3417   60.3341    9.3914 C   0  0  0  0  0  0  0  0  0  0  0  0
  -16.5237   62.2597    7.9624 C   0  0  0  0  0  0  0  0  0  0  0  0
  -15.8688   60.9623    8.1449 N   0  0  0  0  0  0  0  0  0  0  0  0
  -16.1316   60.1084    6.9831 C   0  0  0  0  0  0  0  0  0  0  0  0
  -10.0825   57.2150   10.6366 C   0  0  0  0  0  0  0  0  0  0  0  0
   -9.6948   56.8822    9.3391 C   0  0  0  0  0  0  0  0  0  0  0  0
   -8.5044   56.1900    9.1138 C   0  0  0  0  0  0  0  0  0  0  0  0
   -7.6916   55.8251   10.1859 C   0  0  0  0  0  0  0  0  0  0  0  0
   -8.0529   56.1465   11.5009 C   0  0  0  0  0  0  0  0  0  0  0  0
   -9.2580   56.8403   11.7117 C   0  0  0  0  0  0  0  0  0  0  0  0
   -7.1696   55.7477   12.5960 C   0  0  0  0  0  0  0  0  0  0  0  0
   -7.4789   55.6445   13.8768 N   0  0  0  0  0  0  0  0  0  0  0  0
   -6.3416   55.2346   14.5281 N   0  0  0  0  0  0  0  0  0  0  0  0
   -5.3396   55.0797   13.6774 N   0  0  0  0  0  0  0  0  0  0  0  0
   -5.8522   55.3918   12.4812 N   0  0  0  0  0  0  0  0  0  0  0  0
   -5.3507   55.3687   11.6344 H   0  0  0  0  0  0  0  0  0  0  0  0
 12 13  1  0
 13 14  1  0
 13 11  1  0
 11  5  1  0
  5  6  2  0
  6  7  1  0
  7  8  2  0
  8  9  1  0
  9  1  1  0
  1  2  2  0
  1  3  1  0
  3 15  1  0
 15 16  2  0
 16 17  1  0
 17 18  2  0
 18 19  1  0
 19 21  1  0
 21 22  2  0
 22 23  1  0
 23 24  2  0
 24 25  1  0
 19 20  2  0
  9 10  2  0
 10  5  1  0
 20 15  1  0
 25 21  1  0
  3  4  1  0
 25 26  1  0
M  END
> <minimizedAffinity>
-6.61445

> <CNNscore>
0.4933403432

> <CNNaffinity>
4.5378451347

> <CNN_VS>
2.2387020588

> <CNNaffinity_variance>
0.5441865921

$$$$



 26 28  0  0  0  0  0  0  0  0999 V2000
  -13.9951   56.9985   11.8086 C   0  0  0  0  0  0  0  0  0  0  0  0
  -14.0821   56.0954   10.9862 O   0  0  0  0  0  0  0  0  0  0  0  0
  -12.8925   57.7996   12.0532 N   0  0  0  0  0  0  0  0  0  0  0  0
  -13.0143   58.5226   12.7103 H   0  0  0  0  0  0  0  0  0  0  0  0
  -16.9995   56.5651   14.0644 C   0  0  0  0  0  0  0  0  0  0  0  0
  -17.4704   57.8848   14.1448 C   0  0  0  0  0  0  0  0  0  0  0  0
  -16.8064   58.9212   13.4868 C   0  0  0  0  0  0  0  0  0  0  0  0
  -15.6677   58.6500   12.7279 C   0  0  0  0  0  0  0  0  0  0  0  0
  -15.1995   57.3343   12.6192 C   0  0  0  0  0  0  0  0  0  0  0  0
  -15.8542   56.2997   13.3004 C   0  0  0  0  0  0  0  0  0  0  0  0
  -17.7098   55.4509   14.8051 C   0  0  0  0  0  0  0  0  0  0  0  0
  -16.4174   54.8874   16.7532 C   0  0  0  0  0  0  0  0  0  0  0  0
  -17.6148   55.5791   16.2703 N   0  0  0  0  0  0  0  0  0  0  0  0
  -18.8022   55.0321   16.9327 C   0  0  0  0  0  0  0  0  0  0  0  0
  -11.6126   57.6954   11.4651 C   0  0  0  0  0  0  0  0  0  0  0  0
  -11.2836   58.2414   10.2249 C   0  0  0  0  0  0  0  0  0  0  0  0
   -9.9980   58.0880    9.7048 C   0  0  0  0  0  0  0  0  0  0  0  0
   -9.0304   57.3863   10.4222 C   0  0  0  0  0  0  0  0  0  0  0  0
   -9.3296   56.8275   11.6717 C   0  0  0  0  0  0  0  0  0  0  0  0
  -10.6312   56.9870   12.1800 C   0  0  0  0  0  0  0  0  0  0  0  0
   -8.2840   56.1023   12.3924 C   0  0  0  0  0  0  0  0  0  0  0  0
   -8.4020   55.4597   13.5412 N   0  0  0  0  0  0  0  0  0  0  0  0
   -7.1687   54.9281   13.8274 N   0  0  0  0  0  0  0  0  0  0  0  0
   -6.2943   55.2258   12.8794 N   0  0  0  0  0  0  0  0  0  0  0  0
   -6.9846   55.9477   11.9887 N   0  0  0  0  0  0  0  0  0  0  0  0
   -6.6095   56.3172   11.1569 H   0  0  0  0  0  0  0  0  0  0  0  0
 12 13  1  0
 13 14  1  0
 13 11  1  0
 11  5  1  0
  5  6  2  0
  6  7  1  0
  7  8  2  0
  8  9  1  0
  9  1  1  0
  1  2  2  0
  1  3  1  0
  3 15  1  0
 15 16  2  0
 16 17  1  0
 17 18  2  0
 18 19  1  0
 19 21  1  0
 21 22  2  0
 22 23  1  0
 23 24  2  0
 24 25  1  0
 19 20  2  0
  9 10  2  0
 10  5  1  0
 20 15  1  0
 25 21  1  0
  3  4  1  0
 25 26  1  0
M  END
> <minimizedAffinity>
-5.88813

> <CNNscore>
0.4521265328

> <CNNaffinity>
4.2198204994

> <CNN_VS>
1.9078928232

> <CNNaffinity_variance>
1.2849693298

$$$$



 26 28  0  0  0  0  0  0  0  0999 V2000
  -11.8433   56.0746    6.9835 C   0  0  0  0  0  0  0  0  0  0  0  0
  -11.7422   54.8804    6.7326 O   0  0  0  0  0  0  0  0  0  0  0  0
  -10.9064   56.8759    7.6139 N   0  0  0  0  0  0  0  0  0  0  0  0
  -11.1245   57.8336    7.6814 H   0  0  0  0  0  0  0  0  0  0  0  0
  -14.8890   58.3148    7.0734 C   0  0  0  0  0  0  0  0  0  0  0  0
  -15.3856   58.1491    5.7713 C   0  0  0  0  0  0  0  0  0  0  0  0
  -14.7261   57.3289    4.8545 C   0  0  0  0  0  0  0  0  0  0  0  0
  -13.5660   56.6522    5.2316 C   0  0  0  0  0  0  0  0  0  0  0  0
  -13.0714   56.7894    6.5350 C   0  0  0  0  0  0  0  0  0  0  0  0
  -13.7222   57.6322    7.4456 C   0  0  0  0  0  0  0  0  0  0  0  0
  -15.5952   59.2294    8.0529 C   0  0  0  0  0  0  0  0  0  0  0  0
  -14.3650   60.3265    9.8039 C   0  0  0  0  0  0  0  0  0  0  0  0
  -14.8007   60.4187    8.4085 N   0  0  0  0  0  0  0  0  0  0  0  0
  -15.5672   61.6521    8.2108 C   0  0  0  0  0  0  0  0  0  0  0  0
   -9.6727   56.4727    8.1710 C   0  0  0  0  0  0  0  0  0  0  0  0
   -8.5488   56.1498    7.4114 C   0  0  0  0  0  0  0  0  0  0  0  0
   -7.3665   55.7498    8.0350 C   0  0  0  0  0  0  0  0  0  0  0  0
   -7.2992   55.6698    9.4251 C   0  0  0  0  0  0  0  0  0  0  0  0
   -8.4108   55.9893   10.2159 C   0  0  0  0  0  0  0  0  0  0  0  0
   -9.5964   56.3863    9.5720 C   0  0  0  0  0  0  0  0  0  0  0  0
   -8.2959   55.8951   11.6708 C   0  0  0  0  0  0  0  0  0  0  0  0
   -9.2801   55.8936   12.5529 N   0  0  0  0  0  0  0  0  0  0  0  0
   -8.7014   55.7812   13.7931 N   0  0  0  0  0  0  0  0  0  0  0  0
   -7.3834   55.7100   13.6950 N   0  0  0  0  0  0  0  0  0  0  0  0
   -7.1320   55.7752   12.3822 N   0  0  0  0  0  0  0  0  0  0  0  0
   -6.2329   55.7416   11.9824 H   0  0  0  0  0  0  0  0  0  0  0  0
 12 13  1  0
 13 14  1  0
 13 11  1  0
 11  5  1  0
  5  6  2  0
  6  7  1  0
  7  8  2  0
  8  9  1  0
  9  1  1  0
  1  2  2  0
  1  3  1  0
  3 15  1  0
 15 16  2  0
 16 17  1  0
 17 18  2  0
 18 19  1  0
 19 21  1  0
 21 22  2  0
 22 23  1  0
 23 24  2  0
 24 25  1  0
 19 20  2  0
  9 10  2  0
 10  5  1  0
 20 15  1  0
 25 21  1  0
  3  4  1  0
 25 26  1  0
M  END
> <minimizedAffinity>
-5.50935

> <CNNscore>
0.4398059249

> <CNNaffinity>
4.2104573250

> <CNN_VS>
1.8517841101

> <CNNaffinity_variance>
1.1412559748

$$$$



 26 28  0  0  0  0  0  0  0  0999 V2000
  -10.0742   56.4058    7.0876 C   0  0  0  0  0  0  0  0  0  0  0  0
   -8.8844   56.5284    7.3496 O   0  0  0  0  0  0  0  0  0  0  0  0
  -11.1445   56.7029    7.9144 N   0  0  0  0  0  0  0  0  0  0  0  0
  -12.0417   56.6027    7.5215 H   0  0  0  0  0  0  0  0  0  0  0  0
   -9.7740   55.4682    3.4361 C   0  0  0  0  0  0  0  0  0  0  0  0
  -11.0912   55.0792    3.1473 C   0  0  0  0  0  0  0  0  0  0  0  0
  -12.0750   55.0994    4.1369 C   0  0  0  0  0  0  0  0  0  0  0  0
  -11.7579   55.5216    5.4282 C   0  0  0  0  0  0  0  0  0  0  0  0
  -10.4529   55.9351    5.7255 C   0  0  0  0  0  0  0  0  0  0  0  0
   -9.4620   55.8909    4.7361 C   0  0  0  0  0  0  0  0  0  0  0  0
   -8.7060   55.4158    2.3631 C   0  0  0  0  0  0  0  0  0  0  0  0
   -8.4236   53.1736    3.1851 C   0  0  0  0  0  0  0  0  0  0  0  0
   -7.7500   54.3104    2.5533 N   0  0  0  0  0  0  0  0  0  0  0  0
   -6.6086   54.7263    3.3732 C   0  0  0  0  0  0  0  0  0  0  0  0
  -11.0929   57.1336    9.2585 C   0  0  0  0  0  0  0  0  0  0  0  0
  -11.9783   58.0592    9.8096 C   0  0  0  0  0  0  0  0  0  0  0  0
  -11.8573   58.4430   11.1455 C   0  0  0  0  0  0  0  0  0  0  0  0
  -10.8482   57.9032   11.9416 C   0  0  0  0  0  0  0  0  0  0  0  0
   -9.9441   56.9699   11.4176 C   0  0  0  0  0  0  0  0  0  0  0  0
  -10.0767   56.5968   10.0680 C   0  0  0  0  0  0  0  0  0  0  0  0
   -8.9028   56.4259   12.2884 C   0  0  0  0  0  0  0  0  0  0  0  0
   -9.0527   55.9405   13.5085 N   0  0  0  0  0  0  0  0  0  0  0  0
   -7.8091   55.5414   13.9326 N   0  0  0  0  0  0  0  0  0  0  0  0
   -6.8970   55.7669   13.0003 N   0  0  0  0  0  0  0  0  0  0  0  0
   -7.5735   56.3092   11.9809 N   0  0  0  0  0  0  0  0  0  0  0  0
   -7.1705   56.5864   11.1265 H   0  0  0  0  0  0  0  0  0  0  0  0
 12 13  1  0
 13 14  1  0
 13 11  1  0
 11  5  1  0
  5  6  2  0
  6  7  1  0
  7  8  2  0
  8  9  1  0
  9  1  1  0
  1  2  2  0
  1  3  1  0
  3 15  1  0
 15 16  2  0
 16 17  1  0
 17 18  2  0
 18 19  1  0
 19 21  1  0
 21 22  2  0
 22 23  1  0
 23 24  2  0
 24 25  1  0
 19 20  2  0
  9 10  2  0
 10  5  1  0
 20 15  1  0
 25 21  1  0
  3  4  1  0
 25 26  1  0
M  END
> <minimizedAffinity>
-6.51546

> <CNNscore>
0.4195868075

> <CNNaffinity>
4.2604360580

> <CNN_VS>
1.7876228094

> <CNNaffinity_variance>
0.8266477585

$$$$



 26 28  0  0  0  0  0  0  0  0999 V2000
  -11.8692   57.1549   11.5747 C   0  0  0  0  0  0  0  0  0  0  0  0
  -12.2782   56.0897   11.1302 O   0  0  0  0  0  0  0  0  0  0  0  0
  -10.5496   57.5599   11.6856 N   0  0  0  0  0  0  0  0  0  0  0  0
  -10.3996   58.4773   12.0100 H   0  0  0  0  0  0  0  0  0  0  0  0
  -15.1338   58.6546   12.7559 C   0  0  0  0  0  0  0  0  0  0  0  0
  -14.8006   60.0167   12.8143 C   0  0  0  0  0  0  0  0  0  0  0  0
  -13.5142   60.4517   12.4918 C   0  0  0  0  0  0  0  0  0  0  0  0
  -12.5452   59.5306   12.0936 C   0  0  0  0  0  0  0  0  0  0  0  0
  -12.8696   58.1705   12.0080 C   0  0  0  0  0  0  0  0  0  0  0  0
  -14.1548   57.7342   12.3555 C   0  0  0  0  0  0  0  0  0  0  0  0
  -16.5242   58.1883   13.1353 C   0  0  0  0  0  0  0  0  0  0  0  0
  -17.7376   58.3295   11.0639 C   0  0  0  0  0  0  0  0  0  0  0  0
  -17.1860   57.4169   12.0681 N   0  0  0  0  0  0  0  0  0  0  0  0
  -18.2543   56.5694   12.6052 C   0  0  0  0  0  0  0  0  0  0  0  0
   -9.3950   56.8039   11.3854 C   0  0  0  0  0  0  0  0  0  0  0  0
   -8.8491   56.6990   10.1066 C   0  0  0  0  0  0  0  0  0  0  0  0
   -7.7100   55.9237    9.8869 C   0  0  0  0  0  0  0  0  0  0  0  0
   -7.1075   55.2467   10.9460 C   0  0  0  0  0  0  0  0  0  0  0  0
   -7.6312   55.3335   12.2426 C   0  0  0  0  0  0  0  0  0  0  0  0
   -8.7823   56.1152   12.4468 C   0  0  0  0  0  0  0  0  0  0  0  0
   -6.9659   54.6101   13.3255 C   0  0  0  0  0  0  0  0  0  0  0  0
   -7.3578   53.4834   13.8944 N   0  0  0  0  0  0  0  0  0  0  0  0
   -6.4238   53.1769   14.8532 N   0  0  0  0  0  0  0  0  0  0  0  0
   -5.4636   54.0874   14.8857 N   0  0  0  0  0  0  0  0  0  0  0  0
   -5.7954   54.9715   13.9375 N   0  0  0  0  0  0  0  0  0  0  0  0
   -5.2697   55.7724   13.7108 H   0  0  0  0  0  0  0  0  0  0  0  0
 12 13  1  0
 13 14  1  0
 13 11  1  0
 11  5  1  0
  5  6  2  0
  6  7  1  0
  7  8  2  0
  8  9  1  0
  9  1  1  0
  1  2  2  0
  1  3  1  0
  3 15  1  0
 15 16  2  0
 16 17  1  0
 17 18  2  0
 18 19  1  0
 19 21  1  0
 21 22  2  0
 22 23  1  0
 23 24  2  0
 24 25  1  0
 19 20  2  0
  9 10  2  0
 10  5  1  0
 20 15  1  0
 25 21  1  0
  3  4  1  0
 25 26  1  0
M  END
> <minimizedAffinity>
-6.75784

> <CNNscore>
0.4188780487

> <CNNaffinity>
4.1862773895

> <CNN_VS>
1.7535396814

> <CNNaffinity_variance>
1.2219280005

$$$$



 26 28  0  0  0  0  0  0  0  0999 V2000
  -10.2511   56.0414    6.8519 C   0  0  0  0  0  0  0  0  0  0  0  0
  -11.2187   55.3525    7.1494 O   0  0  0  0  0  0  0  0  0  0  0  0
   -9.5031   56.8390    7.7015 N   0  0  0  0  0  0  0  0  0  0  0  0
   -8.7163   57.2804    7.3072 H   0  0  0  0  0  0  0  0  0  0  0  0
   -8.0237   55.3609    3.8723 C   0  0  0  0  0  0  0  0  0  0  0  0
   -8.7840   55.9186    2.8328 C   0  0  0  0  0  0  0  0  0  0  0  0
  -10.0277   56.4978    3.0892 C   0  0  0  0  0  0  0  0  0  0  0  0
  -10.5235   56.5387    4.3924 C   0  0  0  0  0  0  0  0  0  0  0  0
   -9.7654   56.0070    5.4436 C   0  0  0  0  0  0  0  0  0  0  0  0
   -8.5283   55.4048    5.1797 C   0  0  0  0  0  0  0  0  0  0  0  0
   -6.6879   54.7086    3.5807 C   0  0  0  0  0  0  0  0  0  0  0  0
   -7.7529   52.5541    3.5001 C   0  0  0  0  0  0  0  0  0  0  0  0
   -6.8125   53.4504    2.8236 N   0  0  0  0  0  0  0  0  0  0  0  0
   -5.5151   52.7849    2.6759 C   0  0  0  0  0  0  0  0  0  0  0  0
   -9.7429   57.0900    9.0705 C   0  0  0  0  0  0  0  0  0  0  0  0
   -9.0322   56.4827   10.1051 C   0  0  0  0  0  0  0  0  0  0  0  0
   -9.3343   56.7750   11.4356 C   0  0  0  0  0  0  0  0  0  0  0  0
  -10.3510   57.6783   11.7417 C   0  0  0  0  0  0  0  0  0  0  0  0
  -11.0820   58.3061   10.7246 C   0  0  0  0  0  0  0  0  0  0  0  0
  -10.7684   57.9973    9.3888 C   0  0  0  0  0  0  0  0  0  0  0  0
  -12.1378   59.2498   11.0898 C   0  0  0  0  0  0  0  0  0  0  0  0
  -12.8788   59.9774   10.2724 N   0  0  0  0  0  0  0  0  0  0  0  0
  -13.7377   60.7061   11.0578 N   0  0  0  0  0  0  0  0  0  0  0  0
  -13.5450   60.4415   12.3403 N   0  0  0  0  0  0  0  0  0  0  0  0
  -12.5591   59.5369   12.3607 N   0  0  0  0  0  0  0  0  0  0  0  0
  -12.1874   59.1329   13.1780 H   0  0  0  0  0  0  0  0  0  0  0  0
 12 13  1  0
 13 14  1  0
 13 11  1  0
 11  5  1  0
  5  6  2  0
  6  7  1  0
  7  8  2  0
  8  9  1  0
  9  1  1  0
  1  2  2  0
  1  3  1  0
  3 15  1  0
 15 16  2  0
 16 17  1  0
 17 18  2  0
 18 19  1  0
 19 21  1  0
 21 22  2  0
 22 23  1  0
 23 24  2  0
 24 25  1  0
 19 20  2  0
  9 10  2  0
 10  5  1  0
 20 15  1  0
 25 21  1  0
  3  4  1  0
 25 26  1  0
M  END
> <minimizedAffinity>
-5.52310

> <CNNscore>
0.4183404148

> <CNNaffinity>
4.1015162468

> <CNN_VS>
1.7158299685

> <CNNaffinity_variance>
0.4991157055

$$$$



 26 28  0  0  0  0  0  0  0  0999 V2000
  -12.2025   57.5147    9.0439 C   0  0  0  0  0  0  0  0  0  0  0  0
  -12.5271   56.3752    8.7347 O   0  0  0  0  0  0  0  0  0  0  0  0
  -10.9284   57.9654    9.3457 N   0  0  0  0  0  0  0  0  0  0  0  0
  -10.8345   58.9308    9.5142 H   0  0  0  0  0  0  0  0  0  0  0  0
  -15.1462   59.6215    7.9492 C   0  0  0  0  0  0  0  0  0  0  0  0
  -15.2431   60.5271    9.0171 C   0  0  0  0  0  0  0  0  0  0  0  0
  -14.3704   60.4463   10.1033 C   0  0  0  0  0  0  0  0  0  0  0  0
  -13.3790   59.4652   10.1309 C   0  0  0  0  0  0  0  0  0  0  0  0
  -13.2551   58.5692    9.0613 C   0  0  0  0  0  0  0  0  0  0  0  0
  -14.1479   58.6376    7.9837 C   0  0  0  0  0  0  0  0  0  0  0  0
  -16.1159   59.6986    6.7880 C   0  0  0  0  0  0  0  0  0  0  0  0
  -15.6977   58.9766    4.5326 C   0  0  0  0  0  0  0  0  0  0  0  0
  -16.0330   58.5344    5.8881 N   0  0  0  0  0  0  0  0  0  0  0  0
  -17.2926   57.7854    5.8660 C   0  0  0  0  0  0  0  0  0  0  0  0
   -9.7485   57.1946    9.4387 C   0  0  0  0  0  0  0  0  0  0  0  0
   -9.0876   56.6546    8.3361 C   0  0  0  0  0  0  0  0  0  0  0  0
   -7.9304   55.8944    8.5094 C   0  0  0  0  0  0  0  0  0  0  0  0
   -7.4249   55.6685    9.7887 C   0  0  0  0  0  0  0  0  0  0  0  0
   -8.0652   56.1991   10.9163 C   0  0  0  0  0  0  0  0  0  0  0  0
   -9.2330   56.9591   10.7252 C   0  0  0  0  0  0  0  0  0  0  0  0
   -7.4992   55.9408   12.2398 C   0  0  0  0  0  0  0  0  0  0  0  0
   -8.1572   55.7859   13.3754 N   0  0  0  0  0  0  0  0  0  0  0  0
   -7.2178   55.5581   14.3507 N   0  0  0  0  0  0  0  0  0  0  0  0
   -5.9963   55.5658   13.8413 N   0  0  0  0  0  0  0  0  0  0  0  0
   -6.1697   55.7972   12.5347 N   0  0  0  0  0  0  0  0  0  0  0  0
   -5.4408   55.8563   11.8754 H   0  0  0  0  0  0  0  0  0  0  0  0
 12 13  1  0
 13 14  1  0
 13 11  1  0
 11  5  1  0
  5  6  2  0
  6  7  1  0
  7  8  2  0
  8  9  1  0
  9  1  1  0
  1  2  2  0
  1  3  1  0
  3 15  1  0
 15 16  2  0
 16 17  1  0
 17 18  2  0
 18 19  1  0
 19 21  1  0
 21 22  2  0
 22 23  1  0
 23 24  2  0
 24 25  1  0
 19 20  2  0
  9 10  2  0
 10  5  1  0
 20 15  1  0
 25 21  1  0
  3  4  1  0
 25 26  1  0
M  END
> <minimizedAffinity>
-6.00657

> <CNNscore>
0.4126870930

> <CNNaffinity>
4.0662388802

> <CNN_VS>
1.6780842543

> <CNNaffinity_variance>
1.3492904902

$$$$
