


 17 17  0  0  0  0  0  0  0  0999 V2000
   45.7582   14.7760    2.9477 C   0  0  0  0  0  0  0  0  0  0  0  0
   44.9259   15.7012    2.3363 C   0  0  0  0  0  0  0  0  0  0  0  0
   44.3238   15.0817    0.8451 S   0  0  0  0  0  0  0  0  0  0  0  0
   45.0837   13.5842    1.0774 C   0  0  0  0  0  0  0  0  0  0  0  0
   44.8982   12.1583   -0.1880 Br  0  0  0  0  0  0  0  0  0  0  0  0
   45.8018   13.5348    2.2429 C   0  0  0  0  0  0  0  0  0  0  0  0
   46.7380   12.0264    2.9062 Br  0  0  0  0  0  0  0  0  0  0  0  0
   44.5172   17.0313    2.7257 C   0  0  0  0  0  0  0  0  0  0  0  0
   44.1189   17.9422    2.0124 O   0  0  0  0  0  0  0  0  0  0  0  0
   44.5980   17.2327    4.0592 O   0  0  0  0  0  0  0  0  0  0  0  0
   44.9010   16.5453    4.6193 H   0  0  0  0  0  0  0  0  0  0  0  0
   46.3615   15.0223    4.1383 O   0  0  0  0  0  0  0  0  0  0  0  0
   47.6273   15.6566    3.9957 C   0  0  0  0  0  0  0  0  0  0  0  0
   48.9235   17.4016    5.1284 O   0  0  0  0  0  0  0  0  0  0  0  0
   47.8775   16.7914    4.9732 C   0  0  0  0  0  0  0  0  0  0  0  0
   46.7834   17.1261    5.6908 O   0  0  0  0  0  0  0  0  0  0  0  0
   45.9818   16.6561    5.5697 H   0  0  0  0  0  0  0  0  0  0  0  0
 14 15  2  0
 15 16  1  0
 15 13  1  0
 13 12  1  0
 12  1  1  0
  1  2  2  0
  2  8  1  0
  8  9  2  0
  8 10  1  0
  2  3  1  0
  3  4  1  0
  4  5  1  0
  4  6  2  0
  6  7  1  0
  6  1  1  0
 16 17  1  0
 10 11  1  0
M  END
> <minimizedAffinity>
-6.86037

> <CNNscore>
0.9612322450

> <CNNaffinity>
5.1506571770

> <CNN_VS>
4.9509778023

> <CNNaffinity_variance>
0.0637245402

$$$$



 17 17  0  0  0  0  0  0  0  0999 V2000
   45.3979   15.3707    2.5827 C   0  0  0  0  0  0  0  0  0  0  0  0
   44.6416   15.4053    1.4211 C   0  0  0  0  0  0  0  0  0  0  0  0
   44.7025   13.8843    0.6132 S   0  0  0  0  0  0  0  0  0  0  0  0
   45.6335   13.1856    1.8457 C   0  0  0  0  0  0  0  0  0  0  0  0
   46.1696   11.3479    1.7785 Br  0  0  0  0  0  0  0  0  0  0  0  0
   45.9234   14.0702    2.8506 C   0  0  0  0  0  0  0  0  0  0  0  0
   46.8778   13.6714    4.4387 Br  0  0  0  0  0  0  0  0  0  0  0  0
   43.8647   16.4599    0.8111 C   0  0  0  0  0  0  0  0  0  0  0  0
   43.3255   16.4673   -0.2873 O   0  0  0  0  0  0  0  0  0  0  0  0
   43.7453   17.5464    1.6053 O   0  0  0  0  0  0  0  0  0  0  0  0
   44.1521   17.5567    2.4493 H   0  0  0  0  0  0  0  0  0  0  0  0
   45.5131   16.4462    3.4025 O   0  0  0  0  0  0  0  0  0  0  0  0
   46.8516   16.9169    3.5118 C   0  0  0  0  0  0  0  0  0  0  0  0
   46.6220   17.1561    5.9404 O   0  0  0  0  0  0  0  0  0  0  0  0
   47.3132   17.1796    4.9343 C   0  0  0  0  0  0  0  0  0  0  0  0
   48.6372   17.4304    5.0261 O   0  0  0  0  0  0  0  0  0  0  0  0
   49.1654   17.4479    4.2523 H   0  0  0  0  0  0  0  0  0  0  0  0
 14 15  2  0
 15 16  1  0
 15 13  1  0
 13 12  1  0
 12  1  1  0
  1  2  2  0
  2  8  1  0
  8  9  2  0
  8 10  1  0
  2  3  1  0
  3  4  1  0
  4  5  1  0
  4  6  2  0
  6  7  1  0
  6  1  1  0
 16 17  1  0
 10 11  1  0
M  END
> <minimizedAffinity>
-6.57887

> <CNNscore>
0.9198918939

> <CNNaffinity>
5.0161800385

> <CNN_VS>
4.6143431664

> <CNNaffinity_variance>
0.0077379122

$$$$



 17 17  0  0  0  0  0  0  0  0999 V2000
   45.2754   14.4433    2.1516 C   0  0  0  0  0  0  0  0  0  0  0  0
   44.5889   15.0918    1.1363 C   0  0  0  0  0  0  0  0  0  0  0  0
   44.5430   14.1157   -0.2833 S   0  0  0  0  0  0  0  0  0  0  0  0
   45.3343   12.8300    0.4880 C   0  0  0  0  0  0  0  0  0  0  0  0
   45.6902   11.1817   -0.4204 Br  0  0  0  0  0  0  0  0  0  0  0  0
   45.6558   13.1156    1.7886 C   0  0  0  0  0  0  0  0  0  0  0  0
   46.4809   11.9283    3.0139 Br  0  0  0  0  0  0  0  0  0  0  0  0
   43.9526   16.3880    1.0818 C   0  0  0  0  0  0  0  0  0  0  0  0
   44.0628   17.3211    1.8656 O   0  0  0  0  0  0  0  0  0  0  0  0
   43.1541   16.5324    0.0016 O   0  0  0  0  0  0  0  0  0  0  0  0
   43.0588   15.8274   -0.6082 H   0  0  0  0  0  0  0  0  0  0  0  0
   45.4519   15.0016    3.3759 O   0  0  0  0  0  0  0  0  0  0  0  0
   46.6417   15.7773    3.4633 C   0  0  0  0  0  0  0  0  0  0  0  0
   47.4041   17.8241    4.5757 O   0  0  0  0  0  0  0  0  0  0  0  0
   46.5100   17.0425    4.2927 C   0  0  0  0  0  0  0  0  0  0  0  0
   45.2452   17.2806    4.7022 O   0  0  0  0  0  0  0  0  0  0  0  0
   44.5608   16.6791    4.4835 H   0  0  0  0  0  0  0  0  0  0  0  0
 14 15  2  0
 15 16  1  0
 15 13  1  0
 13 12  1  0
 12  1  1  0
  1  2  2  0
  2  8  1  0
  8  9  2  0
  8 10  1  0
  2  3  1  0
  3  4  1  0
  4  5  1  0
  4  6  2  0
  6  7  1  0
  6  1  1  0
 16 17  1  0
 10 11  1  0
M  END
> <minimizedAffinity>
-6.15149

> <CNNscore>
0.9050559998

> <CNNaffinity>
4.7256398201

> <CNN_VS>
4.2769684792

> <CNNaffinity_variance>
0.1304228157

$$$$



 17 17  0  0  0  0  0  0  0  0999 V2000
   44.9897   14.7753    2.0911 C   0  0  0  0  0  0  0  0  0  0  0  0
   44.6381   16.0649    1.7226 C   0  0  0  0  0  0  0  0  0  0  0  0
   44.2742   16.1361    0.0396 S   0  0  0  0  0  0  0  0  0  0  0  0
   44.4885   14.4652   -0.1508 C   0  0  0  0  0  0  0  0  0  0  0  0
   44.2219   13.6061   -1.8419 Br  0  0  0  0  0  0  0  0  0  0  0  0
   44.8485   13.8455    1.0166 C   0  0  0  0  0  0  0  0  0  0  0  0
   45.1155   11.9834    1.2477 Br  0  0  0  0  0  0  0  0  0  0  0  0
   44.5457   17.2903    2.4828 C   0  0  0  0  0  0  0  0  0  0  0  0
   45.2836   17.6880    3.3742 O   0  0  0  0  0  0  0  0  0  0  0  0
   43.4974   18.0573    2.1111 O   0  0  0  0  0  0  0  0  0  0  0  0
   42.9228   17.7672    1.4302 H   0  0  0  0  0  0  0  0  0  0  0  0
   45.3222   14.4534    3.3670 O   0  0  0  0  0  0  0  0  0  0  0  0
   46.7278   14.4541    3.5888 C   0  0  0  0  0  0  0  0  0  0  0  0
   47.0042   15.8381    5.5927 O   0  0  0  0  0  0  0  0  0  0  0  0
   47.2354   15.6238    4.4133 C   0  0  0  0  0  0  0  0  0  0  0  0
   48.0397   16.4560    3.7171 O   0  0  0  0  0  0  0  0  0  0  0  0
   48.2155   16.2892    2.8119 H   0  0  0  0  0  0  0  0  0  0  0  0
 14 15  2  0
 15 16  1  0
 15 13  1  0
 13 12  1  0
 12  1  1  0
  1  2  2  0
  2  8  1  0
  8  9  2  0
  8 10  1  0
  2  3  1  0
  3  4  1  0
  4  5  1  0
  4  6  2  0
  6  7  1  0
  6  1  1  0
 16 17  1  0
 10 11  1  0
M  END
> <minimizedAffinity>
-5.83272

> <CNNscore>
0.8477413654

> <CNNaffinity>
4.5505294800

> <CNN_VS>
3.8576719761

> <CNNaffinity_variance>
0.1253383905

$$$$



 17 17  0  0  0  0  0  0  0  0999 V2000
   44.8344   15.0200    2.5109 C   0  0  0  0  0  0  0  0  0  0  0  0
   45.5422   15.4309    3.6301 C   0  0  0  0  0  0  0  0  0  0  0  0
   46.6396   14.2028    4.1374 S   0  0  0  0  0  0  0  0  0  0  0  0
   46.2373   13.2022    2.8292 C   0  0  0  0  0  0  0  0  0  0  0  0
   47.0854   11.5050    2.5668 Br  0  0  0  0  0  0  0  0  0  0  0  0
   45.2792   13.7545    2.0209 C   0  0  0  0  0  0  0  0  0  0  0  0
   44.6042   12.9943    0.4214 Br  0  0  0  0  0  0  0  0  0  0  0  0
   45.4978   16.6527    4.4002 C   0  0  0  0  0  0  0  0  0  0  0  0
   46.3743   17.4953    4.5379 O   0  0  0  0  0  0  0  0  0  0  0  0
   44.3098   16.8384    5.0163 O   0  0  0  0  0  0  0  0  0  0  0  0
   43.6282   16.2026    4.9210 H   0  0  0  0  0  0  0  0  0  0  0  0
   43.9047   15.8082    1.9140 O   0  0  0  0  0  0  0  0  0  0  0  0
   44.4792   16.7899    1.0589 C   0  0  0  0  0  0  0  0  0  0  0  0
   43.1994   15.9602   -0.8598 O   0  0  0  0  0  0  0  0  0  0  0  0
   44.0924   16.6564   -0.4034 C   0  0  0  0  0  0  0  0  0  0  0  0
   44.8328   17.4343   -1.2225 O   0  0  0  0  0  0  0  0  0  0  0  0
   45.5175   17.9676   -0.8696 H   0  0  0  0  0  0  0  0  0  0  0  0
 14 15  2  0
 15 16  1  0
 15 13  1  0
 13 12  1  0
 12  1  1  0
  1  2  2  0
  2  8  1  0
  8  9  2  0
  8 10  1  0
  2  3  1  0
  3  4  1  0
  4  5  1  0
  4  6  2  0
  6  7  1  0
  6  1  1  0
 16 17  1  0
 10 11  1  0
M  END
> <minimizedAffinity>
-6.20957

> <CNNscore>
0.8128319383

> <CNNaffinity>
4.8085007668

> <CNN_VS>
3.9085030556

> <CNNaffinity_variance>
0.0030428960

$$$$



 17 17  0  0  0  0  0  0  0  0999 V2000
   54.0758   12.5513   -0.7111 C   0  0  0  0  0  0  0  0  0  0  0  0
   55.2017   13.2438   -0.2927 C   0  0  0  0  0  0  0  0  0  0  0  0
   55.0698   14.9143   -0.6953 S   0  0  0  0  0  0  0  0  0  0  0  0
   53.5059   14.7146   -1.3185 C   0  0  0  0  0  0  0  0  0  0  0  0
   52.5037   16.1950   -2.0060 Br  0  0  0  0  0  0  0  0  0  0  0  0
   53.0767   13.4154   -1.2537 C   0  0  0  0  0  0  0  0  0  0  0  0
   51.3688   12.7836   -1.7790 Br  0  0  0  0  0  0  0  0  0  0  0  0
   56.4043   12.8071    0.3790 C   0  0  0  0  0  0  0  0  0  0  0  0
   57.0676   13.4069    1.2142 O   0  0  0  0  0  0  0  0  0  0  0  0
   56.7915   11.5685    0.0032 O   0  0  0  0  0  0  0  0  0  0  0  0
   56.2945   11.0958   -0.6352 H   0  0  0  0  0  0  0  0  0  0  0  0
   53.9327   11.2164   -0.5120 O   0  0  0  0  0  0  0  0  0  0  0  0
   53.2392   10.9085    0.6919 C   0  0  0  0  0  0  0  0  0  0  0  0
   53.7270    9.8306    2.8386 O   0  0  0  0  0  0  0  0  0  0  0  0
   54.0358   10.0796    1.6839 C   0  0  0  0  0  0  0  0  0  0  0  0
   55.1747    9.5751    1.1619 O   0  0  0  0  0  0  0  0  0  0  0  0
   55.4093    9.7678    0.2755 H   0  0  0  0  0  0  0  0  0  0  0  0
 14 15  2  0
 15 16  1  0
 15 13  1  0
 13 12  1  0
 12  1  1  0
  1  2  2  0
  2  8  1  0
  8  9  2  0
  8 10  1  0
  2  3  1  0
  3  4  1  0
  4  5  1  0
  4  6  2  0
  6  7  1  0
  6  1  1  0
 16 17  1  0
 10 11  1  0
M  END
> <minimizedAffinity>
-3.84407

> <CNNscore>
0.5988731384

> <CNNaffinity>
3.4457683563

> <CNN_VS>
2.0635781288

> <CNNaffinity_variance>
0.2787238657

$$$$



 17 17  0  0  0  0  0  0  0  0999 V2000
   54.6412   13.2342   -0.0199 C   0  0  0  0  0  0  0  0  0  0  0  0
   54.6055   11.8482   -0.0333 C   0  0  0  0  0  0  0  0  0  0  0  0
   53.2259   11.2862   -0.8998 S   0  0  0  0  0  0  0  0  0  0  0  0
   52.7593   12.8607   -1.3209 C   0  0  0  0  0  0  0  0  0  0  0  0
   51.2179   13.1929   -2.4082 Br  0  0  0  0  0  0  0  0  0  0  0  0
   53.6026   13.8123   -0.8114 C   0  0  0  0  0  0  0  0  0  0  0  0
   53.4751   15.6802   -1.1062 Br  0  0  0  0  0  0  0  0  0  0  0  0
   55.4870   10.8585    0.5423 C   0  0  0  0  0  0  0  0  0  0  0  0
   55.1970    9.9048    1.2519 O   0  0  0  0  0  0  0  0  0  0  0  0
   56.7820   11.0581    0.2126 O   0  0  0  0  0  0  0  0  0  0  0  0
   57.0208   11.7837   -0.3300 H   0  0  0  0  0  0  0  0  0  0  0  0
   55.6313   13.9258    0.5993 O   0  0  0  0  0  0  0  0  0  0  0  0
   56.6281   14.3914   -0.3033 C   0  0  0  0  0  0  0  0  0  0  0  0
   58.2559   15.5946    1.0789 O   0  0  0  0  0  0  0  0  0  0  0  0
   57.4166   15.5907    0.1923 C   0  0  0  0  0  0  0  0  0  0  0  0
   57.1311   16.7284   -0.4772 O   0  0  0  0  0  0  0  0  0  0  0  0
   56.4865   16.7227   -1.1573 H   0  0  0  0  0  0  0  0  0  0  0  0
 14 15  2  0
 15 16  1  0
 15 13  1  0
 13 12  1  0
 12  1  1  0
  1  2  2  0
  2  8  1  0
  8  9  2  0
  8 10  1  0
  2  3  1  0
  3  4  1  0
  4  5  1  0
  4  6  2  0
  6  7  1  0
  6  1  1  0
 16 17  1  0
 10 11  1  0
M  END
> <minimizedAffinity>
-3.41951

> <CNNscore>
0.4215748906

> <CNNaffinity>
3.5477154255

> <CNN_VS>
1.4956277609

> <CNNaffinity_variance>
0.3050844371

$$$$



 17 17  0  0  0  0  0  0  0  0999 V2000
   52.2783   10.5739    0.1211 C   0  0  0  0  0  0  0  0  0  0  0  0
   53.5751   10.9018    0.4862 C   0  0  0  0  0  0  0  0  0  0  0  0
   54.0535   12.3866   -0.2462 S   0  0  0  0  0  0  0  0  0  0  0  0
   52.5259   12.6178   -0.9441 C   0  0  0  0  0  0  0  0  0  0  0  0
   52.1255   14.1725   -1.9888 Br  0  0  0  0  0  0  0  0  0  0  0  0
   51.6589   11.5959   -0.6607 C   0  0  0  0  0  0  0  0  0  0  0  0
   49.8413   11.5040   -1.1899 Br  0  0  0  0  0  0  0  0  0  0  0  0
   54.5368   10.2263    1.3268 C   0  0  0  0  0  0  0  0  0  0  0  0
   55.6395    9.7926    1.0214 O   0  0  0  0  0  0  0  0  0  0  0  0
   54.1129   10.0943    2.6029 O   0  0  0  0  0  0  0  0  0  0  0  0
   53.2711   10.4211    2.8530 H   0  0  0  0  0  0  0  0  0  0  0  0
   51.6648    9.4481    0.5662 O   0  0  0  0  0  0  0  0  0  0  0  0
   51.3467    8.5405   -0.4826 C   0  0  0  0  0  0  0  0  0  0  0  0
   53.5569    7.4838   -0.5615 O   0  0  0  0  0  0  0  0  0  0  0  0
   52.3424    7.4078   -0.6598 C   0  0  0  0  0  0  0  0  0  0  0  0
   51.7555    6.2202   -0.9231 O   0  0  0  0  0  0  0  0  0  0  0  0
   50.8232    6.1647   -0.9981 H   0  0  0  0  0  0  0  0  0  0  0  0
 14 15  2  0
 15 16  1  0
 15 13  1  0
 13 12  1  0
 12  1  1  0
  1  2  2  0
  2  8  1  0
  8  9  2  0
  8 10  1  0
  2  3  1  0
  3  4  1  0
  4  5  1  0
  4  6  2  0
  6  7  1  0
  6  1  1  0
 16 17  1  0
 10 11  1  0
M  END
> <minimizedAffinity>
-3.48915

> <CNNscore>
0.4044231474

> <CNNaffinity>
3.4061431885

> <CNN_VS>
1.3775231838

> <CNNaffinity_variance>
0.2563491464

$$$$



 17 17  0  0  0  0  0  0  0  0999 V2000
   45.2444   14.4641    2.2414 C   0  0  0  0  0  0  0  0  0  0  0  0
   45.6217   13.2191    1.7616 C   0  0  0  0  0  0  0  0  0  0  0  0
   45.0742   13.0028    0.1419 S   0  0  0  0  0  0  0  0  0  0  0  0
   44.4425   14.5744    0.0692 C   0  0  0  0  0  0  0  0  0  0  0  0
   43.6120   15.2490   -1.5195 Br  0  0  0  0  0  0  0  0  0  0  0  0
   44.6115   15.2631    1.2412 C   0  0  0  0  0  0  0  0  0  0  0  0
   44.1121   17.0648    1.5513 Br  0  0  0  0  0  0  0  0  0  0  0  0
   46.3501   12.1327    2.3758 C   0  0  0  0  0  0  0  0  0  0  0  0
   46.5893   11.0241    1.9166 O   0  0  0  0  0  0  0  0  0  0  0  0
   46.8083   12.4427    3.6084 O   0  0  0  0  0  0  0  0  0  0  0  0
   46.6338   13.2874    3.9744 H   0  0  0  0  0  0  0  0  0  0  0  0
   45.5555   14.8801    3.4952 O   0  0  0  0  0  0  0  0  0  0  0  0
   46.6248   15.8188    3.5168 C   0  0  0  0  0  0  0  0  0  0  0  0
   45.3982   17.2541    5.0800 O   0  0  0  0  0  0  0  0  0  0  0  0
   46.4167   16.9899    4.4608 C   0  0  0  0  0  0  0  0  0  0  0  0
   47.5175   17.7591    4.6047 O   0  0  0  0  0  0  0  0  0  0  0  0
   48.2979   17.5541    4.1282 H   0  0  0  0  0  0  0  0  0  0  0  0
 14 15  2  0
 15 16  1  0
 15 13  1  0
 13 12  1  0
 12  1  1  0
  1  2  2  0
  2  8  1  0
  8  9  2  0
  8 10  1  0
  2  3  1  0
  3  4  1  0
  4  5  1  0
  4  6  2  0
  6  7  1  0
  6  1  1  0
 16 17  1  0
 10 11  1  0
M  END
> <minimizedAffinity>
-5.80209

> <CNNscore>
0.3581298888

> <CNNaffinity>
4.4694705009

> <CNN_VS>
1.6006510258

> <CNNaffinity_variance>
0.0015497198

$$$$
