


 44 48  0  0  0  0  0  0  0  0999 V2000
   15.7464    4.7843   11.6127 N   0  0  0  0  0  0  0  0  0  0  0  0
   14.3755    4.7905   11.4090 C   0  0  0  0  0  0  0  0  0  0  0  0
   13.7359    4.8262   10.0634 C   0  0  0  0  0  0  0  0  0  0  0  0
   13.7811    4.7275   12.6566 C   0  0  0  0  0  0  0  0  0  0  0  0
   14.7978    4.7837   13.6493 C   0  0  0  0  0  0  0  0  0  0  0  0
   14.7955    4.8012   15.0639 C   0  0  0  0  0  0  0  0  0  0  0  0
   16.0003    4.8795   15.7659 C   0  0  0  0  0  0  0  0  0  0  0  0
   17.1996    4.9671   15.0734 C   0  0  0  0  0  0  0  0  0  0  0  0
   17.2393    4.9302   13.6764 C   0  0  0  0  0  0  0  0  0  0  0  0
   16.0214    4.8447   12.9746 C   0  0  0  0  0  0  0  0  0  0  0  0
   12.3541    4.6413   12.9541 C   0  0  0  0  0  0  0  0  0  0  0  0
   11.4437    5.4708   12.4248 N   0  0  0  0  0  0  0  0  0  0  0  0
   10.2268    5.0638   12.9556 O   0  0  0  0  0  0  0  0  0  0  0  0
   10.4231    4.0008   13.7824 C   0  0  0  0  0  0  0  0  0  0  0  0
    9.4298    3.3225   14.4896 C   0  0  0  0  0  0  0  0  0  0  0  0
    9.8575    2.2529   15.2817 C   0  0  0  0  0  0  0  0  0  0  0  0
   11.2140    1.9050   15.3398 C   0  0  0  0  0  0  0  0  0  0  0  0
   12.1879    2.6085   14.6152 C   0  0  0  0  0  0  0  0  0  0  0  0
   11.7697    3.6872   13.8196 C   0  0  0  0  0  0  0  0  0  0  0  0
    9.0433    1.4596   16.0469 O   0  0  0  0  0  0  0  0  0  0  0  0
    8.4464    2.0615   17.1894 C   0  0  0  0  0  0  0  0  0  0  0  0
   16.7686    4.8345   10.5629 C   0  0  0  0  0  0  0  0  0  0  0  0
   16.5621    8.6113   10.1092 C   0  0  0  0  0  0  0  0  0  0  0  0
   17.6550    8.8836    9.2966 C   0  0  0  0  0  0  0  0  0  0  0  0
   18.5017    7.8471    8.9079 C   0  0  0  0  0  0  0  0  0  0  0  0
   18.2427    6.5322    9.3116 C   0  0  0  0  0  0  0  0  0  0  0  0
   19.3882    5.3340    8.8361 Cl  0  0  0  0  0  0  0  0  0  0  0  0
   17.1116    6.2299   10.0888 C   0  0  0  0  0  0  0  0  0  0  0  0
   16.2753    7.2954   10.4802 C   0  0  0  0  0  0  0  0  0  0  0  0
   15.7695    9.6711   10.4506 O   0  0  0  0  0  0  0  0  0  0  0  0
   14.6242    9.8711    9.5908 C   0  0  0  0  0  0  0  0  0  0  0  0
   13.8897    8.5373    9.5644 C   0  0  0  0  0  0  0  0  0  0  0  0
   15.1639   10.3231    8.2191 C   0  0  0  0  0  0  0  0  0  0  0  0
   15.2591   11.8479    7.8951 C   0  0  0  0  0  0  0  0  0  0  0  0
   14.3787   12.6738    8.8516 C   0  0  0  0  0  0  0  0  0  0  0  0
   14.6891   12.0328    6.4697 C   0  0  0  0  0  0  0  0  0  0  0  0
   16.7354   12.3281    7.9557 C   0  0  0  0  0  0  0  0  0  0  0  0
   19.0939   11.7070    7.3262 C   0  0  0  0  0  0  0  0  0  0  0  0
   17.6554   11.8171    6.8411 C   0  0  0  0  0  0  0  0  0  0  0  0
   18.3844    5.0026   15.7563 O   0  0  0  0  0  0  0  0  0  0  0  0
   18.7012    3.7242   16.2969 C   0  0  0  0  0  0  0  0  0  0  0  0
   19.6437    3.8165   17.2605 F   0  0  0  0  0  0  0  0  0  0  0  0
   19.1194    2.8741   15.3341 F   0  0  0  0  0  0  0  0  0  0  0  0
   17.5822    3.2057   16.8536 F   0  0  0  0  0  0  0  0  0  0  0  0
 38 39  1  0
 39 37  1  0
 37 34  1  0
 34 35  1  0
 34 36  1  0
 34 33  1  0
 33 31  1  0
 31 32  1  0
 31 30  1  0
 30 23  1  0
 23 24  2  0
 24 25  1  0
 25 26  2  0
 26 27  1  0
 26 28  1  0
 28 22  1  0
 22  1  1  0
  1  2  1  0
  2  3  1  0
  2  4  2  0
  4 11  1  0
 11 12  2  0
 12 13  1  0
 13 14  1  0
 14 15  2  0
 15 16  1  0
 16 20  1  0
 20 21  1  0
 16 17  2  0
 17 18  1  0
 18 19  2  0
  4  5  1  0
  5  6  2  0
  6  7  1  0
  7  8  2  0
  8 40  1  0
 40 41  1  0
 41 42  1  0
 41 43  1  0
 41 44  1  0
  8  9  1  0
  9 10  2  0
 28 29  2  0
 29 23  1  0
 10  1  1  0
 19 11  1  0
 10  5  1  0
 19 14  1  0
M  END
> <minimizedAffinity>
-10.83127

> <CNNscore>
0.9744073153

> <CNNaffinity>
8.4212903976

> <CNN_VS>
8.2057666779

> <CNNaffinity_variance>
1.2651532888

$$$$



 44 48  0  0  0  0  0  0  0  0999 V2000
   15.3786    4.8757   11.6612 N   0  0  0  0  0  0  0  0  0  0  0  0
   14.0257    4.8676   11.3601 C   0  0  0  0  0  0  0  0  0  0  0  0
   13.4836    4.8990    9.9723 C   0  0  0  0  0  0  0  0  0  0  0  0
   13.3445    4.7958   12.5619 C   0  0  0  0  0  0  0  0  0  0  0  0
   14.2869    4.8611   13.6249 C   0  0  0  0  0  0  0  0  0  0  0  0
   14.1835    4.8758   15.0356 C   0  0  0  0  0  0  0  0  0  0  0  0
   15.3341    4.9657   15.8220 C   0  0  0  0  0  0  0  0  0  0  0  0
   16.5788    5.0675   15.2172 C   0  0  0  0  0  0  0  0  0  0  0  0
   16.7185    5.0336   13.8266 C   0  0  0  0  0  0  0  0  0  0  0  0
   15.5549    4.9364   13.0394 C   0  0  0  0  0  0  0  0  0  0  0  0
   11.9009    4.6938   12.7566 C   0  0  0  0  0  0  0  0  0  0  0  0
   11.0180    5.4715   12.1142 N   0  0  0  0  0  0  0  0  0  0  0  0
    9.7722    5.0669   12.5753 O   0  0  0  0  0  0  0  0  0  0  0  0
    9.9250    4.0564   13.4739 C   0  0  0  0  0  0  0  0  0  0  0  0
    8.8937    3.3960   14.1427 C   0  0  0  0  0  0  0  0  0  0  0  0
    9.2800    2.3823   15.0244 C   0  0  0  0  0  0  0  0  0  0  0  0
   10.6344    2.0692   15.2034 C   0  0  0  0  0  0  0  0  0  0  0  0
   11.6472    2.7533   14.5144 C   0  0  0  0  0  0  0  0  0  0  0  0
   11.2704    3.7763   13.6294 C   0  0  0  0  0  0  0  0  0  0  0  0
    8.4251    1.6144   15.7709 O   0  0  0  0  0  0  0  0  0  0  0  0
    8.6268    1.6091   17.1792 C   0  0  0  0  0  0  0  0  0  0  0  0
   16.4726    4.9389   10.6873 C   0  0  0  0  0  0  0  0  0  0  0  0
   16.4316    8.7407   10.4480 C   0  0  0  0  0  0  0  0  0  0  0  0
   17.4861    9.0059    9.5839 C   0  0  0  0  0  0  0  0  0  0  0  0
   18.2540    7.9536    9.0883 C   0  0  0  0  0  0  0  0  0  0  0  0
   17.9531    6.6320    9.4374 C   0  0  0  0  0  0  0  0  0  0  0  0
   19.0054    5.4092    8.8280 Cl  0  0  0  0  0  0  0  0  0  0  0  0
   16.8570    6.3408   10.2670 C   0  0  0  0  0  0  0  0  0  0  0  0
   16.1011    7.4212   10.7661 C   0  0  0  0  0  0  0  0  0  0  0  0
   15.7160    9.8162   10.8942 O   0  0  0  0  0  0  0  0  0  0  0  0
   14.6189   10.2096   10.0382 C   0  0  0  0  0  0  0  0  0  0  0  0
   14.1911    8.9440    9.3072 C   0  0  0  0  0  0  0  0  0  0  0  0
   15.1460   11.3259    9.1144 C   0  0  0  0  0  0  0  0  0  0  0  0
   14.7743   12.8125    9.4159 C   0  0  0  0  0  0  0  0  0  0  0  0
   13.8274   13.3762    8.3400 C   0  0  0  0  0  0  0  0  0  0  0  0
   16.0904   13.6207    9.3398 C   0  0  0  0  0  0  0  0  0  0  0  0
   14.1393   12.9413   10.8279 C   0  0  0  0  0  0  0  0  0  0  0  0
   13.3723   15.2156   11.5923 C   0  0  0  0  0  0  0  0  0  0  0  0
   14.5074   14.2019   11.6187 C   0  0  0  0  0  0  0  0  0  0  0  0
   17.7113    5.1143   15.9830 O   0  0  0  0  0  0  0  0  0  0  0  0
   18.1158    3.8077   16.3778 C   0  0  0  0  0  0  0  0  0  0  0  0
   19.2948    3.4653   15.8139 F   0  0  0  0  0  0  0  0  0  0  0  0
   17.1785    2.8875   16.0625 F   0  0  0  0  0  0  0  0  0  0  0  0
   18.2752    3.7968   17.7215 F   0  0  0  0  0  0  0  0  0  0  0  0
 38 39  1  0
 39 37  1  0
 37 34  1  0
 34 35  1  0
 34 36  1  0
 34 33  1  0
 33 31  1  0
 31 32  1  0
 31 30  1  0
 30 23  1  0
 23 24  2  0
 24 25  1  0
 25 26  2  0
 26 27  1  0
 26 28  1  0
 28 22  1  0
 22  1  1  0
  1  2  1  0
  2  3  1  0
  2  4  2  0
  4 11  1  0
 11 12  2  0
 12 13  1  0
 13 14  1  0
 14 15  2  0
 15 16  1  0
 16 20  1  0
 20 21  1  0
 16 17  2  0
 17 18  1  0
 18 19  2  0
  4  5  1  0
  5  6  2  0
  6  7  1  0
  7  8  2  0
  8 40  1  0
 40 41  1  0
 41 42  1  0
 41 43  1  0
 41 44  1  0
  8  9  1  0
  9 10  2  0
 28 29  2  0
 29 23  1  0
 10  1  1  0
 19 11  1  0
 10  5  1  0
 19 14  1  0
M  END
> <minimizedAffinity>
-10.93279

> <CNNscore>
0.9519437551

> <CNNaffinity>
8.5419616699

> <CNN_VS>
8.1314668655

> <CNNaffinity_variance>
0.6684603691

$$$$



 44 48  0  0  0  0  0  0  0  0999 V2000
   14.7907    6.7860    9.9676 N   0  0  0  0  0  0  0  0  0  0  0  0
   13.7472    7.6866    9.8225 C   0  0  0  0  0  0  0  0  0  0  0  0
   12.3125    7.3338   10.0173 C   0  0  0  0  0  0  0  0  0  0  0  0
   14.3104    8.9105    9.5087 C   0  0  0  0  0  0  0  0  0  0  0  0
   15.7145    8.7417    9.3598 C   0  0  0  0  0  0  0  0  0  0  0  0
   16.7802    9.6037    9.0100 C   0  0  0  0  0  0  0  0  0  0  0  0
   18.0846    9.1106    8.9339 C   0  0  0  0  0  0  0  0  0  0  0  0
   18.3310    7.7667    9.1760 C   0  0  0  0  0  0  0  0  0  0  0  0
   17.3046    6.8923    9.5455 C   0  0  0  0  0  0  0  0  0  0  0  0
   15.9925    7.3972    9.6267 C   0  0  0  0  0  0  0  0  0  0  0  0
   13.6178   10.1832    9.3270 C   0  0  0  0  0  0  0  0  0  0  0  0
   12.3432   10.2726    8.9216 N   0  0  0  0  0  0  0  0  0  0  0  0
   12.0705   11.6333    8.8724 O   0  0  0  0  0  0  0  0  0  0  0  0
   13.1739   12.3332    9.2528 C   0  0  0  0  0  0  0  0  0  0  0  0
   13.2723   13.7229    9.3302 C   0  0  0  0  0  0  0  0  0  0  0  0
   14.5054   14.2316    9.7487 C   0  0  0  0  0  0  0  0  0  0  0  0
   15.5630   13.3687   10.0672 C   0  0  0  0  0  0  0  0  0  0  0  0
   15.4303   11.9748    9.9786 C   0  0  0  0  0  0  0  0  0  0  0  0
   14.1972   11.4533    9.5553 C   0  0  0  0  0  0  0  0  0  0  0  0
   14.8049   15.5609    9.8942 O   0  0  0  0  0  0  0  0  0  0  0  0
   15.3966   15.9568   11.1259 C   0  0  0  0  0  0  0  0  0  0  0  0
   14.6557    5.3657   10.3055 C   0  0  0  0  0  0  0  0  0  0  0  0
   12.8006    4.5195   13.5235 C   0  0  0  0  0  0  0  0  0  0  0  0
   13.8121    4.5367   14.4751 C   0  0  0  0  0  0  0  0  0  0  0  0
   15.1251    4.7904   14.0827 C   0  0  0  0  0  0  0  0  0  0  0  0
   15.4251    5.0515   12.7407 C   0  0  0  0  0  0  0  0  0  0  0  0
   17.0880    5.2838   12.3477 Cl  0  0  0  0  0  0  0  0  0  0  0  0
   14.4071    5.0918   11.7727 C   0  0  0  0  0  0  0  0  0  0  0  0
   13.0879    4.8207   12.1900 C   0  0  0  0  0  0  0  0  0  0  0  0
   11.5351    4.2689   13.9746 O   0  0  0  0  0  0  0  0  0  0  0  0
   11.3206    2.9226   14.4567 C   0  0  0  0  0  0  0  0  0  0  0  0
   12.6215    2.1767   14.1913 C   0  0  0  0  0  0  0  0  0  0  0  0
   10.1028    2.3603   13.6963 C   0  0  0  0  0  0  0  0  0  0  0  0
    8.6835    2.9489   13.9757 C   0  0  0  0  0  0  0  0  0  0  0  0
    7.8491    3.0214   12.6832 C   0  0  0  0  0  0  0  0  0  0  0  0
    8.8961    4.3992   14.4682 C   0  0  0  0  0  0  0  0  0  0  0  0
    7.9478    2.1109   15.0574 C   0  0  0  0  0  0  0  0  0  0  0  0
    9.0631    1.5455   17.2440 C   0  0  0  0  0  0  0  0  0  0  0  0
    8.1749    2.5408   16.5112 C   0  0  0  0  0  0  0  0  0  0  0  0
   19.6120    7.2877    9.1429 O   0  0  0  0  0  0  0  0  0  0  0  0
   19.6309    5.9008    8.8225 C   0  0  0  0  0  0  0  0  0  0  0  0
   18.5077    5.2815    9.2471 F   0  0  0  0  0  0  0  0  0  0  0  0
   20.7130    5.2895    9.3518 F   0  0  0  0  0  0  0  0  0  0  0  0
   19.6966    5.7732    7.4770 F   0  0  0  0  0  0  0  0  0  0  0  0
 38 39  1  0
 39 37  1  0
 37 34  1  0
 34 35  1  0
 34 36  1  0
 34 33  1  0
 33 31  1  0
 31 32  1  0
 31 30  1  0
 30 23  1  0
 23 24  2  0
 24 25  1  0
 25 26  2  0
 26 27  1  0
 26 28  1  0
 28 22  1  0
 22  1  1  0
  1  2  1  0
  2  3  1  0
  2  4  2  0
  4 11  1  0
 11 12  2  0
 12 13  1  0
 13 14  1  0
 14 15  2  0
 15 16  1  0
 16 20  1  0
 20 21  1  0
 16 17  2  0
 17 18  1  0
 18 19  2  0
  4  5  1  0
  5  6  2  0
  6  7  1  0
  7  8  2  0
  8 40  1  0
 40 41  1  0
 41 42  1  0
 41 43  1  0
 41 44  1  0
  8  9  1  0
  9 10  2  0
 28 29  2  0
 29 23  1  0
 10  1  1  0
 19 11  1  0
 10  5  1  0
 19 14  1  0
M  END
> <minimizedAffinity>
-10.00239

> <CNNscore>
0.7048975825

> <CNNaffinity>
7.9936461449

> <CNN_VS>
5.6347017288

> <CNNaffinity_variance>
0.7793905735

$$$$



 44 48  0  0  0  0  0  0  0  0999 V2000
   15.2675    4.8196   11.5595 N   0  0  0  0  0  0  0  0  0  0  0  0
   13.9335    4.6820   11.2093 C   0  0  0  0  0  0  0  0  0  0  0  0
   13.4420    4.6619    9.8026 C   0  0  0  0  0  0  0  0  0  0  0  0
   13.2188    4.5448   12.3857 C   0  0  0  0  0  0  0  0  0  0  0  0
   14.1112    4.6997   13.4821 C   0  0  0  0  0  0  0  0  0  0  0  0
   13.9553    4.7039   14.8881 C   0  0  0  0  0  0  0  0  0  0  0  0
   15.0625    4.9033   15.7156 C   0  0  0  0  0  0  0  0  0  0  0  0
   16.3130    5.1241   15.1562 C   0  0  0  0  0  0  0  0  0  0  0  0
   16.5061    5.1044   13.7716 C   0  0  0  0  0  0  0  0  0  0  0  0
   15.3867    4.8964   12.9429 C   0  0  0  0  0  0  0  0  0  0  0  0
   11.7855    4.3049   12.5281 C   0  0  0  0  0  0  0  0  0  0  0  0
   11.2750    3.3913   13.3659 N   0  0  0  0  0  0  0  0  0  0  0  0
    9.8987    3.4727   13.1999 O   0  0  0  0  0  0  0  0  0  0  0  0
    9.6068    4.4307   12.2784 C   0  0  0  0  0  0  0  0  0  0  0  0
    8.3274    4.7956   11.8578 C   0  0  0  0  0  0  0  0  0  0  0  0
    8.2594    5.8107   10.8989 C   0  0  0  0  0  0  0  0  0  0  0  0
    9.4280    6.4095   10.4088 C   0  0  0  0  0  0  0  0  0  0  0  0
   10.6999    6.0186   10.8536 C   0  0  0  0  0  0  0  0  0  0  0  0
   10.7798    4.9970   11.8136 C   0  0  0  0  0  0  0  0  0  0  0  0
    7.1044    6.3149   10.3608 O   0  0  0  0  0  0  0  0  0  0  0  0
    6.4136    7.2974   11.1233 C   0  0  0  0  0  0  0  0  0  0  0  0
   16.3853    4.9877   10.6258 C   0  0  0  0  0  0  0  0  0  0  0  0
   16.1624    8.7905   10.5848 C   0  0  0  0  0  0  0  0  0  0  0  0
   17.2263    9.1522    9.7685 C   0  0  0  0  0  0  0  0  0  0  0  0
   18.0591    8.1663    9.2425 C   0  0  0  0  0  0  0  0  0  0  0  0
   17.8145    6.8148    9.5124 C   0  0  0  0  0  0  0  0  0  0  0  0
   18.9430    5.6786    8.8724 Cl  0  0  0  0  0  0  0  0  0  0  0  0
   16.7112    6.4270   10.2915 C   0  0  0  0  0  0  0  0  0  0  0  0
   15.8889    7.4415   10.8230 C   0  0  0  0  0  0  0  0  0  0  0  0
   15.3819    9.8048   11.0644 O   0  0  0  0  0  0  0  0  0  0  0  0
   14.6243   10.5130   10.0567 C   0  0  0  0  0  0  0  0  0  0  0  0
   14.6321    9.6149    8.8270 C   0  0  0  0  0  0  0  0  0  0  0  0
   15.3146   11.8759    9.8489 C   0  0  0  0  0  0  0  0  0  0  0  0
   14.4546   13.1794    9.8383 C   0  0  0  0  0  0  0  0  0  0  0  0
   13.0701   12.9352   10.4672 C   0  0  0  0  0  0  0  0  0  0  0  0
   14.2274   13.5463    8.3535 C   0  0  0  0  0  0  0  0  0  0  0  0
   15.1963   14.3293   10.5740 C   0  0  0  0  0  0  0  0  0  0  0  0
   15.5742   15.6541   12.6828 C   0  0  0  0  0  0  0  0  0  0  0  0
   14.6106   14.7508   11.9265 C   0  0  0  0  0  0  0  0  0  0  0  0
   17.4071    5.2790   15.9626 O   0  0  0  0  0  0  0  0  0  0  0  0
   18.0210    4.0244   16.2376 C   0  0  0  0  0  0  0  0  0  0  0  0
   18.3399    3.9079   17.5454 F   0  0  0  0  0  0  0  0  0  0  0  0
   19.1271    3.8434   15.4838 F   0  0  0  0  0  0  0  0  0  0  0  0
   17.1425    3.0418   15.9315 F   0  0  0  0  0  0  0  0  0  0  0  0
 38 39  1  0
 39 37  1  0
 37 34  1  0
 34 35  1  0
 34 36  1  0
 34 33  1  0
 33 31  1  0
 31 32  1  0
 31 30  1  0
 30 23  1  0
 23 24  2  0
 24 25  1  0
 25 26  2  0
 26 27  1  0
 26 28  1  0
 28 22  1  0
 22  1  1  0
  1  2  1  0
  2  3  1  0
  2  4  2  0
  4 11  1  0
 11 12  2  0
 12 13  1  0
 13 14  1  0
 14 15  2  0
 15 16  1  0
 16 20  1  0
 20 21  1  0
 16 17  2  0
 17 18  1  0
 18 19  2  0
  4  5  1  0
  5  6  2  0
  6  7  1  0
  7  8  2  0
  8 40  1  0
 40 41  1  0
 41 42  1  0
 41 43  1  0
 41 44  1  0
  8  9  1  0
  9 10  2  0
 28 29  2  0
 29 23  1  0
 10  1  1  0
 19 11  1  0
 10  5  1  0
 19 14  1  0
M  END
> <minimizedAffinity>
-10.45813

> <CNNscore>
0.6454728246

> <CNNaffinity>
7.7292799950

> <CNN_VS>
4.9890403748

> <CNNaffinity_variance>
0.9462634921

$$$$



 44 48  0  0  0  0  0  0  0  0999 V2000
   15.7655    4.7883   11.4998 N   0  0  0  0  0  0  0  0  0  0  0  0
   14.4326    4.6872   11.1337 C   0  0  0  0  0  0  0  0  0  0  0  0
   13.9609    4.6346    9.7210 C   0  0  0  0  0  0  0  0  0  0  0  0
   13.6964    4.6187   12.3029 C   0  0  0  0  0  0  0  0  0  0  0  0
   14.5780    4.7800   13.4070 C   0  0  0  0  0  0  0  0  0  0  0  0
   14.4021    4.8405   14.8093 C   0  0  0  0  0  0  0  0  0  0  0  0
   15.5039    5.0287   15.6466 C   0  0  0  0  0  0  0  0  0  0  0  0
   16.7697    5.1833   15.0994 C   0  0  0  0  0  0  0  0  0  0  0  0
   16.9819    5.1068   13.7197 C   0  0  0  0  0  0  0  0  0  0  0  0
   15.8676    4.9104   12.8813 C   0  0  0  0  0  0  0  0  0  0  0  0
   12.2532    4.4367   12.4310 C   0  0  0  0  0  0  0  0  0  0  0  0
   11.6970    3.5736   13.2929 N   0  0  0  0  0  0  0  0  0  0  0  0
   10.3273    3.6993   13.1024 O   0  0  0  0  0  0  0  0  0  0  0  0
   10.0845    4.6331   12.1426 C   0  0  0  0  0  0  0  0  0  0  0  0
    8.8258    5.0290   11.6890 C   0  0  0  0  0  0  0  0  0  0  0  0
    8.8094    6.0102   10.6933 C   0  0  0  0  0  0  0  0  0  0  0  0
   10.0065    6.5476   10.2006 C   0  0  0  0  0  0  0  0  0  0  0  0
   11.2564    6.1269   10.6792 C   0  0  0  0  0  0  0  0  0  0  0  0
   11.2844    5.1388   11.6763 C   0  0  0  0  0  0  0  0  0  0  0  0
    7.6819    6.5365   10.1192 O   0  0  0  0  0  0  0  0  0  0  0  0
    6.5593    6.7367   10.9698 C   0  0  0  0  0  0  0  0  0  0  0  0
   16.9021    4.8817   10.5784 C   0  0  0  0  0  0  0  0  0  0  0  0
   16.5771    8.6462   10.0936 C   0  0  0  0  0  0  0  0  0  0  0  0
   17.6543    8.9442    9.2691 C   0  0  0  0  0  0  0  0  0  0  0  0
   18.5287    7.9304    8.8821 C   0  0  0  0  0  0  0  0  0  0  0  0
   18.3133    6.6119    9.2995 C   0  0  0  0  0  0  0  0  0  0  0  0
   19.4905    5.4448    8.8244 Cl  0  0  0  0  0  0  0  0  0  0  0  0
   17.1985    6.2825   10.0891 C   0  0  0  0  0  0  0  0  0  0  0  0
   16.3335    7.3256   10.4785 C   0  0  0  0  0  0  0  0  0  0  0  0
   15.7555    9.6845   10.4326 O   0  0  0  0  0  0  0  0  0  0  0  0
   14.5871    9.8299    9.5932 C   0  0  0  0  0  0  0  0  0  0  0  0
   13.9208    8.4607    9.5719 C   0  0  0  0  0  0  0  0  0  0  0  0
   15.0798   10.3149    8.2150 C   0  0  0  0  0  0  0  0  0  0  0  0
   15.0514   11.8403    7.8818 C   0  0  0  0  0  0  0  0  0  0  0  0
   14.7328   12.0768    6.3936 C   0  0  0  0  0  0  0  0  0  0  0  0
   16.4798   12.3747    8.1371 C   0  0  0  0  0  0  0  0  0  0  0  0
   14.0263   12.5782    8.7864 C   0  0  0  0  0  0  0  0  0  0  0  0
   14.2996   13.1363   11.2274 C   0  0  0  0  0  0  0  0  0  0  0  0
   14.6131   13.5659    9.8013 C   0  0  0  0  0  0  0  0  0  0  0  0
   17.8571    5.3269   15.9170 O   0  0  0  0  0  0  0  0  0  0  0  0
   18.2316    4.0800   16.4929 C   0  0  0  0  0  0  0  0  0  0  0  0
   17.3691    3.7065   17.4634 F   0  0  0  0  0  0  0  0  0  0  0  0
   19.4849    4.1277   16.9945 F   0  0  0  0  0  0  0  0  0  0  0  0
   18.2062    3.1360   15.5237 F   0  0  0  0  0  0  0  0  0  0  0  0
 38 39  1  0
 39 37  1  0
 37 34  1  0
 34 35  1  0
 34 36  1  0
 34 33  1  0
 33 31  1  0
 31 32  1  0
 31 30  1  0
 30 23  1  0
 23 24  2  0
 24 25  1  0
 25 26  2  0
 26 27  1  0
 26 28  1  0
 28 22  1  0
 22  1  1  0
  1  2  1  0
  2  3  1  0
  2  4  2  0
  4 11  1  0
 11 12  2  0
 12 13  1  0
 13 14  1  0
 14 15  2  0
 15 16  1  0
 16 20  1  0
 20 21  1  0
 16 17  2  0
 17 18  1  0
 18 19  2  0
  4  5  1  0
  5  6  2  0
  6  7  1  0
  7  8  2  0
  8 40  1  0
 40 41  1  0
 41 42  1  0
 41 43  1  0
 41 44  1  0
  8  9  1  0
  9 10  2  0
 28 29  2  0
 29 23  1  0
 10  1  1  0
 19 11  1  0
 10  5  1  0
 19 14  1  0
M  END
> <minimizedAffinity>
-10.46501

> <CNNscore>
0.5771428943

> <CNNaffinity>
7.8553214073

> <CNN_VS>
4.5336427689

> <CNNaffinity_variance>
1.0399004221

$$$$



 44 48  0  0  0  0  0  0  0  0999 V2000
   15.1668    8.8501    9.5793 N   0  0  0  0  0  0  0  0  0  0  0  0
   13.7884    8.7065    9.6015 C   0  0  0  0  0  0  0  0  0  0  0  0
   12.8330    9.8454    9.4967 C   0  0  0  0  0  0  0  0  0  0  0  0
   13.5247    7.3524    9.7039 C   0  0  0  0  0  0  0  0  0  0  0  0
   14.7570    6.6574    9.8473 C   0  0  0  0  0  0  0  0  0  0  0  0
   15.1081    5.2995   10.0319 C   0  0  0  0  0  0  0  0  0  0  0  0
   16.4499    4.9332   10.1572 C   0  0  0  0  0  0  0  0  0  0  0  0
   17.4382    5.9068   10.1272 C   0  0  0  0  0  0  0  0  0  0  0  0
   17.1277    7.2548    9.9243 C   0  0  0  0  0  0  0  0  0  0  0  0
   15.7732    7.6168    9.7922 C   0  0  0  0  0  0  0  0  0  0  0  0
   12.2173    6.7020    9.6953 C   0  0  0  0  0  0  0  0  0  0  0  0
   11.3465    6.8203    8.6830 N   0  0  0  0  0  0  0  0  0  0  0  0
   10.2433    6.0662    9.0606 O   0  0  0  0  0  0  0  0  0  0  0  0
   10.4701    5.5059   10.2799 C   0  0  0  0  0  0  0  0  0  0  0  0
    9.5868    4.6796   10.9755 C   0  0  0  0  0  0  0  0  0  0  0  0
   10.0277    4.2114   12.2168 C   0  0  0  0  0  0  0  0  0  0  0  0
   11.2915    4.5681   12.7067 C   0  0  0  0  0  0  0  0  0  0  0  0
   12.1560    5.4015   11.9810 C   0  0  0  0  0  0  0  0  0  0  0  0
   11.7213    5.8807   10.7348 C   0  0  0  0  0  0  0  0  0  0  0  0
    9.3164    3.3889   13.0506 O   0  0  0  0  0  0  0  0  0  0  0  0
    9.2642    3.7536   14.4247 C   0  0  0  0  0  0  0  0  0  0  0  0
   15.8943   10.1187    9.4752 C   0  0  0  0  0  0  0  0  0  0  0  0
   14.4315   12.1137    6.5782 C   0  0  0  0  0  0  0  0  0  0  0  0
   13.7819   13.1591    7.2217 C   0  0  0  0  0  0  0  0  0  0  0  0
   13.7779   13.2167    8.6142 C   0  0  0  0  0  0  0  0  0  0  0  0
   14.4446   12.2416    9.3651 C   0  0  0  0  0  0  0  0  0  0  0  0
   14.3209   12.3636   11.0808 Cl  0  0  0  0  0  0  0  0  0  0  0  0
   15.1526   11.2070    8.7302 C   0  0  0  0  0  0  0  0  0  0  0  0
   15.1336   11.1616    7.3212 C   0  0  0  0  0  0  0  0  0  0  0  0
   14.4016   12.1184    5.2118 O   0  0  0  0  0  0  0  0  0  0  0  0
   15.4605   12.8790    4.5865 C   0  0  0  0  0  0  0  0  0  0  0  0
   14.9722   14.3211    4.5585 C   0  0  0  0  0  0  0  0  0  0  0  0
   15.6948   12.2634    3.1924 C   0  0  0  0  0  0  0  0  0  0  0  0
   14.5033   12.1590    2.1883 C   0  0  0  0  0  0  0  0  0  0  0  0
   13.7520   10.8250    2.3563 C   0  0  0  0  0  0  0  0  0  0  0  0
   15.1194   12.1646    0.7700 C   0  0  0  0  0  0  0  0  0  0  0  0
   13.5341   13.3604    2.3636 C   0  0  0  0  0  0  0  0  0  0  0  0
   11.6696   13.7185    0.7082 C   0  0  0  0  0  0  0  0  0  0  0  0
   12.0609   13.0895    2.0378 C   0  0  0  0  0  0  0  0  0  0  0  0
   18.7560    5.5488   10.2084 O   0  0  0  0  0  0  0  0  0  0  0  0
   19.4161    5.7430    8.9622 C   0  0  0  0  0  0  0  0  0  0  0  0
   18.5301    5.9021    7.9547 F   0  0  0  0  0  0  0  0  0  0  0  0
   20.2437    4.7136    8.6794 F   0  0  0  0  0  0  0  0  0  0  0  0
   20.1634    6.8681    9.0444 F   0  0  0  0  0  0  0  0  0  0  0  0
 38 39  1  0
 39 37  1  0
 37 34  1  0
 34 35  1  0
 34 36  1  0
 34 33  1  0
 33 31  1  0
 31 32  1  0
 31 30  1  0
 30 23  1  0
 23 24  2  0
 24 25  1  0
 25 26  2  0
 26 27  1  0
 26 28  1  0
 28 22  1  0
 22  1  1  0
  1  2  1  0
  2  3  1  0
  2  4  2  0
  4 11  1  0
 11 12  2  0
 12 13  1  0
 13 14  1  0
 14 15  2  0
 15 16  1  0
 16 20  1  0
 20 21  1  0
 16 17  2  0
 17 18  1  0
 18 19  2  0
  4  5  1  0
  5  6  2  0
  6  7  1  0
  7  8  2  0
  8 40  1  0
 40 41  1  0
 41 42  1  0
 41 43  1  0
 41 44  1  0
  8  9  1  0
  9 10  2  0
 28 29  2  0
 29 23  1  0
 10  1  1  0
 19 11  1  0
 10  5  1  0
 19 14  1  0
M  END
> <minimizedAffinity>
-8.00564

> <CNNscore>
0.5285203457

> <CNNaffinity>
7.8060417175

> <CNN_VS>
4.1256518364

> <CNNaffinity_variance>
0.4403579533

$$$$



 44 48  0  0  0  0  0  0  0  0999 V2000
   15.1381    8.8313    9.5875 N   0  0  0  0  0  0  0  0  0  0  0  0
   13.7593    8.6928    9.6113 C   0  0  0  0  0  0  0  0  0  0  0  0
   12.8079    9.8357    9.5131 C   0  0  0  0  0  0  0  0  0  0  0  0
   13.4906    7.3393    9.7078 C   0  0  0  0  0  0  0  0  0  0  0  0
   14.7205    6.6389    9.8461 C   0  0  0  0  0  0  0  0  0  0  0  0
   15.0668    5.2789   10.0239 C   0  0  0  0  0  0  0  0  0  0  0  0
   16.4074    4.9071   10.1456 C   0  0  0  0  0  0  0  0  0  0  0  0
   17.3993    5.8771   10.1185 C   0  0  0  0  0  0  0  0  0  0  0  0
   17.0935    7.2271    9.9222 C   0  0  0  0  0  0  0  0  0  0  0  0
   15.7402    7.5948    9.7938 C   0  0  0  0  0  0  0  0  0  0  0  0
   12.1807    6.6937    9.6983 C   0  0  0  0  0  0  0  0  0  0  0  0
   11.3131    6.8115    8.6832 N   0  0  0  0  0  0  0  0  0  0  0  0
   10.2060    6.0630    9.0608 O   0  0  0  0  0  0  0  0  0  0  0  0
   10.4275    5.5065   10.2829 C   0  0  0  0  0  0  0  0  0  0  0  0
    9.5392    4.6863   10.9793 C   0  0  0  0  0  0  0  0  0  0  0  0
    9.9751    4.2212   12.2235 C   0  0  0  0  0  0  0  0  0  0  0  0
   11.2390    4.5749   12.7153 C   0  0  0  0  0  0  0  0  0  0  0  0
   12.1086    5.4022   11.9887 C   0  0  0  0  0  0  0  0  0  0  0  0
   11.6790    5.8783   10.7396 C   0  0  0  0  0  0  0  0  0  0  0  0
    9.2585    3.4045   13.0585 O   0  0  0  0  0  0  0  0  0  0  0  0
    9.2137    3.7684   14.4331 C   0  0  0  0  0  0  0  0  0  0  0  0
   15.8703   10.0976    9.4881 C   0  0  0  0  0  0  0  0  0  0  0  0
   14.3343   12.1694    6.6843 C   0  0  0  0  0  0  0  0  0  0  0  0
   13.7072   13.2004    7.3718 C   0  0  0  0  0  0  0  0  0  0  0  0
   13.7425   13.2230    8.7649 C   0  0  0  0  0  0  0  0  0  0  0  0
   14.4262   12.2272    9.4721 C   0  0  0  0  0  0  0  0  0  0  0  0
   14.3513   12.3065   11.1931 Cl  0  0  0  0  0  0  0  0  0  0  0  0
   15.1121   11.2066    8.7918 C   0  0  0  0  0  0  0  0  0  0  0  0
   15.0533   11.1967    7.3831 C   0  0  0  0  0  0  0  0  0  0  0  0
   14.2660   12.2085    5.3198 O   0  0  0  0  0  0  0  0  0  0  0  0
   14.0660   13.5275    4.7621 C   0  0  0  0  0  0  0  0  0  0  0  0
   13.1501   13.3336    3.5610 C   0  0  0  0  0  0  0  0  0  0  0  0
   15.4603   14.0843    4.4108 C   0  0  0  0  0  0  0  0  0  0  0  0
   16.4355   13.2247    3.5453 C   0  0  0  0  0  0  0  0  0  0  0  0
   17.1362   14.0867    2.4785 C   0  0  0  0  0  0  0  0  0  0  0  0
   15.5654   12.1866    2.7994 C   0  0  0  0  0  0  0  0  0  0  0  0
   17.4801   12.5101    4.4462 C   0  0  0  0  0  0  0  0  0  0  0  0
   19.9914   12.7054    4.4579 C   0  0  0  0  0  0  0  0  0  0  0  0
   18.6823   13.3551    4.8828 C   0  0  0  0  0  0  0  0  0  0  0  0
   18.7158    5.5138   10.1960 O   0  0  0  0  0  0  0  0  0  0  0  0
   19.3929    5.7817    8.9727 C   0  0  0  0  0  0  0  0  0  0  0  0
   20.0813    6.9425    9.0345 F   0  0  0  0  0  0  0  0  0  0  0  0
   18.5312    5.8208    7.9332 F   0  0  0  0  0  0  0  0  0  0  0  0
   20.2762    4.7823    8.7446 F   0  0  0  0  0  0  0  0  0  0  0  0
 38 39  1  0
 39 37  1  0
 37 34  1  0
 34 35  1  0
 34 36  1  0
 34 33  1  0
 33 31  1  0
 31 32  1  0
 31 30  1  0
 30 23  1  0
 23 24  2  0
 24 25  1  0
 25 26  2  0
 26 27  1  0
 26 28  1  0
 28 22  1  0
 22  1  1  0
  1  2  1  0
  2  3  1  0
  2  4  2  0
  4 11  1  0
 11 12  2  0
 12 13  1  0
 13 14  1  0
 14 15  2  0
 15 16  1  0
 16 20  1  0
 20 21  1  0
 16 17  2  0
 17 18  1  0
 18 19  2  0
  4  5  1  0
  5  6  2  0
  6  7  1  0
  7  8  2  0
  8 40  1  0
 40 41  1  0
 41 42  1  0
 41 43  1  0
 41 44  1  0
  8  9  1  0
  9 10  2  0
 28 29  2  0
 29 23  1  0
 10  1  1  0
 19 11  1  0
 10  5  1  0
 19 14  1  0
M  END
> <minimizedAffinity>
-7.91505

> <CNNscore>
0.4777976871

> <CNNaffinity>
7.7236824036

> <CNN_VS>
3.6903576851

> <CNNaffinity_variance>
0.3560695350

$$$$



 44 48  0  0  0  0  0  0  0  0999 V2000
   14.5689    7.2070    9.7401 N   0  0  0  0  0  0  0  0  0  0  0  0
   13.5814    8.1595    9.5437 C   0  0  0  0  0  0  0  0  0  0  0  0
   12.1214    7.8677    9.6086 C   0  0  0  0  0  0  0  0  0  0  0  0
   14.2216    9.3655    9.3212 C   0  0  0  0  0  0  0  0  0  0  0  0
   15.6245    9.1364    9.2806 C   0  0  0  0  0  0  0  0  0  0  0  0
   16.7522    9.9587    9.0499 C   0  0  0  0  0  0  0  0  0  0  0  0
   18.0355    9.4082    9.0619 C   0  0  0  0  0  0  0  0  0  0  0  0
   18.2020    8.0470    9.2742 C   0  0  0  0  0  0  0  0  0  0  0  0
   17.1113    7.2098    9.5273 C   0  0  0  0  0  0  0  0  0  0  0  0
   15.8203    7.7723    9.5201 C   0  0  0  0  0  0  0  0  0  0  0  0
   13.6028   10.6743    9.1304 C   0  0  0  0  0  0  0  0  0  0  0  0
   12.7754   10.9523    8.1129 N   0  0  0  0  0  0  0  0  0  0  0  0
   12.4155   12.2820    8.2882 O   0  0  0  0  0  0  0  0  0  0  0  0
   13.0215   12.7750    9.4026 C   0  0  0  0  0  0  0  0  0  0  0  0
   12.8911   14.0737    9.8957 C   0  0  0  0  0  0  0  0  0  0  0  0
   13.6049   14.3654   11.0618 C   0  0  0  0  0  0  0  0  0  0  0  0
   14.3966   13.3867   11.6782 C   0  0  0  0  0  0  0  0  0  0  0  0
   14.5057   12.0892   11.1557 C   0  0  0  0  0  0  0  0  0  0  0  0
   13.7961   11.7867    9.9824 C   0  0  0  0  0  0  0  0  0  0  0  0
   13.6082   15.5748   11.7061 O   0  0  0  0  0  0  0  0  0  0  0  0
   14.7396   15.8700   12.5165 C   0  0  0  0  0  0  0  0  0  0  0  0
   14.3445    5.7843   10.0141 C   0  0  0  0  0  0  0  0  0  0  0  0
   14.8197    5.4269   13.7770 C   0  0  0  0  0  0  0  0  0  0  0  0
   13.5897    4.9373   14.1971 C   0  0  0  0  0  0  0  0  0  0  0  0
   12.5688    4.7460   13.2679 C   0  0  0  0  0  0  0  0  0  0  0  0
   12.7842    5.0214   11.9126 C   0  0  0  0  0  0  0  0  0  0  0  0
   11.4371    4.8184   10.8553 Cl  0  0  0  0  0  0  0  0  0  0  0  0
   14.0387    5.4657   11.4614 C   0  0  0  0  0  0  0  0  0  0  0  0
   15.0534    5.6633   12.4202 C   0  0  0  0  0  0  0  0  0  0  0  0
   15.7789    5.5874   14.7372 O   0  0  0  0  0  0  0  0  0  0  0  0
   16.8474    4.6140   14.6929 C   0  0  0  0  0  0  0  0  0  0  0  0
   16.2841    3.3529   15.3341 C   0  0  0  0  0  0  0  0  0  0  0  0
   18.0456    5.2256   15.4464 C   0  0  0  0  0  0  0  0  0  0  0  0
   18.7168    4.4213   16.6046 C   0  0  0  0  0  0  0  0  0  0  0  0
   19.5216    5.3515   17.5315 C   0  0  0  0  0  0  0  0  0  0  0  0
   19.7214    3.4497   15.9429 C   0  0  0  0  0  0  0  0  0  0  0  0
   17.6496    3.6319   17.4117 C   0  0  0  0  0  0  0  0  0  0  0  0
   18.7605    4.1864   19.6033 C   0  0  0  0  0  0  0  0  0  0  0  0
   17.4355    4.0799   18.8620 C   0  0  0  0  0  0  0  0  0  0  0  0
   19.4592    7.5102    9.3277 O   0  0  0  0  0  0  0  0  0  0  0  0
   19.4360    6.1220    9.0132 C   0  0  0  0  0  0  0  0  0  0  0  0
   18.3772    5.5054    9.5826 F   0  0  0  0  0  0  0  0  0  0  0  0
   20.5774    5.5119    9.4001 F   0  0  0  0  0  0  0  0  0  0  0  0
   19.3264    5.9889    7.6711 F   0  0  0  0  0  0  0  0  0  0  0  0
 38 39  1  0
 39 37  1  0
 37 34  1  0
 34 35  1  0
 34 36  1  0
 34 33  1  0
 33 31  1  0
 31 32  1  0
 31 30  1  0
 30 23  1  0
 23 24  2  0
 24 25  1  0
 25 26  2  0
 26 27  1  0
 26 28  1  0
 28 22  1  0
 22  1  1  0
  1  2  1  0
  2  3  1  0
  2  4  2  0
  4 11  1  0
 11 12  2  0
 12 13  1  0
 13 14  1  0
 14 15  2  0
 15 16  1  0
 16 20  1  0
 20 21  1  0
 16 17  2  0
 17 18  1  0
 18 19  2  0
  4  5  1  0
  5  6  2  0
  6  7  1  0
  7  8  2  0
  8 40  1  0
 40 41  1  0
 41 42  1  0
 41 43  1  0
 41 44  1  0
  8  9  1  0
  9 10  2  0
 28 29  2  0
 29 23  1  0
 10  1  1  0
 19 11  1  0
 10  5  1  0
 19 14  1  0
M  END
> <minimizedAffinity>
-8.44556

> <CNNscore>
0.3809225559

> <CNNaffinity>
7.7158627510

> <CNN_VS>
2.9391460419

> <CNNaffinity_variance>
1.0111292601

$$$$



 44 48  0  0  0  0  0  0  0  0999 V2000
   14.9311    4.9356   11.4038 N   0  0  0  0  0  0  0  0  0  0  0  0
   13.6059    4.5333   11.3507 C   0  0  0  0  0  0  0  0  0  0  0  0
   12.8046    4.4774   10.0954 C   0  0  0  0  0  0  0  0  0  0  0  0
   13.2360    4.1891   12.6385 C   0  0  0  0  0  0  0  0  0  0  0  0
   14.3173    4.4773   13.5160 C   0  0  0  0  0  0  0  0  0  0  0  0
   14.5060    4.3793   14.9145 C   0  0  0  0  0  0  0  0  0  0  0  0
   15.7182    4.7701   15.4874 C   0  0  0  0  0  0  0  0  0  0  0  0
   16.7293    5.2803   14.6856 C   0  0  0  0  0  0  0  0  0  0  0  0
   16.5841    5.3701   13.2980 C   0  0  0  0  0  0  0  0  0  0  0  0
   15.3617    4.9684   12.7258 C   0  0  0  0  0  0  0  0  0  0  0  0
   11.9546    3.6415   13.0752 C   0  0  0  0  0  0  0  0  0  0  0  0
   11.8304    2.4377   13.6517 N   0  0  0  0  0  0  0  0  0  0  0  0
   10.4730    2.2936   13.9069 O   0  0  0  0  0  0  0  0  0  0  0  0
    9.8104    3.4067   13.4897 C   0  0  0  0  0  0  0  0  0  0  0  0
    8.4353    3.6226   13.5875 C   0  0  0  0  0  0  0  0  0  0  0  0
    7.9661    4.8440   13.0953 C   0  0  0  0  0  0  0  0  0  0  0  0
    8.8520    5.7789   12.5424 C   0  0  0  0  0  0  0  0  0  0  0  0
   10.2303    5.5301   12.4594 C   0  0  0  0  0  0  0  0  0  0  0  0
   10.7117    4.3045   12.9472 C   0  0  0  0  0  0  0  0  0  0  0  0
    6.6572    5.2495   13.1016 O   0  0  0  0  0  0  0  0  0  0  0  0
    6.3426    6.4226   12.3607 C   0  0  0  0  0  0  0  0  0  0  0  0
   15.7364    5.3844   10.2639 C   0  0  0  0  0  0  0  0  0  0  0  0
   17.0360    8.9384    9.8257 C   0  0  0  0  0  0  0  0  0  0  0  0
   15.8720    9.6690    9.6248 C   0  0  0  0  0  0  0  0  0  0  0  0
   14.6424    9.0137    9.5936 C   0  0  0  0  0  0  0  0  0  0  0  0
   14.5727    7.6293    9.7876 C   0  0  0  0  0  0  0  0  0  0  0  0
   13.0129    6.9049    9.6609 Cl  0  0  0  0  0  0  0  0  0  0  0  0
   15.7342    6.8817   10.0461 C   0  0  0  0  0  0  0  0  0  0  0  0
   16.9684    7.5632   10.0616 C   0  0  0  0  0  0  0  0  0  0  0  0
   18.2077    9.6417    9.8497 O   0  0  0  0  0  0  0  0  0  0  0  0
   18.0821   11.0380    9.4957 C   0  0  0  0  0  0  0  0  0  0  0  0
   16.6096   11.3799    9.6795 C   0  0  0  0  0  0  0  0  0  0  0  0
   18.5888   11.1829    8.0467 C   0  0  0  0  0  0  0  0  0  0  0  0
   18.6814   12.6028    7.4031 C   0  0  0  0  0  0  0  0  0  0  0  0
   18.9614   13.6778    8.4700 C   0  0  0  0  0  0  0  0  0  0  0  0
   17.2904   12.9053    6.7992 C   0  0  0  0  0  0  0  0  0  0  0  0
   19.7712   12.6311    6.2963 C   0  0  0  0  0  0  0  0  0  0  0  0
   20.4082   12.4724    3.8645 C   0  0  0  0  0  0  0  0  0  0  0  0
   19.2618   12.6455    4.8506 C   0  0  0  0  0  0  0  0  0  0  0  0
   17.9327    5.6260   15.2366 O   0  0  0  0  0  0  0  0  0  0  0  0
   18.6108    4.4810   15.7426 C   0  0  0  0  0  0  0  0  0  0  0  0
   19.9513    4.6195   15.6459 F   0  0  0  0  0  0  0  0  0  0  0  0
   18.2239    3.3576   15.1001 F   0  0  0  0  0  0  0  0  0  0  0  0
   18.2973    4.3416   17.0515 F   0  0  0  0  0  0  0  0  0  0  0  0
 38 39  1  0
 39 37  1  0
 37 34  1  0
 34 35  1  0
 34 36  1  0
 34 33  1  0
 33 31  1  0
 31 32  1  0
 31 30  1  0
 30 23  1  0
 23 24  2  0
 24 25  1  0
 25 26  2  0
 26 27  1  0
 26 28  1  0
 28 22  1  0
 22  1  1  0
  1  2  1  0
  2  3  1  0
  2  4  2  0
  4 11  1  0
 11 12  2  0
 12 13  1  0
 13 14  1  0
 14 15  2  0
 15 16  1  0
 16 20  1  0
 20 21  1  0
 16 17  2  0
 17 18  1  0
 18 19  2  0
  4  5  1  0
  5  6  2  0
  6  7  1  0
  7  8  2  0
  8 40  1  0
 40 41  1  0
 41 42  1  0
 41 43  1  0
 41 44  1  0
  8  9  1  0
  9 10  2  0
 28 29  2  0
 29 23  1  0
 10  1  1  0
 19 11  1  0
 10  5  1  0
 19 14  1  0
M  END
> <minimizedAffinity>
-9.68211

> <CNNscore>
0.3648295403

> <CNNaffinity>
7.7557396889

> <CNN_VS>
2.8295228481

> <CNNaffinity_variance>
0.4215802252

$$$$
