


 19 21  0  0  0  0  0  0  0  0999 V2000
   64.7047   47.9368    7.0169 N   0  0  0  0  0  0  0  0  0  0  0  0
   65.7852   48.2447    7.8397 C   0  0  0  0  0  0  0  0  0  0  0  0
   66.9743   47.5450    7.7274 C   0  0  0  0  0  0  0  0  0  0  0  0
   68.0357   47.8976    8.5534 C   0  0  0  0  0  0  0  0  0  0  0  0
   67.8815   48.9465    9.4654 C   0  0  0  0  0  0  0  0  0  0  0  0
   68.9249   49.3444   10.3231 C   0  0  0  0  0  0  0  0  0  0  0  0
   68.7443   50.3992   11.2250 C   0  0  0  0  0  0  0  0  0  0  0  0
   67.5070   51.0456   11.2623 C   0  0  0  0  0  0  0  0  0  0  0  0
   66.4747   50.6455   10.4050 C   0  0  0  0  0  0  0  0  0  0  0  0
   66.6357   49.6044    9.5021 C   0  0  0  0  0  0  0  0  0  0  0  0
   65.6109   49.2589    8.7027 N   0  0  0  0  0  0  0  0  0  0  0  0
   64.7760   47.2026    6.3650 H   0  0  0  0  0  0  0  0  0  0  0  0
   63.8696   48.4535    7.0871 H   0  0  0  0  0  0  0  0  0  0  0  0
   69.8156   50.8152   12.1233 C   0  0  0  0  0  0  0  0  0  0  0  0
   69.7305   51.9716   12.8806 C   0  0  0  0  0  0  0  0  0  0  0  0
   71.1193   52.2198   13.8572 S   0  0  0  0  0  0  0  0  0  0  0  0
   71.8241   50.7931   13.2875 C   0  0  0  0  0  0  0  0  0  0  0  0
   73.3709   50.3160   13.8601 Cl  0  0  0  0  0  0  0  0  0  0  0  0
   71.0474   50.1245   12.3771 C   0  0  0  0  0  0  0  0  0  0  0  0
  1  2  1  0
  2  3  2  0
  3  4  1  0
  4  5  2  0
  5  6  1  0
  6  7  2  0
  7 14  1  0
 14 15  2  0
 15 16  1  0
 16 17  1  0
 17 18  1  0
 17 19  2  0
  7  8  1  0
  8  9  2  0
  9 10  1  0
 10 11  2  0
 11  2  1  0
 10  5  1  0
 19 14  1  0
  1 12  1  0
  1 13  1  0
M  END
> <minimizedAffinity>
-6.81279

> <CNNscore>
0.6488056779

> <CNNaffinity>
4.9077858925

> <CNN_VS>
3.1841993332

> <CNNaffinity_variance>
0.5579983592

$$$$



 19 21  0  0  0  0  0  0  0  0999 V2000
   74.5710   47.9310    4.9597 N   0  0  0  0  0  0  0  0  0  0  0  0
   73.8862   48.5586    5.9972 C   0  0  0  0  0  0  0  0  0  0  0  0
   74.5725   49.0518    7.0935 C   0  0  0  0  0  0  0  0  0  0  0  0
   73.8537   49.6902    8.0979 C   0  0  0  0  0  0  0  0  0  0  0  0
   72.4671   49.8249    7.9752 C   0  0  0  0  0  0  0  0  0  0  0  0
   71.6927   50.4640    8.9623 C   0  0  0  0  0  0  0  0  0  0  0  0
   70.3066   50.5871    8.8132 C   0  0  0  0  0  0  0  0  0  0  0  0
   69.7053   50.0582    7.6692 C   0  0  0  0  0  0  0  0  0  0  0  0
   70.4822   49.4256    6.6909 C   0  0  0  0  0  0  0  0  0  0  0  0
   71.8577   49.2968    6.8194 C   0  0  0  0  0  0  0  0  0  0  0  0
   72.5565   48.6781    5.8511 N   0  0  0  0  0  0  0  0  0  0  0  0
   75.5472   47.8157    5.0131 H   0  0  0  0  0  0  0  0  0  0  0  0
   74.0788   47.6026    4.1729 H   0  0  0  0  0  0  0  0  0  0  0  0
   69.4934   51.2407    9.8327 C   0  0  0  0  0  0  0  0  0  0  0  0
   69.0180   52.5318    9.6755 C   0  0  0  0  0  0  0  0  0  0  0  0
   68.0816   53.0537   11.0153 S   0  0  0  0  0  0  0  0  0  0  0  0
   68.2954   51.5689   11.7941 C   0  0  0  0  0  0  0  0  0  0  0  0
   67.5850   51.3015   13.3342 Cl  0  0  0  0  0  0  0  0  0  0  0  0
   69.0549   50.6800   11.0786 C   0  0  0  0  0  0  0  0  0  0  0  0
  1  2  1  0
  2  3  2  0
  3  4  1  0
  4  5  2  0
  5  6  1  0
  6  7  2  0
  7 14  1  0
 14 15  2  0
 15 16  1  0
 16 17  1  0
 17 18  1  0
 17 19  2  0
  7  8  1  0
  8  9  2  0
  9 10  1  0
 10 11  2  0
 11  2  1  0
 10  5  1  0
 19 14  1  0
  1 12  1  0
  1 13  1  0
M  END
> <minimizedAffinity>
-6.73928

> <CNNscore>
0.5775602460

> <CNNaffinity>
4.1746578217

> <CNN_VS>
2.4111163616

> <CNNaffinity_variance>
1.0128852129

$$$$



 19 21  0  0  0  0  0  0  0  0999 V2000
   70.5306   52.0486   14.5011 N   0  0  0  0  0  0  0  0  0  0  0  0
   71.1315   51.3147   13.4816 C   0  0  0  0  0  0  0  0  0  0  0  0
   72.2159   50.4975   13.7508 C   0  0  0  0  0  0  0  0  0  0  0  0
   72.7737   49.7653   12.7087 C   0  0  0  0  0  0  0  0  0  0  0  0
   72.2267   49.8646   11.4255 C   0  0  0  0  0  0  0  0  0  0  0  0
   72.7523   49.1436   10.3362 C   0  0  0  0  0  0  0  0  0  0  0  0
   72.1840   49.2598    9.0625 C   0  0  0  0  0  0  0  0  0  0  0  0
   71.0891   50.1095    8.8914 C   0  0  0  0  0  0  0  0  0  0  0  0
   70.5707   50.8219    9.9798 C   0  0  0  0  0  0  0  0  0  0  0  0
   71.1184   50.7173   11.2503 C   0  0  0  0  0  0  0  0  0  0  0  0
   70.5830   51.4254   12.2607 N   0  0  0  0  0  0  0  0  0  0  0  0
   70.8904   52.0057   15.4165 H   0  0  0  0  0  0  0  0  0  0  0  0
   69.7459   52.6104   14.3065 H   0  0  0  0  0  0  0  0  0  0  0  0
   72.7247   48.5235    7.9253 C   0  0  0  0  0  0  0  0  0  0  0  0
   72.4801   47.1727    7.7426 C   0  0  0  0  0  0  0  0  0  0  0  0
   73.2232   46.5577    6.3235 S   0  0  0  0  0  0  0  0  0  0  0  0
   73.8553   48.0793    5.9469 C   0  0  0  0  0  0  0  0  0  0  0  0
   74.8057   48.2835    4.5316 Cl  0  0  0  0  0  0  0  0  0  0  0  0
   73.5272   49.0491    6.8583 C   0  0  0  0  0  0  0  0  0  0  0  0
  1  2  1  0
  2  3  2  0
  3  4  1  0
  4  5  2  0
  5  6  1  0
  6  7  2  0
  7 14  1  0
 14 15  2  0
 15 16  1  0
 16 17  1  0
 17 18  1  0
 17 19  2  0
  7  8  1  0
  8  9  2  0
  9 10  1  0
 10 11  2  0
 11  2  1  0
 10  5  1  0
 19 14  1  0
  1 12  1  0
  1 13  1  0
M  END
> <minimizedAffinity>
-6.97997

> <CNNscore>
0.5053476095

> <CNNaffinity>
4.7458281517

> <CNN_VS>
2.3982930183

> <CNNaffinity_variance>
0.2853917778

$$$$



 19 21  0  0  0  0  0  0  0  0999 V2000
   68.8858   45.2681    7.5199 N   0  0  0  0  0  0  0  0  0  0  0  0
   68.6372   46.6243    7.7152 C   0  0  0  0  0  0  0  0  0  0  0  0
   67.9109   47.3457    6.7834 C   0  0  0  0  0  0  0  0  0  0  0  0
   67.6669   48.6927    7.0263 C   0  0  0  0  0  0  0  0  0  0  0  0
   68.1499   49.2809    8.1995 C   0  0  0  0  0  0  0  0  0  0  0  0
   67.9292   50.6399    8.4944 C   0  0  0  0  0  0  0  0  0  0  0  0
   68.4221   51.2027    9.6772 C   0  0  0  0  0  0  0  0  0  0  0  0
   69.1426   50.3918   10.5567 C   0  0  0  0  0  0  0  0  0  0  0  0
   69.3565   49.0407   10.2575 C   0  0  0  0  0  0  0  0  0  0  0  0
   68.8731   48.4641    9.0918 C   0  0  0  0  0  0  0  0  0  0  0  0
   69.1086   47.1619    8.8520 N   0  0  0  0  0  0  0  0  0  0  0  0
   68.5635   44.8210    6.7041 H   0  0  0  0  0  0  0  0  0  0  0  0
   69.3839   44.7564    8.1976 H   0  0  0  0  0  0  0  0  0  0  0  0
   68.2059   52.6111    9.9896 C   0  0  0  0  0  0  0  0  0  0  0  0
   68.9204   53.6193    9.3644 C   0  0  0  0  0  0  0  0  0  0  0  0
   68.4632   55.1813    9.9078 S   0  0  0  0  0  0  0  0  0  0  0  0
   67.3140   54.5232   10.9580 C   0  0  0  0  0  0  0  0  0  0  0  0
   66.3588   55.5602   11.9381 Cl  0  0  0  0  0  0  0  0  0  0  0  0
   67.2570   53.1543   10.9188 C   0  0  0  0  0  0  0  0  0  0  0  0
  1  2  1  0
  2  3  2  0
  3  4  1  0
  4  5  2  0
  5  6  1  0
  6  7  2  0
  7 14  1  0
 14 15  2  0
 15 16  1  0
 16 17  1  0
 17 18  1  0
 17 19  2  0
  7  8  1  0
  8  9  2  0
  9 10  1  0
 10 11  2  0
 11  2  1  0
 10  5  1  0
 19 14  1  0
  1 12  1  0
  1 13  1  0
M  END
> <minimizedAffinity>
-6.22805

> <CNNscore>
0.5000874996

> <CNNaffinity>
4.2662210464

> <CNN_VS>
2.1334838867

> <CNNaffinity_variance>
0.7491912246

$$$$



 19 21  0  0  0  0  0  0  0  0999 V2000
   69.3399   50.1813    7.3860 N   0  0  0  0  0  0  0  0  0  0  0  0
   70.4266   49.5054    7.9350 C   0  0  0  0  0  0  0  0  0  0  0  0
   70.2706   48.7341    9.0738 C   0  0  0  0  0  0  0  0  0  0  0  0
   71.3763   48.0586    9.5779 C   0  0  0  0  0  0  0  0  0  0  0  0
   72.6080   48.1666    8.9244 C   0  0  0  0  0  0  0  0  0  0  0  0
   73.7578   47.5020    9.3921 C   0  0  0  0  0  0  0  0  0  0  0  0
   74.9777   47.6256    8.7174 C   0  0  0  0  0  0  0  0  0  0  0  0
   75.0341   48.4262    7.5746 C   0  0  0  0  0  0  0  0  0  0  0  0
   73.8860   49.0827    7.1144 C   0  0  0  0  0  0  0  0  0  0  0  0
   72.6673   48.9697    7.7678 C   0  0  0  0  0  0  0  0  0  0  0  0
   71.5957   49.6231    7.2846 N   0  0  0  0  0  0  0  0  0  0  0  0
   68.4580   50.1306    7.8207 H   0  0  0  0  0  0  0  0  0  0  0  0
   69.4535   50.7099    6.5633 H   0  0  0  0  0  0  0  0  0  0  0  0
   76.1769   46.9477    9.1969 C   0  0  0  0  0  0  0  0  0  0  0  0
   76.5838   45.7269    8.6851 C   0  0  0  0  0  0  0  0  0  0  0  0
   78.0284   45.1580    9.4157 S   0  0  0  0  0  0  0  0  0  0  0  0
   78.1202   46.5311   10.3969 C   0  0  0  0  0  0  0  0  0  0  0  0
   79.4196   46.7037   11.5060 Cl  0  0  0  0  0  0  0  0  0  0  0  0
   77.0929   47.4163   10.1971 C   0  0  0  0  0  0  0  0  0  0  0  0
  1  2  1  0
  2  3  2  0
  3  4  1  0
  4  5  2  0
  5  6  1  0
  6  7  2  0
  7 14  1  0
 14 15  2  0
 15 16  1  0
 16 17  1  0
 17 18  1  0
 17 19  2  0
  7  8  1  0
  8  9  2  0
  9 10  1  0
 10 11  2  0
 11  2  1  0
 10  5  1  0
 19 14  1  0
  1 12  1  0
  1 13  1  0
M  END
> <minimizedAffinity>
-5.23569

> <CNNscore>
0.4760241508

> <CNNaffinity>
4.1073970795

> <CNN_VS>
1.9552202225

> <CNNaffinity_variance>
0.4227226675

$$$$



 19 21  0  0  0  0  0  0  0  0999 V2000
   63.8413   47.8308    6.9993 N   0  0  0  0  0  0  0  0  0  0  0  0
   63.7823   47.2601    8.2682 C   0  0  0  0  0  0  0  0  0  0  0  0
   63.6900   45.8869    8.4162 C   0  0  0  0  0  0  0  0  0  0  0  0
   63.6546   45.3559    9.7007 C   0  0  0  0  0  0  0  0  0  0  0  0
   63.7202   46.2129   10.8038 C   0  0  0  0  0  0  0  0  0  0  0  0
   63.6900   45.7268   12.1249 C   0  0  0  0  0  0  0  0  0  0  0  0
   63.7594   46.6068   13.2109 C   0  0  0  0  0  0  0  0  0  0  0  0
   63.8531   47.9772   12.9591 C   0  0  0  0  0  0  0  0  0  0  0  0
   63.8845   48.4531   11.6425 C   0  0  0  0  0  0  0  0  0  0  0  0
   63.8199   47.5962   10.5532 C   0  0  0  0  0  0  0  0  0  0  0  0
   63.8518   48.1060    9.3091 N   0  0  0  0  0  0  0  0  0  0  0  0
   63.7948   47.2585    6.1995 H   0  0  0  0  0  0  0  0  0  0  0  0
   63.9294   48.8065    6.9020 H   0  0  0  0  0  0  0  0  0  0  0  0
   63.7215   46.1151   14.5837 C   0  0  0  0  0  0  0  0  0  0  0  0
   62.6771   45.3379   15.0560 C   0  0  0  0  0  0  0  0  0  0  0  0
   62.8860   44.8864   16.6982 S   0  0  0  0  0  0  0  0  0  0  0  0
   64.3612   45.7075   16.7779 C   0  0  0  0  0  0  0  0  0  0  0  0
   65.2585   45.7126   18.2418 Cl  0  0  0  0  0  0  0  0  0  0  0  0
   64.7114   46.3190   15.6022 C   0  0  0  0  0  0  0  0  0  0  0  0
  1  2  1  0
  2  3  2  0
  3  4  1  0
  4  5  2  0
  5  6  1  0
  6  7  2  0
  7 14  1  0
 14 15  2  0
 15 16  1  0
 16 17  1  0
 17 18  1  0
 17 19  2  0
  7  8  1  0
  8  9  2  0
  9 10  1  0
 10 11  2  0
 11  2  1  0
 10  5  1  0
 19 14  1  0
  1 12  1  0
  1 13  1  0
M  END
> <minimizedAffinity>
-5.44908

> <CNNscore>
0.4710056484

> <CNNaffinity>
3.8950397968

> <CNN_VS>
1.8345857859

> <CNNaffinity_variance>
0.6960499287

$$$$



 19 21  0  0  0  0  0  0  0  0999 V2000
   74.8537   46.1648    5.4800 N   0  0  0  0  0  0  0  0  0  0  0  0
   74.3257   47.1259    6.3382 C   0  0  0  0  0  0  0  0  0  0  0  0
   74.6457   48.4629    6.1761 C   0  0  0  0  0  0  0  0  0  0  0  0
   74.0807   49.3931    7.0413 C   0  0  0  0  0  0  0  0  0  0  0  0
   73.2041   48.9616    8.0418 C   0  0  0  0  0  0  0  0  0  0  0  0
   72.6037   49.8621    8.9424 C   0  0  0  0  0  0  0  0  0  0  0  0
   71.7281   49.4035    9.9331 C   0  0  0  0  0  0  0  0  0  0  0  0
   71.4661   48.0343   10.0153 C   0  0  0  0  0  0  0  0  0  0  0  0
   72.0654   47.1449    9.1150 C   0  0  0  0  0  0  0  0  0  0  0  0
   72.9334   47.5810    8.1243 C   0  0  0  0  0  0  0  0  0  0  0  0
   73.4836   46.6841    7.2866 N   0  0  0  0  0  0  0  0  0  0  0  0
   75.4766   46.4315    4.7658 H   0  0  0  0  0  0  0  0  0  0  0  0
   74.6041   45.2185    5.5875 H   0  0  0  0  0  0  0  0  0  0  0  0
   71.1062   50.3263   10.8762 C   0  0  0  0  0  0  0  0  0  0  0  0
   70.0698   51.1666   10.5052 C   0  0  0  0  0  0  0  0  0  0  0  0
   69.5158   52.1386   11.8061 S   0  0  0  0  0  0  0  0  0  0  0  0
   70.6371   51.4385   12.8593 C   0  0  0  0  0  0  0  0  0  0  0  0
   70.6989   51.9419   14.4997 Cl  0  0  0  0  0  0  0  0  0  0  0  0
   71.4261   50.4878   12.2656 C   0  0  0  0  0  0  0  0  0  0  0  0
  1  2  1  0
  2  3  2  0
  3  4  1  0
  4  5  2  0
  5  6  1  0
  6  7  2  0
  7 14  1  0
 14 15  2  0
 15 16  1  0
 16 17  1  0
 17 18  1  0
 17 19  2  0
  7  8  1  0
  8  9  2  0
  9 10  1  0
 10 11  2  0
 11  2  1  0
 10  5  1  0
 19 14  1  0
  1 12  1  0
  1 13  1  0
M  END
> <minimizedAffinity>
-6.42814

> <CNNscore>
0.4696844518

> <CNNaffinity>
4.4354615211

> <CNN_VS>
2.0832672119

> <CNNaffinity_variance>
0.8701713085

$$$$



 19 21  0  0  0  0  0  0  0  0999 V2000
   67.6694   52.3922   12.0602 N   0  0  0  0  0  0  0  0  0  0  0  0
   68.7300   51.6930   11.4897 C   0  0  0  0  0  0  0  0  0  0  0  0
   69.7919   51.2696   12.2703 C   0  0  0  0  0  0  0  0  0  0  0  0
   70.8208   50.5563   11.6657 C   0  0  0  0  0  0  0  0  0  0  0  0
   70.7563   50.2788   10.2965 C   0  0  0  0  0  0  0  0  0  0  0  0
   71.7703   49.5590    9.6360 C   0  0  0  0  0  0  0  0  0  0  0  0
   71.6796   49.2932    8.2650 C   0  0  0  0  0  0  0  0  0  0  0  0
   70.5667   49.7612    7.5631 C   0  0  0  0  0  0  0  0  0  0  0  0
   69.5614   50.4747    8.2272 C   0  0  0  0  0  0  0  0  0  0  0  0
   69.6320   50.7452    9.5862 C   0  0  0  0  0  0  0  0  0  0  0  0
   68.6398   51.4366   10.1745 N   0  0  0  0  0  0  0  0  0  0  0  0
   67.6819   52.6080   13.0207 H   0  0  0  0  0  0  0  0  0  0  0  0
   66.9070   52.6707   11.5030 H   0  0  0  0  0  0  0  0  0  0  0  0
   72.7275   48.5550    7.5688 C   0  0  0  0  0  0  0  0  0  0  0  0
   73.4761   47.5745    8.1982 C   0  0  0  0  0  0  0  0  0  0  0  0
   74.6310   46.8576    7.1510 S   0  0  0  0  0  0  0  0  0  0  0  0
   74.1310   47.8346    5.8656 C   0  0  0  0  0  0  0  0  0  0  0  0
   74.8903   47.6849    4.3328 Cl  0  0  0  0  0  0  0  0  0  0  0  0
   73.1147   48.6936    6.1942 C   0  0  0  0  0  0  0  0  0  0  0  0
  1  2  1  0
  2  3  2  0
  3  4  1  0
  4  5  2  0
  5  6  1  0
  6  7  2  0
  7 14  1  0
 14 15  2  0
 15 16  1  0
 16 17  1  0
 17 18  1  0
 17 19  2  0
  7  8  1  0
  8  9  2  0
  9 10  1  0
 10 11  2  0
 11  2  1  0
 10  5  1  0
 19 14  1  0
  1 12  1  0
  1 13  1  0
M  END
> <minimizedAffinity>
-6.03609

> <CNNscore>
0.4234574437

> <CNNaffinity>
4.6743030548

> <CNN_VS>
1.9793684483

> <CNNaffinity_variance>
0.1641512364

$$$$



 19 21  0  0  0  0  0  0  0  0999 V2000
   67.1028   51.8611   10.4327 N   0  0  0  0  0  0  0  0  0  0  0  0
   68.1966   51.0739   10.0818 C   0  0  0  0  0  0  0  0  0  0  0  0
   68.9393   50.4304   11.0567 C   0  0  0  0  0  0  0  0  0  0  0  0
   70.0110   49.6370   10.6629 C   0  0  0  0  0  0  0  0  0  0  0  0
   70.3068   49.5024    9.3027 C   0  0  0  0  0  0  0  0  0  0  0  0
   71.3794   48.7101    8.8507 C   0  0  0  0  0  0  0  0  0  0  0  0
   71.6519   48.5909    7.4831 C   0  0  0  0  0  0  0  0  0  0  0  0
   70.8432   49.2782    6.5755 C   0  0  0  0  0  0  0  0  0  0  0  0
   69.7772   50.0628    7.0324 C   0  0  0  0  0  0  0  0  0  0  0  0
   69.4895   50.1905    8.3837 C   0  0  0  0  0  0  0  0  0  0  0  0
   68.4549   50.9587    8.7689 N   0  0  0  0  0  0  0  0  0  0  0  0
   66.8665   51.9810   11.3809 H   0  0  0  0  0  0  0  0  0  0  0  0
   66.5657   52.2978    9.7326 H   0  0  0  0  0  0  0  0  0  0  0  0
   72.7649   47.7789    7.0038 C   0  0  0  0  0  0  0  0  0  0  0  0
   73.2347   47.8720    5.7044 C   0  0  0  0  0  0  0  0  0  0  0  0
   74.5546   46.8167    5.4070 S   0  0  0  0  0  0  0  0  0  0  0  0
   74.5108   46.2487    6.9983 C   0  0  0  0  0  0  0  0  0  0  0  0
   75.6363   45.0582    7.5121 Cl  0  0  0  0  0  0  0  0  0  0  0  0
   73.5286   46.8276    7.7592 C   0  0  0  0  0  0  0  0  0  0  0  0
  1  2  1  0
  2  3  2  0
  3  4  1  0
  4  5  2  0
  5  6  1  0
  6  7  2  0
  7 14  1  0
 14 15  2  0
 15 16  1  0
 16 17  1  0
 17 18  1  0
 17 19  2  0
  7  8  1  0
  8  9  2  0
  9 10  1  0
 10 11  2  0
 11  2  1  0
 10  5  1  0
 19 14  1  0
  1 12  1  0
  1 13  1  0
M  END
> <minimizedAffinity>
-5.46102

> <CNNscore>
0.4021024704

> <CNNaffinity>
4.6780972481

> <CNN_VS>
1.8810744286

> <CNNaffinity_variance>
0.8185153008

$$$$
