


 24 26  0  0  0  0  0  0  0  0999 V2000
    6.1060   10.6550    6.0138 C   0  0  0  0  0  0  0  0  0  0  0  0
    5.4830   10.1680    4.7373 C   0  0  0  0  0  0  0  0  0  0  0  0
    4.0940    9.9855    4.7882 C   0  0  0  0  0  0  0  0  0  0  0  0
    3.3169    9.6933    3.7352 N   0  0  0  0  0  0  0  0  0  0  0  0
    3.9465    9.6093    2.5536 C   0  0  0  0  0  0  0  0  0  0  0  0
    5.3213    9.7492    2.3650 C   0  0  0  0  0  0  0  0  0  0  0  0
    5.8081    9.6570    1.0514 C   0  0  0  0  0  0  0  0  0  0  0  0
    7.1601    9.7768    0.7863 C   0  0  0  0  0  0  0  0  0  0  0  0
    7.7326    9.6751   -0.8307 Cl  0  0  0  0  0  0  0  0  0  0  0  0
    8.0500    9.9386    1.8293 C   0  0  0  0  0  0  0  0  0  0  0  0
    7.5861   10.0020    3.1622 C   0  0  0  0  0  0  0  0  0  0  0  0
    6.1750    9.9804    3.4842 C   0  0  0  0  0  0  0  0  0  0  0  0
    8.9050    9.9325    4.3811 S   0  0  0  0  0  0  0  0  0  0  0  0
    9.0630   11.2633    4.9389 O   0  0  0  0  0  0  0  0  0  0  0  0
    8.6205    8.8165    5.2527 O   0  0  0  0  0  0  0  0  0  0  0  0
   10.3241    9.6578    3.4752 N   0  0  0  0  0  0  0  0  0  0  0  0
   11.4975   10.4964    3.8806 C   0  0  0  0  0  0  0  0  0  0  0  0
   12.3244   10.9160    2.6716 C   0  0  0  0  0  0  0  0  0  0  0  0
   12.9318    9.7614    1.8777 C   0  0  0  0  0  0  0  0  0  0  0  0
   11.9327    9.0868    1.0626 N   0  0  0  0  0  0  0  0  0  0  0  0
   11.1796    8.0302    1.7514 C   0  0  0  0  0  0  0  0  0  0  0  0
   10.7804    8.2283    3.2419 C   0  0  0  0  0  0  0  0  0  0  0  0
    9.7940    7.1288    3.6343 C   0  0  0  0  0  0  0  0  0  0  0  0
   12.4074    8.6672    0.2632 H   0  0  0  0  0  0  0  0  0  0  0  0
  1  2  1  0
  2  3  2  0
  3  4  1  0
  4  5  2  0
  5  6  1  0
  6  7  2  0
  7  8  1  0
  8  9  1  0
  8 10  2  0
 10 11  1  0
 11 13  1  0
 13 14  2  0
 13 15  2  0
 13 16  1  0
 16 17  1  0
 17 18  1  0
 18 19  1  0
 19 20  1  0
 20 21  1  0
 21 22  1  0
 22 23  1  0
 11 12  2  0
 12  2  1  0
 12  6  1  0
 22 16  1  0
 20 24  1  0
M  END
> <minimizedAffinity>
-9.42115

> <CNNscore>
0.9838501811

> <CNNaffinity>
7.0575847626

> <CNN_VS>
6.9436058998

> <CNNaffinity_variance>
0.1235516444

$$$$



 24 26  0  0  0  0  0  0  0  0999 V2000
    4.1981    9.2768    1.4085 C   0  0  0  0  0  0  0  0  0  0  0  0
    4.4059    9.7074    2.8319 C   0  0  0  0  0  0  0  0  0  0  0  0
    3.2362    9.8014    3.5989 C   0  0  0  0  0  0  0  0  0  0  0  0
    3.1981   10.0304    4.9195 N   0  0  0  0  0  0  0  0  0  0  0  0
    4.3901   10.1399    5.5252 C   0  0  0  0  0  0  0  0  0  0  0  0
    5.6258   10.0859    4.8809 C   0  0  0  0  0  0  0  0  0  0  0  0
    6.7773   10.1928    5.6769 C   0  0  0  0  0  0  0  0  0  0  0  0
    8.0376   10.1564    5.1089 C   0  0  0  0  0  0  0  0  0  0  0  0
    9.4338   10.2746    6.1037 Cl  0  0  0  0  0  0  0  0  0  0  0  0
    8.1676   10.0645    3.7376 C   0  0  0  0  0  0  0  0  0  0  0  0
    7.0224    9.9880    2.9140 C   0  0  0  0  0  0  0  0  0  0  0  0
    5.6853    9.9234    3.4649 C   0  0  0  0  0  0  0  0  0  0  0  0
    7.3900   10.1566    1.1628 S   0  0  0  0  0  0  0  0  0  0  0  0
    6.6209    9.1527    0.4502 O   0  0  0  0  0  0  0  0  0  0  0  0
    7.2348   11.5531    0.8280 O   0  0  0  0  0  0  0  0  0  0  0  0
    9.0161    9.6651    1.0076 N   0  0  0  0  0  0  0  0  0  0  0  0
    9.3690    8.4216    1.7649 C   0  0  0  0  0  0  0  0  0  0  0  0
   10.7744    8.5060    2.3475 C   0  0  0  0  0  0  0  0  0  0  0  0
   11.8890    8.6575    1.3146 C   0  0  0  0  0  0  0  0  0  0  0  0
   11.9423   10.0089    0.7773 N   0  0  0  0  0  0  0  0  0  0  0  0
   11.0475   10.2609   -0.3601 C   0  0  0  0  0  0  0  0  0  0  0  0
    9.6361    9.6070   -0.3774 C   0  0  0  0  0  0  0  0  0  0  0  0
    8.8224   10.2297   -1.5114 C   0  0  0  0  0  0  0  0  0  0  0  0
   12.8989   10.1911    0.4738 H   0  0  0  0  0  0  0  0  0  0  0  0
  1  2  1  0
  2  3  2  0
  3  4  1  0
  4  5  2  0
  5  6  1  0
  6  7  2  0
  7  8  1  0
  8  9  1  0
  8 10  2  0
 10 11  1  0
 11 13  1  0
 13 14  2  0
 13 15  2  0
 13 16  1  0
 16 17  1  0
 17 18  1  0
 18 19  1  0
 19 20  1  0
 20 21  1  0
 21 22  1  0
 22 23  1  0
 11 12  2  0
 12  2  1  0
 12  6  1  0
 22 16  1  0
 20 24  1  0
M  END
> <minimizedAffinity>
-8.69090

> <CNNscore>
0.9620881677

> <CNNaffinity>
6.8185887337

> <CNN_VS>
6.5600833893

> <CNNaffinity_variance>
0.2372544259

$$$$



 24 26  0  0  0  0  0  0  0  0999 V2000
    6.5807    9.2824    0.3967 C   0  0  0  0  0  0  0  0  0  0  0  0
    6.5244    9.8034    1.8038 C   0  0  0  0  0  0  0  0  0  0  0  0
    5.2424   10.1413    2.2593 C   0  0  0  0  0  0  0  0  0  0  0  0
    4.9403   10.4917    3.5179 N   0  0  0  0  0  0  0  0  0  0  0  0
    5.9618   10.4748    4.3872 C   0  0  0  0  0  0  0  0  0  0  0  0
    7.2856   10.1774    4.0644 C   0  0  0  0  0  0  0  0  0  0  0  0
    8.2241   10.1812    5.1085 C   0  0  0  0  0  0  0  0  0  0  0  0
    9.5569    9.9043    4.8648 C   0  0  0  0  0  0  0  0  0  0  0  0
   10.6861    9.9003    6.1601 Cl  0  0  0  0  0  0  0  0  0  0  0  0
    9.9818    9.6706    3.5722 C   0  0  0  0  0  0  0  0  0  0  0  0
    9.0607    9.6933    2.5013 C   0  0  0  0  0  0  0  0  0  0  0  0
    7.6414    9.8807    2.7152 C   0  0  0  0  0  0  0  0  0  0  0  0
    9.8445    9.6458    0.8846 S   0  0  0  0  0  0  0  0  0  0  0  0
    9.5497    8.3561    0.2873 O   0  0  0  0  0  0  0  0  0  0  0  0
    9.4722   10.8595    0.1955 O   0  0  0  0  0  0  0  0  0  0  0  0
   11.5186    9.6136    1.2106 N   0  0  0  0  0  0  0  0  0  0  0  0
   12.0780   10.8989    1.7393 C   0  0  0  0  0  0  0  0  0  0  0  0
   13.4758   11.1626    1.1930 C   0  0  0  0  0  0  0  0  0  0  0  0
   14.5178   10.1085    1.5609 C   0  0  0  0  0  0  0  0  0  0  0  0
   14.3519    8.8938    0.7769 N   0  0  0  0  0  0  0  0  0  0  0  0
   13.3892    7.9282    1.3236 C   0  0  0  0  0  0  0  0  0  0  0  0
   12.0898    8.4499    2.0015 C   0  0  0  0  0  0  0  0  0  0  0  0
   11.1527    7.2661    2.2389 C   0  0  0  0  0  0  0  0  0  0  0  0
   15.2596    8.4330    0.7115 H   0  0  0  0  0  0  0  0  0  0  0  0
  1  2  1  0
  2  3  2  0
  3  4  1  0
  4  5  2  0
  5  6  1  0
  6  7  2  0
  7  8  1  0
  8  9  1  0
  8 10  2  0
 10 11  1  0
 11 13  1  0
 13 14  2  0
 13 15  2  0
 13 16  1  0
 16 17  1  0
 17 18  1  0
 18 19  1  0
 19 20  1  0
 20 21  1  0
 21 22  1  0
 22 23  1  0
 11 12  2  0
 12  2  1  0
 12  6  1  0
 22 16  1  0
 20 24  1  0
M  END
> <minimizedAffinity>
-7.34434

> <CNNscore>
0.7728191018

> <CNNaffinity>
6.7811341286

> <CNN_VS>
5.2405900955

> <CNNaffinity_variance>
0.1450262815

$$$$



 24 26  0  0  0  0  0  0  0  0999 V2000
   10.6485   11.1857    3.7504 C   0  0  0  0  0  0  0  0  0  0  0  0
    9.2919   10.6745    4.1417 C   0  0  0  0  0  0  0  0  0  0  0  0
    9.0216   10.7051    5.5170 C   0  0  0  0  0  0  0  0  0  0  0  0
    7.8334   10.4302    6.0742 N   0  0  0  0  0  0  0  0  0  0  0  0
    6.8428   10.1399    5.2175 C   0  0  0  0  0  0  0  0  0  0  0  0
    6.9787   10.0561    3.8320 C   0  0  0  0  0  0  0  0  0  0  0  0
    5.8266    9.7660    3.0839 C   0  0  0  0  0  0  0  0  0  0  0  0
    5.8842    9.6584    1.7064 C   0  0  0  0  0  0  0  0  0  0  0  0
    4.4589    9.3168    0.8093 Cl  0  0  0  0  0  0  0  0  0  0  0  0
    7.0974    9.7873    1.0603 C   0  0  0  0  0  0  0  0  0  0  0  0
    8.2753   10.0476    1.7955 C   0  0  0  0  0  0  0  0  0  0  0  0
    8.2530   10.2661    3.2263 C   0  0  0  0  0  0  0  0  0  0  0  0
    9.7750    9.9024    0.8156 S   0  0  0  0  0  0  0  0  0  0  0  0
    9.4938    9.0109   -0.2949 O   0  0  0  0  0  0  0  0  0  0  0  0
   10.2473   11.2432    0.5595 O   0  0  0  0  0  0  0  0  0  0  0  0
   10.8658    9.0464    1.8091 N   0  0  0  0  0  0  0  0  0  0  0  0
   10.4301    7.6581    2.1658 C   0  0  0  0  0  0  0  0  0  0  0  0
   10.8240    7.3021    3.5940 C   0  0  0  0  0  0  0  0  0  0  0  0
   12.3264    7.3167    3.8677 C   0  0  0  0  0  0  0  0  0  0  0  0
   12.8382    8.6745    3.9783 N   0  0  0  0  0  0  0  0  0  0  0  0
   13.2079    9.3047    2.7038 C   0  0  0  0  0  0  0  0  0  0  0  0
   12.3393    9.0355    1.4416 C   0  0  0  0  0  0  0  0  0  0  0  0
   12.7700    9.9996    0.3368 C   0  0  0  0  0  0  0  0  0  0  0  0
   13.6669    8.6528    4.5726 H   0  0  0  0  0  0  0  0  0  0  0  0
  1  2  1  0
  2  3  2  0
  3  4  1  0
  4  5  2  0
  5  6  1  0
  6  7  2  0
  7  8  1  0
  8  9  1  0
  8 10  2  0
 10 11  1  0
 11 13  1  0
 13 14  2  0
 13 15  2  0
 13 16  1  0
 16 17  1  0
 17 18  1  0
 18 19  1  0
 19 20  1  0
 20 21  1  0
 21 22  1  0
 22 23  1  0
 11 12  2  0
 12  2  1  0
 12  6  1  0
 22 16  1  0
 20 24  1  0
M  END
> <minimizedAffinity>
-7.49986

> <CNNscore>
0.7426741719

> <CNNaffinity>
6.1630382538

> <CNN_VS>
4.5771293640

> <CNNaffinity_variance>
0.3633637726

$$$$



 24 26  0  0  0  0  0  0  0  0999 V2000
    8.0681   10.1268    6.1564 C   0  0  0  0  0  0  0  0  0  0  0  0
    7.2081   10.0383    4.9287 C   0  0  0  0  0  0  0  0  0  0  0  0
    5.8277   10.0903    5.1675 C   0  0  0  0  0  0  0  0  0  0  0  0
    4.8846   10.1678    4.2176 N   0  0  0  0  0  0  0  0  0  0  0  0
    5.3345   10.2316    2.9554 C   0  0  0  0  0  0  0  0  0  0  0  0
    6.6756   10.1705    2.5774 C   0  0  0  0  0  0  0  0  0  0  0  0
    6.9690   10.2792    1.2087 C   0  0  0  0  0  0  0  0  0  0  0  0
    8.2745   10.2190    0.7566 C   0  0  0  0  0  0  0  0  0  0  0  0
    8.6119   10.3687   -0.9217 Cl  0  0  0  0  0  0  0  0  0  0  0  0
    9.2999    9.9989    1.6544 C   0  0  0  0  0  0  0  0  0  0  0  0
    9.0254    9.8545    3.0326 C   0  0  0  0  0  0  0  0  0  0  0  0
    7.6891   10.0071    3.5678 C   0  0  0  0  0  0  0  0  0  0  0  0
   10.4430    9.3007    3.9885 S   0  0  0  0  0  0  0  0  0  0  0  0
   10.5672   10.1729    5.1422 O   0  0  0  0  0  0  0  0  0  0  0  0
   10.2991    7.8758    4.1764 O   0  0  0  0  0  0  0  0  0  0  0  0
   11.7956    9.6578    3.0124 N   0  0  0  0  0  0  0  0  0  0  0  0
   12.1772   11.1061    2.9773 C   0  0  0  0  0  0  0  0  0  0  0  0
   12.6610   11.5196    1.5929 C   0  0  0  0  0  0  0  0  0  0  0  0
   13.9042   10.7815    1.1008 C   0  0  0  0  0  0  0  0  0  0  0  0
   13.5898    9.4258    0.6755 N   0  0  0  0  0  0  0  0  0  0  0  0
   13.5920    8.4220    1.7481 C   0  0  0  0  0  0  0  0  0  0  0  0
   13.0465    8.8083    3.1529 C   0  0  0  0  0  0  0  0  0  0  0  0
   12.9130    7.5379    3.9920 C   0  0  0  0  0  0  0  0  0  0  0  0
   14.2792    9.1451   -0.0219 H   0  0  0  0  0  0  0  0  0  0  0  0
  1  2  1  0
  2  3  2  0
  3  4  1  0
  4  5  2  0
  5  6  1  0
  6  7  2  0
  7  8  1  0
  8  9  1  0
  8 10  2  0
 10 11  1  0
 11 13  1  0
 13 14  2  0
 13 15  2  0
 13 16  1  0
 16 17  1  0
 17 18  1  0
 18 19  1  0
 19 20  1  0
 20 21  1  0
 21 22  1  0
 22 23  1  0
 11 12  2  0
 12  2  1  0
 12  6  1  0
 22 16  1  0
 20 24  1  0
M  END
> <minimizedAffinity>
-8.89846

> <CNNscore>
0.6879763007

> <CNNaffinity>
6.8977122307

> <CNN_VS>
4.7454624176

> <CNNaffinity_variance>
0.2542629838

$$$$



 24 26  0  0  0  0  0  0  0  0999 V2000
   10.3137    9.6932    1.3554 C   0  0  0  0  0  0  0  0  0  0  0  0
    8.8564   10.0514    1.4095 C   0  0  0  0  0  0  0  0  0  0  0  0
    8.2155   10.1145    0.1643 C   0  0  0  0  0  0  0  0  0  0  0  0
    6.8968   10.2779   -0.0152 N   0  0  0  0  0  0  0  0  0  0  0  0
    6.1621   10.3500    1.1049 C   0  0  0  0  0  0  0  0  0  0  0  0
    6.6722   10.3204    2.4026 C   0  0  0  0  0  0  0  0  0  0  0  0
    5.7530   10.3807    3.4621 C   0  0  0  0  0  0  0  0  0  0  0  0
    6.1837   10.3647    4.7761 C   0  0  0  0  0  0  0  0  0  0  0  0
    5.0403   10.4249    6.0575 Cl  0  0  0  0  0  0  0  0  0  0  0  0
    7.5361   10.3402    5.0525 C   0  0  0  0  0  0  0  0  0  0  0  0
    8.4804   10.3116    4.0023 C   0  0  0  0  0  0  0  0  0  0  0  0
    8.0799   10.2279    2.6137 C   0  0  0  0  0  0  0  0  0  0  0  0
   10.1715   10.5645    4.5559 S   0  0  0  0  0  0  0  0  0  0  0  0
   10.7441   11.6323    3.7565 O   0  0  0  0  0  0  0  0  0  0  0  0
   10.1347   10.6840    5.9949 O   0  0  0  0  0  0  0  0  0  0  0  0
   11.0041    9.1545    4.0780 N   0  0  0  0  0  0  0  0  0  0  0  0
   12.4824    9.1887    4.3186 C   0  0  0  0  0  0  0  0  0  0  0  0
   13.2437    8.4908    3.1983 C   0  0  0  0  0  0  0  0  0  0  0  0
   12.9156    7.0093    3.0257 C   0  0  0  0  0  0  0  0  0  0  0  0
   11.6259    6.8173    2.3794 N   0  0  0  0  0  0  0  0  0  0  0  0
   10.4700    6.8221    3.2859 C   0  0  0  0  0  0  0  0  0  0  0  0
   10.4549    7.8014    4.4946 C   0  0  0  0  0  0  0  0  0  0  0  0
    9.0558    7.7974    5.1099 C   0  0  0  0  0  0  0  0  0  0  0  0
   11.6450    5.9195    1.8958 H   0  0  0  0  0  0  0  0  0  0  0  0
  1  2  1  0
  2  3  2  0
  3  4  1  0
  4  5  2  0
  5  6  1  0
  6  7  2  0
  7  8  1  0
  8  9  1  0
  8 10  2  0
 10 11  1  0
 11 13  1  0
 13 14  2  0
 13 15  2  0
 13 16  1  0
 16 17  1  0
 17 18  1  0
 18 19  1  0
 19 20  1  0
 20 21  1  0
 21 22  1  0
 22 23  1  0
 11 12  2  0
 12  2  1  0
 12  6  1  0
 22 16  1  0
 20 24  1  0
M  END
> <minimizedAffinity>
-7.03535

> <CNNscore>
0.6631625295

> <CNNaffinity>
6.2136535645

> <CNN_VS>
4.1206622124

> <CNNaffinity_variance>
0.0664437711

$$$$



 24 26  0  0  0  0  0  0  0  0999 V2000
   11.9026    9.6649    1.1434 C   0  0  0  0  0  0  0  0  0  0  0  0
   10.5239    9.9436    0.6179 C   0  0  0  0  0  0  0  0  0  0  0  0
   10.4157    9.9641   -0.7797 C   0  0  0  0  0  0  0  0  0  0  0  0
    9.2646   10.0545   -1.4613 N   0  0  0  0  0  0  0  0  0  0  0  0
    8.1494   10.0934   -0.7166 C   0  0  0  0  0  0  0  0  0  0  0  0
    8.1152   10.0995    0.6776 C   0  0  0  0  0  0  0  0  0  0  0  0
    6.8545   10.1162    1.2952 C   0  0  0  0  0  0  0  0  0  0  0  0
    6.7403   10.1317    2.6733 C   0  0  0  0  0  0  0  0  0  0  0  0
    5.1870   10.1375    3.4082 Cl  0  0  0  0  0  0  0  0  0  0  0  0
    7.8781   10.1824    3.4535 C   0  0  0  0  0  0  0  0  0  0  0  0
    9.1568   10.1988    2.8534 C   0  0  0  0  0  0  0  0  0  0  0  0
    9.3326   10.0850    1.4211 C   0  0  0  0  0  0  0  0  0  0  0  0
   10.4851   10.5467    4.0132 S   0  0  0  0  0  0  0  0  0  0  0  0
   11.2935   11.6144    3.4532 O   0  0  0  0  0  0  0  0  0  0  0  0
    9.8814   10.7089    5.3153 O   0  0  0  0  0  0  0  0  0  0  0  0
   11.4809    9.1625    3.9662 N   0  0  0  0  0  0  0  0  0  0  0  0
   12.7745    9.2966    4.7099 C   0  0  0  0  0  0  0  0  0  0  0  0
   13.9082    8.5811    3.9857 C   0  0  0  0  0  0  0  0  0  0  0  0
   13.7138    7.0755    3.8191 C   0  0  0  0  0  0  0  0  0  0  0  0
   12.7463    6.7719    2.7754 N   0  0  0  0  0  0  0  0  0  0  0  0
   11.3438    6.7613    3.2124 C   0  0  0  0  0  0  0  0  0  0  0  0
   10.8658    7.8058    4.2616 C   0  0  0  0  0  0  0  0  0  0  0  0
    9.3404    7.7556    4.3419 C   0  0  0  0  0  0  0  0  0  0  0  0
   12.9670    5.8504    2.3978 H   0  0  0  0  0  0  0  0  0  0  0  0
  1  2  1  0
  2  3  2  0
  3  4  1  0
  4  5  2  0
  5  6  1  0
  6  7  2  0
  7  8  1  0
  8  9  1  0
  8 10  2  0
 10 11  1  0
 11 13  1  0
 13 14  2  0
 13 15  2  0
 13 16  1  0
 16 17  1  0
 17 18  1  0
 18 19  1  0
 19 20  1  0
 20 21  1  0
 21 22  1  0
 22 23  1  0
 11 12  2  0
 12  2  1  0
 12  6  1  0
 22 16  1  0
 20 24  1  0
M  END
> <minimizedAffinity>
-7.81699

> <CNNscore>
0.4163550436

> <CNNaffinity>
5.8924431801

> <CNN_VS>
2.4533483982

> <CNNaffinity_variance>
0.2817344069

$$$$



 24 26  0  0  0  0  0  0  0  0999 V2000
    8.3216   10.9287    5.5541 C   0  0  0  0  0  0  0  0  0  0  0  0
    7.5835   10.4574    4.3344 C   0  0  0  0  0  0  0  0  0  0  0  0
    6.1927   10.3638    4.4831 C   0  0  0  0  0  0  0  0  0  0  0  0
    5.3286   10.1009    3.4921 N   0  0  0  0  0  0  0  0  0  0  0  0
    5.8690    9.9546    2.2730 C   0  0  0  0  0  0  0  0  0  0  0  0
    7.2335   10.0039    1.9888 C   0  0  0  0  0  0  0  0  0  0  0  0
    7.6223    9.8559    0.6479 C   0  0  0  0  0  0  0  0  0  0  0  0
    8.9576    9.8852    0.2896 C   0  0  0  0  0  0  0  0  0  0  0  0
    9.4102    9.7164   -1.3596 Cl  0  0  0  0  0  0  0  0  0  0  0  0
    9.9254   10.0107    1.2661 C   0  0  0  0  0  0  0  0  0  0  0  0
    9.5591   10.1288    2.6253 C   0  0  0  0  0  0  0  0  0  0  0  0
    8.1748   10.2024    3.0422 C   0  0  0  0  0  0  0  0  0  0  0  0
   10.9520    9.9998    3.7538 S   0  0  0  0  0  0  0  0  0  0  0  0
   11.3612   11.3468    4.1079 O   0  0  0  0  0  0  0  0  0  0  0  0
   10.5750    9.0669    4.7901 O   0  0  0  0  0  0  0  0  0  0  0  0
   12.2278    9.3814    2.8054 N   0  0  0  0  0  0  0  0  0  0  0  0
   11.9682    8.0309    2.2111 C   0  0  0  0  0  0  0  0  0  0  0  0
   13.2314    7.1789    2.1954 C   0  0  0  0  0  0  0  0  0  0  0  0
   14.3802    7.7501    1.3670 C   0  0  0  0  0  0  0  0  0  0  0  0
   15.0361    8.8552    2.0497 N   0  0  0  0  0  0  0  0  0  0  0  0
   14.4175   10.1708    1.8385 C   0  0  0  0  0  0  0  0  0  0  0  0
   12.8675   10.2792    1.7609 C   0  0  0  0  0  0  0  0  0  0  0  0
   12.4777   11.7564    1.8057 C   0  0  0  0  0  0  0  0  0  0  0  0
   16.0004    8.9026    1.7209 H   0  0  0  0  0  0  0  0  0  0  0  0
  1  2  1  0
  2  3  2  0
  3  4  1  0
  4  5  2  0
  5  6  1  0
  6  7  2  0
  7  8  1  0
  8  9  1  0
  8 10  2  0
 10 11  1  0
 11 13  1  0
 13 14  2  0
 13 15  2  0
 13 16  1  0
 16 17  1  0
 17 18  1  0
 18 19  1  0
 19 20  1  0
 20 21  1  0
 21 22  1  0
 22 23  1  0
 11 12  2  0
 12  2  1  0
 12  6  1  0
 22 16  1  0
 20 24  1  0
M  END
> <minimizedAffinity>
-7.56594

> <CNNscore>
0.3975743949

> <CNNaffinity>
6.4366831779

> <CNN_VS>
2.5590603352

> <CNNaffinity_variance>
0.0939031169

$$$$



 24 26  0  0  0  0  0  0  0  0999 V2000
    6.4017    9.2319    1.6524 C   0  0  0  0  0  0  0  0  0  0  0  0
    6.5291    9.8188    3.0287 C   0  0  0  0  0  0  0  0  0  0  0  0
    5.3341   10.3026    3.5792 C   0  0  0  0  0  0  0  0  0  0  0  0
    5.1877   10.7375    4.8391 N   0  0  0  0  0  0  0  0  0  0  0  0
    6.2811   10.6583    5.6123 C   0  0  0  0  0  0  0  0  0  0  0  0
    7.5339   10.2165    5.1878 C   0  0  0  0  0  0  0  0  0  0  0  0
    8.5637   10.1740    6.1411 C   0  0  0  0  0  0  0  0  0  0  0  0
    9.8349    9.7552    5.7933 C   0  0  0  0  0  0  0  0  0  0  0  0
   11.0768    9.6973    6.9797 Cl  0  0  0  0  0  0  0  0  0  0  0  0
   10.1108    9.4225    4.4822 C   0  0  0  0  0  0  0  0  0  0  0  0
    9.0984    9.4884    3.4992 C   0  0  0  0  0  0  0  0  0  0  0  0
    7.7300    9.8255    3.8300 C   0  0  0  0  0  0  0  0  0  0  0  0
    9.7168    9.2906    1.8233 S   0  0  0  0  0  0  0  0  0  0  0  0
    9.2396    8.0143    1.3230 O   0  0  0  0  0  0  0  0  0  0  0  0
    9.4037   10.5059    1.1081 O   0  0  0  0  0  0  0  0  0  0  0  0
   11.4026    9.0983    1.9987 N   0  0  0  0  0  0  0  0  0  0  0  0
   11.8468    7.6947    2.2762 C   0  0  0  0  0  0  0  0  0  0  0  0
   13.0196    7.6653    3.2484 C   0  0  0  0  0  0  0  0  0  0  0  0
   14.2781    8.3778    2.7573 C   0  0  0  0  0  0  0  0  0  0  0  0
   14.1416    9.8243    2.8383 N   0  0  0  0  0  0  0  0  0  0  0  0
   13.5025   10.4540    1.6751 C   0  0  0  0  0  0  0  0  0  0  0  0
   12.3239    9.7259    0.9674 C   0  0  0  0  0  0  0  0  0  0  0  0
   11.6751   10.6930   -0.0224 C   0  0  0  0  0  0  0  0  0  0  0  0
   15.0739   10.2247    2.9424 H   0  0  0  0  0  0  0  0  0  0  0  0
  1  2  1  0
  2  3  2  0
  3  4  1  0
  4  5  2  0
  5  6  1  0
  6  7  2  0
  7  8  1  0
  8  9  1  0
  8 10  2  0
 10 11  1  0
 11 13  1  0
 13 14  2  0
 13 15  2  0
 13 16  1  0
 16 17  1  0
 17 18  1  0
 18 19  1  0
 19 20  1  0
 20 21  1  0
 21 22  1  0
 22 23  1  0
 11 12  2  0
 12  2  1  0
 12  6  1  0
 22 16  1  0
 20 24  1  0
M  END
> <minimizedAffinity>
-7.98727

> <CNNscore>
0.3413263857

> <CNNaffinity>
6.4483871460

> <CNN_VS>
2.2010047436

> <CNNaffinity_variance>
0.0378624983

$$$$
