


 36 38  0  0  0  0  0  0  0  0999 V2000
   39.9935    4.1327   16.2493 C   0  0  0  0  0  0  0  0  0  0  0  0
   38.6169    4.0149   16.6841 O   0  0  0  0  0  0  0  0  0  0  0  0
   38.4176    5.0215   17.7392 C   0  0  0  0  0  0  0  0  0  0  0  0
   39.7180    5.8303   17.8434 C   0  0  0  0  0  0  0  0  0  0  0  0
   39.6748    6.9032   16.8905 O   0  0  0  0  0  0  0  0  0  0  0  0
   40.7459    4.8058   17.3965 C   0  0  0  0  0  0  0  0  0  0  0  0
   41.9567    5.3873   16.9483 O   0  0  0  0  0  0  0  0  0  0  0  0
   39.5051    6.5433   16.0059 H   0  0  0  0  0  0  0  0  0  0  0  0
   41.7699    6.0064   16.2253 H   0  0  0  0  0  0  0  0  0  0  0  0
   38.0358    4.3271   18.9522 N   0  0  0  0  0  0  0  0  0  0  0  0
   38.4707    3.1043   19.3881 C   0  0  0  0  0  0  0  0  0  0  0  0
   37.8432    2.7118   20.4746 N   0  0  0  0  0  0  0  0  0  0  0  0
   36.9894    3.7571   20.7857 C   0  0  0  0  0  0  0  0  0  0  0  0
   36.0668    3.9654   21.8238 C   0  0  0  0  0  0  0  0  0  0  0  0
   35.8073    3.0330   22.8180 N   0  0  0  0  0  0  0  0  0  0  0  0
   35.3891    5.1356   21.8515 N   0  0  0  0  0  0  0  0  0  0  0  0
   35.6113    6.0424   20.8760 C   0  0  0  0  0  0  0  0  0  0  0  0
   36.4501    5.9400   19.8219 N   0  0  0  0  0  0  0  0  0  0  0  0
   37.1086    4.7730   19.8509 C   0  0  0  0  0  0  0  0  0  0  0  0
   36.2857    2.1725   22.8229 H   0  0  0  0  0  0  0  0  0  0  0  0
   35.1447    3.2318   23.5185 H   0  0  0  0  0  0  0  0  0  0  0  0
   40.5546    2.7571   15.8798 C   0  0  0  0  0  0  0  0  0  0  0  0
   39.8974    2.2370   14.7087 O   0  0  0  0  0  0  0  0  0  0  0  0
   39.5473    0.8756   14.7884 C   0  0  0  0  0  0  0  0  0  0  0  0
   39.0991    0.2917   13.3988 N   0  0  0  0  0  0  0  0  0  0  0  0
   39.8900    1.1293   12.3774 C   0  0  0  0  0  0  0  0  0  0  0  0
   37.6175    0.6418   13.3055 C   0  0  0  0  0  0  0  0  0  0  0  0
   39.4673   -1.1722   13.4334 C   0  0  0  0  0  0  0  0  0  0  0  0
   38.4257   -2.3164   13.6724 N   0  0  0  0  0  0  0  0  0  0  0  0
   37.5417   -2.0257   14.8680 C   0  0  0  0  0  0  0  0  0  0  0  0
   39.1487   -3.6362   13.8689 C   0  0  0  0  0  0  0  0  0  0  0  0
   37.5782   -2.3392   12.3688 C   0  0  0  0  0  0  0  0  0  0  0  0
   36.7391   -4.6560   12.2492 C   0  0  0  0  0  0  0  0  0  0  0  0
   36.2971   -3.1420   12.2153 N   0  0  0  0  0  0  0  0  0  0  0  0
   35.5239   -2.9965   10.9092 C   0  0  0  0  0  0  0  0  0  0  0  0
   35.3176   -3.0114   13.3976 C   0  0  0  0  0  0  0  0  0  0  0  0
 33 34  1  0
 34 35  1  0
 34 36  1  0
 34 32  1  0
 32 29  1  0
 29 30  1  0
 29 31  1  0
 29 28  1  0
 28 25  1  0
 25 26  1  0
 25 27  1  0
 25 24  1  0
 24 23  1  0
 23 22  1  0
  1 22  1  0
  1  2  1  0
  2  3  1  0
  3 10  1  0
 10 11  1  0
 11 12  2  0
 12 13  1  0
 13 14  2  0
 14 15  1  0
 14 16  1  0
 16 17  2  0
 17 18  1  0
 18 19  2  0
  3  4  1  0
  4  5  1  0
  4  6  1  0
  6  7  1  0
  6  1  1  0
 19 10  1  0
 19 13  1  0
 15 20  1  0
 15 21  1  0
  5  8  1  0
  7  9  1  0
M  CHG 1  25   1
M  CHG 1  29   1
M  CHG 1  34   1
M  END
> <minimizedAffinity>
-6.16812

> <CNNscore>
0.6029183269

> <CNNaffinity>
4.8266582489

> <CNN_VS>
2.9100806713

> <CNNaffinity_variance>
0.8543561101

$$$$



 36 38  0  0  0  0  0  0  0  0999 V2000
   39.5301    5.0073   16.1289 C   0  0  0  0  0  0  0  0  0  0  0  0
   38.2123    4.6361   16.6018 O   0  0  0  0  0  0  0  0  0  0  0  0
   37.8779    5.5617   17.6961 C   0  0  0  0  0  0  0  0  0  0  0  0
   39.0190    6.5842   17.7876 C   0  0  0  0  0  0  0  0  0  0  0  0
   38.7535    7.6589   16.8735 O   0  0  0  0  0  0  0  0  0  0  0  0
   40.1938    5.7703   17.2746 C   0  0  0  0  0  0  0  0  0  0  0  0
   41.2667    6.5689   16.8093 O   0  0  0  0  0  0  0  0  0  0  0  0
   38.6175    7.2996   15.9828 H   0  0  0  0  0  0  0  0  0  0  0  0
   40.9479    7.1653   16.1139 H   0  0  0  0  0  0  0  0  0  0  0  0
   37.6683    4.7770   18.8960 N   0  0  0  0  0  0  0  0  0  0  0  0
   38.2458    3.5798   19.2239 C   0  0  0  0  0  0  0  0  0  0  0  0
   37.7548    3.0789   20.3357 N   0  0  0  0  0  0  0  0  0  0  0  0
   36.8440    4.0247   20.7763 C   0  0  0  0  0  0  0  0  0  0  0  0
   36.0031    4.0964   21.8989 C   0  0  0  0  0  0  0  0  0  0  0  0
   35.9161    3.0969   22.8573 N   0  0  0  0  0  0  0  0  0  0  0  0
   35.2307    5.1964   22.0498 N   0  0  0  0  0  0  0  0  0  0  0  0
   35.2846    6.1662   21.1117 C   0  0  0  0  0  0  0  0  0  0  0  0
   36.0315    6.1927   19.9863 N   0  0  0  0  0  0  0  0  0  0  0  0
   36.7896    5.0914   19.8936 C   0  0  0  0  0  0  0  0  0  0  0  0
   36.4666    2.2850   22.7732 H   0  0  0  0  0  0  0  0  0  0  0  0
   35.3040    3.1996   23.6215 H   0  0  0  0  0  0  0  0  0  0  0  0
   40.3102    3.7634   15.6957 C   0  0  0  0  0  0  0  0  0  0  0  0
   40.4350    3.7145   14.2619 O   0  0  0  0  0  0  0  0  0  0  0  0
   41.7127    4.0471   13.7726 C   0  0  0  0  0  0  0  0  0  0  0  0
   41.6651    4.5877   12.2967 N   0  0  0  0  0  0  0  0  0  0  0  0
   41.1051    3.4017   11.4902 C   0  0  0  0  0  0  0  0  0  0  0  0
   43.1294    4.8059   11.9301 C   0  0  0  0  0  0  0  0  0  0  0  0
   40.7692    5.8024   12.3356 C   0  0  0  0  0  0  0  0  0  0  0  0
   40.6299    6.8079   11.1436 N   0  0  0  0  0  0  0  0  0  0  0  0
   41.6453    7.9284   11.2369 C   0  0  0  0  0  0  0  0  0  0  0  0
   39.2246    7.3805   11.1164 C   0  0  0  0  0  0  0  0  0  0  0  0
   40.8982    5.9415    9.8804 C   0  0  0  0  0  0  0  0  0  0  0  0
   40.4675    7.9983    8.5880 C   0  0  0  0  0  0  0  0  0  0  0  0
   40.9862    6.5127    8.4749 N   0  0  0  0  0  0  0  0  0  0  0  0
   40.1101    5.8806    7.3989 C   0  0  0  0  0  0  0  0  0  0  0  0
   42.4219    6.6576    7.9346 C   0  0  0  0  0  0  0  0  0  0  0  0
 33 34  1  0
 34 35  1  0
 34 36  1  0
 34 32  1  0
 32 29  1  0
 29 30  1  0
 29 31  1  0
 29 28  1  0
 28 25  1  0
 25 26  1  0
 25 27  1  0
 25 24  1  0
 24 23  1  0
 23 22  1  0
  1 22  1  0
  1  2  1  0
  2  3  1  0
  3 10  1  0
 10 11  1  0
 11 12  2  0
 12 13  1  0
 13 14  2  0
 14 15  1  0
 14 16  1  0
 16 17  2  0
 17 18  1  0
 18 19  2  0
  3  4  1  0
  4  5  1  0
  4  6  1  0
  6  7  1  0
  6  1  1  0
 19 10  1  0
 19 13  1  0
 15 20  1  0
 15 21  1  0
  5  8  1  0
  7  9  1  0
M  CHG 1  25   1
M  CHG 1  29   1
M  CHG 1  34   1
M  END
> <minimizedAffinity>
-5.24904

> <CNNscore>
0.6006532311

> <CNNaffinity>
4.1945328712

> <CNN_VS>
2.5194597244

> <CNNaffinity_variance>
1.2722496986

$$$$



 36 38  0  0  0  0  0  0  0  0999 V2000
   41.6796    3.1049   11.7890 C   0  0  0  0  0  0  0  0  0  0  0  0
   41.2382    2.9285   10.4209 O   0  0  0  0  0  0  0  0  0  0  0  0
   42.2226    3.6113    9.5661 C   0  0  0  0  0  0  0  0  0  0  0  0
   43.3440    4.1173   10.4839 C   0  0  0  0  0  0  0  0  0  0  0  0
   44.3085    3.0686   10.6597 O   0  0  0  0  0  0  0  0  0  0  0  0
   42.5934    4.3297   11.7866 C   0  0  0  0  0  0  0  0  0  0  0  0
   43.4384    4.3450   12.9228 O   0  0  0  0  0  0  0  0  0  0  0  0
   43.8631    2.2710   10.9856 H   0  0  0  0  0  0  0  0  0  0  0  0
   43.9426    3.5173   12.9620 H   0  0  0  0  0  0  0  0  0  0  0  0
   41.5296    4.6468    8.8266 N   0  0  0  0  0  0  0  0  0  0  0  0
   40.3981    5.3235    9.1958 C   0  0  0  0  0  0  0  0  0  0  0  0
   39.9642    6.1222    8.2462 N   0  0  0  0  0  0  0  0  0  0  0  0
   40.8906    5.9912    7.2249 C   0  0  0  0  0  0  0  0  0  0  0  0
   41.0077    6.5794    5.9550 C   0  0  0  0  0  0  0  0  0  0  0  0
   40.0878    7.4812    5.4395 N   0  0  0  0  0  0  0  0  0  0  0  0
   42.0712    6.2428    5.1901 N   0  0  0  0  0  0  0  0  0  0  0  0
   42.9613    5.3464    5.6672 C   0  0  0  0  0  0  0  0  0  0  0  0
   42.9364    4.7021    6.8544 N   0  0  0  0  0  0  0  0  0  0  0  0
   41.8756    5.0834    7.5794 C   0  0  0  0  0  0  0  0  0  0  0  0
   39.3040    7.7446    5.9739 H   0  0  0  0  0  0  0  0  0  0  0  0
   40.2189    7.8578    4.5393 H   0  0  0  0  0  0  0  0  0  0  0  0
   40.4749    3.2481   12.7228 C   0  0  0  0  0  0  0  0  0  0  0  0
   40.9043    3.3816   14.0909 O   0  0  0  0  0  0  0  0  0  0  0  0
   39.8791    3.2340   15.0446 C   0  0  0  0  0  0  0  0  0  0  0  0
   40.2999    3.7696   16.4619 N   0  0  0  0  0  0  0  0  0  0  0  0
   41.2492    4.9393   16.1442 C   0  0  0  0  0  0  0  0  0  0  0  0
   41.0947    2.6215   17.0755 C   0  0  0  0  0  0  0  0  0  0  0  0
   39.0142    4.1691   17.1454 C   0  0  0  0  0  0  0  0  0  0  0  0
   38.8838    4.3520   18.6948 N   0  0  0  0  0  0  0  0  0  0  0  0
   40.0693    5.0995   19.2704 C   0  0  0  0  0  0  0  0  0  0  0  0
   38.7502    2.9957   19.3626 C   0  0  0  0  0  0  0  0  0  0  0  0
   37.5834    5.1860   18.8724 C   0  0  0  0  0  0  0  0  0  0  0  0
   36.7937    4.1024   20.9433 C   0  0  0  0  0  0  0  0  0  0  0  0
   36.9645    5.4966   20.2251 N   0  0  0  0  0  0  0  0  0  0  0  0
   35.5686    6.1100   20.2397 C   0  0  0  0  0  0  0  0  0  0  0  0
   37.8765    6.2975   21.1744 C   0  0  0  0  0  0  0  0  0  0  0  0
 33 34  1  0
 34 35  1  0
 34 36  1  0
 34 32  1  0
 32 29  1  0
 29 30  1  0
 29 31  1  0
 29 28  1  0
 28 25  1  0
 25 26  1  0
 25 27  1  0
 25 24  1  0
 24 23  1  0
 23 22  1  0
  1 22  1  0
  1  2  1  0
  2  3  1  0
  3 10  1  0
 10 11  1  0
 11 12  2  0
 12 13  1  0
 13 14  2  0
 14 15  1  0
 14 16  1  0
 16 17  2  0
 17 18  1  0
 18 19  2  0
  3  4  1  0
  4  5  1  0
  4  6  1  0
  6  7  1  0
  6  1  1  0
 19 10  1  0
 19 13  1  0
 15 20  1  0
 15 21  1  0
  5  8  1  0
  7  9  1  0
M  CHG 1  25   1
M  CHG 1  29   1
M  CHG 1  34   1
M  END
> <minimizedAffinity>
-5.04803

> <CNNscore>
0.5602247119

> <CNNaffinity>
3.8996093273

> <CNN_VS>
2.1846575737

> <CNNaffinity_variance>
1.0498670340

$$$$



 36 38  0  0  0  0  0  0  0  0999 V2000
   39.5982    4.4220   16.0281 C   0  0  0  0  0  0  0  0  0  0  0  0
   38.2576    4.2994   16.5624 O   0  0  0  0  0  0  0  0  0  0  0  0
   38.1463    5.2765   17.6575 C   0  0  0  0  0  0  0  0  0  0  0  0
   39.4570    6.0748   17.6855 C   0  0  0  0  0  0  0  0  0  0  0  0
   39.3502    7.1747   16.7692 O   0  0  0  0  0  0  0  0  0  0  0  0
   40.4403    5.0578   17.1334 C   0  0  0  0  0  0  0  0  0  0  0  0
   41.6182    5.6453   16.6112 O   0  0  0  0  0  0  0  0  0  0  0  0
   39.1113    6.8412   15.8902 H   0  0  0  0  0  0  0  0  0  0  0  0
   41.3820    6.2858   15.9222 H   0  0  0  0  0  0  0  0  0  0  0  0
   37.8519    4.5497   18.8759 N   0  0  0  0  0  0  0  0  0  0  0  0
   38.3522    3.3372   19.2681 C   0  0  0  0  0  0  0  0  0  0  0  0
   37.7954    2.9051   20.3778 N   0  0  0  0  0  0  0  0  0  0  0  0
   36.9215    3.9132   20.7495 C   0  0  0  0  0  0  0  0  0  0  0  0
   36.0460    4.0712   21.8362 C   0  0  0  0  0  0  0  0  0  0  0  0
   35.8712    3.1146   22.8258 N   0  0  0  0  0  0  0  0  0  0  0  0
   35.3289    5.2151   21.9183 N   0  0  0  0  0  0  0  0  0  0  0  0
   35.4684    6.1446   20.9487 C   0  0  0  0  0  0  0  0  0  0  0  0
   36.2555    6.0894   19.8521 N   0  0  0  0  0  0  0  0  0  0  0  0
   36.9562    4.9471   19.8277 C   0  0  0  0  0  0  0  0  0  0  0  0
   36.3799    2.2724   22.7918 H   0  0  0  0  0  0  0  0  0  0  0  0
   35.2384    3.2780   23.5621 H   0  0  0  0  0  0  0  0  0  0  0  0
   40.1192    3.0545   15.5785 C   0  0  0  0  0  0  0  0  0  0  0  0
   39.1315    2.3687   14.7861 O   0  0  0  0  0  0  0  0  0  0  0  0
   39.5981    1.9020   13.5423 C   0  0  0  0  0  0  0  0  0  0  0  0
   39.4599    0.3422   13.3994 N   0  0  0  0  0  0  0  0  0  0  0  0
   39.6274    0.0966   11.8888 C   0  0  0  0  0  0  0  0  0  0  0  0
   38.0178    0.0550   13.8046 C   0  0  0  0  0  0  0  0  0  0  0  0
   40.5540   -0.2449   14.2586 C   0  0  0  0  0  0  0  0  0  0  0  0
   40.6618   -1.7709   14.5915 N   0  0  0  0  0  0  0  0  0  0  0  0
   42.0958   -2.1859   14.8501 C   0  0  0  0  0  0  0  0  0  0  0  0
   40.0817   -2.5875   13.4512 C   0  0  0  0  0  0  0  0  0  0  0  0
   39.8107   -1.9409   15.8818 C   0  0  0  0  0  0  0  0  0  0  0  0
   39.0511   -1.1584   18.0947 C   0  0  0  0  0  0  0  0  0  0  0  0
   40.3214   -1.6064   17.2734 N   0  0  0  0  0  0  0  0  0  0  0  0
   41.2962   -0.4416   17.4076 C   0  0  0  0  0  0  0  0  0  0  0  0
   40.8683   -2.8139   18.0589 C   0  0  0  0  0  0  0  0  0  0  0  0
 33 34  1  0
 34 35  1  0
 34 36  1  0
 34 32  1  0
 32 29  1  0
 29 30  1  0
 29 31  1  0
 29 28  1  0
 28 25  1  0
 25 26  1  0
 25 27  1  0
 25 24  1  0
 24 23  1  0
 23 22  1  0
  1 22  1  0
  1  2  1  0
  2  3  1  0
  3 10  1  0
 10 11  1  0
 11 12  2  0
 12 13  1  0
 13 14  2  0
 14 15  1  0
 14 16  1  0
 16 17  2  0
 17 18  1  0
 18 19  2  0
  3  4  1  0
  4  5  1  0
  4  6  1  0
  6  7  1  0
  6  1  1  0
 19 10  1  0
 19 13  1  0
 15 20  1  0
 15 21  1  0
  5  8  1  0
  7  9  1  0
M  CHG 1  25   1
M  CHG 1  29   1
M  CHG 1  34   1
M  END
> <minimizedAffinity>
-5.48566

> <CNNscore>
0.5466767550

> <CNNaffinity>
4.4975876808

> <CNN_VS>
2.4587266445

> <CNNaffinity_variance>
1.0575559139

$$$$



 36 38  0  0  0  0  0  0  0  0999 V2000
   40.2314    4.2831   16.4681 C   0  0  0  0  0  0  0  0  0  0  0  0
   38.8623    3.9340   16.7866 O   0  0  0  0  0  0  0  0  0  0  0  0
   38.3726    4.9536   17.7282 C   0  0  0  0  0  0  0  0  0  0  0  0
   39.4841    6.0016   17.8776 C   0  0  0  0  0  0  0  0  0  0  0  0
   39.3439    6.9786   16.8351 O   0  0  0  0  0  0  0  0  0  0  0  0
   40.7236    5.1647   17.6151 C   0  0  0  0  0  0  0  0  0  0  0  0
   41.8469    5.9352   17.2282 O   0  0  0  0  0  0  0  0  0  0  0  0
   39.3363    6.5331   15.9734 H   0  0  0  0  0  0  0  0  0  0  0  0
   41.6258    6.4561   16.4403 H   0  0  0  0  0  0  0  0  0  0  0  0
   38.0006    4.2837   18.9579 N   0  0  0  0  0  0  0  0  0  0  0  0
   38.4443    3.0730   19.4180 C   0  0  0  0  0  0  0  0  0  0  0  0
   37.8245    2.7008   20.5159 N   0  0  0  0  0  0  0  0  0  0  0  0
   36.9667    3.7480   20.8087 C   0  0  0  0  0  0  0  0  0  0  0  0
   36.0482    3.9738   21.8468 C   0  0  0  0  0  0  0  0  0  0  0  0
   35.7987    3.0619   22.8623 N   0  0  0  0  0  0  0  0  0  0  0  0
   35.3643    5.1408   21.8527 N   0  0  0  0  0  0  0  0  0  0  0  0
   35.5767    6.0275   20.8567 C   0  0  0  0  0  0  0  0  0  0  0  0
   36.4106    5.9066   19.8006 N   0  0  0  0  0  0  0  0  0  0  0  0
   37.0756    4.7440   19.8515 C   0  0  0  0  0  0  0  0  0  0  0  0
   36.2818    2.2043   22.8834 H   0  0  0  0  0  0  0  0  0  0  0  0
   35.1386    3.2724   23.5617 H   0  0  0  0  0  0  0  0  0  0  0  0
   41.0713    3.0184   16.2711 C   0  0  0  0  0  0  0  0  0  0  0  0
   41.2189    2.7183   14.8704 O   0  0  0  0  0  0  0  0  0  0  0  0
   40.2625    1.8206   14.3587 C   0  0  0  0  0  0  0  0  0  0  0  0
   39.9680    2.0665   12.8338 N   0  0  0  0  0  0  0  0  0  0  0  0
   40.9381    1.1112   12.1148 C   0  0  0  0  0  0  0  0  0  0  0  0
   40.4042    3.5085   12.5956 C   0  0  0  0  0  0  0  0  0  0  0  0
   38.5060    1.7413   12.6429 C   0  0  0  0  0  0  0  0  0  0  0  0
   37.9629    0.2820   12.4795 N   0  0  0  0  0  0  0  0  0  0  0  0
   38.9397   -0.5959   11.7242 C   0  0  0  0  0  0  0  0  0  0  0  0
   36.6258    0.3091   11.7620 C   0  0  0  0  0  0  0  0  0  0  0  0
   37.7967   -0.2288   13.9389 C   0  0  0  0  0  0  0  0  0  0  0  0
   36.9616   -2.5415   13.7393 C   0  0  0  0  0  0  0  0  0  0  0  0
   38.1037   -1.6537   14.3687 N   0  0  0  0  0  0  0  0  0  0  0  0
   38.0568   -1.9677   15.8601 C   0  0  0  0  0  0  0  0  0  0  0  0
   39.4006   -2.2339   13.7724 C   0  0  0  0  0  0  0  0  0  0  0  0
 33 34  1  0
 34 35  1  0
 34 36  1  0
 34 32  1  0
 32 29  1  0
 29 30  1  0
 29 31  1  0
 29 28  1  0
 28 25  1  0
 25 26  1  0
 25 27  1  0
 25 24  1  0
 24 23  1  0
 23 22  1  0
  1 22  1  0
  1  2  1  0
  2  3  1  0
  3 10  1  0
 10 11  1  0
 11 12  2  0
 12 13  1  0
 13 14  2  0
 14 15  1  0
 14 16  1  0
 16 17  2  0
 17 18  1  0
 18 19  2  0
  3  4  1  0
  4  5  1  0
  4  6  1  0
  6  7  1  0
  6  1  1  0
 19 10  1  0
 19 13  1  0
 15 20  1  0
 15 21  1  0
  5  8  1  0
  7  9  1  0
M  CHG 1  25   1
M  CHG 1  29   1
M  CHG 1  34   1
M  END
> <minimizedAffinity>
-5.96612

> <CNNscore>
0.5091257691

> <CNNaffinity>
4.5650467873

> <CNN_VS>
2.3241829872

> <CNNaffinity_variance>
1.0703134537

$$$$



 36 38  0  0  0  0  0  0  0  0999 V2000
   39.9476    4.5537   16.2922 C   0  0  0  0  0  0  0  0  0  0  0  0
   38.5951    4.2122   16.6821 O   0  0  0  0  0  0  0  0  0  0  0  0
   38.1818    5.2011   17.6907 C   0  0  0  0  0  0  0  0  0  0  0  0
   39.3179    6.2263   17.8103 C   0  0  0  0  0  0  0  0  0  0  0  0
   39.1299    7.2453   16.8167 O   0  0  0  0  0  0  0  0  0  0  0  0
   40.5245    5.3825   17.4391 C   0  0  0  0  0  0  0  0  0  0  0  0
   41.6345    6.1514   17.0124 O   0  0  0  0  0  0  0  0  0  0  0  0
   39.0615    6.8341   15.9409 H   0  0  0  0  0  0  0  0  0  0  0  0
   41.3739    6.7059   16.2604 H   0  0  0  0  0  0  0  0  0  0  0  0
   37.8755    4.4889   18.9148 N   0  0  0  0  0  0  0  0  0  0  0  0
   38.3823    3.2877   19.3328 C   0  0  0  0  0  0  0  0  0  0  0  0
   37.8122    2.8656   20.4395 N   0  0  0  0  0  0  0  0  0  0  0  0
   36.9215    3.8693   20.7823 C   0  0  0  0  0  0  0  0  0  0  0  0
   36.0268    4.0334   21.8522 C   0  0  0  0  0  0  0  0  0  0  0  0
   35.8462    3.0893   22.8528 N   0  0  0  0  0  0  0  0  0  0  0  0
   35.2961    5.1703   21.9060 N   0  0  0  0  0  0  0  0  0  0  0  0
   35.4414    6.0872   20.9253 C   0  0  0  0  0  0  0  0  0  0  0  0
   36.2468    6.0248   19.8424 N   0  0  0  0  0  0  0  0  0  0  0  0
   36.9601    4.8901   19.8461 C   0  0  0  0  0  0  0  0  0  0  0  0
   36.3644    2.2523   22.8393 H   0  0  0  0  0  0  0  0  0  0  0  0
   35.1998    3.2564   23.5764 H   0  0  0  0  0  0  0  0  0  0  0  0
   40.7522    3.2858   15.9949 C   0  0  0  0  0  0  0  0  0  0  0  0
   40.7617    3.0085   14.5818 O   0  0  0  0  0  0  0  0  0  0  0  0
   40.1363    1.8011   14.2166 C   0  0  0  0  0  0  0  0  0  0  0  0
   39.7320    1.7734   12.6972 N   0  0  0  0  0  0  0  0  0  0  0  0
   40.3091    3.0878   12.1407 C   0  0  0  0  0  0  0  0  0  0  0  0
   38.2090    1.8529   12.7131 C   0  0  0  0  0  0  0  0  0  0  0  0
   40.3574    0.5210   12.1313 C   0  0  0  0  0  0  0  0  0  0  0  0
   41.8394    0.4490   11.6314 N   0  0  0  0  0  0  0  0  0  0  0  0
   42.8175    0.8075   12.7315 C   0  0  0  0  0  0  0  0  0  0  0  0
   42.0271    1.3777   10.4457 C   0  0  0  0  0  0  0  0  0  0  0  0
   42.0269   -1.0350   11.2063 C   0  0  0  0  0  0  0  0  0  0  0  0
   44.4863   -1.2285   11.2134 C   0  0  0  0  0  0  0  0  0  0  0  0
   43.1570   -1.9159   11.7125 N   0  0  0  0  0  0  0  0  0  0  0  0
   43.2366   -3.3412   11.1765 C   0  0  0  0  0  0  0  0  0  0  0  0
   43.3038   -1.9457   13.2461 C   0  0  0  0  0  0  0  0  0  0  0  0
 33 34  1  0
 34 35  1  0
 34 36  1  0
 34 32  1  0
 32 29  1  0
 29 30  1  0
 29 31  1  0
 29 28  1  0
 28 25  1  0
 25 26  1  0
 25 27  1  0
 25 24  1  0
 24 23  1  0
 23 22  1  0
  1 22  1  0
  1  2  1  0
  2  3  1  0
  3 10  1  0
 10 11  1  0
 11 12  2  0
 12 13  1  0
 13 14  2  0
 14 15  1  0
 14 16  1  0
 16 17  2  0
 17 18  1  0
 18 19  2  0
  3  4  1  0
  4  5  1  0
  4  6  1  0
  6  7  1  0
  6  1  1  0
 19 10  1  0
 19 13  1  0
 15 20  1  0
 15 21  1  0
  5  8  1  0
  7  9  1  0
M  CHG 1  25   1
M  CHG 1  29   1
M  CHG 1  34   1
M  END
> <minimizedAffinity>
-5.39902

> <CNNscore>
0.5072143674

> <CNNaffinity>
4.1207504272

> <CNN_VS>
2.0901038647

> <CNNaffinity_variance>
1.2905331850

$$$$



 36 38  0  0  0  0  0  0  0  0999 V2000
   39.4767    4.4228   16.0280 C   0  0  0  0  0  0  0  0  0  0  0  0
   38.1466    4.3868   16.6000 O   0  0  0  0  0  0  0  0  0  0  0  0
   38.1393    5.3443   17.7177 C   0  0  0  0  0  0  0  0  0  0  0  0
   39.5057    6.0435   17.7225 C   0  0  0  0  0  0  0  0  0  0  0  0
   39.4543    7.1688   16.8325 O   0  0  0  0  0  0  0  0  0  0  0  0
   40.3948    4.9700   17.1203 C   0  0  0  0  0  0  0  0  0  0  0  0
   41.5976    5.4811   16.5749 O   0  0  0  0  0  0  0  0  0  0  0  0
   39.1664    6.8737   15.9545 H   0  0  0  0  0  0  0  0  0  0  0  0
   41.3898    6.1527   15.9065 H   0  0  0  0  0  0  0  0  0  0  0  0
   37.8269    4.6138   18.9293 N   0  0  0  0  0  0  0  0  0  0  0  0
   38.3072    3.3915   19.3164 C   0  0  0  0  0  0  0  0  0  0  0  0
   37.7374    2.9600   20.4196 N   0  0  0  0  0  0  0  0  0  0  0  0
   36.8758    3.9782   20.7929 C   0  0  0  0  0  0  0  0  0  0  0  0
   35.9960    4.1415   21.8752 C   0  0  0  0  0  0  0  0  0  0  0  0
   35.8013    3.1809   22.8573 N   0  0  0  0  0  0  0  0  0  0  0  0
   35.2949    5.2950   21.9607 N   0  0  0  0  0  0  0  0  0  0  0  0
   35.4538    6.2289   20.9984 C   0  0  0  0  0  0  0  0  0  0  0  0
   36.2468    6.1697   19.9062 N   0  0  0  0  0  0  0  0  0  0  0  0
   36.9312    5.0177   19.8783 C   0  0  0  0  0  0  0  0  0  0  0  0
   36.2980    2.3317   22.8206 H   0  0  0  0  0  0  0  0  0  0  0  0
   35.1663    3.3485   23.5908 H   0  0  0  0  0  0  0  0  0  0  0  0
   39.8821    3.0313   15.5351 C   0  0  0  0  0  0  0  0  0  0  0  0
   39.2599    2.7381   14.2699 O   0  0  0  0  0  0  0  0  0  0  0  0
   39.8279    1.6538   13.5741 C   0  0  0  0  0  0  0  0  0  0  0  0
   40.9767    2.1051   12.5997 N   0  0  0  0  0  0  0  0  0  0  0  0
   41.1192    0.9195   11.6278 C   0  0  0  0  0  0  0  0  0  0  0  0
   42.2129    2.1850   13.4894 C   0  0  0  0  0  0  0  0  0  0  0  0
   40.4929    3.3864   11.9641 C   0  0  0  0  0  0  0  0  0  0  0  0
   41.4553    4.5106   11.4531 N   0  0  0  0  0  0  0  0  0  0  0  0
   41.6586    5.5889   12.4978 C   0  0  0  0  0  0  0  0  0  0  0  0
   40.9019    5.1198   10.1779 C   0  0  0  0  0  0  0  0  0  0  0  0
   42.7942    3.7698   11.1760 C   0  0  0  0  0  0  0  0  0  0  0  0
   45.2075    3.2656   11.0863 C   0  0  0  0  0  0  0  0  0  0  0  0
   44.1594    4.4194   11.3293 N   0  0  0  0  0  0  0  0  0  0  0  0
   44.5226    4.9868   12.6972 C   0  0  0  0  0  0  0  0  0  0  0  0
   44.4938    5.4632   10.2462 C   0  0  0  0  0  0  0  0  0  0  0  0
 33 34  1  0
 34 35  1  0
 34 36  1  0
 34 32  1  0
 32 29  1  0
 29 30  1  0
 29 31  1  0
 29 28  1  0
 28 25  1  0
 25 26  1  0
 25 27  1  0
 25 24  1  0
 24 23  1  0
 23 22  1  0
  1 22  1  0
  1  2  1  0
  2  3  1  0
  3 10  1  0
 10 11  1  0
 11 12  2  0
 12 13  1  0
 13 14  2  0
 14 15  1  0
 14 16  1  0
 16 17  2  0
 17 18  1  0
 18 19  2  0
  3  4  1  0
  4  5  1  0
  4  6  1  0
  6  7  1  0
  6  1  1  0
 19 10  1  0
 19 13  1  0
 15 20  1  0
 15 21  1  0
  5  8  1  0
  7  9  1  0
M  CHG 1  25   1
M  CHG 1  29   1
M  CHG 1  34   1
M  END
> <minimizedAffinity>
-5.02454

> <CNNscore>
0.4791127443

> <CNNaffinity>
4.0014533997

> <CNN_VS>
1.9171472788

> <CNNaffinity_variance>
1.2923688889

$$$$



 36 38  0  0  0  0  0  0  0  0999 V2000
   41.7109    2.9609   11.8489 C   0  0  0  0  0  0  0  0  0  0  0  0
   41.2367    2.8229   10.4873 O   0  0  0  0  0  0  0  0  0  0  0  0
   42.2163    3.5040    9.6257 C   0  0  0  0  0  0  0  0  0  0  0  0
   43.3673    3.9676   10.5292 C   0  0  0  0  0  0  0  0  0  0  0  0
   44.3137    2.8962   10.6616 O   0  0  0  0  0  0  0  0  0  0  0  0
   42.6494    4.1669   11.8523 C   0  0  0  0  0  0  0  0  0  0  0  0
   43.5189    4.1407   12.9697 O   0  0  0  0  0  0  0  0  0  0  0  0
   43.8591    2.1008   10.9803 H   0  0  0  0  0  0  0  0  0  0  0  0
   44.0067    3.3023   12.9803 H   0  0  0  0  0  0  0  0  0  0  0  0
   41.5289    4.5690    8.9237 N   0  0  0  0  0  0  0  0  0  0  0  0
   40.4534    5.2976    9.3559 C   0  0  0  0  0  0  0  0  0  0  0  0
   40.0013    6.1137    8.4298 N   0  0  0  0  0  0  0  0  0  0  0  0
   40.8587    5.9383    7.3563 C   0  0  0  0  0  0  0  0  0  0  0  0
   40.9273    6.5182    6.0790 C   0  0  0  0  0  0  0  0  0  0  0  0
   40.0209    7.4604    5.6145 N   0  0  0  0  0  0  0  0  0  0  0  0
   41.9273    6.1316    5.2544 N   0  0  0  0  0  0  0  0  0  0  0  0
   42.8021    5.1961    5.6822 C   0  0  0  0  0  0  0  0  0  0  0  0
   42.8179    4.5558    6.8718 N   0  0  0  0  0  0  0  0  0  0  0  0
   41.8203    4.9869    7.6562 C   0  0  0  0  0  0  0  0  0  0  0  0
   39.2829    7.7605    6.1930 H   0  0  0  0  0  0  0  0  0  0  0  0
   40.1157    7.8288    4.7065 H   0  0  0  0  0  0  0  0  0  0  0  0
   40.5299    3.1080   12.8117 C   0  0  0  0  0  0  0  0  0  0  0  0
   39.5908    2.0308   12.6340 O   0  0  0  0  0  0  0  0  0  0  0  0
   39.7288    0.9744   13.5545 C   0  0  0  0  0  0  0  0  0  0  0  0
   39.4327   -0.4266   12.9049 N   0  0  0  0  0  0  0  0  0  0  0  0
   40.7113   -0.7370   12.1053 C   0  0  0  0  0  0  0  0  0  0  0  0
   38.2824   -0.1570   11.9404 C   0  0  0  0  0  0  0  0  0  0  0  0
   39.1680   -1.3638   14.0588 C   0  0  0  0  0  0  0  0  0  0  0  0
   40.2147   -1.6601   15.1847 N   0  0  0  0  0  0  0  0  0  0  0  0
   39.9698   -0.8077   16.4130 C   0  0  0  0  0  0  0  0  0  0  0  0
   41.6177   -1.4213   14.6573 C   0  0  0  0  0  0  0  0  0  0  0  0
   39.9988   -3.1632   15.5203 C   0  0  0  0  0  0  0  0  0  0  0  0
   40.0569   -5.6096   15.2081 C   0  0  0  0  0  0  0  0  0  0  0  0
   39.8134   -4.2400   14.4642 N   0  0  0  0  0  0  0  0  0  0  0  0
   40.7912   -4.2587   13.2944 C   0  0  0  0  0  0  0  0  0  0  0  0
   38.3763   -4.3593   13.9212 C   0  0  0  0  0  0  0  0  0  0  0  0
 33 34  1  0
 34 35  1  0
 34 36  1  0
 34 32  1  0
 32 29  1  0
 29 30  1  0
 29 31  1  0
 29 28  1  0
 28 25  1  0
 25 26  1  0
 25 27  1  0
 25 24  1  0
 24 23  1  0
 23 22  1  0
  1 22  1  0
  1  2  1  0
  2  3  1  0
  3 10  1  0
 10 11  1  0
 11 12  2  0
 12 13  1  0
 13 14  2  0
 14 15  1  0
 14 16  1  0
 16 17  2  0
 17 18  1  0
 18 19  2  0
  3  4  1  0
  4  5  1  0
  4  6  1  0
  6  7  1  0
  6  1  1  0
 19 10  1  0
 19 13  1  0
 15 20  1  0
 15 21  1  0
  5  8  1  0
  7  9  1  0
M  CHG 1  25   1
M  CHG 1  29   1
M  CHG 1  34   1
M  END
> <minimizedAffinity>
-4.97470

> <CNNscore>
0.4228984118

> <CNNaffinity>
3.7592146397

> <CNN_VS>
1.5897659063

> <CNNaffinity_variance>
1.3136839867

$$$$



 36 38  0  0  0  0  0  0  0  0999 V2000
   39.5381    4.5727   16.0506 C   0  0  0  0  0  0  0  0  0  0  0  0
   38.1973    4.4097   16.5737 O   0  0  0  0  0  0  0  0  0  0  0  0
   38.0598    5.3575   17.6912 C   0  0  0  0  0  0  0  0  0  0  0  0
   39.3535    6.1817   17.7464 C   0  0  0  0  0  0  0  0  0  0  0  0
   39.2290    7.3010   16.8562 O   0  0  0  0  0  0  0  0  0  0  0  0
   40.3606    5.1988   17.1760 C   0  0  0  0  0  0  0  0  0  0  0  0
   41.5291    5.8228   16.6753 O   0  0  0  0  0  0  0  0  0  0  0  0
   39.0020    6.9840   15.9680 H   0  0  0  0  0  0  0  0  0  0  0  0
   41.2835    6.4748   16.0004 H   0  0  0  0  0  0  0  0  0  0  0  0
   37.7737    4.5957   18.8900 N   0  0  0  0  0  0  0  0  0  0  0  0
   38.2374    3.3506   19.2202 C   0  0  0  0  0  0  0  0  0  0  0  0
   37.6975    2.8971   20.3297 N   0  0  0  0  0  0  0  0  0  0  0  0
   36.8755    3.9227   20.7666 C   0  0  0  0  0  0  0  0  0  0  0  0
   36.0399    4.0715   21.8855 C   0  0  0  0  0  0  0  0  0  0  0  0
   35.8573    3.0845   22.8433 N   0  0  0  0  0  0  0  0  0  0  0  0
   35.3712    5.2379   22.0332 N   0  0  0  0  0  0  0  0  0  0  0  0
   35.5180    6.1984   21.0956 C   0  0  0  0  0  0  0  0  0  0  0  0
   36.2691    6.1560   19.9734 N   0  0  0  0  0  0  0  0  0  0  0  0
   36.9233    4.9896   19.8838 C   0  0  0  0  0  0  0  0  0  0  0  0
   36.3312    2.2254   22.7615 H   0  0  0  0  0  0  0  0  0  0  0  0
   35.2538    3.2432   23.6048 H   0  0  0  0  0  0  0  0  0  0  0  0
   40.0898    3.2275   15.5715 C   0  0  0  0  0  0  0  0  0  0  0  0
   39.5419    2.8814   14.2854 O   0  0  0  0  0  0  0  0  0  0  0  0
   40.3047    1.9512   13.5538 C   0  0  0  0  0  0  0  0  0  0  0  0
   41.1527    2.6346   12.4195 N   0  0  0  0  0  0  0  0  0  0  0  0
   41.3394    1.5163   11.3778 C   0  0  0  0  0  0  0  0  0  0  0  0
   42.4913    2.9391   13.0842 C   0  0  0  0  0  0  0  0  0  0  0  0
   40.3290    3.8074   11.9445 C   0  0  0  0  0  0  0  0  0  0  0  0
   40.9004    4.9507   11.0402 N   0  0  0  0  0  0  0  0  0  0  0  0
   39.8957    5.3905    9.9950 C   0  0  0  0  0  0  0  0  0  0  0  0
   42.1789    4.4838   10.3686 C   0  0  0  0  0  0  0  0  0  0  0  0
   41.1898    6.1129   12.0320 C   0  0  0  0  0  0  0  0  0  0  0  0
   40.8070    7.9769   13.6022 C   0  0  0  0  0  0  0  0  0  0  0  0
   40.1627    7.1667   12.4117 N   0  0  0  0  0  0  0  0  0  0  0  0
   38.8227    6.6840   12.9560 C   0  0  0  0  0  0  0  0  0  0  0  0
   39.9115    8.2317   11.3268 C   0  0  0  0  0  0  0  0  0  0  0  0
 33 34  1  0
 34 35  1  0
 34 36  1  0
 34 32  1  0
 32 29  1  0
 29 30  1  0
 29 31  1  0
 29 28  1  0
 28 25  1  0
 25 26  1  0
 25 27  1  0
 25 24  1  0
 24 23  1  0
 23 22  1  0
  1 22  1  0
  1  2  1  0
  2  3  1  0
  3 10  1  0
 10 11  1  0
 11 12  2  0
 12 13  1  0
 13 14  2  0
 14 15  1  0
 14 16  1  0
 16 17  2  0
 17 18  1  0
 18 19  2  0
  3  4  1  0
  4  5  1  0
  4  6  1  0
  6  7  1  0
  6  1  1  0
 19 10  1  0
 19 13  1  0
 15 20  1  0
 15 21  1  0
  5  8  1  0
  7  9  1  0
M  CHG 1  25   1
M  CHG 1  29   1
M  CHG 1  34   1
M  END
> <minimizedAffinity>
-5.02653

> <CNNscore>
0.3942463398

> <CNNaffinity>
4.0869917870

> <CNN_VS>
1.6112815142

> <CNNaffinity_variance>
1.1441372633

$$$$
