


 34 37  0  0  0  0  0  0  0  0999 V2000
   23.6950    7.0153   13.2878 C   0  0  0  0  0  0  0  0  0  0  0  0
   23.8918    6.9235   14.7382 N   0  0  0  0  0  0  0  0  0  0  0  0
   22.8575    6.7313   15.6175 C   0  0  0  0  0  0  0  0  0  0  0  0
   21.6629    6.6600   15.4021 O   0  0  0  0  0  0  0  0  0  0  0  0
   23.4543    6.5722   16.9411 C   0  0  0  0  0  0  0  0  0  0  0  0
   22.8621    6.4001   18.1763 C   0  0  0  0  0  0  0  0  0  0  0  0
   23.7141    6.2581   19.2782 C   0  0  0  0  0  0  0  0  0  0  0  0
   25.1228    6.2852   19.1218 C   0  0  0  0  0  0  0  0  0  0  0  0
   25.6940    6.4560   17.8517 C   0  0  0  0  0  0  0  0  0  0  0  0
   24.8273    6.5992   16.7847 C   0  0  0  0  0  0  0  0  0  0  0  0
   25.1035    6.7743   15.3609 C   0  0  0  0  0  0  0  0  0  0  0  0
   26.2223    6.7432   14.8864 O   0  0  0  0  0  0  0  0  0  0  0  0
   25.9591    6.1248   20.3366 C   0  0  0  0  0  0  0  0  0  0  0  0
   25.7125    6.5868   21.4343 O   0  0  0  0  0  0  0  0  0  0  0  0
   27.0628    5.3934   20.1108 O   0  0  0  0  0  0  0  0  0  0  0  0
   27.2296    5.0488   19.2556 H   0  0  0  0  0  0  0  0  0  0  0  0
   22.4418    6.2471   12.7896 C   0  0  0  0  0  0  0  0  0  0  0  0
   22.6022    5.3021   11.5453 C   0  0  0  0  0  0  0  0  0  0  0  0
   23.1075    3.9456   12.0847 C   0  0  0  0  0  0  0  0  0  0  0  0
   23.6699    5.8549   10.5849 C   0  0  0  0  0  0  0  0  0  0  0  0
   21.2249    5.1376   10.8373 C   0  0  0  0  0  0  0  0  0  0  0  0
   20.9844    4.3291    8.3989 C   0  0  0  0  0  0  0  0  0  0  0  0
   21.0928    5.5051    9.3527 C   0  0  0  0  0  0  0  0  0  0  0  0
   23.6539    8.5109   12.8756 C   0  0  0  0  0  0  0  0  0  0  0  0
   22.2565    9.0937   12.7657 C   0  0  0  0  0  0  0  0  0  0  0  0
   21.5324    8.8365   11.5871 C   0  0  0  0  0  0  0  0  0  0  0  0
   20.2554    9.3545   11.4073 C   0  0  0  0  0  0  0  0  0  0  0  0
   19.6793   10.1362   12.4036 C   0  0  0  0  0  0  0  0  0  0  0  0
   20.3670   10.4066   13.5953 C   0  0  0  0  0  0  0  0  0  0  0  0
   19.7619   11.1953   14.5882 C   0  0  0  0  0  0  0  0  0  0  0  0
   20.4202   11.4760   15.7835 C   0  0  0  0  0  0  0  0  0  0  0  0
   21.6926   10.9677   16.0023 C   0  0  0  0  0  0  0  0  0  0  0  0
   22.3070   10.1806   15.0251 C   0  0  0  0  0  0  0  0  0  0  0  0
   21.6703    9.8832   13.7969 C   0  0  0  0  0  0  0  0  0  0  0  0
 22 23  1  0
 23 21  1  0
 21 18  1  0
 18 19  1  0
 18 20  1  0
 18 17  1  0
  1 17  1  0
  1 24  1  0
 24 25  1  0
 25 26  2  0
 26 27  1  0
 27 28  2  0
 28 29  1  0
 29 30  2  0
 30 31  1  0
 31 32  2  0
 32 33  1  0
 33 34  2  0
  1  2  1  0
  2  3  1  0
  3  4  2  0
  3  5  1  0
  5  6  2  0
  6  7  1  0
  7  8  2  0
  8 13  1  0
 13 14  2  0
 13 15  1  0
  8  9  1  0
  9 10  2  0
 10 11  1  0
 11 12  2  0
 34 25  1  0
 11  2  1  0
 34 29  1  0
 10  5  1  0
 15 16  1  0
M  END
> <minimizedAffinity>
-8.06065

> <CNNscore>
0.5960228443

> <CNNaffinity>
5.6646881104

> <CNN_VS>
3.3762834072

> <CNNaffinity_variance>
0.1276425421

$$$$



 34 37  0  0  0  0  0  0  0  0999 V2000
   22.7042    7.1828   13.3135 C   0  0  0  0  0  0  0  0  0  0  0  0
   23.3295    7.2565   14.6380 N   0  0  0  0  0  0  0  0  0  0  0  0
   23.0423    8.2474   15.5410 C   0  0  0  0  0  0  0  0  0  0  0  0
   22.3170    9.2160   15.4211 O   0  0  0  0  0  0  0  0  0  0  0  0
   23.7579    7.9167   16.7706 C   0  0  0  0  0  0  0  0  0  0  0  0
   23.8485    8.6009   17.9663 C   0  0  0  0  0  0  0  0  0  0  0  0
   24.6097    8.0113   18.9828 C   0  0  0  0  0  0  0  0  0  0  0  0
   25.2512    6.7627   18.7855 C   0  0  0  0  0  0  0  0  0  0  0  0
   25.1350    6.0893   17.5601 C   0  0  0  0  0  0  0  0  0  0  0  0
   24.3820    6.6992   16.5746 C   0  0  0  0  0  0  0  0  0  0  0  0
   24.0620    6.2550   15.2201 C   0  0  0  0  0  0  0  0  0  0  0  0
   24.3861    5.1707   14.7763 O   0  0  0  0  0  0  0  0  0  0  0  0
   26.0374    6.2009   19.9112 C   0  0  0  0  0  0  0  0  0  0  0  0
   25.8980    6.4844   21.0857 O   0  0  0  0  0  0  0  0  0  0  0  0
   26.9591    5.3125   19.5046 O   0  0  0  0  0  0  0  0  0  0  0  0
   27.0462    5.1116   18.5936 H   0  0  0  0  0  0  0  0  0  0  0  0
   21.1610    7.3427   13.3546 C   0  0  0  0  0  0  0  0  0  0  0  0
   20.2913    6.0533   13.5732 C   0  0  0  0  0  0  0  0  0  0  0  0
   18.8394    6.5334   13.7923 C   0  0  0  0  0  0  0  0  0  0  0  0
   20.7397    5.3121   14.8450 C   0  0  0  0  0  0  0  0  0  0  0  0
   20.3885    5.1417   12.3144 C   0  0  0  0  0  0  0  0  0  0  0  0
   22.5418    3.7637   11.9651 C   0  0  0  0  0  0  0  0  0  0  0  0
   21.7358    4.9952   11.5931 C   0  0  0  0  0  0  0  0  0  0  0  0
   23.3662    8.2324   12.3815 C   0  0  0  0  0  0  0  0  0  0  0  0
   23.1777    7.9637   10.8994 C   0  0  0  0  0  0  0  0  0  0  0  0
   24.2561    7.3963   10.1962 C   0  0  0  0  0  0  0  0  0  0  0  0
   24.1635    7.1413    8.8331 C   0  0  0  0  0  0  0  0  0  0  0  0
   22.9905    7.4466    8.1503 C   0  0  0  0  0  0  0  0  0  0  0  0
   21.8918    8.0048    8.8192 C   0  0  0  0  0  0  0  0  0  0  0  0
   20.7167    8.3003    8.1081 C   0  0  0  0  0  0  0  0  0  0  0  0
   19.6085    8.8510    8.7481 C   0  0  0  0  0  0  0  0  0  0  0  0
   19.6608    9.1102   10.1102 C   0  0  0  0  0  0  0  0  0  0  0  0
   20.8218    8.8205   10.8314 C   0  0  0  0  0  0  0  0  0  0  0  0
   21.9679    8.2688   10.2112 C   0  0  0  0  0  0  0  0  0  0  0  0
 22 23  1  0
 23 21  1  0
 21 18  1  0
 18 19  1  0
 18 20  1  0
 18 17  1  0
  1 17  1  0
  1 24  1  0
 24 25  1  0
 25 26  2  0
 26 27  1  0
 27 28  2  0
 28 29  1  0
 29 30  2  0
 30 31  1  0
 31 32  2  0
 32 33  1  0
 33 34  2  0
  1  2  1  0
  2  3  1  0
  3  4  2  0
  3  5  1  0
  5  6  2  0
  6  7  1  0
  7  8  2  0
  8 13  1  0
 13 14  2  0
 13 15  1  0
  8  9  1  0
  9 10  2  0
 10 11  1  0
 11 12  2  0
 34 25  1  0
 11  2  1  0
 34 29  1  0
 10  5  1  0
 15 16  1  0
M  END
> <minimizedAffinity>
-7.50182

> <CNNscore>
0.5674870610

> <CNNaffinity>
5.3670563698

> <CNN_VS>
3.0457351208

> <CNNaffinity_variance>
0.2173479348

$$$$



 34 37  0  0  0  0  0  0  0  0999 V2000
   22.0990    6.9556   13.5164 C   0  0  0  0  0  0  0  0  0  0  0  0
   22.8592    6.7799   14.7583 N   0  0  0  0  0  0  0  0  0  0  0  0
   24.0172    7.4644   15.0235 C   0  0  0  0  0  0  0  0  0  0  0  0
   24.6301    8.2471   14.3234 O   0  0  0  0  0  0  0  0  0  0  0  0
   24.4077    7.1180   16.3877 C   0  0  0  0  0  0  0  0  0  0  0  0
   25.5126    7.4926   17.1259 C   0  0  0  0  0  0  0  0  0  0  0  0
   25.6021    7.0021   18.4342 C   0  0  0  0  0  0  0  0  0  0  0  0
   24.5939    6.1625   18.9711 C   0  0  0  0  0  0  0  0  0  0  0  0
   23.4799    5.8045   18.1968 C   0  0  0  0  0  0  0  0  0  0  0  0
   23.4228    6.2996   16.9077 C   0  0  0  0  0  0  0  0  0  0  0  0
   22.4050    6.1266   15.8741 C   0  0  0  0  0  0  0  0  0  0  0  0
   21.3592    5.5340   16.0558 O   0  0  0  0  0  0  0  0  0  0  0  0
   24.7582    5.6856   20.3662 C   0  0  0  0  0  0  0  0  0  0  0  0
   24.3528    4.6270   20.8070 O   0  0  0  0  0  0  0  0  0  0  0  0
   25.4223    6.5626   21.1369 O   0  0  0  0  0  0  0  0  0  0  0  0
   25.7241    7.3714   20.7728 H   0  0  0  0  0  0  0  0  0  0  0  0
   21.8854    5.6311   12.7361 C   0  0  0  0  0  0  0  0  0  0  0  0
   23.0375    5.1389   11.7887 C   0  0  0  0  0  0  0  0  0  0  0  0
   23.9673    4.2545   12.6488 C   0  0  0  0  0  0  0  0  0  0  0  0
   23.8620    6.3343   11.2797 C   0  0  0  0  0  0  0  0  0  0  0  0
   22.4283    4.3206   10.6121 C   0  0  0  0  0  0  0  0  0  0  0  0
   21.2170    4.2510    8.3351 C   0  0  0  0  0  0  0  0  0  0  0  0
   22.1024    5.0305    9.2906 C   0  0  0  0  0  0  0  0  0  0  0  0
   20.7522    7.6549   13.8411 C   0  0  0  0  0  0  0  0  0  0  0  0
   20.8938    9.0350   14.4572 C   0  0  0  0  0  0  0  0  0  0  0  0
   21.5430   10.0257   13.6979 C   0  0  0  0  0  0  0  0  0  0  0  0
   21.7273   11.3064   14.2050 C   0  0  0  0  0  0  0  0  0  0  0  0
   21.2634   11.6195   15.4787 C   0  0  0  0  0  0  0  0  0  0  0  0
   20.6040   10.6609   16.2612 C   0  0  0  0  0  0  0  0  0  0  0  0
   20.1410   11.0029   17.5428 C   0  0  0  0  0  0  0  0  0  0  0  0
   19.4786   10.0719   18.3401 C   0  0  0  0  0  0  0  0  0  0  0  0
   19.2678    8.7862   17.8631 C   0  0  0  0  0  0  0  0  0  0  0  0
   19.7211    8.4312   16.5900 C   0  0  0  0  0  0  0  0  0  0  0  0
   20.4045    9.3494   15.7579 C   0  0  0  0  0  0  0  0  0  0  0  0
 22 23  1  0
 23 21  1  0
 21 18  1  0
 18 19  1  0
 18 20  1  0
 18 17  1  0
  1 17  1  0
  1 24  1  0
 24 25  1  0
 25 26  2  0
 26 27  1  0
 27 28  2  0
 28 29  1  0
 29 30  2  0
 30 31  1  0
 31 32  2  0
 32 33  1  0
 33 34  2  0
  1  2  1  0
  2  3  1  0
  3  4  2  0
  3  5  1  0
  5  6  2  0
  6  7  1  0
  7  8  2  0
  8 13  1  0
 13 14  2  0
 13 15  1  0
  8  9  1  0
  9 10  2  0
 10 11  1  0
 11 12  2  0
 34 25  1  0
 11  2  1  0
 34 29  1  0
 10  5  1  0
 15 16  1  0
M  END
> <minimizedAffinity>
-7.64571

> <CNNscore>
0.5343895555

> <CNNaffinity>
5.4688324928

> <CNN_VS>
2.9224870205

> <CNNaffinity_variance>
0.1941480637

$$$$



 34 37  0  0  0  0  0  0  0  0999 V2000
   22.5118    6.7444   15.1124 C   0  0  0  0  0  0  0  0  0  0  0  0
   22.2427    6.2926   13.7433 N   0  0  0  0  0  0  0  0  0  0  0  0
   23.2158    6.2201   12.7802 C   0  0  0  0  0  0  0  0  0  0  0  0
   24.3874    6.5402   12.8394 O   0  0  0  0  0  0  0  0  0  0  0  0
   22.5975    5.6184   11.6016 C   0  0  0  0  0  0  0  0  0  0  0  0
   23.1179    5.3625   10.3487 C   0  0  0  0  0  0  0  0  0  0  0  0
   22.2692    4.7513    9.4179 C   0  0  0  0  0  0  0  0  0  0  0  0
   20.9365    4.4083    9.7581 C   0  0  0  0  0  0  0  0  0  0  0  0
   20.4390    4.6764   11.0424 C   0  0  0  0  0  0  0  0  0  0  0  0
   21.2987    5.2854   11.9370 C   0  0  0  0  0  0  0  0  0  0  0  0
   21.0915    5.6745   13.3298 C   0  0  0  0  0  0  0  0  0  0  0  0
   20.0759    5.4278   13.9506 O   0  0  0  0  0  0  0  0  0  0  0  0
   20.0997    3.7603    8.7185 C   0  0  0  0  0  0  0  0  0  0  0  0
   19.0199    3.2320    8.9039 O   0  0  0  0  0  0  0  0  0  0  0  0
   20.6617    3.8079    7.4996 O   0  0  0  0  0  0  0  0  0  0  0  0
   21.4948    4.2209    7.3836 H   0  0  0  0  0  0  0  0  0  0  0  0
   23.2206    8.1238   15.1743 C   0  0  0  0  0  0  0  0  0  0  0  0
   22.3604    9.4083   14.8965 C   0  0  0  0  0  0  0  0  0  0  0  0
   20.9379    8.9183   14.5460 C   0  0  0  0  0  0  0  0  0  0  0  0
   22.9104   10.1699   13.6777 C   0  0  0  0  0  0  0  0  0  0  0  0
   22.3388   10.3042   16.1701 C   0  0  0  0  0  0  0  0  0  0  0  0
   20.5383   12.1233   16.4965 C   0  0  0  0  0  0  0  0  0  0  0  0
   20.9910   10.7036   16.7869 C   0  0  0  0  0  0  0  0  0  0  0  0
   21.1845    6.7437   15.9164 C   0  0  0  0  0  0  0  0  0  0  0  0
   21.3582    6.5761   17.4151 C   0  0  0  0  0  0  0  0  0  0  0  0
   20.2726    6.9210   18.2410 C   0  0  0  0  0  0  0  0  0  0  0  0
   20.3659    6.8132   19.6235 C   0  0  0  0  0  0  0  0  0  0  0  0
   21.5448    6.3562   20.2038 C   0  0  0  0  0  0  0  0  0  0  0  0
   22.6446    5.9948   19.4125 C   0  0  0  0  0  0  0  0  0  0  0  0
   23.8226    5.5320   20.0222 C   0  0  0  0  0  0  0  0  0  0  0  0
   24.9288    5.1619   19.2604 C   0  0  0  0  0  0  0  0  0  0  0  0
   24.8690    5.2469   17.8768 C   0  0  0  0  0  0  0  0  0  0  0  0
   23.7039    5.7038   17.2556 C   0  0  0  0  0  0  0  0  0  0  0  0
   22.5656    6.0956   17.9994 C   0  0  0  0  0  0  0  0  0  0  0  0
 22 23  1  0
 23 21  1  0
 21 18  1  0
 18 19  1  0
 18 20  1  0
 18 17  1  0
  1 17  1  0
  1 24  1  0
 24 25  1  0
 25 26  2  0
 26 27  1  0
 27 28  2  0
 28 29  1  0
 29 30  2  0
 30 31  1  0
 31 32  2  0
 32 33  1  0
 33 34  2  0
  1  2  1  0
  2  3  1  0
  3  4  2  0
  3  5  1  0
  5  6  2  0
  6  7  1  0
  7  8  2  0
  8 13  1  0
 13 14  2  0
 13 15  1  0
  8  9  1  0
  9 10  2  0
 10 11  1  0
 11 12  2  0
 34 25  1  0
 11  2  1  0
 34 29  1  0
 10  5  1  0
 15 16  1  0
M  END
> <minimizedAffinity>
-7.16019

> <CNNscore>
0.5198089480

> <CNNaffinity>
5.6251301765

> <CNN_VS>
2.9239931107

> <CNNaffinity_variance>
0.1179491803

$$$$



 34 37  0  0  0  0  0  0  0  0999 V2000
   22.7072    6.6051   13.3047 C   0  0  0  0  0  0  0  0  0  0  0  0
   23.3048    6.3611   14.6216 N   0  0  0  0  0  0  0  0  0  0  0  0
   24.5725    6.7679   14.9490 C   0  0  0  0  0  0  0  0  0  0  0  0
   25.4106    7.3163   14.2595 O   0  0  0  0  0  0  0  0  0  0  0  0
   24.7617    6.4582   16.3638 C   0  0  0  0  0  0  0  0  0  0  0  0
   25.8660    6.6195   17.1765 C   0  0  0  0  0  0  0  0  0  0  0  0
   25.7329    6.2380   18.5171 C   0  0  0  0  0  0  0  0  0  0  0  0
   24.5113    5.7152   19.0108 C   0  0  0  0  0  0  0  0  0  0  0  0
   23.4049    5.5691   18.1604 C   0  0  0  0  0  0  0  0  0  0  0  0
   23.5690    5.9490   16.8417 C   0  0  0  0  0  0  0  0  0  0  0  0
   22.6207    5.9359   15.7304 C   0  0  0  0  0  0  0  0  0  0  0  0
   21.4505    5.6300   15.8515 O   0  0  0  0  0  0  0  0  0  0  0  0
   24.4473    5.3364   20.4438 C   0  0  0  0  0  0  0  0  0  0  0  0
   25.0963    5.8398   21.3409 O   0  0  0  0  0  0  0  0  0  0  0  0
   23.5724    4.3443   20.6770 O   0  0  0  0  0  0  0  0  0  0  0  0
   23.0847    3.9735   19.9681 H   0  0  0  0  0  0  0  0  0  0  0  0
   21.7115    7.7956   13.2946 C   0  0  0  0  0  0  0  0  0  0  0  0
   22.2470    9.2089   13.7221 C   0  0  0  0  0  0  0  0  0  0  0  0
   23.5941    9.4084   12.9928 C   0  0  0  0  0  0  0  0  0  0  0  0
   22.5207    9.2443   15.2360 C   0  0  0  0  0  0  0  0  0  0  0  0
   21.2219   10.3023   13.2995 C   0  0  0  0  0  0  0  0  0  0  0  0
   21.3605   12.6575   14.3439 C   0  0  0  0  0  0  0  0  0  0  0  0
   20.6992   11.2911   14.3510 C   0  0  0  0  0  0  0  0  0  0  0  0
   23.8403    6.7947   12.2613 C   0  0  0  0  0  0  0  0  0  0  0  0
   23.4086    6.5874   10.8208 C   0  0  0  0  0  0  0  0  0  0  0  0
   23.9414    7.4533    9.8483 C   0  0  0  0  0  0  0  0  0  0  0  0
   23.5761    7.3365    8.5125 C   0  0  0  0  0  0  0  0  0  0  0  0
   22.6741    6.3506    8.1256 C   0  0  0  0  0  0  0  0  0  0  0  0
   22.1290    5.4638    9.0651 C   0  0  0  0  0  0  0  0  0  0  0  0
   21.2232    4.4738    8.6487 C   0  0  0  0  0  0  0  0  0  0  0  0
   20.6698    3.5768    9.5598 C   0  0  0  0  0  0  0  0  0  0  0  0
   21.0188    3.6568   10.9003 C   0  0  0  0  0  0  0  0  0  0  0  0
   21.9194    4.6350   11.3297 C   0  0  0  0  0  0  0  0  0  0  0  0
   22.4933    5.5667   10.4326 C   0  0  0  0  0  0  0  0  0  0  0  0
 22 23  1  0
 23 21  1  0
 21 18  1  0
 18 19  1  0
 18 20  1  0
 18 17  1  0
  1 17  1  0
  1 24  1  0
 24 25  1  0
 25 26  2  0
 26 27  1  0
 27 28  2  0
 28 29  1  0
 29 30  2  0
 30 31  1  0
 31 32  2  0
 32 33  1  0
 33 34  2  0
  1  2  1  0
  2  3  1  0
  3  4  2  0
  3  5  1  0
  5  6  2  0
  6  7  1  0
  7  8  2  0
  8 13  1  0
 13 14  2  0
 13 15  1  0
  8  9  1  0
  9 10  2  0
 10 11  1  0
 11 12  2  0
 34 25  1  0
 11  2  1  0
 34 29  1  0
 10  5  1  0
 15 16  1  0
M  END
> <minimizedAffinity>
-8.36111

> <CNNscore>
0.5034962296

> <CNNaffinity>
5.7175412178

> <CNN_VS>
2.8787603378

> <CNNaffinity_variance>
0.1109369174

$$$$



 34 37  0  0  0  0  0  0  0  0999 V2000
   22.4508    6.7558   13.4890 C   0  0  0  0  0  0  0  0  0  0  0  0
   22.9048    6.7165   14.8830 N   0  0  0  0  0  0  0  0  0  0  0  0
   22.0391    6.6837   15.9456 C   0  0  0  0  0  0  0  0  0  0  0  0
   20.8242    6.7331   15.9547 O   0  0  0  0  0  0  0  0  0  0  0  0
   22.8539    6.5272   17.1477 C   0  0  0  0  0  0  0  0  0  0  0  0
   22.4887    6.4838   18.4784 C   0  0  0  0  0  0  0  0  0  0  0  0
   23.5132    6.3050   19.4158 C   0  0  0  0  0  0  0  0  0  0  0  0
   24.8635    6.1694   19.0064 C   0  0  0  0  0  0  0  0  0  0  0  0
   25.2017    6.2120   17.6453 C   0  0  0  0  0  0  0  0  0  0  0  0
   24.1694    6.3953   16.7447 C   0  0  0  0  0  0  0  0  0  0  0  0
   24.1908    6.4669   15.2858 C   0  0  0  0  0  0  0  0  0  0  0  0
   25.1927    6.2893   14.6207 O   0  0  0  0  0  0  0  0  0  0  0  0
   25.8921    5.9798   20.0586 C   0  0  0  0  0  0  0  0  0  0  0  0
   25.8145    6.3745   21.2065 O   0  0  0  0  0  0  0  0  0  0  0  0
   26.9657    5.3053   19.6157 O   0  0  0  0  0  0  0  0  0  0  0  0
   27.0007    5.0121   18.7264 H   0  0  0  0  0  0  0  0  0  0  0  0
   21.8630    5.4061   12.9976 C   0  0  0  0  0  0  0  0  0  0  0  0
   22.5351    4.7170   11.7565 C   0  0  0  0  0  0  0  0  0  0  0  0
   21.4075    4.4571   10.7330 C   0  0  0  0  0  0  0  0  0  0  0  0
   23.1323    3.3561   12.1556 C   0  0  0  0  0  0  0  0  0  0  0  0
   23.6169    5.6645   11.1591 C   0  0  0  0  0  0  0  0  0  0  0  0
   24.3588    7.3400    9.3427 C   0  0  0  0  0  0  0  0  0  0  0  0
   23.4555    6.1805    9.7224 C   0  0  0  0  0  0  0  0  0  0  0  0
   21.4384    7.9196   13.3185 C   0  0  0  0  0  0  0  0  0  0  0  0
   20.1608    7.5392   12.5922 C   0  0  0  0  0  0  0  0  0  0  0  0
   19.1293    6.9533   13.3487 C   0  0  0  0  0  0  0  0  0  0  0  0
   17.9391    6.5605   12.7479 C   0  0  0  0  0  0  0  0  0  0  0  0
   17.7588    6.7491   11.3814 C   0  0  0  0  0  0  0  0  0  0  0  0
   18.7609    7.3377   10.5968 C   0  0  0  0  0  0  0  0  0  0  0  0
   18.5529    7.5212    9.2195 C   0  0  0  0  0  0  0  0  0  0  0  0
   19.5293    8.1074    8.4169 C   0  0  0  0  0  0  0  0  0  0  0  0
   20.7264    8.5210    8.9836 C   0  0  0  0  0  0  0  0  0  0  0  0
   20.9475    8.3466   10.3522 C   0  0  0  0  0  0  0  0  0  0  0  0
   19.9808    7.7475   11.1942 C   0  0  0  0  0  0  0  0  0  0  0  0
 22 23  1  0
 23 21  1  0
 21 18  1  0
 18 19  1  0
 18 20  1  0
 18 17  1  0
  1 17  1  0
  1 24  1  0
 24 25  1  0
 25 26  2  0
 26 27  1  0
 27 28  2  0
 28 29  1  0
 29 30  2  0
 30 31  1  0
 31 32  2  0
 32 33  1  0
 33 34  2  0
  1  2  1  0
  2  3  1  0
  3  4  2  0
  3  5  1  0
  5  6  2  0
  6  7  1  0
  7  8  2  0
  8 13  1  0
 13 14  2  0
 13 15  1  0
  8  9  1  0
  9 10  2  0
 10 11  1  0
 11 12  2  0
 34 25  1  0
 11  2  1  0
 34 29  1  0
 10  5  1  0
 15 16  1  0
M  END
> <minimizedAffinity>
-7.78679

> <CNNscore>
0.4634847045

> <CNNaffinity>
5.5924811363

> <CNN_VS>
2.5920295715

> <CNNaffinity_variance>
0.1091869771

$$$$



 34 37  0  0  0  0  0  0  0  0999 V2000
   19.7627    5.4761    9.7121 C   0  0  0  0  0  0  0  0  0  0  0  0
   18.3868    5.1015    9.3690 N   0  0  0  0  0  0  0  0  0  0  0  0
   18.0778    3.9530    8.6869 C   0  0  0  0  0  0  0  0  0  0  0  0
   18.8177    3.1100    8.2173 O   0  0  0  0  0  0  0  0  0  0  0  0
   16.6203    3.8686    8.6434 C   0  0  0  0  0  0  0  0  0  0  0  0
   15.7940    2.9403    8.0422 C   0  0  0  0  0  0  0  0  0  0  0  0
   14.4139    3.1222    8.1925 C   0  0  0  0  0  0  0  0  0  0  0  0
   13.8968    4.2122    8.9368 C   0  0  0  0  0  0  0  0  0  0  0  0
   14.7634    5.1356    9.5409 C   0  0  0  0  0  0  0  0  0  0  0  0
   16.1198    4.9326    9.3699 C   0  0  0  0  0  0  0  0  0  0  0  0
   17.2596    5.6931    9.8764 C   0  0  0  0  0  0  0  0  0  0  0  0
   17.1516    6.6383   10.6331 O   0  0  0  0  0  0  0  0  0  0  0  0
   12.4230    4.3357    9.0537 C   0  0  0  0  0  0  0  0  0  0  0  0
   11.8271    4.9076    9.9465 O   0  0  0  0  0  0  0  0  0  0  0  0
   11.7728    3.7341    8.0441 O   0  0  0  0  0  0  0  0  0  0  0  0
   12.2556    3.3002    7.3684 H   0  0  0  0  0  0  0  0  0  0  0  0
   20.2152    6.8102    9.0608 C   0  0  0  0  0  0  0  0  0  0  0  0
   21.5650    6.8186    8.2579 C   0  0  0  0  0  0  0  0  0  0  0  0
   21.2200    7.2700    6.8213 C   0  0  0  0  0  0  0  0  0  0  0  0
   22.1513    5.3981    8.1777 C   0  0  0  0  0  0  0  0  0  0  0  0
   22.5604    7.8124    8.9260 C   0  0  0  0  0  0  0  0  0  0  0  0
   25.0576    7.8547    8.2782 C   0  0  0  0  0  0  0  0  0  0  0  0
   23.9917    7.3511    9.2347 C   0  0  0  0  0  0  0  0  0  0  0  0
   19.9077    5.5124   11.2568 C   0  0  0  0  0  0  0  0  0  0  0  0
   21.3423    5.5077   11.7531 C   0  0  0  0  0  0  0  0  0  0  0  0
   22.0488    4.2923   11.6969 C   0  0  0  0  0  0  0  0  0  0  0  0
   23.3590    4.2072   12.1526 C   0  0  0  0  0  0  0  0  0  0  0  0
   23.9862    5.3362   12.6697 C   0  0  0  0  0  0  0  0  0  0  0  0
   23.3169    6.5667   12.7336 C   0  0  0  0  0  0  0  0  0  0  0  0
   23.9735    7.6935   13.2563 C   0  0  0  0  0  0  0  0  0  0  0  0
   23.3343    8.9293   13.3275 C   0  0  0  0  0  0  0  0  0  0  0  0
   22.0294    9.0545   12.8729 C   0  0  0  0  0  0  0  0  0  0  0  0
   21.3635    7.9434   12.3491 C   0  0  0  0  0  0  0  0  0  0  0  0
   21.9801    6.6723   12.2700 C   0  0  0  0  0  0  0  0  0  0  0  0
 22 23  1  0
 23 21  1  0
 21 18  1  0
 18 19  1  0
 18 20  1  0
 18 17  1  0
  1 17  1  0
  1 24  1  0
 24 25  1  0
 25 26  2  0
 26 27  1  0
 27 28  2  0
 28 29  1  0
 29 30  2  0
 30 31  1  0
 31 32  2  0
 32 33  1  0
 33 34  2  0
  1  2  1  0
  2  3  1  0
  3  4  2  0
  3  5  1  0
  5  6  2  0
  6  7  1  0
  7  8  2  0
  8 13  1  0
 13 14  2  0
 13 15  1  0
  8  9  1  0
  9 10  2  0
 10 11  1  0
 11 12  2  0
 34 25  1  0
 11  2  1  0
 34 29  1  0
 10  5  1  0
 15 16  1  0
M  END
> <minimizedAffinity>
-7.02482

> <CNNscore>
0.4424979389

> <CNNaffinity>
5.5498652458

> <CNN_VS>
2.4558038712

> <CNNaffinity_variance>
0.0532665849

$$$$



 34 37  0  0  0  0  0  0  0  0999 V2000
   21.5285    7.3770   13.7860 C   0  0  0  0  0  0  0  0  0  0  0  0
   22.4832    7.1006   14.8645 N   0  0  0  0  0  0  0  0  0  0  0  0
   23.6146    7.8486   15.0649 C   0  0  0  0  0  0  0  0  0  0  0  0
   24.0520    8.7782   14.4143 O   0  0  0  0  0  0  0  0  0  0  0  0
   24.2368    7.3510   16.2890 C   0  0  0  0  0  0  0  0  0  0  0  0
   25.4123    7.7214   16.9113 C   0  0  0  0  0  0  0  0  0  0  0  0
   25.7399    7.0608   18.1015 C   0  0  0  0  0  0  0  0  0  0  0  0
   24.8921    6.0604   18.6399 C   0  0  0  0  0  0  0  0  0  0  0  0
   23.7008    5.7106   17.9863 C   0  0  0  0  0  0  0  0  0  0  0  0
   23.4078    6.3761   16.8109 C   0  0  0  0  0  0  0  0  0  0  0  0
   22.2573    6.2546   15.9188 C   0  0  0  0  0  0  0  0  0  0  0  0
   21.2991    5.5444   16.1537 O   0  0  0  0  0  0  0  0  0  0  0  0
   25.3059    5.4080   19.9065 C   0  0  0  0  0  0  0  0  0  0  0  0
   24.5696    5.1226   20.8315 O   0  0  0  0  0  0  0  0  0  0  0  0
   26.6230    5.1483   19.9472 O   0  0  0  0  0  0  0  0  0  0  0  0
   27.1686    5.3783   19.2210 H   0  0  0  0  0  0  0  0  0  0  0  0
   20.9115    6.0931   13.1698 C   0  0  0  0  0  0  0  0  0  0  0  0
   21.3467    5.6903   11.7154 C   0  0  0  0  0  0  0  0  0  0  0  0
   21.7842    6.9931   11.0099 C   0  0  0  0  0  0  0  0  0  0  0  0
   20.1516    5.1115   10.9379 C   0  0  0  0  0  0  0  0  0  0  0  0
   22.5274    4.6774   11.7885 C   0  0  0  0  0  0  0  0  0  0  0  0
   24.6571    4.7503   13.2432 C   0  0  0  0  0  0  0  0  0  0  0  0
   23.9585    5.2013   11.9731 C   0  0  0  0  0  0  0  0  0  0  0  0
   20.4352    8.3444   14.3126 C   0  0  0  0  0  0  0  0  0  0  0  0
   19.0125    7.9031   14.0202 C   0  0  0  0  0  0  0  0  0  0  0  0
   18.3509    7.1403   15.0000 C   0  0  0  0  0  0  0  0  0  0  0  0
   17.0546    6.6839   14.7933 C   0  0  0  0  0  0  0  0  0  0  0  0
   16.3966    6.9843   13.6049 C   0  0  0  0  0  0  0  0  0  0  0  0
   17.0207    7.7493   12.6092 C   0  0  0  0  0  0  0  0  0  0  0  0
   16.3334    8.0429   11.4195 C   0  0  0  0  0  0  0  0  0  0  0  0
   16.9274    8.8046   10.4154 C   0  0  0  0  0  0  0  0  0  0  0  0
   18.2170    9.2857   10.5907 C   0  0  0  0  0  0  0  0  0  0  0  0
   18.9128    9.0034   11.7690 C   0  0  0  0  0  0  0  0  0  0  0  0
   18.3426    8.2261   12.8049 C   0  0  0  0  0  0  0  0  0  0  0  0
 22 23  1  0
 23 21  1  0
 21 18  1  0
 18 19  1  0
 18 20  1  0
 18 17  1  0
  1 17  1  0
  1 24  1  0
 24 25  1  0
 25 26  2  0
 26 27  1  0
 27 28  2  0
 28 29  1  0
 29 30  2  0
 30 31  1  0
 31 32  2  0
 32 33  1  0
 33 34  2  0
  1  2  1  0
  2  3  1  0
  3  4  2  0
  3  5  1  0
  5  6  2  0
  6  7  1  0
  7  8  2  0
  8 13  1  0
 13 14  2  0
 13 15  1  0
  8  9  1  0
  9 10  2  0
 10 11  1  0
 11 12  2  0
 34 25  1  0
 11  2  1  0
 34 29  1  0
 10  5  1  0
 15 16  1  0
M  END
> <minimizedAffinity>
-7.08265

> <CNNscore>
0.4367277920

> <CNNaffinity>
5.4765534401

> <CNN_VS>
2.3917632103

> <CNNaffinity_variance>
0.2274590731

$$$$



 34 37  0  0  0  0  0  0  0  0999 V2000
   22.6443    6.1652   13.7694 C   0  0  0  0  0  0  0  0  0  0  0  0
   23.1717    6.3150   15.1298 N   0  0  0  0  0  0  0  0  0  0  0  0
   22.4075    6.1098   16.2495 C   0  0  0  0  0  0  0  0  0  0  0  0
   21.2252    5.8403   16.3398 O   0  0  0  0  0  0  0  0  0  0  0  0
   23.3021    6.2314   17.3976 C   0  0  0  0  0  0  0  0  0  0  0  0
   23.0381    6.1600   18.7508 C   0  0  0  0  0  0  0  0  0  0  0  0
   24.1253    6.3018   19.6216 C   0  0  0  0  0  0  0  0  0  0  0  0
   25.4378    6.5037   19.1256 C   0  0  0  0  0  0  0  0  0  0  0  0
   25.6743    6.5658   17.7440 C   0  0  0  0  0  0  0  0  0  0  0  0
   24.5805    6.4281   16.9104 C   0  0  0  0  0  0  0  0  0  0  0  0
   24.4987    6.4304   15.4518 C   0  0  0  0  0  0  0  0  0  0  0  0
   25.4723    6.4881   14.7261 O   0  0  0  0  0  0  0  0  0  0  0  0
   26.5384    6.6419   20.1109 C   0  0  0  0  0  0  0  0  0  0  0  0
   27.3792    5.7988   20.3589 O   0  0  0  0  0  0  0  0  0  0  0  0
   26.5263    7.8311   20.7351 O   0  0  0  0  0  0  0  0  0  0  0  0
   25.8673    8.4634   20.5257 H   0  0  0  0  0  0  0  0  0  0  0  0
   21.7940    7.3776   13.3049 C   0  0  0  0  0  0  0  0  0  0  0  0
   22.2413    8.8116   13.7638 C   0  0  0  0  0  0  0  0  0  0  0  0
   21.4374    9.8177   12.9106 C   0  0  0  0  0  0  0  0  0  0  0  0
   23.7353    9.0291   13.4662 C   0  0  0  0  0  0  0  0  0  0  0  0
   21.9262    8.9942   15.2778 C   0  0  0  0  0  0  0  0  0  0  0  0
   21.8095   11.3533   16.3163 C   0  0  0  0  0  0  0  0  0  0  0  0
   22.6354   10.1044   16.0660 C   0  0  0  0  0  0  0  0  0  0  0  0
   23.8211    5.8827   12.7980 C   0  0  0  0  0  0  0  0  0  0  0  0
   23.4607    5.9892   11.3273 C   0  0  0  0  0  0  0  0  0  0  0  0
   24.1794    6.9108   10.5438 C   0  0  0  0  0  0  0  0  0  0  0  0
   23.8908    7.0776    9.1946 C   0  0  0  0  0  0  0  0  0  0  0  0
   22.8809    6.3242    8.6048 C   0  0  0  0  0  0  0  0  0  0  0  0
   22.1492    5.3898    9.3517 C   0  0  0  0  0  0  0  0  0  0  0  0
   21.1369    4.6380    8.7321 C   0  0  0  0  0  0  0  0  0  0  0  0
   20.3974    3.6996    9.4488 C   0  0  0  0  0  0  0  0  0  0  0  0
   20.6640    3.4989   10.7955 C   0  0  0  0  0  0  0  0  0  0  0  0
   21.6686    4.2378   11.4256 C   0  0  0  0  0  0  0  0  0  0  0  0
   22.4326    5.2044   10.7295 C   0  0  0  0  0  0  0  0  0  0  0  0
 22 23  1  0
 23 21  1  0
 21 18  1  0
 18 19  1  0
 18 20  1  0
 18 17  1  0
  1 17  1  0
  1 24  1  0
 24 25  1  0
 25 26  2  0
 26 27  1  0
 27 28  2  0
 28 29  1  0
 29 30  2  0
 30 31  1  0
 31 32  2  0
 32 33  1  0
 33 34  2  0
  1  2  1  0
  2  3  1  0
  3  4  2  0
  3  5  1  0
  5  6  2  0
  6  7  1  0
  7  8  2  0
  8 13  1  0
 13 14  2  0
 13 15  1  0
  8  9  1  0
  9 10  2  0
 10 11  1  0
 11 12  2  0
 34 25  1  0
 11  2  1  0
 34 29  1  0
 10  5  1  0
 15 16  1  0
M  END
> <minimizedAffinity>
-8.89800

> <CNNscore>
0.3906075954

> <CNNaffinity>
5.5431694984

> <CNN_VS>
2.1652040482

> <CNNaffinity_variance>
0.2428449988

$$$$
