


 41 45  0  0  0  0  0  0  0  0999 V2000
   11.8952   47.5233   61.2981 C   0  0  0  0  0  0  0  0  0  0  0  0
   11.0978   46.6060   62.0258 C   0  0  0  0  0  0  0  0  0  0  0  0
   11.4908   46.1987   63.3214 C   0  0  0  0  0  0  0  0  0  0  0  0
   12.6542   46.6987   63.9064 C   0  0  0  0  0  0  0  0  0  0  0  0
   13.0726   46.2705   65.1249 O   0  0  0  0  0  0  0  0  0  0  0  0
   13.4153   47.6159   63.2199 C   0  0  0  0  0  0  0  0  0  0  0  0
   13.0405   48.0049   61.9261 C   0  0  0  0  0  0  0  0  0  0  0  0
   13.9481   48.8988   61.3910 O   0  0  0  0  0  0  0  0  0  0  0  0
   14.8431   49.2211   62.4016 C   0  0  0  0  0  0  0  0  0  0  0  0
   15.5280   50.3718   62.4299 C   0  0  0  0  0  0  0  0  0  0  0  0
   16.1410   50.7809   63.6760 C   0  0  0  0  0  0  0  0  0  0  0  0
   17.1062   51.7569   63.5796 O   0  0  0  0  0  0  0  0  0  0  0  0
   15.7360   50.2726   64.8559 C   0  0  0  0  0  0  0  0  0  0  0  0
   14.6962   49.1923   64.8290 C   0  0  0  0  0  0  0  0  0  0  0  0
   13.9034   49.0895   65.7637 O   0  0  0  0  0  0  0  0  0  0  0  0
   14.7054   48.2865   63.5928 C   0  0  0  0  0  0  0  0  0  0  0  0
   15.8563   47.2772   63.6658 C   0  0  0  0  0  0  0  0  0  0  0  0
   12.5629   45.6459   65.6025 H   0  0  0  0  0  0  0  0  0  0  0  0
   17.3596   52.0838   62.7389 H   0  0  0  0  0  0  0  0  0  0  0  0
   11.0840   47.0781   59.0320 N   0  0  0  0  0  0  0  0  0  0  0  0
   11.5755   48.0076   59.9168 C   0  0  0  0  0  0  0  0  0  0  0  0
   11.7500   49.1773   59.5923 O   0  0  0  0  0  0  0  0  0  0  0  0
   11.0191   46.1372   59.3144 H   0  0  0  0  0  0  0  0  0  0  0  0
   10.6605   47.4405   57.7019 C   0  0  0  0  0  0  0  0  0  0  0  0
    8.8962   49.2673   57.4960 C   0  0  0  0  0  0  0  0  0  0  0  0
    7.5498   49.6514   57.4841 C   0  0  0  0  0  0  0  0  0  0  0  0
    6.5328   48.7238   57.7007 C   0  0  0  0  0  0  0  0  0  0  0  0
    6.8226   47.3801   57.9462 C   0  0  0  0  0  0  0  0  0  0  0  0
    5.7743   46.4745   58.1824 C   0  0  0  0  0  0  0  0  0  0  0  0
    6.0302   45.1312   58.4433 C   0  0  0  0  0  0  0  0  0  0  0  0
    7.3402   44.6791   58.4744 C   0  0  0  0  0  0  0  0  0  0  0  0
    8.3909   45.5701   58.2379 C   0  0  0  0  0  0  0  0  0  0  0  0
    8.1684   46.9415   57.9592 C   0  0  0  0  0  0  0  0  0  0  0  0
    9.2108   47.8930   57.7026 C   0  0  0  0  0  0  0  0  0  0  0  0
   10.2804   50.7251   55.8404 C   0  0  0  0  0  0  0  0  0  0  0  0
   10.0007   50.2883   57.2748 C   0  0  0  0  0  0  0  0  0  0  0  0
   16.3320   50.7077   66.1358 C   0  0  0  0  0  0  0  0  0  0  0  0
   15.8530   51.9964   66.7493 C   0  0  0  0  0  0  0  0  0  0  0  0
   17.2084   50.0260   66.6671 O   0  0  0  0  0  0  0  0  0  0  0  0
    9.9565   46.1421   61.4152 O   0  0  0  0  0  0  0  0  0  0  0  0
    9.7044   44.7425   61.4225 C   0  0  0  0  0  0  0  0  0  0  0  0
 35 36  1  0
 36 25  1  0
 25 26  2  0
 26 27  1  0
 27 28  2  0
 28 29  1  0
 29 30  2  0
 30 31  1  0
 31 32  2  0
 32 33  1  0
 33 34  2  0
 34 24  1  0
 24 20  1  0
 20 21  1  0
 21 22  2  0
 21  1  1  0
  1  2  2  0
  2 40  1  0
 40 41  1  0
  2  3  1  0
  3  4  2  0
  4  5  1  0
  4  6  1  0
  6  7  2  0
  7  8  1  0
  8  9  1  0
  9 10  2  0
 10 11  1  0
 11 12  1  0
 11 13  2  0
 13 37  1  0
 37 38  1  0
 37 39  2  0
 13 14  1  0
 14 15  2  0
 14 16  1  0
 16 17  1  0
 34 25  1  0
  7  1  1  0
 16  9  1  0
 33 28  1  0
 16  6  1  0
 20 23  1  0
  5 18  1  0
 12 19  1  0
M  END
> <minimizedAffinity>
-11.50350

> <CNNscore>
0.8463231325

> <CNNaffinity>
7.0069828033

> <CNN_VS>
5.9301714897

> <CNNaffinity_variance>
0.2978375852

$$$$



 41 45  0  0  0  0  0  0  0  0999 V2000
   11.8522   47.2662   61.1786 C   0  0  0  0  0  0  0  0  0  0  0  0
   11.0612   46.5341   62.0979 C   0  0  0  0  0  0  0  0  0  0  0  0
   11.4931   46.3763   63.4348 C   0  0  0  0  0  0  0  0  0  0  0  0
   12.6895   46.9447   63.8721 C   0  0  0  0  0  0  0  0  0  0  0  0
   13.1434   46.7504   65.1367 O   0  0  0  0  0  0  0  0  0  0  0  0
   13.4459   47.6857   62.9942 C   0  0  0  0  0  0  0  0  0  0  0  0
   13.0318   47.8255   61.6620 C   0  0  0  0  0  0  0  0  0  0  0  0
   13.9397   48.5689   60.9325 O   0  0  0  0  0  0  0  0  0  0  0  0
   14.8799   49.0548   61.8303 C   0  0  0  0  0  0  0  0  0  0  0  0
   15.5928   50.1670   61.6096 C   0  0  0  0  0  0  0  0  0  0  0  0
   16.2623   50.7927   62.7304 C   0  0  0  0  0  0  0  0  0  0  0  0
   17.2463   51.7006   62.4127 O   0  0  0  0  0  0  0  0  0  0  0  0
   15.8902   50.5379   63.9997 C   0  0  0  0  0  0  0  0  0  0  0  0
   14.8244   49.5061   64.2195 C   0  0  0  0  0  0  0  0  0  0  0  0
   14.0655   49.6128   65.1814 O   0  0  0  0  0  0  0  0  0  0  0  0
   14.7650   48.3761   63.1859 C   0  0  0  0  0  0  0  0  0  0  0  0
   15.8932   47.3653   63.4185 C   0  0  0  0  0  0  0  0  0  0  0  0
   12.6373   46.2474   65.7440 H   0  0  0  0  0  0  0  0  0  0  0  0
   17.4754   51.8487   61.5163 H   0  0  0  0  0  0  0  0  0  0  0  0
   10.8262   46.4579   59.1085 N   0  0  0  0  0  0  0  0  0  0  0  0
   11.4921   47.4805   59.7401 C   0  0  0  0  0  0  0  0  0  0  0  0
   11.7836   48.5182   59.1551 O   0  0  0  0  0  0  0  0  0  0  0  0
   10.6679   45.6175   59.5964 H   0  0  0  0  0  0  0  0  0  0  0  0
   10.3522   46.5794   57.7519 C   0  0  0  0  0  0  0  0  0  0  0  0
    7.8512   46.7900   58.1907 C   0  0  0  0  0  0  0  0  0  0  0  0
    6.6765   47.5508   58.1486 C   0  0  0  0  0  0  0  0  0  0  0  0
    6.6688   48.8373   57.6133 C   0  0  0  0  0  0  0  0  0  0  0  0
    7.8316   49.4085   57.0922 C   0  0  0  0  0  0  0  0  0  0  0  0
    7.7847   50.6999   56.5398 C   0  0  0  0  0  0  0  0  0  0  0  0
    8.9232   51.2923   56.0002 C   0  0  0  0  0  0  0  0  0  0  0  0
   10.1221   50.5967   56.0040 C   0  0  0  0  0  0  0  0  0  0  0  0
   10.1813   49.3128   56.5534 C   0  0  0  0  0  0  0  0  0  0  0  0
    9.0461   48.6821   57.1204 C   0  0  0  0  0  0  0  0  0  0  0  0
    9.0571   47.3711   57.7025 C   0  0  0  0  0  0  0  0  0  0  0  0
    6.4977   44.6917   58.9305 C   0  0  0  0  0  0  0  0  0  0  0  0
    7.8479   45.3810   58.7616 C   0  0  0  0  0  0  0  0  0  0  0  0
   16.5446   51.1963   65.1490 C   0  0  0  0  0  0  0  0  0  0  0  0
   15.9209   52.4460   65.7109 C   0  0  0  0  0  0  0  0  0  0  0  0
   17.5827   50.7269   65.6149 O   0  0  0  0  0  0  0  0  0  0  0  0
    9.8867   45.9954   61.6278 O   0  0  0  0  0  0  0  0  0  0  0  0
    9.7579   44.5796   61.5884 C   0  0  0  0  0  0  0  0  0  0  0  0
 35 36  1  0
 36 25  1  0
 25 26  2  0
 26 27  1  0
 27 28  2  0
 28 29  1  0
 29 30  2  0
 30 31  1  0
 31 32  2  0
 32 33  1  0
 33 34  2  0
 34 24  1  0
 24 20  1  0
 20 21  1  0
 21 22  2  0
 21  1  1  0
  1  2  2  0
  2 40  1  0
 40 41  1  0
  2  3  1  0
  3  4  2  0
  4  5  1  0
  4  6  1  0
  6  7  2  0
  7  8  1  0
  8  9  1  0
  9 10  2  0
 10 11  1  0
 11 12  1  0
 11 13  2  0
 13 37  1  0
 37 38  1  0
 37 39  2  0
 13 14  1  0
 14 15  2  0
 14 16  1  0
 16 17  1  0
 34 25  1  0
  7  1  1  0
 16  9  1  0
 33 28  1  0
 16  6  1  0
 20 23  1  0
  5 18  1  0
 12 19  1  0
M  END
> <minimizedAffinity>
-10.24994

> <CNNscore>
0.6512414217

> <CNNaffinity>
7.0872597694

> <CNN_VS>
4.6155171394

> <CNNaffinity_variance>
0.2300988883

$$$$



 41 45  0  0  0  0  0  0  0  0999 V2000
   12.9268   47.8349   61.5937 C   0  0  0  0  0  0  0  0  0  0  0  0
   12.2088   46.9473   62.4322 C   0  0  0  0  0  0  0  0  0  0  0  0
   12.5789   46.7996   63.7888 C   0  0  0  0  0  0  0  0  0  0  0  0
   13.6406   47.5287   64.3242 C   0  0  0  0  0  0  0  0  0  0  0  0
   14.0425   47.3518   65.6089 O   0  0  0  0  0  0  0  0  0  0  0  0
   14.3206   48.4179   63.5250 C   0  0  0  0  0  0  0  0  0  0  0  0
   13.9706   48.5504   62.1738 C   0  0  0  0  0  0  0  0  0  0  0  0
   14.7906   49.4591   61.5326 O   0  0  0  0  0  0  0  0  0  0  0  0
   15.5852   50.0460   62.5075 C   0  0  0  0  0  0  0  0  0  0  0  0
   16.1234   51.2651   62.3734 C   0  0  0  0  0  0  0  0  0  0  0  0
   16.6155   51.9375   63.5573 C   0  0  0  0  0  0  0  0  0  0  0  0
   17.4593   53.0020   63.3376 O   0  0  0  0  0  0  0  0  0  0  0  0
   16.2129   51.5708   64.7894 C   0  0  0  0  0  0  0  0  0  0  0  0
   15.3143   50.3756   64.9017 C   0  0  0  0  0  0  0  0  0  0  0  0
   14.4913   50.3185   65.8140 O   0  0  0  0  0  0  0  0  0  0  0  0
   15.4985   49.2976   63.8280 C   0  0  0  0  0  0  0  0  0  0  0  0
   16.7575   48.4673   64.1002 C   0  0  0  0  0  0  0  0  0  0  0  0
   13.5874   46.7489   66.1633 H   0  0  0  0  0  0  0  0  0  0  0  0
   17.7155   53.2241   62.4641 H   0  0  0  0  0  0  0  0  0  0  0  0
   11.3379   48.4174   59.8251 N   0  0  0  0  0  0  0  0  0  0  0  0
   12.6246   48.0542   60.1427 C   0  0  0  0  0  0  0  0  0  0  0  0
   13.4852   47.9107   59.2808 O   0  0  0  0  0  0  0  0  0  0  0  0
   10.6630   48.4598   60.5406 H   0  0  0  0  0  0  0  0  0  0  0  0
   10.9472   48.7385   58.4745 C   0  0  0  0  0  0  0  0  0  0  0  0
    9.5092   46.6740   58.0721 C   0  0  0  0  0  0  0  0  0  0  0  0
    8.2644   46.1080   57.7706 C   0  0  0  0  0  0  0  0  0  0  0  0
    7.1550   46.9067   57.5007 C   0  0  0  0  0  0  0  0  0  0  0  0
    7.2492   48.2999   57.5129 C   0  0  0  0  0  0  0  0  0  0  0  0
    6.1162   49.0761   57.2148 C   0  0  0  0  0  0  0  0  0  0  0  0
    6.1802   50.4668   57.2056 C   0  0  0  0  0  0  0  0  0  0  0  0
    7.3812   51.0971   57.4913 C   0  0  0  0  0  0  0  0  0  0  0  0
    8.5139   50.3354   57.7922 C   0  0  0  0  0  0  0  0  0  0  0  0
    8.4843   48.9189   57.8211 C   0  0  0  0  0  0  0  0  0  0  0  0
    9.6158   48.0936   58.1312 C   0  0  0  0  0  0  0  0  0  0  0  0
   11.8214   45.7608   57.2962 C   0  0  0  0  0  0  0  0  0  0  0  0
   10.7187   45.7957   58.3495 C   0  0  0  0  0  0  0  0  0  0  0  0
   16.6833   52.2717   66.0019 C   0  0  0  0  0  0  0  0  0  0  0  0
   15.7963   53.3241   66.6121 C   0  0  0  0  0  0  0  0  0  0  0  0
   17.7836   51.9976   66.4805 O   0  0  0  0  0  0  0  0  0  0  0  0
   11.1659   46.2523   61.8665 O   0  0  0  0  0  0  0  0  0  0  0  0
    9.9570   46.1238   62.6046 C   0  0  0  0  0  0  0  0  0  0  0  0
 35 36  1  0
 36 25  1  0
 25 26  2  0
 26 27  1  0
 27 28  2  0
 28 29  1  0
 29 30  2  0
 30 31  1  0
 31 32  2  0
 32 33  1  0
 33 34  2  0
 34 24  1  0
 24 20  1  0
 20 21  1  0
 21 22  2  0
 21  1  1  0
  1  2  2  0
  2 40  1  0
 40 41  1  0
  2  3  1  0
  3  4  2  0
  4  5  1  0
  4  6  1  0
  6  7  2  0
  7  8  1  0
  8  9  1  0
  9 10  2  0
 10 11  1  0
 11 12  1  0
 11 13  2  0
 13 37  1  0
 37 38  1  0
 37 39  2  0
 13 14  1  0
 14 15  2  0
 14 16  1  0
 16 17  1  0
 34 25  1  0
  7  1  1  0
 16  9  1  0
 33 28  1  0
 16  6  1  0
 20 23  1  0
  5 18  1  0
 12 19  1  0
M  END
> <minimizedAffinity>
-9.66842

> <CNNscore>
0.5114550591

> <CNNaffinity>
6.8085269928

> <CNN_VS>
3.4822554588

> <CNNaffinity_variance>
0.1876834184

$$$$



 41 45  0  0  0  0  0  0  0  0999 V2000
   16.2665   52.7300   66.4855 C   0  0  0  0  0  0  0  0  0  0  0  0
   17.5291   53.3722   66.4847 C   0  0  0  0  0  0  0  0  0  0  0  0
   17.7758   54.4499   67.3660 C   0  0  0  0  0  0  0  0  0  0  0  0
   16.7929   54.8880   68.2534 C   0  0  0  0  0  0  0  0  0  0  0  0
   16.9977   55.9588   69.0623 O   0  0  0  0  0  0  0  0  0  0  0  0
   15.5761   54.2472   68.2839 C   0  0  0  0  0  0  0  0  0  0  0  0
   15.3204   53.1927   67.3959 C   0  0  0  0  0  0  0  0  0  0  0  0
   14.0364   52.7073   67.5540 O   0  0  0  0  0  0  0  0  0  0  0  0
   13.4965   53.3436   68.6630 C   0  0  0  0  0  0  0  0  0  0  0  0
   12.5153   52.8117   69.4034 C   0  0  0  0  0  0  0  0  0  0  0  0
   12.2738   53.3544   70.7236 C   0  0  0  0  0  0  0  0  0  0  0  0
   11.0642   53.0316   71.2946 O   0  0  0  0  0  0  0  0  0  0  0  0
   13.2115   54.0773   71.3661 C   0  0  0  0  0  0  0  0  0  0  0  0
   14.4790   54.3878   70.6273 C   0  0  0  0  0  0  0  0  0  0  0  0
   15.5314   54.5095   71.2521 O   0  0  0  0  0  0  0  0  0  0  0  0
   14.3504   54.5209   69.1060 C   0  0  0  0  0  0  0  0  0  0  0  0
   13.7157   55.8637   68.7284 C   0  0  0  0  0  0  0  0  0  0  0  0
   17.8222   56.4038   69.0508 H   0  0  0  0  0  0  0  0  0  0  0  0
   10.4388   52.5265   70.8133 H   0  0  0  0  0  0  0  0  0  0  0  0
   16.4403   50.3634   65.8854 N   0  0  0  0  0  0  0  0  0  0  0  0
   15.8996   51.5904   65.5847 C   0  0  0  0  0  0  0  0  0  0  0  0
   15.1560   51.7488   64.6225 O   0  0  0  0  0  0  0  0  0  0  0  0
   17.0821   50.2932   66.6286 H   0  0  0  0  0  0  0  0  0  0  0  0
   16.0951   49.1754   65.1443 C   0  0  0  0  0  0  0  0  0  0  0  0
   14.8189   48.2189   67.1314 C   0  0  0  0  0  0  0  0  0  0  0  0
   13.6652   47.6201   67.6521 C   0  0  0  0  0  0  0  0  0  0  0  0
   12.5936   47.2811   66.8284 C   0  0  0  0  0  0  0  0  0  0  0  0
   12.6376   47.5192   65.4532 C   0  0  0  0  0  0  0  0  0  0  0  0
   11.5485   47.1452   64.6475 C   0  0  0  0  0  0  0  0  0  0  0  0
   11.5666   47.3566   63.2716 C   0  0  0  0  0  0  0  0  0  0  0  0
   12.6778   47.9420   62.6852 C   0  0  0  0  0  0  0  0  0  0  0  0
   13.7656   48.3208   63.4769 C   0  0  0  0  0  0  0  0  0  0  0  0
   13.7788   48.1307   64.8811 C   0  0  0  0  0  0  0  0  0  0  0  0
   14.8661   48.5086   65.7370 C   0  0  0  0  0  0  0  0  0  0  0  0
   16.1976   47.7216   69.2840 C   0  0  0  0  0  0  0  0  0  0  0  0
   15.9903   48.5709   68.0341 C   0  0  0  0  0  0  0  0  0  0  0  0
   12.9877   54.6074   72.7268 C   0  0  0  0  0  0  0  0  0  0  0  0
   12.8535   56.0964   72.9039 C   0  0  0  0  0  0  0  0  0  0  0  0
   12.9283   53.8353   73.6835 O   0  0  0  0  0  0  0  0  0  0  0  0
   18.4716   52.9059   65.5989 O   0  0  0  0  0  0  0  0  0  0  0  0
   18.7773   53.6951   64.4559 C   0  0  0  0  0  0  0  0  0  0  0  0
 35 36  1  0
 36 25  1  0
 25 26  2  0
 26 27  1  0
 27 28  2  0
 28 29  1  0
 29 30  2  0
 30 31  1  0
 31 32  2  0
 32 33  1  0
 33 34  2  0
 34 24  1  0
 24 20  1  0
 20 21  1  0
 21 22  2  0
 21  1  1  0
  1  2  2  0
  2 40  1  0
 40 41  1  0
  2  3  1  0
  3  4  2  0
  4  5  1  0
  4  6  1  0
  6  7  2  0
  7  8  1  0
  8  9  1  0
  9 10  2  0
 10 11  1  0
 11 12  1  0
 11 13  2  0
 13 37  1  0
 37 38  1  0
 37 39  2  0
 13 14  1  0
 14 15  2  0
 14 16  1  0
 16 17  1  0
 34 25  1  0
  7  1  1  0
 16  9  1  0
 33 28  1  0
 16  6  1  0
 20 23  1  0
  5 18  1  0
 12 19  1  0
M  END
> <minimizedAffinity>
-8.04692

> <CNNscore>
0.5018379688

> <CNNaffinity>
5.7575297356

> <CNN_VS>
2.8893470764

> <CNNaffinity_variance>
0.5593459010

$$$$



 41 45  0  0  0  0  0  0  0  0999 V2000
   17.1396   51.2763   64.4572 C   0  0  0  0  0  0  0  0  0  0  0  0
   18.5468   51.1697   64.5799 C   0  0  0  0  0  0  0  0  0  0  0  0
   19.1920   51.6262   65.7521 C   0  0  0  0  0  0  0  0  0  0  0  0
   18.4591   52.1735   66.8052 C   0  0  0  0  0  0  0  0  0  0  0  0
   19.0724   52.6691   67.9104 O   0  0  0  0  0  0  0  0  0  0  0  0
   17.0892   52.2488   66.7076 C   0  0  0  0  0  0  0  0  0  0  0  0
   16.4482   51.8176   65.5375 C   0  0  0  0  0  0  0  0  0  0  0  0
   15.0822   52.0093   65.6171 O   0  0  0  0  0  0  0  0  0  0  0  0
   14.8061   52.4246   66.9123 C   0  0  0  0  0  0  0  0  0  0  0  0
   13.6172   52.2383   67.5003 C   0  0  0  0  0  0  0  0  0  0  0  0
   13.5314   52.3615   68.9402 C   0  0  0  0  0  0  0  0  0  0  0  0
   12.2649   52.5120   69.4566 O   0  0  0  0  0  0  0  0  0  0  0  0
   14.6276   52.2693   69.7177 C   0  0  0  0  0  0  0  0  0  0  0  0
   15.9563   52.1354   69.0355 C   0  0  0  0  0  0  0  0  0  0  0  0
   16.8604   51.5084   69.5852 O   0  0  0  0  0  0  0  0  0  0  0  0
   16.0728   52.8052   67.6619 C   0  0  0  0  0  0  0  0  0  0  0  0
   16.2189   54.3238   67.8071 C   0  0  0  0  0  0  0  0  0  0  0  0
   20.0051   52.6237   67.9887 H   0  0  0  0  0  0  0  0  0  0  0  0
   11.5282   52.5723   68.8807 H   0  0  0  0  0  0  0  0  0  0  0  0
   15.6516   49.6650   63.3704 N   0  0  0  0  0  0  0  0  0  0  0  0
   16.3621   50.8355   63.2547 C   0  0  0  0  0  0  0  0  0  0  0  0
   16.3656   51.4876   62.2160 O   0  0  0  0  0  0  0  0  0  0  0  0
   15.7270   49.1403   64.2000 H   0  0  0  0  0  0  0  0  0  0  0  0
   14.7987   49.1827   62.3122 C   0  0  0  0  0  0  0  0  0  0  0  0
   12.5715   47.9800   62.0201 C   0  0  0  0  0  0  0  0  0  0  0  0
   11.5162   47.2405   62.5678 C   0  0  0  0  0  0  0  0  0  0  0  0
   11.4755   46.9396   63.9278 C   0  0  0  0  0  0  0  0  0  0  0  0
   12.4822   47.3735   64.7928 C   0  0  0  0  0  0  0  0  0  0  0  0
   12.3997   47.0716   66.1628 C   0  0  0  0  0  0  0  0  0  0  0  0
   13.3798   47.5008   67.0535 C   0  0  0  0  0  0  0  0  0  0  0  0
   14.4531   48.2411   66.5831 C   0  0  0  0  0  0  0  0  0  0  0  0
   14.5472   48.5449   65.2220 C   0  0  0  0  0  0  0  0  0  0  0  0
   13.5745   48.1166   64.2847 C   0  0  0  0  0  0  0  0  0  0  0  0
   13.6299   48.3957   62.8788 C   0  0  0  0  0  0  0  0  0  0  0  0
   11.5862   47.6220   59.6361 C   0  0  0  0  0  0  0  0  0  0  0  0
   12.6004   48.3180   60.5382 C   0  0  0  0  0  0  0  0  0  0  0  0
   14.5466   52.3603   71.1900 C   0  0  0  0  0  0  0  0  0  0  0  0
   15.0897   53.5922   71.8640 C   0  0  0  0  0  0  0  0  0  0  0  0
   14.0550   51.4347   71.8354 O   0  0  0  0  0  0  0  0  0  0  0  0
   19.2306   50.6191   63.5217 O   0  0  0  0  0  0  0  0  0  0  0  0
   20.1492   51.4375   62.8083 C   0  0  0  0  0  0  0  0  0  0  0  0
 35 36  1  0
 36 25  1  0
 25 26  2  0
 26 27  1  0
 27 28  2  0
 28 29  1  0
 29 30  2  0
 30 31  1  0
 31 32  2  0
 32 33  1  0
 33 34  2  0
 34 24  1  0
 24 20  1  0
 20 21  1  0
 21 22  2  0
 21  1  1  0
  1  2  2  0
  2 40  1  0
 40 41  1  0
  2  3  1  0
  3  4  2  0
  4  5  1  0
  4  6  1  0
  6  7  2  0
  7  8  1  0
  8  9  1  0
  9 10  2  0
 10 11  1  0
 11 12  1  0
 11 13  2  0
 13 37  1  0
 37 38  1  0
 37 39  2  0
 13 14  1  0
 14 15  2  0
 14 16  1  0
 16 17  1  0
 34 25  1  0
  7  1  1  0
 16  9  1  0
 33 28  1  0
 16  6  1  0
 20 23  1  0
  5 18  1  0
 12 19  1  0
M  END
> <minimizedAffinity>
-8.29426

> <CNNscore>
0.4872649908

> <CNNaffinity>
6.2298140526

> <CNN_VS>
3.0355703831

> <CNNaffinity_variance>
0.0834459886

$$$$



 41 45  0  0  0  0  0  0  0  0999 V2000
   13.6756   48.0072   64.0188 C   0  0  0  0  0  0  0  0  0  0  0  0
   12.9074   47.3331   63.0380 C   0  0  0  0  0  0  0  0  0  0  0  0
   13.2148   47.4900   61.6669 C   0  0  0  0  0  0  0  0  0  0  0  0
   14.2791   48.2944   61.2597 C   0  0  0  0  0  0  0  0  0  0  0  0
   14.5470   48.4996   59.9447 O   0  0  0  0  0  0  0  0  0  0  0  0
   15.0508   48.9248   62.2079 C   0  0  0  0  0  0  0  0  0  0  0  0
   14.7351   48.7893   63.5672 C   0  0  0  0  0  0  0  0  0  0  0  0
   15.5987   49.5250   64.3560 O   0  0  0  0  0  0  0  0  0  0  0  0
   16.5874   50.0227   63.5189 C   0  0  0  0  0  0  0  0  0  0  0  0
   17.8146   50.3433   63.9494 C   0  0  0  0  0  0  0  0  0  0  0  0
   18.8716   50.4972   62.9723 C   0  0  0  0  0  0  0  0  0  0  0  0
   19.9993   51.1563   63.4049 O   0  0  0  0  0  0  0  0  0  0  0  0
   18.7676   49.9668   61.7384 C   0  0  0  0  0  0  0  0  0  0  0  0
   17.4763   49.2965   61.3748 C   0  0  0  0  0  0  0  0  0  0  0  0
   17.4828   48.3562   60.5821 O   0  0  0  0  0  0  0  0  0  0  0  0
   16.2201   49.8534   62.0533 C   0  0  0  0  0  0  0  0  0  0  0  0
   15.7966   51.1790   61.4115 C   0  0  0  0  0  0  0  0  0  0  0  0
   14.0285   48.0759   59.2893 H   0  0  0  0  0  0  0  0  0  0  0  0
   20.0312   51.5110   64.2716 H   0  0  0  0  0  0  0  0  0  0  0  0
   13.5236   49.0872   66.2102 N   0  0  0  0  0  0  0  0  0  0  0  0
   13.4252   47.9189   65.4934 C   0  0  0  0  0  0  0  0  0  0  0  0
   13.1507   46.8525   66.0332 O   0  0  0  0  0  0  0  0  0  0  0  0
   13.8082   49.9087   65.7482 H   0  0  0  0  0  0  0  0  0  0  0  0
   13.2223   49.1452   67.6193 C   0  0  0  0  0  0  0  0  0  0  0  0
   15.2983   49.0246   69.0917 C   0  0  0  0  0  0  0  0  0  0  0  0
   16.3364   49.6721   69.7726 C   0  0  0  0  0  0  0  0  0  0  0  0
   16.4304   51.0622   69.7914 C   0  0  0  0  0  0  0  0  0  0  0  0
   15.4864   51.8577   69.1387 C   0  0  0  0  0  0  0  0  0  0  0  0
   15.5980   53.2575   69.1955 C   0  0  0  0  0  0  0  0  0  0  0  0
   14.6661   54.0787   68.5667 C   0  0  0  0  0  0  0  0  0  0  0  0
   13.6086   53.5076   67.8761 C   0  0  0  0  0  0  0  0  0  0  0  0
   13.4891   52.1166   67.8103 C   0  0  0  0  0  0  0  0  0  0  0  0
   14.4235   51.2492   68.4290 C   0  0  0  0  0  0  0  0  0  0  0  0
   14.3491   49.8175   68.3840 C   0  0  0  0  0  0  0  0  0  0  0  0
   14.0072   46.8819   69.8153 C   0  0  0  0  0  0  0  0  0  0  0  0
   15.1936   47.5080   69.0894 C   0  0  0  0  0  0  0  0  0  0  0  0
   19.8542   50.0895   60.7450 C   0  0  0  0  0  0  0  0  0  0  0  0
   20.9220   49.0287   60.7145 C   0  0  0  0  0  0  0  0  0  0  0  0
   19.8768   51.0509   59.9767 O   0  0  0  0  0  0  0  0  0  0  0  0
   11.8713   46.5458   63.4819 O   0  0  0  0  0  0  0  0  0  0  0  0
   10.7905   46.2839   62.5954 C   0  0  0  0  0  0  0  0  0  0  0  0
 35 36  1  0
 36 25  1  0
 25 26  2  0
 26 27  1  0
 27 28  2  0
 28 29  1  0
 29 30  2  0
 30 31  1  0
 31 32  2  0
 32 33  1  0
 33 34  2  0
 34 24  1  0
 24 20  1  0
 20 21  1  0
 21 22  2  0
 21  1  1  0
  1  2  2  0
  2 40  1  0
 40 41  1  0
  2  3  1  0
  3  4  2  0
  4  5  1  0
  4  6  1  0
  6  7  2  0
  7  8  1  0
  8  9  1  0
  9 10  2  0
 10 11  1  0
 11 12  1  0
 11 13  2  0
 13 37  1  0
 37 38  1  0
 37 39  2  0
 13 14  1  0
 14 15  2  0
 14 16  1  0
 16 17  1  0
 34 25  1  0
  7  1  1  0
 16  9  1  0
 33 28  1  0
 16  6  1  0
 20 23  1  0
  5 18  1  0
 12 19  1  0
M  END
> <minimizedAffinity>
-8.69174

> <CNNscore>
0.4288329482

> <CNNaffinity>
6.6880736351

> <CNN_VS>
2.8680663109

> <CNNaffinity_variance>
0.0631739050

$$$$



 41 45  0  0  0  0  0  0  0  0999 V2000
   13.0928   47.9735   60.7317 C   0  0  0  0  0  0  0  0  0  0  0  0
   12.3590   47.6617   61.9026 C   0  0  0  0  0  0  0  0  0  0  0  0
   12.8680   48.0170   63.1729 C   0  0  0  0  0  0  0  0  0  0  0  0
   14.0855   48.6868   63.2940 C   0  0  0  0  0  0  0  0  0  0  0  0
   14.6124   48.9805   64.5102 O   0  0  0  0  0  0  0  0  0  0  0  0
   14.7872   49.0233   62.1598 C   0  0  0  0  0  0  0  0  0  0  0  0
   14.2962   48.6528   60.8999 C   0  0  0  0  0  0  0  0  0  0  0  0
   15.1577   49.0452   59.8934 O   0  0  0  0  0  0  0  0  0  0  0  0
   16.1464   49.8189   60.4851 C   0  0  0  0  0  0  0  0  0  0  0  0
   16.8412   50.7496   59.8181 C   0  0  0  0  0  0  0  0  0  0  0  0
   17.5720   51.7426   60.5770 C   0  0  0  0  0  0  0  0  0  0  0  0
   18.5326   52.4425   59.8837 O   0  0  0  0  0  0  0  0  0  0  0  0
   17.2748   51.9975   61.8659 C   0  0  0  0  0  0  0  0  0  0  0  0
   16.2273   51.1472   62.5207 C   0  0  0  0  0  0  0  0  0  0  0  0
   15.5248   51.6264   63.4092 O   0  0  0  0  0  0  0  0  0  0  0  0
   16.1126   49.7100   62.0011 C   0  0  0  0  0  0  0  0  0  0  0  0
   17.2560   48.8432   62.5394 C   0  0  0  0  0  0  0  0  0  0  0  0
   14.1441   48.7563   65.2902 H   0  0  0  0  0  0  0  0  0  0  0  0
   18.7090   52.2336   58.9874 H   0  0  0  0  0  0  0  0  0  0  0  0
   11.3251   47.8431   59.0436 N   0  0  0  0  0  0  0  0  0  0  0  0
   12.6494   47.6303   59.3423 C   0  0  0  0  0  0  0  0  0  0  0  0
   13.4321   47.1765   58.5145 O   0  0  0  0  0  0  0  0  0  0  0  0
   10.7178   48.1489   59.7556 H   0  0  0  0  0  0  0  0  0  0  0  0
   10.7987   47.6317   57.7177 C   0  0  0  0  0  0  0  0  0  0  0  0
    9.0052   49.4017   57.3405 C   0  0  0  0  0  0  0  0  0  0  0  0
    7.6523   49.7540   57.2615 C   0  0  0  0  0  0  0  0  0  0  0  0
    6.6479   48.8191   57.5041 C   0  0  0  0  0  0  0  0  0  0  0  0
    6.9569   47.5003   57.8433 C   0  0  0  0  0  0  0  0  0  0  0  0
    5.9201   46.5879   58.1030 C   0  0  0  0  0  0  0  0  0  0  0  0
    6.1947   45.2696   58.4565 C   0  0  0  0  0  0  0  0  0  0  0  0
    7.5119   44.8500   58.5578 C   0  0  0  0  0  0  0  0  0  0  0  0
    8.5514   45.7479   58.2988 C   0  0  0  0  0  0  0  0  0  0  0  0
    8.3102   47.0938   57.9268 C   0  0  0  0  0  0  0  0  0  0  0  0
    9.3408   48.0505   57.6437 C   0  0  0  0  0  0  0  0  0  0  0  0
   10.3581   50.8433   55.6453 C   0  0  0  0  0  0  0  0  0  0  0  0
   10.0952   50.4315   57.0903 C   0  0  0  0  0  0  0  0  0  0  0  0
   17.9921   53.0318   62.6395 C   0  0  0  0  0  0  0  0  0  0  0  0
   18.5843   52.6510   63.9702 C   0  0  0  0  0  0  0  0  0  0  0  0
   18.0820   54.1766   62.1963 O   0  0  0  0  0  0  0  0  0  0  0  0
   11.1613   47.0065   61.7387 O   0  0  0  0  0  0  0  0  0  0  0  0
   10.6284   46.2818   62.8402 C   0  0  0  0  0  0  0  0  0  0  0  0
 35 36  1  0
 36 25  1  0
 25 26  2  0
 26 27  1  0
 27 28  2  0
 28 29  1  0
 29 30  2  0
 30 31  1  0
 31 32  2  0
 32 33  1  0
 33 34  2  0
 34 24  1  0
 24 20  1  0
 20 21  1  0
 21 22  2  0
 21  1  1  0
  1  2  2  0
  2 40  1  0
 40 41  1  0
  2  3  1  0
  3  4  2  0
  4  5  1  0
  4  6  1  0
  6  7  2  0
  7  8  1  0
  8  9  1  0
  9 10  2  0
 10 11  1  0
 11 12  1  0
 11 13  2  0
 13 37  1  0
 37 38  1  0
 37 39  2  0
 13 14  1  0
 14 15  2  0
 14 16  1  0
 16 17  1  0
 34 25  1  0
  7  1  1  0
 16  9  1  0
 33 28  1  0
 16  6  1  0
 20 23  1  0
  5 18  1  0
 12 19  1  0
M  END
> <minimizedAffinity>
-11.43624

> <CNNscore>
0.3998185992

> <CNNaffinity>
6.7265257835

> <CNN_VS>
2.6893901825

> <CNNaffinity_variance>
0.2987439334

$$$$



 41 45  0  0  0  0  0  0  0  0999 V2000
   15.6903   50.1940   63.5375 C   0  0  0  0  0  0  0  0  0  0  0  0
   16.1820   51.4628   63.1439 C   0  0  0  0  0  0  0  0  0  0  0  0
   16.3005   52.5024   64.0948 C   0  0  0  0  0  0  0  0  0  0  0  0
   15.9503   52.2951   65.4289 C   0  0  0  0  0  0  0  0  0  0  0  0
   16.0037   53.3018   66.3381 O   0  0  0  0  0  0  0  0  0  0  0  0
   15.5045   51.0558   65.8256 C   0  0  0  0  0  0  0  0  0  0  0  0
   15.3647   50.0292   64.8809 C   0  0  0  0  0  0  0  0  0  0  0  0
   14.8699   48.8784   65.4640 O   0  0  0  0  0  0  0  0  0  0  0  0
   14.8326   49.1017   66.8333 C   0  0  0  0  0  0  0  0  0  0  0  0
   14.8897   48.1134   67.7354 C   0  0  0  0  0  0  0  0  0  0  0  0
   15.2134   48.4470   69.1065 C   0  0  0  0  0  0  0  0  0  0  0  0
   14.9203   47.4843   70.0450 O   0  0  0  0  0  0  0  0  0  0  0  0
   15.8216   49.6072   69.4202 C   0  0  0  0  0  0  0  0  0  0  0  0
   16.0625   50.5893   68.3128 C   0  0  0  0  0  0  0  0  0  0  0  0
   17.0386   51.3357   68.3651 O   0  0  0  0  0  0  0  0  0  0  0  0
   15.0430   50.5696   67.1687 C   0  0  0  0  0  0  0  0  0  0  0  0
   13.7383   51.2543   67.5900 C   0  0  0  0  0  0  0  0  0  0  0  0
   16.3056   54.1505   66.0802 H   0  0  0  0  0  0  0  0  0  0  0  0
   14.4961   46.6903   69.7850 H   0  0  0  0  0  0  0  0  0  0  0  0
   14.2844   48.8972   62.0100 N   0  0  0  0  0  0  0  0  0  0  0  0
   15.5144   49.0324   62.6078 C   0  0  0  0  0  0  0  0  0  0  0  0
   16.4247   48.2385   62.3960 O   0  0  0  0  0  0  0  0  0  0  0  0
   13.5625   49.5196   62.2563 H   0  0  0  0  0  0  0  0  0  0  0  0
   14.0201   47.8704   61.0325 C   0  0  0  0  0  0  0  0  0  0  0  0
   12.2549   46.8233   62.5423 C   0  0  0  0  0  0  0  0  0  0  0  0
   10.9726   46.2868   62.7107 C   0  0  0  0  0  0  0  0  0  0  0  0
   10.0986   46.1542   61.6335 C   0  0  0  0  0  0  0  0  0  0  0  0
   10.4757   46.5440   60.3468 C   0  0  0  0  0  0  0  0  0  0  0  0
    9.5782   46.3765   59.2784 C   0  0  0  0  0  0  0  0  0  0  0  0
    9.9284   46.7426   57.9817 C   0  0  0  0  0  0  0  0  0  0  0  0
   11.1837   47.2777   57.7386 C   0  0  0  0  0  0  0  0  0  0  0  0
   12.0836   47.4517   58.7938 C   0  0  0  0  0  0  0  0  0  0  0  0
   11.7587   47.1003   60.1277 C   0  0  0  0  0  0  0  0  0  0  0  0
   12.6432   47.2660   61.2448 C   0  0  0  0  0  0  0  0  0  0  0  0
   12.7924   46.3025   65.0367 C   0  0  0  0  0  0  0  0  0  0  0  0
   13.2084   46.9496   63.7196 C   0  0  0  0  0  0  0  0  0  0  0  0
   16.1863   49.9425   70.8121 C   0  0  0  0  0  0  0  0  0  0  0  0
   17.5986   49.6854   71.2659 C   0  0  0  0  0  0  0  0  0  0  0  0
   15.3382   50.4084   71.5728 O   0  0  0  0  0  0  0  0  0  0  0  0
   16.5213   51.6234   61.8211 O   0  0  0  0  0  0  0  0  0  0  0  0
   17.8986   51.7256   61.4818 C   0  0  0  0  0  0  0  0  0  0  0  0
 35 36  1  0
 36 25  1  0
 25 26  2  0
 26 27  1  0
 27 28  2  0
 28 29  1  0
 29 30  2  0
 30 31  1  0
 31 32  2  0
 32 33  1  0
 33 34  2  0
 34 24  1  0
 24 20  1  0
 20 21  1  0
 21 22  2  0
 21  1  1  0
  1  2  2  0
  2 40  1  0
 40 41  1  0
  2  3  1  0
  3  4  2  0
  4  5  1  0
  4  6  1  0
  6  7  2  0
  7  8  1  0
  8  9  1  0
  9 10  2  0
 10 11  1  0
 11 12  1  0
 11 13  2  0
 13 37  1  0
 37 38  1  0
 37 39  2  0
 13 14  1  0
 14 15  2  0
 14 16  1  0
 16 17  1  0
 34 25  1  0
  7  1  1  0
 16  9  1  0
 33 28  1  0
 16  6  1  0
 20 23  1  0
  5 18  1  0
 12 19  1  0
M  END
> <minimizedAffinity>
-8.91903

> <CNNscore>
0.3647659719

> <CNNaffinity>
6.9219913483

> <CNN_VS>
2.5249068737

> <CNNaffinity_variance>
0.0420116745

$$$$



 41 45  0  0  0  0  0  0  0  0999 V2000
   14.5949   48.0136   63.3700 C   0  0  0  0  0  0  0  0  0  0  0  0
   13.3821   47.3207   63.6057 C   0  0  0  0  0  0  0  0  0  0  0  0
   12.7378   47.4276   64.8597 C   0  0  0  0  0  0  0  0  0  0  0  0
   13.2738   48.2207   65.8742 C   0  0  0  0  0  0  0  0  0  0  0  0
   12.6961   48.2844   67.1011 O   0  0  0  0  0  0  0  0  0  0  0  0
   14.4329   48.9236   65.6412 C   0  0  0  0  0  0  0  0  0  0  0  0
   15.0862   48.8024   64.4066 C   0  0  0  0  0  0  0  0  0  0  0  0
   16.2470   49.5515   64.3805 O   0  0  0  0  0  0  0  0  0  0  0  0
   16.2753   50.2957   65.5516 C   0  0  0  0  0  0  0  0  0  0  0  0
   16.9395   51.4534   65.6643 C   0  0  0  0  0  0  0  0  0  0  0  0
   16.6195   52.3288   66.7721 C   0  0  0  0  0  0  0  0  0  0  0  0
   17.5425   53.3111   67.0486 O   0  0  0  0  0  0  0  0  0  0  0  0
   15.4558   52.2151   67.4412 C   0  0  0  0  0  0  0  0  0  0  0  0
   14.5440   51.0852   67.0661 C   0  0  0  0  0  0  0  0  0  0  0  0
   13.3272   51.2239   67.1798 O   0  0  0  0  0  0  0  0  0  0  0  0
   15.2300   49.8172   66.5464 C   0  0  0  0  0  0  0  0  0  0  0  0
   15.8560   49.0251   67.6994 C   0  0  0  0  0  0  0  0  0  0  0  0
   11.9064   47.8100   67.2723 H   0  0  0  0  0  0  0  0  0  0  0  0
   18.3404   53.3553   66.5593 H   0  0  0  0  0  0  0  0  0  0  0  0
   14.6788   48.2896   60.9393 N   0  0  0  0  0  0  0  0  0  0  0  0
   15.3621   47.9572   62.0843 C   0  0  0  0  0  0  0  0  0  0  0  0
   16.5423   47.6250   62.0572 O   0  0  0  0  0  0  0  0  0  0  0  0
   13.7165   48.4889   60.9980 H   0  0  0  0  0  0  0  0  0  0  0  0
   15.3300   48.3550   59.6542 C   0  0  0  0  0  0  0  0  0  0  0  0
   15.0861   47.2294   57.3814 C   0  0  0  0  0  0  0  0  0  0  0  0
   14.2792   46.6062   56.4216 C   0  0  0  0  0  0  0  0  0  0  0  0
   12.9064   46.4651   56.6146 C   0  0  0  0  0  0  0  0  0  0  0  0
   12.2870   46.9488   57.7688 C   0  0  0  0  0  0  0  0  0  0  0  0
   10.8970   46.8097   57.9224 C   0  0  0  0  0  0  0  0  0  0  0  0
   10.2473   47.2929   59.0549 C   0  0  0  0  0  0  0  0  0  0  0  0
   10.9817   47.9250   60.0461 C   0  0  0  0  0  0  0  0  0  0  0  0
   12.3652   48.0664   59.9055 C   0  0  0  0  0  0  0  0  0  0  0  0
   13.0619   47.5784   58.7721 C   0  0  0  0  0  0  0  0  0  0  0  0
   14.4795   47.6920   58.5849 C   0  0  0  0  0  0  0  0  0  0  0  0
   17.0879   47.3347   55.7189 C   0  0  0  0  0  0  0  0  0  0  0  0
   16.5805   47.3940   57.1562 C   0  0  0  0  0  0  0  0  0  0  0  0
   15.1051   53.1246   68.5514 C   0  0  0  0  0  0  0  0  0  0  0  0
   14.5687   54.4911   68.2177 C   0  0  0  0  0  0  0  0  0  0  0  0
   15.2669   52.7610   69.7162 O   0  0  0  0  0  0  0  0  0  0  0  0
   12.8850   46.5549   62.5777 O   0  0  0  0  0  0  0  0  0  0  0  0
   11.6623   45.8576   62.7813 C   0  0  0  0  0  0  0  0  0  0  0  0
 35 36  1  0
 36 25  1  0
 25 26  2  0
 26 27  1  0
 27 28  2  0
 28 29  1  0
 29 30  2  0
 30 31  1  0
 31 32  2  0
 32 33  1  0
 33 34  2  0
 34 24  1  0
 24 20  1  0
 20 21  1  0
 21 22  2  0
 21  1  1  0
  1  2  2  0
  2 40  1  0
 40 41  1  0
  2  3  1  0
  3  4  2  0
  4  5  1  0
  4  6  1  0
  6  7  2  0
  7  8  1  0
  8  9  1  0
  9 10  2  0
 10 11  1  0
 11 12  1  0
 11 13  2  0
 13 37  1  0
 37 38  1  0
 37 39  2  0
 13 14  1  0
 14 15  2  0
 14 16  1  0
 16 17  1  0
 34 25  1  0
  7  1  1  0
 16  9  1  0
 33 28  1  0
 16  6  1  0
 20 23  1  0
  5 18  1  0
 12 19  1  0
M  END
> <minimizedAffinity>
-9.46568

> <CNNscore>
0.2973207831

> <CNNaffinity>
6.3323988914

> <CNN_VS>
1.8827538490

> <CNNaffinity_variance>
0.0921481624

$$$$
