


 28 28  0  0  0  0  0  0  0  0999 V2000
   12.7492   61.7109   18.2492 C   0  0  0  0  0  0  0  0  0  0  0  0
   13.0365   60.8479   17.0968 N   0  0  0  0  0  0  0  0  0  0  0  0
   13.6846   60.1116   17.3765 H   0  0  0  0  0  0  0  0  0  0  0  0
   13.4551   61.4042   16.3513 H   0  0  0  0  0  0  0  0  0  0  0  0
   14.0246   62.4305   18.7516 C   0  0  0  0  0  0  0  0  0  0  0  0
   14.3997   63.8390   18.1454 C   0  0  0  0  0  0  0  0  0  0  0  0
   13.4789   64.1105   16.9369 C   0  0  0  0  0  0  0  0  0  0  0  0
   14.0681   64.8636   19.2459 C   0  0  0  0  0  0  0  0  0  0  0  0
   15.9084   63.8533   17.7288 C   0  0  0  0  0  0  0  0  0  0  0  0
   16.8437   65.1300   17.7102 C   0  0  0  0  0  0  0  0  0  0  0  0
   16.0052   66.3808   17.3714 C   0  0  0  0  0  0  0  0  0  0  0  0
   17.9772   64.9906   16.6958 C   0  0  0  0  0  0  0  0  0  0  0  0
   17.3837   65.2615   19.1923 C   0  0  0  0  0  0  0  0  0  0  0  0
   18.2212   66.4617   21.3446 C   0  0  0  0  0  0  0  0  0  0  0  0
   17.7043   66.6136   19.9104 C   0  0  0  0  0  0  0  0  0  0  0  0
   16.5001   67.5752   19.8961 C   0  0  0  0  0  0  0  0  0  0  0  0
   18.8271   67.2988   19.0878 C   0  0  0  0  0  0  0  0  0  0  0  0
   12.0365   60.9246   19.3937 C   0  0  0  0  0  0  0  0  0  0  0  0
   12.7415   60.9214   20.6845 N   0  0  0  0  0  0  0  0  0  0  0  0
   13.2296   62.1103   21.1987 C   0  0  0  0  0  0  0  0  0  0  0  0
   13.8876   62.1566   22.3563 C   0  0  0  0  0  0  0  0  0  0  0  0
   14.3682   63.3048   22.8666 F   0  0  0  0  0  0  0  0  0  0  0  0
   14.1138   60.9169   23.1211 C   0  0  0  0  0  0  0  0  0  0  0  0
   14.7166   60.8962   24.1875 O   0  0  0  0  0  0  0  0  0  0  0  0
   13.6013   59.7848   22.5439 N   0  0  0  0  0  0  0  0  0  0  0  0
   12.9418   59.7076   21.3417 C   0  0  0  0  0  0  0  0  0  0  0  0
   12.5768   58.6177   20.9098 O   0  0  0  0  0  0  0  0  0  0  0  0
   13.7173   58.9427   23.0405 H   0  0  0  0  0  0  0  0  0  0  0  0
 14 15  1  0
 15 16  1  0
 15 17  1  0
 15 13  1  0
 13 10  1  0
 10 11  1  0
 10 12  1  0
 10  9  1  0
  9  6  1  0
  6  7  1  0
  6  8  1  0
  6  5  1  0
  5  1  1  0
  1  2  1  0
  1 18  1  0
 18 19  1  0
 19 20  1  0
 20 21  2  0
 21 22  1  0
 21 23  1  0
 23 24  2  0
 23 25  1  0
 25 26  1  0
 26 27  2  0
 26 19  1  0
  2  3  1  0
  2  4  1  0
 25 28  1  0
M  END
> <minimizedAffinity>
-6.93120

> <CNNscore>
0.2659067512

> <CNNaffinity>
4.9989490509

> <CNN_VS>
1.3292542696

> <CNNaffinity_variance>
0.7351188660

$$$$



 28 28  0  0  0  0  0  0  0  0999 V2000
   18.3733   68.0930   17.6257 C   0  0  0  0  0  0  0  0  0  0  0  0
   18.0497   68.4733   16.2450 N   0  0  0  0  0  0  0  0  0  0  0  0
   18.8670   68.3288   15.6521 H   0  0  0  0  0  0  0  0  0  0  0  0
   17.7793   69.4564   16.2177 H   0  0  0  0  0  0  0  0  0  0  0  0
   19.4927   68.9866   18.2133 C   0  0  0  0  0  0  0  0  0  0  0  0
   19.1163   70.4060   18.7924 C   0  0  0  0  0  0  0  0  0  0  0  0
   19.9459   70.6463   20.0715 C   0  0  0  0  0  0  0  0  0  0  0  0
   19.5678   71.4202   17.7255 C   0  0  0  0  0  0  0  0  0  0  0  0
   17.5804   70.4692   19.0873 C   0  0  0  0  0  0  0  0  0  0  0  0
   16.9114   70.3025   20.5120 C   0  0  0  0  0  0  0  0  0  0  0  0
   17.2920   71.5019   21.4059 C   0  0  0  0  0  0  0  0  0  0  0  0
   17.3421   69.0057   21.1949 C   0  0  0  0  0  0  0  0  0  0  0  0
   15.3530   70.3421   20.2380 C   0  0  0  0  0  0  0  0  0  0  0  0
   13.6270   71.4753   18.6534 C   0  0  0  0  0  0  0  0  0  0  0  0
   14.5419   71.6287   19.8725 C   0  0  0  0  0  0  0  0  0  0  0  0
   15.4573   72.8532   19.6787 C   0  0  0  0  0  0  0  0  0  0  0  0
   13.6345   71.9434   21.0909 C   0  0  0  0  0  0  0  0  0  0  0  0
   18.7216   66.5757   17.7382 C   0  0  0  0  0  0  0  0  0  0  0  0
   17.9011   65.8140   18.6920 N   0  0  0  0  0  0  0  0  0  0  0  0
   16.6904   65.2843   18.2802 C   0  0  0  0  0  0  0  0  0  0  0  0
   15.9050   64.5998   19.1106 C   0  0  0  0  0  0  0  0  0  0  0  0
   14.7256   64.0810   18.7237 F   0  0  0  0  0  0  0  0  0  0  0  0
   16.3199   64.3947   20.5102 C   0  0  0  0  0  0  0  0  0  0  0  0
   15.6376   63.7796   21.3208 O   0  0  0  0  0  0  0  0  0  0  0  0
   17.5286   64.9507   20.8378 N   0  0  0  0  0  0  0  0  0  0  0  0
   18.3439   65.6806   20.0079 C   0  0  0  0  0  0  0  0  0  0  0  0
   19.3823   66.1709   20.4423 O   0  0  0  0  0  0  0  0  0  0  0  0
   17.8441   64.8133   21.7602 H   0  0  0  0  0  0  0  0  0  0  0  0
 14 15  1  0
 15 16  1  0
 15 17  1  0
 15 13  1  0
 13 10  1  0
 10 11  1  0
 10 12  1  0
 10  9  1  0
  9  6  1  0
  6  7  1  0
  6  8  1  0
  6  5  1  0
  5  1  1  0
  1  2  1  0
  1 18  1  0
 18 19  1  0
 19 20  1  0
 20 21  2  0
 21 22  1  0
 21 23  1  0
 23 24  2  0
 23 25  1  0
 25 26  1  0
 26 27  2  0
 26 19  1  0
  2  3  1  0
  2  4  1  0
 25 28  1  0
M  END
> <minimizedAffinity>
-5.84126

> <CNNscore>
0.2276503295

> <CNNaffinity>
4.6228351593

> <CNN_VS>
1.0523899794

> <CNNaffinity_variance>
0.7373433113

$$$$



 28 28  0  0  0  0  0  0  0  0999 V2000
   16.3263   64.6532   18.1917 C   0  0  0  0  0  0  0  0  0  0  0  0
   15.6056   65.9292   18.1030 N   0  0  0  0  0  0  0  0  0  0  0  0
   15.3033   66.2143   19.0345 H   0  0  0  0  0  0  0  0  0  0  0  0
   14.7903   65.8180   17.5002 H   0  0  0  0  0  0  0  0  0  0  0  0
   15.4102   63.5185   18.7113 C   0  0  0  0  0  0  0  0  0  0  0  0
   14.6378   63.7193   20.0733 C   0  0  0  0  0  0  0  0  0  0  0  0
   15.6592   64.1205   21.1585 C   0  0  0  0  0  0  0  0  0  0  0  0
   13.6891   64.9091   19.8384 C   0  0  0  0  0  0  0  0  0  0  0  0
   13.8852   62.4014   20.4565 C   0  0  0  0  0  0  0  0  0  0  0  0
   13.6201   61.8911   21.9311 C   0  0  0  0  0  0  0  0  0  0  0  0
   12.5230   62.7553   22.5883 C   0  0  0  0  0  0  0  0  0  0  0  0
   14.8844   61.9415   22.7868 C   0  0  0  0  0  0  0  0  0  0  0  0
   13.0752   60.4148   21.7600 C   0  0  0  0  0  0  0  0  0  0  0  0
   12.1456   58.4315   20.3542 C   0  0  0  0  0  0  0  0  0  0  0  0
   12.1214   59.9410   20.6144 C   0  0  0  0  0  0  0  0  0  0  0  0
   12.3825   60.6952   19.2961 C   0  0  0  0  0  0  0  0  0  0  0  0
   10.6800   60.3078   21.0556 C   0  0  0  0  0  0  0  0  0  0  0  0
   17.6278   64.7851   19.0430 C   0  0  0  0  0  0  0  0  0  0  0  0
   18.3150   66.0813   18.9395 N   0  0  0  0  0  0  0  0  0  0  0  0
   18.4757   66.6716   17.6978 C   0  0  0  0  0  0  0  0  0  0  0  0
   19.1039   67.8373   17.5508 C   0  0  0  0  0  0  0  0  0  0  0  0
   19.2680   68.4211   16.3500 F   0  0  0  0  0  0  0  0  0  0  0  0
   19.6519   68.5288   18.7318 C   0  0  0  0  0  0  0  0  0  0  0  0
   20.2440   69.5988   18.6583 O   0  0  0  0  0  0  0  0  0  0  0  0
   19.4523   67.8788   19.9214 N   0  0  0  0  0  0  0  0  0  0  0  0
   18.8306   66.6667   20.0958 C   0  0  0  0  0  0  0  0  0  0  0  0
   18.7630   66.1660   21.2148 O   0  0  0  0  0  0  0  0  0  0  0  0
   19.7881   68.3252   20.7320 H   0  0  0  0  0  0  0  0  0  0  0  0
 14 15  1  0
 15 16  1  0
 15 17  1  0
 15 13  1  0
 13 10  1  0
 10 11  1  0
 10 12  1  0
 10  9  1  0
  9  6  1  0
  6  7  1  0
  6  8  1  0
  6  5  1  0
  5  1  1  0
  1  2  1  0
  1 18  1  0
 18 19  1  0
 19 20  1  0
 20 21  2  0
 21 22  1  0
 21 23  1  0
 23 24  2  0
 23 25  1  0
 25 26  1  0
 26 27  2  0
 26 19  1  0
  2  3  1  0
  2  4  1  0
 25 28  1  0
M  END
> <minimizedAffinity>
-6.13653

> <CNNscore>
0.1930901706

> <CNNaffinity>
5.1176185608

> <CNN_VS>
0.9881618619

> <CNNaffinity_variance>
0.3668299615

$$$$



 28 28  0  0  0  0  0  0  0  0999 V2000
   14.5832   65.3514   19.0342 C   0  0  0  0  0  0  0  0  0  0  0  0
   13.3439   66.1371   19.0826 N   0  0  0  0  0  0  0  0  0  0  0  0
   12.9415   66.1952   18.1471 H   0  0  0  0  0  0  0  0  0  0  0  0
   13.5499   67.0763   19.4230 H   0  0  0  0  0  0  0  0  0  0  0  0
   15.6540   66.0337   18.1484 C   0  0  0  0  0  0  0  0  0  0  0  0
   17.1743   65.6670   18.3632 C   0  0  0  0  0  0  0  0  0  0  0  0
   17.2666   64.6047   19.4790 C   0  0  0  0  0  0  0  0  0  0  0  0
   17.6341   65.0225   17.0426 C   0  0  0  0  0  0  0  0  0  0  0  0
   17.9843   66.9546   18.7318 C   0  0  0  0  0  0  0  0  0  0  0  0
   17.9394   67.6994   20.1276 C   0  0  0  0  0  0  0  0  0  0  0  0
   18.0555   66.6668   21.2690 C   0  0  0  0  0  0  0  0  0  0  0  0
   16.6528   68.5042   20.3023 C   0  0  0  0  0  0  0  0  0  0  0  0
   19.2253   68.6223   20.1391 C   0  0  0  0  0  0  0  0  0  0  0  0
   18.1543   70.4280   18.6008 C   0  0  0  0  0  0  0  0  0  0  0  0
   19.4397   69.8684   19.2183 C   0  0  0  0  0  0  0  0  0  0  0  0
   20.4689   69.5936   18.1045 C   0  0  0  0  0  0  0  0  0  0  0  0
   20.0429   70.9835   20.1123 C   0  0  0  0  0  0  0  0  0  0  0  0
   14.3144   63.8792   18.5911 C   0  0  0  0  0  0  0  0  0  0  0  0
   13.9388   62.9578   19.6742 N   0  0  0  0  0  0  0  0  0  0  0  0
   14.3455   63.2255   20.9699 C   0  0  0  0  0  0  0  0  0  0  0  0
   14.0432   62.4139   21.9823 C   0  0  0  0  0  0  0  0  0  0  0  0
   14.4333   62.6615   23.2457 F   0  0  0  0  0  0  0  0  0  0  0  0
   13.2579   61.1915   21.7327 C   0  0  0  0  0  0  0  0  0  0  0  0
   12.9549   60.4049   22.6216 O   0  0  0  0  0  0  0  0  0  0  0  0
   12.8960   60.9990   20.4252 N   0  0  0  0  0  0  0  0  0  0  0  0
   13.2157   61.8068   19.3615 C   0  0  0  0  0  0  0  0  0  0  0  0
   12.8720   61.4920   18.2256 O   0  0  0  0  0  0  0  0  0  0  0  0
   12.3525   60.2020   20.2286 H   0  0  0  0  0  0  0  0  0  0  0  0
 14 15  1  0
 15 16  1  0
 15 17  1  0
 15 13  1  0
 13 10  1  0
 10 11  1  0
 10 12  1  0
 10  9  1  0
  9  6  1  0
  6  7  1  0
  6  8  1  0
  6  5  1  0
  5  1  1  0
  1  2  1  0
  1 18  1  0
 18 19  1  0
 19 20  1  0
 20 21  2  0
 21 22  1  0
 21 23  1  0
 23 24  2  0
 23 25  1  0
 25 26  1  0
 26 27  2  0
 26 19  1  0
  2  3  1  0
  2  4  1  0
 25 28  1  0
M  END
> <minimizedAffinity>
-6.66502

> <CNNscore>
0.1651036739

> <CNNaffinity>
4.9475407600

> <CNN_VS>
0.8168571591

> <CNNaffinity_variance>
0.4220239222

$$$$



 28 28  0  0  0  0  0  0  0  0999 V2000
   17.5671   67.2089   17.5735 C   0  0  0  0  0  0  0  0  0  0  0  0
   18.6844   67.8988   16.9168 N   0  0  0  0  0  0  0  0  0  0  0  0
   19.4513   68.0114   17.5798 H   0  0  0  0  0  0  0  0  0  0  0  0
   18.3757   68.8161   16.5950 H   0  0  0  0  0  0  0  0  0  0  0  0
   16.9988   68.0403   18.7493 C   0  0  0  0  0  0  0  0  0  0  0  0
   17.9891   68.8924   19.6354 C   0  0  0  0  0  0  0  0  0  0  0  0
   17.4886   68.8593   21.0950 C   0  0  0  0  0  0  0  0  0  0  0  0
   19.3394   68.1555   19.5703 C   0  0  0  0  0  0  0  0  0  0  0  0
   18.0631   70.3576   19.0899 C   0  0  0  0  0  0  0  0  0  0  0  0
   18.8476   71.5521   19.7704 C   0  0  0  0  0  0  0  0  0  0  0  0
   18.9041   72.7525   18.8018 C   0  0  0  0  0  0  0  0  0  0  0  0
   20.2684   71.1503   20.1618 C   0  0  0  0  0  0  0  0  0  0  0  0
   17.9734   71.9499   21.0286 C   0  0  0  0  0  0  0  0  0  0  0  0
   17.9038   74.5490   20.9108 C   0  0  0  0  0  0  0  0  0  0  0  0
   17.1190   73.2547   21.1472 C   0  0  0  0  0  0  0  0  0  0  0  0
   16.3789   73.3402   22.4963 C   0  0  0  0  0  0  0  0  0  0  0  0
   16.0269   73.1727   20.0483 C   0  0  0  0  0  0  0  0  0  0  0  0
   17.9634   65.7667   18.0195 C   0  0  0  0  0  0  0  0  0  0  0  0
   16.9714   65.0754   18.8569 N   0  0  0  0  0  0  0  0  0  0  0  0
   15.8012   64.6081   18.2839 C   0  0  0  0  0  0  0  0  0  0  0  0
   14.8660   63.9891   19.0030 C   0  0  0  0  0  0  0  0  0  0  0  0
   13.7239   63.5313   18.4590 F   0  0  0  0  0  0  0  0  0  0  0  0
   15.0652   63.7915   20.4502 C   0  0  0  0  0  0  0  0  0  0  0  0
   14.2389   63.2354   21.1636 O   0  0  0  0  0  0  0  0  0  0  0  0
   16.2469   64.2834   20.9392 N   0  0  0  0  0  0  0  0  0  0  0  0
   17.2144   64.9459   20.2242 C   0  0  0  0  0  0  0  0  0  0  0  0
   18.2086   65.3846   20.7956 O   0  0  0  0  0  0  0  0  0  0  0  0
   16.4196   64.1485   21.8990 H   0  0  0  0  0  0  0  0  0  0  0  0
 14 15  1  0
 15 16  1  0
 15 17  1  0
 15 13  1  0
 13 10  1  0
 10 11  1  0
 10 12  1  0
 10  9  1  0
  9  6  1  0
  6  7  1  0
  6  8  1  0
  6  5  1  0
  5  1  1  0
  1  2  1  0
  1 18  1  0
 18 19  1  0
 19 20  1  0
 20 21  2  0
 21 22  1  0
 21 23  1  0
 23 24  2  0
 23 25  1  0
 25 26  1  0
 26 27  2  0
 26 19  1  0
  2  3  1  0
  2  4  1  0
 25 28  1  0
M  END
> <minimizedAffinity>
-5.44804

> <CNNscore>
0.1622356325

> <CNNaffinity>
4.5388569832

> <CNN_VS>
0.7363643050

> <CNNaffinity_variance>
0.5719676614

$$$$



 28 28  0  0  0  0  0  0  0  0999 V2000
   14.8792   66.3989   16.7683 C   0  0  0  0  0  0  0  0  0  0  0  0
   13.6528   66.5539   15.9763 N   0  0  0  0  0  0  0  0  0  0  0  0
   13.7998   66.1694   15.0431 H   0  0  0  0  0  0  0  0  0  0  0  0
   13.4182   67.5439   15.9031 H   0  0  0  0  0  0  0  0  0  0  0  0
   16.0555   67.1977   16.1558 C   0  0  0  0  0  0  0  0  0  0  0  0
   16.8831   68.1741   17.0798 C   0  0  0  0  0  0  0  0  0  0  0  0
   18.3229   67.6308   17.1971 C   0  0  0  0  0  0  0  0  0  0  0  0
   16.9321   69.5149   16.3245 C   0  0  0  0  0  0  0  0  0  0  0  0
   16.1983   68.2854   18.4829 C   0  0  0  0  0  0  0  0  0  0  0  0
   16.7695   69.0872   19.7222 C   0  0  0  0  0  0  0  0  0  0  0  0
   17.7834   70.1430   19.2326 C   0  0  0  0  0  0  0  0  0  0  0  0
   17.4479   68.1649   20.7334 C   0  0  0  0  0  0  0  0  0  0  0  0
   15.5157   69.8294   20.3408 C   0  0  0  0  0  0  0  0  0  0  0  0
   16.1097   72.2798   19.6951 C   0  0  0  0  0  0  0  0  0  0  0  0
   15.0035   71.2396   19.8985 C   0  0  0  0  0  0  0  0  0  0  0  0
   13.9424   71.7987   20.8662 C   0  0  0  0  0  0  0  0  0  0  0  0
   14.2970   71.0474   18.5308 C   0  0  0  0  0  0  0  0  0  0  0  0
   15.2437   64.8956   16.9766 C   0  0  0  0  0  0  0  0  0  0  0  0
   15.2046   64.4292   18.3709 N   0  0  0  0  0  0  0  0  0  0  0  0
   16.1653   64.8691   19.2651 C   0  0  0  0  0  0  0  0  0  0  0  0
   16.1810   64.4638   20.5342 C   0  0  0  0  0  0  0  0  0  0  0  0
   17.1095   64.8824   21.4130 F   0  0  0  0  0  0  0  0  0  0  0  0
   15.1568   63.5186   21.0146 C   0  0  0  0  0  0  0  0  0  0  0  0
   15.1238   63.1062   22.1678 O   0  0  0  0  0  0  0  0  0  0  0  0
   14.2445   63.1313   20.0685 N   0  0  0  0  0  0  0  0  0  0  0  0
   14.2217   63.5151   18.7501 C   0  0  0  0  0  0  0  0  0  0  0  0
   13.3764   63.0519   17.9896 O   0  0  0  0  0  0  0  0  0  0  0  0
   13.5344   62.5164   20.3633 H   0  0  0  0  0  0  0  0  0  0  0  0
 14 15  1  0
 15 16  1  0
 15 17  1  0
 15 13  1  0
 13 10  1  0
 10 11  1  0
 10 12  1  0
 10  9  1  0
  9  6  1  0
  6  7  1  0
  6  8  1  0
  6  5  1  0
  5  1  1  0
  1  2  1  0
  1 18  1  0
 18 19  1  0
 19 20  1  0
 20 21  2  0
 21 22  1  0
 21 23  1  0
 23 24  2  0
 23 25  1  0
 25 26  1  0
 26 27  2  0
 26 19  1  0
  2  3  1  0
  2  4  1  0
 25 28  1  0
M  END
> <minimizedAffinity>
-4.75286

> <CNNscore>
0.1411714852

> <CNNaffinity>
4.5791735649

> <CNN_VS>
0.6464487314

> <CNNaffinity_variance>
0.5752384663

$$$$



 28 28  0  0  0  0  0  0  0  0999 V2000
   14.4953   66.2541   16.8668 C   0  0  0  0  0  0  0  0  0  0  0  0
   13.1230   66.3961   16.3646 N   0  0  0  0  0  0  0  0  0  0  0  0
   13.0550   65.9759   15.4377 H   0  0  0  0  0  0  0  0  0  0  0  0
   12.8825   67.3857   16.3079 H   0  0  0  0  0  0  0  0  0  0  0  0
   15.5076   67.0147   15.9760 C   0  0  0  0  0  0  0  0  0  0  0  0
   16.5695   67.9623   16.6588 C   0  0  0  0  0  0  0  0  0  0  0  0
   17.9792   67.5058   16.2270 C   0  0  0  0  0  0  0  0  0  0  0  0
   16.3129   69.3618   16.0702 C   0  0  0  0  0  0  0  0  0  0  0  0
   16.4040   67.9116   18.2145 C   0  0  0  0  0  0  0  0  0  0  0  0
   17.2007   68.8026   19.2520 C   0  0  0  0  0  0  0  0  0  0  0  0
   17.2453   68.0891   20.6199 C   0  0  0  0  0  0  0  0  0  0  0  0
   16.5678   70.1825   19.4214 C   0  0  0  0  0  0  0  0  0  0  0  0
   18.6707   68.8890   18.6712 C   0  0  0  0  0  0  0  0  0  0  0  0
   18.7422   71.3827   17.9292 C   0  0  0  0  0  0  0  0  0  0  0  0
   19.5058   70.2054   18.5439 C   0  0  0  0  0  0  0  0  0  0  0  0
   20.8199   69.9835   17.7698 C   0  0  0  0  0  0  0  0  0  0  0  0
   19.9059   70.6195   19.9844 C   0  0  0  0  0  0  0  0  0  0  0  0
   14.8905   64.7548   17.0457 C   0  0  0  0  0  0  0  0  0  0  0  0
   14.9225   64.2773   18.4364 N   0  0  0  0  0  0  0  0  0  0  0  0
   15.8692   64.7833   19.3104 C   0  0  0  0  0  0  0  0  0  0  0  0
   15.9479   64.3717   20.5751 C   0  0  0  0  0  0  0  0  0  0  0  0
   16.8638   64.8541   21.4342 F   0  0  0  0  0  0  0  0  0  0  0  0
   15.0113   63.3477   21.0725 C   0  0  0  0  0  0  0  0  0  0  0  0
   15.0391   62.9262   22.2224 O   0  0  0  0  0  0  0  0  0  0  0  0
   14.1075   62.8982   20.1459 N   0  0  0  0  0  0  0  0  0  0  0  0
   14.0221   63.2882   18.8318 C   0  0  0  0  0  0  0  0  0  0  0  0
   13.1955   62.7668   18.0885 O   0  0  0  0  0  0  0  0  0  0  0  0
   13.4540   62.2289   20.4528 H   0  0  0  0  0  0  0  0  0  0  0  0
 14 15  1  0
 15 16  1  0
 15 17  1  0
 15 13  1  0
 13 10  1  0
 10 11  1  0
 10 12  1  0
 10  9  1  0
  9  6  1  0
  6  7  1  0
  6  8  1  0
  6  5  1  0
  5  1  1  0
  1  2  1  0
  1 18  1  0
 18 19  1  0
 19 20  1  0
 20 21  2  0
 21 22  1  0
 21 23  1  0
 23 24  2  0
 23 25  1  0
 25 26  1  0
 26 27  2  0
 26 19  1  0
  2  3  1  0
  2  4  1  0
 25 28  1  0
M  END
> <minimizedAffinity>
-4.80462

> <CNNscore>
0.1406852752

> <CNNaffinity>
4.6810631752

> <CNN_VS>
0.6585566401

> <CNNaffinity_variance>
0.4120162427

$$$$



 28 28  0  0  0  0  0  0  0  0999 V2000
   15.5691   64.6498   17.8244 C   0  0  0  0  0  0  0  0  0  0  0  0
   16.8369   63.9170   17.9300 N   0  0  0  0  0  0  0  0  0  0  0  0
   16.8688   63.4193   18.8198 H   0  0  0  0  0  0  0  0  0  0  0  0
   17.6150   64.5746   17.8802 H   0  0  0  0  0  0  0  0  0  0  0  0
   15.4450   65.7313   18.9253 C   0  0  0  0  0  0  0  0  0  0  0  0
   15.7778   67.2322   18.5670 C   0  0  0  0  0  0  0  0  0  0  0  0
   16.1503   67.3053   17.0711 C   0  0  0  0  0  0  0  0  0  0  0  0
   14.4643   68.0077   18.7768 C   0  0  0  0  0  0  0  0  0  0  0  0
   16.9457   67.7481   19.4724 C   0  0  0  0  0  0  0  0  0  0  0  0
   18.4390   67.2250   19.4314 C   0  0  0  0  0  0  0  0  0  0  0  0
   18.8434   66.9284   17.9717 C   0  0  0  0  0  0  0  0  0  0  0  0
   18.6239   65.9642   20.2738 C   0  0  0  0  0  0  0  0  0  0  0  0
   19.3092   68.4330   19.9686 C   0  0  0  0  0  0  0  0  0  0  0  0
   20.3694   69.6101   17.9035 C   0  0  0  0  0  0  0  0  0  0  0  0
   19.5593   69.7688   19.1941 C   0  0  0  0  0  0  0  0  0  0  0  0
   20.2166   70.8398   20.0863 C   0  0  0  0  0  0  0  0  0  0  0  0
   18.1649   70.3199   18.7961 C   0  0  0  0  0  0  0  0  0  0  0  0
   14.3440   63.6829   17.8189 C   0  0  0  0  0  0  0  0  0  0  0  0
   14.0633   63.0203   19.1015 N   0  0  0  0  0  0  0  0  0  0  0  0
   14.5878   63.5451   20.2702 C   0  0  0  0  0  0  0  0  0  0  0  0
   14.3742   62.9730   21.4543 C   0  0  0  0  0  0  0  0  0  0  0  0
   14.8790   63.4718   22.5971 F   0  0  0  0  0  0  0  0  0  0  0  0
   13.5627   61.7453   21.5397 C   0  0  0  0  0  0  0  0  0  0  0  0
   13.3374   61.1716   22.5984 O   0  0  0  0  0  0  0  0  0  0  0  0
   13.0823   61.2904   20.3398 N   0  0  0  0  0  0  0  0  0  0  0  0
   13.3084   61.8475   19.1050 C   0  0  0  0  0  0  0  0  0  0  0  0
   12.8611   61.3088   18.0965 O   0  0  0  0  0  0  0  0  0  0  0  0
   12.5187   60.4836   20.3654 H   0  0  0  0  0  0  0  0  0  0  0  0
 14 15  1  0
 15 16  1  0
 15 17  1  0
 15 13  1  0
 13 10  1  0
 10 11  1  0
 10 12  1  0
 10  9  1  0
  9  6  1  0
  6  7  1  0
  6  8  1  0
  6  5  1  0
  5  1  1  0
  1  2  1  0
  1 18  1  0
 18 19  1  0
 19 20  1  0
 20 21  2  0
 21 22  1  0
 21 23  1  0
 23 24  2  0
 23 25  1  0
 25 26  1  0
 26 27  2  0
 26 19  1  0
  2  3  1  0
  2  4  1  0
 25 28  1  0
M  END
> <minimizedAffinity>
-6.17978

> <CNNscore>
0.1372582912

> <CNNaffinity>
4.6491971016

> <CNN_VS>
0.6381408572

> <CNNaffinity_variance>
0.6348881125

$$$$



 28 28  0  0  0  0  0  0  0  0999 V2000
   19.2986   68.9173   19.1439 C   0  0  0  0  0  0  0  0  0  0  0  0
   20.5258   69.4037   18.5015 N   0  0  0  0  0  0  0  0  0  0  0  0
   21.2541   69.5227   19.2057 H   0  0  0  0  0  0  0  0  0  0  0  0
   20.3409   70.2990   18.0490 H   0  0  0  0  0  0  0  0  0  0  0  0
   18.7461   69.9435   20.1630 C   0  0  0  0  0  0  0  0  0  0  0  0
   17.1959   70.2407   20.1884 C   0  0  0  0  0  0  0  0  0  0  0  0
   16.4930   69.0988   20.9526 C   0  0  0  0  0  0  0  0  0  0  0  0
   17.0375   71.5374   21.0034 C   0  0  0  0  0  0  0  0  0  0  0  0
   16.6551   70.3664   18.7249 C   0  0  0  0  0  0  0  0  0  0  0  0
   16.9906   71.5423   17.7200 C   0  0  0  0  0  0  0  0  0  0  0  0
   17.7388   70.9773   16.4938 C   0  0  0  0  0  0  0  0  0  0  0  0
   17.8423   72.6269   18.3769 C   0  0  0  0  0  0  0  0  0  0  0  0
   15.5824   72.0929   17.2518 C   0  0  0  0  0  0  0  0  0  0  0  0
   13.0377   71.9646   16.7206 C   0  0  0  0  0  0  0  0  0  0  0  0
   14.2133   71.3827   17.5121 C   0  0  0  0  0  0  0  0  0  0  0  0
   13.8571   71.3461   19.0111 C   0  0  0  0  0  0  0  0  0  0  0  0
   14.3846   69.9079   17.0622 C   0  0  0  0  0  0  0  0  0  0  0  0
   19.5050   67.5111   19.7889 C   0  0  0  0  0  0  0  0  0  0  0  0
   18.5745   66.4688   19.3295 N   0  0  0  0  0  0  0  0  0  0  0  0
   17.9047   65.6934   20.2602 C   0  0  0  0  0  0  0  0  0  0  0  0
   17.0634   64.7275   19.8937 C   0  0  0  0  0  0  0  0  0  0  0  0
   16.4072   63.9658   20.7876 F   0  0  0  0  0  0  0  0  0  0  0  0
   16.8308   64.4618   18.4625 C   0  0  0  0  0  0  0  0  0  0  0  0
   16.0741   63.5840   18.0653 O   0  0  0  0  0  0  0  0  0  0  0  0
   17.5318   65.2710   17.6073 N   0  0  0  0  0  0  0  0  0  0  0  0
   18.4221   66.2555   17.9596 C   0  0  0  0  0  0  0  0  0  0  0  0
   19.0271   66.8768   17.0904 O   0  0  0  0  0  0  0  0  0  0  0  0
   17.3823   65.1328   16.6441 H   0  0  0  0  0  0  0  0  0  0  0  0
 14 15  1  0
 15 16  1  0
 15 17  1  0
 15 13  1  0
 13 10  1  0
 10 11  1  0
 10 12  1  0
 10  9  1  0
  9  6  1  0
  6  7  1  0
  6  8  1  0
  6  5  1  0
  5  1  1  0
  1  2  1  0
  1 18  1  0
 18 19  1  0
 19 20  1  0
 20 21  2  0
 21 22  1  0
 21 23  1  0
 23 24  2  0
 23 25  1  0
 25 26  1  0
 26 27  2  0
 26 19  1  0
  2  3  1  0
  2  4  1  0
 25 28  1  0
M  END
> <minimizedAffinity>
-5.00318

> <CNNscore>
0.1367249638

> <CNNaffinity>
4.2565312386

> <CNN_VS>
0.5819740891

> <CNNaffinity_variance>
0.8641939163

$$$$
