


 42 43  0  0  0  0  0  0  0  0999 V2000
   35.6686   42.3912   -5.9831 P   0  0  0  0  0  0  0  0  0  0  0  0
   36.9948   42.4313   -6.6791 O   0  0  0  0  0  0  0  0  0  0  0  0
   35.0488   43.8717   -5.8397 O   0  0  0  0  0  0  0  0  0  0  0  0
   35.6645   44.4333   -5.3434 H   0  0  0  0  0  0  0  0  0  0  0  0
   35.6711   41.9038   -4.4164 N   0  0  0  0  0  0  0  0  0  0  0  0
   34.7779   42.1775   -4.0070 H   0  0  0  0  0  0  0  0  0  0  0  0
   36.7497   42.4447   -3.5454 C   0  0  0  0  0  0  0  0  0  0  0  0
   37.9401   41.4664   -3.5848 C   0  0  0  0  0  0  0  0  0  0  0  0
   39.0918   41.8370   -3.7983 O   0  0  0  0  0  0  0  0  0  0  0  0
   37.6087   40.1457   -3.3454 N   0  0  0  0  0  0  0  0  0  0  0  0
   36.6970   39.9073   -3.0604 H   0  0  0  0  0  0  0  0  0  0  0  0
   38.6220   39.1047   -3.5184 C   0  0  0  0  0  0  0  0  0  0  0  0
   38.4265   38.0166   -2.4724 C   0  0  0  0  0  0  0  0  0  0  0  0
   38.5852   38.4653   -4.9130 C   0  0  0  0  0  0  0  0  0  0  0  0
   37.5864   38.2912   -5.5949 O   0  0  0  0  0  0  0  0  0  0  0  0
   39.7986   38.1420   -5.4118 O   0  0  0  0  0  0  0  0  0  0  0  0
   40.5683   38.2732   -4.8937 H   0  0  0  0  0  0  0  0  0  0  0  0
   36.1884   42.6528   -2.1276 C   0  0  0  0  0  0  0  0  0  0  0  0
   36.8330   42.3095    0.3354 C   0  0  0  0  0  0  0  0  0  0  0  0
   37.1808   42.9811   -0.9913 C   0  0  0  0  0  0  0  0  0  0  0  0
   37.4083   44.4816   -0.8038 C   0  0  0  0  0  0  0  0  0  0  0  0
   34.3906   41.4780   -6.9339 C   0  0  0  0  0  0  0  0  0  0  0  0
   34.3815   41.9753   -8.3159 N   0  0  0  0  0  0  0  0  0  0  0  0
   33.6116   43.0312   -8.6882 C   0  0  0  0  0  0  0  0  0  0  0  0
   32.7681   43.5510   -7.9683 O   0  0  0  0  0  0  0  0  0  0  0  0
   34.9472   41.5326   -8.9891 H   0  0  0  0  0  0  0  0  0  0  0  0
   33.9671   43.4338   -9.9262 O   0  0  0  0  0  0  0  0  0  0  0  0
   33.3283   42.7346  -11.0023 C   0  0  0  0  0  0  0  0  0  0  0  0
   33.2615   43.6076  -12.2312 C   0  0  0  0  0  0  0  0  0  0  0  0
   33.5588   44.9764  -12.1509 C   0  0  0  0  0  0  0  0  0  0  0  0
   33.5222   45.7765  -13.2955 C   0  0  0  0  0  0  0  0  0  0  0  0
   33.1902   45.2111  -14.5253 C   0  0  0  0  0  0  0  0  0  0  0  0
   33.1470   46.1931  -15.9373 Cl  0  0  0  0  0  0  0  0  0  0  0  0
   32.8947   43.8530  -14.6207 C   0  0  0  0  0  0  0  0  0  0  0  0
   32.9312   43.0527  -13.4767 C   0  0  0  0  0  0  0  0  0  0  0  0
   34.6259   39.9634   -6.8986 C   0  0  0  0  0  0  0  0  0  0  0  0
   33.4884   39.1617   -7.4884 C   0  0  0  0  0  0  0  0  0  0  0  0
   32.8192   38.1995   -6.7168 C   0  0  0  0  0  0  0  0  0  0  0  0
   31.7642   37.4636   -7.2590 C   0  0  0  0  0  0  0  0  0  0  0  0
   31.3734   37.6750   -8.5796 C   0  0  0  0  0  0  0  0  0  0  0  0
   32.0372   38.6209   -9.3584 C   0  0  0  0  0  0  0  0  0  0  0  0
   33.0920   39.3598   -8.8173 C   0  0  0  0  0  0  0  0  0  0  0  0
 19 20  1  0
 20 21  1  0
 20 18  1  0
  7 18  1  0
  7  5  1  0
  5  1  1  0
  1  2  2  0
  1  3  1  0
  1 22  1  0
 22 36  1  0
 36 37  1  0
 37 38  2  0
 38 39  1  0
 39 40  2  0
 40 41  1  0
 41 42  2  0
 22 23  1  0
 23 24  1  0
 24 25  2  0
 24 27  1  0
 27 28  1  0
 28 29  1  0
 29 30  2  0
 30 31  1  0
 31 32  2  0
 32 33  1  0
 32 34  1  0
 34 35  2  0
  7  8  1  0
  8  9  2  0
  8 10  1  0
 10 12  1  0
 12 13  1  0
 12 14  1  0
 14 15  2  0
 14 16  1  0
 42 37  1  0
 35 29  1  0
  5  6  1  0
  3  4  1  0
 23 26  1  0
 10 11  1  0
 16 17  1  0
M  END
> <minimizedAffinity>
-9.73132

> <CNNscore>
0.8183978200

> <CNNaffinity>
7.6839041710

> <CNN_VS>
6.2884902954

> <CNNaffinity_variance>
0.0195272788

$$$$



 42 43  0  0  0  0  0  0  0  0999 V2000
   35.6026   42.2637   -5.9945 P   0  0  0  0  0  0  0  0  0  0  0  0
   36.9610   42.2359   -6.6260 O   0  0  0  0  0  0  0  0  0  0  0  0
   35.0521   43.7738   -5.8795 O   0  0  0  0  0  0  0  0  0  0  0  0
   35.6708   44.3044   -5.3536 H   0  0  0  0  0  0  0  0  0  0  0  0
   35.5053   41.7791   -4.4300 N   0  0  0  0  0  0  0  0  0  0  0  0
   34.5628   41.9880   -4.1006 H   0  0  0  0  0  0  0  0  0  0  0  0
   36.4633   42.3971   -3.4735 C   0  0  0  0  0  0  0  0  0  0  0  0
   37.7933   41.6220   -3.5514 C   0  0  0  0  0  0  0  0  0  0  0  0
   38.8656   42.1736   -3.7860 O   0  0  0  0  0  0  0  0  0  0  0  0
   37.6826   40.2633   -3.3209 N   0  0  0  0  0  0  0  0  0  0  0  0
   36.8277   39.8799   -3.0186 H   0  0  0  0  0  0  0  0  0  0  0  0
   38.8446   39.3991   -3.5292 C   0  0  0  0  0  0  0  0  0  0  0  0
   38.9956   38.4464   -2.3519 C   0  0  0  0  0  0  0  0  0  0  0  0
   38.7510   38.5789   -4.8229 C   0  0  0  0  0  0  0  0  0  0  0  0
   37.7236   38.3059   -5.4250 O   0  0  0  0  0  0  0  0  0  0  0  0
   39.9442   38.2035   -5.3341 O   0  0  0  0  0  0  0  0  0  0  0  0
   40.7356   38.4100   -4.8770 H   0  0  0  0  0  0  0  0  0  0  0  0
   35.8409   42.3845   -2.0660 C   0  0  0  0  0  0  0  0  0  0  0  0
   37.2296   44.4885   -1.5718 C   0  0  0  0  0  0  0  0  0  0  0  0
   36.4490   43.3114   -0.9913 C   0  0  0  0  0  0  0  0  0  0  0  0
   37.2803   42.5622    0.0510 C   0  0  0  0  0  0  0  0  0  0  0  0
   34.3272   41.4149   -7.0065 C   0  0  0  0  0  0  0  0  0  0  0  0
   34.3506   41.9726   -8.3650 N   0  0  0  0  0  0  0  0  0  0  0  0
   33.5947   43.0489   -8.7065 C   0  0  0  0  0  0  0  0  0  0  0  0
   32.7388   43.5418   -7.9825 O   0  0  0  0  0  0  0  0  0  0  0  0
   34.9282   41.5564   -9.0450 H   0  0  0  0  0  0  0  0  0  0  0  0
   33.9790   43.5033   -9.9177 O   0  0  0  0  0  0  0  0  0  0  0  0
   33.4196   42.8046  -11.0374 C   0  0  0  0  0  0  0  0  0  0  0  0
   33.3591   43.7077  -12.2447 C   0  0  0  0  0  0  0  0  0  0  0  0
   33.0164   43.1931  -13.5041 C   0  0  0  0  0  0  0  0  0  0  0  0
   32.9349   44.0367  -14.6147 C   0  0  0  0  0  0  0  0  0  0  0  0
   33.1939   45.3985  -14.4703 C   0  0  0  0  0  0  0  0  0  0  0  0
   33.0917   46.4406  -15.8354 Cl  0  0  0  0  0  0  0  0  0  0  0  0
   33.5333   45.9241  -13.2255 C   0  0  0  0  0  0  0  0  0  0  0  0
   33.6147   45.0811  -12.1150 C   0  0  0  0  0  0  0  0  0  0  0  0
   34.5377   39.8964   -7.0343 C   0  0  0  0  0  0  0  0  0  0  0  0
   33.3481   39.1317   -7.5677 C   0  0  0  0  0  0  0  0  0  0  0  0
   32.8072   39.4411   -8.8250 C   0  0  0  0  0  0  0  0  0  0  0  0
   31.7128   38.7307   -9.3210 C   0  0  0  0  0  0  0  0  0  0  0  0
   31.1421   37.7108   -8.5623 C   0  0  0  0  0  0  0  0  0  0  0  0
   31.6647   37.4014   -7.3081 C   0  0  0  0  0  0  0  0  0  0  0  0
   32.7610   38.1097   -6.8105 C   0  0  0  0  0  0  0  0  0  0  0  0
 19 20  1  0
 20 21  1  0
 20 18  1  0
  7 18  1  0
  7  5  1  0
  5  1  1  0
  1  2  2  0
  1  3  1  0
  1 22  1  0
 22 36  1  0
 36 37  1  0
 37 38  2  0
 38 39  1  0
 39 40  2  0
 40 41  1  0
 41 42  2  0
 22 23  1  0
 23 24  1  0
 24 25  2  0
 24 27  1  0
 27 28  1  0
 28 29  1  0
 29 30  2  0
 30 31  1  0
 31 32  2  0
 32 33  1  0
 32 34  1  0
 34 35  2  0
  7  8  1  0
  8  9  2  0
  8 10  1  0
 10 12  1  0
 12 13  1  0
 12 14  1  0
 14 15  2  0
 14 16  1  0
 42 37  1  0
 35 29  1  0
  5  6  1  0
  3  4  1  0
 23 26  1  0
 10 11  1  0
 16 17  1  0
M  END
> <minimizedAffinity>
-9.77789

> <CNNscore>
0.7720308304

> <CNNaffinity>
7.5051598549

> <CNN_VS>
5.7942147255

> <CNNaffinity_variance>
0.0629583076

$$$$



 42 43  0  0  0  0  0  0  0  0999 V2000
   35.7257   42.3291   -6.0514 P   0  0  0  0  0  0  0  0  0  0  0  0
   36.9857   42.3632   -6.8615 O   0  0  0  0  0  0  0  0  0  0  0  0
   35.2197   43.8207   -5.7111 O   0  0  0  0  0  0  0  0  0  0  0  0
   35.9122   44.2937   -5.2236 H   0  0  0  0  0  0  0  0  0  0  0  0
   35.8332   41.6878   -4.5450 N   0  0  0  0  0  0  0  0  0  0  0  0
   34.9136   41.7653   -4.1106 H   0  0  0  0  0  0  0  0  0  0  0  0
   36.8213   42.3059   -3.6197 C   0  0  0  0  0  0  0  0  0  0  0  0
   37.9804   41.3110   -3.4141 C   0  0  0  0  0  0  0  0  0  0  0  0
   39.1396   41.5757   -3.7229 O   0  0  0  0  0  0  0  0  0  0  0  0
   37.6122   40.1076   -2.8415 N   0  0  0  0  0  0  0  0  0  0  0  0
   36.6979   39.9810   -2.4991 H   0  0  0  0  0  0  0  0  0  0  0  0
   38.5904   39.0238   -2.7478 C   0  0  0  0  0  0  0  0  0  0  0  0
   38.2598   38.1329   -1.5590 C   0  0  0  0  0  0  0  0  0  0  0  0
   38.6443   38.1606   -4.0155 C   0  0  0  0  0  0  0  0  0  0  0  0
   38.1435   37.0544   -4.1505 O   0  0  0  0  0  0  0  0  0  0  0  0
   39.2564   38.7490   -5.0667 O   0  0  0  0  0  0  0  0  0  0  0  0
   39.6423   39.5972   -4.9694 H   0  0  0  0  0  0  0  0  0  0  0  0
   36.1094   42.6801   -2.3075 C   0  0  0  0  0  0  0  0  0  0  0  0
   36.5998   42.5246    0.2095 C   0  0  0  0  0  0  0  0  0  0  0  0
   36.9717   43.1694   -1.1239 C   0  0  0  0  0  0  0  0  0  0  0  0
   37.0198   44.6931   -1.0021 C   0  0  0  0  0  0  0  0  0  0  0  0
   34.3120   41.5902   -6.9606 C   0  0  0  0  0  0  0  0  0  0  0  0
   34.3356   42.0725   -8.3478 N   0  0  0  0  0  0  0  0  0  0  0  0
   33.6122   43.1544   -8.7384 C   0  0  0  0  0  0  0  0  0  0  0  0
   32.7837   43.7152   -8.0320 O   0  0  0  0  0  0  0  0  0  0  0  0
   34.8893   41.6003   -9.0109 H   0  0  0  0  0  0  0  0  0  0  0  0
   33.9949   43.5291   -9.9770 O   0  0  0  0  0  0  0  0  0  0  0  0
   32.9681   44.1286  -10.7779 C   0  0  0  0  0  0  0  0  0  0  0  0
   32.4632   43.1476  -11.8071 C   0  0  0  0  0  0  0  0  0  0  0  0
   31.3414   43.4519  -12.5928 C   0  0  0  0  0  0  0  0  0  0  0  0
   30.8927   42.5530  -13.5635 C   0  0  0  0  0  0  0  0  0  0  0  0
   31.5649   41.3471  -13.7541 C   0  0  0  0  0  0  0  0  0  0  0  0
   31.0166   40.2392  -14.9507 Cl  0  0  0  0  0  0  0  0  0  0  0  0
   32.6816   41.0322  -12.9829 C   0  0  0  0  0  0  0  0  0  0  0  0
   33.1306   41.9306  -12.0124 C   0  0  0  0  0  0  0  0  0  0  0  0
   34.3406   40.0580   -6.9132 C   0  0  0  0  0  0  0  0  0  0  0  0
   34.4656   39.4140   -8.2749 C   0  0  0  0  0  0  0  0  0  0  0  0
   33.3207   39.1064   -9.0258 C   0  0  0  0  0  0  0  0  0  0  0  0
   33.4359   38.5178  -10.2863 C   0  0  0  0  0  0  0  0  0  0  0  0
   34.6949   38.2224  -10.8051 C   0  0  0  0  0  0  0  0  0  0  0  0
   35.8384   38.5143  -10.0641 C   0  0  0  0  0  0  0  0  0  0  0  0
   35.7256   39.1050   -8.8033 C   0  0  0  0  0  0  0  0  0  0  0  0
 19 20  1  0
 20 21  1  0
 20 18  1  0
  7 18  1  0
  7  5  1  0
  5  1  1  0
  1  2  2  0
  1  3  1  0
  1 22  1  0
 22 36  1  0
 36 37  1  0
 37 38  2  0
 38 39  1  0
 39 40  2  0
 40 41  1  0
 41 42  2  0
 22 23  1  0
 23 24  1  0
 24 25  2  0
 24 27  1  0
 27 28  1  0
 28 29  1  0
 29 30  2  0
 30 31  1  0
 31 32  2  0
 32 33  1  0
 32 34  1  0
 34 35  2  0
  7  8  1  0
  8  9  2  0
  8 10  1  0
 10 12  1  0
 12 13  1  0
 12 14  1  0
 14 15  2  0
 14 16  1  0
 42 37  1  0
 35 29  1  0
  5  6  1  0
  3  4  1  0
 23 26  1  0
 10 11  1  0
 16 17  1  0
M  END
> <minimizedAffinity>
-8.38114

> <CNNscore>
0.7682185769

> <CNNaffinity>
7.7980117798

> <CNN_VS>
5.9905776978

> <CNNaffinity_variance>
0.0984626934

$$$$



 42 43  0  0  0  0  0  0  0  0999 V2000
   35.7121   42.3474   -5.7856 P   0  0  0  0  0  0  0  0  0  0  0  0
   37.1172   42.3217   -6.3051 O   0  0  0  0  0  0  0  0  0  0  0  0
   35.1581   43.8580   -5.6989 O   0  0  0  0  0  0  0  0  0  0  0  0
   35.7335   44.3807   -5.1186 H   0  0  0  0  0  0  0  0  0  0  0  0
   35.4869   41.8460   -4.2397 N   0  0  0  0  0  0  0  0  0  0  0  0
   34.5456   42.1221   -3.9602 H   0  0  0  0  0  0  0  0  0  0  0  0
   36.4320   42.3719   -3.2176 C   0  0  0  0  0  0  0  0  0  0  0  0
   37.7386   41.5585   -3.3024 C   0  0  0  0  0  0  0  0  0  0  0  0
   38.8248   42.0786   -3.5452 O   0  0  0  0  0  0  0  0  0  0  0  0
   37.5904   40.2041   -3.0681 N   0  0  0  0  0  0  0  0  0  0  0  0
   36.7268   39.8461   -2.7594 H   0  0  0  0  0  0  0  0  0  0  0  0
   38.7256   39.3063   -3.2821 C   0  0  0  0  0  0  0  0  0  0  0  0
   38.7089   38.1975   -2.2397 C   0  0  0  0  0  0  0  0  0  0  0  0
   38.7277   38.6736   -4.6801 C   0  0  0  0  0  0  0  0  0  0  0  0
   39.6946   38.1819   -5.2423 O   0  0  0  0  0  0  0  0  0  0  0  0
   37.5144   38.6239   -5.2729 O   0  0  0  0  0  0  0  0  0  0  0  0
   36.7691   38.9992   -4.8468 H   0  0  0  0  0  0  0  0  0  0  0  0
   35.7636   42.2943   -1.8334 C   0  0  0  0  0  0  0  0  0  0  0  0
   37.0372   44.4426   -1.2314 C   0  0  0  0  0  0  0  0  0  0  0  0
   36.3000   43.2101   -0.7121 C   0  0  0  0  0  0  0  0  0  0  0  0
   37.1405   42.4644    0.3253 C   0  0  0  0  0  0  0  0  0  0  0  0
   34.5209   41.5141   -6.9072 C   0  0  0  0  0  0  0  0  0  0  0  0
   34.6522   42.0902   -8.2518 N   0  0  0  0  0  0  0  0  0  0  0  0
   33.8426   43.0944   -8.6790 C   0  0  0  0  0  0  0  0  0  0  0  0
   32.8632   43.4937   -8.0615 O   0  0  0  0  0  0  0  0  0  0  0  0
   35.3440   41.7402   -8.8587 H   0  0  0  0  0  0  0  0  0  0  0  0
   34.3229   43.6000   -9.8343 O   0  0  0  0  0  0  0  0  0  0  0  0
   33.3526   44.2488  -10.6666 C   0  0  0  0  0  0  0  0  0  0  0  0
   33.1525   43.4726  -11.9450 C   0  0  0  0  0  0  0  0  0  0  0  0
   33.0206   42.0761  -11.9185 C   0  0  0  0  0  0  0  0  0  0  0  0
   32.8084   41.3631  -13.1010 C   0  0  0  0  0  0  0  0  0  0  0  0
   32.7254   42.0435  -14.3144 C   0  0  0  0  0  0  0  0  0  0  0  0
   32.4614   41.1686  -15.7722 Cl  0  0  0  0  0  0  0  0  0  0  0  0
   32.8524   43.4302  -14.3560 C   0  0  0  0  0  0  0  0  0  0  0  0
   33.0644   44.1435  -13.1741 C   0  0  0  0  0  0  0  0  0  0  0  0
   34.7326   39.9958   -6.9390 C   0  0  0  0  0  0  0  0  0  0  0  0
   33.5496   39.2328   -7.4894 C   0  0  0  0  0  0  0  0  0  0  0  0
   32.9442   38.2157   -6.7358 C   0  0  0  0  0  0  0  0  0  0  0  0
   31.8475   37.5152   -7.2409 C   0  0  0  0  0  0  0  0  0  0  0  0
   31.3507   37.8174   -8.5072 C   0  0  0  0  0  0  0  0  0  0  0  0
   31.9501   38.8187   -9.2686 C   0  0  0  0  0  0  0  0  0  0  0  0
   33.0466   39.5223   -8.7644 C   0  0  0  0  0  0  0  0  0  0  0  0
 19 20  1  0
 20 21  1  0
 20 18  1  0
  7 18  1  0
  7  5  1  0
  5  1  1  0
  1  2  2  0
  1  3  1  0
  1 22  1  0
 22 36  1  0
 36 37  1  0
 37 38  2  0
 38 39  1  0
 39 40  2  0
 40 41  1  0
 41 42  2  0
 22 23  1  0
 23 24  1  0
 24 25  2  0
 24 27  1  0
 27 28  1  0
 28 29  1  0
 29 30  2  0
 30 31  1  0
 31 32  2  0
 32 33  1  0
 32 34  1  0
 34 35  2  0
  7  8  1  0
  8  9  2  0
  8 10  1  0
 10 12  1  0
 12 13  1  0
 12 14  1  0
 14 15  2  0
 14 16  1  0
 42 37  1  0
 35 29  1  0
  5  6  1  0
  3  4  1  0
 23 26  1  0
 10 11  1  0
 16 17  1  0
M  END
> <minimizedAffinity>
-9.75634

> <CNNscore>
0.7400823832

> <CNNaffinity>
7.5616860390

> <CNN_VS>
5.5962705612

> <CNNaffinity_variance>
0.0640188232

$$$$



 42 43  0  0  0  0  0  0  0  0999 V2000
   35.4885   41.9319   -6.0736 P   0  0  0  0  0  0  0  0  0  0  0  0
   36.5512   42.7737   -6.7117 O   0  0  0  0  0  0  0  0  0  0  0  0
   34.1111   42.7557   -5.9292 O   0  0  0  0  0  0  0  0  0  0  0  0
   34.2648   43.5518   -5.3967 H   0  0  0  0  0  0  0  0  0  0  0  0
   35.7416   41.4771   -4.5177 N   0  0  0  0  0  0  0  0  0  0  0  0
   34.8535   41.5624   -4.0233 H   0  0  0  0  0  0  0  0  0  0  0  0
   36.7593   42.2445   -3.7496 C   0  0  0  0  0  0  0  0  0  0  0  0
   37.9523   41.3122   -3.4607 C   0  0  0  0  0  0  0  0  0  0  0  0
   39.1145   41.6376   -3.6902 O   0  0  0  0  0  0  0  0  0  0  0  0
   37.6092   40.0914   -2.9099 N   0  0  0  0  0  0  0  0  0  0  0  0
   36.6814   39.9169   -2.6307 H   0  0  0  0  0  0  0  0  0  0  0  0
   38.6343   39.0607   -2.7447 C   0  0  0  0  0  0  0  0  0  0  0  0
   38.3142   38.2064   -1.5265 C   0  0  0  0  0  0  0  0  0  0  0  0
   38.7623   38.1479   -3.9716 C   0  0  0  0  0  0  0  0  0  0  0  0
   38.2965   37.0235   -4.0796 O   0  0  0  0  0  0  0  0  0  0  0  0
   39.4014   38.7092   -5.0216 O   0  0  0  0  0  0  0  0  0  0  0  0
   39.7607   39.5711   -4.9450 H   0  0  0  0  0  0  0  0  0  0  0  0
   36.1057   42.7993   -2.4714 C   0  0  0  0  0  0  0  0  0  0  0  0
   36.7027   42.5315    0.0128 C   0  0  0  0  0  0  0  0  0  0  0  0
   37.0263   43.2264   -1.3079 C   0  0  0  0  0  0  0  0  0  0  0  0
   37.1038   44.7428   -1.1256 C   0  0  0  0  0  0  0  0  0  0  0  0
   35.0186   40.4802   -7.0949 C   0  0  0  0  0  0  0  0  0  0  0  0
   34.7874   40.9258   -8.4753 N   0  0  0  0  0  0  0  0  0  0  0  0
   33.6510   40.6036   -9.1471 C   0  0  0  0  0  0  0  0  0  0  0  0
   32.8126   39.8122   -8.7341 O   0  0  0  0  0  0  0  0  0  0  0  0
   35.4726   41.4713   -8.9248 H   0  0  0  0  0  0  0  0  0  0  0  0
   33.5785   41.3281  -10.2832 O   0  0  0  0  0  0  0  0  0  0  0  0
   33.1637   42.6898  -10.1135 C   0  0  0  0  0  0  0  0  0  0  0  0
   33.2572   43.4356  -11.4217 C   0  0  0  0  0  0  0  0  0  0  0  0
   32.9088   42.8081  -12.6272 C   0  0  0  0  0  0  0  0  0  0  0  0
   32.9707   43.5098  -13.8336 C   0  0  0  0  0  0  0  0  0  0  0  0
   33.3793   44.8421  -13.8396 C   0  0  0  0  0  0  0  0  0  0  0  0
   33.4539   45.7099  -15.3233 Cl  0  0  0  0  0  0  0  0  0  0  0  0
   33.7262   45.4791  -12.6501 C   0  0  0  0  0  0  0  0  0  0  0  0
   33.6644   44.7781  -11.4438 C   0  0  0  0  0  0  0  0  0  0  0  0
   36.0841   39.3788   -7.0464 C   0  0  0  0  0  0  0  0  0  0  0  0
   35.7993   38.2219   -7.9765 C   0  0  0  0  0  0  0  0  0  0  0  0
   34.8303   37.2627   -7.6451 C   0  0  0  0  0  0  0  0  0  0  0  0
   34.5622   36.1978   -8.5069 C   0  0  0  0  0  0  0  0  0  0  0  0
   35.2656   36.0755   -9.7034 C   0  0  0  0  0  0  0  0  0  0  0  0
   36.2372   37.0167  -10.0382 C   0  0  0  0  0  0  0  0  0  0  0  0
   36.5059   38.0842   -9.1782 C   0  0  0  0  0  0  0  0  0  0  0  0
 19 20  1  0
 20 21  1  0
 20 18  1  0
  7 18  1  0
  7  5  1  0
  5  1  1  0
  1  2  2  0
  1  3  1  0
  1 22  1  0
 22 36  1  0
 36 37  1  0
 37 38  2  0
 38 39  1  0
 39 40  2  0
 40 41  1  0
 41 42  2  0
 22 23  1  0
 23 24  1  0
 24 25  2  0
 24 27  1  0
 27 28  1  0
 28 29  1  0
 29 30  2  0
 30 31  1  0
 31 32  2  0
 32 33  1  0
 32 34  1  0
 34 35  2  0
  7  8  1  0
  8  9  2  0
  8 10  1  0
 10 12  1  0
 12 13  1  0
 12 14  1  0
 14 15  2  0
 14 16  1  0
 42 37  1  0
 35 29  1  0
  5  6  1  0
  3  4  1  0
 23 26  1  0
 10 11  1  0
 16 17  1  0
M  END
> <minimizedAffinity>
-8.90923

> <CNNscore>
0.6861574650

> <CNNaffinity>
7.5705471039

> <CNN_VS>
5.1945872307

> <CNNaffinity_variance>
0.0731779560

$$$$



 42 43  0  0  0  0  0  0  0  0999 V2000
   35.6399   42.2048   -6.2836 P   0  0  0  0  0  0  0  0  0  0  0  0
   34.2585   42.7815   -6.2206 O   0  0  0  0  0  0  0  0  0  0  0  0
   36.7062   43.3155   -6.7587 O   0  0  0  0  0  0  0  0  0  0  0  0
   36.4514   43.6564   -7.6303 H   0  0  0  0  0  0  0  0  0  0  0  0
   35.8995   41.0297   -7.3989 N   0  0  0  0  0  0  0  0  0  0  0  0
   36.3294   41.4676   -8.2136 H   0  0  0  0  0  0  0  0  0  0  0  0
   34.7070   40.2748   -7.8707 C   0  0  0  0  0  0  0  0  0  0  0  0
   34.9538   38.7741   -7.6204 C   0  0  0  0  0  0  0  0  0  0  0  0
   35.6966   38.3671   -6.7305 O   0  0  0  0  0  0  0  0  0  0  0  0
   34.2609   37.9274   -8.4657 N   0  0  0  0  0  0  0  0  0  0  0  0
   33.5856   38.2884   -9.0843 H   0  0  0  0  0  0  0  0  0  0  0  0
   34.5382   36.4912   -8.4345 C   0  0  0  0  0  0  0  0  0  0  0  0
   35.9544   36.2292   -8.9263 C   0  0  0  0  0  0  0  0  0  0  0  0
   34.3789   35.8854   -7.0336 C   0  0  0  0  0  0  0  0  0  0  0  0
   33.3452   35.8461   -6.3835 O   0  0  0  0  0  0  0  0  0  0  0  0
   35.4956   35.2999   -6.5477 O   0  0  0  0  0  0  0  0  0  0  0  0
   36.2914   35.3266   -7.0415 H   0  0  0  0  0  0  0  0  0  0  0  0
   34.4622   40.6053   -9.3538 C   0  0  0  0  0  0  0  0  0  0  0  0
   32.8337   42.5797   -9.1313 C   0  0  0  0  0  0  0  0  0  0  0  0
   33.0979   41.2091   -9.7509 C   0  0  0  0  0  0  0  0  0  0  0  0
   31.9239   40.2604   -9.5052 C   0  0  0  0  0  0  0  0  0  0  0  0
   36.2687   41.6767   -4.6414 C   0  0  0  0  0  0  0  0  0  0  0  0
   37.1015   40.4793   -4.8146 N   0  0  0  0  0  0  0  0  0  0  0  0
   38.3692   40.4168   -4.3296 C   0  0  0  0  0  0  0  0  0  0  0  0
   38.9685   41.3736   -3.8547 O   0  0  0  0  0  0  0  0  0  0  0  0
   36.7320   39.7028   -5.2939 H   0  0  0  0  0  0  0  0  0  0  0  0
   38.8180   39.1463   -4.4037 O   0  0  0  0  0  0  0  0  0  0  0  0
   40.1846   38.9580   -4.0139 C   0  0  0  0  0  0  0  0  0  0  0  0
   40.2690   38.0470   -2.8141 C   0  0  0  0  0  0  0  0  0  0  0  0
   41.4089   37.2586   -2.5956 C   0  0  0  0  0  0  0  0  0  0  0  0
   41.4951   36.4365   -1.4694 C   0  0  0  0  0  0  0  0  0  0  0  0
   40.4431   36.4006   -0.5561 C   0  0  0  0  0  0  0  0  0  0  0  0
   40.5473   35.3913    0.8333 Cl  0  0  0  0  0  0  0  0  0  0  0  0
   39.3059   37.1794   -0.7587 C   0  0  0  0  0  0  0  0  0  0  0  0
   39.2192   38.0016   -1.8844 C   0  0  0  0  0  0  0  0  0  0  0  0
   37.0543   42.7938   -3.9444 C   0  0  0  0  0  0  0  0  0  0  0  0
   36.9208   42.7770   -2.4390 C   0  0  0  0  0  0  0  0  0  0  0  0
   35.9745   41.9487   -1.8164 C   0  0  0  0  0  0  0  0  0  0  0  0
   35.8553   41.9279   -0.4258 C   0  0  0  0  0  0  0  0  0  0  0  0
   36.6736   42.7408    0.3561 C   0  0  0  0  0  0  0  0  0  0  0  0
   37.6100   43.5747   -0.2517 C   0  0  0  0  0  0  0  0  0  0  0  0
   37.7323   43.5959   -1.6431 C   0  0  0  0  0  0  0  0  0  0  0  0
 19 20  1  0
 20 21  1  0
 20 18  1  0
  7 18  1  0
  7  5  1  0
  5  1  1  0
  1  2  2  0
  1  3  1  0
  1 22  1  0
 22 36  1  0
 36 37  1  0
 37 38  2  0
 38 39  1  0
 39 40  2  0
 40 41  1  0
 41 42  2  0
 22 23  1  0
 23 24  1  0
 24 25  2  0
 24 27  1  0
 27 28  1  0
 28 29  1  0
 29 30  2  0
 30 31  1  0
 31 32  2  0
 32 33  1  0
 32 34  1  0
 34 35  2  0
  7  8  1  0
  8  9  2  0
  8 10  1  0
 10 12  1  0
 12 13  1  0
 12 14  1  0
 14 15  2  0
 14 16  1  0
 42 37  1  0
 35 29  1  0
  5  6  1  0
  3  4  1  0
 23 26  1  0
 10 11  1  0
 16 17  1  0
M  END
> <minimizedAffinity>
-8.13549

> <CNNscore>
0.6528068185

> <CNNaffinity>
7.4909343719

> <CNN_VS>
4.8901329041

> <CNNaffinity_variance>
0.0562380068

$$$$



 42 43  0  0  0  0  0  0  0  0999 V2000
   35.8655   42.1677   -5.9434 P   0  0  0  0  0  0  0  0  0  0  0  0
   34.4524   42.6200   -5.7344 O   0  0  0  0  0  0  0  0  0  0  0  0
   36.8029   43.3981   -6.3950 O   0  0  0  0  0  0  0  0  0  0  0  0
   36.4562   43.7850   -7.2142 H   0  0  0  0  0  0  0  0  0  0  0  0
   36.1290   41.1113   -7.1708 N   0  0  0  0  0  0  0  0  0  0  0  0
   36.7536   41.5638   -7.8382 H   0  0  0  0  0  0  0  0  0  0  0  0
   34.9334   40.6406   -7.9216 C   0  0  0  0  0  0  0  0  0  0  0  0
   34.3716   41.8266   -8.7301 C   0  0  0  0  0  0  0  0  0  0  0  0
   34.8818   42.9438   -8.7035 O   0  0  0  0  0  0  0  0  0  0  0  0
   33.2607   41.5267   -9.4966 N   0  0  0  0  0  0  0  0  0  0  0  0
   32.9559   40.5947   -9.5840 H   0  0  0  0  0  0  0  0  0  0  0  0
   32.5413   42.6037  -10.1769 C   0  0  0  0  0  0  0  0  0  0  0  0
   32.4103   43.8025   -9.2483 C   0  0  0  0  0  0  0  0  0  0  0  0
   33.2298   43.0523  -11.4729 C   0  0  0  0  0  0  0  0  0  0  0  0
   33.1978   42.4622  -12.5422 O   0  0  0  0  0  0  0  0  0  0  0  0
   33.8608   44.2441  -11.3869 O   0  0  0  0  0  0  0  0  0  0  0  0
   33.8887   44.7015  -10.5696 H   0  0  0  0  0  0  0  0  0  0  0  0
   33.9167   40.0563   -6.9249 C   0  0  0  0  0  0  0  0  0  0  0  0
   34.6725   37.6879   -7.5720 C   0  0  0  0  0  0  0  0  0  0  0  0
   33.5324   38.5674   -7.0636 C   0  0  0  0  0  0  0  0  0  0  0  0
   32.2610   38.3466   -7.8842 C   0  0  0  0  0  0  0  0  0  0  0  0
   36.6577   41.5646   -4.4007 C   0  0  0  0  0  0  0  0  0  0  0  0
   37.4512   40.3682   -4.7109 N   0  0  0  0  0  0  0  0  0  0  0  0
   38.6601   40.1452   -4.1319 C   0  0  0  0  0  0  0  0  0  0  0  0
   39.2494   40.9657   -3.4395 O   0  0  0  0  0  0  0  0  0  0  0  0
   37.0986   39.7117   -5.3543 H   0  0  0  0  0  0  0  0  0  0  0  0
   39.0589   38.8828   -4.3933 O   0  0  0  0  0  0  0  0  0  0  0  0
   40.4321   38.6019   -4.0925 C   0  0  0  0  0  0  0  0  0  0  0  0
   40.5358   37.7541   -2.8487 C   0  0  0  0  0  0  0  0  0  0  0  0
   41.7227   37.0684   -2.5495 C   0  0  0  0  0  0  0  0  0  0  0  0
   41.8245   36.3060   -1.3833 C   0  0  0  0  0  0  0  0  0  0  0  0
   40.7408   36.2275   -0.5105 C   0  0  0  0  0  0  0  0  0  0  0  0
   40.8639   35.2917    0.9279 Cl  0  0  0  0  0  0  0  0  0  0  0  0
   39.5566   36.9047   -0.7933 C   0  0  0  0  0  0  0  0  0  0  0  0
   39.4544   37.6671   -1.9590 C   0  0  0  0  0  0  0  0  0  0  0  0
   37.5276   42.6440   -3.7457 C   0  0  0  0  0  0  0  0  0  0  0  0
   37.3524   42.7334   -2.2471 C   0  0  0  0  0  0  0  0  0  0  0  0
   36.4603   41.8788   -1.5815 C   0  0  0  0  0  0  0  0  0  0  0  0
   36.3031   41.9565   -0.1966 C   0  0  0  0  0  0  0  0  0  0  0  0
   37.0282   42.8943    0.5356 C   0  0  0  0  0  0  0  0  0  0  0  0
   37.9095   43.7548   -0.1160 C   0  0  0  0  0  0  0  0  0  0  0  0
   38.0699   43.6777   -1.5016 C   0  0  0  0  0  0  0  0  0  0  0  0
 19 20  1  0
 20 21  1  0
 20 18  1  0
  7 18  1  0
  7  5  1  0
  5  1  1  0
  1  2  2  0
  1  3  1  0
  1 22  1  0
 22 36  1  0
 36 37  1  0
 37 38  2  0
 38 39  1  0
 39 40  2  0
 40 41  1  0
 41 42  2  0
 22 23  1  0
 23 24  1  0
 24 25  2  0
 24 27  1  0
 27 28  1  0
 28 29  1  0
 29 30  2  0
 30 31  1  0
 31 32  2  0
 32 33  1  0
 32 34  1  0
 34 35  2  0
  7  8  1  0
  8  9  2  0
  8 10  1  0
 10 12  1  0
 12 13  1  0
 12 14  1  0
 14 15  2  0
 14 16  1  0
 42 37  1  0
 35 29  1  0
  5  6  1  0
  3  4  1  0
 23 26  1  0
 10 11  1  0
 16 17  1  0
M  END
> <minimizedAffinity>
-8.34086

> <CNNscore>
0.6049692035

> <CNNaffinity>
7.4840216637

> <CNN_VS>
4.5276026726

> <CNNaffinity_variance>
0.2029715627

$$$$



 42 43  0  0  0  0  0  0  0  0999 V2000
   35.5061   42.1183   -6.3555 P   0  0  0  0  0  0  0  0  0  0  0  0
   36.4071   43.2209   -6.8218 O   0  0  0  0  0  0  0  0  0  0  0  0
   34.1193   42.7100   -5.7867 O   0  0  0  0  0  0  0  0  0  0  0  0
   34.3036   43.3174   -5.0532 H   0  0  0  0  0  0  0  0  0  0  0  0
   36.0189   41.2401   -5.0680 N   0  0  0  0  0  0  0  0  0  0  0  0
   35.1928   40.9438   -4.5483 H   0  0  0  0  0  0  0  0  0  0  0  0
   36.9325   41.9206   -4.1104 C   0  0  0  0  0  0  0  0  0  0  0  0
   38.1190   40.9801   -3.8216 C   0  0  0  0  0  0  0  0  0  0  0  0
   39.2082   41.3930   -3.4314 O   0  0  0  0  0  0  0  0  0  0  0  0
   37.8526   39.6383   -4.0217 N   0  0  0  0  0  0  0  0  0  0  0  0
   36.9354   39.3390   -4.2178 H   0  0  0  0  0  0  0  0  0  0  0  0
   38.9428   38.6662   -3.9399 C   0  0  0  0  0  0  0  0  0  0  0  0
   38.7471   37.7738   -2.7227 C   0  0  0  0  0  0  0  0  0  0  0  0
   39.0472   37.7837   -5.1910 C   0  0  0  0  0  0  0  0  0  0  0  0
   40.0030   37.7274   -5.9500 O   0  0  0  0  0  0  0  0  0  0  0  0
   37.9878   36.9690   -5.3902 O   0  0  0  0  0  0  0  0  0  0  0  0
   37.2519   37.0074   -4.8115 H   0  0  0  0  0  0  0  0  0  0  0  0
   36.1399   42.2955   -2.8456 C   0  0  0  0  0  0  0  0  0  0  0  0
   36.5953   42.1208   -0.3233 C   0  0  0  0  0  0  0  0  0  0  0  0
   36.9209   42.8404   -1.6303 C   0  0  0  0  0  0  0  0  0  0  0  0
   36.8012   44.3562   -1.4667 C   0  0  0  0  0  0  0  0  0  0  0  0
   34.9753   41.0061   -7.7165 C   0  0  0  0  0  0  0  0  0  0  0  0
   35.0881   39.6137   -7.2630 N   0  0  0  0  0  0  0  0  0  0  0  0
   35.7915   38.6894   -7.9682 C   0  0  0  0  0  0  0  0  0  0  0  0
   36.2519   38.8860   -9.0859 O   0  0  0  0  0  0  0  0  0  0  0  0
   34.6430   39.3434   -6.4275 H   0  0  0  0  0  0  0  0  0  0  0  0
   35.9422   37.5738   -7.2239 O   0  0  0  0  0  0  0  0  0  0  0  0
   35.2634   36.4127   -7.7202 C   0  0  0  0  0  0  0  0  0  0  0  0
   33.8527   36.7611   -8.1265 C   0  0  0  0  0  0  0  0  0  0  0  0
   33.4886   36.7970   -9.4809 C   0  0  0  0  0  0  0  0  0  0  0  0
   32.1750   37.0935   -9.8527 C   0  0  0  0  0  0  0  0  0  0  0  0
   31.2196   37.3534   -8.8719 C   0  0  0  0  0  0  0  0  0  0  0  0
   29.6004   37.7161   -9.3263 Cl  0  0  0  0  0  0  0  0  0  0  0  0
   31.5660   37.3193   -7.5229 C   0  0  0  0  0  0  0  0  0  0  0  0
   32.8791   37.0229   -7.1507 C   0  0  0  0  0  0  0  0  0  0  0  0
   33.5482   41.3159   -8.1837 C   0  0  0  0  0  0  0  0  0  0  0  0
   33.4909   42.0480   -9.5047 C   0  0  0  0  0  0  0  0  0  0  0  0
   33.1552   41.3656  -10.6840 C   0  0  0  0  0  0  0  0  0  0  0  0
   33.0956   42.0427  -11.9032 C   0  0  0  0  0  0  0  0  0  0  0  0
   33.3797   43.4057  -11.9580 C   0  0  0  0  0  0  0  0  0  0  0  0
   33.7239   44.0916  -10.7949 C   0  0  0  0  0  0  0  0  0  0  0  0
   33.7823   43.4165   -9.5734 C   0  0  0  0  0  0  0  0  0  0  0  0
 19 20  1  0
 20 21  1  0
 20 18  1  0
  7 18  1  0
  7  5  1  0
  5  1  1  0
  1  2  2  0
  1  3  1  0
  1 22  1  0
 22 36  1  0
 36 37  1  0
 37 38  2  0
 38 39  1  0
 39 40  2  0
 40 41  1  0
 41 42  2  0
 22 23  1  0
 23 24  1  0
 24 25  2  0
 24 27  1  0
 27 28  1  0
 28 29  1  0
 29 30  2  0
 30 31  1  0
 31 32  2  0
 32 33  1  0
 32 34  1  0
 34 35  2  0
  7  8  1  0
  8  9  2  0
  8 10  1  0
 10 12  1  0
 12 13  1  0
 12 14  1  0
 14 15  2  0
 14 16  1  0
 42 37  1  0
 35 29  1  0
  5  6  1  0
  3  4  1  0
 23 26  1  0
 10 11  1  0
 16 17  1  0
M  END
> <minimizedAffinity>
-8.63416

> <CNNscore>
0.5683308244

> <CNNaffinity>
7.6462879181

> <CNN_VS>
4.3456211090

> <CNNaffinity_variance>
0.2629565895

$$$$



 42 43  0  0  0  0  0  0  0  0999 V2000
   35.7794   42.1503   -5.6832 P   0  0  0  0  0  0  0  0  0  0  0  0
   35.3792   43.4465   -5.0472 O   0  0  0  0  0  0  0  0  0  0  0  0
   36.7539   42.4032   -6.9414 O   0  0  0  0  0  0  0  0  0  0  0  0
   36.3030   42.9640   -7.5919 H   0  0  0  0  0  0  0  0  0  0  0  0
   34.5851   41.2736   -6.3882 N   0  0  0  0  0  0  0  0  0  0  0  0
   34.5604   40.3624   -5.9306 H   0  0  0  0  0  0  0  0  0  0  0  0
   34.6986   41.0383   -7.8532 C   0  0  0  0  0  0  0  0  0  0  0  0
   33.8390   42.0907   -8.5807 C   0  0  0  0  0  0  0  0  0  0  0  0
   33.2643   42.9989   -7.9855 O   0  0  0  0  0  0  0  0  0  0  0  0
   33.7812   41.9384   -9.9536 N   0  0  0  0  0  0  0  0  0  0  0  0
   34.3508   41.2728  -10.4028 H   0  0  0  0  0  0  0  0  0  0  0  0
   32.8679   42.7730  -10.7344 C   0  0  0  0  0  0  0  0  0  0  0  0
   33.4765   44.1534  -10.9359 C   0  0  0  0  0  0  0  0  0  0  0  0
   32.5384   42.1704  -12.1068 C   0  0  0  0  0  0  0  0  0  0  0  0
   33.0611   42.4769  -13.1677 O   0  0  0  0  0  0  0  0  0  0  0  0
   31.6286   41.1719  -12.0748 O   0  0  0  0  0  0  0  0  0  0  0  0
   31.2242   40.9323  -11.2642 H   0  0  0  0  0  0  0  0  0  0  0  0
   34.2687   39.5929   -8.1610 C   0  0  0  0  0  0  0  0  0  0  0  0
   32.8169   38.0577   -6.6997 C   0  0  0  0  0  0  0  0  0  0  0  0
   32.8430   39.1553   -7.7612 C   0  0  0  0  0  0  0  0  0  0  0  0
   31.9687   38.7814   -8.9589 C   0  0  0  0  0  0  0  0  0  0  0  0
   36.7794   41.0871   -4.5692 C   0  0  0  0  0  0  0  0  0  0  0  0
   37.3136   39.9589   -5.3431 N   0  0  0  0  0  0  0  0  0  0  0  0
   38.0053   38.9513   -4.7491 C   0  0  0  0  0  0  0  0  0  0  0  0
   38.3676   38.9664   -3.5792 O   0  0  0  0  0  0  0  0  0  0  0  0
   37.1669   39.9319   -6.3162 H   0  0  0  0  0  0  0  0  0  0  0  0
   38.1667   37.9378   -5.6253 O   0  0  0  0  0  0  0  0  0  0  0  0
   39.5221   37.5183   -5.8303 C   0  0  0  0  0  0  0  0  0  0  0  0
   39.5872   36.4492   -6.8931 C   0  0  0  0  0  0  0  0  0  0  0  0
   38.5466   36.3030   -7.8227 C   0  0  0  0  0  0  0  0  0  0  0  0
   38.6224   35.3298   -8.8221 C   0  0  0  0  0  0  0  0  0  0  0  0
   39.7396   34.5001   -8.8974 C   0  0  0  0  0  0  0  0  0  0  0  0
   39.8373   33.3025  -10.1287 Cl  0  0  0  0  0  0  0  0  0  0  0  0
   40.7816   34.6350   -7.9825 C   0  0  0  0  0  0  0  0  0  0  0  0
   40.7063   35.6078   -6.9833 C   0  0  0  0  0  0  0  0  0  0  0  0
   37.9103   41.8720   -3.8938 C   0  0  0  0  0  0  0  0  0  0  0  0
   37.5886   42.2982   -2.4798 C   0  0  0  0  0  0  0  0  0  0  0  0
   37.1888   41.3521   -1.5237 C   0  0  0  0  0  0  0  0  0  0  0  0
   36.8980   41.7442   -0.2159 C   0  0  0  0  0  0  0  0  0  0  0  0
   36.9948   43.0860    0.1472 C   0  0  0  0  0  0  0  0  0  0  0  0
   37.3813   44.0356   -0.7965 C   0  0  0  0  0  0  0  0  0  0  0  0
   37.6745   43.6453   -2.1054 C   0  0  0  0  0  0  0  0  0  0  0  0
 19 20  1  0
 20 21  1  0
 20 18  1  0
  7 18  1  0
  7  5  1  0
  5  1  1  0
  1  2  2  0
  1  3  1  0
  1 22  1  0
 22 36  1  0
 36 37  1  0
 37 38  2  0
 38 39  1  0
 39 40  2  0
 40 41  1  0
 41 42  2  0
 22 23  1  0
 23 24  1  0
 24 25  2  0
 24 27  1  0
 27 28  1  0
 28 29  1  0
 29 30  2  0
 30 31  1  0
 31 32  2  0
 32 33  1  0
 32 34  1  0
 34 35  2  0
  7  8  1  0
  8  9  2  0
  8 10  1  0
 10 12  1  0
 12 13  1  0
 12 14  1  0
 14 15  2  0
 14 16  1  0
 42 37  1  0
 35 29  1  0
  5  6  1  0
  3  4  1  0
 23 26  1  0
 10 11  1  0
 16 17  1  0
M  END
> <minimizedAffinity>
-7.91297

> <CNNscore>
0.4096413851

> <CNNaffinity>
6.6882901192

> <CNN_VS>
2.7398004532

> <CNNaffinity_variance>
0.0624943115

$$$$
