


 22 24  0  0  0  0  0  0  0  0999 V2000
  -16.6815    8.6396   31.4650 C   0  0  0  0  0  0  0  0  0  0  0  0
  -16.0454    9.6903   32.3741 C   0  0  0  0  0  0  0  0  0  0  0  0
  -17.0852   10.4769   33.0585 N   0  0  0  0  0  0  0  0  0  0  0  0
  -17.3576   11.6480   32.1791 C   0  0  0  0  0  0  0  0  0  0  0  0
  -16.1890   11.7803   31.1837 C   0  0  0  0  0  0  0  0  0  0  0  0
  -16.6233   11.4938   29.8447 O   0  0  0  0  0  0  0  0  0  0  0  0
  -15.1816   10.7317   31.6538 C   0  0  0  0  0  0  0  0  0  0  0  0
  -14.4358   10.2271   30.5490 O   0  0  0  0  0  0  0  0  0  0  0  0
  -16.7514   10.7883   33.9706 H   0  0  0  0  0  0  0  0  0  0  0  0
  -17.0042   10.6023   29.8120 H   0  0  0  0  0  0  0  0  0  0  0  0
  -15.0444    9.8615   29.8881 H   0  0  0  0  0  0  0  0  0  0  0  0
  -17.4825   12.8849   33.0157 C   0  0  0  0  0  0  0  0  0  0  0  0
  -16.5787   13.8394   33.1433 N   0  0  0  0  0  0  0  0  0  0  0  0
  -17.1333   14.7565   34.0028 C   0  0  0  0  0  0  0  0  0  0  0  0
  -16.6074   15.9620   34.4823 C   0  0  0  0  0  0  0  0  0  0  0  0
  -17.3936   16.7124   35.3558 C   0  0  0  0  0  0  0  0  0  0  0  0
  -16.9147   17.8710   35.8299 F   0  0  0  0  0  0  0  0  0  0  0  0
  -18.6632   16.2949   35.7515 C   0  0  0  0  0  0  0  0  0  0  0  0
  -19.2029   15.0930   35.2817 C   0  0  0  0  0  0  0  0  0  0  0  0
  -18.4028   14.3534   34.4072 C   0  0  0  0  0  0  0  0  0  0  0  0
  -18.5994   13.1570   33.7658 N   0  0  0  0  0  0  0  0  0  0  0  0
  -19.4025   12.5914   33.8319 H   0  0  0  0  0  0  0  0  0  0  0  0
  2  1  1  0
  2  3  1  0
  3  4  1  0
  4 12  1  0
 12 13  2  0
 13 14  1  0
 14 15  2  0
 15 16  1  0
 16 17  1  0
 16 18  2  0
 18 19  1  0
 19 20  2  0
 20 21  1  0
  4  5  1  0
  5  6  1  0
  5  7  1  0
  7  8  1  0
  7  2  1  0
 21 12  1  0
 20 14  1  0
  3  9  1  0
 21 22  1  0
  6 10  1  0
  8 11  1  0
M  END
> <minimizedAffinity>
-6.99104

> <CNNscore>
0.9513491392

> <CNNaffinity>
6.9682941437

> <CNN_VS>
6.6292805672

> <CNNaffinity_variance>
1.1455296278

$$$$



 22 24  0  0  0  0  0  0  0  0999 V2000
  -17.4290    8.8984   31.9118 C   0  0  0  0  0  0  0  0  0  0  0  0
  -16.1497    9.5091   32.4825 C   0  0  0  0  0  0  0  0  0  0  0  0
  -16.4723   10.6003   33.4172 N   0  0  0  0  0  0  0  0  0  0  0  0
  -16.5000   11.8450   32.5992 C   0  0  0  0  0  0  0  0  0  0  0  0
  -15.7848   11.5563   31.2654 C   0  0  0  0  0  0  0  0  0  0  0  0
  -16.7138   11.5874   30.1701 O   0  0  0  0  0  0  0  0  0  0  0  0
  -15.2192   10.1481   31.4456 C   0  0  0  0  0  0  0  0  0  0  0  0
  -15.1652    9.4692   30.1937 O   0  0  0  0  0  0  0  0  0  0  0  0
  -15.7585   10.6685   34.1426 H   0  0  0  0  0  0  0  0  0  0  0  0
  -17.4214   10.9429   30.3279 H   0  0  0  0  0  0  0  0  0  0  0  0
  -16.0512    9.4466   29.7996 H   0  0  0  0  0  0  0  0  0  0  0  0
  -15.8097   12.9484   33.3417 C   0  0  0  0  0  0  0  0  0  0  0  0
  -14.5677   12.9338   33.7904 N   0  0  0  0  0  0  0  0  0  0  0  0
  -14.3834   14.1519   34.3983 C   0  0  0  0  0  0  0  0  0  0  0  0
  -13.2512   14.6664   35.0411 C   0  0  0  0  0  0  0  0  0  0  0  0
  -13.3358   15.9505   35.5779 C   0  0  0  0  0  0  0  0  0  0  0  0
  -12.2663   16.4678   36.1985 F   0  0  0  0  0  0  0  0  0  0  0  0
  -14.4987   16.7137   35.4890 C   0  0  0  0  0  0  0  0  0  0  0  0
  -15.6385   16.2141   34.8503 C   0  0  0  0  0  0  0  0  0  0  0  0
  -15.5372   14.9265   34.3176 C   0  0  0  0  0  0  0  0  0  0  0  0
  -16.4308   14.1351   33.6420 N   0  0  0  0  0  0  0  0  0  0  0  0
  -17.3572   14.3763   33.4123 H   0  0  0  0  0  0  0  0  0  0  0  0
  2  1  1  0
  2  3  1  0
  3  4  1  0
  4 12  1  0
 12 13  2  0
 13 14  1  0
 14 15  2  0
 15 16  1  0
 16 17  1  0
 16 18  2  0
 18 19  1  0
 19 20  2  0
 20 21  1  0
  4  5  1  0
  5  6  1  0
  5  7  1  0
  7  8  1  0
  7  2  1  0
 21 12  1  0
 20 14  1  0
  3  9  1  0
 21 22  1  0
  6 10  1  0
  8 11  1  0
M  END
> <minimizedAffinity>
-7.50753

> <CNNscore>
0.9379183054

> <CNNaffinity>
6.7530093193

> <CNN_VS>
6.3337712288

> <CNNaffinity_variance>
0.8139201999

$$$$



 22 24  0  0  0  0  0  0  0  0999 V2000
  -17.4592    8.9573   32.0018 C   0  0  0  0  0  0  0  0  0  0  0  0
  -16.2145    9.6155   32.5955 C   0  0  0  0  0  0  0  0  0  0  0  0
  -16.5930   10.7371   33.4714 N   0  0  0  0  0  0  0  0  0  0  0  0
  -16.6112   11.9469   32.6024 C   0  0  0  0  0  0  0  0  0  0  0  0
  -15.8392   11.6186   31.3100 C   0  0  0  0  0  0  0  0  0  0  0  0
  -16.7251   11.5872   30.1796 O   0  0  0  0  0  0  0  0  0  0  0  0
  -15.2559   10.2302   31.5696 C   0  0  0  0  0  0  0  0  0  0  0  0
  -15.1406    9.5024   30.3497 O   0  0  0  0  0  0  0  0  0  0  0  0
  -15.9095   10.8486   34.2202 H   0  0  0  0  0  0  0  0  0  0  0  0
  -17.4266   10.9358   30.3365 H   0  0  0  0  0  0  0  0  0  0  0  0
  -16.0101    9.4465   29.9232 H   0  0  0  0  0  0  0  0  0  0  0  0
  -15.9704   13.0928   33.3248 C   0  0  0  0  0  0  0  0  0  0  0  0
  -16.5291   14.2576   33.5987 N   0  0  0  0  0  0  0  0  0  0  0  0
  -15.5675   14.9776   34.2652 C   0  0  0  0  0  0  0  0  0  0  0  0
  -15.6253   16.2758   34.7858 C   0  0  0  0  0  0  0  0  0  0  0  0
  -14.4898   16.7704   35.4262 C   0  0  0  0  0  0  0  0  0  0  0  0
  -14.5178   18.0105   35.9343 F   0  0  0  0  0  0  0  0  0  0  0  0
  -13.3256   16.0150   35.5548 C   0  0  0  0  0  0  0  0  0  0  0  0
  -13.2516   14.7165   35.0400 C   0  0  0  0  0  0  0  0  0  0  0  0
  -14.3976   14.2356   34.4018 C   0  0  0  0  0  0  0  0  0  0  0  0
  -14.6807   13.0402   33.7919 N   0  0  0  0  0  0  0  0  0  0  0  0
  -14.0655   12.2766   33.7042 H   0  0  0  0  0  0  0  0  0  0  0  0
  2  1  1  0
  2  3  1  0
  3  4  1  0
  4 12  1  0
 12 13  2  0
 13 14  1  0
 14 15  2  0
 15 16  1  0
 16 17  1  0
 16 18  2  0
 18 19  1  0
 19 20  2  0
 20 21  1  0
  4  5  1  0
  5  6  1  0
  5  7  1  0
  7  8  1  0
  7  2  1  0
 21 12  1  0
 20 14  1  0
  3  9  1  0
 21 22  1  0
  6 10  1  0
  8 11  1  0
M  END
> <minimizedAffinity>
-7.55795

> <CNNscore>
0.9118766189

> <CNNaffinity>
6.7414689064

> <CNN_VS>
6.1473879814

> <CNNaffinity_variance>
0.9085008502

$$$$



 22 24  0  0  0  0  0  0  0  0999 V2000
  -17.2740    8.5360   31.4608 C   0  0  0  0  0  0  0  0  0  0  0  0
  -16.3594    9.2768   32.4354 C   0  0  0  0  0  0  0  0  0  0  0  0
  -17.1505   10.1355   33.3328 N   0  0  0  0  0  0  0  0  0  0  0  0
  -17.2306   11.4636   32.6629 C   0  0  0  0  0  0  0  0  0  0  0  0
  -16.1400   11.5170   31.5758 C   0  0  0  0  0  0  0  0  0  0  0  0
  -16.7262   11.5434   30.2646 O   0  0  0  0  0  0  0  0  0  0  0  0
  -15.3491   10.2256   31.7808 C   0  0  0  0  0  0  0  0  0  0  0  0
  -14.8155    9.7663   30.5416 O   0  0  0  0  0  0  0  0  0  0  0  0
  -16.6892   10.2223   34.2384 H   0  0  0  0  0  0  0  0  0  0  0  0
  -17.2914   10.7638   30.1473 H   0  0  0  0  0  0  0  0  0  0  0  0
  -15.5369    9.6419   29.9052 H   0  0  0  0  0  0  0  0  0  0  0  0
  -17.0224   12.5490   33.6748 C   0  0  0  0  0  0  0  0  0  0  0  0
  -17.3609   12.5066   34.9506 N   0  0  0  0  0  0  0  0  0  0  0  0
  -16.9759   13.7177   35.4724 C   0  0  0  0  0  0  0  0  0  0  0  0
  -17.0961   14.2054   36.7791 C   0  0  0  0  0  0  0  0  0  0  0  0
  -16.6141   15.4872   37.0414 C   0  0  0  0  0  0  0  0  0  0  0  0
  -16.7161   15.9787   38.2842 F   0  0  0  0  0  0  0  0  0  0  0  0
  -16.0290   16.2739   36.0508 C   0  0  0  0  0  0  0  0  0  0  0  0
  -15.9017   15.8015   34.7403 C   0  0  0  0  0  0  0  0  0  0  0  0
  -16.3890   14.5155   34.4942 C   0  0  0  0  0  0  0  0  0  0  0  0
  -16.4337   13.7479   33.3583 N   0  0  0  0  0  0  0  0  0  0  0  0
  -16.1011   14.0113   32.4699 H   0  0  0  0  0  0  0  0  0  0  0  0
  2  1  1  0
  2  3  1  0
  3  4  1  0
  4 12  1  0
 12 13  2  0
 13 14  1  0
 14 15  2  0
 15 16  1  0
 16 17  1  0
 16 18  2  0
 18 19  1  0
 19 20  2  0
 20 21  1  0
  4  5  1  0
  5  6  1  0
  5  7  1  0
  7  8  1  0
  7  2  1  0
 21 12  1  0
 20 14  1  0
  3  9  1  0
 21 22  1  0
  6 10  1  0
  8 11  1  0
M  END
> <minimizedAffinity>
-6.34487

> <CNNscore>
0.8164095879

> <CNNaffinity>
6.4933052063

> <CNN_VS>
5.3011965752

> <CNNaffinity_variance>
0.9303967357

$$$$



 22 24  0  0  0  0  0  0  0  0999 V2000
  -17.2038    8.2244   30.8847 C   0  0  0  0  0  0  0  0  0  0  0  0
  -16.1482    8.6264   31.9140 C   0  0  0  0  0  0  0  0  0  0  0  0
  -16.7898    9.0947   33.1539 N   0  0  0  0  0  0  0  0  0  0  0  0
  -16.9548   10.5670   32.9985 C   0  0  0  0  0  0  0  0  0  0  0  0
  -16.0360   11.0325   31.8525 C   0  0  0  0  0  0  0  0  0  0  0  0
  -16.8090   11.4794   30.7272 O   0  0  0  0  0  0  0  0  0  0  0  0
  -15.2363    9.7824   31.4880 C   0  0  0  0  0  0  0  0  0  0  0  0
  -14.8959    9.7950   30.1040 O   0  0  0  0  0  0  0  0  0  0  0  0
  -16.1991    8.8870   33.9591 H   0  0  0  0  0  0  0  0  0  0  0  0
  -17.3929   10.7636   30.4312 H   0  0  0  0  0  0  0  0  0  0  0  0
  -15.7045    9.8649   29.5728 H   0  0  0  0  0  0  0  0  0  0  0  0
  -16.5889   11.2506   34.2808 C   0  0  0  0  0  0  0  0  0  0  0  0
  -15.8501   10.7487   35.2536 N   0  0  0  0  0  0  0  0  0  0  0  0
  -15.7897   11.7311   36.2120 C   0  0  0  0  0  0  0  0  0  0  0  0
  -15.1372   11.7307   37.4506 C   0  0  0  0  0  0  0  0  0  0  0  0
  -15.2383   12.8763   38.2388 C   0  0  0  0  0  0  0  0  0  0  0  0
  -14.6230   12.9031   39.4293 F   0  0  0  0  0  0  0  0  0  0  0  0
  -15.9596   13.9956   37.8271 C   0  0  0  0  0  0  0  0  0  0  0  0
  -16.6174   14.0119   36.5927 C   0  0  0  0  0  0  0  0  0  0  0  0
  -16.5060   12.8567   35.8148 C   0  0  0  0  0  0  0  0  0  0  0  0
  -17.0069   12.5228   34.5824 N   0  0  0  0  0  0  0  0  0  0  0  0
  -17.5689   13.0963   34.0128 H   0  0  0  0  0  0  0  0  0  0  0  0
  2  1  1  0
  2  3  1  0
  3  4  1  0
  4 12  1  0
 12 13  2  0
 13 14  1  0
 14 15  2  0
 15 16  1  0
 16 17  1  0
 16 18  2  0
 18 19  1  0
 19 20  2  0
 20 21  1  0
  4  5  1  0
  5  6  1  0
  5  7  1  0
  7  8  1  0
  7  2  1  0
 21 12  1  0
 20 14  1  0
  3  9  1  0
 21 22  1  0
  6 10  1  0
  8 11  1  0
M  END
> <minimizedAffinity>
-6.47051

> <CNNscore>
0.7208808661

> <CNNaffinity>
6.2628650665

> <CNN_VS>
4.5147795677

> <CNNaffinity_variance>
0.4113603532

$$$$



 22 24  0  0  0  0  0  0  0  0999 V2000
  -16.8574    9.3159   32.4181 C   0  0  0  0  0  0  0  0  0  0  0  0
  -15.9489   10.3979   33.0004 C   0  0  0  0  0  0  0  0  0  0  0  0
  -16.7426   11.3948   33.7383 N   0  0  0  0  0  0  0  0  0  0  0  0
  -17.0885   12.4550   32.7507 C   0  0  0  0  0  0  0  0  0  0  0  0
  -16.1521   12.3011   31.5368 C   0  0  0  0  0  0  0  0  0  0  0  0
  -16.8864   11.8846   30.3745 O   0  0  0  0  0  0  0  0  0  0  0  0
  -15.1675   11.2134   31.9641 C   0  0  0  0  0  0  0  0  0  0  0  0
  -14.7237   10.4706   30.8316 O   0  0  0  0  0  0  0  0  0  0  0  0
  -16.1949   11.7881   34.5037 H   0  0  0  0  0  0  0  0  0  0  0  0
  -17.3451   11.0511   30.5633 H   0  0  0  0  0  0  0  0  0  0  0  0
  -15.4900   10.0931   30.3720 H   0  0  0  0  0  0  0  0  0  0  0  0
  -16.9187   13.8032   33.3823 C   0  0  0  0  0  0  0  0  0  0  0  0
  -15.7808   14.3485   33.7719 N   0  0  0  0  0  0  0  0  0  0  0  0
  -16.1200   15.5768   34.2853 C   0  0  0  0  0  0  0  0  0  0  0  0
  -15.3024   16.5702   34.8372 C   0  0  0  0  0  0  0  0  0  0  0  0
  -15.9141   17.7393   35.2879 C   0  0  0  0  0  0  0  0  0  0  0  0
  -15.1548   18.7070   35.8204 F   0  0  0  0  0  0  0  0  0  0  0  0
  -17.2916   17.9333   35.2017 C   0  0  0  0  0  0  0  0  0  0  0  0
  -18.1224   16.9506   34.6533 C   0  0  0  0  0  0  0  0  0  0  0  0
  -17.4940   15.7856   34.2061 C   0  0  0  0  0  0  0  0  0  0  0  0
  -17.9788   14.6395   33.6294 N   0  0  0  0  0  0  0  0  0  0  0  0
  -18.9234   14.4495   33.4276 H   0  0  0  0  0  0  0  0  0  0  0  0
  2  1  1  0
  2  3  1  0
  3  4  1  0
  4 12  1  0
 12 13  2  0
 13 14  1  0
 14 15  2  0
 15 16  1  0
 16 17  1  0
 16 18  2  0
 18 19  1  0
 19 20  2  0
 20 21  1  0
  4  5  1  0
  5  6  1  0
  5  7  1  0
  7  8  1  0
  7  2  1  0
 21 12  1  0
 20 14  1  0
  3  9  1  0
 21 22  1  0
  6 10  1  0
  8 11  1  0
M  END
> <minimizedAffinity>
-6.64906

> <CNNscore>
0.6066687107

> <CNNaffinity>
5.7141036987

> <CNN_VS>
3.4665679932

> <CNNaffinity_variance>
0.1815180331

$$$$



 22 24  0  0  0  0  0  0  0  0999 V2000
  -23.9733   10.4087   37.5479 C   0  0  0  0  0  0  0  0  0  0  0  0
  -23.1291   10.8470   36.3519 C   0  0  0  0  0  0  0  0  0  0  0  0
  -22.1915   11.9119   36.7459 N   0  0  0  0  0  0  0  0  0  0  0  0
  -22.9039   13.1966   36.4983 C   0  0  0  0  0  0  0  0  0  0  0  0
  -24.0985   12.9091   35.5686 C   0  0  0  0  0  0  0  0  0  0  0  0
  -25.3426   13.1002   36.2611 O   0  0  0  0  0  0  0  0  0  0  0  0
  -23.9226   11.4410   35.1828 C   0  0  0  0  0  0  0  0  0  0  0  0
  -25.1900   10.8317   34.9511 O   0  0  0  0  0  0  0  0  0  0  0  0
  -21.3424   11.8630   36.1828 H   0  0  0  0  0  0  0  0  0  0  0  0
  -25.3689   12.5267   37.0429 H   0  0  0  0  0  0  0  0  0  0  0  0
  -25.7433   10.9255   35.7423 H   0  0  0  0  0  0  0  0  0  0  0  0
  -21.9643   14.1769   35.8647 C   0  0  0  0  0  0  0  0  0  0  0  0
  -22.1846   15.4656   35.6782 N   0  0  0  0  0  0  0  0  0  0  0  0
  -21.0513   15.9467   35.0686 C   0  0  0  0  0  0  0  0  0  0  0  0
  -20.7479   17.2467   34.6474 C   0  0  0  0  0  0  0  0  0  0  0  0
  -19.5067   17.4633   34.0500 C   0  0  0  0  0  0  0  0  0  0  0  0
  -19.1901   18.6988   33.6376 F   0  0  0  0  0  0  0  0  0  0  0  0
  -18.5842   16.4345   33.8683 C   0  0  0  0  0  0  0  0  0  0  0  0
  -18.8722   15.1301   34.2834 C   0  0  0  0  0  0  0  0  0  0  0  0
  -20.1194   14.9299   34.8803 C   0  0  0  0  0  0  0  0  0  0  0  0
  -20.7274   13.8128   35.3939 N   0  0  0  0  0  0  0  0  0  0  0  0
  -20.3432   12.9068   35.4204 H   0  0  0  0  0  0  0  0  0  0  0  0
  2  1  1  0
  2  3  1  0
  3  4  1  0
  4 12  1  0
 12 13  2  0
 13 14  1  0
 14 15  2  0
 15 16  1  0
 16 17  1  0
 16 18  2  0
 18 19  1  0
 19 20  2  0
 20 21  1  0
  4  5  1  0
  5  6  1  0
  5  7  1  0
  7  8  1  0
  7  2  1  0
 21 12  1  0
 20 14  1  0
  3  9  1  0
 21 22  1  0
  6 10  1  0
  8 11  1  0
M  END
> <minimizedAffinity>
-5.79296

> <CNNscore>
0.5287250280

> <CNNaffinity>
4.0090999603

> <CNN_VS>
2.1197113991

> <CNNaffinity_variance>
0.5222363472

$$$$



 22 24  0  0  0  0  0  0  0  0999 V2000
  -21.6948   13.2523   36.4056 C   0  0  0  0  0  0  0  0  0  0  0  0
  -20.5820   12.2075   36.3351 C   0  0  0  0  0  0  0  0  0  0  0  0
  -19.5995   12.5704   35.3000 N   0  0  0  0  0  0  0  0  0  0  0  0
  -20.0642   11.9134   34.0464 C   0  0  0  0  0  0  0  0  0  0  0  0
  -21.0840   10.8232   34.4278 C   0  0  0  0  0  0  0  0  0  0  0  0
  -22.3997   11.1705   33.9675 O   0  0  0  0  0  0  0  0  0  0  0  0
  -21.0430   10.7959   35.9552 C   0  0  0  0  0  0  0  0  0  0  0  0
  -22.3137   10.4215   36.4809 O   0  0  0  0  0  0  0  0  0  0  0  0
  -18.6726   12.2302   35.5560 H   0  0  0  0  0  0  0  0  0  0  0  0
  -22.6569   12.0282   34.3406 H   0  0  0  0  0  0  0  0  0  0  0  0
  -22.9914   11.0349   36.1563 H   0  0  0  0  0  0  0  0  0  0  0  0
  -18.8924   11.3142   33.3301 C   0  0  0  0  0  0  0  0  0  0  0  0
  -17.8648   11.9704   32.8225 N   0  0  0  0  0  0  0  0  0  0  0  0
  -17.0528   11.0095   32.2707 C   0  0  0  0  0  0  0  0  0  0  0  0
  -15.8308   11.1500   31.6022 C   0  0  0  0  0  0  0  0  0  0  0  0
  -15.2073    9.9927   31.1375 C   0  0  0  0  0  0  0  0  0  0  0  0
  -14.0361   10.0984   30.4943 F   0  0  0  0  0  0  0  0  0  0  0  0
  -15.7643    8.7284   31.3212 C   0  0  0  0  0  0  0  0  0  0  0  0
  -16.9846    8.5709   31.9866 C   0  0  0  0  0  0  0  0  0  0  0  0
  -17.5961    9.7400   32.4464 C   0  0  0  0  0  0  0  0  0  0  0  0
  -18.7688    9.9631   33.1217 N   0  0  0  0  0  0  0  0  0  0  0  0
  -19.4108    9.2737   33.4075 H   0  0  0  0  0  0  0  0  0  0  0  0
  2  1  1  0
  2  3  1  0
  3  4  1  0
  4 12  1  0
 12 13  2  0
 13 14  1  0
 14 15  2  0
 15 16  1  0
 16 17  1  0
 16 18  2  0
 18 19  1  0
 19 20  2  0
 20 21  1  0
  4  5  1  0
  5  6  1  0
  5  7  1  0
  7  8  1  0
  7  2  1  0
 21 12  1  0
 20 14  1  0
  3  9  1  0
 21 22  1  0
  6 10  1  0
  8 11  1  0
M  END
> <minimizedAffinity>
-7.34310

> <CNNscore>
0.4800993502

> <CNNaffinity>
4.7502689362

> <CNN_VS>
2.2806010246

> <CNNaffinity_variance>
0.2822742164

$$$$



 22 24  0  0  0  0  0  0  0  0999 V2000
  -27.9711    7.0056   39.2061 C   0  0  0  0  0  0  0  0  0  0  0  0
  -26.4434    7.0019   39.1682 C   0  0  0  0  0  0  0  0  0  0  0  0
  -25.9004    6.3184   40.3541 N   0  0  0  0  0  0  0  0  0  0  0  0
  -25.7035    7.3778   41.3827 C   0  0  0  0  0  0  0  0  0  0  0  0
  -25.7326    8.7448   40.6725 C   0  0  0  0  0  0  0  0  0  0  0  0
  -26.8960    9.4953   41.0558 O   0  0  0  0  0  0  0  0  0  0  0  0
  -25.7923    8.3894   39.1874 C   0  0  0  0  0  0  0  0  0  0  0  0
  -26.5017    9.3915   38.4637 O   0  0  0  0  0  0  0  0  0  0  0  0
  -25.0110    5.8721   40.1299 H   0  0  0  0  0  0  0  0  0  0  0  0
  -27.6936    8.9831   40.8497 H   0  0  0  0  0  0  0  0  0  0  0  0
  -27.3904    9.4932   38.8389 H   0  0  0  0  0  0  0  0  0  0  0  0
  -24.3903    7.1683   42.0733 C   0  0  0  0  0  0  0  0  0  0  0  0
  -23.2144    7.6177   41.6742 N   0  0  0  0  0  0  0  0  0  0  0  0
  -22.3158    7.1802   42.6168 C   0  0  0  0  0  0  0  0  0  0  0  0
  -20.9308    7.3720   42.6863 C   0  0  0  0  0  0  0  0  0  0  0  0
  -20.2506    6.8126   43.7672 C   0  0  0  0  0  0  0  0  0  0  0  0
  -18.9240    6.9813   43.8588 F   0  0  0  0  0  0  0  0  0  0  0  0
  -20.9075    6.0829   44.7564 C   0  0  0  0  0  0  0  0  0  0  0  0
  -22.2907    5.8818   44.7014 C   0  0  0  0  0  0  0  0  0  0  0  0
  -22.9574    6.4491   43.6126 C   0  0  0  0  0  0  0  0  0  0  0  0
  -24.2776    6.4549   43.2406 N   0  0  0  0  0  0  0  0  0  0  0  0
  -25.0164    6.0222   43.7266 H   0  0  0  0  0  0  0  0  0  0  0  0
  2  1  1  0
  2  3  1  0
  3  4  1  0
  4 12  1  0
 12 13  2  0
 13 14  1  0
 14 15  2  0
 15 16  1  0
 16 17  1  0
 16 18  2  0
 18 19  1  0
 19 20  2  0
 20 21  1  0
  4  5  1  0
  5  6  1  0
  5  7  1  0
  7  8  1  0
  7  2  1  0
 21 12  1  0
 20 14  1  0
  3  9  1  0
 21 22  1  0
  6 10  1  0
  8 11  1  0
M  END
> <minimizedAffinity>
-4.75415

> <CNNscore>
0.4791914821

> <CNNaffinity>
3.7168471813

> <CNN_VS>
1.7810815573

> <CNNaffinity_variance>
0.4123146832

$$$$
