


 27 29  0  0  0  0  0  0  0  0999 V2000
    1.5735    3.4130   13.5810 C   0  0  0  0  0  0  0  0  0  0  0  0
    1.3981    1.9977   12.9542 C   0  0  0  0  0  0  0  0  0  0  0  0
    1.4664    0.8779   14.0262 C   0  0  0  0  0  0  0  0  0  0  0  0
    0.3532    1.0784   15.0711 C   0  0  0  0  0  0  0  0  0  0  0  0
    0.3077    2.5151   15.5188 C   0  0  0  0  0  0  0  0  0  0  0  0
   -0.2242    2.9991   16.6483 N   0  0  0  0  0  0  0  0  0  0  0  0
   -0.0538    4.3668   16.7437 C   0  0  0  0  0  0  0  0  0  0  0  0
    0.6361    4.7158   15.6054 C   0  0  0  0  0  0  0  0  0  0  0  0
    0.8475    3.5579   14.8695 N   0  0  0  0  0  0  0  0  0  0  0  0
   -0.6796    2.4492   17.3260 H   0  0  0  0  0  0  0  0  0  0  0  0
    2.4709    1.8232   12.0079 O   0  0  0  0  0  0  0  0  0  0  0  0
    2.0068    1.5242   10.6925 C   0  0  0  0  0  0  0  0  0  0  0  0
    1.2457   -0.3953   13.3882 O   0  0  0  0  0  0  0  0  0  0  0  0
    2.3416   -1.2929   13.5545 C   0  0  0  0  0  0  0  0  0  0  0  0
    0.5458    0.2709   16.2440 O   0  0  0  0  0  0  0  0  0  0  0  0
    1.8617    0.3639   16.7807 C   0  0  0  0  0  0  0  0  0  0  0  0
    1.1542    4.4851   12.5505 C   0  0  0  0  0  0  0  0  0  0  0  0
    1.9910    6.1778   11.1284 C   0  0  0  0  0  0  0  0  0  0  0  0
    2.3220    5.1638   12.0733 O   0  0  0  0  0  0  0  0  0  0  0  0
   -0.5425    5.1691   17.8866 C   0  0  0  0  0  0  0  0  0  0  0  0
   -2.0580    5.3549   17.8320 C   0  0  0  0  0  0  0  0  0  0  0  0
   -2.4893    5.9388   16.5123 C   0  0  0  0  0  0  0  0  0  0  0  0
   -2.0762    7.2238   16.1346 C   0  0  0  0  0  0  0  0  0  0  0  0
   -2.4569    7.7540   14.9010 C   0  0  0  0  0  0  0  0  0  0  0  0
   -3.2497    7.0054   14.0337 C   0  0  0  0  0  0  0  0  0  0  0  0
   -3.6635    5.7261   14.3985 C   0  0  0  0  0  0  0  0  0  0  0  0
   -3.2845    5.1931   15.6314 C   0  0  0  0  0  0  0  0  0  0  0  0
 18 19  1  0
 19 17  1  0
  1 17  1  0
  1  2  1  0
  2 11  1  0
 11 12  1  0
  2  3  1  0
  3 13  1  0
 13 14  1  0
  3  4  1  0
  4 15  1  0
 15 16  1  0
  4  5  1  0
  5  6  1  0
  6  7  1  0
  7 20  1  0
 20 21  1  0
 21 22  1  0
 22 23  2  0
 23 24  1  0
 24 25  2  0
 25 26  1  0
 26 27  2  0
  7  8  2  0
  8  9  1  0
  9  1  1  0
  9  5  2  0
 27 22  1  0
  6 10  1  0
M  CHG 1   9   1
M  END
> <minimizedAffinity>
-6.27474

> <CNNscore>
0.4547443986

> <CNNaffinity>
5.7953038216

> <CNN_VS>
2.6353819370

> <CNNaffinity_variance>
0.0549737774

$$$$



 27 29  0  0  0  0  0  0  0  0999 V2000
   -0.5561    8.7045   10.5344 C   0  0  0  0  0  0  0  0  0  0  0  0
   -0.3363    7.9891    9.1682 C   0  0  0  0  0  0  0  0  0  0  0  0
    0.9102    7.0654    9.1928 C   0  0  0  0  0  0  0  0  0  0  0  0
    0.7449    5.9841   10.2767 C   0  0  0  0  0  0  0  0  0  0  0  0
    0.2690    6.6018   11.5645 C   0  0  0  0  0  0  0  0  0  0  0  0
    0.3756    6.0940   12.7989 N   0  0  0  0  0  0  0  0  0  0  0  0
   -0.1433    6.9539   13.7476 C   0  0  0  0  0  0  0  0  0  0  0  0
   -0.5724    8.0488   13.0332 C   0  0  0  0  0  0  0  0  0  0  0  0
   -0.3056    7.8076   11.6924 N   0  0  0  0  0  0  0  0  0  0  0  0
    0.7740    5.2176   13.0047 H   0  0  0  0  0  0  0  0  0  0  0  0
   -0.1499    9.0216    8.1802 O   0  0  0  0  0  0  0  0  0  0  0  0
    0.2353   10.2713    8.7502 C   0  0  0  0  0  0  0  0  0  0  0  0
    1.0240    6.3982    7.9206 O   0  0  0  0  0  0  0  0  0  0  0  0
    0.1772    5.2548    7.8199 C   0  0  0  0  0  0  0  0  0  0  0  0
    1.9739    5.2959   10.5611 O   0  0  0  0  0  0  0  0  0  0  0  0
    1.8357    3.8784   10.5689 C   0  0  0  0  0  0  0  0  0  0  0  0
   -1.9728    9.3203   10.5681 C   0  0  0  0  0  0  0  0  0  0  0  0
   -3.4771    9.5563    8.7601 C   0  0  0  0  0  0  0  0  0  0  0  0
   -2.8058    8.6408    9.6214 O   0  0  0  0  0  0  0  0  0  0  0  0
   -0.1605    6.6517   15.1958 C   0  0  0  0  0  0  0  0  0  0  0  0
    0.7493    5.4710   15.5316 C   0  0  0  0  0  0  0  0  0  0  0  0
    0.0622    4.4968   16.4521 C   0  0  0  0  0  0  0  0  0  0  0  0
    0.3150    3.1220   16.3488 C   0  0  0  0  0  0  0  0  0  0  0  0
   -0.3040    2.2228   17.2183 C   0  0  0  0  0  0  0  0  0  0  0  0
   -1.1772    2.6883   18.1991 C   0  0  0  0  0  0  0  0  0  0  0  0
   -1.4333    4.0530   18.3118 C   0  0  0  0  0  0  0  0  0  0  0  0
   -0.8159    4.9548   17.4439 C   0  0  0  0  0  0  0  0  0  0  0  0
 18 19  1  0
 19 17  1  0
  1 17  1  0
  1  2  1  0
  2 11  1  0
 11 12  1  0
  2  3  1  0
  3 13  1  0
 13 14  1  0
  3  4  1  0
  4 15  1  0
 15 16  1  0
  4  5  1  0
  5  6  1  0
  6  7  1  0
  7 20  1  0
 20 21  1  0
 21 22  1  0
 22 23  2  0
 23 24  1  0
 24 25  2  0
 25 26  1  0
 26 27  2  0
  7  8  2  0
  8  9  1  0
  9  1  1  0
  9  5  2  0
 27 22  1  0
  6 10  1  0
M  CHG 1   9   1
M  END
> <minimizedAffinity>
-7.18158

> <CNNscore>
0.2849077582

> <CNNaffinity>
5.4196681976

> <CNN_VS>
1.5441055298

> <CNNaffinity_variance>
0.5890626907

$$$$



 27 29  0  0  0  0  0  0  0  0999 V2000
   -0.7987    6.8580   15.5463 C   0  0  0  0  0  0  0  0  0  0  0  0
   -1.6228    7.7348   14.5569 C   0  0  0  0  0  0  0  0  0  0  0  0
   -1.0690    7.6501   13.1099 C   0  0  0  0  0  0  0  0  0  0  0  0
   -1.1164    6.1941   12.6107 C   0  0  0  0  0  0  0  0  0  0  0  0
   -0.5662    5.2630   13.6580 C   0  0  0  0  0  0  0  0  0  0  0  0
   -0.0876    4.0258   13.4766 N   0  0  0  0  0  0  0  0  0  0  0  0
    0.3650    3.4782   14.6615 C   0  0  0  0  0  0  0  0  0  0  0  0
    0.1553    4.4578   15.6048 C   0  0  0  0  0  0  0  0  0  0  0  0
   -0.4171    5.5464   14.9611 N   0  0  0  0  0  0  0  0  0  0  0  0
   -0.0614    3.5640   12.6075 H   0  0  0  0  0  0  0  0  0  0  0  0
   -1.5326    9.0940   15.0273 O   0  0  0  0  0  0  0  0  0  0  0  0
   -2.7014    9.5173   15.7271 C   0  0  0  0  0  0  0  0  0  0  0  0
   -1.9053    8.4395   12.2415 O   0  0  0  0  0  0  0  0  0  0  0  0
   -1.1843    9.4707   11.5695 C   0  0  0  0  0  0  0  0  0  0  0  0
   -0.3451    5.9958   11.4146 O   0  0  0  0  0  0  0  0  0  0  0  0
    0.9654    6.5477   11.4928 C   0  0  0  0  0  0  0  0  0  0  0  0
   -1.5835    6.7017   16.8681 C   0  0  0  0  0  0  0  0  0  0  0  0
   -0.5917    5.9228   18.8674 C   0  0  0  0  0  0  0  0  0  0  0  0
   -0.7237    7.0206   17.9684 O   0  0  0  0  0  0  0  0  0  0  0  0
    0.9455    2.1209   14.7603 C   0  0  0  0  0  0  0  0  0  0  0  0
    2.3737    2.0828   14.2190 C   0  0  0  0  0  0  0  0  0  0  0  0
    2.4343    1.3826   12.8869 C   0  0  0  0  0  0  0  0  0  0  0  0
    2.4702    2.1215   11.6965 C   0  0  0  0  0  0  0  0  0  0  0  0
    2.5507    1.4716   10.4640 C   0  0  0  0  0  0  0  0  0  0  0  0
    2.5991    0.0803   10.4098 C   0  0  0  0  0  0  0  0  0  0  0  0
    2.5665   -0.6634   11.5874 C   0  0  0  0  0  0  0  0  0  0  0  0
    2.4861   -0.0165   12.8215 C   0  0  0  0  0  0  0  0  0  0  0  0
 18 19  1  0
 19 17  1  0
  1 17  1  0
  1  2  1  0
  2 11  1  0
 11 12  1  0
  2  3  1  0
  3 13  1  0
 13 14  1  0
  3  4  1  0
  4 15  1  0
 15 16  1  0
  4  5  1  0
  5  6  1  0
  6  7  1  0
  7 20  1  0
 20 21  1  0
 21 22  1  0
 22 23  2  0
 23 24  1  0
 24 25  2  0
 25 26  1  0
 26 27  2  0
  7  8  2  0
  8  9  1  0
  9  1  1  0
  9  5  2  0
 27 22  1  0
  6 10  1  0
M  CHG 1   9   1
M  END
> <minimizedAffinity>
-6.98324

> <CNNscore>
0.2262381017

> <CNNaffinity>
4.8239793777

> <CNN_VS>
1.0913679600

> <CNNaffinity_variance>
0.7437889576

$$$$



 27 29  0  0  0  0  0  0  0  0999 V2000
    1.3647    6.2290   11.0592 C   0  0  0  0  0  0  0  0  0  0  0  0
    0.4671    6.2249    9.7860 C   0  0  0  0  0  0  0  0  0  0  0  0
    0.6647    4.9372    8.9431 C   0  0  0  0  0  0  0  0  0  0  0  0
    0.3078    3.6966    9.7826 C   0  0  0  0  0  0  0  0  0  0  0  0
    0.9467    3.7832   11.1431 C   0  0  0  0  0  0  0  0  0  0  0  0
    1.1986    2.7767   11.9895 N   0  0  0  0  0  0  0  0  0  0  0  0
    1.8265    3.2234   13.1361 C   0  0  0  0  0  0  0  0  0  0  0  0
    1.9701    4.5797   12.9533 C   0  0  0  0  0  0  0  0  0  0  0  0
    1.4221    4.8983   11.7184 N   0  0  0  0  0  0  0  0  0  0  0  0
    0.9655    1.8360   11.8164 H   0  0  0  0  0  0  0  0  0  0  0  0
    0.8457    7.3743    9.0034 O   0  0  0  0  0  0  0  0  0  0  0  0
   -0.1828    8.3605    8.9332 C   0  0  0  0  0  0  0  0  0  0  0  0
   -0.2292    4.9751    7.8135 O   0  0  0  0  0  0  0  0  0  0  0  0
    0.4292    4.6954    6.5795 C   0  0  0  0  0  0  0  0  0  0  0  0
    0.7561    2.4731    9.1768 O   0  0  0  0  0  0  0  0  0  0  0  0
    2.1707    2.4056    9.0263 C   0  0  0  0  0  0  0  0  0  0  0  0
    0.8830    7.3374   12.0219 C   0  0  0  0  0  0  0  0  0  0  0  0
   -0.8867    7.1446   13.5771 C   0  0  0  0  0  0  0  0  0  0  0  0
   -0.5341    7.2264   12.1988 O   0  0  0  0  0  0  0  0  0  0  0  0
    2.2233    2.3297   14.2464 C   0  0  0  0  0  0  0  0  0  0  0  0
    1.0035    1.7466   14.9581 C   0  0  0  0  0  0  0  0  0  0  0  0
    1.3988    0.6430   15.9037 C   0  0  0  0  0  0  0  0  0  0  0  0
    1.5631    0.9034   17.2711 C   0  0  0  0  0  0  0  0  0  0  0  0
    1.9059   -0.1254   18.1498 C   0  0  0  0  0  0  0  0  0  0  0  0
    2.0843   -1.4218   17.6718 C   0  0  0  0  0  0  0  0  0  0  0  0
    1.9208   -1.6917   16.3149 C   0  0  0  0  0  0  0  0  0  0  0  0
    1.5780   -0.6652   15.4336 C   0  0  0  0  0  0  0  0  0  0  0  0
 18 19  1  0
 19 17  1  0
  1 17  1  0
  1  2  1  0
  2 11  1  0
 11 12  1  0
  2  3  1  0
  3 13  1  0
 13 14  1  0
  3  4  1  0
  4 15  1  0
 15 16  1  0
  4  5  1  0
  5  6  1  0
  6  7  1  0
  7 20  1  0
 20 21  1  0
 21 22  1  0
 22 23  2  0
 23 24  1  0
 24 25  2  0
 25 26  1  0
 26 27  2  0
  7  8  2  0
  8  9  1  0
  9  1  1  0
  9  5  2  0
 27 22  1  0
  6 10  1  0
M  CHG 1   9   1
M  END
> <minimizedAffinity>
-6.03685

> <CNNscore>
0.2129687816

> <CNNaffinity>
4.4693951607

> <CNN_VS>
0.9518416524

> <CNNaffinity_variance>
1.0447367430

$$$$



 27 29  0  0  0  0  0  0  0  0999 V2000
   -0.5302    8.4364   12.1742 C   0  0  0  0  0  0  0  0  0  0  0  0
   -1.3181    8.9535   10.9338 C   0  0  0  0  0  0  0  0  0  0  0  0
   -0.7651    8.3628    9.6099 C   0  0  0  0  0  0  0  0  0  0  0  0
   -0.8674    6.8264    9.6338 C   0  0  0  0  0  0  0  0  0  0  0  0
   -0.3554    6.2877   10.9430 C   0  0  0  0  0  0  0  0  0  0  0  0
    0.0757    5.0462   11.1995 N   0  0  0  0  0  0  0  0  0  0  0  0
    0.5045    4.9180   12.5065 C   0  0  0  0  0  0  0  0  0  0  0  0
    0.3308    6.1667   13.0580 C   0  0  0  0  0  0  0  0  0  0  0  0
   -0.1981    6.9914   12.0746 N   0  0  0  0  0  0  0  0  0  0  0  0
    0.0859    4.3161   10.5392 H   0  0  0  0  0  0  0  0  0  0  0  0
   -1.1766   10.3876   10.9162 O   0  0  0  0  0  0  0  0  0  0  0  0
    0.0037   10.8202   10.2417 C   0  0  0  0  0  0  0  0  0  0  0  0
   -1.5686    8.8393    8.5127 O   0  0  0  0  0  0  0  0  0  0  0  0
   -2.9639    8.8371    8.8092 C   0  0  0  0  0  0  0  0  0  0  0  0
   -0.1019    6.2064    8.5876 O   0  0  0  0  0  0  0  0  0  0  0  0
   -0.6542    4.9711    8.1434 C   0  0  0  0  0  0  0  0  0  0  0  0
   -1.3231    8.7664   13.4587 C   0  0  0  0  0  0  0  0  0  0  0  0
   -2.7130    7.4574   14.8525 C   0  0  0  0  0  0  0  0  0  0  0  0
   -2.4819    7.9271   13.5270 O   0  0  0  0  0  0  0  0  0  0  0  0
    1.0323    3.6554   13.0688 C   0  0  0  0  0  0  0  0  0  0  0  0
    2.3232    3.2292   12.3714 C   0  0  0  0  0  0  0  0  0  0  0  0
    2.4665    1.7300   12.3566 C   0  0  0  0  0  0  0  0  0  0  0  0
    2.0219    0.9627   13.4421 C   0  0  0  0  0  0  0  0  0  0  0  0
    2.1334   -0.4283   13.4165 C   0  0  0  0  0  0  0  0  0  0  0  0
    2.6862   -1.0644   12.3071 C   0  0  0  0  0  0  0  0  0  0  0  0
    3.1288   -0.3111   11.2220 C   0  0  0  0  0  0  0  0  0  0  0  0
    3.0187    1.0800   11.2444 C   0  0  0  0  0  0  0  0  0  0  0  0
 18 19  1  0
 19 17  1  0
  1 17  1  0
  1  2  1  0
  2 11  1  0
 11 12  1  0
  2  3  1  0
  3 13  1  0
 13 14  1  0
  3  4  1  0
  4 15  1  0
 15 16  1  0
  4  5  1  0
  5  6  1  0
  6  7  1  0
  7 20  1  0
 20 21  1  0
 21 22  1  0
 22 23  2  0
 23 24  1  0
 24 25  2  0
 25 26  1  0
 26 27  2  0
  7  8  2  0
  8  9  1  0
  9  1  1  0
  9  5  2  0
 27 22  1  0
  6 10  1  0
M  CHG 1   9   1
M  END
> <minimizedAffinity>
-6.83814

> <CNNscore>
0.2128447741

> <CNNaffinity>
5.3014121056

> <CNN_VS>
1.1283779144

> <CNNaffinity_variance>
0.6166267395

$$$$



 27 29  0  0  0  0  0  0  0  0999 V2000
   -0.4721    8.5461   12.1707 C   0  0  0  0  0  0  0  0  0  0  0  0
   -1.3183    8.9738   10.9347 C   0  0  0  0  0  0  0  0  0  0  0  0
   -0.7762    8.3534    9.6198 C   0  0  0  0  0  0  0  0  0  0  0  0
   -0.8058    6.8164    9.7096 C   0  0  0  0  0  0  0  0  0  0  0  0
   -0.2320    6.3574   11.0236 C   0  0  0  0  0  0  0  0  0  0  0  0
    0.2639    5.1488   11.3174 N   0  0  0  0  0  0  0  0  0  0  0  0
    0.7353    5.0957   12.6149 C   0  0  0  0  0  0  0  0  0  0  0  0
    0.5191    6.3573   13.1200 C   0  0  0  0  0  0  0  0  0  0  0  0
   -0.0756    7.1148   12.1202 N   0  0  0  0  0  0  0  0  0  0  0  0
    0.2894    4.3926   10.6875 H   0  0  0  0  0  0  0  0  0  0  0  0
   -1.2447   10.4108   10.8542 O   0  0  0  0  0  0  0  0  0  0  0  0
   -0.0555   10.8702   10.2140 C   0  0  0  0  0  0  0  0  0  0  0  0
   -1.6322    8.7461    8.5290 O   0  0  0  0  0  0  0  0  0  0  0  0
   -3.0060    8.8210    8.9054 C   0  0  0  0  0  0  0  0  0  0  0  0
   -0.0422    6.1883    8.6669 O   0  0  0  0  0  0  0  0  0  0  0  0
   -0.6005    4.9542    8.2267 C   0  0  0  0  0  0  0  0  0  0  0  0
   -1.2426    8.8935   13.4641 C   0  0  0  0  0  0  0  0  0  0  0  0
   -2.5679    7.5866   14.9213 C   0  0  0  0  0  0  0  0  0  0  0  0
   -2.3818    8.0330   13.5808 O   0  0  0  0  0  0  0  0  0  0  0  0
    1.3374    3.8833   13.2121 C   0  0  0  0  0  0  0  0  0  0  0  0
    1.0087    3.7705   14.6999 C   0  0  0  0  0  0  0  0  0  0  0  0
    1.1662    2.3544   15.1880 C   0  0  0  0  0  0  0  0  0  0  0  0
    1.5595    1.3382   14.3064 C   0  0  0  0  0  0  0  0  0  0  0  0
    1.7283    0.0311   14.7655 C   0  0  0  0  0  0  0  0  0  0  0  0
    1.5092   -0.2716   16.1076 C   0  0  0  0  0  0  0  0  0  0  0  0
    1.1204    0.7316   16.9926 C   0  0  0  0  0  0  0  0  0  0  0  0
    0.9507    2.0397   16.5367 C   0  0  0  0  0  0  0  0  0  0  0  0
 18 19  1  0
 19 17  1  0
  1 17  1  0
  1  2  1  0
  2 11  1  0
 11 12  1  0
  2  3  1  0
  3 13  1  0
 13 14  1  0
  3  4  1  0
  4 15  1  0
 15 16  1  0
  4  5  1  0
  5  6  1  0
  6  7  1  0
  7 20  1  0
 20 21  1  0
 21 22  1  0
 22 23  2  0
 23 24  1  0
 24 25  2  0
 25 26  1  0
 26 27  2  0
  7  8  2  0
  8  9  1  0
  9  1  1  0
  9  5  2  0
 27 22  1  0
  6 10  1  0
M  CHG 1   9   1
M  END
> <minimizedAffinity>
-6.88621

> <CNNscore>
0.2100339830

> <CNNaffinity>
5.3583412170

> <CNN_VS>
1.1254338026

> <CNNaffinity_variance>
0.5173192620

$$$$



 27 29  0  0  0  0  0  0  0  0999 V2000
   -0.5385    6.2876   15.6525 C   0  0  0  0  0  0  0  0  0  0  0  0
   -1.4371    7.1086   14.6803 C   0  0  0  0  0  0  0  0  0  0  0  0
   -0.8578    7.1357   13.2411 C   0  0  0  0  0  0  0  0  0  0  0  0
   -0.7442    5.7022   12.6903 C   0  0  0  0  0  0  0  0  0  0  0  0
   -0.1130    4.7963   13.7138 C   0  0  0  0  0  0  0  0  0  0  0  0
    0.4962    3.6238   13.4975 N   0  0  0  0  0  0  0  0  0  0  0  0
    0.9879    3.0837   14.6702 C   0  0  0  0  0  0  0  0  0  0  0  0
    0.6630    4.0006   15.6435 C   0  0  0  0  0  0  0  0  0  0  0  0
   -0.0124    5.0458   15.0284 N   0  0  0  0  0  0  0  0  0  0  0  0
    0.5829    3.1995   12.6134 H   0  0  0  0  0  0  0  0  0  0  0  0
   -1.4975    8.4515   15.1995 O   0  0  0  0  0  0  0  0  0  0  0  0
   -2.8105    8.8285   15.6108 C   0  0  0  0  0  0  0  0  0  0  0  0
   -1.7609    7.8642   12.3864 O   0  0  0  0  0  0  0  0  0  0  0  0
   -1.1622    9.0252   11.8134 C   0  0  0  0  0  0  0  0  0  0  0  0
    0.0599    5.6301   11.5017 O   0  0  0  0  0  0  0  0  0  0  0  0
    1.3006    6.3195   11.6195 C   0  0  0  0  0  0  0  0  0  0  0  0
   -1.3204    6.0012   16.9541 C   0  0  0  0  0  0  0  0  0  0  0  0
   -3.6528    5.7650   17.2565 C   0  0  0  0  0  0  0  0  0  0  0  0
   -2.4842    5.2255   16.6450 O   0  0  0  0  0  0  0  0  0  0  0  0
    1.7073    1.7923   14.7315 C   0  0  0  0  0  0  0  0  0  0  0  0
    1.3534    1.0147   15.9982 C   0  0  0  0  0  0  0  0  0  0  0  0
    0.1584    0.1252   15.7769 C   0  0  0  0  0  0  0  0  0  0  0  0
    0.3131   -1.1427   15.1999 C   0  0  0  0  0  0  0  0  0  0  0  0
   -0.7921   -1.9754   15.0177 C   0  0  0  0  0  0  0  0  0  0  0  0
   -2.0590   -1.5510   15.4124 C   0  0  0  0  0  0  0  0  0  0  0  0
   -2.2232   -0.2936   15.9892 C   0  0  0  0  0  0  0  0  0  0  0  0
   -1.1201    0.5415   16.1728 C   0  0  0  0  0  0  0  0  0  0  0  0
 18 19  1  0
 19 17  1  0
  1 17  1  0
  1  2  1  0
  2 11  1  0
 11 12  1  0
  2  3  1  0
  3 13  1  0
 13 14  1  0
  3  4  1  0
  4 15  1  0
 15 16  1  0
  4  5  1  0
  5  6  1  0
  6  7  1  0
  7 20  1  0
 20 21  1  0
 21 22  1  0
 22 23  2  0
 23 24  1  0
 24 25  2  0
 25 26  1  0
 26 27  2  0
  7  8  2  0
  8  9  1  0
  9  1  1  0
  9  5  2  0
 27 22  1  0
  6 10  1  0
M  CHG 1   9   1
M  END
> <minimizedAffinity>
-5.98277

> <CNNscore>
0.2076748908

> <CNNaffinity>
4.7865028381

> <CNN_VS>
0.9940364361

> <CNNaffinity_variance>
0.4109347165

$$$$



 27 29  0  0  0  0  0  0  0  0999 V2000
    0.3021    6.6350   12.2769 C   0  0  0  0  0  0  0  0  0  0  0  0
    0.2213    7.1674   13.7387 C   0  0  0  0  0  0  0  0  0  0  0  0
   -0.3262    6.0937   14.7159 C   0  0  0  0  0  0  0  0  0  0  0  0
    0.5904    4.8564   14.7086 C   0  0  0  0  0  0  0  0  0  0  0  0
    0.9191    4.4563   13.2949 C   0  0  0  0  0  0  0  0  0  0  0  0
    1.3409    3.2606   12.8646 N   0  0  0  0  0  0  0  0  0  0  0  0
    1.5115    3.2462   11.4937 C   0  0  0  0  0  0  0  0  0  0  0  0
    1.1544    4.5094   11.0812 C   0  0  0  0  0  0  0  0  0  0  0  0
    0.7923    5.2338   12.2086 N   0  0  0  0  0  0  0  0  0  0  0  0
    1.5085    2.4883   13.4517 H   0  0  0  0  0  0  0  0  0  0  0  0
   -0.6683    8.3011   13.7226 O   0  0  0  0  0  0  0  0  0  0  0  0
   -1.9646    7.9816   13.2199 C   0  0  0  0  0  0  0  0  0  0  0  0
   -0.3255    6.6329   16.0523 O   0  0  0  0  0  0  0  0  0  0  0  0
   -1.6111    6.5824   16.6681 C   0  0  0  0  0  0  0  0  0  0  0  0
   -0.0137    3.7187   15.3454 O   0  0  0  0  0  0  0  0  0  0  0  0
    0.6696    3.3058   16.5248 C   0  0  0  0  0  0  0  0  0  0  0  0
    1.1630    7.5971   11.4281 C   0  0  0  0  0  0  0  0  0  0  0  0
   -0.0608    9.1847   10.1753 C   0  0  0  0  0  0  0  0  0  0  0  0
    0.4889    7.8701   10.1940 O   0  0  0  0  0  0  0  0  0  0  0  0
    1.9713    2.0563   10.7442 C   0  0  0  0  0  0  0  0  0  0  0  0
    2.8585    1.1603   11.6070 C   0  0  0  0  0  0  0  0  0  0  0  0
    2.8599   -0.2578   11.0998 C   0  0  0  0  0  0  0  0  0  0  0  0
    2.1642   -0.5954    9.9308 C   0  0  0  0  0  0  0  0  0  0  0  0
    2.1864   -1.9050    9.4490 C   0  0  0  0  0  0  0  0  0  0  0  0
    2.9051   -2.8869   10.1276 C   0  0  0  0  0  0  0  0  0  0  0  0
    3.6020   -2.5612   11.2891 C   0  0  0  0  0  0  0  0  0  0  0  0
    3.5818   -1.2525   11.7736 C   0  0  0  0  0  0  0  0  0  0  0  0
 18 19  1  0
 19 17  1  0
  1 17  1  0
  1  2  1  0
  2 11  1  0
 11 12  1  0
  2  3  1  0
  3 13  1  0
 13 14  1  0
  3  4  1  0
  4 15  1  0
 15 16  1  0
  4  5  1  0
  5  6  1  0
  6  7  1  0
  7 20  1  0
 20 21  1  0
 21 22  1  0
 22 23  2  0
 23 24  1  0
 24 25  2  0
 25 26  1  0
 26 27  2  0
  7  8  2  0
  8  9  1  0
  9  1  1  0
  9  5  2  0
 27 22  1  0
  6 10  1  0
M  CHG 1   9   1
M  END
> <minimizedAffinity>
-6.31720

> <CNNscore>
0.2066903114

> <CNNaffinity>
4.8640103340

> <CNN_VS>
1.0053437948

> <CNNaffinity_variance>
0.6852454543

$$$$



 27 29  0  0  0  0  0  0  0  0999 V2000
    1.3239    3.8433   10.2713 C   0  0  0  0  0  0  0  0  0  0  0  0
    1.2154    2.3214    9.9570 C   0  0  0  0  0  0  0  0  0  0  0  0
    2.0098    1.4623   10.9761 C   0  0  0  0  0  0  0  0  0  0  0  0
    1.4687    1.6957   12.3988 C   0  0  0  0  0  0  0  0  0  0  0  0
    1.3013    3.1688   12.6604 C   0  0  0  0  0  0  0  0  0  0  0  0
    1.2360    3.7821   13.8489 N   0  0  0  0  0  0  0  0  0  0  0  0
    1.1134    5.1509   13.7073 C   0  0  0  0  0  0  0  0  0  0  0  0
    1.1210    5.3663   12.3482 C   0  0  0  0  0  0  0  0  0  0  0  0
    1.2393    4.1306   11.7268 N   0  0  0  0  0  0  0  0  0  0  0  0
    1.2710    3.3159   14.7153 H   0  0  0  0  0  0  0  0  0  0  0  0
    1.7596    2.1268    8.6369 O   0  0  0  0  0  0  0  0  0  0  0  0
    0.8439    1.4890    7.7481 C   0  0  0  0  0  0  0  0  0  0  0  0
    1.8245    0.0688   10.6589 O   0  0  0  0  0  0  0  0  0  0  0  0
    3.0372   -0.6788   10.7293 C   0  0  0  0  0  0  0  0  0  0  0  0
    2.3444    1.1780   13.4137 O   0  0  0  0  0  0  0  0  0  0  0  0
    1.7417    0.1651   14.2131 C   0  0  0  0  0  0  0  0  0  0  0  0
    0.2554    4.6111    9.4613 C   0  0  0  0  0  0  0  0  0  0  0  0
    0.6415    6.8928    8.9790 C   0  0  0  0  0  0  0  0  0  0  0  0
    0.9038    5.5467    8.5917 O   0  0  0  0  0  0  0  0  0  0  0  0
    1.0187    6.0815   14.8535 C   0  0  0  0  0  0  0  0  0  0  0  0
    0.0160    5.5862   15.8945 C   0  0  0  0  0  0  0  0  0  0  0  0
   -1.3983    5.9017   15.4838 C   0  0  0  0  0  0  0  0  0  0  0  0
   -2.1715    4.9482   14.8075 C   0  0  0  0  0  0  0  0  0  0  0  0
   -3.4899    5.2334   14.4489 C   0  0  0  0  0  0  0  0  0  0  0  0
   -4.0476    6.4704   14.7649 C   0  0  0  0  0  0  0  0  0  0  0  0
   -3.2884    7.4241   15.4392 C   0  0  0  0  0  0  0  0  0  0  0  0
   -1.9698    7.1420   15.7992 C   0  0  0  0  0  0  0  0  0  0  0  0
 18 19  1  0
 19 17  1  0
  1 17  1  0
  1  2  1  0
  2 11  1  0
 11 12  1  0
  2  3  1  0
  3 13  1  0
 13 14  1  0
  3  4  1  0
  4 15  1  0
 15 16  1  0
  4  5  1  0
  5  6  1  0
  6  7  1  0
  7 20  1  0
 20 21  1  0
 21 22  1  0
 22 23  2  0
 23 24  1  0
 24 25  2  0
 25 26  1  0
 26 27  2  0
  7  8  2  0
  8  9  1  0
  9  1  1  0
  9  5  2  0
 27 22  1  0
  6 10  1  0
M  CHG 1   9   1
M  END
> <minimizedAffinity>
-6.11793

> <CNNscore>
0.1898103058

> <CNNaffinity>
5.2087092400

> <CNN_VS>
0.9886667132

> <CNNaffinity_variance>
0.1363153458

$$$$
