


 24 26  0  0  0  0  0  0  0  0999 V2000
    4.5970    9.3048    1.0627 C   0  0  0  0  0  0  0  0  0  0  0  0
    4.5810    9.6528    2.5257 C   0  0  0  0  0  0  0  0  0  0  0  0
    3.3070    9.7241    3.1032 C   0  0  0  0  0  0  0  0  0  0  0  0
    3.0665    9.8790    4.4140 N   0  0  0  0  0  0  0  0  0  0  0  0
    4.1514    9.9329    5.2042 C   0  0  0  0  0  0  0  0  0  0  0  0
    5.4724    9.9019    4.7562 C   0  0  0  0  0  0  0  0  0  0  0  0
    6.4998    9.9164    5.7150 C   0  0  0  0  0  0  0  0  0  0  0  0
    7.8287    9.8686    5.3283 C   0  0  0  0  0  0  0  0  0  0  0  0
    9.1950    9.8454    6.6313 Br  0  0  0  0  0  0  0  0  0  0  0  0
    8.1532    9.8807    3.9856 C   0  0  0  0  0  0  0  0  0  0  0  0
    7.1356    9.9384    3.0118 C   0  0  0  0  0  0  0  0  0  0  0  0
    5.7402    9.8421    3.3594 C   0  0  0  0  0  0  0  0  0  0  0  0
    7.7212   10.2618    1.3475 S   0  0  0  0  0  0  0  0  0  0  0  0
    7.7621   11.6898    1.1289 O   0  0  0  0  0  0  0  0  0  0  0  0
    6.9427    9.3861    0.5002 O   0  0  0  0  0  0  0  0  0  0  0  0
    9.3750    9.7271    1.3727 N   0  0  0  0  0  0  0  0  0  0  0  0
    9.6155    8.5377    0.4597 C   0  0  0  0  0  0  0  0  0  0  0  0
   10.8098    7.6584    0.8305 C   0  0  0  0  0  0  0  0  0  0  0  0
   10.5951    6.7721    2.0661 C   0  0  0  0  0  0  0  0  0  0  0  0
    9.4211    7.0987    2.8596 N   0  0  0  0  0  0  0  0  0  0  0  0
    9.4821    8.3923    3.5505 C   0  0  0  0  0  0  0  0  0  0  0  0
   10.0192    9.5909    2.7345 C   0  0  0  0  0  0  0  0  0  0  0  0
    9.9871   10.8796    3.5548 C   0  0  0  0  0  0  0  0  0  0  0  0
    9.3011    6.3694    3.5627 H   0  0  0  0  0  0  0  0  0  0  0  0
  1  2  1  0
  2  3  2  0
  3  4  1  0
  4  5  2  0
  5  6  1  0
  6  7  2  0
  7  8  1  0
  8  9  1  0
  8 10  2  0
 10 11  1  0
 11 13  1  0
 13 14  2  0
 13 15  2  0
 13 16  1  0
 16 17  1  0
 17 18  1  0
 18 19  1  0
 19 20  1  0
 20 21  1  0
 21 22  1  0
 22 23  1  0
 11 12  2  0
 12  2  1  0
 12  6  1  0
 22 16  1  0
 20 24  1  0
M  END
> <minimizedAffinity>
-7.47281

> <CNNscore>
0.9685631394

> <CNNaffinity>
6.8592429161

> <CNN_VS>
6.6436100006

> <CNNaffinity_variance>
0.2413826436

$$$$



 24 26  0  0  0  0  0  0  0  0999 V2000
    4.0815    9.2357    1.5342 C   0  0  0  0  0  0  0  0  0  0  0  0
    4.4319    9.6764    2.9287 C   0  0  0  0  0  0  0  0  0  0  0  0
    3.3425    9.8071    3.7993 C   0  0  0  0  0  0  0  0  0  0  0  0
    3.4372   10.0493    5.1156 N   0  0  0  0  0  0  0  0  0  0  0  0
    4.6851   10.1339    5.6053 C   0  0  0  0  0  0  0  0  0  0  0  0
    5.8523   10.0509    4.8454 C   0  0  0  0  0  0  0  0  0  0  0  0
    7.0866   10.1080    5.5150 C   0  0  0  0  0  0  0  0  0  0  0  0
    8.2768   10.0119    4.8135 C   0  0  0  0  0  0  0  0  0  0  0  0
    9.9251   10.0471    5.7338 Br  0  0  0  0  0  0  0  0  0  0  0  0
    8.2558    9.9327    3.4346 C   0  0  0  0  0  0  0  0  0  0  0  0
    7.0273    9.9465    2.7433 C   0  0  0  0  0  0  0  0  0  0  0  0
    5.7628    9.8976    3.4331 C   0  0  0  0  0  0  0  0  0  0  0  0
    7.1792   10.1529    0.9680 S   0  0  0  0  0  0  0  0  0  0  0  0
    7.6680   11.4833    0.6859 O   0  0  0  0  0  0  0  0  0  0  0  0
    5.9268    9.6737    0.4271 O   0  0  0  0  0  0  0  0  0  0  0  0
    8.4585    9.0620    0.5262 N   0  0  0  0  0  0  0  0  0  0  0  0
    9.1596    8.4680    1.7351 C   0  0  0  0  0  0  0  0  0  0  0  0
   10.5942    7.9975    1.4946 C   0  0  0  0  0  0  0  0  0  0  0  0
   11.6242    9.1272    1.3484 C   0  0  0  0  0  0  0  0  0  0  0  0
   11.0583   10.4555    1.1752 N   0  0  0  0  0  0  0  0  0  0  0  0
   10.3508   10.6655   -0.0937 C   0  0  0  0  0  0  0  0  0  0  0  0
    9.4037    9.5342   -0.5563 C   0  0  0  0  0  0  0  0  0  0  0  0
    8.6998    9.8992   -1.8625 C   0  0  0  0  0  0  0  0  0  0  0  0
   11.8186   11.1333    1.2299 H   0  0  0  0  0  0  0  0  0  0  0  0
  1  2  1  0
  2  3  2  0
  3  4  1  0
  4  5  2  0
  5  6  1  0
  6  7  2  0
  7  8  1  0
  8  9  1  0
  8 10  2  0
 10 11  1  0
 11 13  1  0
 13 14  2  0
 13 15  2  0
 13 16  1  0
 16 17  1  0
 17 18  1  0
 18 19  1  0
 19 20  1  0
 20 21  1  0
 21 22  1  0
 22 23  1  0
 11 12  2  0
 12  2  1  0
 12  6  1  0
 22 16  1  0
 20 24  1  0
M  END
> <minimizedAffinity>
-8.69905

> <CNNscore>
0.9606133699

> <CNNaffinity>
6.7574691772

> <CNN_VS>
6.4913153648

> <CNNaffinity_variance>
0.3695403039

$$$$



 24 26  0  0  0  0  0  0  0  0999 V2000
    6.8008   10.4699    5.9401 C   0  0  0  0  0  0  0  0  0  0  0  0
    6.1685   10.1285    4.6190 C   0  0  0  0  0  0  0  0  0  0  0  0
    4.7705   10.0445    4.6361 C   0  0  0  0  0  0  0  0  0  0  0  0
    3.9978    9.8928    3.5498 N   0  0  0  0  0  0  0  0  0  0  0  0
    4.6451    9.8556    2.3735 C   0  0  0  0  0  0  0  0  0  0  0  0
    6.0310    9.9004    2.2188 C   0  0  0  0  0  0  0  0  0  0  0  0
    6.5544    9.9026    0.9145 C   0  0  0  0  0  0  0  0  0  0  0  0
    7.9213    9.9646    0.7012 C   0  0  0  0  0  0  0  0  0  0  0  0
    8.6051   10.0103   -1.0582 Br  0  0  0  0  0  0  0  0  0  0  0  0
    8.7852    9.9503    1.7790 C   0  0  0  0  0  0  0  0  0  0  0  0
    8.2777    9.8758    3.0921 C   0  0  0  0  0  0  0  0  0  0  0  0
    6.8659    9.9569    3.3704 C   0  0  0  0  0  0  0  0  0  0  0  0
    9.5171    9.5519    4.3475 S   0  0  0  0  0  0  0  0  0  0  0  0
    9.1426    8.3691    5.0888 O   0  0  0  0  0  0  0  0  0  0  0  0
    9.7273   10.8236    5.0028 O   0  0  0  0  0  0  0  0  0  0  0  0
   10.9355    9.1254    3.4375 N   0  0  0  0  0  0  0  0  0  0  0  0
   11.2475    7.6410    3.5087 C   0  0  0  0  0  0  0  0  0  0  0  0
   12.7097    7.2667    3.2656 C   0  0  0  0  0  0  0  0  0  0  0  0
   13.6602    7.6066    4.4229 C   0  0  0  0  0  0  0  0  0  0  0  0
   13.0986    8.4775    5.4432 N   0  0  0  0  0  0  0  0  0  0  0  0
   12.8235    9.8500    5.0015 C   0  0  0  0  0  0  0  0  0  0  0  0
   12.1466   10.0129    3.6209 C   0  0  0  0  0  0  0  0  0  0  0  0
   11.8773   11.4834    3.3049 C   0  0  0  0  0  0  0  0  0  0  0  0
   13.7577    8.5209    6.2204 H   0  0  0  0  0  0  0  0  0  0  0  0
  1  2  1  0
  2  3  2  0
  3  4  1  0
  4  5  2  0
  5  6  1  0
  6  7  2  0
  7  8  1  0
  8  9  1  0
  8 10  2  0
 10 11  1  0
 11 13  1  0
 13 14  2  0
 13 15  2  0
 13 16  1  0
 16 17  1  0
 17 18  1  0
 18 19  1  0
 19 20  1  0
 20 21  1  0
 21 22  1  0
 22 23  1  0
 11 12  2  0
 12  2  1  0
 12  6  1  0
 22 16  1  0
 20 24  1  0
M  END
> <minimizedAffinity>
-9.23235

> <CNNscore>
0.9388152957

> <CNNaffinity>
6.8132367134

> <CNN_VS>
6.3963708878

> <CNNaffinity_variance>
0.1676315814

$$$$



 24 26  0  0  0  0  0  0  0  0999 V2000
    6.2470   11.0207    5.8878 C   0  0  0  0  0  0  0  0  0  0  0  0
    5.8686   10.3996    4.5714 C   0  0  0  0  0  0  0  0  0  0  0  0
    4.5327    9.9907    4.4722 C   0  0  0  0  0  0  0  0  0  0  0  0
    3.9482    9.5450    3.3498 N   0  0  0  0  0  0  0  0  0  0  0  0
    4.7229    9.5350    2.2526 C   0  0  0  0  0  0  0  0  0  0  0  0
    6.0723    9.8883    2.2201 C   0  0  0  0  0  0  0  0  0  0  0  0
    6.7335    9.8733    0.9801 C   0  0  0  0  0  0  0  0  0  0  0  0
    8.0676   10.2324    0.8857 C   0  0  0  0  0  0  0  0  0  0  0  0
    8.9285   10.2482   -0.7947 Br  0  0  0  0  0  0  0  0  0  0  0  0
    8.7783   10.5383    2.0300 C   0  0  0  0  0  0  0  0  0  0  0  0
    8.1475   10.4883    3.2898 C   0  0  0  0  0  0  0  0  0  0  0  0
    6.7303   10.2637    3.4252 C   0  0  0  0  0  0  0  0  0  0  0  0
    9.2694   10.6028    4.6845 S   0  0  0  0  0  0  0  0  0  0  0  0
    8.5029   10.6106    5.9096 O   0  0  0  0  0  0  0  0  0  0  0  0
   10.1751   11.6788    4.3488 O   0  0  0  0  0  0  0  0  0  0  0  0
   10.1276    9.0913    4.6587 N   0  0  0  0  0  0  0  0  0  0  0  0
   11.2213    9.0616    3.6057 C   0  0  0  0  0  0  0  0  0  0  0  0
   11.6162    7.6702    3.1106 C   0  0  0  0  0  0  0  0  0  0  0  0
   10.5898    7.0041    2.1824 C   0  0  0  0  0  0  0  0  0  0  0  0
    9.2894    7.6534    2.1384 N   0  0  0  0  0  0  0  0  0  0  0  0
    8.5151    7.5721    3.3828 C   0  0  0  0  0  0  0  0  0  0  0  0
    9.2843    7.8361    4.6979 C   0  0  0  0  0  0  0  0  0  0  0  0
    8.3545    7.7650    5.9084 C   0  0  0  0  0  0  0  0  0  0  0  0
    8.7426    7.2174    1.3959 H   0  0  0  0  0  0  0  0  0  0  0  0
  1  2  1  0
  2  3  2  0
  3  4  1  0
  4  5  2  0
  5  6  1  0
  6  7  2  0
  7  8  1  0
  8  9  1  0
  8 10  2  0
 10 11  1  0
 11 13  1  0
 13 14  2  0
 13 15  2  0
 13 16  1  0
 16 17  1  0
 17 18  1  0
 18 19  1  0
 19 20  1  0
 20 21  1  0
 21 22  1  0
 22 23  1  0
 11 12  2  0
 12  2  1  0
 12  6  1  0
 22 16  1  0
 20 24  1  0
M  END
> <minimizedAffinity>
-7.28728

> <CNNscore>
0.8396003246

> <CNNaffinity>
6.4121246338

> <CNN_VS>
5.3836216927

> <CNNaffinity_variance>
0.2140557766

$$$$



 24 26  0  0  0  0  0  0  0  0999 V2000
    8.4797   10.0487    6.1296 C   0  0  0  0  0  0  0  0  0  0  0  0
    7.5460   10.0255    4.9510 C   0  0  0  0  0  0  0  0  0  0  0  0
    6.1985   10.2520    5.2589 C   0  0  0  0  0  0  0  0  0  0  0  0
    5.2214   10.4137    4.3537 N   0  0  0  0  0  0  0  0  0  0  0  0
    5.6065   10.3827    3.0673 C   0  0  0  0  0  0  0  0  0  0  0  0
    6.9070   10.1384    2.6249 C   0  0  0  0  0  0  0  0  0  0  0  0
    7.1595   10.1892    1.2433 C   0  0  0  0  0  0  0  0  0  0  0  0
    8.4350    9.9731    0.7491 C   0  0  0  0  0  0  0  0  0  0  0  0
    8.7648   10.0878   -1.1064 Br  0  0  0  0  0  0  0  0  0  0  0  0
    9.4568    9.6317    1.6137 C   0  0  0  0  0  0  0  0  0  0  0  0
    9.2036    9.5064    2.9948 C   0  0  0  0  0  0  0  0  0  0  0  0
    7.9324    9.8626    3.5730 C   0  0  0  0  0  0  0  0  0  0  0  0
   10.5412    8.7600    3.9280 S   0  0  0  0  0  0  0  0  0  0  0  0
   10.1663    7.4146    4.2995 O   0  0  0  0  0  0  0  0  0  0  0  0
   10.9029    9.7485    4.9194 O   0  0  0  0  0  0  0  0  0  0  0  0
   11.8263    8.6029    2.7680 N   0  0  0  0  0  0  0  0  0  0  0  0
   13.0652    9.3870    3.1629 C   0  0  0  0  0  0  0  0  0  0  0  0
   13.9814    9.7897    2.0073 C   0  0  0  0  0  0  0  0  0  0  0  0
   13.4417   10.9260    1.1263 C   0  0  0  0  0  0  0  0  0  0  0  0
   12.0408   11.2540    1.3370 N   0  0  0  0  0  0  0  0  0  0  0  0
   11.0928   10.2128    0.9224 C   0  0  0  0  0  0  0  0  0  0  0  0
   11.4440    8.7584    1.3127 C   0  0  0  0  0  0  0  0  0  0  0  0
   10.3561    7.7848    0.8616 C   0  0  0  0  0  0  0  0  0  0  0  0
   11.8311   12.1015    0.8097 H   0  0  0  0  0  0  0  0  0  0  0  0
  1  2  1  0
  2  3  2  0
  3  4  1  0
  4  5  2  0
  5  6  1  0
  6  7  2  0
  7  8  1  0
  8  9  1  0
  8 10  2  0
 10 11  1  0
 11 13  1  0
 13 14  2  0
 13 15  2  0
 13 16  1  0
 16 17  1  0
 17 18  1  0
 18 19  1  0
 19 20  1  0
 20 21  1  0
 21 22  1  0
 22 23  1  0
 11 12  2  0
 12  2  1  0
 12  6  1  0
 22 16  1  0
 20 24  1  0
M  END
> <minimizedAffinity>
-8.37195

> <CNNscore>
0.1966582090

> <CNNaffinity>
5.9423999786

> <CNN_VS>
1.1686217785

> <CNNaffinity_variance>
0.7319827080

$$$$



 24 26  0  0  0  0  0  0  0  0999 V2000
    8.5905    9.1876    5.6808 C   0  0  0  0  0  0  0  0  0  0  0  0
    7.5703    9.4580    4.6095 C   0  0  0  0  0  0  0  0  0  0  0  0
    6.3323    9.9197    5.0743 C   0  0  0  0  0  0  0  0  0  0  0  0
    5.3328   10.3544    4.2919 N   0  0  0  0  0  0  0  0  0  0  0  0
    5.5860   10.3641    2.9728 C   0  0  0  0  0  0  0  0  0  0  0  0
    6.7624    9.9065    2.3784 C   0  0  0  0  0  0  0  0  0  0  0  0
    6.8949   10.0310    0.9848 C   0  0  0  0  0  0  0  0  0  0  0  0
    8.0482    9.6106    0.3437 C   0  0  0  0  0  0  0  0  0  0  0  0
    8.2266    9.8251   -1.5237 Br  0  0  0  0  0  0  0  0  0  0  0  0
    9.0504    8.9954    1.0684 C   0  0  0  0  0  0  0  0  0  0  0  0
    8.9017    8.7984    2.4564 C   0  0  0  0  0  0  0  0  0  0  0  0
    7.7892    9.3470    3.1902 C   0  0  0  0  0  0  0  0  0  0  0  0
   10.1337    7.7187    3.1870 S   0  0  0  0  0  0  0  0  0  0  0  0
   10.6418    6.8246    2.1717 O   0  0  0  0  0  0  0  0  0  0  0  0
    9.5234    7.2216    4.3999 O   0  0  0  0  0  0  0  0  0  0  0  0
   11.4430    8.7882    3.5912 N   0  0  0  0  0  0  0  0  0  0  0  0
   11.1583   10.2285    3.2032 C   0  0  0  0  0  0  0  0  0  0  0  0
   12.3924   11.1005    2.9713 C   0  0  0  0  0  0  0  0  0  0  0  0
   13.1468   10.8107    1.6654 C   0  0  0  0  0  0  0  0  0  0  0  0
   12.7569    9.5830    0.9904 N   0  0  0  0  0  0  0  0  0  0  0  0
   13.1080    8.3480    1.7018 C   0  0  0  0  0  0  0  0  0  0  0  0
   12.8338    8.3209    3.2232 C   0  0  0  0  0  0  0  0  0  0  0  0
   13.2014    6.9671    3.8292 C   0  0  0  0  0  0  0  0  0  0  0  0
   13.2135    9.5641    0.0785 H   0  0  0  0  0  0  0  0  0  0  0  0
  1  2  1  0
  2  3  2  0
  3  4  1  0
  4  5  2  0
  5  6  1  0
  6  7  2  0
  7  8  1  0
  8  9  1  0
  8 10  2  0
 10 11  1  0
 11 13  1  0
 13 14  2  0
 13 15  2  0
 13 16  1  0
 16 17  1  0
 17 18  1  0
 18 19  1  0
 19 20  1  0
 20 21  1  0
 21 22  1  0
 22 23  1  0
 11 12  2  0
 12  2  1  0
 12  6  1  0
 22 16  1  0
 20 24  1  0
M  END
> <minimizedAffinity>
-8.52400

> <CNNscore>
0.1908340454

> <CNNaffinity>
6.1934323311

> <CNN_VS>
1.1819177866

> <CNNaffinity_variance>
0.1880493611

$$$$



 24 26  0  0  0  0  0  0  0  0999 V2000
   15.5150   11.5174   -1.8545 C   0  0  0  0  0  0  0  0  0  0  0  0
   14.6699   12.3441   -0.9250 C   0  0  0  0  0  0  0  0  0  0  0  0
   14.4668   13.6692   -1.3307 C   0  0  0  0  0  0  0  0  0  0  0  0
   13.6367   14.5364   -0.7315 N   0  0  0  0  0  0  0  0  0  0  0  0
   12.9412   14.0532    0.3112 C   0  0  0  0  0  0  0  0  0  0  0  0
   13.0692   12.7657    0.8333 C   0  0  0  0  0  0  0  0  0  0  0  0
   12.2313   12.3944    1.8988 C   0  0  0  0  0  0  0  0  0  0  0  0
   12.3020   11.1234    2.4441 C   0  0  0  0  0  0  0  0  0  0  0  0
   11.1389   10.6275    3.8464 Br  0  0  0  0  0  0  0  0  0  0  0  0
   13.2545   10.2331    1.9877 C   0  0  0  0  0  0  0  0  0  0  0  0
   14.1499   10.6152    0.9682 C   0  0  0  0  0  0  0  0  0  0  0  0
   14.0218   11.8700    0.2708 C   0  0  0  0  0  0  0  0  0  0  0  0
   15.5096    9.4740    0.7111 S   0  0  0  0  0  0  0  0  0  0  0  0
   16.7126   10.0339    1.2838 O   0  0  0  0  0  0  0  0  0  0  0  0
   15.4326    9.1089   -0.6858 O   0  0  0  0  0  0  0  0  0  0  0  0
   15.0975    8.1011    1.6944 N   0  0  0  0  0  0  0  0  0  0  0  0
   13.6722    8.1650    2.2142 C   0  0  0  0  0  0  0  0  0  0  0  0
   13.4062    7.3745    3.4955 C   0  0  0  0  0  0  0  0  0  0  0  0
   13.9874    8.0038    4.7701 C   0  0  0  0  0  0  0  0  0  0  0  0
   14.9326    9.0856    4.5449 N   0  0  0  0  0  0  0  0  0  0  0  0
   16.2007    8.6801    3.9268 C   0  0  0  0  0  0  0  0  0  0  0  0
   16.1106    7.6923    2.7406 C   0  0  0  0  0  0  0  0  0  0  0  0
   17.4930    7.3900    2.1640 C   0  0  0  0  0  0  0  0  0  0  0  0
   15.1425    9.5155    5.4458 H   0  0  0  0  0  0  0  0  0  0  0  0
  1  2  1  0
  2  3  2  0
  3  4  1  0
  4  5  2  0
  5  6  1  0
  6  7  2  0
  7  8  1  0
  8  9  1  0
  8 10  2  0
 10 11  1  0
 11 13  1  0
 13 14  2  0
 13 15  2  0
 13 16  1  0
 16 17  1  0
 17 18  1  0
 18 19  1  0
 19 20  1  0
 20 21  1  0
 21 22  1  0
 22 23  1  0
 11 12  2  0
 12  2  1  0
 12  6  1  0
 22 16  1  0
 20 24  1  0
M  END
> <minimizedAffinity>
-7.78077

> <CNNscore>
0.1858389676

> <CNNaffinity>
4.5321044922

> <CNN_VS>
0.8422416449

> <CNNaffinity_variance>
1.0733939409

$$$$



 24 26  0  0  0  0  0  0  0  0999 V2000
   12.0006   12.9586    1.8160 C   0  0  0  0  0  0  0  0  0  0  0  0
   12.9755   13.1331    0.6843 C   0  0  0  0  0  0  0  0  0  0  0  0
   12.9261   14.3797    0.0476 C   0  0  0  0  0  0  0  0  0  0  0  0
   13.7939   14.7993   -0.8857 N   0  0  0  0  0  0  0  0  0  0  0  0
   14.7893   13.9476   -1.1823 C   0  0  0  0  0  0  0  0  0  0  0  0
   14.9381   12.6690   -0.6440 C   0  0  0  0  0  0  0  0  0  0  0  0
   16.0647   11.9171   -1.0190 C   0  0  0  0  0  0  0  0  0  0  0  0
   16.2729   10.6495   -0.5018 C   0  0  0  0  0  0  0  0  0  0  0  0
   17.8141    9.6706   -0.9831 Br  0  0  0  0  0  0  0  0  0  0  0  0
   15.3287   10.0862    0.3344 C   0  0  0  0  0  0  0  0  0  0  0  0
   14.1582   10.7998    0.6630 C   0  0  0  0  0  0  0  0  0  0  0  0
   13.9658   12.1729    0.2696 C   0  0  0  0  0  0  0  0  0  0  0  0
   12.9030    9.8221    1.4911 S   0  0  0  0  0  0  0  0  0  0  0  0
   12.9532    8.4665    0.9926 O   0  0  0  0  0  0  0  0  0  0  0  0
   11.6972   10.6161    1.4114 O   0  0  0  0  0  0  0  0  0  0  0  0
   13.4453    9.7527    3.1412 N   0  0  0  0  0  0  0  0  0  0  0  0
   14.6662    8.8668    3.3153 C   0  0  0  0  0  0  0  0  0  0  0  0
   14.8580    8.2835    4.7153 C   0  0  0  0  0  0  0  0  0  0  0  0
   13.8835    7.1536    5.0789 C   0  0  0  0  0  0  0  0  0  0  0  0
   12.7574    6.9983    4.1720 N   0  0  0  0  0  0  0  0  0  0  0  0
   11.7937    8.1054    4.1877 C   0  0  0  0  0  0  0  0  0  0  0  0
   12.3797    9.5363    4.1929 C   0  0  0  0  0  0  0  0  0  0  0  0
   11.2728   10.5893    4.1636 C   0  0  0  0  0  0  0  0  0  0  0  0
   12.2620    6.1435    4.4255 H   0  0  0  0  0  0  0  0  0  0  0  0
  1  2  1  0
  2  3  2  0
  3  4  1  0
  4  5  2  0
  5  6  1  0
  6  7  2  0
  7  8  1  0
  8  9  1  0
  8 10  2  0
 10 11  1  0
 11 13  1  0
 13 14  2  0
 13 15  2  0
 13 16  1  0
 16 17  1  0
 17 18  1  0
 18 19  1  0
 19 20  1  0
 20 21  1  0
 21 22  1  0
 22 23  1  0
 11 12  2  0
 12  2  1  0
 12  6  1  0
 22 16  1  0
 20 24  1  0
M  END
> <minimizedAffinity>
-7.53456

> <CNNscore>
0.1736574173

> <CNNaffinity>
4.8568096161

> <CNN_VS>
0.8434210420

> <CNNaffinity_variance>
0.7306929231

$$$$



 24 26  0  0  0  0  0  0  0  0999 V2000
    8.6160    9.1720    5.7226 C   0  0  0  0  0  0  0  0  0  0  0  0
    7.6278    9.4638    4.6272 C   0  0  0  0  0  0  0  0  0  0  0  0
    6.3657    9.8845    5.0653 C   0  0  0  0  0  0  0  0  0  0  0  0
    5.3851   10.3299    4.2652 N   0  0  0  0  0  0  0  0  0  0  0  0
    5.6830   10.3943    2.9570 C   0  0  0  0  0  0  0  0  0  0  0  0
    6.8879    9.9814    2.3875 C   0  0  0  0  0  0  0  0  0  0  0  0
    7.0654   10.1610    1.0050 C   0  0  0  0  0  0  0  0  0  0  0  0
    8.2481    9.7867    0.3893 C   0  0  0  0  0  0  0  0  0  0  0  0
    8.4860   10.0750   -1.4614 Br  0  0  0  0  0  0  0  0  0  0  0  0
    9.2370    9.1632    1.1252 C   0  0  0  0  0  0  0  0  0  0  0  0
    9.0449    8.9111    2.4988 C   0  0  0  0  0  0  0  0  0  0  0  0
    7.8972    9.4107    3.2132 C   0  0  0  0  0  0  0  0  0  0  0  0
   10.2724    7.8276    3.2313 S   0  0  0  0  0  0  0  0  0  0  0  0
   10.2845    6.5727    2.5146 O   0  0  0  0  0  0  0  0  0  0  0  0
   10.0222    7.8868    4.6543 O   0  0  0  0  0  0  0  0  0  0  0  0
   11.7856    8.6050    2.8744 N   0  0  0  0  0  0  0  0  0  0  0  0
   12.9147    7.6114    2.6654 C   0  0  0  0  0  0  0  0  0  0  0  0
   14.3203    8.1528    2.9267 C   0  0  0  0  0  0  0  0  0  0  0  0
   14.6639    8.3578    4.4094 C   0  0  0  0  0  0  0  0  0  0  0  0
   13.5311    8.2836    5.3181 N   0  0  0  0  0  0  0  0  0  0  0  0
   12.5596    9.3759    5.1858 C   0  0  0  0  0  0  0  0  0  0  0  0
   12.1620    9.7814    3.7476 C   0  0  0  0  0  0  0  0  0  0  0  0
   11.1150   10.8943    3.7543 C   0  0  0  0  0  0  0  0  0  0  0  0
   13.8898    8.2926    6.2729 H   0  0  0  0  0  0  0  0  0  0  0  0
  1  2  1  0
  2  3  2  0
  3  4  1  0
  4  5  2  0
  5  6  1  0
  6  7  2  0
  7  8  1  0
  8  9  1  0
  8 10  2  0
 10 11  1  0
 11 13  1  0
 13 14  2  0
 13 15  2  0
 13 16  1  0
 16 17  1  0
 17 18  1  0
 18 19  1  0
 19 20  1  0
 20 21  1  0
 21 22  1  0
 22 23  1  0
 11 12  2  0
 12  2  1  0
 12  6  1  0
 22 16  1  0
 20 24  1  0
M  END
> <minimizedAffinity>
-8.70053

> <CNNscore>
0.1659528613

> <CNNaffinity>
6.1633453369

> <CNN_VS>
1.0228247643

> <CNNaffinity_variance>
0.3209263384

$$$$
