


 28 31  0  0  0  0  0  0  0  0999 V2000
   41.0652   31.0914   32.0476 C   0  0  0  0  0  0  0  0  0  0  0  0
   40.8680   30.2021   33.1227 C   0  0  0  0  0  0  0  0  0  0  0  0
   39.6892   29.4513   33.2488 C   0  0  0  0  0  0  0  0  0  0  0  0
   38.7020   29.5973   32.2777 C   0  0  0  0  0  0  0  0  0  0  0  0
   37.5544   28.9042   32.3440 F   0  0  0  0  0  0  0  0  0  0  0  0
   38.8742   30.4672   31.2022 C   0  0  0  0  0  0  0  0  0  0  0  0
   40.0502   31.2219   31.0739 C   0  0  0  0  0  0  0  0  0  0  0  0
   40.2024   32.1479   29.8958 C   0  0  0  0  0  0  0  0  0  0  0  0
   44.7170   33.3776   31.8904 C   0  0  0  0  0  0  0  0  0  0  0  0
   43.6599   33.7496   32.7276 C   0  0  0  0  0  0  0  0  0  0  0  0
   42.4828   32.9959   32.7658 C   0  0  0  0  0  0  0  0  0  0  0  0
   42.3270   31.8475   31.9712 C   0  0  0  0  0  0  0  0  0  0  0  0
   43.3845   31.4649   31.1193 C   0  0  0  0  0  0  0  0  0  0  0  0
   43.2801   30.2567   30.2261 C   0  0  0  0  0  0  0  0  0  0  0  0
   44.5635   32.2341   31.0914 C   0  0  0  0  0  0  0  0  0  0  0  0
   49.0432   34.6369   30.2002 C   0  0  0  0  0  0  0  0  0  0  0  0
   47.8683   34.7002   31.0841 C   0  0  0  0  0  0  0  0  0  0  0  0
   47.6221   35.4977   32.0997 N   0  0  0  0  0  0  0  0  0  0  0  0
   46.3820   35.1339   32.5835 N   0  0  0  0  0  0  0  0  0  0  0  0
   45.9577   34.1398   31.8280 C   0  0  0  0  0  0  0  0  0  0  0  0
   46.8578   33.8091   30.8455 O   0  0  0  0  0  0  0  0  0  0  0  0
   39.5549   28.5346   34.4161 C   0  0  0  0  0  0  0  0  0  0  0  0
   40.3254   28.6455   35.3661 O   0  0  0  0  0  0  0  0  0  0  0  0
   38.5513   27.5867   34.3679 N   0  0  0  0  0  0  0  0  0  0  0  0
   37.9740   27.5468   33.5715 H   0  0  0  0  0  0  0  0  0  0  0  0
   38.3213   26.6626   35.4316 C   0  0  0  0  0  0  0  0  0  0  0  0
   38.0291   27.1583   36.8202 C   0  0  0  0  0  0  0  0  0  0  0  0
   36.9469   26.4967   36.0195 C   0  0  0  0  0  0  0  0  0  0  0  0
 16 17  1  0
 17 18  2  0
 18 19  1  0
 19 20  2  0
 20  9  1  0
  9 10  2  0
 10 11  1  0
 11 12  2  0
 12  1  1  0
  1  2  2  0
  2  3  1  0
  3 22  1  0
 22 23  2  0
 22 24  1  0
 24 26  1  0
 26 27  1  0
 27 28  1  0
  3  4  2  0
  4  5  1  0
  4  6  1  0
  6  7  2  0
  7  8  1  0
 12 13  1  0
 13 14  1  0
 13 15  2  0
 20 21  1  0
 21 17  1  0
 15  9  1  0
  7  1  1  0
 28 26  1  0
 24 25  1  0
M  END
> <minimizedAffinity>
-12.94000

> <CNNscore>
0.9883972406

> <CNNaffinity>
7.8784232140

> <CNN_VS>
7.7870116234

> <CNNaffinity_variance>
0.0308806524

$$$$



 28 31  0  0  0  0  0  0  0  0999 V2000
   42.4312   31.0191   31.5415 C   0  0  0  0  0  0  0  0  0  0  0  0
   43.4270   31.8929   32.0218 C   0  0  0  0  0  0  0  0  0  0  0  0
   44.2365   32.6356   31.1488 C   0  0  0  0  0  0  0  0  0  0  0  0
   44.0355   32.4975   29.7778 C   0  0  0  0  0  0  0  0  0  0  0  0
   44.7776   33.1836   28.8944 F   0  0  0  0  0  0  0  0  0  0  0  0
   43.0545   31.6432   29.2773 C   0  0  0  0  0  0  0  0  0  0  0  0
   42.2448   30.8964   30.1466 C   0  0  0  0  0  0  0  0  0  0  0  0
   41.1921   29.9872   29.5690 C   0  0  0  0  0  0  0  0  0  0  0  0
   39.9737   28.9158   34.3917 C   0  0  0  0  0  0  0  0  0  0  0  0
   39.6605   30.2148   33.9781 C   0  0  0  0  0  0  0  0  0  0  0  0
   40.4689   30.8817   33.0526 C   0  0  0  0  0  0  0  0  0  0  0  0
   41.6125   30.2708   32.5108 C   0  0  0  0  0  0  0  0  0  0  0  0
   41.9413   28.9625   32.9238 C   0  0  0  0  0  0  0  0  0  0  0  0
   43.1621   28.2532   32.3994 C   0  0  0  0  0  0  0  0  0  0  0  0
   41.1178   28.3039   33.8568 C   0  0  0  0  0  0  0  0  0  0  0  0
   36.4728   25.9602   35.8636 C   0  0  0  0  0  0  0  0  0  0  0  0
   37.6071   26.8866   36.0077 C   0  0  0  0  0  0  0  0  0  0  0  0
   38.2003   27.3268   37.0952 N   0  0  0  0  0  0  0  0  0  0  0  0
   39.2027   28.1750   36.6708 N   0  0  0  0  0  0  0  0  0  0  0  0
   39.1514   28.1921   35.3532 C   0  0  0  0  0  0  0  0  0  0  0  0
   38.1541   27.3885   34.8585 O   0  0  0  0  0  0  0  0  0  0  0  0
   45.2697   33.5358   31.7344 C   0  0  0  0  0  0  0  0  0  0  0  0
   44.9975   34.7147   31.9459 O   0  0  0  0  0  0  0  0  0  0  0  0
   46.5064   32.9874   32.0134 N   0  0  0  0  0  0  0  0  0  0  0  0
   46.6604   32.0363   31.8108 H   0  0  0  0  0  0  0  0  0  0  0  0
   47.5693   33.7502   32.5850 C   0  0  0  0  0  0  0  0  0  0  0  0
   48.4935   34.5453   31.7057 C   0  0  0  0  0  0  0  0  0  0  0  0
   47.5149   35.2533   32.5954 C   0  0  0  0  0  0  0  0  0  0  0  0
 16 17  1  0
 17 18  2  0
 18 19  1  0
 19 20  2  0
 20  9  1  0
  9 10  2  0
 10 11  1  0
 11 12  2  0
 12  1  1  0
  1  2  2  0
  2  3  1  0
  3 22  1  0
 22 23  2  0
 22 24  1  0
 24 26  1  0
 26 27  1  0
 27 28  1  0
  3  4  2  0
  4  5  1  0
  4  6  1  0
  6  7  2  0
  7  8  1  0
 12 13  1  0
 13 14  1  0
 13 15  2  0
 20 21  1  0
 21 17  1  0
 15  9  1  0
  7  1  1  0
 28 26  1  0
 24 25  1  0
M  END
> <minimizedAffinity>
-9.96566

> <CNNscore>
0.6579965353

> <CNNaffinity>
7.3051562309

> <CNN_VS>
4.8067674637

> <CNNaffinity_variance>
0.0416369401

$$$$



 28 31  0  0  0  0  0  0  0  0999 V2000
   40.4863   31.0210   31.2003 C   0  0  0  0  0  0  0  0  0  0  0  0
   40.2421   30.1882   32.3104 C   0  0  0  0  0  0  0  0  0  0  0  0
   38.9911   29.5868   32.5171 C   0  0  0  0  0  0  0  0  0  0  0  0
   37.9786   29.8258   31.5914 C   0  0  0  0  0  0  0  0  0  0  0  0
   36.7623   29.2765   31.7351 F   0  0  0  0  0  0  0  0  0  0  0  0
   38.1958   30.6422   30.4828 C   0  0  0  0  0  0  0  0  0  0  0  0
   39.4443   31.2478   30.2739 C   0  0  0  0  0  0  0  0  0  0  0  0
   39.6429   32.1198   29.0620 C   0  0  0  0  0  0  0  0  0  0  0  0
   44.4124   32.7120   30.6400 C   0  0  0  0  0  0  0  0  0  0  0  0
   43.8577   31.8320   29.7047 C   0  0  0  0  0  0  0  0  0  0  0  0
   42.5828   31.2933   29.9028 C   0  0  0  0  0  0  0  0  0  0  0  0
   41.8228   31.6189   31.0390 C   0  0  0  0  0  0  0  0  0  0  0  0
   42.3734   32.5018   31.9918 C   0  0  0  0  0  0  0  0  0  0  0  0
   41.6240   32.8804   33.2421 C   0  0  0  0  0  0  0  0  0  0  0  0
   43.6587   33.0358   31.7787 C   0  0  0  0  0  0  0  0  0  0  0  0
   48.6926   34.4384   32.0029 C   0  0  0  0  0  0  0  0  0  0  0  0
   47.6296   34.0547   31.0604 C   0  0  0  0  0  0  0  0  0  0  0  0
   47.5959   34.1436   29.7492 N   0  0  0  0  0  0  0  0  0  0  0  0
   46.3674   33.6494   29.3609 N   0  0  0  0  0  0  0  0  0  0  0  0
   45.7375   33.2924   30.4630 C   0  0  0  0  0  0  0  0  0  0  0  0
   46.4864   33.5218   31.5906 O   0  0  0  0  0  0  0  0  0  0  0  0
   38.8108   28.7216   33.7170 C   0  0  0  0  0  0  0  0  0  0  0  0
   37.8337   27.9809   33.7892 O   0  0  0  0  0  0  0  0  0  0  0  0
   39.7704   28.8000   34.7074 N   0  0  0  0  0  0  0  0  0  0  0  0
   40.5245   29.4219   34.5894 H   0  0  0  0  0  0  0  0  0  0  0  0
   39.7081   28.0115   35.8960 C   0  0  0  0  0  0  0  0  0  0  0  0
   38.4811   28.0394   36.7639 C   0  0  0  0  0  0  0  0  0  0  0  0
   38.8087   26.8084   35.9717 C   0  0  0  0  0  0  0  0  0  0  0  0
 16 17  1  0
 17 18  2  0
 18 19  1  0
 19 20  2  0
 20  9  1  0
  9 10  2  0
 10 11  1  0
 11 12  2  0
 12  1  1  0
  1  2  2  0
  2  3  1  0
  3 22  1  0
 22 23  2  0
 22 24  1  0
 24 26  1  0
 26 27  1  0
 27 28  1  0
  3  4  2  0
  4  5  1  0
  4  6  1  0
  6  7  2  0
  7  8  1  0
 12 13  1  0
 13 14  1  0
 13 15  2  0
 20 21  1  0
 21 17  1  0
 15  9  1  0
  7  1  1  0
 28 26  1  0
 24 25  1  0
M  END
> <minimizedAffinity>
-7.84336

> <CNNscore>
0.5972062945

> <CNNaffinity>
7.2194771767

> <CNN_VS>
4.3115172386

> <CNNaffinity_variance>
0.0539479256

$$$$



 28 31  0  0  0  0  0  0  0  0999 V2000
   44.8469   20.9774   28.5289 C   0  0  0  0  0  0  0  0  0  0  0  0
   46.1506   20.7325   28.0534 C   0  0  0  0  0  0  0  0  0  0  0  0
   46.4915   20.9320   26.7069 C   0  0  0  0  0  0  0  0  0  0  0  0
   45.5071   21.3869   25.8333 C   0  0  0  0  0  0  0  0  0  0  0  0
   45.7743   21.5980   24.5349 F   0  0  0  0  0  0  0  0  0  0  0  0
   44.2111   21.6405   26.2793 C   0  0  0  0  0  0  0  0  0  0  0  0
   43.8653   21.4396   27.6243 C   0  0  0  0  0  0  0  0  0  0  0  0
   42.4561   21.7289   28.0704 C   0  0  0  0  0  0  0  0  0  0  0  0
   43.9675   20.2153   32.6802 C   0  0  0  0  0  0  0  0  0  0  0  0
   43.9289   19.1919   31.7274 C   0  0  0  0  0  0  0  0  0  0  0  0
   44.2173   19.4574   30.3852 C   0  0  0  0  0  0  0  0  0  0  0  0
   44.5550   20.7518   29.9550 C   0  0  0  0  0  0  0  0  0  0  0  0
   44.5927   21.7932   30.9060 C   0  0  0  0  0  0  0  0  0  0  0  0
   44.9284   23.2080   30.5135 C   0  0  0  0  0  0  0  0  0  0  0  0
   44.2995   21.5104   32.2537 C   0  0  0  0  0  0  0  0  0  0  0  0
   43.0279   21.3697   37.2565 C   0  0  0  0  0  0  0  0  0  0  0  0
   43.2577   20.4774   36.1091 C   0  0  0  0  0  0  0  0  0  0  0  0
   43.2620   19.1639   36.0529 N   0  0  0  0  0  0  0  0  0  0  0  0
   43.5329   18.8353   34.7403 N   0  0  0  0  0  0  0  0  0  0  0  0
   43.6741   19.9721   34.0869 C   0  0  0  0  0  0  0  0  0  0  0  0
   43.5097   21.0661   34.9000 O   0  0  0  0  0  0  0  0  0  0  0  0
   47.8909   20.6477   26.2810 C   0  0  0  0  0  0  0  0  0  0  0  0
   48.3675   19.5315   26.4701 O   0  0  0  0  0  0  0  0  0  0  0  0
   48.5953   21.6754   25.6847 N   0  0  0  0  0  0  0  0  0  0  0  0
   48.1555   22.5489   25.5713 H   0  0  0  0  0  0  0  0  0  0  0  0
   49.9383   21.5165   25.2270 C   0  0  0  0  0  0  0  0  0  0  0  0
   50.6694   22.6696   24.5984 C   0  0  0  0  0  0  0  0  0  0  0  0
   51.0790   22.1743   25.9537 C   0  0  0  0  0  0  0  0  0  0  0  0
 16 17  1  0
 17 18  2  0
 18 19  1  0
 19 20  2  0
 20  9  1  0
  9 10  2  0
 10 11  1  0
 11 12  2  0
 12  1  1  0
  1  2  2  0
  2  3  1  0
  3 22  1  0
 22 23  2  0
 22 24  1  0
 24 26  1  0
 26 27  1  0
 27 28  1  0
  3  4  2  0
  4  5  1  0
  4  6  1  0
  6  7  2  0
  7  8  1  0
 12 13  1  0
 13 14  1  0
 13 15  2  0
 20 21  1  0
 21 17  1  0
 15  9  1  0
  7  1  1  0
 28 26  1  0
 24 25  1  0
M  END
> <minimizedAffinity>
-4.39196

> <CNNscore>
0.4153379798

> <CNNaffinity>
5.4822540283

> <CNN_VS>
2.2769882679

> <CNNaffinity_variance>
0.2402407974

$$$$



 28 31  0  0  0  0  0  0  0  0999 V2000
   46.1852   33.4660   31.0934 C   0  0  0  0  0  0  0  0  0  0  0  0
   46.7225   34.2149   30.0275 C   0  0  0  0  0  0  0  0  0  0  0  0
   48.0465   34.6795   30.0497 C   0  0  0  0  0  0  0  0  0  0  0  0
   48.8362   34.3815   31.1572 C   0  0  0  0  0  0  0  0  0  0  0  0
   50.1102   34.7971   31.2339 F   0  0  0  0  0  0  0  0  0  0  0  0
   48.3299   33.6389   32.2226 C   0  0  0  0  0  0  0  0  0  0  0  0
   47.0058   33.1749   32.2058 C   0  0  0  0  0  0  0  0  0  0  0  0
   46.4952   32.3715   33.3731 C   0  0  0  0  0  0  0  0  0  0  0  0
   42.0852   32.1415   30.9427 C   0  0  0  0  0  0  0  0  0  0  0  0
   42.6144   32.7448   32.0884 C   0  0  0  0  0  0  0  0  0  0  0  0
   43.9465   33.1684   32.1193 C   0  0  0  0  0  0  0  0  0  0  0  0
   44.7890   33.0045   31.0067 C   0  0  0  0  0  0  0  0  0  0  0  0
   44.2680   32.3931   29.8469 C   0  0  0  0  0  0  0  0  0  0  0  0
   45.1180   32.1681   28.6242 C   0  0  0  0  0  0  0  0  0  0  0  0
   42.9247   31.9713   29.8311 C   0  0  0  0  0  0  0  0  0  0  0  0
   38.2632   29.4454   32.0750 C   0  0  0  0  0  0  0  0  0  0  0  0
   39.0099   30.5027   31.3748 C   0  0  0  0  0  0  0  0  0  0  0  0
   38.6030   31.3546   30.4600 N   0  0  0  0  0  0  0  0  0  0  0  0
   39.7006   32.1255   30.1359 N   0  0  0  0  0  0  0  0  0  0  0  0
   40.7009   31.6903   30.8769 C   0  0  0  0  0  0  0  0  0  0  0  0
   40.3313   30.6524   31.6962 O   0  0  0  0  0  0  0  0  0  0  0  0
   48.5400   35.4678   28.8852 C   0  0  0  0  0  0  0  0  0  0  0  0
   47.7394   36.0853   28.1878 O   0  0  0  0  0  0  0  0  0  0  0  0
   49.9000   35.4619   28.6439 N   0  0  0  0  0  0  0  0  0  0  0  0
   50.4851   34.9380   29.2376 H   0  0  0  0  0  0  0  0  0  0  0  0
   50.4877   36.1883   27.5645 C   0  0  0  0  0  0  0  0  0  0  0  0
   51.9325   36.5994   27.6215 C   0  0  0  0  0  0  0  0  0  0  0  0
   51.4955   35.5348   26.6592 C   0  0  0  0  0  0  0  0  0  0  0  0
 16 17  1  0
 17 18  2  0
 18 19  1  0
 19 20  2  0
 20  9  1  0
  9 10  2  0
 10 11  1  0
 11 12  2  0
 12  1  1  0
  1  2  2  0
  2  3  1  0
  3 22  1  0
 22 23  2  0
 22 24  1  0
 24 26  1  0
 26 27  1  0
 27 28  1  0
  3  4  2  0
  4  5  1  0
  4  6  1  0
  6  7  2  0
  7  8  1  0
 12 13  1  0
 13 14  1  0
 13 15  2  0
 20 21  1  0
 21 17  1  0
 15  9  1  0
  7  1  1  0
 28 26  1  0
 24 25  1  0
M  END
> <minimizedAffinity>
-5.87857

> <CNNscore>
0.3087662458

> <CNNaffinity>
6.5932636261

> <CNN_VS>
2.0357773304

> <CNNaffinity_variance>
0.0127049787

$$$$



 28 31  0  0  0  0  0  0  0  0999 V2000
   46.3024   33.3157   31.5603 C   0  0  0  0  0  0  0  0  0  0  0  0
   46.5805   34.0486   30.3893 C   0  0  0  0  0  0  0  0  0  0  0  0
   47.8631   34.5529   30.1250 C   0  0  0  0  0  0  0  0  0  0  0  0
   48.8752   34.3111   31.0503 C   0  0  0  0  0  0  0  0  0  0  0  0
   50.1220   34.7664   30.8508 F   0  0  0  0  0  0  0  0  0  0  0  0
   48.6272   33.5854   32.2142 C   0  0  0  0  0  0  0  0  0  0  0  0
   47.3455   33.0819   32.4838 C   0  0  0  0  0  0  0  0  0  0  0  0
   47.1166   32.2983   33.7496 C   0  0  0  0  0  0  0  0  0  0  0  0
   42.3223   31.7576   32.1242 C   0  0  0  0  0  0  0  0  0  0  0  0
   43.2603   31.0902   31.3296 C   0  0  0  0  0  0  0  0  0  0  0  0
   44.5468   31.6102   31.1581 C   0  0  0  0  0  0  0  0  0  0  0  0
   44.9358   32.8105   31.7765 C   0  0  0  0  0  0  0  0  0  0  0  0
   43.9970   33.4953   32.5766 C   0  0  0  0  0  0  0  0  0  0  0  0
   44.3381   34.7963   33.2544 C   0  0  0  0  0  0  0  0  0  0  0  0
   42.7051   32.9594   32.7395 C   0  0  0  0  0  0  0  0  0  0  0  0
   37.9990   30.0844   30.8327 C   0  0  0  0  0  0  0  0  0  0  0  0
   39.0636   30.5015   31.7591 C   0  0  0  0  0  0  0  0  0  0  0  0
   39.0742   30.5219   33.0735 N   0  0  0  0  0  0  0  0  0  0  0  0
   40.3141   31.0032   33.4414 N   0  0  0  0  0  0  0  0  0  0  0  0
   40.9739   31.2421   32.3250 C   0  0  0  0  0  0  0  0  0  0  0  0
   40.2353   30.9424   31.2071 O   0  0  0  0  0  0  0  0  0  0  0  0
   48.0764   35.3209   28.8658 C   0  0  0  0  0  0  0  0  0  0  0  0
   47.2874   35.1889   27.9338 O   0  0  0  0  0  0  0  0  0  0  0  0
   49.1741   36.1576   28.8097 N   0  0  0  0  0  0  0  0  0  0  0  0
   49.7716   36.2096   29.5904 H   0  0  0  0  0  0  0  0  0  0  0  0
   49.4730   36.9497   27.6602 C   0  0  0  0  0  0  0  0  0  0  0  0
   48.4115   37.8076   27.0303 C   0  0  0  0  0  0  0  0  0  0  0  0
   49.5540   38.4482   27.7615 C   0  0  0  0  0  0  0  0  0  0  0  0
 16 17  1  0
 17 18  2  0
 18 19  1  0
 19 20  2  0
 20  9  1  0
  9 10  2  0
 10 11  1  0
 11 12  2  0
 12  1  1  0
  1  2  2  0
  2  3  1  0
  3 22  1  0
 22 23  2  0
 22 24  1  0
 24 26  1  0
 26 27  1  0
 27 28  1  0
  3  4  2  0
  4  5  1  0
  4  6  1  0
  6  7  2  0
  7  8  1  0
 12 13  1  0
 13 14  1  0
 13 15  2  0
 20 21  1  0
 21 17  1  0
 15  9  1  0
  7  1  1  0
 28 26  1  0
 24 25  1  0
M  END
> <minimizedAffinity>
-7.65585

> <CNNscore>
0.2869077623

> <CNNaffinity>
6.3384609222

> <CNN_VS>
1.8185536861

> <CNNaffinity_variance>
0.0881278440

$$$$



 28 31  0  0  0  0  0  0  0  0999 V2000
   44.0072   31.7704   31.3992 C   0  0  0  0  0  0  0  0  0  0  0  0
   44.0494   30.3715   31.2355 C   0  0  0  0  0  0  0  0  0  0  0  0
   43.0339   29.5419   31.7352 C   0  0  0  0  0  0  0  0  0  0  0  0
   41.9637   30.1315   32.4032 C   0  0  0  0  0  0  0  0  0  0  0  0
   40.9620   29.3896   32.9012 F   0  0  0  0  0  0  0  0  0  0  0  0
   41.8962   31.5131   32.5748 C   0  0  0  0  0  0  0  0  0  0  0  0
   42.9109   32.3459   32.0792 C   0  0  0  0  0  0  0  0  0  0  0  0
   42.8012   33.8347   32.2796 C   0  0  0  0  0  0  0  0  0  0  0  0
   47.1721   34.1449   29.6867 C   0  0  0  0  0  0  0  0  0  0  0  0
   46.0991   33.6929   28.9114 C   0  0  0  0  0  0  0  0  0  0  0  0
   45.0812   32.9239   29.4838 C   0  0  0  0  0  0  0  0  0  0  0  0
   45.1032   32.5854   30.8474 C   0  0  0  0  0  0  0  0  0  0  0  0
   46.1827   33.0316   31.6386 C   0  0  0  0  0  0  0  0  0  0  0  0
   46.2814   32.6910   33.1024 C   0  0  0  0  0  0  0  0  0  0  0  0
   47.2003   33.8048   31.0479 C   0  0  0  0  0  0  0  0  0  0  0  0
   49.2127   38.0447   27.7409 C   0  0  0  0  0  0  0  0  0  0  0  0
   49.1537   36.6701   28.2631 C   0  0  0  0  0  0  0  0  0  0  0  0
   50.1023   35.7648   28.3570 N   0  0  0  0  0  0  0  0  0  0  0  0
   49.5146   34.6473   28.9138 N   0  0  0  0  0  0  0  0  0  0  0  0
   48.2480   34.9496   29.1217 C   0  0  0  0  0  0  0  0  0  0  0  0
   47.9452   36.2302   28.7301 O   0  0  0  0  0  0  0  0  0  0  0  0
   43.1526   28.0715   31.5242 C   0  0  0  0  0  0  0  0  0  0  0  0
   42.2661   27.4718   30.9214 O   0  0  0  0  0  0  0  0  0  0  0  0
   44.2754   27.4452   32.0291 N   0  0  0  0  0  0  0  0  0  0  0  0
   44.9438   27.9847   32.5101 H   0  0  0  0  0  0  0  0  0  0  0  0
   44.5016   26.0437   31.8783 C   0  0  0  0  0  0  0  0  0  0  0  0
   45.7707   25.5411   31.2487 C   0  0  0  0  0  0  0  0  0  0  0  0
   45.5329   25.3388   32.7160 C   0  0  0  0  0  0  0  0  0  0  0  0
 16 17  1  0
 17 18  2  0
 18 19  1  0
 19 20  2  0
 20  9  1  0
  9 10  2  0
 10 11  1  0
 11 12  2  0
 12  1  1  0
  1  2  2  0
  2  3  1  0
  3 22  1  0
 22 23  2  0
 22 24  1  0
 24 26  1  0
 26 27  1  0
 27 28  1  0
  3  4  2  0
  4  5  1  0
  4  6  1  0
  6  7  2  0
  7  8  1  0
 12 13  1  0
 13 14  1  0
 13 15  2  0
 20 21  1  0
 21 17  1  0
 15  9  1  0
  7  1  1  0
 28 26  1  0
 24 25  1  0
M  END
> <minimizedAffinity>
-8.20074

> <CNNscore>
0.2835613787

> <CNNaffinity>
6.2346558571

> <CNN_VS>
1.7679076195

> <CNNaffinity_variance>
0.1030897200

$$$$



 28 31  0  0  0  0  0  0  0  0999 V2000
   51.5070   36.6087   26.4948 C   0  0  0  0  0  0  0  0  0  0  0  0
   51.4540   35.2043   26.3918 C   0  0  0  0  0  0  0  0  0  0  0  0
   52.3310   34.3807   27.1141 C   0  0  0  0  0  0  0  0  0  0  0  0
   53.2677   34.9813   27.9514 C   0  0  0  0  0  0  0  0  0  0  0  0
   54.1312   34.2452   28.6686 F   0  0  0  0  0  0  0  0  0  0  0  0
   53.3380   36.3679   28.0742 C   0  0  0  0  0  0  0  0  0  0  0  0
   52.4649   37.1952   27.3515 C   0  0  0  0  0  0  0  0  0  0  0  0
   52.5676   38.6892   27.5136 C   0  0  0  0  0  0  0  0  0  0  0  0
   48.7927   38.9760   24.1250 C   0  0  0  0  0  0  0  0  0  0  0  0
   50.0104   38.5246   23.6051 C   0  0  0  0  0  0  0  0  0  0  0  0
   50.8783   37.7575   24.3883 C   0  0  0  0  0  0  0  0  0  0  0  0
   50.5555   37.4165   25.7127 C   0  0  0  0  0  0  0  0  0  0  0  0
   49.3322   37.8699   26.2497 C   0  0  0  0  0  0  0  0  0  0  0  0
   48.9294   37.5585   27.6672 C   0  0  0  0  0  0  0  0  0  0  0  0
   48.4688   38.6418   25.4490 C   0  0  0  0  0  0  0  0  0  0  0  0
   44.9781   41.7964   23.3174 C   0  0  0  0  0  0  0  0  0  0  0  0
   46.1817   41.0223   22.9741 C   0  0  0  0  0  0  0  0  0  0  0  0
   46.7590   40.8389   21.8074 N   0  0  0  0  0  0  0  0  0  0  0  0
   47.8515   40.0289   22.0412 N   0  0  0  0  0  0  0  0  0  0  0  0
   47.8648   39.7755   23.3352 C   0  0  0  0  0  0  0  0  0  0  0  0
   46.8251   40.3807   23.9970 O   0  0  0  0  0  0  0  0  0  0  0  0
   52.2139   32.9043   26.9487 C   0  0  0  0  0  0  0  0  0  0  0  0
   51.8153   32.4432   25.8823 O   0  0  0  0  0  0  0  0  0  0  0  0
   52.5651   32.1140   28.0258 N   0  0  0  0  0  0  0  0  0  0  0  0
   52.8687   32.5495   28.8549 H   0  0  0  0  0  0  0  0  0  0  0  0
   52.5037   30.6884   27.9798 C   0  0  0  0  0  0  0  0  0  0  0  0
   53.1253   29.8644   29.0725 C   0  0  0  0  0  0  0  0  0  0  0  0
   51.6324   29.9270   28.9407 C   0  0  0  0  0  0  0  0  0  0  0  0
 16 17  1  0
 17 18  2  0
 18 19  1  0
 19 20  2  0
 20  9  1  0
  9 10  2  0
 10 11  1  0
 11 12  2  0
 12  1  1  0
  1  2  2  0
  2  3  1  0
  3 22  1  0
 22 23  2  0
 22 24  1  0
 24 26  1  0
 26 27  1  0
 27 28  1  0
  3  4  2  0
  4  5  1  0
  4  6  1  0
  6  7  2  0
  7  8  1  0
 12 13  1  0
 13 14  1  0
 13 15  2  0
 20 21  1  0
 21 17  1  0
 15  9  1  0
  7  1  1  0
 28 26  1  0
 24 25  1  0
M  END
> <minimizedAffinity>
-6.21716

> <CNNscore>
0.2366046906

> <CNNaffinity>
4.9521965981

> <CNN_VS>
1.1717129946

> <CNNaffinity_variance>
0.5069885850

$$$$



 28 31  0  0  0  0  0  0  0  0999 V2000
   43.2445   21.9612   30.2963 C   0  0  0  0  0  0  0  0  0  0  0  0
   44.1446   20.8770   30.2823 C   0  0  0  0  0  0  0  0  0  0  0  0
   45.3439   20.9079   31.0103 C   0  0  0  0  0  0  0  0  0  0  0  0
   45.6348   22.0431   31.7625 C   0  0  0  0  0  0  0  0  0  0  0  0
   46.7655   22.1295   32.4807 F   0  0  0  0  0  0  0  0  0  0  0  0
   44.7593   23.1272   31.7965 C   0  0  0  0  0  0  0  0  0  0  0  0
   43.5605   23.1015   31.0678 C   0  0  0  0  0  0  0  0  0  0  0  0
   42.6372   24.2898   31.1326 C   0  0  0  0  0  0  0  0  0  0  0  0
   39.6501   21.7345   27.9265 C   0  0  0  0  0  0  0  0  0  0  0  0
   40.8131   22.3333   27.4309 C   0  0  0  0  0  0  0  0  0  0  0  0
   41.9699   22.3976   28.2136 C   0  0  0  0  0  0  0  0  0  0  0  0
   42.0007   21.8641   29.5132 C   0  0  0  0  0  0  0  0  0  0  0  0
   40.8324   21.2618   30.0258 C   0  0  0  0  0  0  0  0  0  0  0  0
   40.7871   20.6861   31.4168 C   0  0  0  0  0  0  0  0  0  0  0  0
   39.6752   21.2049   29.2259 C   0  0  0  0  0  0  0  0  0  0  0  0
   34.9647   21.0023   27.1087 C   0  0  0  0  0  0  0  0  0  0  0  0
   36.3594   21.3280   26.7707 C   0  0  0  0  0  0  0  0  0  0  0  0
   36.8928   21.6386   25.6100 N   0  0  0  0  0  0  0  0  0  0  0  0
   38.2363   21.8466   25.8466 N   0  0  0  0  0  0  0  0  0  0  0  0
   38.4285   21.6493   27.1363 C   0  0  0  0  0  0  0  0  0  0  0  0
   37.2695   21.3152   27.7922 O   0  0  0  0  0  0  0  0  0  0  0  0
   46.2447   19.7228   30.9417 C   0  0  0  0  0  0  0  0  0  0  0  0
   45.8661   18.6461   31.3956 O   0  0  0  0  0  0  0  0  0  0  0  0
   47.4854   19.9000   30.3609 N   0  0  0  0  0  0  0  0  0  0  0  0
   47.7290   20.7927   30.0248 H   0  0  0  0  0  0  0  0  0  0  0  0
   48.4272   18.8350   30.2306 C   0  0  0  0  0  0  0  0  0  0  0  0
   49.8529   19.1223   29.8504 C   0  0  0  0  0  0  0  0  0  0  0  0
   49.5286   18.6575   31.2394 C   0  0  0  0  0  0  0  0  0  0  0  0
 16 17  1  0
 17 18  2  0
 18 19  1  0
 19 20  2  0
 20  9  1  0
  9 10  2  0
 10 11  1  0
 11 12  2  0
 12  1  1  0
  1  2  2  0
  2  3  1  0
  3 22  1  0
 22 23  2  0
 22 24  1  0
 24 26  1  0
 26 27  1  0
 27 28  1  0
  3  4  2  0
  4  5  1  0
  4  6  1  0
  6  7  2  0
  7  8  1  0
 12 13  1  0
 13 14  1  0
 13 15  2  0
 20 21  1  0
 21 17  1  0
 15  9  1  0
  7  1  1  0
 28 26  1  0
 24 25  1  0
M  END
> <minimizedAffinity>
-6.08857

> <CNNscore>
0.2344953120

> <CNNaffinity>
4.9356994629

> <CNN_VS>
1.1573983431

> <CNNaffinity_variance>
0.1617094874

$$$$
