


 27 29  0  0  0  0  0  0  0  0999 V2000
   56.4704   73.4591   19.8498 C   0  0  0  0  0  0  0  0  0  0  0  0
   56.6841   73.2541   18.4905 C   0  0  0  0  0  0  0  0  0  0  0  0
   55.6134   73.7510   17.7840 N   0  0  0  0  0  0  0  0  0  0  0  0
   54.7240   74.2996   18.6642 C   0  0  0  0  0  0  0  0  0  0  0  0
   55.2188   74.1102   19.9265 C   0  0  0  0  0  0  0  0  0  0  0  0
   54.5280   74.4913   21.0798 N   0  0  0  0  0  0  0  0  0  0  0  0
   53.3321   74.9202   20.8177 C   0  0  0  0  0  0  0  0  0  0  0  0
   52.6834   75.0437   19.6113 N   0  0  0  0  0  0  0  0  0  0  0  0
   53.4103   74.9129   18.3770 C   0  0  0  0  0  0  0  0  0  0  0  0
   53.6035   76.1485   17.6450 N   0  0  0  0  0  0  0  0  0  0  0  0
   55.5058   73.7168   16.8060 H   0  0  0  0  0  0  0  0  0  0  0  0
   51.7155   75.2228   19.5924 H   0  0  0  0  0  0  0  0  0  0  0  0
   54.1739   76.7867   18.1997 H   0  0  0  0  0  0  0  0  0  0  0  0
   52.6974   76.5779   17.4576 H   0  0  0  0  0  0  0  0  0  0  0  0
   57.1875   73.7722   22.3029 C   0  0  0  0  0  0  0  0  0  0  0  0
   57.7108   72.7284   23.3004 C   0  0  0  0  0  0  0  0  0  0  0  0
   57.1851   71.4057   22.7072 C   0  0  0  0  0  0  0  0  0  0  0  0
   57.1236   71.5900   21.2341 N   0  0  0  0  0  0  0  0  0  0  0  0
   57.3747   73.0278   20.9695 C   0  0  0  0  0  0  0  0  0  0  0  0
   56.2025   71.3247   20.8854 H   0  0  0  0  0  0  0  0  0  0  0  0
   58.9569   75.1607   21.5184 C   0  0  0  0  0  0  0  0  0  0  0  0
   57.9085   75.0006   22.4605 O   0  0  0  0  0  0  0  0  0  0  0  0
   59.1517   72.7260   23.3144 O   0  0  0  0  0  0  0  0  0  0  0  0
   59.7044   71.5440   22.7552 C   0  0  0  0  0  0  0  0  0  0  0  0
   55.8160   71.0406   23.3234 C   0  0  0  0  0  0  0  0  0  0  0  0
   55.6391   69.3029   23.8794 S   0  0  0  0  0  0  0  0  0  0  0  0
   56.2601   68.4417   22.4144 C   0  0  0  0  0  0  0  0  0  0  0  0
 21 22  1  0
 15 22  1  0
 15 16  1  0
 16 23  1  0
 23 24  1  0
 16 17  1  0
 17 25  1  0
 25 26  1  0
 26 27  1  0
 17 18  1  0
 18 19  1  0
 19  1  1  0
  1  2  2  0
  2  3  1  0
  3  4  1  0
  4  5  2  0
  5  6  1  0
  6  7  2  0
  7  8  1  0
  8  9  1  0
  9 10  1  0
 19 15  1  0
  5  1  1  0
  9  4  1  0
 18 20  1  0
  3 11  1  0
  8 12  1  0
 10 13  1  0
 10 14  1  0
M  END
> <minimizedAffinity>
-6.10335

> <CNNscore>
0.8769500256

> <CNNaffinity>
8.1171903610

> <CNN_VS>
7.1183700562

> <CNNaffinity_variance>
0.9075355530

$$$$



 27 29  0  0  0  0  0  0  0  0999 V2000
   58.3748   62.2214   19.5883 C   0  0  0  0  0  0  0  0  0  0  0  0
   59.6792   62.5229   19.9662 C   0  0  0  0  0  0  0  0  0  0  0  0
   60.5162   62.3392   18.8900 N   0  0  0  0  0  0  0  0  0  0  0  0
   59.7685   61.9509   17.8144 C   0  0  0  0  0  0  0  0  0  0  0  0
   58.4671   61.8519   18.2277 C   0  0  0  0  0  0  0  0  0  0  0  0
   57.4355   61.4110   17.3946 N   0  0  0  0  0  0  0  0  0  0  0  0
   57.8740   60.9953   16.2466 C   0  0  0  0  0  0  0  0  0  0  0  0
   59.1599   60.9331   15.7629 N   0  0  0  0  0  0  0  0  0  0  0  0
   60.2315   61.5963   16.4564 C   0  0  0  0  0  0  0  0  0  0  0  0
   60.7490   62.7789   15.7981 N   0  0  0  0  0  0  0  0  0  0  0  0
   61.4925   62.4665   18.8941 H   0  0  0  0  0  0  0  0  0  0  0  0
   59.3481   60.4317   14.9369 H   0  0  0  0  0  0  0  0  0  0  0  0
   60.0161   63.4863   15.7444 H   0  0  0  0  0  0  0  0  0  0  0  0
   61.0572   62.5365   14.8565 H   0  0  0  0  0  0  0  0  0  0  0  0
   57.4381   62.3623   21.9827 C   0  0  0  0  0  0  0  0  0  0  0  0
   56.1317   63.0011   22.4762 C   0  0  0  0  0  0  0  0  0  0  0  0
   55.8025   64.0020   21.3503 C   0  0  0  0  0  0  0  0  0  0  0  0
   56.3415   63.4251   20.0915 N   0  0  0  0  0  0  0  0  0  0  0  0
   57.1611   62.2492   20.4735 C   0  0  0  0  0  0  0  0  0  0  0  0
   56.9192   64.1137   19.6092 H   0  0  0  0  0  0  0  0  0  0  0  0
   59.0373   60.9514   23.0439 C   0  0  0  0  0  0  0  0  0  0  0  0
   57.6771   61.1370   22.6864 O   0  0  0  0  0  0  0  0  0  0  0  0
   55.0928   62.0074   22.5738 O   0  0  0  0  0  0  0  0  0  0  0  0
   54.7984   61.6504   23.9159 C   0  0  0  0  0  0  0  0  0  0  0  0
   56.3909   65.3940   21.6721 C   0  0  0  0  0  0  0  0  0  0  0  0
   56.9940   65.6181   23.3885 S   0  0  0  0  0  0  0  0  0  0  0  0
   55.8712   66.9227   23.9459 C   0  0  0  0  0  0  0  0  0  0  0  0
 21 22  1  0
 15 22  1  0
 15 16  1  0
 16 23  1  0
 23 24  1  0
 16 17  1  0
 17 25  1  0
 25 26  1  0
 26 27  1  0
 17 18  1  0
 18 19  1  0
 19  1  1  0
  1  2  2  0
  2  3  1  0
  3  4  1  0
  4  5  2  0
  5  6  1  0
  6  7  2  0
  7  8  1  0
  8  9  1  0
  9 10  1  0
 19 15  1  0
  5  1  1  0
  9  4  1  0
 18 20  1  0
  3 11  1  0
  8 12  1  0
 10 13  1  0
 10 14  1  0
M  END
> <minimizedAffinity>
-3.90841

> <CNNscore>
0.3276826441

> <CNNaffinity>
5.2795443535

> <CNN_VS>
1.7300150394

> <CNNaffinity_variance>
0.0108127734

$$$$



 27 29  0  0  0  0  0  0  0  0999 V2000
   60.5165   64.6596   24.8538 C   0  0  0  0  0  0  0  0  0  0  0  0
   61.7273   64.5697   24.1747 C   0  0  0  0  0  0  0  0  0  0  0  0
   62.6665   65.3405   24.8199 N   0  0  0  0  0  0  0  0  0  0  0  0
   62.0885   65.9046   25.9219 C   0  0  0  0  0  0  0  0  0  0  0  0
   60.7751   65.5195   25.9447 C   0  0  0  0  0  0  0  0  0  0  0  0
   59.8663   65.9706   26.9056 N   0  0  0  0  0  0  0  0  0  0  0  0
   60.3780   66.8779   27.6790 C   0  0  0  0  0  0  0  0  0  0  0  0
   61.6378   67.4296   27.6786 N   0  0  0  0  0  0  0  0  0  0  0  0
   62.6901   66.8413   26.8940 C   0  0  0  0  0  0  0  0  0  0  0  0
   63.7135   66.1551   27.6566 N   0  0  0  0  0  0  0  0  0  0  0  0
   63.6005   65.4650   24.5347 H   0  0  0  0  0  0  0  0  0  0  0  0
   61.8205   68.2322   28.2188 H   0  0  0  0  0  0  0  0  0  0  0  0
   63.2987   65.3619   28.1456 H   0  0  0  0  0  0  0  0  0  0  0  0
   64.1201   66.7983   28.3359 H   0  0  0  0  0  0  0  0  0  0  0  0
   58.1510   64.9462   23.8778 C   0  0  0  0  0  0  0  0  0  0  0  0
   57.3278   63.9666   23.0287 C   0  0  0  0  0  0  0  0  0  0  0  0
   58.4128   63.0483   22.4309 C   0  0  0  0  0  0  0  0  0  0  0  0
   59.5191   62.9896   23.4211 N   0  0  0  0  0  0  0  0  0  0  0  0
   59.2221   64.0069   24.4590 C   0  0  0  0  0  0  0  0  0  0  0  0
   60.4079   63.2006   22.9672 H   0  0  0  0  0  0  0  0  0  0  0  0
   56.3882   66.5130   24.2121 C   0  0  0  0  0  0  0  0  0  0  0  0
   57.2984   65.6099   24.8191 O   0  0  0  0  0  0  0  0  0  0  0  0
   56.4387   63.2014   23.8657 O   0  0  0  0  0  0  0  0  0  0  0  0
   55.2575   62.7990   23.1889 C   0  0  0  0  0  0  0  0  0  0  0  0
   58.8699   63.5745   21.0519 C   0  0  0  0  0  0  0  0  0  0  0  0
   57.5593   64.3438   20.0269 S   0  0  0  0  0  0  0  0  0  0  0  0
   58.2602   64.0859   18.3790 C   0  0  0  0  0  0  0  0  0  0  0  0
 21 22  1  0
 15 22  1  0
 15 16  1  0
 16 23  1  0
 23 24  1  0
 16 17  1  0
 17 25  1  0
 25 26  1  0
 26 27  1  0
 17 18  1  0
 18 19  1  0
 19  1  1  0
  1  2  2  0
  2  3  1  0
  3  4  1  0
  4  5  2  0
  5  6  1  0
  6  7  2  0
  7  8  1  0
  8  9  1  0
  9 10  1  0
 19 15  1  0
  5  1  1  0
  9  4  1  0
 18 20  1  0
  3 11  1  0
  8 12  1  0
 10 13  1  0
 10 14  1  0
M  END
> <minimizedAffinity>
-4.80074

> <CNNscore>
0.1571453661

> <CNNaffinity>
3.3519401550

> <CNN_VS>
0.5267418623

> <CNNaffinity_variance>
1.3325785398

$$$$



 27 29  0  0  0  0  0  0  0  0999 V2000
   44.5354   79.5149   27.6668 C   0  0  0  0  0  0  0  0  0  0  0  0
   44.5773   78.4283   28.5344 C   0  0  0  0  0  0  0  0  0  0  0  0
   44.6516   78.8858   29.8297 N   0  0  0  0  0  0  0  0  0  0  0  0
   44.6296   80.2518   29.8140 C   0  0  0  0  0  0  0  0  0  0  0  0
   44.5824   80.6511   28.5054 C   0  0  0  0  0  0  0  0  0  0  0  0
   44.6157   81.9932   28.1176 N   0  0  0  0  0  0  0  0  0  0  0  0
   44.8210   82.7901   29.1204 C   0  0  0  0  0  0  0  0  0  0  0  0
   45.0023   82.5029   30.4531 N   0  0  0  0  0  0  0  0  0  0  0  0
   44.7313   81.1832   30.9571 C   0  0  0  0  0  0  0  0  0  0  0  0
   43.5424   81.0723   31.7780 N   0  0  0  0  0  0  0  0  0  0  0  0
   44.7109   78.3221   30.6347 H   0  0  0  0  0  0  0  0  0  0  0  0
   45.3196   83.2049   31.0661 H   0  0  0  0  0  0  0  0  0  0  0  0
   42.7200   81.2950   31.2173 H   0  0  0  0  0  0  0  0  0  0  0  0
   43.6072   81.7239   32.5601 H   0  0  0  0  0  0  0  0  0  0  0  0
   45.8311   79.1332   25.4746 C   0  0  0  0  0  0  0  0  0  0  0  0
   45.3403   78.5266   24.1519 C   0  0  0  0  0  0  0  0  0  0  0  0
   44.1151   77.7023   24.5960 C   0  0  0  0  0  0  0  0  0  0  0  0
   43.5337   78.3973   25.7736 N   0  0  0  0  0  0  0  0  0  0  0  0
   44.4951   79.4566   26.1660 C   0  0  0  0  0  0  0  0  0  0  0  0
   43.4049   77.7384   26.5416 H   0  0  0  0  0  0  0  0  0  0  0  0
   46.1569   81.4895   25.5998 C   0  0  0  0  0  0  0  0  0  0  0  0
   46.7023   80.2395   25.2093 O   0  0  0  0  0  0  0  0  0  0  0  0
   44.9327   79.5678   23.2430 O   0  0  0  0  0  0  0  0  0  0  0  0
   45.9855   80.4675   22.9307 C   0  0  0  0  0  0  0  0  0  0  0  0
   44.5238   76.2439   24.9020 C   0  0  0  0  0  0  0  0  0  0  0  0
   45.1743   75.2913   23.4774 S   0  0  0  0  0  0  0  0  0  0  0  0
   43.7467   74.2354   23.1301 C   0  0  0  0  0  0  0  0  0  0  0  0
 21 22  1  0
 15 22  1  0
 15 16  1  0
 16 23  1  0
 23 24  1  0
 16 17  1  0
 17 25  1  0
 25 26  1  0
 26 27  1  0
 17 18  1  0
 18 19  1  0
 19  1  1  0
  1  2  2  0
  2  3  1  0
  3  4  1  0
  4  5  2  0
  5  6  1  0
  6  7  2  0
  7  8  1  0
  8  9  1  0
  9 10  1  0
 19 15  1  0
  5  1  1  0
  9  4  1  0
 18 20  1  0
  3 11  1  0
  8 12  1  0
 10 13  1  0
 10 14  1  0
M  END
> <minimizedAffinity>
-5.78495

> <CNNscore>
0.1392885149

> <CNNaffinity>
4.3451805115

> <CNN_VS>
0.6052337289

> <CNNaffinity_variance>
0.5725955963

$$$$



 27 29  0  0  0  0  0  0  0  0999 V2000
   59.9038   64.4906   26.5368 C   0  0  0  0  0  0  0  0  0  0  0  0
   59.2915   64.1652   27.7429 C   0  0  0  0  0  0  0  0  0  0  0  0
   59.7177   65.0381   28.7170 N   0  0  0  0  0  0  0  0  0  0  0  0
   60.5743   65.9406   28.1525 C   0  0  0  0  0  0  0  0  0  0  0  0
   60.7165   65.6080   26.8321 C   0  0  0  0  0  0  0  0  0  0  0  0
   61.5782   66.2854   25.9653 N   0  0  0  0  0  0  0  0  0  0  0  0
   62.3047   67.1655   26.5823 C   0  0  0  0  0  0  0  0  0  0  0  0
   62.3384   67.5046   27.9147 N   0  0  0  0  0  0  0  0  0  0  0  0
   61.3158   67.0363   28.8113 C   0  0  0  0  0  0  0  0  0  0  0  0
   60.3825   68.0498   29.2602 N   0  0  0  0  0  0  0  0  0  0  0  0
   59.4498   65.0162   29.6641 H   0  0  0  0  0  0  0  0  0  0  0  0
   63.0670   68.0714   28.2569 H   0  0  0  0  0  0  0  0  0  0  0  0
   59.8619   68.4107   28.4607 H   0  0  0  0  0  0  0  0  0  0  0  0
   60.8954   68.8117   29.7039 H   0  0  0  0  0  0  0  0  0  0  0  0
   58.6677   62.6660   25.2053 C   0  0  0  0  0  0  0  0  0  0  0  0
   58.3304   62.6197   23.7078 C   0  0  0  0  0  0  0  0  0  0  0  0
   58.3832   64.1078   23.3067 C   0  0  0  0  0  0  0  0  0  0  0  0
   59.3850   64.7560   24.1923 N   0  0  0  0  0  0  0  0  0  0  0  0
   59.7471   63.7621   25.2322 C   0  0  0  0  0  0  0  0  0  0  0  0
   58.9838   65.5874   24.6261 H   0  0  0  0  0  0  0  0  0  0  0  0
   58.2493   60.8643   26.7062 C   0  0  0  0  0  0  0  0  0  0  0  0
   59.0617   61.3641   25.6561 O   0  0  0  0  0  0  0  0  0  0  0  0
   59.3357   61.8780   22.9897 O   0  0  0  0  0  0  0  0  0  0  0  0
   59.3976   62.2260   21.6148 C   0  0  0  0  0  0  0  0  0  0  0  0
   56.9820   64.7496   23.4160 C   0  0  0  0  0  0  0  0  0  0  0  0
   56.4489   65.7326   21.9636 S   0  0  0  0  0  0  0  0  0  0  0  0
   56.2152   67.3463   22.7476 C   0  0  0  0  0  0  0  0  0  0  0  0
 21 22  1  0
 15 22  1  0
 15 16  1  0
 16 23  1  0
 23 24  1  0
 16 17  1  0
 17 25  1  0
 25 26  1  0
 26 27  1  0
 17 18  1  0
 18 19  1  0
 19  1  1  0
  1  2  2  0
  2  3  1  0
  3  4  1  0
  4  5  2  0
  5  6  1  0
  6  7  2  0
  7  8  1  0
  8  9  1  0
  9 10  1  0
 19 15  1  0
  5  1  1  0
  9  4  1  0
 18 20  1  0
  3 11  1  0
  8 12  1  0
 10 13  1  0
 10 14  1  0
M  END
> <minimizedAffinity>
-4.21139

> <CNNscore>
0.1021668687

> <CNNaffinity>
3.9898691177

> <CNN_VS>
0.4076324403

> <CNNaffinity_variance>
0.5154922605

$$$$



 27 29  0  0  0  0  0  0  0  0999 V2000
   65.3965   64.4695   30.7158 C   0  0  0  0  0  0  0  0  0  0  0  0
   66.4544   63.5976   30.9515 C   0  0  0  0  0  0  0  0  0  0  0  0
   67.5389   64.3133   31.4033 N   0  0  0  0  0  0  0  0  0  0  0  0
   67.1889   65.6311   31.4904 C   0  0  0  0  0  0  0  0  0  0  0  0
   65.8965   65.7470   31.0541 C   0  0  0  0  0  0  0  0  0  0  0  0
   65.2368   66.9741   30.9464 N   0  0  0  0  0  0  0  0  0  0  0  0
   66.0234   67.9780   31.1835 C   0  0  0  0  0  0  0  0  0  0  0  0
   67.3590   67.9945   31.5113 N   0  0  0  0  0  0  0  0  0  0  0  0
   68.0323   66.7792   31.8840 C   0  0  0  0  0  0  0  0  0  0  0  0
   68.3705   66.6713   33.2889 N   0  0  0  0  0  0  0  0  0  0  0  0
   68.4212   63.9380   31.6269 H   0  0  0  0  0  0  0  0  0  0  0  0
   67.8573   68.8433   31.4908 H   0  0  0  0  0  0  0  0  0  0  0  0
   67.5151   66.6587   33.8445 H   0  0  0  0  0  0  0  0  0  0  0  0
   68.9424   67.4701   33.5633 H   0  0  0  0  0  0  0  0  0  0  0  0
   62.8464   64.4627   31.0731 C   0  0  0  0  0  0  0  0  0  0  0  0
   61.7220   64.5813   30.0339 C   0  0  0  0  0  0  0  0  0  0  0  0
   62.4346   65.2579   28.8455 C   0  0  0  0  0  0  0  0  0  0  0  0
   63.8538   64.8200   28.8899 N   0  0  0  0  0  0  0  0  0  0  0  0
   64.0432   64.1039   30.1751 C   0  0  0  0  0  0  0  0  0  0  0  0
   64.4724   65.6298   28.8450 H   0  0  0  0  0  0  0  0  0  0  0  0
   63.1753   62.2721   31.9490 C   0  0  0  0  0  0  0  0  0  0  0  0
   62.4842   63.5045   32.0752 O   0  0  0  0  0  0  0  0  0  0  0  0
   61.2533   63.2738   29.6502 O   0  0  0  0  0  0  0  0  0  0  0  0
   59.8384   63.1645   29.6881 C   0  0  0  0  0  0  0  0  0  0  0  0
   62.2782   66.7932   28.9213 C   0  0  0  0  0  0  0  0  0  0  0  0
   61.5601   67.5876   27.4335 S   0  0  0  0  0  0  0  0  0  0  0  0
   62.1177   66.4285   26.1611 C   0  0  0  0  0  0  0  0  0  0  0  0
 21 22  1  0
 15 22  1  0
 15 16  1  0
 16 23  1  0
 23 24  1  0
 16 17  1  0
 17 25  1  0
 25 26  1  0
 26 27  1  0
 17 18  1  0
 18 19  1  0
 19  1  1  0
  1  2  2  0
  2  3  1  0
  3  4  1  0
  4  5  2  0
  5  6  1  0
  6  7  2  0
  7  8  1  0
  8  9  1  0
  9 10  1  0
 19 15  1  0
  5  1  1  0
  9  4  1  0
 18 20  1  0
  3 11  1  0
  8 12  1  0
 10 13  1  0
 10 14  1  0
M  END
> <minimizedAffinity>
-4.70667

> <CNNscore>
0.1013274044

> <CNNaffinity>
4.0769386292

> <CNN_VS>
0.4131056070

> <CNNaffinity_variance>
0.1573140770

$$$$



 27 29  0  0  0  0  0  0  0  0999 V2000
   64.8507   65.2699   28.7128 C   0  0  0  0  0  0  0  0  0  0  0  0
   65.2859   64.0837   29.2949 C   0  0  0  0  0  0  0  0  0  0  0  0
   65.6746   64.3315   30.5910 N   0  0  0  0  0  0  0  0  0  0  0  0
   65.4704   65.6545   30.8646 C   0  0  0  0  0  0  0  0  0  0  0  0
   64.9913   66.2446   29.7260 C   0  0  0  0  0  0  0  0  0  0  0  0
   64.7341   67.6146   29.6293 N   0  0  0  0  0  0  0  0  0  0  0  0
   65.1171   68.2628   30.6857 C   0  0  0  0  0  0  0  0  0  0  0  0
   65.7156   67.8022   31.8351 N   0  0  0  0  0  0  0  0  0  0  0  0
   65.7786   66.3913   32.1081 C   0  0  0  0  0  0  0  0  0  0  0  0
   64.9064   65.9325   33.1705 N   0  0  0  0  0  0  0  0  0  0  0  0
   66.0395   63.6657   31.2177 H   0  0  0  0  0  0  0  0  0  0  0  0
   66.1032   68.4421   32.4750 H   0  0  0  0  0  0  0  0  0  0  0  0
   63.9343   66.0880   32.9033 H   0  0  0  0  0  0  0  0  0  0  0  0
   65.1109   66.4498   34.0255 H   0  0  0  0  0  0  0  0  0  0  0  0
   63.6385   64.2494   26.6831 C   0  0  0  0  0  0  0  0  0  0  0  0
   62.7859   64.9461   25.6126 C   0  0  0  0  0  0  0  0  0  0  0  0
   62.3584   66.2478   26.3202 C   0  0  0  0  0  0  0  0  0  0  0  0
   63.4501   66.6023   27.2637 N   0  0  0  0  0  0  0  0  0  0  0  0
   64.3820   65.4487   27.2965 C   0  0  0  0  0  0  0  0  0  0  0  0
   63.0684   66.7715   28.1944 H   0  0  0  0  0  0  0  0  0  0  0  0
   64.0407   61.9169   26.4150 C   0  0  0  0  0  0  0  0  0  0  0  0
   64.4468   63.2333   26.0765 O   0  0  0  0  0  0  0  0  0  0  0  0
   63.5866   65.2528   24.4545 O   0  0  0  0  0  0  0  0  0  0  0  0
   63.1313   64.5947   23.2820 C   0  0  0  0  0  0  0  0  0  0  0  0
   60.9953   66.0610   27.0235 C   0  0  0  0  0  0  0  0  0  0  0  0
   60.5765   67.3265   28.2817 S   0  0  0  0  0  0  0  0  0  0  0  0
   61.2295   66.5206   29.7642 C   0  0  0  0  0  0  0  0  0  0  0  0
 21 22  1  0
 15 22  1  0
 15 16  1  0
 16 23  1  0
 23 24  1  0
 16 17  1  0
 17 25  1  0
 25 26  1  0
 26 27  1  0
 17 18  1  0
 18 19  1  0
 19  1  1  0
  1  2  2  0
  2  3  1  0
  3  4  1  0
  4  5  2  0
  5  6  1  0
  6  7  2  0
  7  8  1  0
  8  9  1  0
  9 10  1  0
 19 15  1  0
  5  1  1  0
  9  4  1  0
 18 20  1  0
  3 11  1  0
  8 12  1  0
 10 13  1  0
 10 14  1  0
M  END
> <minimizedAffinity>
-5.11379

> <CNNscore>
0.1002641320

> <CNNaffinity>
4.1580834389

> <CNN_VS>
0.4169066250

> <CNNaffinity_variance>
0.1604790688

$$$$



 27 29  0  0  0  0  0  0  0  0999 V2000
   63.4354   65.6596   29.5227 C   0  0  0  0  0  0  0  0  0  0  0  0
   63.9392   66.4391   28.4864 C   0  0  0  0  0  0  0  0  0  0  0  0
   64.5185   67.5709   29.0117 N   0  0  0  0  0  0  0  0  0  0  0  0
   64.4220   67.5209   30.3737 C   0  0  0  0  0  0  0  0  0  0  0  0
   63.7456   66.3764   30.7001 C   0  0  0  0  0  0  0  0  0  0  0  0
   63.4092   66.0397   32.0139 N   0  0  0  0  0  0  0  0  0  0  0  0
   63.6977   66.9856   32.8534 C   0  0  0  0  0  0  0  0  0  0  0  0
   64.2642   68.2192   32.6325 N   0  0  0  0  0  0  0  0  0  0  0  0
   64.8613   68.5291   31.3611 C   0  0  0  0  0  0  0  0  0  0  0  0
   66.3085   68.6032   31.3648 N   0  0  0  0  0  0  0  0  0  0  0  0
   64.9339   68.2967   28.4922 H   0  0  0  0  0  0  0  0  0  0  0  0
   64.2610   68.8944   33.3490 H   0  0  0  0  0  0  0  0  0  0  0  0
   66.6951   67.6896   31.6018 H   0  0  0  0  0  0  0  0  0  0  0  0
   66.6120   69.2902   32.0550 H   0  0  0  0  0  0  0  0  0  0  0  0
   61.4412   64.2122   30.2700 C   0  0  0  0  0  0  0  0  0  0  0  0
   60.6210   63.1990   29.4582 C   0  0  0  0  0  0  0  0  0  0  0  0
   60.8765   63.6490   28.0055 C   0  0  0  0  0  0  0  0  0  0  0  0
   62.2372   64.2450   27.9735 N   0  0  0  0  0  0  0  0  0  0  0  0
   62.6882   64.3637   29.3816 C   0  0  0  0  0  0  0  0  0  0  0  0
   62.2066   65.1660   27.5361 H   0  0  0  0  0  0  0  0  0  0  0  0
   62.7459   62.8148   31.6910 C   0  0  0  0  0  0  0  0  0  0  0  0
   61.6535   63.7149   31.5971 O   0  0  0  0  0  0  0  0  0  0  0  0
   61.1292   61.8657   29.6595 O   0  0  0  0  0  0  0  0  0  0  0  0
   60.2495   60.8633   29.1731 C   0  0  0  0  0  0  0  0  0  0  0  0
   59.7797   64.6333   27.5412 C   0  0  0  0  0  0  0  0  0  0  0  0
   60.3010   66.3847   27.3967 S   0  0  0  0  0  0  0  0  0  0  0  0
   60.9713   66.3730   25.7162 C   0  0  0  0  0  0  0  0  0  0  0  0
 21 22  1  0
 15 22  1  0
 15 16  1  0
 16 23  1  0
 23 24  1  0
 16 17  1  0
 17 25  1  0
 25 26  1  0
 26 27  1  0
 17 18  1  0
 18 19  1  0
 19  1  1  0
  1  2  2  0
  2  3  1  0
  3  4  1  0
  4  5  2  0
  5  6  1  0
  6  7  2  0
  7  8  1  0
  8  9  1  0
  9 10  1  0
 19 15  1  0
  5  1  1  0
  9  4  1  0
 18 20  1  0
  3 11  1  0
  8 12  1  0
 10 13  1  0
 10 14  1  0
M  END
> <minimizedAffinity>
-4.12492

> <CNNscore>
0.0962270498

> <CNNaffinity>
4.1913995743

> <CNN_VS>
0.4033260047

> <CNNaffinity_variance>
0.1756793708

$$$$



 27 29  0  0  0  0  0  0  0  0999 V2000
   63.1817   66.0553   30.2040 C   0  0  0  0  0  0  0  0  0  0  0  0
   62.1122   65.8251   31.0632 C   0  0  0  0  0  0  0  0  0  0  0  0
   62.1244   66.7687   32.0642 N   0  0  0  0  0  0  0  0  0  0  0  0
   63.1691   67.6226   31.8488 C   0  0  0  0  0  0  0  0  0  0  0  0
   63.8362   67.1895   30.7346 C   0  0  0  0  0  0  0  0  0  0  0  0
   65.0035   67.7957   30.2629 N   0  0  0  0  0  0  0  0  0  0  0  0
   65.4375   68.7182   31.0651 C   0  0  0  0  0  0  0  0  0  0  0  0
   64.9254   69.1583   32.2633 N   0  0  0  0  0  0  0  0  0  0  0  0
   63.6067   68.7632   32.6806 C   0  0  0  0  0  0  0  0  0  0  0  0
   62.6072   69.8111   32.6283 N   0  0  0  0  0  0  0  0  0  0  0  0
   61.4861   66.8202   32.8119 H   0  0  0  0  0  0  0  0  0  0  0  0
   65.4647   69.7473   32.8389 H   0  0  0  0  0  0  0  0  0  0  0  0
   62.4795   70.1113   31.6619 H   0  0  0  0  0  0  0  0  0  0  0  0
   62.9151   70.6031   33.1925 H   0  0  0  0  0  0  0  0  0  0  0  0
   64.4663   64.0206   29.2874 C   0  0  0  0  0  0  0  0  0  0  0  0
   64.1156   63.1053   28.1052 C   0  0  0  0  0  0  0  0  0  0  0  0
   62.5948   63.3150   27.9593 C   0  0  0  0  0  0  0  0  0  0  0  0
   62.3084   64.7043   28.4016 N   0  0  0  0  0  0  0  0  0  0  0  0
   63.5570   65.2294   29.0062 C   0  0  0  0  0  0  0  0  0  0  0  0
   61.5571   64.7050   29.0916 H   0  0  0  0  0  0  0  0  0  0  0  0
   66.4297   64.2536   30.6158 C   0  0  0  0  0  0  0  0  0  0  0  0
   65.8775   64.2685   29.3092 O   0  0  0  0  0  0  0  0  0  0  0  0
   64.7922   63.5458   26.9116 O   0  0  0  0  0  0  0  0  0  0  0  0
   64.1395   63.1250   25.7232 C   0  0  0  0  0  0  0  0  0  0  0  0
   61.8200   62.2548   28.7737 C   0  0  0  0  0  0  0  0  0  0  0  0
   60.0025   62.2502   28.5357 S   0  0  0  0  0  0  0  0  0  0  0  0
   59.4619   62.2155   30.2620 C   0  0  0  0  0  0  0  0  0  0  0  0
 21 22  1  0
 15 22  1  0
 15 16  1  0
 16 23  1  0
 23 24  1  0
 16 17  1  0
 17 25  1  0
 25 26  1  0
 26 27  1  0
 17 18  1  0
 18 19  1  0
 19  1  1  0
  1  2  2  0
  2  3  1  0
  3  4  1  0
  4  5  2  0
  5  6  1  0
  6  7  2  0
  7  8  1  0
  8  9  1  0
  9 10  1  0
 19 15  1  0
  5  1  1  0
  9  4  1  0
 18 20  1  0
  3 11  1  0
  8 12  1  0
 10 13  1  0
 10 14  1  0
M  END
> <minimizedAffinity>
-4.34635

> <CNNscore>
0.0938975438

> <CNNaffinity>
4.3523974419

> <CNN_VS>
0.4086794257

> <CNNaffinity_variance>
0.1821901798

$$$$
