


 32 34  0  0  0  0  0  0  0  0999 V2000
    3.8577   31.8185    7.8338 C   0  0  0  0  0  0  0  0  0  0  0  0
    3.7418   31.7787    9.1659 N   0  0  0  0  0  0  0  0  0  0  0  0
    4.2920   30.7303    9.7961 C   0  0  0  0  0  0  0  0  0  0  0  0
    4.9383   29.7113    9.1446 C   0  0  0  0  0  0  0  0  0  0  0  0
    4.9977   29.8069    7.7743 C   0  0  0  0  0  0  0  0  0  0  0  0
    4.4803   30.8638    7.1212 N   0  0  0  0  0  0  0  0  0  0  0  0
    3.3372   32.8650    7.0771 N   0  0  0  0  0  0  0  0  0  0  0  0
    3.2334   33.6965    7.5939 H   0  0  0  0  0  0  0  0  0  0  0  0
    1.9907   33.3405    3.0948 C   0  0  0  0  0  0  0  0  0  0  0  0
    3.1548   32.6112    3.3470 C   0  0  0  0  0  0  0  0  0  0  0  0
    3.6149   32.4440    4.6600 C   0  0  0  0  0  0  0  0  0  0  0  0
    2.9292   32.9970    5.7465 C   0  0  0  0  0  0  0  0  0  0  0  0
    1.7599   33.7276    5.4740 C   0  0  0  0  0  0  0  0  0  0  0  0
    1.2914   33.9006    4.1657 C   0  0  0  0  0  0  0  0  0  0  0  0
    0.6150   34.1824    1.3064 O   0  0  0  0  0  0  0  0  0  0  0  0
    1.5408   33.4919    1.6903 C   0  0  0  0  0  0  0  0  0  0  0  0
    2.2745   32.7677    0.8263 O   0  0  0  0  0  0  0  0  0  0  0  0
    2.9836   32.2417    1.1400 H   0  0  0  0  0  0  0  0  0  0  0  0
    5.6342   28.8636    6.9690 N   0  0  0  0  0  0  0  0  0  0  0  0
    5.2002   28.7591    6.0915 H   0  0  0  0  0  0  0  0  0  0  0  0
    6.7576   28.0246    7.1235 C   0  0  0  0  0  0  0  0  0  0  0  0
    7.0606   27.3668    8.3199 C   0  0  0  0  0  0  0  0  0  0  0  0
    8.2132   26.5960    8.4254 C   0  0  0  0  0  0  0  0  0  0  0  0
    8.4795   25.9663    9.5771 F   0  0  0  0  0  0  0  0  0  0  0  0
    9.0886   26.4634    7.3582 C   0  0  0  0  0  0  0  0  0  0  0  0
    8.8088   27.1084    6.1537 C   0  0  0  0  0  0  0  0  0  0  0  0
    7.6533   27.8905    6.0292 C   0  0  0  0  0  0  0  0  0  0  0  0
    7.2746   28.5622    4.8925 O   0  0  0  0  0  0  0  0  0  0  0  0
    7.7394   29.8881    4.7149 C   0  0  0  0  0  0  0  0  0  0  0  0
    8.4726   30.2876    5.7757 F   0  0  0  0  0  0  0  0  0  0  0  0
    8.5306   29.9255    3.6205 F   0  0  0  0  0  0  0  0  0  0  0  0
    6.7148   30.7455    4.5245 F   0  0  0  0  0  0  0  0  0  0  0  0
 15 16  2  0
 16 17  1  0
 16  9  1  0
  9 10  2  0
 10 11  1  0
 11 12  2  0
 12  7  1  0
  7  1  1  0
  1  2  2  0
  2  3  1  0
  3  4  2  0
  4  5  1  0
  5 19  1  0
 19 21  1  0
 21 22  2  0
 22 23  1  0
 23 24  1  0
 23 25  2  0
 25 26  1  0
 26 27  2  0
 27 28  1  0
 28 29  1  0
 29 30  1  0
 29 31  1  0
 29 32  1  0
  5  6  2  0
 12 13  1  0
 13 14  2  0
 14  9  1  0
  6  1  1  0
 27 21  1  0
 17 18  1  0
  7  8  1  0
 19 20  1  0
M  END
> <minimizedAffinity>
-10.04516

> <CNNscore>
0.9885489345

> <CNNaffinity>
7.6444816589

> <CNN_VS>
7.5569443703

> <CNNaffinity_variance>
0.0129128369

$$$$



 32 34  0  0  0  0  0  0  0  0999 V2000
    3.8885   31.7632    7.9437 C   0  0  0  0  0  0  0  0  0  0  0  0
    3.7469   31.7131    9.2729 N   0  0  0  0  0  0  0  0  0  0  0  0
    4.2855   30.6601    9.9055 C   0  0  0  0  0  0  0  0  0  0  0  0
    4.9449   29.6465    9.2588 C   0  0  0  0  0  0  0  0  0  0  0  0
    5.0307   29.7527    7.8906 C   0  0  0  0  0  0  0  0  0  0  0  0
    4.5253   30.8144    7.2359 N   0  0  0  0  0  0  0  0  0  0  0  0
    3.3820   32.8153    7.1852 N   0  0  0  0  0  0  0  0  0  0  0  0
    3.2893   33.6490    7.7005 H   0  0  0  0  0  0  0  0  0  0  0  0
    2.0383   33.2961    3.2025 C   0  0  0  0  0  0  0  0  0  0  0  0
    3.2250   32.6029    3.4514 C   0  0  0  0  0  0  0  0  0  0  0  0
    3.6845   32.4346    4.7644 C   0  0  0  0  0  0  0  0  0  0  0  0
    2.9759   32.9505    5.8544 C   0  0  0  0  0  0  0  0  0  0  0  0
    1.7840   33.6450    5.5852 C   0  0  0  0  0  0  0  0  0  0  0  0
    1.3158   33.8188    4.2770 C   0  0  0  0  0  0  0  0  0  0  0  0
    0.6784   34.1581    1.4117 O   0  0  0  0  0  0  0  0  0  0  0  0
    1.5899   33.4502    1.7979 C   0  0  0  0  0  0  0  0  0  0  0  0
    2.3072   32.7066    0.9365 O   0  0  0  0  0  0  0  0  0  0  0  0
    3.0056   32.1674    1.2519 H   0  0  0  0  0  0  0  0  0  0  0  0
    5.6832   28.8160    7.0905 N   0  0  0  0  0  0  0  0  0  0  0  0
    5.3107   27.9098    7.1865 H   0  0  0  0  0  0  0  0  0  0  0  0
    6.7551   28.8691    6.1750 C   0  0  0  0  0  0  0  0  0  0  0  0
    6.5808   28.7871    4.7897 C   0  0  0  0  0  0  0  0  0  0  0  0
    7.6828   28.7908    3.9416 C   0  0  0  0  0  0  0  0  0  0  0  0
    7.4933   28.7215    2.6176 F   0  0  0  0  0  0  0  0  0  0  0  0
    8.9736   28.8705    4.4418 C   0  0  0  0  0  0  0  0  0  0  0  0
    9.1745   28.9542    5.8194 C   0  0  0  0  0  0  0  0  0  0  0  0
    8.0765   28.9502    6.6894 C   0  0  0  0  0  0  0  0  0  0  0  0
    8.1550   29.0357    8.0581 O   0  0  0  0  0  0  0  0  0  0  0  0
    8.5992   27.8971    8.7734 C   0  0  0  0  0  0  0  0  0  0  0  0
    7.8811   26.8052    8.4348 F   0  0  0  0  0  0  0  0  0  0  0  0
    9.8914   27.6642    8.4554 F   0  0  0  0  0  0  0  0  0  0  0  0
    8.5215   28.0941   10.1062 F   0  0  0  0  0  0  0  0  0  0  0  0
 15 16  2  0
 16 17  1  0
 16  9  1  0
  9 10  2  0
 10 11  1  0
 11 12  2  0
 12  7  1  0
  7  1  1  0
  1  2  2  0
  2  3  1  0
  3  4  2  0
  4  5  1  0
  5 19  1  0
 19 21  1  0
 21 22  2  0
 22 23  1  0
 23 24  1  0
 23 25  2  0
 25 26  1  0
 26 27  2  0
 27 28  1  0
 28 29  1  0
 29 30  1  0
 29 31  1  0
 29 32  1  0
  5  6  2  0
 12 13  1  0
 13 14  2  0
 14  9  1  0
  6  1  1  0
 27 21  1  0
 17 18  1  0
  7  8  1  0
 19 20  1  0
M  END
> <minimizedAffinity>
-9.90155

> <CNNscore>
0.9868273735

> <CNNaffinity>
7.7016825676

> <CNN_VS>
7.6002311707

> <CNNaffinity_variance>
0.0014672372

$$$$



 32 34  0  0  0  0  0  0  0  0999 V2000
    3.9044   31.6704    7.8053 C   0  0  0  0  0  0  0  0  0  0  0  0
    3.7674   31.5000    9.1250 N   0  0  0  0  0  0  0  0  0  0  0  0
    4.3494   30.4190    9.6652 C   0  0  0  0  0  0  0  0  0  0  0  0
    5.0481   29.4926    8.9345 C   0  0  0  0  0  0  0  0  0  0  0  0
    5.1270   29.7199    7.5807 C   0  0  0  0  0  0  0  0  0  0  0  0
    4.5778   30.8128    7.0193 N   0  0  0  0  0  0  0  0  0  0  0  0
    3.3543   32.7626    7.1396 N   0  0  0  0  0  0  0  0  0  0  0  0
    3.2889   33.5640    7.7076 H   0  0  0  0  0  0  0  0  0  0  0  0
    2.0131   33.3295    3.1674 C   0  0  0  0  0  0  0  0  0  0  0  0
    1.2755   33.8618    4.2272 C   0  0  0  0  0  0  0  0  0  0  0  0
    1.7054   33.6833    5.5490 C   0  0  0  0  0  0  0  0  0  0  0  0
    2.8741   32.9737    5.8437 C   0  0  0  0  0  0  0  0  0  0  0  0
    3.6037   32.4453    4.7649 C   0  0  0  0  0  0  0  0  0  0  0  0
    3.1830   32.6179    3.4404 C   0  0  0  0  0  0  0  0  0  0  0  0
    0.6091   34.2784    1.4563 O   0  0  0  0  0  0  0  0  0  0  0  0
    1.5211   33.5427    1.7853 C   0  0  0  0  0  0  0  0  0  0  0  0
    2.1971   32.8210    0.8734 O   0  0  0  0  0  0  0  0  0  0  0  0
    2.8966   32.2598    1.1451 H   0  0  0  0  0  0  0  0  0  0  0  0
    5.8154   28.8829    6.7039 N   0  0  0  0  0  0  0  0  0  0  0  0
    5.8537   27.9513    7.0199 H   0  0  0  0  0  0  0  0  0  0  0  0
    6.4698   29.0651    5.4675 C   0  0  0  0  0  0  0  0  0  0  0  0
    5.8181   28.9540    4.2351 C   0  0  0  0  0  0  0  0  0  0  0  0
    6.5306   29.0912    3.0488 C   0  0  0  0  0  0  0  0  0  0  0  0
    5.8854   28.9913    1.8794 F   0  0  0  0  0  0  0  0  0  0  0  0
    7.8956   29.3351    3.0551 C   0  0  0  0  0  0  0  0  0  0  0  0
    8.5689   29.4512    4.2709 C   0  0  0  0  0  0  0  0  0  0  0  0
    7.8681   29.3142    5.4762 C   0  0  0  0  0  0  0  0  0  0  0  0
    8.4247   29.4166    6.7278 O   0  0  0  0  0  0  0  0  0  0  0  0
    9.6088   28.6865    6.9931 C   0  0  0  0  0  0  0  0  0  0  0  0
    9.7312   28.4305    8.3129 F   0  0  0  0  0  0  0  0  0  0  0  0
    9.5431   27.5051    6.3412 F   0  0  0  0  0  0  0  0  0  0  0  0
   10.7011   29.3487    6.5576 F   0  0  0  0  0  0  0  0  0  0  0  0
 15 16  2  0
 16 17  1  0
 16  9  1  0
  9 10  2  0
 10 11  1  0
 11 12  2  0
 12  7  1  0
  7  1  1  0
  1  2  2  0
  2  3  1  0
  3  4  2  0
  4  5  1  0
  5 19  1  0
 19 21  1  0
 21 22  2  0
 22 23  1  0
 23 24  1  0
 23 25  2  0
 25 26  1  0
 26 27  2  0
 27 28  1  0
 28 29  1  0
 29 30  1  0
 29 31  1  0
 29 32  1  0
  5  6  2  0
 12 13  1  0
 13 14  2  0
 14  9  1  0
  6  1  1  0
 27 21  1  0
 17 18  1  0
  7  8  1  0
 19 20  1  0
M  END
> <minimizedAffinity>
-9.82241

> <CNNscore>
0.9833916426

> <CNNaffinity>
7.7467350960

> <CNN_VS>
7.6180744171

> <CNNaffinity_variance>
0.0214747414

$$$$



 32 34  0  0  0  0  0  0  0  0999 V2000
    4.3095   30.8425    7.0861 C   0  0  0  0  0  0  0  0  0  0  0  0
    3.6688   31.4591    8.0854 N   0  0  0  0  0  0  0  0  0  0  0  0
    3.9404   31.0461    9.3323 C   0  0  0  0  0  0  0  0  0  0  0  0
    4.8146   30.0288    9.6176 C   0  0  0  0  0  0  0  0  0  0  0  0
    5.4179   29.4253    8.5396 C   0  0  0  0  0  0  0  0  0  0  0  0
    5.1852   29.8416    7.2810 N   0  0  0  0  0  0  0  0  0  0  0  0
    4.1159   31.1967    5.7535 N   0  0  0  0  0  0  0  0  0  0  0  0
    4.6521   30.6540    5.1312 H   0  0  0  0  0  0  0  0  0  0  0  0
    1.6865   34.1301    3.9118 C   0  0  0  0  0  0  0  0  0  0  0  0
    2.4787   33.2947    3.1212 C   0  0  0  0  0  0  0  0  0  0  0  0
    3.2893   32.3179    3.7148 C   0  0  0  0  0  0  0  0  0  0  0  0
    3.3291   32.1518    5.1031 C   0  0  0  0  0  0  0  0  0  0  0  0
    2.5254   33.0011    5.8829 C   0  0  0  0  0  0  0  0  0  0  0  0
    1.7117   33.9803    5.2998 C   0  0  0  0  0  0  0  0  0  0  0  0
    0.6354   35.2299    2.0450 O   0  0  0  0  0  0  0  0  0  0  0  0
    0.8444   35.1494    3.2413 C   0  0  0  0  0  0  0  0  0  0  0  0
    0.2998   36.0261    4.1039 O   0  0  0  0  0  0  0  0  0  0  0  0
    0.4718   35.9486    5.0217 H   0  0  0  0  0  0  0  0  0  0  0  0
    6.3434   28.3900    8.6621 N   0  0  0  0  0  0  0  0  0  0  0  0
    6.3087   27.9523    9.5432 H   0  0  0  0  0  0  0  0  0  0  0  0
    7.3182   27.8259    7.8127 C   0  0  0  0  0  0  0  0  0  0  0  0
    7.3288   28.0203    6.4277 C   0  0  0  0  0  0  0  0  0  0  0  0
    8.2855   27.3924    5.6375 C   0  0  0  0  0  0  0  0  0  0  0  0
    8.2841   27.6000    4.3144 F   0  0  0  0  0  0  0  0  0  0  0  0
    9.2437   26.5599    6.1955 C   0  0  0  0  0  0  0  0  0  0  0  0
    9.2554   26.3502    7.5743 C   0  0  0  0  0  0  0  0  0  0  0  0
    8.2985   26.9730    8.3862 C   0  0  0  0  0  0  0  0  0  0  0  0
    8.2197   26.8453    9.7516 O   0  0  0  0  0  0  0  0  0  0  0  0
    9.2384   26.1175   10.4135 C   0  0  0  0  0  0  0  0  0  0  0  0
   10.4359   26.3209    9.8244 F   0  0  0  0  0  0  0  0  0  0  0  0
    9.3199   26.5522   11.6900 F   0  0  0  0  0  0  0  0  0  0  0  0
    8.9630   24.7966   10.4342 F   0  0  0  0  0  0  0  0  0  0  0  0
 15 16  2  0
 16 17  1  0
 16  9  1  0
  9 10  2  0
 10 11  1  0
 11 12  2  0
 12  7  1  0
  7  1  1  0
  1  2  2  0
  2  3  1  0
  3  4  2  0
  4  5  1  0
  5 19  1  0
 19 21  1  0
 21 22  2  0
 22 23  1  0
 23 24  1  0
 23 25  2  0
 25 26  1  0
 26 27  2  0
 27 28  1  0
 28 29  1  0
 29 30  1  0
 29 31  1  0
 29 32  1  0
  5  6  2  0
 12 13  1  0
 13 14  2  0
 14  9  1  0
  6  1  1  0
 27 21  1  0
 17 18  1  0
  7  8  1  0
 19 20  1  0
M  END
> <minimizedAffinity>
-9.64215

> <CNNscore>
0.8907380700

> <CNNaffinity>
7.2707648277

> <CNN_VS>
6.4763469696

> <CNNaffinity_variance>
0.0014142226

$$$$



 32 34  0  0  0  0  0  0  0  0999 V2000
    9.2314   27.8300    6.7554 C   0  0  0  0  0  0  0  0  0  0  0  0
    9.6157   27.9606    8.0301 N   0  0  0  0  0  0  0  0  0  0  0  0
    8.6822   28.3446    8.9134 C   0  0  0  0  0  0  0  0  0  0  0  0
    7.3838   28.6200    8.5688 C   0  0  0  0  0  0  0  0  0  0  0  0
    7.0670   28.4877    7.2374 C   0  0  0  0  0  0  0  0  0  0  0  0
    7.9777   28.0745    6.3368 N   0  0  0  0  0  0  0  0  0  0  0  0
   10.1115   27.4248    5.7555 N   0  0  0  0  0  0  0  0  0  0  0  0
   10.8761   26.9114    6.1033 H   0  0  0  0  0  0  0  0  0  0  0  0
   10.1096   27.9867    1.5623 C   0  0  0  0  0  0  0  0  0  0  0  0
   11.1273   27.2380    2.1577 C   0  0  0  0  0  0  0  0  0  0  0  0
   11.1431   27.0421    3.5451 C   0  0  0  0  0  0  0  0  0  0  0  0
   10.1504   27.5852    4.3673 C   0  0  0  0  0  0  0  0  0  0  0  0
    9.1343   28.3356    3.7511 C   0  0  0  0  0  0  0  0  0  0  0  0
    9.1090   28.5373    2.3656 C   0  0  0  0  0  0  0  0  0  0  0  0
    9.2882   28.7414   -0.5719 O   0  0  0  0  0  0  0  0  0  0  0  0
   10.1325   28.1682    0.0912 C   0  0  0  0  0  0  0  0  0  0  0  0
   11.2174   27.6206   -0.4855 O   0  0  0  0  0  0  0  0  0  0  0  0
   11.8572   27.1831    0.0410 H   0  0  0  0  0  0  0  0  0  0  0  0
    5.7883   28.7129    6.7299 N   0  0  0  0  0  0  0  0  0  0  0  0
    5.1598   27.9875    6.9492 H   0  0  0  0  0  0  0  0  0  0  0  0
    5.1886   29.7420    5.9740 C   0  0  0  0  0  0  0  0  0  0  0  0
    5.4670   29.9567    4.6204 C   0  0  0  0  0  0  0  0  0  0  0  0
    4.8841   31.0225    3.9437 C   0  0  0  0  0  0  0  0  0  0  0  0
    5.1564   31.2043    2.6450 F   0  0  0  0  0  0  0  0  0  0  0  0
    4.0221   31.8969    4.5879 C   0  0  0  0  0  0  0  0  0  0  0  0
    3.7273   31.7042    5.9374 C   0  0  0  0  0  0  0  0  0  0  0  0
    4.3063   30.6369    6.6360 C   0  0  0  0  0  0  0  0  0  0  0  0
    4.0827   30.3475    7.9600 O   0  0  0  0  0  0  0  0  0  0  0  0
    3.8917   31.4274    8.8560 C   0  0  0  0  0  0  0  0  0  0  0  0
    4.2717   32.5937    8.2924 F   0  0  0  0  0  0  0  0  0  0  0  0
    2.5768   31.5143    9.1536 F   0  0  0  0  0  0  0  0  0  0  0  0
    4.5729   31.2373   10.0053 F   0  0  0  0  0  0  0  0  0  0  0  0
 15 16  2  0
 16 17  1  0
 16  9  1  0
  9 10  2  0
 10 11  1  0
 11 12  2  0
 12  7  1  0
  7  1  1  0
  1  2  2  0
  2  3  1  0
  3  4  2  0
  4  5  1  0
  5 19  1  0
 19 21  1  0
 21 22  2  0
 22 23  1  0
 23 24  1  0
 23 25  2  0
 25 26  1  0
 26 27  2  0
 27 28  1  0
 28 29  1  0
 29 30  1  0
 29 31  1  0
 29 32  1  0
  5  6  2  0
 12 13  1  0
 13 14  2  0
 14  9  1  0
  6  1  1  0
 27 21  1  0
 17 18  1  0
  7  8  1  0
 19 20  1  0
M  END
> <minimizedAffinity>
-9.24675

> <CNNscore>
0.1856277138

> <CNNaffinity>
5.3924593925

> <CNN_VS>
1.0009899139

> <CNNaffinity_variance>
1.2285014391

$$$$



 32 34  0  0  0  0  0  0  0  0999 V2000
    7.6945   29.1228    4.0446 C   0  0  0  0  0  0  0  0  0  0  0  0
    7.6108   28.7933    2.7508 N   0  0  0  0  0  0  0  0  0  0  0  0
    6.4930   29.1496    2.1005 C   0  0  0  0  0  0  0  0  0  0  0  0
    5.4484   29.8070    2.6980 C   0  0  0  0  0  0  0  0  0  0  0  0
    5.5942   30.0916    4.0353 C   0  0  0  0  0  0  0  0  0  0  0  0
    6.7184   29.7718    4.7025 N   0  0  0  0  0  0  0  0  0  0  0  0
    8.8127   28.8157    4.8151 N   0  0  0  0  0  0  0  0  0  0  0  0
    9.6540   29.1290    4.4110 H   0  0  0  0  0  0  0  0  0  0  0  0
    9.3890   26.7101    8.4391 C   0  0  0  0  0  0  0  0  0  0  0  0
    9.3676   28.1066    8.4484 C   0  0  0  0  0  0  0  0  0  0  0  0
    9.1779   28.8197    7.2571 C   0  0  0  0  0  0  0  0  0  0  0  0
    9.0062   28.1611    6.0351 C   0  0  0  0  0  0  0  0  0  0  0  0
    9.0304   26.7558    6.0447 C   0  0  0  0  0  0  0  0  0  0  0  0
    9.2192   26.0336    7.2295 C   0  0  0  0  0  0  0  0  0  0  0  0
    9.8652   24.8177    9.8502 O   0  0  0  0  0  0  0  0  0  0  0  0
    9.5925   25.9969    9.7227 C   0  0  0  0  0  0  0  0  0  0  0  0
    9.4442   26.7971   10.7936 O   0  0  0  0  0  0  0  0  0  0  0  0
    9.2342   27.7027   10.6763 H   0  0  0  0  0  0  0  0  0  0  0  0
    4.6321   30.7700    4.7818 N   0  0  0  0  0  0  0  0  0  0  0  0
    3.9838   31.2508    4.2180 H   0  0  0  0  0  0  0  0  0  0  0  0
    4.3746   30.9255    6.1600 C   0  0  0  0  0  0  0  0  0  0  0  0
    4.6409   29.9284    7.1038 C   0  0  0  0  0  0  0  0  0  0  0  0
    4.3140   30.1219    8.4415 C   0  0  0  0  0  0  0  0  0  0  0  0
    4.5869   29.1582    9.3307 F   0  0  0  0  0  0  0  0  0  0  0  0
    3.7158   31.2965    8.8719 C   0  0  0  0  0  0  0  0  0  0  0  0
    3.4405   32.3068    7.9507 C   0  0  0  0  0  0  0  0  0  0  0  0
    3.7613   32.1292    6.5986 C   0  0  0  0  0  0  0  0  0  0  0  0
    3.5436   33.0560    5.6085 O   0  0  0  0  0  0  0  0  0  0  0  0
    2.2129   33.2655    5.1714 C   0  0  0  0  0  0  0  0  0  0  0  0
    2.0459   34.5284    4.7247 F   0  0  0  0  0  0  0  0  0  0  0  0
    1.9565   32.4215    4.1482 F   0  0  0  0  0  0  0  0  0  0  0  0
    1.3274   33.0139    6.1582 F   0  0  0  0  0  0  0  0  0  0  0  0
 15 16  2  0
 16 17  1  0
 16  9  1  0
  9 10  2  0
 10 11  1  0
 11 12  2  0
 12  7  1  0
  7  1  1  0
  1  2  2  0
  2  3  1  0
  3  4  2  0
  4  5  1  0
  5 19  1  0
 19 21  1  0
 21 22  2  0
 22 23  1  0
 23 24  1  0
 23 25  2  0
 25 26  1  0
 26 27  2  0
 27 28  1  0
 28 29  1  0
 29 30  1  0
 29 31  1  0
 29 32  1  0
  5  6  2  0
 12 13  1  0
 13 14  2  0
 14  9  1  0
  6  1  1  0
 27 21  1  0
 17 18  1  0
  7  8  1  0
 19 20  1  0
M  END
> <minimizedAffinity>
-9.80061

> <CNNscore>
0.1600768566

> <CNNaffinity>
5.8298792839

> <CNN_VS>
0.9332287312

> <CNNaffinity_variance>
0.4597072601

$$$$



 32 34  0  0  0  0  0  0  0  0999 V2000
    7.1453   28.9769    5.1749 C   0  0  0  0  0  0  0  0  0  0  0  0
    6.6674   27.9007    4.5403 N   0  0  0  0  0  0  0  0  0  0  0  0
    5.6329   28.0913    3.7081 C   0  0  0  0  0  0  0  0  0  0  0  0
    5.0465   29.3132    3.4993 C   0  0  0  0  0  0  0  0  0  0  0  0
    5.5746   30.3694    4.2036 C   0  0  0  0  0  0  0  0  0  0  0  0
    6.6317   30.2095    5.0211 N   0  0  0  0  0  0  0  0  0  0  0  0
    8.2243   28.9000    6.0516 N   0  0  0  0  0  0  0  0  0  0  0  0
    8.9277   29.5591    5.8519 H   0  0  0  0  0  0  0  0  0  0  0  0
    9.1070   26.5674    9.4690 C   0  0  0  0  0  0  0  0  0  0  0  0
    9.3482   26.0454    8.1963 C   0  0  0  0  0  0  0  0  0  0  0  0
    9.0616   26.8044    7.0537 C   0  0  0  0  0  0  0  0  0  0  0  0
    8.5304   28.0946    7.1525 C   0  0  0  0  0  0  0  0  0  0  0  0
    8.2942   28.6037    8.4411 C   0  0  0  0  0  0  0  0  0  0  0  0
    8.5771   27.8537    9.5893 C   0  0  0  0  0  0  0  0  0  0  0  0
    9.4084   24.5131   10.6889 O   0  0  0  0  0  0  0  0  0  0  0  0
    9.4253   25.7293   10.6497 C   0  0  0  0  0  0  0  0  0  0  0  0
    9.7517   26.4566   11.7332 O   0  0  0  0  0  0  0  0  0  0  0  0
    9.7594   27.3923   11.6845 H   0  0  0  0  0  0  0  0  0  0  0  0
    5.1035   31.6764    4.0891 N   0  0  0  0  0  0  0  0  0  0  0  0
    5.8060   32.3106    3.8181 H   0  0  0  0  0  0  0  0  0  0  0  0
    3.8508   32.2984    4.2728 C   0  0  0  0  0  0  0  0  0  0  0  0
    3.0693   32.7692    3.2128 C   0  0  0  0  0  0  0  0  0  0  0  0
    1.8675   33.4227    3.4622 C   0  0  0  0  0  0  0  0  0  0  0  0
    1.1295   33.8568    2.4323 F   0  0  0  0  0  0  0  0  0  0  0  0
    1.4171   33.6280    4.7575 C   0  0  0  0  0  0  0  0  0  0  0  0
    2.1773   33.1674    5.8321 C   0  0  0  0  0  0  0  0  0  0  0  0
    3.3916   32.5083    5.6004 C   0  0  0  0  0  0  0  0  0  0  0  0
    4.2158   32.0072    6.5784 O   0  0  0  0  0  0  0  0  0  0  0  0
    3.6914   31.8689    7.8866 C   0  0  0  0  0  0  0  0  0  0  0  0
    2.4628   32.4215    7.9739 F   0  0  0  0  0  0  0  0  0  0  0  0
    3.5802   30.5528    8.1704 F   0  0  0  0  0  0  0  0  0  0  0  0
    4.5064   32.4310    8.8035 F   0  0  0  0  0  0  0  0  0  0  0  0
 15 16  2  0
 16 17  1  0
 16  9  1  0
  9 10  2  0
 10 11  1  0
 11 12  2  0
 12  7  1  0
  7  1  1  0
  1  2  2  0
  2  3  1  0
  3  4  2  0
  4  5  1  0
  5 19  1  0
 19 21  1  0
 21 22  2  0
 22 23  1  0
 23 24  1  0
 23 25  2  0
 25 26  1  0
 26 27  2  0
 27 28  1  0
 28 29  1  0
 29 30  1  0
 29 31  1  0
 29 32  1  0
  5  6  2  0
 12 13  1  0
 13 14  2  0
 14  9  1  0
  6  1  1  0
 27 21  1  0
 17 18  1  0
  7  8  1  0
 19 20  1  0
M  END
> <minimizedAffinity>
-9.74446

> <CNNscore>
0.1505124271

> <CNNaffinity>
5.4748187065

> <CNN_VS>
0.8240282536

> <CNNaffinity_variance>
0.9826785922

$$$$



 32 34  0  0  0  0  0  0  0  0999 V2000
    8.5451   29.0501    3.7085 C   0  0  0  0  0  0  0  0  0  0  0  0
    9.3271   28.1153    4.2598 N   0  0  0  0  0  0  0  0  0  0  0  0
    8.8450   27.4700    5.3323 C   0  0  0  0  0  0  0  0  0  0  0  0
    7.6186   27.7354    5.8855 C   0  0  0  0  0  0  0  0  0  0  0  0
    6.8802   28.7252    5.2809 C   0  0  0  0  0  0  0  0  0  0  0  0
    7.3287   29.3659    4.1856 N   0  0  0  0  0  0  0  0  0  0  0  0
    8.9366   29.7734    2.5851 N   0  0  0  0  0  0  0  0  0  0  0  0
    9.6042   30.4674    2.7900 H   0  0  0  0  0  0  0  0  0  0  0  0
    7.9977   29.7454   -1.5400 C   0  0  0  0  0  0  0  0  0  0  0  0
    7.2622   28.9489   -0.6596 C   0  0  0  0  0  0  0  0  0  0  0  0
    7.5599   28.9461    0.7097 C   0  0  0  0  0  0  0  0  0  0  0  0
    8.5923   29.7329    1.2307 C   0  0  0  0  0  0  0  0  0  0  0  0
    9.3218   30.5281    0.3303 C   0  0  0  0  0  0  0  0  0  0  0  0
    9.0325   30.5383   -1.0398 C   0  0  0  0  0  0  0  0  0  0  0  0
    8.0883   28.9410   -3.8081 O   0  0  0  0  0  0  0  0  0  0  0  0
    7.6481   29.7171   -2.9804 C   0  0  0  0  0  0  0  0  0  0  0  0
    6.7587   30.6672   -3.3203 O   0  0  0  0  0  0  0  0  0  0  0  0
    6.4306   31.2562   -2.6696 H   0  0  0  0  0  0  0  0  0  0  0  0
    5.6084   29.1009    5.7107 N   0  0  0  0  0  0  0  0  0  0  0  0
    4.9027   28.8520    5.0709 H   0  0  0  0  0  0  0  0  0  0  0  0
    5.1009   29.7558    6.8523 C   0  0  0  0  0  0  0  0  0  0  0  0
    5.3013   29.2862    8.1543 C   0  0  0  0  0  0  0  0  0  0  0  0
    4.7290   29.9474    9.2356 C   0  0  0  0  0  0  0  0  0  0  0  0
    4.9417   29.4868   10.4751 F   0  0  0  0  0  0  0  0  0  0  0  0
    3.9467   31.0778    9.0538 C   0  0  0  0  0  0  0  0  0  0  0  0
    3.7323   31.5670    7.7654 C   0  0  0  0  0  0  0  0  0  0  0  0
    4.2994   30.9132    6.6639 C   0  0  0  0  0  0  0  0  0  0  0  0
    4.1620   31.3090    5.3557 O   0  0  0  0  0  0  0  0  0  0  0  0
    3.5837   32.5760    5.0992 C   0  0  0  0  0  0  0  0  0  0  0  0
    3.9028   33.0093    3.8611 F   0  0  0  0  0  0  0  0  0  0  0  0
    2.2396   32.4593    5.1690 F   0  0  0  0  0  0  0  0  0  0  0  0
    3.9761   33.4882    6.0128 F   0  0  0  0  0  0  0  0  0  0  0  0
 15 16  2  0
 16 17  1  0
 16  9  1  0
  9 10  2  0
 10 11  1  0
 11 12  2  0
 12  7  1  0
  7  1  1  0
  1  2  2  0
  2  3  1  0
  3  4  2  0
  4  5  1  0
  5 19  1  0
 19 21  1  0
 21 22  2  0
 22 23  1  0
 23 24  1  0
 23 25  2  0
 25 26  1  0
 26 27  2  0
 27 28  1  0
 28 29  1  0
 29 30  1  0
 29 31  1  0
 29 32  1  0
  5  6  2  0
 12 13  1  0
 13 14  2  0
 14  9  1  0
  6  1  1  0
 27 21  1  0
 17 18  1  0
  7  8  1  0
 19 20  1  0
M  END
> <minimizedAffinity>
-8.45540

> <CNNscore>
0.1408075541

> <CNNaffinity>
4.7226562500

> <CNN_VS>
0.6649856567

> <CNNaffinity_variance>
1.7589324713

$$$$



 32 34  0  0  0  0  0  0  0  0999 V2000
    7.7275   29.2339    2.8063 C   0  0  0  0  0  0  0  0  0  0  0  0
    6.7551   29.6401    1.9824 N   0  0  0  0  0  0  0  0  0  0  0  0
    5.5243   29.7601    2.5020 C   0  0  0  0  0  0  0  0  0  0  0  0
    5.2248   29.4729    3.8090 C   0  0  0  0  0  0  0  0  0  0  0  0
    6.2689   29.0377    4.5906 C   0  0  0  0  0  0  0  0  0  0  0  0
    7.5185   28.9383    4.1008 N   0  0  0  0  0  0  0  0  0  0  0  0
    9.0447   29.0866    2.3797 N   0  0  0  0  0  0  0  0  0  0  0  0
    9.4550   29.9376    2.1030 H   0  0  0  0  0  0  0  0  0  0  0  0
   11.6505   25.7931    1.8688 C   0  0  0  0  0  0  0  0  0  0  0  0
   11.4418   26.3159    3.1470 C   0  0  0  0  0  0  0  0  0  0  0  0
   10.5820   27.4065    3.3340 C   0  0  0  0  0  0  0  0  0  0  0  0
    9.9139   27.9985    2.2572 C   0  0  0  0  0  0  0  0  0  0  0  0
   10.1357   27.4593    0.9784 C   0  0  0  0  0  0  0  0  0  0  0  0
   10.9927   26.3696    0.7804 C   0  0  0  0  0  0  0  0  0  0  0  0
   12.8935   23.8635    2.5975 O   0  0  0  0  0  0  0  0  0  0  0  0
   12.5684   24.6388    1.7175 C   0  0  0  0  0  0  0  0  0  0  0  0
   13.0397   24.5075    0.4646 O   0  0  0  0  0  0  0  0  0  0  0  0
   12.7784   25.1139   -0.2003 H   0  0  0  0  0  0  0  0  0  0  0  0
    6.1329   28.7228    5.9418 N   0  0  0  0  0  0  0  0  0  0  0  0
    6.5892   27.8848    6.1839 H   0  0  0  0  0  0  0  0  0  0  0  0
    5.4912   29.3300    7.0415 C   0  0  0  0  0  0  0  0  0  0  0  0
    4.6254   30.4208    6.9136 C   0  0  0  0  0  0  0  0  0  0  0  0
    4.0658   31.0097    8.0422 C   0  0  0  0  0  0  0  0  0  0  0  0
    3.2312   32.0471    7.8968 F   0  0  0  0  0  0  0  0  0  0  0  0
    4.3520   30.5388    9.3146 C   0  0  0  0  0  0  0  0  0  0  0  0
    5.2117   29.4516    9.4694 C   0  0  0  0  0  0  0  0  0  0  0  0
    5.7862   28.8464    8.3441 C   0  0  0  0  0  0  0  0  0  0  0  0
    6.6376   27.7690    8.3768 O   0  0  0  0  0  0  0  0  0  0  0  0
    7.9608   27.9779    8.8360 C   0  0  0  0  0  0  0  0  0  0  0  0
    8.0111   27.9590   10.1849 F   0  0  0  0  0  0  0  0  0  0  0  0
    8.7416   26.9772    8.3734 F   0  0  0  0  0  0  0  0  0  0  0  0
    8.4589   29.1466    8.3811 F   0  0  0  0  0  0  0  0  0  0  0  0
 15 16  2  0
 16 17  1  0
 16  9  1  0
  9 10  2  0
 10 11  1  0
 11 12  2  0
 12  7  1  0
  7  1  1  0
  1  2  2  0
  2  3  1  0
  3  4  2  0
  4  5  1  0
  5 19  1  0
 19 21  1  0
 21 22  2  0
 22 23  1  0
 23 24  1  0
 23 25  2  0
 25 26  1  0
 26 27  2  0
 27 28  1  0
 28 29  1  0
 29 30  1  0
 29 31  1  0
 29 32  1  0
  5  6  2  0
 12 13  1  0
 13 14  2  0
 14  9  1  0
  6  1  1  0
 27 21  1  0
 17 18  1  0
  7  8  1  0
 19 20  1  0
M  END
> <minimizedAffinity>
-8.84810

> <CNNscore>
0.1347062588

> <CNNaffinity>
4.9094252586

> <CNN_VS>
0.6613302827

> <CNNaffinity_variance>
1.9133609533

$$$$
