


 36 39  0  0  0  0  0  0  0  0999 V2000
   -1.3668   -8.4051   40.8101 C   0  0  0  0  0  0  0  0  0  0  0  0
   -0.6821   -9.4633   41.4058 C   0  0  0  0  0  0  0  0  0  0  0  0
    0.0568  -10.3788   40.6486 C   0  0  0  0  0  0  0  0  0  0  0  0
    0.0935  -10.2033   39.2568 C   0  0  0  0  0  0  0  0  0  0  0  0
   -0.5834   -9.1544   38.6351 C   0  0  0  0  0  0  0  0  0  0  0  0
   -1.3216   -8.2428   39.4216 C   0  0  0  0  0  0  0  0  0  0  0  0
   -0.3455   -9.2716   37.2417 C   0  0  0  0  0  0  0  0  0  0  0  0
    0.4597  -10.3752   37.0248 C   0  0  0  0  0  0  0  0  0  0  0  0
    0.7228  -10.9324   38.2606 N   0  0  0  0  0  0  0  0  0  0  0  0
   -2.8093   -6.5414   41.1278 C   0  0  0  0  0  0  0  0  0  0  0  0
   -2.0429   -7.6000   41.6879 O   0  0  0  0  0  0  0  0  0  0  0  0
    0.9759  -10.9080   35.7309 C   0  0  0  0  0  0  0  0  0  0  0  0
    1.9143   -9.9139   35.2160 N   0  0  0  0  0  0  0  0  0  0  0  0
    2.6271  -10.4055   34.6770 H   0  0  0  0  0  0  0  0  0  0  0  0
    1.2490   -8.7247   34.2295 S   0  0  0  0  0  0  0  0  0  0  0  0
    2.0414   -7.5295   34.4069 O   0  0  0  0  0  0  0  0  0  0  0  0
   -0.1851   -8.7280   34.4232 O   0  0  0  0  0  0  0  0  0  0  0  0
    1.4956   -9.2170   32.5282 C   0  0  0  0  0  0  0  0  0  0  0  0
    1.0367  -10.3295   31.8303 C   0  0  0  0  0  0  0  0  0  0  0  0
    1.5087  -10.2343   30.4986 C   0  0  0  0  0  0  0  0  0  0  0  0
    1.3973  -11.0099   29.3321 C   0  0  0  0  0  0  0  0  0  0  0  0
    2.0260  -10.5580   28.1626 C   0  0  0  0  0  0  0  0  0  0  0  0
    2.7461   -9.3607   28.1484 C   0  0  0  0  0  0  0  0  0  0  0  0
    2.8663   -8.5763   29.3000 C   0  0  0  0  0  0  0  0  0  0  0  0
    2.2367   -9.0556   30.4462 C   0  0  0  0  0  0  0  0  0  0  0  0
    2.2512   -8.4519   31.6623 O   0  0  0  0  0  0  0  0  0  0  0  0
    1.5405  -12.1189   38.5107 C   0  0  0  0  0  0  0  0  0  0  0  0
    2.4894  -12.3995   37.3384 C   0  0  0  0  0  0  0  0  0  0  0  0
    2.7569  -13.9037   36.9871 C   0  0  0  0  0  0  0  0  0  0  0  0
    1.5985  -14.4390   36.1363 C   0  0  0  0  0  0  0  0  0  0  0  0
    2.8381  -14.7133   38.2935 C   0  0  0  0  0  0  0  0  0  0  0  0
    4.1309  -13.9255   36.2284 C   0  0  0  0  0  0  0  0  0  0  0  0
    5.3608  -14.7848   36.6627 C   0  0  0  0  0  0  0  0  0  0  0  0
    5.8688  -15.7399   35.5777 C   0  0  0  0  0  0  0  0  0  0  0  0
    6.5257  -13.9127   37.1678 C   0  0  0  0  0  0  0  0  0  0  0  0
    4.9003  -15.6503   37.8634 C   0  0  0  0  0  0  0  0  0  0  0  0
 10 11  1  0
 11  1  1  0
  1  2  2  0
  2  3  1  0
  3  4  2  0
  4  5  1  0
  5  6  2  0
  5  7  1  0
  7  8  2  0
  8 12  1  0
 12 13  1  0
 13 15  1  0
 15 16  2  0
 15 17  2  0
 15 18  1  0
 18 19  2  0
 19 20  1  0
 20 21  2  0
 21 22  1  0
 22 23  2  0
 23 24  1  0
 24 25  2  0
 25 26  1  0
  8  9  1  0
  9 27  1  0
 27 28  1  0
 28 29  1  0
 29 30  1  0
 29 31  1  0
 29 32  1  0
 32 33  1  0
 33 34  1  0
 33 35  1  0
 33 36  1  0
  6  1  1  0
 26 18  1  0
  9  4  1  0
 25 20  1  0
 13 14  1  0
M  END
> <minimizedAffinity>
-9.80627

> <CNNscore>
0.4637185335

> <CNNaffinity>
6.7165336609

> <CNN_VS>
3.1145811081

> <CNNaffinity_variance>
0.7557821870

$$$$



 36 39  0  0  0  0  0  0  0  0999 V2000
   -1.4193   -8.1515   40.7655 C   0  0  0  0  0  0  0  0  0  0  0  0
   -0.8718   -9.2391   41.4444 C   0  0  0  0  0  0  0  0  0  0  0  0
   -0.1807  -10.2524   40.7715 C   0  0  0  0  0  0  0  0  0  0  0  0
   -0.0493  -10.1459   39.3784 C   0  0  0  0  0  0  0  0  0  0  0  0
   -0.5884   -9.0695   38.6744 C   0  0  0  0  0  0  0  0  0  0  0  0
   -1.2808   -8.0586   39.3768 C   0  0  0  0  0  0  0  0  0  0  0  0
   -0.2844   -9.2726   37.3039 C   0  0  0  0  0  0  0  0  0  0  0  0
    0.4243  -10.4541   37.1815 C   0  0  0  0  0  0  0  0  0  0  0  0
    0.5638  -10.9750   38.4528 N   0  0  0  0  0  0  0  0  0  0  0  0
   -3.0786   -6.4589   40.9573 C   0  0  0  0  0  0  0  0  0  0  0  0
   -2.0651   -7.2480   41.5670 O   0  0  0  0  0  0  0  0  0  0  0  0
    0.9603  -11.0915   35.9441 C   0  0  0  0  0  0  0  0  0  0  0  0
    0.3181  -10.4188   34.8177 N   0  0  0  0  0  0  0  0  0  0  0  0
   -0.5840  -10.0654   35.1367 H   0  0  0  0  0  0  0  0  0  0  0  0
    1.1723   -9.1305   34.1537 S   0  0  0  0  0  0  0  0  0  0  0  0
    2.4988   -9.1569   34.7259 O   0  0  0  0  0  0  0  0  0  0  0  0
    0.3343   -7.9525   34.2181 O   0  0  0  0  0  0  0  0  0  0  0  0
    1.3943   -9.4558   32.4094 C   0  0  0  0  0  0  0  0  0  0  0  0
    1.0083  -10.5439   31.6334 C   0  0  0  0  0  0  0  0  0  0  0  0
    1.4174  -10.2961   30.3005 C   0  0  0  0  0  0  0  0  0  0  0  0
    1.3291  -10.9794   29.0758 C   0  0  0  0  0  0  0  0  0  0  0  0
    1.8690  -10.3768   27.9301 C   0  0  0  0  0  0  0  0  0  0  0  0
    2.4795   -9.1217   27.9960 C   0  0  0  0  0  0  0  0  0  0  0  0
    2.5752   -8.4277   29.2065 C   0  0  0  0  0  0  0  0  0  0  0  0
    2.0359   -9.0557   30.3266 C   0  0  0  0  0  0  0  0  0  0  0  0
    2.0449   -8.5558   31.5891 O   0  0  0  0  0  0  0  0  0  0  0  0
    1.2509  -12.2185   38.8003 C   0  0  0  0  0  0  0  0  0  0  0  0
    2.7653  -12.0043   38.9194 C   0  0  0  0  0  0  0  0  0  0  0  0
    3.6879  -13.1577   38.3939 C   0  0  0  0  0  0  0  0  0  0  0  0
    4.0176  -12.9095   36.9168 C   0  0  0  0  0  0  0  0  0  0  0  0
    2.9369  -14.4947   38.5245 C   0  0  0  0  0  0  0  0  0  0  0  0
    4.9597  -13.1376   39.3138 C   0  0  0  0  0  0  0  0  0  0  0  0
    6.2319  -14.0113   39.0732 C   0  0  0  0  0  0  0  0  0  0  0  0
    7.2804  -13.3513   38.1716 C   0  0  0  0  0  0  0  0  0  0  0  0
    6.8910  -14.4488   40.3948 C   0  0  0  0  0  0  0  0  0  0  0  0
    5.7584  -15.3052   38.3629 C   0  0  0  0  0  0  0  0  0  0  0  0
 10 11  1  0
 11  1  1  0
  1  2  2  0
  2  3  1  0
  3  4  2  0
  4  5  1  0
  5  6  2  0
  5  7  1  0
  7  8  2  0
  8 12  1  0
 12 13  1  0
 13 15  1  0
 15 16  2  0
 15 17  2  0
 15 18  1  0
 18 19  2  0
 19 20  1  0
 20 21  2  0
 21 22  1  0
 22 23  2  0
 23 24  1  0
 24 25  2  0
 25 26  1  0
  8  9  1  0
  9 27  1  0
 27 28  1  0
 28 29  1  0
 29 30  1  0
 29 31  1  0
 29 32  1  0
 32 33  1  0
 33 34  1  0
 33 35  1  0
 33 36  1  0
  6  1  1  0
 26 18  1  0
  9  4  1  0
 25 20  1  0
 13 14  1  0
M  END
> <minimizedAffinity>
-10.27749

> <CNNscore>
0.3162005544

> <CNNaffinity>
6.4505844116

> <CNN_VS>
2.0396783352

> <CNNaffinity_variance>
0.8122226596

$$$$



 36 39  0  0  0  0  0  0  0  0999 V2000
   -1.2468   -8.4780   40.5008 C   0  0  0  0  0  0  0  0  0  0  0  0
   -1.5949   -8.0119   39.2339 C   0  0  0  0  0  0  0  0  0  0  0  0
   -1.1116   -8.6191   38.0698 C   0  0  0  0  0  0  0  0  0  0  0  0
   -0.2575   -9.7237   38.2100 C   0  0  0  0  0  0  0  0  0  0  0  0
    0.1078  -10.2095   39.4652 C   0  0  0  0  0  0  0  0  0  0  0  0
   -0.3944   -9.5798   40.6253 C   0  0  0  0  0  0  0  0  0  0  0  0
    0.9725  -11.3132   39.2504 C   0  0  0  0  0  0  0  0  0  0  0  0
    1.1294  -11.4895   37.8874 C   0  0  0  0  0  0  0  0  0  0  0  0
    0.3725  -10.5169   37.2645 N   0  0  0  0  0  0  0  0  0  0  0  0
   -2.7078   -6.7343   41.1938 C   0  0  0  0  0  0  0  0  0  0  0  0
   -1.8015   -7.7748   41.5370 O   0  0  0  0  0  0  0  0  0  0  0  0
    1.9439  -12.5135   37.1714 C   0  0  0  0  0  0  0  0  0  0  0  0
    1.0080  -13.5242   36.6851 N   0  0  0  0  0  0  0  0  0  0  0  0
    1.0020  -13.4813   35.6660 H   0  0  0  0  0  0  0  0  0  0  0  0
    1.3481  -15.1096   37.1336 S   0  0  0  0  0  0  0  0  0  0  0  0
    0.1761  -15.8996   36.8335 O   0  0  0  0  0  0  0  0  0  0  0  0
    1.9388  -15.0879   38.4545 O   0  0  0  0  0  0  0  0  0  0  0  0
    2.6329  -15.7255   36.0530 C   0  0  0  0  0  0  0  0  0  0  0  0
    3.9721  -15.3667   35.9400 C   0  0  0  0  0  0  0  0  0  0  0  0
    4.5567  -16.1743   34.9344 C   0  0  0  0  0  0  0  0  0  0  0  0
    5.8335  -16.3043   34.3620 C   0  0  0  0  0  0  0  0  0  0  0  0
    6.0241  -17.2630   33.3561 C   0  0  0  0  0  0  0  0  0  0  0  0
    4.9727  -18.0784   32.9296 C   0  0  0  0  0  0  0  0  0  0  0  0
    3.6961  -17.9628   33.4890 C   0  0  0  0  0  0  0  0  0  0  0  0
    3.5377  -16.9973   34.4803 C   0  0  0  0  0  0  0  0  0  0  0  0
    2.3781  -16.7201   35.1301 O   0  0  0  0  0  0  0  0  0  0  0  0
    0.2388  -10.3271   35.8205 C   0  0  0  0  0  0  0  0  0  0  0  0
    1.4737   -9.6325   35.2325 C   0  0  0  0  0  0  0  0  0  0  0  0
    1.2331   -8.2833   34.4712 C   0  0  0  0  0  0  0  0  0  0  0  0
    1.9389   -7.1462   35.2202 C   0  0  0  0  0  0  0  0  0  0  0  0
   -0.2786   -7.9975   34.4304 C   0  0  0  0  0  0  0  0  0  0  0  0
    1.8005   -8.5043   33.0244 C   0  0  0  0  0  0  0  0  0  0  0  0
    2.3907   -9.8555   32.5089 C   0  0  0  0  0  0  0  0  0  0  0  0
    3.1089   -9.7481   31.1598 C   0  0  0  0  0  0  0  0  0  0  0  0
    3.3292  -10.5077   33.5416 C   0  0  0  0  0  0  0  0  0  0  0  0
    1.1946  -10.8236   32.3214 C   0  0  0  0  0  0  0  0  0  0  0  0
 10 11  1  0
 11  1  1  0
  1  2  2  0
  2  3  1  0
  3  4  2  0
  4  5  1  0
  5  6  2  0
  5  7  1  0
  7  8  2  0
  8 12  1  0
 12 13  1  0
 13 15  1  0
 15 16  2  0
 15 17  2  0
 15 18  1  0
 18 19  2  0
 19 20  1  0
 20 21  2  0
 21 22  1  0
 22 23  2  0
 23 24  1  0
 24 25  2  0
 25 26  1  0
  8  9  1  0
  9 27  1  0
 27 28  1  0
 28 29  1  0
 29 30  1  0
 29 31  1  0
 29 32  1  0
 32 33  1  0
 33 34  1  0
 33 35  1  0
 33 36  1  0
  6  1  1  0
 26 18  1  0
  9  4  1  0
 25 20  1  0
 13 14  1  0
M  END
> <minimizedAffinity>
-8.85358

> <CNNscore>
0.2908654809

> <CNNaffinity>
5.9924063683

> <CNN_VS>
1.7429841757

> <CNNaffinity_variance>
0.9813227654

$$$$



 36 39  0  0  0  0  0  0  0  0999 V2000
   -1.3737   -8.4016   40.7025 C   0  0  0  0  0  0  0  0  0  0  0  0
   -1.5917   -8.1343   39.3517 C   0  0  0  0  0  0  0  0  0  0  0  0
   -0.9980   -8.9043   38.3458 C   0  0  0  0  0  0  0  0  0  0  0  0
   -0.1676   -9.9667   38.7342 C   0  0  0  0  0  0  0  0  0  0  0  0
    0.0685  -10.2551   40.0780 C   0  0  0  0  0  0  0  0  0  0  0  0
   -0.5434   -9.4637   41.0750 C   0  0  0  0  0  0  0  0  0  0  0  0
    0.9448  -11.3698   40.1182 C   0  0  0  0  0  0  0  0  0  0  0  0
    1.2356  -11.7470   38.8196 C   0  0  0  0  0  0  0  0  0  0  0  0
    0.5493  -10.8864   37.9857 N   0  0  0  0  0  0  0  0  0  0  0  0
   -2.8945   -6.5943   40.9780 C   0  0  0  0  0  0  0  0  0  0  0  0
   -2.0252   -7.5565   41.5612 O   0  0  0  0  0  0  0  0  0  0  0  0
    2.1121  -12.8586   38.3497 C   0  0  0  0  0  0  0  0  0  0  0  0
    3.1187  -12.2557   37.4796 N   0  0  0  0  0  0  0  0  0  0  0  0
    3.6236  -11.5554   38.0228 H   0  0  0  0  0  0  0  0  0  0  0  0
    4.2490  -13.3170   36.8267 S   0  0  0  0  0  0  0  0  0  0  0  0
    4.9164  -13.9642   37.9328 O   0  0  0  0  0  0  0  0  0  0  0  0
    4.9822  -12.6163   35.7944 O   0  0  0  0  0  0  0  0  0  0  0  0
    3.3605  -14.6145   35.9752 C   0  0  0  0  0  0  0  0  0  0  0  0
    2.0313  -14.6897   35.5719 C   0  0  0  0  0  0  0  0  0  0  0  0
    1.8420  -15.9341   34.9233 C   0  0  0  0  0  0  0  0  0  0  0  0
    0.7666  -16.5957   34.3064 C   0  0  0  0  0  0  0  0  0  0  0  0
    0.9881  -17.8643   33.7507 C   0  0  0  0  0  0  0  0  0  0  0  0
    2.2497  -18.4626   33.8016 C   0  0  0  0  0  0  0  0  0  0  0  0
    3.3310  -17.8180   34.4109 C   0  0  0  0  0  0  0  0  0  0  0  0
    3.0770  -16.5630   34.9591 C   0  0  0  0  0  0  0  0  0  0  0  0
    3.9858  -15.7886   35.6057 O   0  0  0  0  0  0  0  0  0  0  0  0
    0.5609  -10.9166   36.5235 C   0  0  0  0  0  0  0  0  0  0  0  0
    0.0668   -9.5892   35.9343 C   0  0  0  0  0  0  0  0  0  0  0  0
    1.1454   -8.6594   35.2787 C   0  0  0  0  0  0  0  0  0  0  0  0
    1.8774   -7.8794   36.3778 C   0  0  0  0  0  0  0  0  0  0  0  0
    0.4405   -7.6646   34.3394 C   0  0  0  0  0  0  0  0  0  0  0  0
    2.0961   -9.6134   34.4724 C   0  0  0  0  0  0  0  0  0  0  0  0
    1.9020   -9.9797   32.9665 C   0  0  0  0  0  0  0  0  0  0  0  0
    3.1519  -10.5647   32.3008 C   0  0  0  0  0  0  0  0  0  0  0  0
    0.7106  -10.9322   32.7522 C   0  0  0  0  0  0  0  0  0  0  0  0
    1.5565   -8.6621   32.2265 C   0  0  0  0  0  0  0  0  0  0  0  0
 10 11  1  0
 11  1  1  0
  1  2  2  0
  2  3  1  0
  3  4  2  0
  4  5  1  0
  5  6  2  0
  5  7  1  0
  7  8  2  0
  8 12  1  0
 12 13  1  0
 13 15  1  0
 15 16  2  0
 15 17  2  0
 15 18  1  0
 18 19  2  0
 19 20  1  0
 20 21  2  0
 21 22  1  0
 22 23  2  0
 23 24  1  0
 24 25  2  0
 25 26  1  0
  8  9  1  0
  9 27  1  0
 27 28  1  0
 28 29  1  0
 29 30  1  0
 29 31  1  0
 29 32  1  0
 32 33  1  0
 33 34  1  0
 33 35  1  0
 33 36  1  0
  6  1  1  0
 26 18  1  0
  9  4  1  0
 25 20  1  0
 13 14  1  0
M  END
> <minimizedAffinity>
-8.89100

> <CNNscore>
0.2724906206

> <CNNaffinity>
5.9471859932

> <CNN_VS>
1.6205524206

> <CNNaffinity_variance>
1.3097838163

$$$$



 36 39  0  0  0  0  0  0  0  0999 V2000
   -1.3466   -8.5072   40.5426 C   0  0  0  0  0  0  0  0  0  0  0  0
   -0.5955   -9.5011   41.1684 C   0  0  0  0  0  0  0  0  0  0  0  0
    0.1643  -10.4187   40.4349 C   0  0  0  0  0  0  0  0  0  0  0  0
    0.1528  -10.3127   39.0357 C   0  0  0  0  0  0  0  0  0  0  0  0
   -0.5907   -9.3291   38.3841 C   0  0  0  0  0  0  0  0  0  0  0  0
   -1.3488   -8.4137   39.1471 C   0  0  0  0  0  0  0  0  0  0  0  0
   -0.3874   -9.5058   36.9915 C   0  0  0  0  0  0  0  0  0  0  0  0
    0.4629  -10.5807   36.8046 C   0  0  0  0  0  0  0  0  0  0  0  0
    0.7874  -11.0616   38.0578 N   0  0  0  0  0  0  0  0  0  0  0  0
   -2.6025   -6.5108   40.8455 C   0  0  0  0  0  0  0  0  0  0  0  0
   -2.0349   -7.6906   41.4000 O   0  0  0  0  0  0  0  0  0  0  0  0
    0.9667  -11.1542   35.5233 C   0  0  0  0  0  0  0  0  0  0  0  0
    0.4237  -10.3218   34.4527 N   0  0  0  0  0  0  0  0  0  0  0  0
   -0.3583   -9.7902   34.8351 H   0  0  0  0  0  0  0  0  0  0  0  0
    1.5003   -9.2309   33.7592 S   0  0  0  0  0  0  0  0  0  0  0  0
    2.8188   -9.5613   34.2492 O   0  0  0  0  0  0  0  0  0  0  0  0
    0.9447   -7.9015   33.8936 O   0  0  0  0  0  0  0  0  0  0  0  0
    1.5484   -9.5456   31.9995 C   0  0  0  0  0  0  0  0  0  0  0  0
    1.2828  -10.7048   31.2778 C   0  0  0  0  0  0  0  0  0  0  0  0
    1.4553  -10.4120   29.9032 C   0  0  0  0  0  0  0  0  0  0  0  0
    1.3406  -11.1265   28.6986 C   0  0  0  0  0  0  0  0  0  0  0  0
    1.5958  -10.4561   27.4933 C   0  0  0  0  0  0  0  0  0  0  0  0
    1.9529   -9.1054   27.4818 C   0  0  0  0  0  0  0  0  0  0  0  0
    2.0709   -8.3793   28.6713 C   0  0  0  0  0  0  0  0  0  0  0  0
    1.8178   -9.0749   29.8511 C   0  0  0  0  0  0  0  0  0  0  0  0
    1.8962   -8.5549   31.1030 O   0  0  0  0  0  0  0  0  0  0  0  0
    1.6675  -12.1950   38.3407 C   0  0  0  0  0  0  0  0  0  0  0  0
    2.6064  -12.4800   37.1615 C   0  0  0  0  0  0  0  0  0  0  0  0
    3.3098  -13.8809   37.1378 C   0  0  0  0  0  0  0  0  0  0  0  0
    2.8375  -14.7053   38.3417 C   0  0  0  0  0  0  0  0  0  0  0  0
    4.8320  -13.6753   37.2342 C   0  0  0  0  0  0  0  0  0  0  0  0
    2.9184  -14.5302   35.7634 C   0  0  0  0  0  0  0  0  0  0  0  0
    1.6011  -15.3317   35.5138 C   0  0  0  0  0  0  0  0  0  0  0  0
    1.8268  -16.7641   35.0190 C   0  0  0  0  0  0  0  0  0  0  0  0
    0.6932  -15.3535   36.7579 C   0  0  0  0  0  0  0  0  0  0  0  0
    0.8210  -14.5767   34.4073 C   0  0  0  0  0  0  0  0  0  0  0  0
 10 11  1  0
 11  1  1  0
  1  2  2  0
  2  3  1  0
  3  4  2  0
  4  5  1  0
  5  6  2  0
  5  7  1  0
  7  8  2  0
  8 12  1  0
 12 13  1  0
 13 15  1  0
 15 16  2  0
 15 17  2  0
 15 18  1  0
 18 19  2  0
 19 20  1  0
 20 21  2  0
 21 22  1  0
 22 23  2  0
 23 24  1  0
 24 25  2  0
 25 26  1  0
  8  9  1  0
  9 27  1  0
 27 28  1  0
 28 29  1  0
 29 30  1  0
 29 31  1  0
 29 32  1  0
 32 33  1  0
 33 34  1  0
 33 35  1  0
 33 36  1  0
  6  1  1  0
 26 18  1  0
  9  4  1  0
 25 20  1  0
 13 14  1  0
M  END
> <minimizedAffinity>
-9.86830

> <CNNscore>
0.2679420412

> <CNNaffinity>
6.2728562355

> <CNN_VS>
1.6807619333

> <CNNaffinity_variance>
1.1753270626

$$$$



 36 39  0  0  0  0  0  0  0  0999 V2000
   -0.8503   -9.0626   40.6539 C   0  0  0  0  0  0  0  0  0  0  0  0
   -1.0406   -8.5824   39.3590 C   0  0  0  0  0  0  0  0  0  0  0  0
   -0.4643   -9.2119   38.2504 C   0  0  0  0  0  0  0  0  0  0  0  0
    0.3194  -10.3538   38.4760 C   0  0  0  0  0  0  0  0  0  0  0  0
    0.5272  -10.8545   39.7609 C   0  0  0  0  0  0  0  0  0  0  0  0
   -0.0664  -10.2017   40.8638 C   0  0  0  0  0  0  0  0  0  0  0  0
    1.3592  -11.9964   39.6347 C   0  0  0  0  0  0  0  0  0  0  0  0
    1.6517  -12.1808   38.2954 C   0  0  0  0  0  0  0  0  0  0  0  0
    1.0098  -11.1755   37.5996 N   0  0  0  0  0  0  0  0  0  0  0  0
   -2.2464   -7.2164   41.1990 C   0  0  0  0  0  0  0  0  0  0  0  0
   -1.4795   -8.3341   41.6282 O   0  0  0  0  0  0  0  0  0  0  0  0
    2.4906  -13.2412   37.6658 C   0  0  0  0  0  0  0  0  0  0  0  0
    3.8750  -12.7831   37.7525 N   0  0  0  0  0  0  0  0  0  0  0  0
    3.8691  -11.8395   38.1396 H   0  0  0  0  0  0  0  0  0  0  0  0
    4.8970  -13.7245   38.7009 S   0  0  0  0  0  0  0  0  0  0  0  0
    4.6463  -15.1057   38.3586 O   0  0  0  0  0  0  0  0  0  0  0  0
    4.8144  -13.2467   40.0644 O   0  0  0  0  0  0  0  0  0  0  0  0
    6.5795  -13.3999   38.1892 C   0  0  0  0  0  0  0  0  0  0  0  0
    7.7887  -13.8444   38.7138 C   0  0  0  0  0  0  0  0  0  0  0  0
    8.8321  -13.3022   37.9249 C   0  0  0  0  0  0  0  0  0  0  0  0
   10.2358  -13.3686   37.9268 C   0  0  0  0  0  0  0  0  0  0  0  0
   10.9426  -12.6710   36.9363 C   0  0  0  0  0  0  0  0  0  0  0  0
   10.2722  -11.9270   35.9619 C   0  0  0  0  0  0  0  0  0  0  0  0
    8.8759  -11.8509   35.9448 C   0  0  0  0  0  0  0  0  0  0  0  0
    8.2037  -12.5487   36.9454 C   0  0  0  0  0  0  0  0  0  0  0  0
    6.8563  -12.5851   37.1097 O   0  0  0  0  0  0  0  0  0  0  0  0
    1.0387  -10.9812   36.1503 C   0  0  0  0  0  0  0  0  0  0  0  0
    0.3510   -9.6698   35.7496 C   0  0  0  0  0  0  0  0  0  0  0  0
    1.2252   -8.6145   34.9881 C   0  0  0  0  0  0  0  0  0  0  0  0
    1.9295   -7.7102   36.0070 C   0  0  0  0  0  0  0  0  0  0  0  0
    0.3073   -7.7545   34.1012 C   0  0  0  0  0  0  0  0  0  0  0  0
    2.2299   -9.4456   34.1141 C   0  0  0  0  0  0  0  0  0  0  0  0
    1.9672   -9.8645   32.6324 C   0  0  0  0  0  0  0  0  0  0  0  0
    0.8718  -10.9233   32.4685 C   0  0  0  0  0  0  0  0  0  0  0  0
    1.6500   -8.6523   31.7366 C   0  0  0  0  0  0  0  0  0  0  0  0
    3.2876  -10.4775   32.1000 C   0  0  0  0  0  0  0  0  0  0  0  0
 10 11  1  0
 11  1  1  0
  1  2  2  0
  2  3  1  0
  3  4  2  0
  4  5  1  0
  5  6  2  0
  5  7  1  0
  7  8  2  0
  8 12  1  0
 12 13  1  0
 13 15  1  0
 15 16  2  0
 15 17  2  0
 15 18  1  0
 18 19  2  0
 19 20  1  0
 20 21  2  0
 21 22  1  0
 22 23  2  0
 23 24  1  0
 24 25  2  0
 25 26  1  0
  8  9  1  0
  9 27  1  0
 27 28  1  0
 28 29  1  0
 29 30  1  0
 29 31  1  0
 29 32  1  0
 32 33  1  0
 33 34  1  0
 33 35  1  0
 33 36  1  0
  6  1  1  0
 26 18  1  0
  9  4  1  0
 25 20  1  0
 13 14  1  0
M  END
> <minimizedAffinity>
-9.81844

> <CNNscore>
0.1946040392

> <CNNaffinity>
5.9979376793

> <CNN_VS>
1.1672228575

> <CNNaffinity_variance>
0.8544910550

$$$$



 36 39  0  0  0  0  0  0  0  0999 V2000
   -0.7629   -9.0180   40.6490 C   0  0  0  0  0  0  0  0  0  0  0  0
   -0.7519   -8.4737   39.3656 C   0  0  0  0  0  0  0  0  0  0  0  0
   -0.0808   -9.0985   38.3088 C   0  0  0  0  0  0  0  0  0  0  0  0
    0.5890  -10.3025   38.5751 C   0  0  0  0  0  0  0  0  0  0  0  0
    0.5952  -10.8680   39.8499 C   0  0  0  0  0  0  0  0  0  0  0  0
   -0.0906  -10.2185   40.8999 C   0  0  0  0  0  0  0  0  0  0  0  0
    1.3583  -12.0613   39.7737 C   0  0  0  0  0  0  0  0  0  0  0  0
    1.8082  -12.2127   38.4744 C   0  0  0  0  0  0  0  0  0  0  0  0
    1.3302  -11.1364   37.7534 N   0  0  0  0  0  0  0  0  0  0  0  0
   -2.2089   -7.1797   41.0788 C   0  0  0  0  0  0  0  0  0  0  0  0
   -1.4624   -8.2853   41.5708 O   0  0  0  0  0  0  0  0  0  0  0  0
    2.6484  -13.3053   37.9042 C   0  0  0  0  0  0  0  0  0  0  0  0
    3.4074  -13.8706   39.0169 N   0  0  0  0  0  0  0  0  0  0  0  0
    3.3040  -14.8848   38.9836 H   0  0  0  0  0  0  0  0  0  0  0  0
    5.0526  -13.5191   39.0312 S   0  0  0  0  0  0  0  0  0  0  0  0
    5.7086  -14.5736   39.7696 O   0  0  0  0  0  0  0  0  0  0  0  0
    5.2128  -12.1245   39.3828 O   0  0  0  0  0  0  0  0  0  0  0  0
    5.6608  -13.6552   37.3551 C   0  0  0  0  0  0  0  0  0  0  0  0
    6.1933  -14.7418   36.6690 C   0  0  0  0  0  0  0  0  0  0  0  0
    6.5086  -14.3165   35.3557 C   0  0  0  0  0  0  0  0  0  0  0  0
    7.0542  -14.9138   34.2066 C   0  0  0  0  0  0  0  0  0  0  0  0
    7.2082  -14.1324   33.0522 C   0  0  0  0  0  0  0  0  0  0  0  0
    6.8256  -12.7887   33.0355 C   0  0  0  0  0  0  0  0  0  0  0  0
    6.2802  -12.1787   34.1698 C   0  0  0  0  0  0  0  0  0  0  0  0
    6.1467  -12.9793   35.3017 C   0  0  0  0  0  0  0  0  0  0  0  0
    5.6582  -12.5707   36.5008 O   0  0  0  0  0  0  0  0  0  0  0  0
    1.5588  -10.8868   36.3306 C   0  0  0  0  0  0  0  0  0  0  0  0
    0.6338   -9.7830   35.8022 C   0  0  0  0  0  0  0  0  0  0  0  0
    1.2970   -8.6552   34.9385 C   0  0  0  0  0  0  0  0  0  0  0  0
    1.9480   -7.6227   35.8670 C   0  0  0  0  0  0  0  0  0  0  0  0
    0.2065   -7.9630   34.1014 C   0  0  0  0  0  0  0  0  0  0  0  0
    2.3354   -9.3831   34.0134 C   0  0  0  0  0  0  0  0  0  0  0  0
    2.0321   -9.8598   32.5572 C   0  0  0  0  0  0  0  0  0  0  0  0
    0.9713  -10.9620   32.4699 C   0  0  0  0  0  0  0  0  0  0  0  0
    1.6363   -8.6900   31.6366 C   0  0  0  0  0  0  0  0  0  0  0  0
    3.3532  -10.4423   31.9929 C   0  0  0  0  0  0  0  0  0  0  0  0
 10 11  1  0
 11  1  1  0
  1  2  2  0
  2  3  1  0
  3  4  2  0
  4  5  1  0
  5  6  2  0
  5  7  1  0
  7  8  2  0
  8 12  1  0
 12 13  1  0
 13 15  1  0
 15 16  2  0
 15 17  2  0
 15 18  1  0
 18 19  2  0
 19 20  1  0
 20 21  2  0
 21 22  1  0
 22 23  2  0
 23 24  1  0
 24 25  2  0
 25 26  1  0
  8  9  1  0
  9 27  1  0
 27 28  1  0
 28 29  1  0
 29 30  1  0
 29 31  1  0
 29 32  1  0
 32 33  1  0
 33 34  1  0
 33 35  1  0
 33 36  1  0
  6  1  1  0
 26 18  1  0
  9  4  1  0
 25 20  1  0
 13 14  1  0
M  END
> <minimizedAffinity>
-9.18244

> <CNNscore>
0.1388477683

> <CNNaffinity>
5.8013482094

> <CNN_VS>
0.8055042624

> <CNNaffinity_variance>
0.9399273992

$$$$



 36 39  0  0  0  0  0  0  0  0999 V2000
   -0.9667   -8.8839   40.6674 C   0  0  0  0  0  0  0  0  0  0  0  0
   -1.1765   -8.4419   39.3619 C   0  0  0  0  0  0  0  0  0  0  0  0
   -0.6053   -9.0955   38.2647 C   0  0  0  0  0  0  0  0  0  0  0  0
    0.1936  -10.2222   38.5129 C   0  0  0  0  0  0  0  0  0  0  0  0
    0.4209  -10.6848   39.8088 C   0  0  0  0  0  0  0  0  0  0  0  0
   -0.1678  -10.0082   40.8998 C   0  0  0  0  0  0  0  0  0  0  0  0
    1.2642  -11.8206   39.7048 C   0  0  0  0  0  0  0  0  0  0  0  0
    1.5441  -12.0389   38.3679 C   0  0  0  0  0  0  0  0  0  0  0  0
    0.8835  -11.0603   37.6519 N   0  0  0  0  0  0  0  0  0  0  0  0
   -2.4245   -7.0749   41.1745 C   0  0  0  0  0  0  0  0  0  0  0  0
   -1.5933   -8.1355   41.6281 O   0  0  0  0  0  0  0  0  0  0  0  0
    2.3879  -13.1072   37.7584 C   0  0  0  0  0  0  0  0  0  0  0  0
    3.7712  -12.6461   37.8464 N   0  0  0  0  0  0  0  0  0  0  0  0
    4.1954  -13.0823   38.6650 H   0  0  0  0  0  0  0  0  0  0  0  0
    4.7413  -12.9910   36.5159 S   0  0  0  0  0  0  0  0  0  0  0  0
    6.1062  -12.7101   36.8978 O   0  0  0  0  0  0  0  0  0  0  0  0
    4.1344  -12.3908   35.3474 O   0  0  0  0  0  0  0  0  0  0  0  0
    4.6759  -14.7546   36.2273 C   0  0  0  0  0  0  0  0  0  0  0  0
    5.4234  -15.7917   36.7756 C   0  0  0  0  0  0  0  0  0  0  0  0
    4.9612  -17.0068   36.2143 C   0  0  0  0  0  0  0  0  0  0  0  0
    5.2873  -18.3671   36.3481 C   0  0  0  0  0  0  0  0  0  0  0  0
    4.5665  -19.3076   35.5977 C   0  0  0  0  0  0  0  0  0  0  0  0
    3.5412  -18.9087   34.7363 C   0  0  0  0  0  0  0  0  0  0  0  0
    3.2032  -17.5593   34.5918 C   0  0  0  0  0  0  0  0  0  0  0  0
    3.9419  -16.6500   35.3450 C   0  0  0  0  0  0  0  0  0  0  0  0
    3.7794  -15.3020   35.3314 O   0  0  0  0  0  0  0  0  0  0  0  0
    0.8945  -10.9059   36.1975 C   0  0  0  0  0  0  0  0  0  0  0  0
    0.3145   -9.5496   35.7763 C   0  0  0  0  0  0  0  0  0  0  0  0
    1.2186   -8.6416   34.8730 C   0  0  0  0  0  0  0  0  0  0  0  0
    1.9775   -7.6438   35.7564 C   0  0  0  0  0  0  0  0  0  0  0  0
    0.3221   -7.8653   33.8920 C   0  0  0  0  0  0  0  0  0  0  0  0
    2.1726   -9.6224   34.1036 C   0  0  0  0  0  0  0  0  0  0  0  0
    2.1039   -9.8894   32.5662 C   0  0  0  0  0  0  0  0  0  0  0  0
    1.6426   -8.6819   31.7434 C   0  0  0  0  0  0  0  0  0  0  0  0
    3.4422  -10.4108   32.0097 C   0  0  0  0  0  0  0  0  0  0  0  0
    1.0639  -11.0192   32.3543 C   0  0  0  0  0  0  0  0  0  0  0  0
 10 11  1  0
 11  1  1  0
  1  2  2  0
  2  3  1  0
  3  4  2  0
  4  5  1  0
  5  6  2  0
  5  7  1  0
  7  8  2  0
  8 12  1  0
 12 13  1  0
 13 15  1  0
 15 16  2  0
 15 17  2  0
 15 18  1  0
 18 19  2  0
 19 20  1  0
 20 21  2  0
 21 22  1  0
 22 23  2  0
 23 24  1  0
 24 25  2  0
 25 26  1  0
  8  9  1  0
  9 27  1  0
 27 28  1  0
 28 29  1  0
 29 30  1  0
 29 31  1  0
 29 32  1  0
 32 33  1  0
 33 34  1  0
 33 35  1  0
 33 36  1  0
  6  1  1  0
 26 18  1  0
  9  4  1  0
 25 20  1  0
 13 14  1  0
M  END
> <minimizedAffinity>
-8.87979

> <CNNscore>
0.1378996968

> <CNNaffinity>
5.3831825256

> <CNN_VS>
0.7423392534

> <CNNaffinity_variance>
1.5521874428

$$$$



 36 39  0  0  0  0  0  0  0  0999 V2000
   -0.7437   -9.1790   40.4116 C   0  0  0  0  0  0  0  0  0  0  0  0
   -1.0869   -8.8982   39.0898 C   0  0  0  0  0  0  0  0  0  0  0  0
   -0.6195   -9.6800   38.0279 C   0  0  0  0  0  0  0  0  0  0  0  0
    0.2133  -10.7686   38.3292 C   0  0  0  0  0  0  0  0  0  0  0  0
    0.5733  -11.0709   39.6422 C   0  0  0  0  0  0  0  0  0  0  0  0
    0.0875  -10.2670   40.6970 C   0  0  0  0  0  0  0  0  0  0  0  0
    1.4155  -12.2111   39.5923 C   0  0  0  0  0  0  0  0  0  0  0  0
    1.5643  -12.5898   38.2703 C   0  0  0  0  0  0  0  0  0  0  0  0
    0.8245  -11.7050   37.5109 N   0  0  0  0  0  0  0  0  0  0  0  0
   -2.1017   -7.2725   40.8312 C   0  0  0  0  0  0  0  0  0  0  0  0
   -1.2810   -8.3196   41.3328 O   0  0  0  0  0  0  0  0  0  0  0  0
    2.3562  -13.7243   37.7129 C   0  0  0  0  0  0  0  0  0  0  0  0
    2.0282  -13.8021   36.2915 N   0  0  0  0  0  0  0  0  0  0  0  0
    2.8929  -13.6842   35.7635 H   0  0  0  0  0  0  0  0  0  0  0  0
    1.3057  -15.2351   35.7868 S   0  0  0  0  0  0  0  0  0  0  0  0
    0.6126  -14.9523   34.5509 O   0  0  0  0  0  0  0  0  0  0  0  0
    0.6331  -15.8260   36.9237 O   0  0  0  0  0  0  0  0  0  0  0  0
    2.6045  -16.3867   35.3572 C   0  0  0  0  0  0  0  0  0  0  0  0
    3.9835  -16.2154   35.2916 C   0  0  0  0  0  0  0  0  0  0  0  0
    4.5592  -17.4522   34.9119 C   0  0  0  0  0  0  0  0  0  0  0  0
    5.8606  -17.9292   34.6805 C   0  0  0  0  0  0  0  0  0  0  0  0
    6.0281  -19.2725   34.3134 C   0  0  0  0  0  0  0  0  0  0  0  0
    4.9296  -20.1259   34.1826 C   0  0  0  0  0  0  0  0  0  0  0  0
    3.6278  -19.6679   34.4099 C   0  0  0  0  0  0  0  0  0  0  0  0
    3.4944  -18.3280   34.7660 C   0  0  0  0  0  0  0  0  0  0  0  0
    2.3197  -17.6923   35.0102 O   0  0  0  0  0  0  0  0  0  0  0  0
    0.6896  -11.7278   36.0548 C   0  0  0  0  0  0  0  0  0  0  0  0
    1.9190  -11.1158   35.3711 C   0  0  0  0  0  0  0  0  0  0  0  0
    1.6579  -10.2259   34.1072 C   0  0  0  0  0  0  0  0  0  0  0  0
    0.1468  -10.1143   33.8697 C   0  0  0  0  0  0  0  0  0  0  0  0
    2.3118  -10.8938   32.8844 C   0  0  0  0  0  0  0  0  0  0  0  0
    2.3301   -8.8414   34.4154 C   0  0  0  0  0  0  0  0  0  0  0  0
    1.7167   -7.7573   35.3578 C   0  0  0  0  0  0  0  0  0  0  0  0
    0.2291   -7.4858   35.1110 C   0  0  0  0  0  0  0  0  0  0  0  0
    1.9396   -8.0911   36.8449 C   0  0  0  0  0  0  0  0  0  0  0  0
    2.4811   -6.4378   35.0789 C   0  0  0  0  0  0  0  0  0  0  0  0
 10 11  1  0
 11  1  1  0
  1  2  2  0
  2  3  1  0
  3  4  2  0
  4  5  1  0
  5  6  2  0
  5  7  1  0
  7  8  2  0
  8 12  1  0
 12 13  1  0
 13 15  1  0
 15 16  2  0
 15 17  2  0
 15 18  1  0
 18 19  2  0
 19 20  1  0
 20 21  2  0
 21 22  1  0
 22 23  2  0
 23 24  1  0
 24 25  2  0
 25 26  1  0
  8  9  1  0
  9 27  1  0
 27 28  1  0
 28 29  1  0
 29 30  1  0
 29 31  1  0
 29 32  1  0
 32 33  1  0
 33 34  1  0
 33 35  1  0
 33 36  1  0
  6  1  1  0
 26 18  1  0
  9  4  1  0
 25 20  1  0
 13 14  1  0
M  END
> <minimizedAffinity>
-7.11118

> <CNNscore>
0.1289989650

> <CNNaffinity>
5.4172949791

> <CNN_VS>
0.6988254189

> <CNNaffinity_variance>
1.1119577885

$$$$
