


 39 42  0  0  0  0  0  0  0  0999 V2000
   19.1757   18.7704   33.5064 C   0  0  0  0  0  0  0  0  0  0  0  0
   18.6768   17.6686   32.8188 C   0  0  0  0  0  0  0  0  0  0  0  0
   19.5352   16.6254   32.4788 C   0  0  0  0  0  0  0  0  0  0  0  0
   20.8969   16.6683   32.8208 C   0  0  0  0  0  0  0  0  0  0  0  0
   21.7229   15.5893   32.4887 C   0  0  0  0  0  0  0  0  0  0  0  0
   23.0712   15.5896   32.8438 C   0  0  0  0  0  0  0  0  0  0  0  0
   23.6164   16.6989   33.4944 C   0  0  0  0  0  0  0  0  0  0  0  0
   22.8286   17.8114   33.8291 C   0  0  0  0  0  0  0  0  0  0  0  0
   21.4332   17.7891   33.5118 C   0  0  0  0  0  0  0  0  0  0  0  0
   20.5319   18.8277   33.8546 C   0  0  0  0  0  0  0  0  0  0  0  0
   16.9695   19.7283   33.9246 N   0  0  0  0  0  0  0  0  0  0  0  0
   18.2553   19.8734   33.8872 C   0  0  0  0  0  0  0  0  0  0  0  0
   18.7526   21.1001   34.2082 N   0  0  0  0  0  0  0  0  0  0  0  0
   16.3959   20.4858   34.1824 H   0  0  0  0  0  0  0  0  0  0  0  0
   18.1406   21.8289   34.4601 H   0  0  0  0  0  0  0  0  0  0  0  0
   19.7242   21.2579   34.1884 H   0  0  0  0  0  0  0  0  0  0  0  0
   23.9026   14.4033   32.4928 C   0  0  0  0  0  0  0  0  0  0  0  0
   23.8086   13.4048   33.1962 O   0  0  0  0  0  0  0  0  0  0  0  0
   24.7394   14.5806   31.4056 N   0  0  0  0  0  0  0  0  0  0  0  0
   24.7256   15.4708   30.9853 H   0  0  0  0  0  0  0  0  0  0  0  0
   25.6103   13.6318   30.8304 C   0  0  0  0  0  0  0  0  0  0  0  0
   26.3368   13.8468   29.6597 C   0  0  0  0  0  0  0  0  0  0  0  0
   27.1844   12.8528   29.1561 C   0  0  0  0  0  0  0  0  0  0  0  0
   27.3179   11.6240   29.8140 C   0  0  0  0  0  0  0  0  0  0  0  0
   26.5985   11.4139   30.9956 C   0  0  0  0  0  0  0  0  0  0  0  0
   25.7510   12.4078   31.4959 C   0  0  0  0  0  0  0  0  0  0  0  0
   28.2520   10.5680   29.2834 C   0  0  0  0  0  0  0  0  0  0  0  0
   27.9804   10.2790   27.8804 N   0  0  0  0  0  0  0  0  0  0  0  0
   27.0264    9.9311   27.7835 H   0  0  0  0  0  0  0  0  0  0  0  0
   28.6356    9.5725   27.5458 H   0  0  0  0  0  0  0  0  0  0  0  0
   23.3790   18.9023   34.5308 N   0  0  0  0  0  0  0  0  0  0  0  0
   23.2993   19.7561   34.0472 H   0  0  0  0  0  0  0  0  0  0  0  0
   24.0116   19.0260   35.7643 C   0  0  0  0  0  0  0  0  0  0  0  0
   24.6745   20.1814   35.9480 N   0  0  0  0  0  0  0  0  0  0  0  0
   25.2892   20.3637   37.1397 C   0  0  0  0  0  0  0  0  0  0  0  0
   25.2630   19.4421   38.1554 C   0  0  0  0  0  0  0  0  0  0  0  0
   26.0473   19.6996   39.6500 Cl  0  0  0  0  0  0  0  0  0  0  0  0
   24.5578   18.2977   37.8806 C   0  0  0  0  0  0  0  0  0  0  0  0
   23.9271   18.0686   36.7054 N   0  0  0  0  0  0  0  0  0  0  0  0
 11 12  2  0
 12 13  1  0
 12  1  1  0
  1  2  2  0
  2  3  1  0
  3  4  2  0
  4  5  1  0
  5  6  2  0
  6 17  1  0
 17 18  2  0
 17 19  1  0
 19 21  1  0
 21 22  2  0
 22 23  1  0
 23 24  2  0
 24 27  1  0
 27 28  1  0
 24 25  1  0
 25 26  2  0
  6  7  1  0
  7  8  2  0
  8 31  1  0
 31 33  1  0
 33 34  2  0
 34 35  1  0
 35 36  2  0
 36 37  1  0
 36 38  1  0
 38 39  2  0
  8  9  1  0
  9 10  2  0
 10  1  1  0
  9  4  1  0
 26 21  1  0
 39 33  1  0
 11 14  1  0
 13 15  1  0
 13 16  1  0
 19 20  1  0
 28 29  1  0
 28 30  1  0
 31 32  1  0
M  END
> <minimizedAffinity>
-9.42846

> <CNNscore>
0.9651848078

> <CNNaffinity>
7.3717246056

> <CNN_VS>
7.1150765419

> <CNNaffinity_variance>
0.0530006401

$$$$



 39 42  0  0  0  0  0  0  0  0999 V2000
   19.1338   18.7741   33.6667 C   0  0  0  0  0  0  0  0  0  0  0  0
   18.6264   17.6131   33.0918 C   0  0  0  0  0  0  0  0  0  0  0  0
   19.4796   16.5401   32.8444 C   0  0  0  0  0  0  0  0  0  0  0  0
   20.8446   16.6117   33.1679 C   0  0  0  0  0  0  0  0  0  0  0  0
   21.6655   15.5039   32.9320 C   0  0  0  0  0  0  0  0  0  0  0  0
   23.0172   15.5344   33.2726 C   0  0  0  0  0  0  0  0  0  0  0  0
   23.5706   16.6991   33.8095 C   0  0  0  0  0  0  0  0  0  0  0  0
   22.7880   17.8405   34.0443 C   0  0  0  0  0  0  0  0  0  0  0  0
   21.3896   17.7918   33.7439 C   0  0  0  0  0  0  0  0  0  0  0  0
   20.4934   18.8606   33.9949 C   0  0  0  0  0  0  0  0  0  0  0  0
   16.9312   19.7815   33.9726 N   0  0  0  0  0  0  0  0  0  0  0  0
   18.2190   19.9107   33.9496 C   0  0  0  0  0  0  0  0  0  0  0  0
   18.7242   21.1523   34.1911 N   0  0  0  0  0  0  0  0  0  0  0  0
   16.3616   20.5612   34.1643 H   0  0  0  0  0  0  0  0  0  0  0  0
   18.1159   21.9034   34.3782 H   0  0  0  0  0  0  0  0  0  0  0  0
   19.6977   21.2987   34.1786 H   0  0  0  0  0  0  0  0  0  0  0  0
   23.8431   14.3179   33.0282 C   0  0  0  0  0  0  0  0  0  0  0  0
   25.0049   14.4718   32.6715 O   0  0  0  0  0  0  0  0  0  0  0  0
   23.1758   13.1180   33.1979 N   0  0  0  0  0  0  0  0  0  0  0  0
   22.2229   13.1792   33.4377 H   0  0  0  0  0  0  0  0  0  0  0  0
   23.7046   11.8170   33.0665 C   0  0  0  0  0  0  0  0  0  0  0  0
   24.7025   11.4674   32.1574 C   0  0  0  0  0  0  0  0  0  0  0  0
   25.1764   10.1516   32.0930 C   0  0  0  0  0  0  0  0  0  0  0  0
   24.6577    9.1610   32.9356 C   0  0  0  0  0  0  0  0  0  0  0  0
   23.6656    9.5155   33.8565 C   0  0  0  0  0  0  0  0  0  0  0  0
   23.1925   10.8303   33.9179 C   0  0  0  0  0  0  0  0  0  0  0  0
   25.1901    7.7528   32.8817 C   0  0  0  0  0  0  0  0  0  0  0  0
   25.3540    7.3024   31.5048 N   0  0  0  0  0  0  0  0  0  0  0  0
   24.4496    7.3139   31.0333 H   0  0  0  0  0  0  0  0  0  0  0  0
   25.7281    6.3535   31.4997 H   0  0  0  0  0  0  0  0  0  0  0  0
   23.3471   18.9918   34.6338 N   0  0  0  0  0  0  0  0  0  0  0  0
   23.2150   19.8067   34.0974 H   0  0  0  0  0  0  0  0  0  0  0  0
   24.0468   19.2185   35.8153 C   0  0  0  0  0  0  0  0  0  0  0  0
   23.9723   18.2243   36.7178 N   0  0  0  0  0  0  0  0  0  0  0  0
   24.6536   18.3830   37.8762 C   0  0  0  0  0  0  0  0  0  0  0  0
   25.4096   19.4903   38.1660 C   0  0  0  0  0  0  0  0  0  0  0  0
   26.2600   19.6631   39.6364 Cl  0  0  0  0  0  0  0  0  0  0  0  0
   25.4322   20.4488   37.1844 C   0  0  0  0  0  0  0  0  0  0  0  0
   24.7680   20.3370   36.0107 N   0  0  0  0  0  0  0  0  0  0  0  0
 11 12  2  0
 12 13  1  0
 12  1  1  0
  1  2  2  0
  2  3  1  0
  3  4  2  0
  4  5  1  0
  5  6  2  0
  6 17  1  0
 17 18  2  0
 17 19  1  0
 19 21  1  0
 21 22  2  0
 22 23  1  0
 23 24  2  0
 24 27  1  0
 27 28  1  0
 24 25  1  0
 25 26  2  0
  6  7  1  0
  7  8  2  0
  8 31  1  0
 31 33  1  0
 33 34  2  0
 34 35  1  0
 35 36  2  0
 36 37  1  0
 36 38  1  0
 38 39  2  0
  8  9  1  0
  9 10  2  0
 10  1  1  0
  9  4  1  0
 26 21  1  0
 39 33  1  0
 11 14  1  0
 13 15  1  0
 13 16  1  0
 19 20  1  0
 28 29  1  0
 28 30  1  0
 31 32  1  0
M  END
> <minimizedAffinity>
-10.07330

> <CNNscore>
0.9334728718

> <CNNaffinity>
7.2599549294

> <CNN_VS>
6.7769708633

> <CNNaffinity_variance>
0.1746815294

$$$$



 39 42  0  0  0  0  0  0  0  0999 V2000
   26.9165    9.8837   30.5390 C   0  0  0  0  0  0  0  0  0  0  0  0
   27.2837   11.1221   30.0220 C   0  0  0  0  0  0  0  0  0  0  0  0
   26.6305   12.2709   30.4627 C   0  0  0  0  0  0  0  0  0  0  0  0
   25.6075   12.1983   31.4224 C   0  0  0  0  0  0  0  0  0  0  0  0
   24.9939   13.3758   31.8628 C   0  0  0  0  0  0  0  0  0  0  0  0
   23.9981   13.3377   32.8380 C   0  0  0  0  0  0  0  0  0  0  0  0
   23.5725   12.1082   33.3462 C   0  0  0  0  0  0  0  0  0  0  0  0
   24.1467   10.9009   32.9182 C   0  0  0  0  0  0  0  0  0  0  0  0
   25.2052   10.9434   31.9561 C   0  0  0  0  0  0  0  0  0  0  0  0
   25.8976    9.7952   31.4970 C   0  0  0  0  0  0  0  0  0  0  0  0
   27.0138    7.6533   29.5512 N   0  0  0  0  0  0  0  0  0  0  0  0
   27.6278    8.6607   30.0839 C   0  0  0  0  0  0  0  0  0  0  0  0
   28.9788    8.5618   30.2257 N   0  0  0  0  0  0  0  0  0  0  0  0
   27.5239    6.8620   29.2633 H   0  0  0  0  0  0  0  0  0  0  0  0
   29.4474    7.7505   29.9233 H   0  0  0  0  0  0  0  0  0  0  0  0
   29.4867    9.3016   30.6305 H   0  0  0  0  0  0  0  0  0  0  0  0
   23.3960   14.6224   33.2947 C   0  0  0  0  0  0  0  0  0  0  0  0
   24.0861   15.3736   33.9731 O   0  0  0  0  0  0  0  0  0  0  0  0
   22.0763   14.8103   32.9247 N   0  0  0  0  0  0  0  0  0  0  0  0
   21.6559   14.0762   32.4211 H   0  0  0  0  0  0  0  0  0  0  0  0
   21.2643   15.9335   33.1864 C   0  0  0  0  0  0  0  0  0  0  0  0
   19.8721   15.8923   33.2545 C   0  0  0  0  0  0  0  0  0  0  0  0
   19.1387   17.0540   33.5238 C   0  0  0  0  0  0  0  0  0  0  0  0
   19.7856   18.2790   33.7269 C   0  0  0  0  0  0  0  0  0  0  0  0
   21.1833   18.3170   33.6714 C   0  0  0  0  0  0  0  0  0  0  0  0
   21.9138   17.1555   33.4005 C   0  0  0  0  0  0  0  0  0  0  0  0
   18.9938   19.5208   34.0436 C   0  0  0  0  0  0  0  0  0  0  0  0
   17.5654   19.2994   33.8534 N   0  0  0  0  0  0  0  0  0  0  0  0
   17.3862   19.0530   32.8800 H   0  0  0  0  0  0  0  0  0  0  0  0
   17.0552   20.1509   34.0881 H   0  0  0  0  0  0  0  0  0  0  0  0
   23.7442    9.6711   33.4759 N   0  0  0  0  0  0  0  0  0  0  0  0
   22.7760    9.5087   33.4020 H   0  0  0  0  0  0  0  0  0  0  0  0
   24.4283    8.6378   34.1093 C   0  0  0  0  0  0  0  0  0  0  0  0
   24.7650    8.8813   35.3882 N   0  0  0  0  0  0  0  0  0  0  0  0
   25.4123    7.9002   36.0590 C   0  0  0  0  0  0  0  0  0  0  0  0
   25.7306    6.6859   35.5061 C   0  0  0  0  0  0  0  0  0  0  0  0
   26.5472    5.4655   36.3772 Cl  0  0  0  0  0  0  0  0  0  0  0  0
   25.3420    6.5249   34.2000 C   0  0  0  0  0  0  0  0  0  0  0  0
   24.6938    7.4751   33.4871 N   0  0  0  0  0  0  0  0  0  0  0  0
 11 12  2  0
 12 13  1  0
 12  1  1  0
  1  2  2  0
  2  3  1  0
  3  4  2  0
  4  5  1  0
  5  6  2  0
  6 17  1  0
 17 18  2  0
 17 19  1  0
 19 21  1  0
 21 22  2  0
 22 23  1  0
 23 24  2  0
 24 27  1  0
 27 28  1  0
 24 25  1  0
 25 26  2  0
  6  7  1  0
  7  8  2  0
  8 31  1  0
 31 33  1  0
 33 34  2  0
 34 35  1  0
 35 36  2  0
 36 37  1  0
 36 38  1  0
 38 39  2  0
  8  9  1  0
  9 10  2  0
 10  1  1  0
  9  4  1  0
 26 21  1  0
 39 33  1  0
 11 14  1  0
 13 15  1  0
 13 16  1  0
 19 20  1  0
 28 29  1  0
 28 30  1  0
 31 32  1  0
M  END
> <minimizedAffinity>
-9.21877

> <CNNscore>
0.6371212006

> <CNNaffinity>
6.7554740906

> <CNN_VS>
4.3040556908

> <CNNaffinity_variance>
0.0078666629

$$$$



 39 42  0  0  0  0  0  0  0  0999 V2000
   27.4322   11.5350   29.8151 C   0  0  0  0  0  0  0  0  0  0  0  0
   27.4238   12.6386   28.9679 C   0  0  0  0  0  0  0  0  0  0  0  0
   26.5576   13.6978   29.2291 C   0  0  0  0  0  0  0  0  0  0  0  0
   25.6932   13.6694   30.3358 C   0  0  0  0  0  0  0  0  0  0  0  0
   24.8580   14.7640   30.5834 C   0  0  0  0  0  0  0  0  0  0  0  0
   24.0129   14.7778   31.6923 C   0  0  0  0  0  0  0  0  0  0  0  0
   23.9619   13.6679   32.5388 C   0  0  0  0  0  0  0  0  0  0  0  0
   24.7679   12.5403   32.3167 C   0  0  0  0  0  0  0  0  0  0  0  0
   25.6737   12.5473   31.2087 C   0  0  0  0  0  0  0  0  0  0  0  0
   26.5756   11.4920   30.9233 C   0  0  0  0  0  0  0  0  0  0  0  0
   29.4608   10.2401   30.2248 N   0  0  0  0  0  0  0  0  0  0  0  0
   28.3713   10.4145   29.5478 C   0  0  0  0  0  0  0  0  0  0  0  0
   28.1074    9.5226   28.5529 N   0  0  0  0  0  0  0  0  0  0  0  0
   30.0553    9.4840   30.0146 H   0  0  0  0  0  0  0  0  0  0  0  0
   28.7313    8.7813   28.3781 H   0  0  0  0  0  0  0  0  0  0  0  0
   27.2928    9.6192   28.0086 H   0  0  0  0  0  0  0  0  0  0  0  0
   23.1639   15.9799   31.9285 C   0  0  0  0  0  0  0  0  0  0  0  0
   23.5904   17.0681   31.5616 O   0  0  0  0  0  0  0  0  0  0  0  0
   21.9741   15.7311   32.5889 N   0  0  0  0  0  0  0  0  0  0  0  0
   21.8123   14.7984   32.8595 H   0  0  0  0  0  0  0  0  0  0  0  0
   20.9662   16.6610   32.9190 C   0  0  0  0  0  0  0  0  0  0  0  0
   21.1189   17.6769   33.8620 C   0  0  0  0  0  0  0  0  0  0  0  0
   20.0685   18.5632   34.1289 C   0  0  0  0  0  0  0  0  0  0  0  0
   18.8448   18.4466   33.4586 C   0  0  0  0  0  0  0  0  0  0  0  0
   18.6967   17.4351   32.5032 C   0  0  0  0  0  0  0  0  0  0  0  0
   19.7469   16.5498   32.2395 C   0  0  0  0  0  0  0  0  0  0  0  0
   17.7269   19.4195   33.7292 C   0  0  0  0  0  0  0  0  0  0  0  0
   18.2410   20.7637   33.9616 N   0  0  0  0  0  0  0  0  0  0  0  0
   18.8547   20.7569   34.7763 H   0  0  0  0  0  0  0  0  0  0  0  0
   17.4625   21.4015   34.1277 H   0  0  0  0  0  0  0  0  0  0  0  0
   24.7445   11.4481   33.2067 N   0  0  0  0  0  0  0  0  0  0  0  0
   24.4581   11.6935   34.1161 H   0  0  0  0  0  0  0  0  0  0  0  0
   25.0416   10.0954   33.0698 C   0  0  0  0  0  0  0  0  0  0  0  0
   26.0719    9.6628   33.8179 N   0  0  0  0  0  0  0  0  0  0  0  0
   26.3892    8.3495   33.7404 C   0  0  0  0  0  0  0  0  0  0  0  0
   25.7157    7.4518   32.9516 C   0  0  0  0  0  0  0  0  0  0  0  0
   26.1377    5.7992   32.8744 Cl  0  0  0  0  0  0  0  0  0  0  0  0
   24.6759    7.9816   32.2297 C   0  0  0  0  0  0  0  0  0  0  0  0
   24.3205    9.2866   32.2727 N   0  0  0  0  0  0  0  0  0  0  0  0
 11 12  2  0
 12 13  1  0
 12  1  1  0
  1  2  2  0
  2  3  1  0
  3  4  2  0
  4  5  1  0
  5  6  2  0
  6 17  1  0
 17 18  2  0
 17 19  1  0
 19 21  1  0
 21 22  2  0
 22 23  1  0
 23 24  2  0
 24 27  1  0
 27 28  1  0
 24 25  1  0
 25 26  2  0
  6  7  1  0
  7  8  2  0
  8 31  1  0
 31 33  1  0
 33 34  2  0
 34 35  1  0
 35 36  2  0
 36 37  1  0
 36 38  1  0
 38 39  2  0
  8  9  1  0
  9 10  2  0
 10  1  1  0
  9  4  1  0
 26 21  1  0
 39 33  1  0
 11 14  1  0
 13 15  1  0
 13 16  1  0
 19 20  1  0
 28 29  1  0
 28 30  1  0
 31 32  1  0
M  END
> <minimizedAffinity>
-8.41393

> <CNNscore>
0.5610553622

> <CNNaffinity>
7.0178527832

> <CNN_VS>
3.9374039173

> <CNNaffinity_variance>
0.0412894711

$$$$



 39 42  0  0  0  0  0  0  0  0999 V2000
   28.3503   13.0565   29.3604 C   0  0  0  0  0  0  0  0  0  0  0  0
   28.0270   14.3958   29.1668 C   0  0  0  0  0  0  0  0  0  0  0  0
   26.8885   14.9217   29.7734 C   0  0  0  0  0  0  0  0  0  0  0  0
   26.0625   14.1206   30.5789 C   0  0  0  0  0  0  0  0  0  0  0  0
   24.9435   14.6902   31.1958 C   0  0  0  0  0  0  0  0  0  0  0  0
   24.1237   13.9276   32.0267 C   0  0  0  0  0  0  0  0  0  0  0  0
   24.3921   12.5688   32.2075 C   0  0  0  0  0  0  0  0  0  0  0  0
   25.4926   11.9518   31.5920 C   0  0  0  0  0  0  0  0  0  0  0  0
   26.3644   12.7461   30.7814 C   0  0  0  0  0  0  0  0  0  0  0  0
   27.5360   12.2447   30.1613 C   0  0  0  0  0  0  0  0  0  0  0  0
   30.2613   13.1507   27.8441 N   0  0  0  0  0  0  0  0  0  0  0  0
   29.5763   12.5013   28.7300 C   0  0  0  0  0  0  0  0  0  0  0  0
   30.0191   11.2592   29.0711 N   0  0  0  0  0  0  0  0  0  0  0  0
   31.0680   12.7454   27.4515 H   0  0  0  0  0  0  0  0  0  0  0  0
   30.8316   10.8939   28.6519 H   0  0  0  0  0  0  0  0  0  0  0  0
   29.5267   10.7267   29.7369 H   0  0  0  0  0  0  0  0  0  0  0  0
   22.9604   14.5883   32.6838 C   0  0  0  0  0  0  0  0  0  0  0  0
   22.3346   13.9522   33.5232 O   0  0  0  0  0  0  0  0  0  0  0  0
   22.6857   15.8666   32.2318 N   0  0  0  0  0  0  0  0  0  0  0  0
   23.2623   16.2071   31.5101 H   0  0  0  0  0  0  0  0  0  0  0  0
   21.6740   16.7377   32.6868 C   0  0  0  0  0  0  0  0  0  0  0  0
   20.3175   16.5726   32.4088 C   0  0  0  0  0  0  0  0  0  0  0  0
   19.3746   17.4819   32.9029 C   0  0  0  0  0  0  0  0  0  0  0  0
   19.7729   18.5750   33.6820 C   0  0  0  0  0  0  0  0  0  0  0  0
   21.1328   18.7326   33.9714 C   0  0  0  0  0  0  0  0  0  0  0  0
   22.0732   17.8239   33.4753 C   0  0  0  0  0  0  0  0  0  0  0  0
   18.7520   19.5352   34.2342 C   0  0  0  0  0  0  0  0  0  0  0  0
   17.4254   19.2647   33.6934 N   0  0  0  0  0  0  0  0  0  0  0  0
   17.4427   19.3744   32.6795 H   0  0  0  0  0  0  0  0  0  0  0  0
   16.7545   19.9197   34.0949 H   0  0  0  0  0  0  0  0  0  0  0  0
   25.7819   10.5923   31.8232 N   0  0  0  0  0  0  0  0  0  0  0  0
   26.1890   10.1438   31.0471 H   0  0  0  0  0  0  0  0  0  0  0  0
   25.6130    9.7506   32.9186 C   0  0  0  0  0  0  0  0  0  0  0  0
   25.0660    8.5552   32.6357 N   0  0  0  0  0  0  0  0  0  0  0  0
   24.9001    7.6882   33.6615 C   0  0  0  0  0  0  0  0  0  0  0  0
   25.2637    7.9650   34.9549 C   0  0  0  0  0  0  0  0  0  0  0  0
   25.0434    6.8508   36.2297 Cl  0  0  0  0  0  0  0  0  0  0  0  0
   25.8192    9.2048   35.1473 C   0  0  0  0  0  0  0  0  0  0  0  0
   26.0052   10.1062   34.1552 N   0  0  0  0  0  0  0  0  0  0  0  0
 11 12  2  0
 12 13  1  0
 12  1  1  0
  1  2  2  0
  2  3  1  0
  3  4  2  0
  4  5  1  0
  5  6  2  0
  6 17  1  0
 17 18  2  0
 17 19  1  0
 19 21  1  0
 21 22  2  0
 22 23  1  0
 23 24  2  0
 24 27  1  0
 27 28  1  0
 24 25  1  0
 25 26  2  0
  6  7  1  0
  7  8  2  0
  8 31  1  0
 31 33  1  0
 33 34  2  0
 34 35  1  0
 35 36  2  0
 36 37  1  0
 36 38  1  0
 38 39  2  0
  8  9  1  0
  9 10  2  0
 10  1  1  0
  9  4  1  0
 26 21  1  0
 39 33  1  0
 11 14  1  0
 13 15  1  0
 13 16  1  0
 19 20  1  0
 28 29  1  0
 28 30  1  0
 31 32  1  0
M  END
> <minimizedAffinity>
-7.48145

> <CNNscore>
0.5097741485

> <CNNaffinity>
6.9045524597

> <CNN_VS>
3.5197622776

> <CNNaffinity_variance>
0.1221440807

$$$$



 39 42  0  0  0  0  0  0  0  0999 V2000
   27.2724    9.1107   32.1716 C   0  0  0  0  0  0  0  0  0  0  0  0
   26.4574    8.7589   33.2429 C   0  0  0  0  0  0  0  0  0  0  0  0
   25.4387    9.6210   33.6424 C   0  0  0  0  0  0  0  0  0  0  0  0
   25.2207   10.8397   32.9791 C   0  0  0  0  0  0  0  0  0  0  0  0
   24.1697   11.6667   33.3894 C   0  0  0  0  0  0  0  0  0  0  0  0
   23.9091   12.8669   32.7293 C   0  0  0  0  0  0  0  0  0  0  0  0
   24.7351   13.2736   31.6788 C   0  0  0  0  0  0  0  0  0  0  0  0
   25.8128   12.4845   31.2473 C   0  0  0  0  0  0  0  0  0  0  0  0
   26.0483   11.2277   31.8901 C   0  0  0  0  0  0  0  0  0  0  0  0
   27.0673   10.3233   31.4999 C   0  0  0  0  0  0  0  0  0  0  0  0
   28.8212    7.2521   32.4985 N   0  0  0  0  0  0  0  0  0  0  0  0
   28.3457    8.1811   31.7325 C   0  0  0  0  0  0  0  0  0  0  0  0
   28.8764    8.2894   30.4829 N   0  0  0  0  0  0  0  0  0  0  0  0
   29.5326    6.6575   32.1675 H   0  0  0  0  0  0  0  0  0  0  0  0
   29.5873    7.6723   30.1948 H   0  0  0  0  0  0  0  0  0  0  0  0
   28.5491    8.9849   29.8677 H   0  0  0  0  0  0  0  0  0  0  0  0
   22.7596   13.6984   33.1860 C   0  0  0  0  0  0  0  0  0  0  0  0
   21.9428   13.1873   33.9425 O   0  0  0  0  0  0  0  0  0  0  0  0
   22.7209   14.9770   32.6592 N   0  0  0  0  0  0  0  0  0  0  0  0
   23.4341   15.2073   32.0208 H   0  0  0  0  0  0  0  0  0  0  0  0
   21.7763   15.9884   32.9321 C   0  0  0  0  0  0  0  0  0  0  0  0
   21.9864   17.0306   33.8344 C   0  0  0  0  0  0  0  0  0  0  0  0
   20.9972   17.9988   34.0453 C   0  0  0  0  0  0  0  0  0  0  0  0
   19.7784   17.9394   33.3587 C   0  0  0  0  0  0  0  0  0  0  0  0
   19.5736   16.9006   32.4439 C   0  0  0  0  0  0  0  0  0  0  0  0
   20.5625   15.9336   32.2361 C   0  0  0  0  0  0  0  0  0  0  0  0
   18.7281   18.9986   33.5685 C   0  0  0  0  0  0  0  0  0  0  0  0
   17.5777   18.7813   32.6996 N   0  0  0  0  0  0  0  0  0  0  0  0
   17.8751   18.8234   31.7248 H   0  0  0  0  0  0  0  0  0  0  0  0
   16.8790   19.5038   32.8734 H   0  0  0  0  0  0  0  0  0  0  0  0
   26.6073   12.8814   30.1534 N   0  0  0  0  0  0  0  0  0  0  0  0
   26.7692   12.1567   29.5070 H   0  0  0  0  0  0  0  0  0  0  0  0
   27.2110   14.0831   29.7950 C   0  0  0  0  0  0  0  0  0  0  0  0
   26.7486   15.1657   30.4451 N   0  0  0  0  0  0  0  0  0  0  0  0
   27.3171   16.3581   30.1513 C   0  0  0  0  0  0  0  0  0  0  0  0
   28.3311   16.5109   29.2403 C   0  0  0  0  0  0  0  0  0  0  0  0
   29.0307   18.0286   28.8903 Cl  0  0  0  0  0  0  0  0  0  0  0  0
   28.7423   15.3518   28.6319 C   0  0  0  0  0  0  0  0  0  0  0  0
   28.2055   14.1369   28.8909 N   0  0  0  0  0  0  0  0  0  0  0  0
 11 12  2  0
 12 13  1  0
 12  1  1  0
  1  2  2  0
  2  3  1  0
  3  4  2  0
  4  5  1  0
  5  6  2  0
  6 17  1  0
 17 18  2  0
 17 19  1  0
 19 21  1  0
 21 22  2  0
 22 23  1  0
 23 24  2  0
 24 27  1  0
 27 28  1  0
 24 25  1  0
 25 26  2  0
  6  7  1  0
  7  8  2  0
  8 31  1  0
 31 33  1  0
 33 34  2  0
 34 35  1  0
 35 36  2  0
 36 37  1  0
 36 38  1  0
 38 39  2  0
  8  9  1  0
  9 10  2  0
 10  1  1  0
  9  4  1  0
 26 21  1  0
 39 33  1  0
 11 14  1  0
 13 15  1  0
 13 16  1  0
 19 20  1  0
 28 29  1  0
 28 30  1  0
 31 32  1  0
M  END
> <minimizedAffinity>
-7.16493

> <CNNscore>
0.4344583750

> <CNNaffinity>
6.9529585838

> <CNN_VS>
3.0207710266

> <CNNaffinity_variance>
0.5158666968

$$$$



 39 42  0  0  0  0  0  0  0  0999 V2000
   28.0650   11.9013   29.7027 C   0  0  0  0  0  0  0  0  0  0  0  0
   27.8378   13.2444   29.4194 C   0  0  0  0  0  0  0  0  0  0  0  0
   26.7481   13.8928   29.9962 C   0  0  0  0  0  0  0  0  0  0  0  0
   25.8758   13.2116   30.8610 C   0  0  0  0  0  0  0  0  0  0  0  0
   24.8089   13.9027   31.4450 C   0  0  0  0  0  0  0  0  0  0  0  0
   23.9458   13.2610   32.3324 C   0  0  0  0  0  0  0  0  0  0  0  0
   24.1166   11.9017   32.6046 C   0  0  0  0  0  0  0  0  0  0  0  0
   25.1616   11.1648   32.0255 C   0  0  0  0  0  0  0  0  0  0  0  0
   26.0792   11.8356   31.1558 C   0  0  0  0  0  0  0  0  0  0  0  0
   27.2035   11.2082   30.5635 C   0  0  0  0  0  0  0  0  0  0  0  0
   29.5294   11.2989   27.8446 N   0  0  0  0  0  0  0  0  0  0  0  0
   29.2396   11.2156   29.1035 C   0  0  0  0  0  0  0  0  0  0  0  0
   30.0593   10.4557   29.8818 N   0  0  0  0  0  0  0  0  0  0  0  0
   30.3175   10.8283   27.4887 H   0  0  0  0  0  0  0  0  0  0  0  0
   30.8366   10.0026   29.4821 H   0  0  0  0  0  0  0  0  0  0  0  0
   29.8745   10.3595   30.8440 H   0  0  0  0  0  0  0  0  0  0  0  0
   22.8418   14.0488   32.9505 C   0  0  0  0  0  0  0  0  0  0  0  0
   22.1994   13.5296   33.8552 O   0  0  0  0  0  0  0  0  0  0  0  0
   22.6345   15.2973   32.3919 N   0  0  0  0  0  0  0  0  0  0  0  0
   23.2126   15.5362   31.6317 H   0  0  0  0  0  0  0  0  0  0  0  0
   21.6896   16.2671   32.7870 C   0  0  0  0  0  0  0  0  0  0  0  0
   20.3454   16.2447   32.4165 C   0  0  0  0  0  0  0  0  0  0  0  0
   19.4700   17.2451   32.8557 C   0  0  0  0  0  0  0  0  0  0  0  0
   19.9251   18.2880   33.6716 C   0  0  0  0  0  0  0  0  0  0  0  0
   21.2711   18.3026   34.0536 C   0  0  0  0  0  0  0  0  0  0  0  0
   22.1442   17.3030   33.6122 C   0  0  0  0  0  0  0  0  0  0  0  0
   18.9736   19.3469   34.1642 C   0  0  0  0  0  0  0  0  0  0  0  0
   18.4304   20.1251   33.0575 N   0  0  0  0  0  0  0  0  0  0  0  0
   19.1914   20.5923   32.5645 H   0  0  0  0  0  0  0  0  0  0  0  0
   17.7806   20.8232   33.4194 H   0  0  0  0  0  0  0  0  0  0  0  0
   25.3540    9.8067   32.3479 N   0  0  0  0  0  0  0  0  0  0  0  0
   24.5123    9.3225   32.5104 H   0  0  0  0  0  0  0  0  0  0  0  0
   26.4842    9.0063   32.4849 C   0  0  0  0  0  0  0  0  0  0  0  0
   27.2323    9.2633   33.5723 N   0  0  0  0  0  0  0  0  0  0  0  0
   28.3316    8.4983   33.7666 C   0  0  0  0  0  0  0  0  0  0  0  0
   28.7091    7.4848   32.9227 C   0  0  0  0  0  0  0  0  0  0  0  0
   30.1015    6.5344   33.1935 Cl  0  0  0  0  0  0  0  0  0  0  0  0
   27.8827    7.2911   31.8446 C   0  0  0  0  0  0  0  0  0  0  0  0
   26.7738    8.0293   31.6067 N   0  0  0  0  0  0  0  0  0  0  0  0
 11 12  2  0
 12 13  1  0
 12  1  1  0
  1  2  2  0
  2  3  1  0
  3  4  2  0
  4  5  1  0
  5  6  2  0
  6 17  1  0
 17 18  2  0
 17 19  1  0
 19 21  1  0
 21 22  2  0
 22 23  1  0
 23 24  2  0
 24 27  1  0
 27 28  1  0
 24 25  1  0
 25 26  2  0
  6  7  1  0
  7  8  2  0
  8 31  1  0
 31 33  1  0
 33 34  2  0
 34 35  1  0
 35 36  2  0
 36 37  1  0
 36 38  1  0
 38 39  2  0
  8  9  1  0
  9 10  2  0
 10  1  1  0
  9  4  1  0
 26 21  1  0
 39 33  1  0
 11 14  1  0
 13 15  1  0
 13 16  1  0
 19 20  1  0
 28 29  1  0
 28 30  1  0
 31 32  1  0
M  END
> <minimizedAffinity>
-7.04762

> <CNNscore>
0.4189271629

> <CNNaffinity>
6.8115592003

> <CNN_VS>
2.8535470963

> <CNNaffinity_variance>
0.1923653036

$$$$



 39 42  0  0  0  0  0  0  0  0999 V2000
   27.9152   11.1299   34.9457 C   0  0  0  0  0  0  0  0  0  0  0  0
   28.2779   12.4731   34.9578 C   0  0  0  0  0  0  0  0  0  0  0  0
   27.3831   13.4299   34.4840 C   0  0  0  0  0  0  0  0  0  0  0  0
   26.1194   13.0595   33.9953 C   0  0  0  0  0  0  0  0  0  0  0  0
   25.2358   14.0504   33.5548 C   0  0  0  0  0  0  0  0  0  0  0  0
   23.9629   13.7154   33.0948 C   0  0  0  0  0  0  0  0  0  0  0  0
   23.5818   12.3734   33.0259 C   0  0  0  0  0  0  0  0  0  0  0  0
   24.4440   11.3455   33.4387 C   0  0  0  0  0  0  0  0  0  0  0  0
   25.7307   11.6923   33.9603 C   0  0  0  0  0  0  0  0  0  0  0  0
   26.6580   10.7448   34.4611 C   0  0  0  0  0  0  0  0  0  0  0  0
   30.1429   10.1977   35.3040 N   0  0  0  0  0  0  0  0  0  0  0  0
   28.8620   10.1116   35.4706 C   0  0  0  0  0  0  0  0  0  0  0  0
   28.3945    9.0291   36.1521 N   0  0  0  0  0  0  0  0  0  0  0  0
   30.7346    9.5004   35.6686 H   0  0  0  0  0  0  0  0  0  0  0  0
   29.0240    8.3561   36.4987 H   0  0  0  0  0  0  0  0  0  0  0  0
   27.4271    8.9195   36.2981 H   0  0  0  0  0  0  0  0  0  0  0  0
   23.0480   14.8104   32.6640 C   0  0  0  0  0  0  0  0  0  0  0  0
   23.0913   15.1712   31.4941 O   0  0  0  0  0  0  0  0  0  0  0  0
   22.2585   15.3383   33.6698 N   0  0  0  0  0  0  0  0  0  0  0  0
   22.3904   14.9626   34.5702 H   0  0  0  0  0  0  0  0  0  0  0  0
   21.2861   16.3534   33.5528 C   0  0  0  0  0  0  0  0  0  0  0  0
   21.5433   17.7088   33.7557 C   0  0  0  0  0  0  0  0  0  0  0  0
   20.5212   18.6553   33.6156 C   0  0  0  0  0  0  0  0  0  0  0  0
   19.2221   18.2616   33.2726 C   0  0  0  0  0  0  0  0  0  0  0  0
   18.9678   16.9027   33.0564 C   0  0  0  0  0  0  0  0  0  0  0  0
   19.9901   15.9588   33.1987 C   0  0  0  0  0  0  0  0  0  0  0  0
   18.1320   19.2862   33.0960 C   0  0  0  0  0  0  0  0  0  0  0  0
   17.7589   19.8857   34.3715 N   0  0  0  0  0  0  0  0  0  0  0  0
   17.4094   19.1610   34.9985 H   0  0  0  0  0  0  0  0  0  0  0  0
   17.0308   20.5836   34.2191 H   0  0  0  0  0  0  0  0  0  0  0  0
   24.0288    9.9993   33.4123 N   0  0  0  0  0  0  0  0  0  0  0  0
   23.1015    9.8720   33.7175 H   0  0  0  0  0  0  0  0  0  0  0  0
   24.6548    8.8117   33.0451 C   0  0  0  0  0  0  0  0  0  0  0  0
   25.1390    8.7905   31.7908 N   0  0  0  0  0  0  0  0  0  0  0  0
   25.7781    7.6673   31.3892 C   0  0  0  0  0  0  0  0  0  0  0  0
   25.9575    6.5689   32.1911 C   0  0  0  0  0  0  0  0  0  0  0  0
   26.7693    5.1647   31.6577 Cl  0  0  0  0  0  0  0  0  0  0  0  0
   25.4364    6.6837   33.4552 C   0  0  0  0  0  0  0  0  0  0  0  0
   24.7892    7.7845   33.9032 N   0  0  0  0  0  0  0  0  0  0  0  0
 11 12  2  0
 12 13  1  0
 12  1  1  0
  1  2  2  0
  2  3  1  0
  3  4  2  0
  4  5  1  0
  5  6  2  0
  6 17  1  0
 17 18  2  0
 17 19  1  0
 19 21  1  0
 21 22  2  0
 22 23  1  0
 23 24  2  0
 24 27  1  0
 27 28  1  0
 24 25  1  0
 25 26  2  0
  6  7  1  0
  7  8  2  0
  8 31  1  0
 31 33  1  0
 33 34  2  0
 34 35  1  0
 35 36  2  0
 36 37  1  0
 36 38  1  0
 38 39  2  0
  8  9  1  0
  9 10  2  0
 10  1  1  0
  9  4  1  0
 26 21  1  0
 39 33  1  0
 11 14  1  0
 13 15  1  0
 13 16  1  0
 19 20  1  0
 28 29  1  0
 28 30  1  0
 31 32  1  0
M  END
> <minimizedAffinity>
-7.95345

> <CNNscore>
0.3491687477

> <CNNaffinity>
6.3882598877

> <CNN_VS>
2.2305808067

> <CNNaffinity_variance>
0.1403173655

$$$$



 39 42  0  0  0  0  0  0  0  0999 V2000
   29.3681   14.7364   35.1282 C   0  0  0  0  0  0  0  0  0  0  0  0
   28.7477   15.8338   35.7170 C   0  0  0  0  0  0  0  0  0  0  0  0
   27.4022   16.0833   35.4560 C   0  0  0  0  0  0  0  0  0  0  0  0
   26.6617   15.2430   34.6085 C   0  0  0  0  0  0  0  0  0  0  0  0
   25.3052   15.5078   34.3927 C   0  0  0  0  0  0  0  0  0  0  0  0
   24.5372   14.6726   33.5822 C   0  0  0  0  0  0  0  0  0  0  0  0
   25.1375   13.5879   32.9387 C   0  0  0  0  0  0  0  0  0  0  0  0
   26.4999   13.2970   33.1112 C   0  0  0  0  0  0  0  0  0  0  0  0
   27.2764   14.1230   33.9846 C   0  0  0  0  0  0  0  0  0  0  0  0
   28.6425   13.8889   34.2803 C   0  0  0  0  0  0  0  0  0  0  0  0
   31.4612   13.5140   34.8376 N   0  0  0  0  0  0  0  0  0  0  0  0
   30.7980   14.4588   35.4235 C   0  0  0  0  0  0  0  0  0  0  0  0
   31.4637   15.2056   36.3476 N   0  0  0  0  0  0  0  0  0  0  0  0
   32.4077   13.3642   35.0631 H   0  0  0  0  0  0  0  0  0  0  0  0
   32.4109   15.0194   36.5412 H   0  0  0  0  0  0  0  0  0  0  0  0
   30.9978   15.9315   36.8221 H   0  0  0  0  0  0  0  0  0  0  0  0
   23.0895   14.9810   33.4073 C   0  0  0  0  0  0  0  0  0  0  0  0
   22.3089   14.0430   33.3006 O   0  0  0  0  0  0  0  0  0  0  0  0
   22.7855   16.3291   33.3439 N   0  0  0  0  0  0  0  0  0  0  0  0
   23.5472   16.9507   33.3952 H   0  0  0  0  0  0  0  0  0  0  0  0
   21.5089   16.9148   33.2140 C   0  0  0  0  0  0  0  0  0  0  0  0
   20.4995   16.4141   32.3924 C   0  0  0  0  0  0  0  0  0  0  0  0
   19.2561   17.0538   32.3233 C   0  0  0  0  0  0  0  0  0  0  0  0
   19.0015   18.2084   33.0733 C   0  0  0  0  0  0  0  0  0  0  0  0
   20.0105   18.7027   33.9074 C   0  0  0  0  0  0  0  0  0  0  0  0
   21.2525   18.0629   33.9735 C   0  0  0  0  0  0  0  0  0  0  0  0
   17.6531   18.8775   33.0166 C   0  0  0  0  0  0  0  0  0  0  0  0
   17.4254   19.7078   34.1932 N   0  0  0  0  0  0  0  0  0  0  0  0
   17.4516   19.1258   35.0304 H   0  0  0  0  0  0  0  0  0  0  0  0
   16.5130   20.1578   34.1203 H   0  0  0  0  0  0  0  0  0  0  0  0
   27.0820   12.1702   32.4972 N   0  0  0  0  0  0  0  0  0  0  0  0
   26.6838   11.9544   31.6231 H   0  0  0  0  0  0  0  0  0  0  0  0
   28.1018   11.2984   32.8674 C   0  0  0  0  0  0  0  0  0  0  0  0
   29.2461   11.4383   32.1752 N   0  0  0  0  0  0  0  0  0  0  0  0
   30.2789   10.6305   32.5100 C   0  0  0  0  0  0  0  0  0  0  0  0
   30.2160    9.6945   33.5109 C   0  0  0  0  0  0  0  0  0  0  0  0
   31.5361    8.6889   33.9126 Cl  0  0  0  0  0  0  0  0  0  0  0  0
   29.0123    9.6277   34.1662 C   0  0  0  0  0  0  0  0  0  0  0  0
   27.9509   10.4125   33.8683 N   0  0  0  0  0  0  0  0  0  0  0  0
 11 12  2  0
 12 13  1  0
 12  1  1  0
  1  2  2  0
  2  3  1  0
  3  4  2  0
  4  5  1  0
  5  6  2  0
  6 17  1  0
 17 18  2  0
 17 19  1  0
 19 21  1  0
 21 22  2  0
 22 23  1  0
 23 24  2  0
 24 27  1  0
 27 28  1  0
 24 25  1  0
 25 26  2  0
  6  7  1  0
  7  8  2  0
  8 31  1  0
 31 33  1  0
 33 34  2  0
 34 35  1  0
 35 36  2  0
 36 37  1  0
 36 38  1  0
 38 39  2  0
  8  9  1  0
  9 10  2  0
 10  1  1  0
  9  4  1  0
 26 21  1  0
 39 33  1  0
 11 14  1  0
 13 15  1  0
 13 16  1  0
 19 20  1  0
 28 29  1  0
 28 30  1  0
 31 32  1  0
M  END
> <minimizedAffinity>
-5.94601

> <CNNscore>
0.2429006100

> <CNNaffinity>
6.1515860558

> <CNN_VS>
1.4942239523

> <CNNaffinity_variance>
0.0770261586

$$$$
