


 11 11  0  0  0  0  0  0  0  0999 V2000
    4.3075   14.6216   40.9805 C   0  0  0  0  0  0  0  0  0  0  0  0
    4.2793   13.8965   42.2917 C   0  0  0  0  0  0  0  0  0  0  0  0
    4.7611   12.6068   42.3851 C   0  0  0  0  0  0  0  0  0  0  0  0
    4.6981   12.0179   43.6317 C   0  0  0  0  0  0  0  0  0  0  0  0
    5.1995   10.6203   43.8345 C   0  0  0  0  0  0  0  0  0  0  0  0
    4.1935   12.6568   44.7060 N   0  0  0  0  0  0  0  0  0  0  0  0
    3.7336   13.8957   44.5133 C   0  0  0  0  0  0  0  0  0  0  0  0
    3.2317   14.5657   45.6097 N   0  0  0  0  0  0  0  0  0  0  0  0
    3.7703   14.5546   43.3524 N   0  0  0  0  0  0  0  0  0  0  0  0
    3.1874   14.1153   46.4840 H   0  0  0  0  0  0  0  0  0  0  0  0
    2.9177   15.4943   45.5178 H   0  0  0  0  0  0  0  0  0  0  0  0
  1  2  1  0
  2  3  2  0
  3  4  1  0
  4  5  1  0
  4  6  2  0
  6  7  1  0
  7  8  1  0
  7  9  2  0
  9  2  1  0
  8 10  1  0
  8 11  1  0
M  END
> <minimizedAffinity>
-4.39403

> <CNNscore>
0.9283258915

> <CNNaffinity>
4.2057347298

> <CNN_VS>
3.9042923450

> <CNNaffinity_variance>
0.2042139322

$$$$



 11 11  0  0  0  0  0  0  0  0999 V2000
    5.4696   11.3926   45.5867 C   0  0  0  0  0  0  0  0  0  0  0  0
    4.7317   12.4045   44.7636 C   0  0  0  0  0  0  0  0  0  0  0  0
    4.7972   12.3632   43.3858 C   0  0  0  0  0  0  0  0  0  0  0  0
    4.0844   13.3321   42.7092 C   0  0  0  0  0  0  0  0  0  0  0  0
    4.0909   13.3684   41.2110 C   0  0  0  0  0  0  0  0  0  0  0  0
    3.3621   14.2738   43.3483 N   0  0  0  0  0  0  0  0  0  0  0  0
    3.3750   14.2446   44.6834 C   0  0  0  0  0  0  0  0  0  0  0  0
    2.6246   15.1925   45.3478 N   0  0  0  0  0  0  0  0  0  0  0  0
    4.0160   13.3367   45.4238 N   0  0  0  0  0  0  0  0  0  0  0  0
    2.1366   15.8795   44.8386 H   0  0  0  0  0  0  0  0  0  0  0  0
    2.5770   15.1821   46.3311 H   0  0  0  0  0  0  0  0  0  0  0  0
  1  2  1  0
  2  3  2  0
  3  4  1  0
  4  5  1  0
  4  6  2  0
  6  7  1  0
  7  8  1  0
  7  9  2  0
  9  2  1  0
  8 10  1  0
  8 11  1  0
M  END
> <minimizedAffinity>
-5.29229

> <CNNscore>
0.9093230963

> <CNNaffinity>
4.0731825829

> <CNN_VS>
3.7038390636

> <CNNaffinity_variance>
0.4408836663

$$$$



 11 11  0  0  0  0  0  0  0  0999 V2000
    3.9611   13.6624   41.3241 C   0  0  0  0  0  0  0  0  0  0  0  0
    3.9895   13.5450   42.8179 C   0  0  0  0  0  0  0  0  0  0  0  0
    4.6625   12.5028   43.4221 C   0  0  0  0  0  0  0  0  0  0  0  0
    4.6381   12.4755   44.8017 C   0  0  0  0  0  0  0  0  0  0  0  0
    5.3426   11.3845   45.5495 C   0  0  0  0  0  0  0  0  0  0  0  0
    3.9934   13.4088   45.5298 N   0  0  0  0  0  0  0  0  0  0  0  0
    3.3543   14.3682   44.8555 C   0  0  0  0  0  0  0  0  0  0  0  0
    2.7064   15.3390   45.5908 N   0  0  0  0  0  0  0  0  0  0  0  0
    3.3381   14.4893   43.5257 N   0  0  0  0  0  0  0  0  0  0  0  0
    2.6950   15.2864   46.5738 H   0  0  0  0  0  0  0  0  0  0  0  0
    2.2553   16.0846   45.1326 H   0  0  0  0  0  0  0  0  0  0  0  0
  1  2  1  0
  2  3  2  0
  3  4  1  0
  4  5  1  0
  4  6  2  0
  6  7  1  0
  7  8  1  0
  7  9  2  0
  9  2  1  0
  8 10  1  0
  8 11  1  0
M  END
> <minimizedAffinity>
-5.27950

> <CNNscore>
0.8873548508

> <CNNaffinity>
4.0258893967

> <CNN_VS>
3.5723924637

> <CNNaffinity_variance>
0.5417900085

$$$$



 11 11  0  0  0  0  0  0  0  0999 V2000
    5.7246   10.6482   43.7370 C   0  0  0  0  0  0  0  0  0  0  0  0
    4.9337   11.9030   43.5228 C   0  0  0  0  0  0  0  0  0  0  0  0
    4.4695   12.6267   44.6022 C   0  0  0  0  0  0  0  0  0  0  0  0
    3.7529   13.7697   44.3111 C   0  0  0  0  0  0  0  0  0  0  0  0
    3.2096   14.6241   45.4159 C   0  0  0  0  0  0  0  0  0  0  0  0
    3.5112   14.1662   43.0456 N   0  0  0  0  0  0  0  0  0  0  0  0
    3.9844   13.3905   42.0670 C   0  0  0  0  0  0  0  0  0  0  0  0
    3.7587   13.7963   40.7680 N   0  0  0  0  0  0  0  0  0  0  0  0
    4.7040   12.2804   42.2492 N   0  0  0  0  0  0  0  0  0  0  0  0
    3.2328   14.6095   40.5906 H   0  0  0  0  0  0  0  0  0  0  0  0
    4.1234   13.2727   40.0182 H   0  0  0  0  0  0  0  0  0  0  0  0
  1  2  1  0
  2  3  2  0
  3  4  1  0
  4  5  1  0
  4  6  2  0
  6  7  1  0
  7  8  1  0
  7  9  2  0
  9  2  1  0
  8 10  1  0
  8 11  1  0
M  END
> <minimizedAffinity>
-4.76768

> <CNNscore>
0.8691018820

> <CNNaffinity>
3.9046790600

> <CNN_VS>
3.3935639858

> <CNNaffinity_variance>
0.3122316897

$$$$



 11 11  0  0  0  0  0  0  0  0999 V2000
    3.5932   13.7127   45.7494 C   0  0  0  0  0  0  0  0  0  0  0  0
    4.0580   13.2389   44.4057 C   0  0  0  0  0  0  0  0  0  0  0  0
    4.9377   12.1804   44.3062 C   0  0  0  0  0  0  0  0  0  0  0  0
    5.3094   11.8105   43.0296 C   0  0  0  0  0  0  0  0  0  0  0  0
    6.2587   10.6703   42.8185 C   0  0  0  0  0  0  0  0  0  0  0  0
    4.8470   12.4426   41.9326 N   0  0  0  0  0  0  0  0  0  0  0  0
    4.0146   13.4680   42.1300 C   0  0  0  0  0  0  0  0  0  0  0  0
    3.5208   14.1107   41.0137 N   0  0  0  0  0  0  0  0  0  0  0  0
    3.5827   13.8857   43.3226 N   0  0  0  0  0  0  0  0  0  0  0  0
    3.8140   13.8330   40.1158 H   0  0  0  0  0  0  0  0  0  0  0  0
    2.8751   14.8470   41.1148 H   0  0  0  0  0  0  0  0  0  0  0  0
  1  2  1  0
  2  3  2  0
  3  4  1  0
  4  5  1  0
  4  6  2  0
  6  7  1  0
  7  8  1  0
  7  9  2  0
  9  2  1  0
  8 10  1  0
  8 11  1  0
M  END
> <minimizedAffinity>
-4.25348

> <CNNscore>
0.8571994305

> <CNNaffinity>
3.9778597355

> <CNN_VS>
3.4098191261

> <CNNaffinity_variance>
0.1615124196

$$$$



 11 11  0  0  0  0  0  0  0  0999 V2000
    6.6468   11.8234   43.1939 C   0  0  0  0  0  0  0  0  0  0  0  0
    5.6546   12.2862   44.2173 C   0  0  0  0  0  0  0  0  0  0  0  0
    5.6538   11.7390   45.4842 C   0  0  0  0  0  0  0  0  0  0  0  0
    4.7073   12.2272   46.3619 C   0  0  0  0  0  0  0  0  0  0  0  0
    4.6290   11.6977   47.7616 C   0  0  0  0  0  0  0  0  0  0  0  0
    3.8249   13.1841   46.0116 N   0  0  0  0  0  0  0  0  0  0  0  0
    3.8905   13.6387   44.7576 C   0  0  0  0  0  0  0  0  0  0  0  0
    3.0043   14.6312   44.3935 N   0  0  0  0  0  0  0  0  0  0  0  0
    4.7819   13.2438   43.8450 N   0  0  0  0  0  0  0  0  0  0  0  0
    2.3314   14.9507   45.0372 H   0  0  0  0  0  0  0  0  0  0  0  0
    3.0447   15.0201   43.4899 H   0  0  0  0  0  0  0  0  0  0  0  0
  1  2  1  0
  2  3  2  0
  3  4  1  0
  4  5  1  0
  4  6  2  0
  6  7  1  0
  7  8  1  0
  7  9  2  0
  9  2  1  0
  8 10  1  0
  8 11  1  0
M  END
> <minimizedAffinity>
-4.16011

> <CNNscore>
0.7705371380

> <CNNaffinity>
4.0109238625

> <CNN_VS>
3.0905656815

> <CNNaffinity_variance>
0.2157990187

$$$$



 11 11  0  0  0  0  0  0  0  0999 V2000
    4.7185   11.9852   45.2116 C   0  0  0  0  0  0  0  0  0  0  0  0
    4.7122   11.9225   43.7142 C   0  0  0  0  0  0  0  0  0  0  0  0
    5.2181   10.8172   43.0611 C   0  0  0  0  0  0  0  0  0  0  0  0
    5.1690   10.8445   41.6822 C   0  0  0  0  0  0  0  0  0  0  0  0
    5.6916    9.6893   40.8834 C   0  0  0  0  0  0  0  0  0  0  0  0
    4.6594   11.8892   40.9996 N   0  0  0  0  0  0  0  0  0  0  0  0
    4.2111   12.9217   41.7183 C   0  0  0  0  0  0  0  0  0  0  0  0
    3.6707   13.9886   41.0308 N   0  0  0  0  0  0  0  0  0  0  0  0
    4.1979   12.9783   43.0525 N   0  0  0  0  0  0  0  0  0  0  0  0
    3.6610   13.9857   40.0463 H   0  0  0  0  0  0  0  0  0  0  0  0
    3.2947   14.7528   41.5246 H   0  0  0  0  0  0  0  0  0  0  0  0
  1  2  1  0
  2  3  2  0
  3  4  1  0
  4  5  1  0
  4  6  2  0
  6  7  1  0
  7  8  1  0
  7  9  2  0
  9  2  1  0
  8 10  1  0
  8 11  1  0
M  END
> <minimizedAffinity>
-3.72763

> <CNNscore>
0.7124894261

> <CNNaffinity>
3.8568966389

> <CNN_VS>
2.7479979992

> <CNNaffinity_variance>
0.0909107327

$$$$



 11 11  0  0  0  0  0  0  0  0999 V2000
    2.9226   14.8257   45.5779 C   0  0  0  0  0  0  0  0  0  0  0  0
    3.7243   13.7066   44.9857 C   0  0  0  0  0  0  0  0  0  0  0  0
    3.7940   13.5481   43.6166 C   0  0  0  0  0  0  0  0  0  0  0  0
    4.5571   12.4927   43.1600 C   0  0  0  0  0  0  0  0  0  0  0  0
    4.6962   12.2401   41.6894 C   0  0  0  0  0  0  0  0  0  0  0  0
    5.2016   11.6545   43.9960 N   0  0  0  0  0  0  0  0  0  0  0  0
    5.0591   11.8764   45.3051 C   0  0  0  0  0  0  0  0  0  0  0  0
    5.7292   11.0358   46.1696 N   0  0  0  0  0  0  0  0  0  0  0  0
    4.3604   12.8808   45.8404 N   0  0  0  0  0  0  0  0  0  0  0  0
    6.2557   10.2832   45.8152 H   0  0  0  0  0  0  0  0  0  0  0  0
    5.6808   11.1884   47.1410 H   0  0  0  0  0  0  0  0  0  0  0  0
  1  2  1  0
  2  3  2  0
  3  4  1  0
  4  5  1  0
  4  6  2  0
  6  7  1  0
  7  8  1  0
  7  9  2  0
  9  2  1  0
  8 10  1  0
  8 11  1  0
M  END
> <minimizedAffinity>
-4.52015

> <CNNscore>
0.6827828288

> <CNNaffinity>
4.1920571327

> <CNN_VS>
2.8622646332

> <CNNaffinity_variance>
0.1580219716

$$$$



 11 11  0  0  0  0  0  0  0  0999 V2000
    4.4328   11.9549   47.0792 C   0  0  0  0  0  0  0  0  0  0  0  0
    4.9226   12.1445   45.6756 C   0  0  0  0  0  0  0  0  0  0  0  0
    6.1787   11.7048   45.3108 C   0  0  0  0  0  0  0  0  0  0  0  0
    6.5453   11.9187   43.9976 C   0  0  0  0  0  0  0  0  0  0  0  0
    7.8890   11.4741   43.5051 C   0  0  0  0  0  0  0  0  0  0  0  0
    5.7305   12.5250   43.1113 N   0  0  0  0  0  0  0  0  0  0  0  0
    4.5415   12.9329   43.5623 C   0  0  0  0  0  0  0  0  0  0  0  0
    3.6921   13.5383   42.6594 N   0  0  0  0  0  0  0  0  0  0  0  0
    4.0911   12.7531   44.8065 N   0  0  0  0  0  0  0  0  0  0  0  0
    3.9861   13.6892   41.7320 H   0  0  0  0  0  0  0  0  0  0  0  0
    2.7921   13.8194   42.9424 H   0  0  0  0  0  0  0  0  0  0  0  0
  1  2  1  0
  2  3  2  0
  3  4  1  0
  4  5  1  0
  4  6  2  0
  6  7  1  0
  7  8  1  0
  7  9  2  0
  9  2  1  0
  8 10  1  0
  8 11  1  0
M  END
> <minimizedAffinity>
-4.68735

> <CNNscore>
0.6758813262

> <CNNaffinity>
3.8046352863

> <CNN_VS>
2.5714819431

> <CNNaffinity_variance>
0.1859577298

$$$$
