


 39 41  0  0  0  0  0  0  0  0999 V2000
  -20.9401   30.3663    9.6922 C   0  0  0  0  0  0  0  0  0  0  0  0
  -20.0334   30.2102   10.6725 C   0  0  0  0  0  0  0  0  0  0  0  0
  -20.2575   30.1843   12.1598 C   0  0  0  0  0  0  0  0  0  0  0  0
  -19.1111   29.5237   12.7325 O   0  0  0  0  0  0  0  0  0  0  0  0
  -18.3583   30.4917   13.4968 C   0  0  0  0  0  0  0  0  0  0  0  0
  -18.9584   31.8704   13.2134 C   0  0  0  0  0  0  0  0  0  0  0  0
  -18.8724   32.7617   14.3258 O   0  0  0  0  0  0  0  0  0  0  0  0
  -20.4001   31.5169   12.9020 C   0  0  0  0  0  0  0  0  0  0  0  0
  -21.0864   31.3471   14.1594 O   0  0  0  0  0  0  0  0  0  0  0  0
  -19.3161   32.3659   15.0922 H   0  0  0  0  0  0  0  0  0  0  0  0
  -20.6147   30.6940   14.6996 H   0  0  0  0  0  0  0  0  0  0  0  0
  -16.9489   30.4113   13.1381 N   0  0  0  0  0  0  0  0  0  0  0  0
  -16.3630   31.1384   12.1389 C   0  0  0  0  0  0  0  0  0  0  0  0
  -15.0829   30.8649   12.0309 N   0  0  0  0  0  0  0  0  0  0  0  0
  -14.8107   29.9153   13.0088 C   0  0  0  0  0  0  0  0  0  0  0  0
  -15.9781   29.6266   13.6980 C   0  0  0  0  0  0  0  0  0  0  0  0
  -13.4375   29.3415   13.2124 C   0  0  0  0  0  0  0  0  0  0  0  0
  -12.4979   30.0018   12.4788 F   0  0  0  0  0  0  0  0  0  0  0  0
  -13.3571   28.0341   12.8493 F   0  0  0  0  0  0  0  0  0  0  0  0
  -13.0344   29.4209   14.5086 F   0  0  0  0  0  0  0  0  0  0  0  0
  -20.5901   30.3795    8.2352 C   0  0  0  0  0  0  0  0  0  0  0  0
  -22.1162   28.0528    7.9410 O   0  0  0  0  0  0  0  0  0  0  0  0
  -22.4595   29.0694    7.3471 C   0  0  0  0  0  0  0  0  0  0  0  0
  -21.8142   30.2738    7.4869 N   0  0  0  0  0  0  0  0  0  0  0  0
  -22.1959   31.0787    7.0677 H   0  0  0  0  0  0  0  0  0  0  0  0
  -23.6307   29.0236    6.4200 C   0  0  0  0  0  0  0  0  0  0  0  0
  -24.1169   30.2503    5.9404 C   0  0  0  0  0  0  0  0  0  0  0  0
  -25.2141   30.2719    5.0671 C   0  0  0  0  0  0  0  0  0  0  0  0
  -25.8564   29.1068    4.6504 C   0  0  0  0  0  0  0  0  0  0  0  0
  -27.3493   29.1025    3.4782 Br  0  0  0  0  0  0  0  0  0  0  0  0
  -25.3683   27.8933    5.1347 C   0  0  0  0  0  0  0  0  0  0  0  0
  -25.9222   26.6814    4.7965 O   0  0  0  0  0  0  0  0  0  0  0  0
  -24.2708   27.8474    6.0082 C   0  0  0  0  0  0  0  0  0  0  0  0
  -23.8659   26.6073    6.4411 O   0  0  0  0  0  0  0  0  0  0  0  0
  -26.6575   26.6478    4.2167 H   0  0  0  0  0  0  0  0  0  0  0  0
  -24.3146   25.8390    6.1474 H   0  0  0  0  0  0  0  0  0  0  0  0
  -25.6669   31.5589    4.6004 N   0  0  0  0  0  0  0  0  0  0  0  0
  -24.8062   32.3195    4.1430 O   0  0  0  0  0  0  0  0  0  0  0  0
  -26.8759   31.7954    4.7055 O   0  0  0  0  0  0  0  0  0  0  0  0
 22 23  2  0
 23 24  1  0
 24 21  1  0
 21  1  1  0
  1  2  2  0
  3  2  1  0
  3  4  1  0
  4  5  1  0
  5 12  1  0
 12 13  1  0
 13 14  2  0
 14 15  1  0
 15 17  1  0
 17 18  1  0
 17 19  1  0
 17 20  1  0
 15 16  2  0
  5  6  1  0
  6  7  1  0
  6  8  1  0
  8  9  1  0
 23 26  1  0
 26 27  2  0
 27 28  1  0
 28 37  1  0
 37 38  2  0
 37 39  1  0
 28 29  2  0
 29 30  1  0
 29 31  1  0
 31 32  1  0
 31 33  2  0
 33 34  1  0
  8  3  1  0
 33 26  1  0
 16 12  1  0
 24 25  1  0
  7 10  1  0
  9 11  1  0
 32 35  1  0
 34 36  1  0
M  CHG 1  37   1
M  CHG 1  39  -1
M  END
> <minimizedAffinity>
-10.09447

> <CNNscore>
0.7971878648

> <CNNaffinity>
6.8662543297

> <CNN_VS>
5.4736948013

> <CNNaffinity_variance>
0.1679112911

$$$$



 39 41  0  0  0  0  0  0  0  0999 V2000
  -21.5118   34.0687    6.9044 C   0  0  0  0  0  0  0  0  0  0  0  0
  -20.7418   34.9198    6.2044 C   0  0  0  0  0  0  0  0  0  0  0  0
  -20.8450   36.4178    6.1140 C   0  0  0  0  0  0  0  0  0  0  0  0
  -19.8275   36.9491    6.9863 O   0  0  0  0  0  0  0  0  0  0  0  0
  -18.8226   37.5990    6.1766 C   0  0  0  0  0  0  0  0  0  0  0  0
  -19.1289   37.2741    4.7131 C   0  0  0  0  0  0  0  0  0  0  0  0
  -18.7611   38.3214    3.8147 O   0  0  0  0  0  0  0  0  0  0  0  0
  -20.6333   37.0853    4.7514 C   0  0  0  0  0  0  0  0  0  0  0  0
  -21.2361   38.3952    4.7088 O   0  0  0  0  0  0  0  0  0  0  0  0
  -19.2168   39.1394    4.0677 H   0  0  0  0  0  0  0  0  0  0  0  0
  -20.8758   38.9404    5.4256 H   0  0  0  0  0  0  0  0  0  0  0  0
  -17.4983   37.1492    6.5834 N   0  0  0  0  0  0  0  0  0  0  0  0
  -16.8626   36.0529    6.0692 C   0  0  0  0  0  0  0  0  0  0  0  0
  -15.6828   35.8778    6.6193 N   0  0  0  0  0  0  0  0  0  0  0  0
  -15.5315   36.9109    7.5370 C   0  0  0  0  0  0  0  0  0  0  0  0
  -16.6686   37.7032    7.5195 C   0  0  0  0  0  0  0  0  0  0  0  0
  -14.2968   37.0643    8.3787 C   0  0  0  0  0  0  0  0  0  0  0  0
  -13.5018   38.0776    7.9332 F   0  0  0  0  0  0  0  0  0  0  0  0
  -13.5242   35.9460    8.3839 F   0  0  0  0  0  0  0  0  0  0  0  0
  -14.5908   37.3519    9.6747 F   0  0  0  0  0  0  0  0  0  0  0  0
  -21.3106   32.5838    6.9103 C   0  0  0  0  0  0  0  0  0  0  0  0
  -22.0459   29.9044    7.2404 O   0  0  0  0  0  0  0  0  0  0  0  0
  -22.7464   30.6330    6.5458 C   0  0  0  0  0  0  0  0  0  0  0  0
  -22.5034   31.9753    6.3847 N   0  0  0  0  0  0  0  0  0  0  0  0
  -23.1570   32.5305    5.9012 H   0  0  0  0  0  0  0  0  0  0  0  0
  -23.9250   30.0594    5.8280 C   0  0  0  0  0  0  0  0  0  0  0  0
  -24.8286   30.9667    5.2522 C   0  0  0  0  0  0  0  0  0  0  0  0
  -25.9542   30.4887    4.5655 C   0  0  0  0  0  0  0  0  0  0  0  0
  -26.2210   29.1270    4.4311 C   0  0  0  0  0  0  0  0  0  0  0  0
  -27.7399   28.4481    3.5175 Br  0  0  0  0  0  0  0  0  0  0  0  0
  -25.3193   28.2335    5.0093 C   0  0  0  0  0  0  0  0  0  0  0  0
  -25.4799   26.8696    4.9448 O   0  0  0  0  0  0  0  0  0  0  0  0
  -24.1856   28.6889    5.6997 C   0  0  0  0  0  0  0  0  0  0  0  0
  -23.3587   27.7357    6.2444 O   0  0  0  0  0  0  0  0  0  0  0  0
  -26.2181   26.5055    4.4971 H   0  0  0  0  0  0  0  0  0  0  0  0
  -23.5601   26.8264    6.1412 H   0  0  0  0  0  0  0  0  0  0  0  0
  -26.8447   31.4649    3.9882 N   0  0  0  0  0  0  0  0  0  0  0  0
  -26.5878   31.8418    2.8391 O   0  0  0  0  0  0  0  0  0  0  0  0
  -27.7840   31.8482    4.6948 O   0  0  0  0  0  0  0  0  0  0  0  0
 22 23  2  0
 23 24  1  0
 24 21  1  0
 21  1  1  0
  1  2  2  0
  3  2  1  0
  3  4  1  0
  4  5  1  0
  5 12  1  0
 12 13  1  0
 13 14  2  0
 14 15  1  0
 15 17  1  0
 17 18  1  0
 17 19  1  0
 17 20  1  0
 15 16  2  0
  5  6  1  0
  6  7  1  0
  6  8  1  0
  8  9  1  0
 23 26  1  0
 26 27  2  0
 27 28  1  0
 28 37  1  0
 37 38  2  0
 37 39  1  0
 28 29  2  0
 29 30  1  0
 29 31  1  0
 31 32  1  0
 31 33  2  0
 33 34  1  0
  8  3  1  0
 33 26  1  0
 16 12  1  0
 24 25  1  0
  7 10  1  0
  9 11  1  0
 32 35  1  0
 34 36  1  0
M  CHG 1  37   1
M  CHG 1  39  -1
M  END
> <minimizedAffinity>
-5.79909

> <CNNscore>
0.4386449158

> <CNNaffinity>
5.3509249687

> <CNN_VS>
2.3471560478

> <CNNaffinity_variance>
0.0583453067

$$$$



 39 41  0  0  0  0  0  0  0  0999 V2000
  -22.5637   34.6424    6.9607 C   0  0  0  0  0  0  0  0  0  0  0  0
  -23.3174   34.2458    8.0009 C   0  0  0  0  0  0  0  0  0  0  0  0
  -23.9273   35.0861    9.0894 C   0  0  0  0  0  0  0  0  0  0  0  0
  -23.8815   34.2909   10.2912 O   0  0  0  0  0  0  0  0  0  0  0  0
  -22.9477   34.9011   11.2097 C   0  0  0  0  0  0  0  0  0  0  0  0
  -22.2235   36.0186   10.4562 C   0  0  0  0  0  0  0  0  0  0  0  0
  -21.8602   37.1180   11.2921 O   0  0  0  0  0  0  0  0  0  0  0  0
  -23.2693   36.4255    9.4359 C   0  0  0  0  0  0  0  0  0  0  0  0
  -24.1971   37.3116   10.0954 O   0  0  0  0  0  0  0  0  0  0  0  0
  -22.6544   37.4760   11.7187 H   0  0  0  0  0  0  0  0  0  0  0  0
  -24.5492   36.8787   10.8888 H   0  0  0  0  0  0  0  0  0  0  0  0
  -22.0336   33.8903   11.7237 N   0  0  0  0  0  0  0  0  0  0  0  0
  -21.7922   32.6874   11.1194 C   0  0  0  0  0  0  0  0  0  0  0  0
  -20.9285   31.9703   11.8011 N   0  0  0  0  0  0  0  0  0  0  0  0
  -20.5802   32.7390   12.9056 C   0  0  0  0  0  0  0  0  0  0  0  0
  -21.2750   33.9375   12.8612 C   0  0  0  0  0  0  0  0  0  0  0  0
  -19.5996   32.2635   13.9393 C   0  0  0  0  0  0  0  0  0  0  0  0
  -20.1414   31.3152   14.7544 F   0  0  0  0  0  0  0  0  0  0  0  0
  -19.1679   33.2645   14.7512 F   0  0  0  0  0  0  0  0  0  0  0  0
  -18.4959   31.6999   13.3798 F   0  0  0  0  0  0  0  0  0  0  0  0
  -22.0054   33.7015    5.9367 C   0  0  0  0  0  0  0  0  0  0  0  0
  -21.9556   31.1443    7.0714 O   0  0  0  0  0  0  0  0  0  0  0  0
  -22.8353   31.4200    6.2626 C   0  0  0  0  0  0  0  0  0  0  0  0
  -22.9806   32.6687    5.7091 N   0  0  0  0  0  0  0  0  0  0  0  0
  -23.7657   32.8601    5.1468 H   0  0  0  0  0  0  0  0  0  0  0  0
  -23.8073   30.3664    5.8402 C   0  0  0  0  0  0  0  0  0  0  0  0
  -24.8981   30.7772    5.0577 C   0  0  0  0  0  0  0  0  0  0  0  0
  -25.8443   29.8342    4.6306 C   0  0  0  0  0  0  0  0  0  0  0  0
  -25.7483   28.4827    4.9590 C   0  0  0  0  0  0  0  0  0  0  0  0
  -27.0168   27.1835    4.4060 Br  0  0  0  0  0  0  0  0  0  0  0  0
  -24.6629   28.0847    5.7395 C   0  0  0  0  0  0  0  0  0  0  0  0
  -24.4657   26.7808    6.1283 O   0  0  0  0  0  0  0  0  0  0  0  0
  -23.7032   29.0104    6.1768 C   0  0  0  0  0  0  0  0  0  0  0  0
  -22.6737   28.5282    6.9494 O   0  0  0  0  0  0  0  0  0  0  0  0
  -25.0732   26.1170    5.8670 H   0  0  0  0  0  0  0  0  0  0  0  0
  -22.6319   27.6155    7.1574 H   0  0  0  0  0  0  0  0  0  0  0  0
  -26.9402   30.3106    3.8236 N   0  0  0  0  0  0  0  0  0  0  0  0
  -27.1362   29.7276    2.7511 O   0  0  0  0  0  0  0  0  0  0  0  0
  -27.5847   31.2671    4.2689 O   0  0  0  0  0  0  0  0  0  0  0  0
 22 23  2  0
 23 24  1  0
 24 21  1  0
 21  1  1  0
  1  2  2  0
  3  2  1  0
  3  4  1  0
  4  5  1  0
  5 12  1  0
 12 13  1  0
 13 14  2  0
 14 15  1  0
 15 17  1  0
 17 18  1  0
 17 19  1  0
 17 20  1  0
 15 16  2  0
  5  6  1  0
  6  7  1  0
  6  8  1  0
  8  9  1  0
 23 26  1  0
 26 27  2  0
 27 28  1  0
 28 37  1  0
 37 38  2  0
 37 39  1  0
 28 29  2  0
 29 30  1  0
 29 31  1  0
 31 32  1  0
 31 33  2  0
 33 34  1  0
  8  3  1  0
 33 26  1  0
 16 12  1  0
 24 25  1  0
  7 10  1  0
  9 11  1  0
 32 35  1  0
 34 36  1  0
M  CHG 1  37   1
M  CHG 1  39  -1
M  END
> <minimizedAffinity>
-6.05205

> <CNNscore>
0.2914838791

> <CNNaffinity>
5.3222641945

> <CNN_VS>
1.5513541698

> <CNNaffinity_variance>
0.2167005390

$$$$



 39 41  0  0  0  0  0  0  0  0999 V2000
  -20.8413   30.5076    9.3539 C   0  0  0  0  0  0  0  0  0  0  0  0
  -20.0250   30.3181   10.4052 C   0  0  0  0  0  0  0  0  0  0  0  0
  -20.3880   30.1668   11.8572 C   0  0  0  0  0  0  0  0  0  0  0  0
  -19.2853   29.4805   12.4829 O   0  0  0  0  0  0  0  0  0  0  0  0
  -18.6316   30.3948   13.3910 C   0  0  0  0  0  0  0  0  0  0  0  0
  -19.2353   31.7821   13.1622 C   0  0  0  0  0  0  0  0  0  0  0  0
  -19.2764   32.5806   14.3454 O   0  0  0  0  0  0  0  0  0  0  0  0
  -20.6322   31.4317   12.6864 C   0  0  0  0  0  0  0  0  0  0  0  0
  -21.4300   31.1484   13.8543 O   0  0  0  0  0  0  0  0  0  0  0  0
  -19.7809   32.1162   15.0315 H   0  0  0  0  0  0  0  0  0  0  0  0
  -20.9958   30.4610   14.3835 H   0  0  0  0  0  0  0  0  0  0  0  0
  -17.1931   30.3672   13.1642 N   0  0  0  0  0  0  0  0  0  0  0  0
  -16.5359   31.1678   12.2712 C   0  0  0  0  0  0  0  0  0  0  0  0
  -15.2444   30.9290   12.2695 N   0  0  0  0  0  0  0  0  0  0  0  0
  -15.0396   29.9259   13.2098 C   0  0  0  0  0  0  0  0  0  0  0  0
  -16.2583   29.5697   13.7657 C   0  0  0  0  0  0  0  0  0  0  0  0
  -13.6765   29.3699   13.5085 C   0  0  0  0  0  0  0  0  0  0  0  0
  -12.6968   30.0426   12.8415 F   0  0  0  0  0  0  0  0  0  0  0  0
  -13.5541   28.0638   13.1525 F   0  0  0  0  0  0  0  0  0  0  0  0
  -13.3653   29.4539   14.8294 F   0  0  0  0  0  0  0  0  0  0  0  0
  -20.3553   30.6496    7.9435 C   0  0  0  0  0  0  0  0  0  0  0  0
  -20.2299   31.5901    5.3113 O   0  0  0  0  0  0  0  0  0  0  0  0
  -21.3241   31.4869    5.8554 C   0  0  0  0  0  0  0  0  0  0  0  0
  -21.4885   30.9691    7.1170 N   0  0  0  0  0  0  0  0  0  0  0  0
  -22.3976   30.8140    7.4615 H   0  0  0  0  0  0  0  0  0  0  0  0
  -22.5529   31.9399    5.1357 C   0  0  0  0  0  0  0  0  0  0  0  0
  -23.7638   31.3190    5.4813 C   0  0  0  0  0  0  0  0  0  0  0  0
  -24.9512   31.7015    4.8403 C   0  0  0  0  0  0  0  0  0  0  0  0
  -24.9805   32.6867    3.8544 C   0  0  0  0  0  0  0  0  0  0  0  0
  -26.5681   33.2197    2.9610 Br  0  0  0  0  0  0  0  0  0  0  0  0
  -23.7721   33.2955    3.5156 C   0  0  0  0  0  0  0  0  0  0  0  0
  -23.6773   34.2760    2.5566 O   0  0  0  0  0  0  0  0  0  0  0  0
  -22.5721   32.9300    4.1447 C   0  0  0  0  0  0  0  0  0  0  0  0
  -21.4295   33.5774    3.7390 O   0  0  0  0  0  0  0  0  0  0  0  0
  -24.4448   34.5622    2.1017 H   0  0  0  0  0  0  0  0  0  0  0  0
  -21.4750   34.2355    3.0736 H   0  0  0  0  0  0  0  0  0  0  0  0
  -26.1663   31.0356    5.2396 N   0  0  0  0  0  0  0  0  0  0  0  0
  -26.4900   30.0330    4.5926 O   0  0  0  0  0  0  0  0  0  0  0  0
  -26.7854   31.5291    6.1891 O   0  0  0  0  0  0  0  0  0  0  0  0
 22 23  2  0
 23 24  1  0
 24 21  1  0
 21  1  1  0
  1  2  2  0
  3  2  1  0
  3  4  1  0
  4  5  1  0
  5 12  1  0
 12 13  1  0
 13 14  2  0
 14 15  1  0
 15 17  1  0
 17 18  1  0
 17 19  1  0
 17 20  1  0
 15 16  2  0
  5  6  1  0
  6  7  1  0
  6  8  1  0
  8  9  1  0
 23 26  1  0
 26 27  2  0
 27 28  1  0
 28 37  1  0
 37 38  2  0
 37 39  1  0
 28 29  2  0
 29 30  1  0
 29 31  1  0
 31 32  1  0
 31 33  2  0
 33 34  1  0
  8  3  1  0
 33 26  1  0
 16 12  1  0
 24 25  1  0
  7 10  1  0
  9 11  1  0
 32 35  1  0
 34 36  1  0
M  CHG 1  37   1
M  CHG 1  39  -1
M  END
> <minimizedAffinity>
-8.34377

> <CNNscore>
0.2674347460

> <CNNaffinity>
6.0240321159

> <CNN_VS>
1.6110354662

> <CNNaffinity_variance>
0.2649473250

$$$$



 39 41  0  0  0  0  0  0  0  0999 V2000
  -22.6021   34.5493    9.9060 C   0  0  0  0  0  0  0  0  0  0  0  0
  -22.9214   33.5541   10.7516 C   0  0  0  0  0  0  0  0  0  0  0  0
  -23.3040   33.6457   12.2036 C   0  0  0  0  0  0  0  0  0  0  0  0
  -22.8819   32.4098   12.8143 O   0  0  0  0  0  0  0  0  0  0  0  0
  -21.8018   32.6962   13.7303 C   0  0  0  0  0  0  0  0  0  0  0  0
  -21.3963   34.1569   13.5227 C   0  0  0  0  0  0  0  0  0  0  0  0
  -20.9297   34.7871   14.7162 O   0  0  0  0  0  0  0  0  0  0  0  0
  -22.7003   34.7708   13.0502 C   0  0  0  0  0  0  0  0  0  0  0  0
  -23.5028   35.0374   14.2188 O   0  0  0  0  0  0  0  0  0  0  0  0
  -21.6166   34.7349   15.3991 H   0  0  0  0  0  0  0  0  0  0  0  0
  -23.6003   34.2230   14.7367 H   0  0  0  0  0  0  0  0  0  0  0  0
  -20.7009   31.7719   13.4951 N   0  0  0  0  0  0  0  0  0  0  0  0
  -20.8351   30.4129   13.4204 C   0  0  0  0  0  0  0  0  0  0  0  0
  -19.6803   29.8257   13.2047 N   0  0  0  0  0  0  0  0  0  0  0  0
  -18.7401   30.8468   13.1291 C   0  0  0  0  0  0  0  0  0  0  0  0
  -19.3763   32.0639   13.3162 C   0  0  0  0  0  0  0  0  0  0  0  0
  -17.2819   30.5808   12.8853 C   0  0  0  0  0  0  0  0  0  0  0  0
  -16.8199   31.2504   11.7921 F   0  0  0  0  0  0  0  0  0  0  0  0
  -17.0188   29.2651   12.6677 F   0  0  0  0  0  0  0  0  0  0  0  0
  -16.5060   30.9750   13.9300 F   0  0  0  0  0  0  0  0  0  0  0  0
  -22.2307   34.3291    8.4710 C   0  0  0  0  0  0  0  0  0  0  0  0
  -21.2320   32.5215    6.5832 O   0  0  0  0  0  0  0  0  0  0  0  0
  -22.3566   32.3454    7.0396 C   0  0  0  0  0  0  0  0  0  0  0  0
  -22.9007   33.1386    8.0201 N   0  0  0  0  0  0  0  0  0  0  0  0
  -23.7642   32.8881    8.4212 H   0  0  0  0  0  0  0  0  0  0  0  0
  -23.1971   31.2237    6.5212 C   0  0  0  0  0  0  0  0  0  0  0  0
  -24.3836   31.5672    5.8538 C   0  0  0  0  0  0  0  0  0  0  0  0
  -25.2143   30.5583    5.3450 C   0  0  0  0  0  0  0  0  0  0  0  0
  -24.9088   29.2047    5.4792 C   0  0  0  0  0  0  0  0  0  0  0  0
  -26.0165   27.8155    4.8114 Br  0  0  0  0  0  0  0  0  0  0  0  0
  -23.7297   28.8733    6.1466 C   0  0  0  0  0  0  0  0  0  0  0  0
  -23.3269   27.5736    6.3425 O   0  0  0  0  0  0  0  0  0  0  0  0
  -22.8824   29.8659    6.6626 C   0  0  0  0  0  0  0  0  0  0  0  0
  -21.7473   29.4447    7.3132 O   0  0  0  0  0  0  0  0  0  0  0  0
  -23.8513   26.8670    6.0206 H   0  0  0  0  0  0  0  0  0  0  0  0
  -21.5646   28.5290    7.3913 H   0  0  0  0  0  0  0  0  0  0  0  0
  -26.4166   30.9685    4.6626 N   0  0  0  0  0  0  0  0  0  0  0  0
  -27.2879   31.5140    5.3495 O   0  0  0  0  0  0  0  0  0  0  0  0
  -26.4772   30.7317    3.4506 O   0  0  0  0  0  0  0  0  0  0  0  0
 22 23  2  0
 23 24  1  0
 24 21  1  0
 21  1  1  0
  1  2  2  0
  3  2  1  0
  3  4  1  0
  4  5  1  0
  5 12  1  0
 12 13  1  0
 13 14  2  0
 14 15  1  0
 15 17  1  0
 17 18  1  0
 17 19  1  0
 17 20  1  0
 15 16  2  0
  5  6  1  0
  6  7  1  0
  6  8  1  0
  8  9  1  0
 23 26  1  0
 26 27  2  0
 27 28  1  0
 28 37  1  0
 37 38  2  0
 37 39  1  0
 28 29  2  0
 29 30  1  0
 29 31  1  0
 31 32  1  0
 31 33  2  0
 33 34  1  0
  8  3  1  0
 33 26  1  0
 16 12  1  0
 24 25  1  0
  7 10  1  0
  9 11  1  0
 32 35  1  0
 34 36  1  0
M  CHG 1  37   1
M  CHG 1  39  -1
M  END
> <minimizedAffinity>
-7.85122

> <CNNscore>
0.2670366466

> <CNNaffinity>
5.2422347069

> <CNN_VS>
1.3998687267

> <CNNaffinity_variance>
0.4586831331

$$$$



 39 41  0  0  0  0  0  0  0  0999 V2000
  -22.4437   33.6779   13.2495 C   0  0  0  0  0  0  0  0  0  0  0  0
  -21.8470   32.7184   12.5211 C   0  0  0  0  0  0  0  0  0  0  0  0
  -21.1181   31.4939   13.0032 C   0  0  0  0  0  0  0  0  0  0  0  0
  -21.4808   30.4251   12.1060 O   0  0  0  0  0  0  0  0  0  0  0  0
  -20.3123   30.0502   11.3432 C   0  0  0  0  0  0  0  0  0  0  0  0
  -19.2196   31.0800   11.6376 C   0  0  0  0  0  0  0  0  0  0  0  0
  -17.9020   30.5311   11.5953 O   0  0  0  0  0  0  0  0  0  0  0  0
  -19.5869   31.5210   13.0415 C   0  0  0  0  0  0  0  0  0  0  0  0
  -19.0667   30.5342   13.9562 O   0  0  0  0  0  0  0  0  0  0  0  0
  -17.8365   29.7986   12.2278 H   0  0  0  0  0  0  0  0  0  0  0  0
  -19.3953   29.6565   13.7061 H   0  0  0  0  0  0  0  0  0  0  0  0
  -20.6507   29.9837    9.9280 N   0  0  0  0  0  0  0  0  0  0  0  0
  -20.9779   28.8333    9.2648 C   0  0  0  0  0  0  0  0  0  0  0  0
  -21.2331   29.0637    7.9972 N   0  0  0  0  0  0  0  0  0  0  0  0
  -21.0707   30.4324    7.8170 C   0  0  0  0  0  0  0  0  0  0  0  0
  -20.7010   31.0079    9.0225 C   0  0  0  0  0  0  0  0  0  0  0  0
  -21.2786   31.0985    6.4868 C   0  0  0  0  0  0  0  0  0  0  0  0
  -22.1739   30.4210    5.7145 F   0  0  0  0  0  0  0  0  0  0  0  0
  -20.1336   31.1842    5.7593 F   0  0  0  0  0  0  0  0  0  0  0  0
  -21.7649   32.3618    6.6151 F   0  0  0  0  0  0  0  0  0  0  0  0
  -23.1392   34.8614   12.6486 C   0  0  0  0  0  0  0  0  0  0  0  0
  -25.8104   34.3678   11.9779 O   0  0  0  0  0  0  0  0  0  0  0  0
  -25.5575   34.9475   13.0286 C   0  0  0  0  0  0  0  0  0  0  0  0
  -24.2770   35.1695   13.4732 N   0  0  0  0  0  0  0  0  0  0  0  0
  -24.1354   35.5461   14.3717 H   0  0  0  0  0  0  0  0  0  0  0  0
  -26.6759   35.4480   13.8841 C   0  0  0  0  0  0  0  0  0  0  0  0
  -26.3462   36.3540   14.9047 C   0  0  0  0  0  0  0  0  0  0  0  0
  -27.3528   36.8590   15.7406 C   0  0  0  0  0  0  0  0  0  0  0  0
  -28.6900   36.4902   15.6014 C   0  0  0  0  0  0  0  0  0  0  0  0
  -30.0739   37.1471   16.7222 Br  0  0  0  0  0  0  0  0  0  0  0  0
  -29.0073   35.5872   14.5869 C   0  0  0  0  0  0  0  0  0  0  0  0
  -30.2897   35.1485   14.3567 O   0  0  0  0  0  0  0  0  0  0  0  0
  -28.0170   35.0701   13.7375 C   0  0  0  0  0  0  0  0  0  0  0  0
  -28.4218   34.1789   12.7726 O   0  0  0  0  0  0  0  0  0  0  0  0
  -30.9940   35.4585   14.8914 H   0  0  0  0  0  0  0  0  0  0  0  0
  -29.3265   33.9461   12.6999 H   0  0  0  0  0  0  0  0  0  0  0  0
  -26.9584   37.7915   16.7674 N   0  0  0  0  0  0  0  0  0  0  0  0
  -26.6072   37.3106   17.8509 O   0  0  0  0  0  0  0  0  0  0  0  0
  -27.0136   38.9926   16.4796 O   0  0  0  0  0  0  0  0  0  0  0  0
 22 23  2  0
 23 24  1  0
 24 21  1  0
 21  1  1  0
  1  2  2  0
  3  2  1  0
  3  4  1  0
  4  5  1  0
  5 12  1  0
 12 13  1  0
 13 14  2  0
 14 15  1  0
 15 17  1  0
 17 18  1  0
 17 19  1  0
 17 20  1  0
 15 16  2  0
  5  6  1  0
  6  7  1  0
  6  8  1  0
  8  9  1  0
 23 26  1  0
 26 27  2  0
 27 28  1  0
 28 37  1  0
 37 38  2  0
 37 39  1  0
 28 29  2  0
 29 30  1  0
 29 31  1  0
 31 32  1  0
 31 33  2  0
 33 34  1  0
  8  3  1  0
 33 26  1  0
 16 12  1  0
 24 25  1  0
  7 10  1  0
  9 11  1  0
 32 35  1  0
 34 36  1  0
M  CHG 1  37   1
M  CHG 1  39  -1
M  END
> <minimizedAffinity>
-6.31273

> <CNNscore>
0.2224859297

> <CNNaffinity>
4.9625539780

> <CNN_VS>
1.1040984392

> <CNNaffinity_variance>
0.3205432594

$$$$



 39 41  0  0  0  0  0  0  0  0999 V2000
  -14.2390   36.3725    7.3764 C   0  0  0  0  0  0  0  0  0  0  0  0
  -13.5755   36.7790    8.4728 C   0  0  0  0  0  0  0  0  0  0  0  0
  -12.0899   36.8942    8.6792 C   0  0  0  0  0  0  0  0  0  0  0  0
  -11.8953   37.9251    9.6681 O   0  0  0  0  0  0  0  0  0  0  0  0
  -11.3805   37.3144   10.8722 C   0  0  0  0  0  0  0  0  0  0  0  0
  -11.4544   35.7972   10.6876 C   0  0  0  0  0  0  0  0  0  0  0  0
  -10.4085   35.0961   11.3612 O   0  0  0  0  0  0  0  0  0  0  0  0
  -11.3233   35.6669    9.1822 C   0  0  0  0  0  0  0  0  0  0  0  0
   -9.9201   35.7554    8.8597 O   0  0  0  0  0  0  0  0  0  0  0  0
   -9.5490   35.4196   11.0487 H   0  0  0  0  0  0  0  0  0  0  0  0
   -9.5540   36.5734    9.2309 H   0  0  0  0  0  0  0  0  0  0  0  0
  -12.1463   37.7752   12.0223 N   0  0  0  0  0  0  0  0  0  0  0  0
  -11.6197   38.4794   13.0698 C   0  0  0  0  0  0  0  0  0  0  0  0
  -12.5343   38.7617   13.9691 N   0  0  0  0  0  0  0  0  0  0  0  0
  -13.7220   38.2216   13.4895 C   0  0  0  0  0  0  0  0  0  0  0  0
  -13.4794   37.5996   12.2748 C   0  0  0  0  0  0  0  0  0  0  0  0
  -15.0183   38.3366   14.2396 C   0  0  0  0  0  0  0  0  0  0  0  0
  -14.9942   39.3587   15.1406 F   0  0  0  0  0  0  0  0  0  0  0  0
  -15.3175   37.2130   14.9435 F   0  0  0  0  0  0  0  0  0  0  0  0
  -16.0702   38.5814   13.4133 F   0  0  0  0  0  0  0  0  0  0  0  0
  -15.7333   36.2957    7.2941 C   0  0  0  0  0  0  0  0  0  0  0  0
  -18.3437   36.3224    6.2873 O   0  0  0  0  0  0  0  0  0  0  0  0
  -17.4089   36.1441    5.5138 C   0  0  0  0  0  0  0  0  0  0  0  0
  -16.0930   36.1856    5.9056 N   0  0  0  0  0  0  0  0  0  0  0  0
  -15.3838   36.1391    5.2243 H   0  0  0  0  0  0  0  0  0  0  0  0
  -17.6857   35.8648    4.0721 C   0  0  0  0  0  0  0  0  0  0  0  0
  -18.0517   36.9550    3.2667 C   0  0  0  0  0  0  0  0  0  0  0  0
  -18.3241   36.7557    1.9055 C   0  0  0  0  0  0  0  0  0  0  0  0
  -18.2493   35.4984    1.3080 C   0  0  0  0  0  0  0  0  0  0  0  0
  -18.6216   35.1936   -0.5281 Br  0  0  0  0  0  0  0  0  0  0  0  0
  -17.8881   34.4210    2.1168 C   0  0  0  0  0  0  0  0  0  0  0  0
  -17.7853   33.1356    1.6402 O   0  0  0  0  0  0  0  0  0  0  0  0
  -17.6096   34.5969    3.4810 C   0  0  0  0  0  0  0  0  0  0  0  0
  -17.2712   33.4761    4.2011 O   0  0  0  0  0  0  0  0  0  0  0  0
  -17.9592   32.9554    0.7373 H   0  0  0  0  0  0  0  0  0  0  0  0
  -17.2288   32.6418    3.7769 H   0  0  0  0  0  0  0  0  0  0  0  0
  -18.6884   37.9118    1.1243 N   0  0  0  0  0  0  0  0  0  0  0  0
  -19.8930   38.1827    1.0597 O   0  0  0  0  0  0  0  0  0  0  0  0
  -17.7660   38.5282    0.5787 O   0  0  0  0  0  0  0  0  0  0  0  0
 22 23  2  0
 23 24  1  0
 24 21  1  0
 21  1  1  0
  1  2  2  0
  3  2  1  0
  3  4  1  0
  4  5  1  0
  5 12  1  0
 12 13  1  0
 13 14  2  0
 14 15  1  0
 15 17  1  0
 17 18  1  0
 17 19  1  0
 17 20  1  0
 15 16  2  0
  5  6  1  0
  6  7  1  0
  6  8  1  0
  8  9  1  0
 23 26  1  0
 26 27  2  0
 27 28  1  0
 28 37  1  0
 37 38  2  0
 37 39  1  0
 28 29  2  0
 29 30  1  0
 29 31  1  0
 31 32  1  0
 31 33  2  0
 33 34  1  0
  8  3  1  0
 33 26  1  0
 16 12  1  0
 24 25  1  0
  7 10  1  0
  9 11  1  0
 32 35  1  0
 34 36  1  0
M  CHG 1  37   1
M  CHG 1  39  -1
M  END
> <minimizedAffinity>
-5.80076

> <CNNscore>
0.2207707614

> <CNNaffinity>
4.7517604828

> <CNN_VS>
1.0490497351

> <CNNaffinity_variance>
0.1995142698

$$$$



 39 41  0  0  0  0  0  0  0  0999 V2000
  -22.9739   33.9544    9.3095 C   0  0  0  0  0  0  0  0  0  0  0  0
  -22.6164   33.9859   10.6051 C   0  0  0  0  0  0  0  0  0  0  0  0
  -23.3738   33.4701   11.7981 C   0  0  0  0  0  0  0  0  0  0  0  0
  -22.6210   32.3496   12.3045 O   0  0  0  0  0  0  0  0  0  0  0  0
  -22.0777   32.7075   13.5947 C   0  0  0  0  0  0  0  0  0  0  0  0
  -22.3362   34.2008   13.8056 C   0  0  0  0  0  0  0  0  0  0  0  0
  -22.5448   34.5485   15.1749 O   0  0  0  0  0  0  0  0  0  0  0  0
  -23.5957   34.4105   12.9870 C   0  0  0  0  0  0  0  0  0  0  0  0
  -24.7131   33.9836   13.7931 O   0  0  0  0  0  0  0  0  0  0  0  0
  -23.2893   34.0371   15.5285 H   0  0  0  0  0  0  0  0  0  0  0  0
  -24.5678   33.0717   14.0902 H   0  0  0  0  0  0  0  0  0  0  0  0
  -20.6605   32.3740   13.6399 N   0  0  0  0  0  0  0  0  0  0  0  0
  -19.7404   33.0143   14.4234 C   0  0  0  0  0  0  0  0  0  0  0  0
  -18.5377   32.5117   14.2629 N   0  0  0  0  0  0  0  0  0  0  0  0
  -18.6719   31.4878   13.3324 C   0  0  0  0  0  0  0  0  0  0  0  0
  -19.9980   31.4046   12.9379 C   0  0  0  0  0  0  0  0  0  0  0  0
  -17.5065   30.6559   12.8783 C   0  0  0  0  0  0  0  0  0  0  0  0
  -16.9035   31.1858   11.7770 F   0  0  0  0  0  0  0  0  0  0  0  0
  -17.8662   29.3883   12.5450 F   0  0  0  0  0  0  0  0  0  0  0  0
  -16.5418   30.5591   13.8317 F   0  0  0  0  0  0  0  0  0  0  0  0
  -22.1285   34.5099    8.2038 C   0  0  0  0  0  0  0  0  0  0  0  0
  -21.3496   35.4083    5.6710 O   0  0  0  0  0  0  0  0  0  0  0  0
  -22.2929   34.6300    5.7628 C   0  0  0  0  0  0  0  0  0  0  0  0
  -22.6999   34.0821    6.9548 N   0  0  0  0  0  0  0  0  0  0  0  0
  -23.3947   33.3846    6.9543 H   0  0  0  0  0  0  0  0  0  0  0  0
  -23.0544   34.2440    4.5362 C   0  0  0  0  0  0  0  0  0  0  0  0
  -22.3488   34.2271    3.3225 C   0  0  0  0  0  0  0  0  0  0  0  0
  -23.0092   33.8730    2.1371 C   0  0  0  0  0  0  0  0  0  0  0  0
  -24.3614   33.5346    2.1112 C   0  0  0  0  0  0  0  0  0  0  0  0
  -25.2866   33.0610    0.5230 Br  0  0  0  0  0  0  0  0  0  0  0  0
  -25.0546   33.5574    3.3213 C   0  0  0  0  0  0  0  0  0  0  0  0
  -26.3903   33.2465    3.4185 O   0  0  0  0  0  0  0  0  0  0  0  0
  -24.4141   33.9070    4.5200 C   0  0  0  0  0  0  0  0  0  0  0  0
  -25.1797   33.9111    5.6615 O   0  0  0  0  0  0  0  0  0  0  0  0
  -26.8721   33.0053    2.6519 H   0  0  0  0  0  0  0  0  0  0  0  0
  -26.0869   33.6808    5.6180 H   0  0  0  0  0  0  0  0  0  0  0  0
  -22.2341   33.8658    0.9211 N   0  0  0  0  0  0  0  0  0  0  0  0
  -21.0785   34.2989    0.9951 O   0  0  0  0  0  0  0  0  0  0  0  0
  -22.7943   33.4354   -0.0936 O   0  0  0  0  0  0  0  0  0  0  0  0
 22 23  2  0
 23 24  1  0
 24 21  1  0
 21  1  1  0
  1  2  2  0
  3  2  1  0
  3  4  1  0
  4  5  1  0
  5 12  1  0
 12 13  1  0
 13 14  2  0
 14 15  1  0
 15 17  1  0
 17 18  1  0
 17 19  1  0
 17 20  1  0
 15 16  2  0
  5  6  1  0
  6  7  1  0
  6  8  1  0
  8  9  1  0
 23 26  1  0
 26 27  2  0
 27 28  1  0
 28 37  1  0
 37 38  2  0
 37 39  1  0
 28 29  2  0
 29 30  1  0
 29 31  1  0
 31 32  1  0
 31 33  2  0
 33 34  1  0
  8  3  1  0
 33 26  1  0
 16 12  1  0
 24 25  1  0
  7 10  1  0
  9 11  1  0
 32 35  1  0
 34 36  1  0
M  CHG 1  37   1
M  CHG 1  39  -1
M  END
> <minimizedAffinity>
-5.79693

> <CNNscore>
0.2133715749

> <CNNaffinity>
4.4108066559

> <CNN_VS>
0.9411407709

> <CNNaffinity_variance>
0.4890261590

$$$$



 39 41  0  0  0  0  0  0  0  0999 V2000
  -23.1064   34.1159    9.3341 C   0  0  0  0  0  0  0  0  0  0  0  0
  -22.7245   34.0275   10.6200 C   0  0  0  0  0  0  0  0  0  0  0  0
  -23.4753   33.4351   11.7812 C   0  0  0  0  0  0  0  0  0  0  0  0
  -22.6900   32.3192   12.2468 O   0  0  0  0  0  0  0  0  0  0  0  0
  -22.1713   32.6383   13.5571 C   0  0  0  0  0  0  0  0  0  0  0  0
  -22.4821   34.1115   13.8298 C   0  0  0  0  0  0  0  0  0  0  0  0
  -22.7152   34.3919   15.2104 O   0  0  0  0  0  0  0  0  0  0  0  0
  -23.7401   34.3148   13.0072 C   0  0  0  0  0  0  0  0  0  0  0  0
  -24.8501   33.8160   13.7818 O   0  0  0  0  0  0  0  0  0  0  0  0
  -23.4453   33.8410   15.5334 H   0  0  0  0  0  0  0  0  0  0  0  0
  -24.6769   32.8974   14.0406 H   0  0  0  0  0  0  0  0  0  0  0  0
  -20.7442   32.3505   13.6034 N   0  0  0  0  0  0  0  0  0  0  0  0
  -19.8395   33.0458   14.3573 C   0  0  0  0  0  0  0  0  0  0  0  0
  -18.6227   32.5752   14.2054 N   0  0  0  0  0  0  0  0  0  0  0  0
  -18.7310   31.5158   13.3120 C   0  0  0  0  0  0  0  0  0  0  0  0
  -20.0564   31.3780   12.9304 C   0  0  0  0  0  0  0  0  0  0  0  0
  -17.5432   30.7050   12.8784 C   0  0  0  0  0  0  0  0  0  0  0  0
  -16.9562   31.2217   11.7623 F   0  0  0  0  0  0  0  0  0  0  0  0
  -17.8676   29.4193   12.5797 F   0  0  0  0  0  0  0  0  0  0  0  0
  -16.5753   30.6607   13.8325 F   0  0  0  0  0  0  0  0  0  0  0  0
  -22.2649   34.7379    8.2615 C   0  0  0  0  0  0  0  0  0  0  0  0
  -21.3127   32.9880    6.2967 O   0  0  0  0  0  0  0  0  0  0  0  0
  -22.3205   33.6484    6.0683 C   0  0  0  0  0  0  0  0  0  0  0  0
  -22.8999   34.4782    6.9970 N   0  0  0  0  0  0  0  0  0  0  0  0
  -23.7646   34.9026    6.7938 H   0  0  0  0  0  0  0  0  0  0  0  0
  -22.9682   33.5671    4.7240 C   0  0  0  0  0  0  0  0  0  0  0  0
  -24.3379   33.2604    4.6900 C   0  0  0  0  0  0  0  0  0  0  0  0
  -25.0016   33.1700    3.4578 C   0  0  0  0  0  0  0  0  0  0  0  0
  -24.3471   33.3715    2.2436 C   0  0  0  0  0  0  0  0  0  0  0  0
  -25.2137   33.2463    0.5595 Br  0  0  0  0  0  0  0  0  0  0  0  0
  -22.9859   33.6725    2.2874 C   0  0  0  0  0  0  0  0  0  0  0  0
  -22.2356   33.8879    1.1557 O   0  0  0  0  0  0  0  0  0  0  0  0
  -22.3014   33.7697    3.5087 C   0  0  0  0  0  0  0  0  0  0  0  0
  -20.9593   34.0610    3.4535 O   0  0  0  0  0  0  0  0  0  0  0  0
  -22.6371   33.8366    0.3106 H   0  0  0  0  0  0  0  0  0  0  0  0
  -20.5418   34.1911    2.6248 H   0  0  0  0  0  0  0  0  0  0  0  0
  -26.4095   32.8591    3.4825 N   0  0  0  0  0  0  0  0  0  0  0  0
  -27.1840   33.8008    3.6872 O   0  0  0  0  0  0  0  0  0  0  0  0
  -26.7215   31.6759    3.3057 O   0  0  0  0  0  0  0  0  0  0  0  0
 22 23  2  0
 23 24  1  0
 24 21  1  0
 21  1  1  0
  1  2  2  0
  3  2  1  0
  3  4  1  0
  4  5  1  0
  5 12  1  0
 12 13  1  0
 13 14  2  0
 14 15  1  0
 15 17  1  0
 17 18  1  0
 17 19  1  0
 17 20  1  0
 15 16  2  0
  5  6  1  0
  6  7  1  0
  6  8  1  0
  8  9  1  0
 23 26  1  0
 26 27  2  0
 27 28  1  0
 28 37  1  0
 37 38  2  0
 37 39  1  0
 28 29  2  0
 29 30  1  0
 29 31  1  0
 31 32  1  0
 31 33  2  0
 33 34  1  0
  8  3  1  0
 33 26  1  0
 16 12  1  0
 24 25  1  0
  7 10  1  0
  9 11  1  0
 32 35  1  0
 34 36  1  0
M  CHG 1  37   1
M  CHG 1  39  -1
M  END
> <minimizedAffinity>
-6.04261

> <CNNscore>
0.2128376961

> <CNNaffinity>
4.3250102997

> <CNN_VS>
0.9205252528

> <CNNaffinity_variance>
0.6488082409

$$$$
