


 38 40  0  0  0  0  0  0  0  0999 V2000
   14.1168    8.5470    0.7581 C   0  0  0  0  0  0  0  0  0  0  0  0
   14.8103    9.3825    1.8352 C   0  0  0  0  0  0  0  0  0  0  0  0
   13.7539   10.4492    2.0916 C   0  0  0  0  0  0  0  0  0  0  0  0
   13.2527   10.8005    0.7814 O   0  0  0  0  0  0  0  0  0  0  0  0
   13.4624    9.6569   -0.0887 C   0  0  0  0  0  0  0  0  0  0  0  0
   14.2661   10.0713   -1.2263 N   0  0  0  0  0  0  0  0  0  0  0  0
   15.4584   10.7470   -1.2140 C   0  0  0  0  0  0  0  0  0  0  0  0
   15.9212   10.9518   -2.4299 N   0  0  0  0  0  0  0  0  0  0  0  0
   14.9577   10.4292   -3.2676 C   0  0  0  0  0  0  0  0  0  0  0  0
   14.8514   10.3563   -4.6659 C   0  0  0  0  0  0  0  0  0  0  0  0
   15.8074   10.8733   -5.5285 N   0  0  0  0  0  0  0  0  0  0  0  0
   13.7758    9.7312   -5.1994 N   0  0  0  0  0  0  0  0  0  0  0  0
   12.8418    9.2332   -4.3606 C   0  0  0  0  0  0  0  0  0  0  0  0
   12.8340    9.2475   -3.0120 N   0  0  0  0  0  0  0  0  0  0  0  0
   13.9253    9.8674   -2.5365 C   0  0  0  0  0  0  0  0  0  0  0  0
   16.5996   11.3328   -5.1669 H   0  0  0  0  0  0  0  0  0  0  0  0
   15.6936   10.7808   -6.5020 H   0  0  0  0  0  0  0  0  0  0  0  0
   12.2664    8.4143    2.2627 C   0  0  0  0  0  0  0  0  0  0  0  0
   13.0628    7.7311    1.3040 O   0  0  0  0  0  0  0  0  0  0  0  0
   15.1310    8.6633    3.0167 O   0  0  0  0  0  0  0  0  0  0  0  0
   16.5231    8.6731    3.3128 C   0  0  0  0  0  0  0  0  0  0  0  0
   14.3383   11.6776    2.7828 C   0  0  0  0  0  0  0  0  0  0  0  0
   15.6291   11.9484    2.2503 O   0  0  0  0  0  0  0  0  0  0  0  0
   16.6959   12.6762    3.2304 S   0  0  0  0  0  0  0  0  0  0  0  0
   17.0547   11.7278    4.2646 O   0  0  0  0  0  0  0  0  0  0  0  0
   16.1948   13.9860    3.5855 O   0  0  0  0  0  0  0  0  0  0  0  0
   18.0395   12.8663    2.3121 N   0  0  0  0  0  0  0  0  0  0  0  0
   18.5726   11.9029    1.4451 C   0  0  0  0  0  0  0  0  0  0  0  0
   18.0445   10.8173    1.2516 O   0  0  0  0  0  0  0  0  0  0  0  0
   18.5110   13.7283    2.3745 H   0  0  0  0  0  0  0  0  0  0  0  0
   19.9185   12.3425    0.7900 C   0  0  0  0  0  0  0  0  0  0  0  0
   19.8171   12.1552   -0.6933 N   0  0  0  0  0  0  0  0  0  0  0  0
   19.6678   11.1681   -0.9020 H   0  0  0  0  0  0  0  0  0  0  0  0
   20.6810   12.4693   -1.1355 H   0  0  0  0  0  0  0  0  0  0  0  0
   21.1745   11.6460    1.4146 C   0  0  0  0  0  0  0  0  0  0  0  0
   21.5435   10.3832    0.6014 C   0  0  0  0  0  0  0  0  0  0  0  0
   20.9387   11.2279    2.8803 C   0  0  0  0  0  0  0  0  0  0  0  0
   22.4046   12.5813    1.3685 C   0  0  0  0  0  0  0  0  0  0  0  0
 18 19  1  0
  1 19  1  0
  1  2  1  0
  2 20  1  0
 20 21  1  0
  2  3  1  0
  3 22  1  0
 22 23  1  0
 23 24  1  0
 24 25  2  0
 24 26  2  0
 24 27  1  0
 27 28  1  0
 28 29  2  0
 28 31  1  0
 31 32  1  0
 31 35  1  0
 35 36  1  0
 35 37  1  0
 35 38  1  0
  3  4  1  0
  4  5  1  0
  5  6  1  0
  6  7  1  0
  7  8  2  0
  8  9  1  0
  9 10  2  0
 10 11  1  0
 10 12  1  0
 12 13  2  0
 13 14  1  0
 14 15  2  0
  5  1  1  0
 15  6  1  0
 15  9  1  0
 27 30  1  0
 32 33  1  0
 32 34  1  0
 11 16  1  0
 11 17  1  0
M  END
> <minimizedAffinity>
-8.87849

> <CNNscore>
0.7147104144

> <CNNaffinity>
5.9753932953

> <CNN_VS>
4.2706756592

> <CNNaffinity_variance>
0.6082394719

$$$$



 38 40  0  0  0  0  0  0  0  0999 V2000
   21.6293   10.3351    1.3133 C   0  0  0  0  0  0  0  0  0  0  0  0
   20.4285    9.3885    1.3462 C   0  0  0  0  0  0  0  0  0  0  0  0
   19.4588   10.1892    2.2055 C   0  0  0  0  0  0  0  0  0  0  0  0
   20.2707   10.7441    3.2658 O   0  0  0  0  0  0  0  0  0  0  0  0
   21.6309   10.8471    2.7677 C   0  0  0  0  0  0  0  0  0  0  0  0
   22.5129   10.0986    3.6473 N   0  0  0  0  0  0  0  0  0  0  0  0
   22.3149    8.8491    4.1744 C   0  0  0  0  0  0  0  0  0  0  0  0
   23.3263    8.4652    4.9255 N   0  0  0  0  0  0  0  0  0  0  0  0
   24.1943    9.5376    4.9246 C   0  0  0  0  0  0  0  0  0  0  0  0
   25.4321    9.7597    5.5494 C   0  0  0  0  0  0  0  0  0  0  0  0
   26.0433    8.8285    6.3769 N   0  0  0  0  0  0  0  0  0  0  0  0
   26.0720   10.9293    5.3158 N   0  0  0  0  0  0  0  0  0  0  0  0
   25.4748   11.8386    4.5155 C   0  0  0  0  0  0  0  0  0  0  0  0
   24.2953   11.7393    3.8691 N   0  0  0  0  0  0  0  0  0  0  0  0
   23.7100   10.5591    4.1259 C   0  0  0  0  0  0  0  0  0  0  0  0
   25.5996    7.9696    6.5636 H   0  0  0  0  0  0  0  0  0  0  0  0
   26.9205    9.0266    6.7774 H   0  0  0  0  0  0  0  0  0  0  0  0
   21.9004   12.6849    0.9818 C   0  0  0  0  0  0  0  0  0  0  0  0
   21.4018   11.4650    0.4496 O   0  0  0  0  0  0  0  0  0  0  0  0
   19.8815    9.0933    0.0697 O   0  0  0  0  0  0  0  0  0  0  0  0
   19.0825   10.1499   -0.4505 C   0  0  0  0  0  0  0  0  0  0  0  0
   18.3534    9.3130    2.7872 C   0  0  0  0  0  0  0  0  0  0  0  0
   17.1022    9.7046    2.2356 O   0  0  0  0  0  0  0  0  0  0  0  0
   16.1173   10.5779    3.1820 S   0  0  0  0  0  0  0  0  0  0  0  0
   14.7634   10.3688    2.7121 O   0  0  0  0  0  0  0  0  0  0  0  0
   16.6464   11.9187    3.3056 O   0  0  0  0  0  0  0  0  0  0  0  0
   16.1994    9.8509    4.6481 N   0  0  0  0  0  0  0  0  0  0  0  0
   15.5531   10.2932    5.8103 C   0  0  0  0  0  0  0  0  0  0  0  0
   14.8088   11.2631    5.8293 O   0  0  0  0  0  0  0  0  0  0  0  0
   16.7480    9.0364    4.7184 H   0  0  0  0  0  0  0  0  0  0  0  0
   15.9111    9.4490    7.0724 C   0  0  0  0  0  0  0  0  0  0  0  0
   16.9145    8.4051    6.6861 N   0  0  0  0  0  0  0  0  0  0  0  0
   16.5056    7.7815    5.9902 H   0  0  0  0  0  0  0  0  0  0  0  0
   17.1798    7.8668    7.5109 H   0  0  0  0  0  0  0  0  0  0  0  0
   14.6593    8.8590    7.8055 C   0  0  0  0  0  0  0  0  0  0  0  0
   15.0908    7.7366    8.7783 C   0  0  0  0  0  0  0  0  0  0  0  0
   13.6284    8.2756    6.8177 C   0  0  0  0  0  0  0  0  0  0  0  0
   13.9569    9.9414    8.6571 C   0  0  0  0  0  0  0  0  0  0  0  0
 18 19  1  0
  1 19  1  0
  1  2  1  0
  2 20  1  0
 20 21  1  0
  2  3  1  0
  3 22  1  0
 22 23  1  0
 23 24  1  0
 24 25  2  0
 24 26  2  0
 24 27  1  0
 27 28  1  0
 28 29  2  0
 28 31  1  0
 31 32  1  0
 31 35  1  0
 35 36  1  0
 35 37  1  0
 35 38  1  0
  3  4  1  0
  4  5  1  0
  5  6  1  0
  6  7  1  0
  7  8  2  0
  8  9  1  0
  9 10  2  0
 10 11  1  0
 10 12  1  0
 12 13  2  0
 13 14  1  0
 14 15  2  0
  5  1  1  0
 15  6  1  0
 15  9  1  0
 27 30  1  0
 32 33  1  0
 32 34  1  0
 11 16  1  0
 11 17  1  0
M  END
> <minimizedAffinity>
-8.19509

> <CNNscore>
0.0956033915

> <CNNaffinity>
5.2632822990

> <CNN_VS>
0.5031876564

> <CNNaffinity_variance>
0.3627871573

$$$$



 38 40  0  0  0  0  0  0  0  0999 V2000
   21.7680   10.4429    1.5803 C   0  0  0  0  0  0  0  0  0  0  0  0
   20.5445    9.5866    1.9107 C   0  0  0  0  0  0  0  0  0  0  0  0
   19.7718   10.5338    2.8194 C   0  0  0  0  0  0  0  0  0  0  0  0
   20.7751   11.1388    3.6672 O   0  0  0  0  0  0  0  0  0  0  0  0
   22.0368   11.0996    2.9491 C   0  0  0  0  0  0  0  0  0  0  0  0
   23.0152   10.3878    3.7540 N   0  0  0  0  0  0  0  0  0  0  0  0
   22.9652    9.0883    4.1867 C   0  0  0  0  0  0  0  0  0  0  0  0
   24.0301    8.7617    4.8894 N   0  0  0  0  0  0  0  0  0  0  0  0
   24.7779    9.9192    4.9568 C   0  0  0  0  0  0  0  0  0  0  0  0
   25.9997   10.2273    5.5765 C   0  0  0  0  0  0  0  0  0  0  0  0
   26.7273    9.3089    6.3199 N   0  0  0  0  0  0  0  0  0  0  0  0
   26.5047   11.4737    5.4231 N   0  0  0  0  0  0  0  0  0  0  0  0
   25.7940   12.3699    4.7049 C   0  0  0  0  0  0  0  0  0  0  0  0
   24.6164   12.1914    4.0722 N   0  0  0  0  0  0  0  0  0  0  0  0
   24.1674   10.9387    4.2470 C   0  0  0  0  0  0  0  0  0  0  0  0
   26.3830    8.3954    6.4471 H   0  0  0  0  0  0  0  0  0  0  0  0
   27.5879    9.5708    6.7200 H   0  0  0  0  0  0  0  0  0  0  0  0
   21.9962   12.7522    1.0143 C   0  0  0  0  0  0  0  0  0  0  0  0
   21.4553   11.4912    0.6434 O   0  0  0  0  0  0  0  0  0  0  0  0
   19.7789    9.1997    0.7794 O   0  0  0  0  0  0  0  0  0  0  0  0
   20.5720    8.6515   -0.2675 C   0  0  0  0  0  0  0  0  0  0  0  0
   18.7372    9.7971    3.6650 C   0  0  0  0  0  0  0  0  0  0  0  0
   17.4866    9.7996    2.9874 O   0  0  0  0  0  0  0  0  0  0  0  0
   16.8144   11.2426    2.6805 S   0  0  0  0  0  0  0  0  0  0  0  0
   17.8227   12.2535    2.9235 O   0  0  0  0  0  0  0  0  0  0  0  0
   15.5321   11.3181    3.3460 O   0  0  0  0  0  0  0  0  0  0  0  0
   16.5594   11.2450    1.0619 N   0  0  0  0  0  0  0  0  0  0  0  0
   15.6567   10.4165    0.3816 C   0  0  0  0  0  0  0  0  0  0  0  0
   14.9201    9.6251    0.9526 O   0  0  0  0  0  0  0  0  0  0  0  0
   17.0835   11.8807    0.5229 H   0  0  0  0  0  0  0  0  0  0  0  0
   15.7185   10.5815   -1.1685 C   0  0  0  0  0  0  0  0  0  0  0  0
   16.1683   11.9747   -1.4880 N   0  0  0  0  0  0  0  0  0  0  0  0
   15.4901   12.6432   -1.1225 H   0  0  0  0  0  0  0  0  0  0  0  0
   16.2427   12.0844   -2.4994 H   0  0  0  0  0  0  0  0  0  0  0  0
   14.3890   10.1817   -1.8932 C   0  0  0  0  0  0  0  0  0  0  0  0
   14.0716    8.6893   -1.6399 C   0  0  0  0  0  0  0  0  0  0  0  0
   14.4660   10.4099   -3.4166 C   0  0  0  0  0  0  0  0  0  0  0  0
   13.1938   10.9917   -1.3407 C   0  0  0  0  0  0  0  0  0  0  0  0
 18 19  1  0
  1 19  1  0
  1  2  1  0
  2 20  1  0
 20 21  1  0
  2  3  1  0
  3 22  1  0
 22 23  1  0
 23 24  1  0
 24 25  2  0
 24 26  2  0
 24 27  1  0
 27 28  1  0
 28 29  2  0
 28 31  1  0
 31 32  1  0
 31 35  1  0
 35 36  1  0
 35 37  1  0
 35 38  1  0
  3  4  1  0
  4  5  1  0
  5  6  1  0
  6  7  1  0
  7  8  2  0
  8  9  1  0
  9 10  2  0
 10 11  1  0
 10 12  1  0
 12 13  2  0
 13 14  1  0
 14 15  2  0
  5  1  1  0
 15  6  1  0
 15  9  1  0
 27 30  1  0
 32 33  1  0
 32 34  1  0
 11 16  1  0
 11 17  1  0
M  END
> <minimizedAffinity>
-7.91136

> <CNNscore>
0.0629935414

> <CNNaffinity>
4.3880286217

> <CNN_VS>
0.2764174640

> <CNNaffinity_variance>
0.8489487767

$$$$



 38 40  0  0  0  0  0  0  0  0999 V2000
   20.8256   11.4288    0.7085 C   0  0  0  0  0  0  0  0  0  0  0  0
   19.3712   11.2815    0.2589 C   0  0  0  0  0  0  0  0  0  0  0  0
   18.6580   12.0912    1.3338 C   0  0  0  0  0  0  0  0  0  0  0  0
   19.3195   11.7351    2.5695 O   0  0  0  0  0  0  0  0  0  0  0  0
   20.6669   11.3072    2.2374 C   0  0  0  0  0  0  0  0  0  0  0  0
   20.8699    9.9582    2.7381 N   0  0  0  0  0  0  0  0  0  0  0  0
   20.0333    8.8795    2.6161 C   0  0  0  0  0  0  0  0  0  0  0  0
   20.5351    7.8005    3.1803 N   0  0  0  0  0  0  0  0  0  0  0  0
   21.7276    8.2146    3.7369 C   0  0  0  0  0  0  0  0  0  0  0  0
   22.7108    7.5467    4.4846 C   0  0  0  0  0  0  0  0  0  0  0  0
   22.6192    6.2072    4.8351 N   0  0  0  0  0  0  0  0  0  0  0  0
   23.8127    8.2358    4.8628 N   0  0  0  0  0  0  0  0  0  0  0  0
   23.8996    9.5411    4.5274 C   0  0  0  0  0  0  0  0  0  0  0  0
   23.0235   10.2847    3.8214 N   0  0  0  0  0  0  0  0  0  0  0  0
   21.9578    9.5517    3.4629 C   0  0  0  0  0  0  0  0  0  0  0  0
   21.8286    5.6826    4.5727 H   0  0  0  0  0  0  0  0  0  0  0  0
   23.3450    5.7814    5.3462 H   0  0  0  0  0  0  0  0  0  0  0  0
   22.3598   13.1493    1.3341 C   0  0  0  0  0  0  0  0  0  0  0  0
   21.3480   12.7405    0.4235 O   0  0  0  0  0  0  0  0  0  0  0  0
   19.1077   11.7850   -1.0423 O   0  0  0  0  0  0  0  0  0  0  0  0
   18.2747   10.9258   -1.8126 C   0  0  0  0  0  0  0  0  0  0  0  0
   17.1720   11.7537    1.4115 C   0  0  0  0  0  0  0  0  0  0  0  0
   16.8901   11.1542    2.6701 O   0  0  0  0  0  0  0  0  0  0  0  0
   15.7024   11.8142    3.5545 S   0  0  0  0  0  0  0  0  0  0  0  0
   14.4443   11.3313    3.0239 O   0  0  0  0  0  0  0  0  0  0  0  0
   15.9416   13.2352    3.6821 O   0  0  0  0  0  0  0  0  0  0  0  0
   15.8571   11.1274    5.0341 N   0  0  0  0  0  0  0  0  0  0  0  0
   15.8499    9.7503    5.2941 C   0  0  0  0  0  0  0  0  0  0  0  0
   15.7727    8.9073    4.4119 O   0  0  0  0  0  0  0  0  0  0  0  0
   15.9639   11.7319    5.8038 H   0  0  0  0  0  0  0  0  0  0  0  0
   15.9107    9.4113    6.8156 C   0  0  0  0  0  0  0  0  0  0  0  0
   16.6801    8.1381    6.9962 N   0  0  0  0  0  0  0  0  0  0  0  0
   16.1962    7.3778    6.5186 H   0  0  0  0  0  0  0  0  0  0  0  0
   16.7533    7.9232    7.9906 H   0  0  0  0  0  0  0  0  0  0  0  0
   14.5056    9.3854    7.5069 C   0  0  0  0  0  0  0  0  0  0  0  0
   14.5523    8.5039    8.7768 C   0  0  0  0  0  0  0  0  0  0  0  0
   13.4085    8.8343    6.5733 C   0  0  0  0  0  0  0  0  0  0  0  0
   14.0883   10.8024    7.9628 C   0  0  0  0  0  0  0  0  0  0  0  0
 18 19  1  0
  1 19  1  0
  1  2  1  0
  2 20  1  0
 20 21  1  0
  2  3  1  0
  3 22  1  0
 22 23  1  0
 23 24  1  0
 24 25  2  0
 24 26  2  0
 24 27  1  0
 27 28  1  0
 28 29  2  0
 28 31  1  0
 31 32  1  0
 31 35  1  0
 35 36  1  0
 35 37  1  0
 35 38  1  0
  3  4  1  0
  4  5  1  0
  5  6  1  0
  6  7  1  0
  7  8  2  0
  8  9  1  0
  9 10  2  0
 10 11  1  0
 10 12  1  0
 12 13  2  0
 13 14  1  0
 14 15  2  0
  5  1  1  0
 15  6  1  0
 15  9  1  0
 27 30  1  0
 32 33  1  0
 32 34  1  0
 11 16  1  0
 11 17  1  0
M  END
> <minimizedAffinity>
-8.82242

> <CNNscore>
0.0505704917

> <CNNaffinity>
4.8240399361

> <CNN_VS>
0.2439540774

> <CNNaffinity_variance>
0.7625944018

$$$$



 38 40  0  0  0  0  0  0  0  0999 V2000
   20.8760    9.9712    0.8618 C   0  0  0  0  0  0  0  0  0  0  0  0
   19.5177   10.4560    0.3525 C   0  0  0  0  0  0  0  0  0  0  0  0
   19.2098   11.5524    1.3638 C   0  0  0  0  0  0  0  0  0  0  0  0
   19.6153   11.0070    2.6403 O   0  0  0  0  0  0  0  0  0  0  0  0
   20.6425   10.0127    2.3853 C   0  0  0  0  0  0  0  0  0  0  0  0
   20.2159    8.7406    2.9436 N   0  0  0  0  0  0  0  0  0  0  0  0
   18.9801    8.4077    3.4338 C   0  0  0  0  0  0  0  0  0  0  0  0
   18.9362    7.1602    3.8535 N   0  0  0  0  0  0  0  0  0  0  0  0
   20.2174    6.6812    3.6731 C   0  0  0  0  0  0  0  0  0  0  0  0
   20.8154    5.4397    3.9433 C   0  0  0  0  0  0  0  0  0  0  0  0
   20.1325    4.3762    4.5161 N   0  0  0  0  0  0  0  0  0  0  0  0
   22.1148    5.2630    3.6080 N   0  0  0  0  0  0  0  0  0  0  0  0
   22.7817    6.2996    3.0563 C   0  0  0  0  0  0  0  0  0  0  0  0
   22.3176    7.5299    2.7563 N   0  0  0  0  0  0  0  0  0  0  0  0
   21.0250    7.6471    3.0980 C   0  0  0  0  0  0  0  0  0  0  0  0
   19.1866    4.4778    4.7694 H   0  0  0  0  0  0  0  0  0  0  0  0
   20.5939    3.5201    4.6692 H   0  0  0  0  0  0  0  0  0  0  0  0
   22.0637   11.9369    1.5180 C   0  0  0  0  0  0  0  0  0  0  0  0
   21.9311   10.9018    0.5531 O   0  0  0  0  0  0  0  0  0  0  0  0
   19.5359   10.9548   -0.9767 O   0  0  0  0  0  0  0  0  0  0  0  0
   18.3145   10.7295   -1.6717 C   0  0  0  0  0  0  0  0  0  0  0  0
   17.7263   11.9085    1.3865 C   0  0  0  0  0  0  0  0  0  0  0  0
   17.0794   11.1676    2.4140 O   0  0  0  0  0  0  0  0  0  0  0  0
   16.1781   12.0020    3.4722 S   0  0  0  0  0  0  0  0  0  0  0  0
   14.7921   11.8462    3.0818 O   0  0  0  0  0  0  0  0  0  0  0  0
   16.7442   13.3230    3.6374 O   0  0  0  0  0  0  0  0  0  0  0  0
   16.3389   11.1885    4.8854 N   0  0  0  0  0  0  0  0  0  0  0  0
   16.0558    9.8291    5.0758 C   0  0  0  0  0  0  0  0  0  0  0  0
   15.6972    9.0911    4.1693 O   0  0  0  0  0  0  0  0  0  0  0  0
   16.6610   11.6963    5.6649 H   0  0  0  0  0  0  0  0  0  0  0  0
   16.2073    9.3712    6.5594 C   0  0  0  0  0  0  0  0  0  0  0  0
   17.0476    8.1311    6.5984 N   0  0  0  0  0  0  0  0  0  0  0  0
   16.5799    7.3870    6.0807 H   0  0  0  0  0  0  0  0  0  0  0  0
   17.1797    7.8402    7.5670 H   0  0  0  0  0  0  0  0  0  0  0  0
   14.8405    9.2132    7.3074 C   0  0  0  0  0  0  0  0  0  0  0  0
   13.7457    8.7388    6.3233 C   0  0  0  0  0  0  0  0  0  0  0  0
   14.3744   10.5347    7.9519 C   0  0  0  0  0  0  0  0  0  0  0  0
   14.9386    8.1404    8.4162 C   0  0  0  0  0  0  0  0  0  0  0  0
 18 19  1  0
  1 19  1  0
  1  2  1  0
  2 20  1  0
 20 21  1  0
  2  3  1  0
  3 22  1  0
 22 23  1  0
 23 24  1  0
 24 25  2  0
 24 26  2  0
 24 27  1  0
 27 28  1  0
 28 29  2  0
 28 31  1  0
 31 32  1  0
 31 35  1  0
 35 36  1  0
 35 37  1  0
 35 38  1  0
  3  4  1  0
  4  5  1  0
  5  6  1  0
  6  7  1  0
  7  8  2  0
  8  9  1  0
  9 10  2  0
 10 11  1  0
 10 12  1  0
 12 13  2  0
 13 14  1  0
 14 15  2  0
  5  1  1  0
 15  6  1  0
 15  9  1  0
 27 30  1  0
 32 33  1  0
 32 34  1  0
 11 16  1  0
 11 17  1  0
M  END
> <minimizedAffinity>
-8.72353

> <CNNscore>
0.0471455120

> <CNNaffinity>
4.9193415642

> <CNN_VS>
0.2319248766

> <CNNaffinity_variance>
0.8289781213

$$$$



 38 40  0  0  0  0  0  0  0  0999 V2000
   20.1274    8.5265    3.8486 C   0  0  0  0  0  0  0  0  0  0  0  0
   19.7975    9.7857    3.0456 C   0  0  0  0  0  0  0  0  0  0  0  0
   20.3721    9.4138    1.6850 C   0  0  0  0  0  0  0  0  0  0  0  0
   21.6317    8.7659    1.9765 O   0  0  0  0  0  0  0  0  0  0  0  0
   21.5372    8.2058    3.3130 C   0  0  0  0  0  0  0  0  0  0  0  0
   22.6081    8.7517    4.1296 N   0  0  0  0  0  0  0  0  0  0  0  0
   22.7008   10.0092    4.6666 C   0  0  0  0  0  0  0  0  0  0  0  0
   23.8053   10.1659    5.3667 N   0  0  0  0  0  0  0  0  0  0  0  0
   24.4812    8.9706    5.2327 C   0  0  0  0  0  0  0  0  0  0  0  0
   25.7183    8.5180    5.7192 C   0  0  0  0  0  0  0  0  0  0  0  0
   26.5632    9.3014    6.4925 N   0  0  0  0  0  0  0  0  0  0  0  0
   26.0957    7.2484    5.4403 N   0  0  0  0  0  0  0  0  0  0  0  0
   25.2768    6.4875    4.6824 C   0  0  0  0  0  0  0  0  0  0  0  0
   24.0768    6.8126    4.1598 N   0  0  0  0  0  0  0  0  0  0  0  0
   23.7467    8.0748    4.4752 C   0  0  0  0  0  0  0  0  0  0  0  0
   26.3129   10.2283    6.7102 H   0  0  0  0  0  0  0  0  0  0  0  0
   27.4129    8.9303    6.8233 H   0  0  0  0  0  0  0  0  0  0  0  0
   19.6672    6.1952    4.0905 C   0  0  0  0  0  0  0  0  0  0  0  0
   19.2649    7.4256    3.5037 O   0  0  0  0  0  0  0  0  0  0  0  0
   18.4114   10.0838    2.9689 O   0  0  0  0  0  0  0  0  0  0  0  0
   17.6764    9.6019    4.0883 C   0  0  0  0  0  0  0  0  0  0  0  0
   20.5975   10.6401    0.8055 C   0  0  0  0  0  0  0  0  0  0  0  0
   19.8343   11.7289    1.3104 O   0  0  0  0  0  0  0  0  0  0  0  0
   18.9217   12.5476    0.2496 S   0  0  0  0  0  0  0  0  0  0  0  0
   19.3039   12.1151   -1.0787 O   0  0  0  0  0  0  0  0  0  0  0  0
   18.9437   13.9529    0.5925 O   0  0  0  0  0  0  0  0  0  0  0  0
   17.4028   11.9801    0.4852 N   0  0  0  0  0  0  0  0  0  0  0  0
   16.8891   10.7906   -0.0492 C   0  0  0  0  0  0  0  0  0  0  0  0
   17.5591   10.0196   -0.7212 O   0  0  0  0  0  0  0  0  0  0  0  0
   16.8014   12.5190    1.0484 H   0  0  0  0  0  0  0  0  0  0  0  0
   15.3769   10.5763    0.2683 C   0  0  0  0  0  0  0  0  0  0  0  0
   15.2315    9.3532    1.1219 N   0  0  0  0  0  0  0  0  0  0  0  0
   15.5687    8.5386    0.6090 H   0  0  0  0  0  0  0  0  0  0  0  0
   14.2490    9.2211    1.3621 H   0  0  0  0  0  0  0  0  0  0  0  0
   14.4682   10.5493   -1.0069 C   0  0  0  0  0  0  0  0  0  0  0  0
   15.1367   11.3414   -2.1549 C   0  0  0  0  0  0  0  0  0  0  0  0
   13.0766   11.1596   -0.7422 C   0  0  0  0  0  0  0  0  0  0  0  0
   14.2749    9.1028   -1.5168 C   0  0  0  0  0  0  0  0  0  0  0  0
 18 19  1  0
  1 19  1  0
  1  2  1  0
  2 20  1  0
 20 21  1  0
  2  3  1  0
  3 22  1  0
 22 23  1  0
 23 24  1  0
 24 25  2  0
 24 26  2  0
 24 27  1  0
 27 28  1  0
 28 29  2  0
 28 31  1  0
 31 32  1  0
 31 35  1  0
 35 36  1  0
 35 37  1  0
 35 38  1  0
  3  4  1  0
  4  5  1  0
  5  6  1  0
  6  7  1  0
  7  8  2  0
  8  9  1  0
  9 10  2  0
 10 11  1  0
 10 12  1  0
 12 13  2  0
 13 14  1  0
 14 15  2  0
  5  1  1  0
 15  6  1  0
 15  9  1  0
 27 30  1  0
 32 33  1  0
 32 34  1  0
 11 16  1  0
 11 17  1  0
M  END
> <minimizedAffinity>
-8.58704

> <CNNscore>
0.0432042219

> <CNNaffinity>
4.7218518257

> <CNN_VS>
0.2040039301

> <CNNaffinity_variance>
0.2690374255

$$$$



 38 40  0  0  0  0  0  0  0  0999 V2000
   15.8096    9.5225    2.1969 C   0  0  0  0  0  0  0  0  0  0  0  0
   17.2421    9.2542    2.6609 C   0  0  0  0  0  0  0  0  0  0  0  0
   17.6257   10.6240    3.2053 C   0  0  0  0  0  0  0  0  0  0  0  0
   17.0888   11.5685    2.2509 O   0  0  0  0  0  0  0  0  0  0  0  0
   15.9639   10.9313    1.5895 C   0  0  0  0  0  0  0  0  0  0  0  0
   16.2023   10.9241    0.1560 N   0  0  0  0  0  0  0  0  0  0  0  0
   17.3715   11.1970   -0.5049 C   0  0  0  0  0  0  0  0  0  0  0  0
   17.2369   11.0864   -1.8103 N   0  0  0  0  0  0  0  0  0  0  0  0
   15.9062   10.7780   -2.0036 C   0  0  0  0  0  0  0  0  0  0  0  0
   15.1396   10.5559   -3.1590 C   0  0  0  0  0  0  0  0  0  0  0  0
   15.6600   10.6354   -4.4429 N   0  0  0  0  0  0  0  0  0  0  0  0
   13.8350   10.2257   -3.0140 N   0  0  0  0  0  0  0  0  0  0  0  0
   13.3263   10.1544   -1.7650 C   0  0  0  0  0  0  0  0  0  0  0  0
   13.9594   10.3495   -0.5902 N   0  0  0  0  0  0  0  0  0  0  0  0
   15.2490   10.6623   -0.7910 C   0  0  0  0  0  0  0  0  0  0  0  0
   16.6058   10.8735   -4.5768 H   0  0  0  0  0  0  0  0  0  0  0  0
   15.0834   10.4536   -5.2199 H   0  0  0  0  0  0  0  0  0  0  0  0
   13.8415   10.5481    3.0800 C   0  0  0  0  0  0  0  0  0  0  0  0
   14.8933    9.6189    3.3041 O   0  0  0  0  0  0  0  0  0  0  0  0
   17.3563    8.2427    3.6506 O   0  0  0  0  0  0  0  0  0  0  0  0
   17.3598    8.7601    4.9764 C   0  0  0  0  0  0  0  0  0  0  0  0
   19.1381   10.7894    3.3217 C   0  0  0  0  0  0  0  0  0  0  0  0
   19.7732   10.0683    2.2730 O   0  0  0  0  0  0  0  0  0  0  0  0
   21.3918   10.1313    2.2064 S   0  0  0  0  0  0  0  0  0  0  0  0
   21.8270   11.1479    3.1418 O   0  0  0  0  0  0  0  0  0  0  0  0
   21.8061   10.1905    0.8216 O   0  0  0  0  0  0  0  0  0  0  0  0
   21.8883    8.7023    2.8356 N   0  0  0  0  0  0  0  0  0  0  0  0
   21.8382    8.3517    4.1916 C   0  0  0  0  0  0  0  0  0  0  0  0
   21.3626    9.0811    5.0500 O   0  0  0  0  0  0  0  0  0  0  0  0
   22.2518    8.0350    2.2096 H   0  0  0  0  0  0  0  0  0  0  0  0
   22.4824    6.9630    4.4921 C   0  0  0  0  0  0  0  0  0  0  0  0
   23.9307    7.0101    4.1103 N   0  0  0  0  0  0  0  0  0  0  0  0
   24.0129    7.1905    3.1097 H   0  0  0  0  0  0  0  0  0  0  0  0
   24.3700    6.1166    4.3318 H   0  0  0  0  0  0  0  0  0  0  0  0
   21.7127    5.7633    3.8432 C   0  0  0  0  0  0  0  0  0  0  0  0
   21.9536    5.7389    2.3156 C   0  0  0  0  0  0  0  0  0  0  0  0
   20.1930    5.8439    4.0939 C   0  0  0  0  0  0  0  0  0  0  0  0
   22.2253    4.4141    4.3970 C   0  0  0  0  0  0  0  0  0  0  0  0
 18 19  1  0
  1 19  1  0
  1  2  1  0
  2 20  1  0
 20 21  1  0
  2  3  1  0
  3 22  1  0
 22 23  1  0
 23 24  1  0
 24 25  2  0
 24 26  2  0
 24 27  1  0
 27 28  1  0
 28 29  2  0
 28 31  1  0
 31 32  1  0
 31 35  1  0
 35 36  1  0
 35 37  1  0
 35 38  1  0
  3  4  1  0
  4  5  1  0
  5  6  1  0
  6  7  1  0
  7  8  2  0
  8  9  1  0
  9 10  2  0
 10 11  1  0
 10 12  1  0
 12 13  2  0
 13 14  1  0
 14 15  2  0
  5  1  1  0
 15  6  1  0
 15  9  1  0
 27 30  1  0
 32 33  1  0
 32 34  1  0
 11 16  1  0
 11 17  1  0
M  END
> <minimizedAffinity>
-7.68064

> <CNNscore>
0.0419683568

> <CNNaffinity>
4.4360952377

> <CNN_VS>
0.1861756295

> <CNNaffinity_variance>
1.2895944118

$$$$



 38 40  0  0  0  0  0  0  0  0999 V2000
   21.7636    9.4655    2.8264 C   0  0  0  0  0  0  0  0  0  0  0  0
   20.3802    9.1187    2.2740 C   0  0  0  0  0  0  0  0  0  0  0  0
   19.5106    9.3904    3.4945 C   0  0  0  0  0  0  0  0  0  0  0  0
   20.2578    8.8560    4.6114 O   0  0  0  0  0  0  0  0  0  0  0  0
   21.6630    8.8712    4.2456 C   0  0  0  0  0  0  0  0  0  0  0  0
   22.1919    7.5217    4.3503 N   0  0  0  0  0  0  0  0  0  0  0  0
   21.5313    6.3394    4.1408 C   0  0  0  0  0  0  0  0  0  0  0  0
   22.3192    5.2979    4.3111 N   0  0  0  0  0  0  0  0  0  0  0  0
   23.5312    5.8311    4.6985 C   0  0  0  0  0  0  0  0  0  0  0  0
   24.7599    5.2465    5.0455 C   0  0  0  0  0  0  0  0  0  0  0  0
   24.9688    3.8749    5.0698 N   0  0  0  0  0  0  0  0  0  0  0  0
   25.7984    6.0599    5.3491 N   0  0  0  0  0  0  0  0  0  0  0  0
   25.5941    7.3948    5.3318 C   0  0  0  0  0  0  0  0  0  0  0  0
   24.4662    8.0657    5.0211 N   0  0  0  0  0  0  0  0  0  0  0  0
   23.4741    7.2139    4.7181 C   0  0  0  0  0  0  0  0  0  0  0  0
   24.2305    3.2607    4.8531 H   0  0  0  0  0  0  0  0  0  0  0  0
   25.8552    3.5160    5.3037 H   0  0  0  0  0  0  0  0  0  0  0  0
   23.0526   11.2322    3.7868 C   0  0  0  0  0  0  0  0  0  0  0  0
   21.9511   10.8875    2.9573 O   0  0  0  0  0  0  0  0  0  0  0  0
   19.9829    9.9022    1.1586 O   0  0  0  0  0  0  0  0  0  0  0  0
   20.3531    9.3231   -0.0876 C   0  0  0  0  0  0  0  0  0  0  0  0
   18.1505    8.7067    3.3906 C   0  0  0  0  0  0  0  0  0  0  0  0
   17.2445    9.5615    2.7039 O   0  0  0  0  0  0  0  0  0  0  0  0
   15.8078    9.8324    3.4044 S   0  0  0  0  0  0  0  0  0  0  0  0
   14.9403    8.7243    3.0619 O   0  0  0  0  0  0  0  0  0  0  0  0
   15.3961   11.1916    3.1291 O   0  0  0  0  0  0  0  0  0  0  0  0
   16.0975    9.6937    5.0111 N   0  0  0  0  0  0  0  0  0  0  0  0
   15.2524    9.0667    5.9368 C   0  0  0  0  0  0  0  0  0  0  0  0
   14.2134    8.5075    5.6163 O   0  0  0  0  0  0  0  0  0  0  0  0
   16.9341   10.0829    5.3546 H   0  0  0  0  0  0  0  0  0  0  0  0
   15.7530    9.1906    7.4091 C   0  0  0  0  0  0  0  0  0  0  0  0
   16.1453    7.8308    7.9016 N   0  0  0  0  0  0  0  0  0  0  0  0
   15.3304    7.2175    7.8920 H   0  0  0  0  0  0  0  0  0  0  0  0
   16.5042    7.9044    8.8536 H   0  0  0  0  0  0  0  0  0  0  0  0
   14.7396    9.9198    8.3546 C   0  0  0  0  0  0  0  0  0  0  0  0
   13.7619    8.8968    8.9788 C   0  0  0  0  0  0  0  0  0  0  0  0
   13.9140   10.9879    7.6088 C   0  0  0  0  0  0  0  0  0  0  0  0
   15.4753   10.6068    9.5280 C   0  0  0  0  0  0  0  0  0  0  0  0
 18 19  1  0
  1 19  1  0
  1  2  1  0
  2 20  1  0
 20 21  1  0
  2  3  1  0
  3 22  1  0
 22 23  1  0
 23 24  1  0
 24 25  2  0
 24 26  2  0
 24 27  1  0
 27 28  1  0
 28 29  2  0
 28 31  1  0
 31 32  1  0
 31 35  1  0
 35 36  1  0
 35 37  1  0
 35 38  1  0
  3  4  1  0
  4  5  1  0
  5  6  1  0
  6  7  1  0
  7  8  2  0
  8  9  1  0
  9 10  2  0
 10 11  1  0
 10 12  1  0
 12 13  2  0
 13 14  1  0
 14 15  2  0
  5  1  1  0
 15  6  1  0
 15  9  1  0
 27 30  1  0
 32 33  1  0
 32 34  1  0
 11 16  1  0
 11 17  1  0
M  END
> <minimizedAffinity>
-8.61799

> <CNNscore>
0.0382725559

> <CNNaffinity>
4.7421298027

> <CNN_VS>
0.1814934313

> <CNNaffinity_variance>
0.7693468928

$$$$



 38 40  0  0  0  0  0  0  0  0999 V2000
   18.0556   12.0940    1.2039 C   0  0  0  0  0  0  0  0  0  0  0  0
   17.0794   11.8644    2.3587 C   0  0  0  0  0  0  0  0  0  0  0  0
   17.4499   10.4443    2.7659 C   0  0  0  0  0  0  0  0  0  0  0  0
   17.6427    9.7370    1.5194 O   0  0  0  0  0  0  0  0  0  0  0  0
   18.0111   10.7165    0.5126 C   0  0  0  0  0  0  0  0  0  0  0  0
   17.0601   10.6460   -0.5839 N   0  0  0  0  0  0  0  0  0  0  0  0
   17.2604   10.9869   -1.8962 C   0  0  0  0  0  0  0  0  0  0  0  0
   16.1835   10.7864   -2.6273 N   0  0  0  0  0  0  0  0  0  0  0  0
   15.2282   10.3440   -1.7356 C   0  0  0  0  0  0  0  0  0  0  0  0
   13.8799    9.9827   -1.8881 C   0  0  0  0  0  0  0  0  0  0  0  0
   13.2125   10.0335   -3.1036 N   0  0  0  0  0  0  0  0  0  0  0  0
   13.2035    9.5414   -0.8019 N   0  0  0  0  0  0  0  0  0  0  0  0
   13.8505    9.4976    0.3827 C   0  0  0  0  0  0  0  0  0  0  0  0
   15.1324    9.8208    0.6495 N   0  0  0  0  0  0  0  0  0  0  0  0
   15.7584   10.2402   -0.4612 C   0  0  0  0  0  0  0  0  0  0  0  0
   13.6809   10.3506   -3.9094 H   0  0  0  0  0  0  0  0  0  0  0  0
   12.2707    9.7526   -3.1602 H   0  0  0  0  0  0  0  0  0  0  0  0
   20.2527   12.8710    0.6804 C   0  0  0  0  0  0  0  0  0  0  0  0
   19.4013   12.3089    1.6700 O   0  0  0  0  0  0  0  0  0  0  0  0
   17.2243   12.7768    3.4368 O   0  0  0  0  0  0  0  0  0  0  0  0
   16.2800   13.8408    3.3953 C   0  0  0  0  0  0  0  0  0  0  0  0
   16.3492    9.7801    3.5878 C   0  0  0  0  0  0  0  0  0  0  0  0
   16.5390   10.0857    4.9639 O   0  0  0  0  0  0  0  0  0  0  0  0
   15.6619    9.2439    6.0364 S   0  0  0  0  0  0  0  0  0  0  0  0
   16.5217    8.2210    6.5952 O   0  0  0  0  0  0  0  0  0  0  0  0
   14.3973    8.8829    5.4338 O   0  0  0  0  0  0  0  0  0  0  0  0
   15.3728   10.3001    7.2553 N   0  0  0  0  0  0  0  0  0  0  0  0
   15.3541    9.9794    8.6195 C   0  0  0  0  0  0  0  0  0  0  0  0
   15.6052    8.8602    9.0431 O   0  0  0  0  0  0  0  0  0  0  0  0
   15.1978   11.2371    7.0090 H   0  0  0  0  0  0  0  0  0  0  0  0
   14.9449   11.1798    9.5279 C   0  0  0  0  0  0  0  0  0  0  0  0
   15.8980   11.2589   10.6815 N   0  0  0  0  0  0  0  0  0  0  0  0
   15.8346   10.4040   11.2342 H   0  0  0  0  0  0  0  0  0  0  0  0
   15.6588   12.0600   11.2659 H   0  0  0  0  0  0  0  0  0  0  0  0
   13.4430   11.1450    9.9707 C   0  0  0  0  0  0  0  0  0  0  0  0
   12.5950   12.0550    9.0516 C   0  0  0  0  0  0  0  0  0  0  0  0
   13.2553   11.6160   11.4273 C   0  0  0  0  0  0  0  0  0  0  0  0
   12.8626    9.7178    9.8433 C   0  0  0  0  0  0  0  0  0  0  0  0
 18 19  1  0
  1 19  1  0
  1  2  1  0
  2 20  1  0
 20 21  1  0
  2  3  1  0
  3 22  1  0
 22 23  1  0
 23 24  1  0
 24 25  2  0
 24 26  2  0
 24 27  1  0
 27 28  1  0
 28 29  2  0
 28 31  1  0
 31 32  1  0
 31 35  1  0
 35 36  1  0
 35 37  1  0
 35 38  1  0
  3  4  1  0
  4  5  1  0
  5  6  1  0
  6  7  1  0
  7  8  2  0
  8  9  1  0
  9 10  2  0
 10 11  1  0
 10 12  1  0
 12 13  2  0
 13 14  1  0
 14 15  2  0
  5  1  1  0
 15  6  1  0
 15  9  1  0
 27 30  1  0
 32 33  1  0
 32 34  1  0
 11 16  1  0
 11 17  1  0
M  END
> <minimizedAffinity>
-8.31371

> <CNNscore>
0.0374965630

> <CNNaffinity>
4.5803341866

> <CNN_VS>
0.1717467904

> <CNNaffinity_variance>
1.5894098282

$$$$
