


 17 17  0  0  0  0  0  0  0  0999 V2000
   27.1885   30.8919   20.8549 C   0  0  0  0  0  0  0  0  0  0  0  0
   27.7758   31.8281   21.8880 C   0  0  0  0  0  0  0  0  0  0  0  0
   28.7493   31.3701   22.7893 C   0  0  0  0  0  0  0  0  0  0  0  0
   29.3015   32.2378   23.7333 C   0  0  0  0  0  0  0  0  0  0  0  0
   28.8849   33.5645   23.7798 C   0  0  0  0  0  0  0  0  0  0  0  0
   29.4302   34.3788   24.6956 F   0  0  0  0  0  0  0  0  0  0  0  0
   27.9214   34.0348   22.8916 C   0  0  0  0  0  0  0  0  0  0  0  0
   27.4026   35.6755   22.9443 Cl  0  0  0  0  0  0  0  0  0  0  0  0
   27.3666   33.1702   21.9455 C   0  0  0  0  0  0  0  0  0  0  0  0
   25.9479   32.2047   19.1406 N   0  0  0  0  0  0  0  0  0  0  0  0
   27.2019   31.4699   19.4298 C   0  0  0  0  0  0  0  0  0  0  0  0
   25.8379   32.9661   19.8103 H   0  0  0  0  0  0  0  0  0  0  0  0
   25.1551   31.5675   19.2170 H   0  0  0  0  0  0  0  0  0  0  0  0
   27.3503   30.3330   18.4169 C   0  0  0  0  0  0  0  0  0  0  0  0
   28.2202   29.4737   18.4229 O   0  0  0  0  0  0  0  0  0  0  0  0
   26.4089   30.3511   17.4529 O   0  0  0  0  0  0  0  0  0  0  0  0
   25.7466   31.0139   17.4572 H   0  0  0  0  0  0  0  0  0  0  0  0
 11 10  1  0
 11  1  1  0
  1  2  1  0
  2  3  2  0
  3  4  1  0
  4  5  2  0
  5  6  1  0
  5  7  1  0
  7  8  1  0
  7  9  2  0
 11 14  1  0
 14 15  2  0
 14 16  1  0
  9  2  1  0
 10 12  1  0
 10 13  1  0
 16 17  1  0
M  END
> <minimizedAffinity>
-8.58198

> <CNNscore>
0.9703966975

> <CNNaffinity>
6.2018184662

> <CNN_VS>
6.0182242393

> <CNNaffinity_variance>
0.0070197228

$$$$



 17 17  0  0  0  0  0  0  0  0999 V2000
   28.4120   32.0523   18.8703 C   0  0  0  0  0  0  0  0  0  0  0  0
   28.4956   32.4645   20.3234 C   0  0  0  0  0  0  0  0  0  0  0  0
   28.4514   33.8212   20.6802 C   0  0  0  0  0  0  0  0  0  0  0  0
   28.5143   34.2008   22.0221 C   0  0  0  0  0  0  0  0  0  0  0  0
   28.6203   33.2282   23.0114 C   0  0  0  0  0  0  0  0  0  0  0  0
   28.6791   33.6178   24.2936 F   0  0  0  0  0  0  0  0  0  0  0  0
   28.6637   31.8782   22.6741 C   0  0  0  0  0  0  0  0  0  0  0  0
   28.7943   30.6704   23.8941 Cl  0  0  0  0  0  0  0  0  0  0  0  0
   28.6008   31.4940   21.3328 C   0  0  0  0  0  0  0  0  0  0  0  0
   25.9775   32.2877   19.3386 N   0  0  0  0  0  0  0  0  0  0  0  0
   26.9829   31.7146   18.4130 C   0  0  0  0  0  0  0  0  0  0  0  0
   26.0874   33.3011   19.3748 H   0  0  0  0  0  0  0  0  0  0  0  0
   26.1126   31.8975   20.2713 H   0  0  0  0  0  0  0  0  0  0  0  0
   26.8035   30.1959   18.3712 C   0  0  0  0  0  0  0  0  0  0  0  0
   25.7397   29.5998   18.2807 O   0  0  0  0  0  0  0  0  0  0  0  0
   27.9653   29.5188   18.4588 O   0  0  0  0  0  0  0  0  0  0  0  0
   28.7752   29.9850   18.5278 H   0  0  0  0  0  0  0  0  0  0  0  0
 11 10  1  0
 11  1  1  0
  1  2  1  0
  2  3  2  0
  3  4  1  0
  4  5  2  0
  5  6  1  0
  5  7  1  0
  7  8  1  0
  7  9  2  0
 11 14  1  0
 14 15  2  0
 14 16  1  0
  9  2  1  0
 10 12  1  0
 10 13  1  0
 16 17  1  0
M  END
> <minimizedAffinity>
-6.09969

> <CNNscore>
0.9407919049

> <CNNaffinity>
5.8312950134

> <CNN_VS>
5.4860353470

> <CNNaffinity_variance>
0.0115623111

$$$$



 17 17  0  0  0  0  0  0  0  0999 V2000
   28.6678   31.6875   20.5197 C   0  0  0  0  0  0  0  0  0  0  0  0
   28.7073   32.7827   21.5626 C   0  0  0  0  0  0  0  0  0  0  0  0
   28.2937   34.0847   21.2408 C   0  0  0  0  0  0  0  0  0  0  0  0
   28.3168   35.0920   22.2071 C   0  0  0  0  0  0  0  0  0  0  0  0
   28.7512   34.8028   23.4969 C   0  0  0  0  0  0  0  0  0  0  0  0
   28.7642   35.7873   24.4077 F   0  0  0  0  0  0  0  0  0  0  0  0
   29.1631   33.5159   23.8325 C   0  0  0  0  0  0  0  0  0  0  0  0
   29.7011   33.1523   25.4270 Cl  0  0  0  0  0  0  0  0  0  0  0  0
   29.1414   32.5052   22.8689 C   0  0  0  0  0  0  0  0  0  0  0  0
   26.2984   32.3525   20.1381 N   0  0  0  0  0  0  0  0  0  0  0  0
   27.5391   31.8654   19.4903 C   0  0  0  0  0  0  0  0  0  0  0  0
   26.4812   33.2468   20.5934 H   0  0  0  0  0  0  0  0  0  0  0  0
   25.9891   31.6737   20.8338 H   0  0  0  0  0  0  0  0  0  0  0  0
   27.2466   30.5250   18.8134 C   0  0  0  0  0  0  0  0  0  0  0  0
   28.0681   29.6586   18.5491 O   0  0  0  0  0  0  0  0  0  0  0  0
   25.9470   30.3589   18.4980 O   0  0  0  0  0  0  0  0  0  0  0  0
   25.3254   31.0288   18.7049 H   0  0  0  0  0  0  0  0  0  0  0  0
 11 10  1  0
 11  1  1  0
  1  2  1  0
  2  3  2  0
  3  4  1  0
  4  5  2  0
  5  6  1  0
  5  7  1  0
  7  8  1  0
  7  9  2  0
 11 14  1  0
 14 15  2  0
 14 16  1  0
  9  2  1  0
 10 12  1  0
 10 13  1  0
 16 17  1  0
M  END
> <minimizedAffinity>
-6.32426

> <CNNscore>
0.9174423218

> <CNNaffinity>
5.4439806938

> <CNN_VS>
4.9945383072

> <CNNaffinity_variance>
0.2532367110

$$$$



 17 17  0  0  0  0  0  0  0  0999 V2000
   29.6456   20.8815   23.3933 C   0  0  0  0  0  0  0  0  0  0  0  0
   29.7551   21.7515   22.1606 C   0  0  0  0  0  0  0  0  0  0  0  0
   29.2396   21.3102   20.9321 C   0  0  0  0  0  0  0  0  0  0  0  0
   29.3280   22.1190   19.7977 C   0  0  0  0  0  0  0  0  0  0  0  0
   29.9298   23.3705   19.8863 C   0  0  0  0  0  0  0  0  0  0  0  0
   30.0027   24.1293   18.7826 F   0  0  0  0  0  0  0  0  0  0  0  0
   30.4445   23.8235   21.0979 C   0  0  0  0  0  0  0  0  0  0  0  0
   31.1895   25.3713   21.2134 Cl  0  0  0  0  0  0  0  0  0  0  0  0
   30.3579   23.0176   22.2352 C   0  0  0  0  0  0  0  0  0  0  0  0
   28.6988   20.6046   25.6799 N   0  0  0  0  0  0  0  0  0  0  0  0
   28.7694   21.4958   24.4980 C   0  0  0  0  0  0  0  0  0  0  0  0
   29.6384   20.4489   26.0449 H   0  0  0  0  0  0  0  0  0  0  0  0
   28.2872   19.7117   25.4084 H   0  0  0  0  0  0  0  0  0  0  0  0
   27.3529   21.7181   23.9645 C   0  0  0  0  0  0  0  0  0  0  0  0
   26.6482   20.8778   23.4236 O   0  0  0  0  0  0  0  0  0  0  0  0
   26.9128   22.9811   24.1295 O   0  0  0  0  0  0  0  0  0  0  0  0
   27.4606   23.6175   24.5452 H   0  0  0  0  0  0  0  0  0  0  0  0
 11 10  1  0
 11  1  1  0
  1  2  1  0
  2  3  2  0
  3  4  1  0
  4  5  2  0
  5  6  1  0
  5  7  1  0
  7  8  1  0
  7  9  2  0
 11 14  1  0
 14 15  2  0
 14 16  1  0
  9  2  1  0
 10 12  1  0
 10 13  1  0
 16 17  1  0
M  END
> <minimizedAffinity>
-6.44424

> <CNNscore>
0.9149305224

> <CNNaffinity>
4.9392800331

> <CNN_VS>
4.5190982819

> <CNNaffinity_variance>
0.0807845742

$$$$



 17 17  0  0  0  0  0  0  0  0999 V2000
   29.9475   22.6660   24.2532 C   0  0  0  0  0  0  0  0  0  0  0  0
   29.8601   22.9964   22.7796 C   0  0  0  0  0  0  0  0  0  0  0  0
   29.7108   24.3267   22.3578 C   0  0  0  0  0  0  0  0  0  0  0  0
   29.6445   24.6330   20.9975 C   0  0  0  0  0  0  0  0  0  0  0  0
   29.7281   23.6133   20.0544 C   0  0  0  0  0  0  0  0  0  0  0  0
   29.6619   23.9327   18.7534 F   0  0  0  0  0  0  0  0  0  0  0  0
   29.8780   22.2888   20.4565 C   0  0  0  0  0  0  0  0  0  0  0  0
   29.9825   21.0232   19.2940 Cl  0  0  0  0  0  0  0  0  0  0  0  0
   29.9450   21.9780   21.8164 C   0  0  0  0  0  0  0  0  0  0  0  0
   29.4758   20.2245   24.3875 N   0  0  0  0  0  0  0  0  0  0  0  0
   28.9548   21.5773   24.6945 C   0  0  0  0  0  0  0  0  0  0  0  0
   30.3635   20.0844   24.8701 H   0  0  0  0  0  0  0  0  0  0  0  0
   29.6180   20.1351   23.3814 H   0  0  0  0  0  0  0  0  0  0  0  0
   27.6248   21.7696   23.9633 C   0  0  0  0  0  0  0  0  0  0  0  0
   27.1062   20.9740   23.1930 O   0  0  0  0  0  0  0  0  0  0  0  0
   27.0343   22.9508   24.2317 O   0  0  0  0  0  0  0  0  0  0  0  0
   27.4399   23.5536   24.8234 H   0  0  0  0  0  0  0  0  0  0  0  0
 11 10  1  0
 11  1  1  0
  1  2  1  0
  2  3  2  0
  3  4  1  0
  4  5  2  0
  5  6  1  0
  5  7  1  0
  7  8  1  0
  7  9  2  0
 11 14  1  0
 14 15  2  0
 14 16  1  0
  9  2  1  0
 10 12  1  0
 10 13  1  0
 16 17  1  0
M  END
> <minimizedAffinity>
-5.96442

> <CNNscore>
0.8693937659

> <CNNaffinity>
5.0172777176

> <CNN_VS>
4.3619899750

> <CNNaffinity_variance>
0.0401020497

$$$$



 17 17  0  0  0  0  0  0  0  0999 V2000
   29.0263   21.2983   24.0144 C   0  0  0  0  0  0  0  0  0  0  0  0
   29.4612   22.4918   23.1928 C   0  0  0  0  0  0  0  0  0  0  0  0
   29.1860   23.7955   23.6336 C   0  0  0  0  0  0  0  0  0  0  0  0
   29.5999   24.8971   22.8826 C   0  0  0  0  0  0  0  0  0  0  0  0
   30.2903   24.7009   21.6906 C   0  0  0  0  0  0  0  0  0  0  0  0
   30.6775   25.7750   20.9867 F   0  0  0  0  0  0  0  0  0  0  0  0
   30.5726   23.4141   21.2404 C   0  0  0  0  0  0  0  0  0  0  0  0
   31.4271   23.1655   19.7665 Cl  0  0  0  0  0  0  0  0  0  0  0  0
   30.1606   22.3093   21.9889 C   0  0  0  0  0  0  0  0  0  0  0  0
   27.2978   21.1178   22.2308 N   0  0  0  0  0  0  0  0  0  0  0  0
   27.6345   20.7680   23.6309 C   0  0  0  0  0  0  0  0  0  0  0  0
   27.9943   20.7163   21.6031 H   0  0  0  0  0  0  0  0  0  0  0  0
   27.2905   22.1324   22.1262 H   0  0  0  0  0  0  0  0  0  0  0  0
   26.5806   21.3777   24.5571 C   0  0  0  0  0  0  0  0  0  0  0  0
   26.0785   22.4869   24.4433 O   0  0  0  0  0  0  0  0  0  0  0  0
   26.2313   20.5665   25.5749 O   0  0  0  0  0  0  0  0  0  0  0  0
   26.6219   19.7184   25.6533 H   0  0  0  0  0  0  0  0  0  0  0  0
 11 10  1  0
 11  1  1  0
  1  2  1  0
  2  3  2  0
  3  4  1  0
  4  5  2  0
  5  6  1  0
  5  7  1  0
  7  8  1  0
  7  9  2  0
 11 14  1  0
 14 15  2  0
 14 16  1  0
  9  2  1  0
 10 12  1  0
 10 13  1  0
 16 17  1  0
M  END
> <minimizedAffinity>
-6.12554

> <CNNscore>
0.8688194156

> <CNNaffinity>
4.7927627563

> <CNN_VS>
4.1640453339

> <CNNaffinity_variance>
0.1881319284

$$$$



 17 17  0  0  0  0  0  0  0  0999 V2000
   27.1668   30.8004   20.8469 C   0  0  0  0  0  0  0  0  0  0  0  0
   27.7678   31.7165   21.8900 C   0  0  0  0  0  0  0  0  0  0  0  0
   28.7644   31.2457   22.7590 C   0  0  0  0  0  0  0  0  0  0  0  0
   29.3291   32.0950   23.7121 C   0  0  0  0  0  0  0  0  0  0  0  0
   28.9019   33.4164   23.8002 C   0  0  0  0  0  0  0  0  0  0  0  0
   29.4596   34.2130   24.7240 F   0  0  0  0  0  0  0  0  0  0  0  0
   27.9155   33.8992   22.9445 C   0  0  0  0  0  0  0  0  0  0  0  0
   27.3837   35.5333   23.0486 Cl  0  0  0  0  0  0  0  0  0  0  0  0
   27.3481   33.0529   21.9893 C   0  0  0  0  0  0  0  0  0  0  0  0
   25.8351   30.6957   18.7452 N   0  0  0  0  0  0  0  0  0  0  0  0
   26.7458   31.5325   19.5615 C   0  0  0  0  0  0  0  0  0  0  0  0
   25.0029   30.4684   19.2895 H   0  0  0  0  0  0  0  0  0  0  0  0
   26.3123   29.8347   18.4781 H   0  0  0  0  0  0  0  0  0  0  0  0
   27.9868   31.8633   18.7303 C   0  0  0  0  0  0  0  0  0  0  0  0
   28.3880   31.2400   17.7577 O   0  0  0  0  0  0  0  0  0  0  0  0
   28.6549   32.9452   19.1765 O   0  0  0  0  0  0  0  0  0  0  0  0
   28.3392   33.4160   19.9225 H   0  0  0  0  0  0  0  0  0  0  0  0
 11 10  1  0
 11  1  1  0
  1  2  1  0
  2  3  2  0
  3  4  1  0
  4  5  2  0
  5  6  1  0
  5  7  1  0
  7  8  1  0
  7  9  2  0
 11 14  1  0
 14 15  2  0
 14 16  1  0
  9  2  1  0
 10 12  1  0
 10 13  1  0
 16 17  1  0
M  END
> <minimizedAffinity>
-6.96673

> <CNNscore>
0.8516573906

> <CNNaffinity>
5.8200106621

> <CNN_VS>
4.9566550255

> <CNNaffinity_variance>
0.1067136601

$$$$



 17 17  0  0  0  0  0  0  0  0999 V2000
   24.1217   21.1578   27.6597 C   0  0  0  0  0  0  0  0  0  0  0  0
   22.7915   21.2153   26.9415 C   0  0  0  0  0  0  0  0  0  0  0  0
   22.4079   20.1811   26.0738 C   0  0  0  0  0  0  0  0  0  0  0  0
   21.1742   20.2273   25.4221 C   0  0  0  0  0  0  0  0  0  0  0  0
   20.3197   21.3046   25.6351 C   0  0  0  0  0  0  0  0  0  0  0  0
   19.1399   21.3263   24.9976 F   0  0  0  0  0  0  0  0  0  0  0  0
   20.6849   22.3376   26.4941 C   0  0  0  0  0  0  0  0  0  0  0  0
   19.6313   23.6727   26.7619 Cl  0  0  0  0  0  0  0  0  0  0  0  0
   21.9180   22.2952   27.1483 C   0  0  0  0  0  0  0  0  0  0  0  0
   25.0571   20.1490   29.7355 N   0  0  0  0  0  0  0  0  0  0  0  0
   23.9861   21.0126   29.1848 C   0  0  0  0  0  0  0  0  0  0  0  0
   25.9671   20.5546   29.5169 H   0  0  0  0  0  0  0  0  0  0  0  0
   24.9909   19.2193   29.3212 H   0  0  0  0  0  0  0  0  0  0  0  0
   22.6301   20.3896   29.5218 C   0  0  0  0  0  0  0  0  0  0  0  0
   21.7391   20.1322   28.7249 O   0  0  0  0  0  0  0  0  0  0  0  0
   22.4695   20.1404   30.8364 O   0  0  0  0  0  0  0  0  0  0  0  0
   23.1583   20.3414   31.4390 H   0  0  0  0  0  0  0  0  0  0  0  0
 11 10  1  0
 11  1  1  0
  1  2  1  0
  2  3  2  0
  3  4  1  0
  4  5  2  0
  5  6  1  0
  5  7  1  0
  7  8  1  0
  7  9  2  0
 11 14  1  0
 14 15  2  0
 14 16  1  0
  9  2  1  0
 10 12  1  0
 10 13  1  0
 16 17  1  0
M  END
> <minimizedAffinity>
-1.71903

> <CNNscore>
0.7381168008

> <CNNaffinity>
4.1159720421

> <CNN_VS>
3.0380680561

> <CNNaffinity_variance>
0.0521963947

$$$$



 17 17  0  0  0  0  0  0  0  0999 V2000
   27.4993   31.5500   21.9682 C   0  0  0  0  0  0  0  0  0  0  0  0
   27.9935   32.7491   22.7469 C   0  0  0  0  0  0  0  0  0  0  0  0
   27.4726   34.0267   22.4896 C   0  0  0  0  0  0  0  0  0  0  0  0
   27.9184   35.1309   23.2180 C   0  0  0  0  0  0  0  0  0  0  0  0
   28.8840   34.9634   24.2058 C   0  0  0  0  0  0  0  0  0  0  0  0
   29.2963   36.0395   24.8921 F   0  0  0  0  0  0  0  0  0  0  0  0
   29.4095   33.7024   24.4743 C   0  0  0  0  0  0  0  0  0  0  0  0
   30.6040   33.4892   25.6957 Cl  0  0  0  0  0  0  0  0  0  0  0  0
   28.9661   32.5950   23.7481 C   0  0  0  0  0  0  0  0  0  0  0  0
   27.8594   30.3889   19.7947 N   0  0  0  0  0  0  0  0  0  0  0  0
   27.6554   31.7043   20.4459 C   0  0  0  0  0  0  0  0  0  0  0  0
   27.0609   29.7852   19.9905 H   0  0  0  0  0  0  0  0  0  0  0  0
   28.7091   29.9576   20.1586 H   0  0  0  0  0  0  0  0  0  0  0  0
   28.8610   32.5956   20.1420 C   0  0  0  0  0  0  0  0  0  0  0  0
   30.0301   32.3309   20.3839 O   0  0  0  0  0  0  0  0  0  0  0  0
   28.5266   33.7676   19.5670 O   0  0  0  0  0  0  0  0  0  0  0  0
   27.6279   33.9609   19.3857 H   0  0  0  0  0  0  0  0  0  0  0  0
 11 10  1  0
 11  1  1  0
  1  2  1  0
  2  3  2  0
  3  4  1  0
  4  5  2  0
  5  6  1  0
  5  7  1  0
  7  8  1  0
  7  9  2  0
 11 14  1  0
 14 15  2  0
 14 16  1  0
  9  2  1  0
 10 12  1  0
 10 13  1  0
 16 17  1  0
M  END
> <minimizedAffinity>
-5.65084

> <CNNscore>
0.7027527690

> <CNNaffinity>
5.0975055695

> <CNN_VS>
3.5822861195

> <CNNaffinity_variance>
0.1888627559

$$$$
