


 41 44  0  0  0  0  0  0  0  0999 V2000
   23.6668   36.7482   17.2433 C   0  0  0  0  0  0  0  0  0  0  0  0
   22.9924   37.9031   17.9068 C   0  0  0  0  0  0  0  0  0  0  0  0
   23.2617   39.1931   17.5072 C   0  0  0  0  0  0  0  0  0  0  0  0
   22.7178   40.2852   18.0705 N   0  0  0  0  0  0  0  0  0  0  0  0
   21.8668   40.0924   19.0823 C   0  0  0  0  0  0  0  0  0  0  0  0
   21.5229   38.8737   19.5280 N   0  0  0  0  0  0  0  0  0  0  0  0
   22.0654   37.7976   18.9284 C   0  0  0  0  0  0  0  0  0  0  0  0
   21.2760   41.1519   19.7657 N   0  0  0  0  0  0  0  0  0  0  0  0
   21.5802   42.0324   19.4472 H   0  0  0  0  0  0  0  0  0  0  0  0
   20.3450   41.2389   20.8055 C   0  0  0  0  0  0  0  0  0  0  0  0
   20.8147   41.4354   22.1126 C   0  0  0  0  0  0  0  0  0  0  0  0
   19.9320   41.5511   23.1921 C   0  0  0  0  0  0  0  0  0  0  0  0
   18.5548   41.4723   22.9958 C   0  0  0  0  0  0  0  0  0  0  0  0
   18.0742   41.2534   21.7089 C   0  0  0  0  0  0  0  0  0  0  0  0
   18.9632   41.1386   20.6286 C   0  0  0  0  0  0  0  0  0  0  0  0
   17.8101   41.6269   24.1291 O   0  0  0  0  0  0  0  0  0  0  0  0
   16.3883   41.4845   24.0493 C   0  0  0  0  0  0  0  0  0  0  0  0
   15.6284   42.5371   24.8830 C   0  0  0  0  0  0  0  0  0  0  0  0
   14.8792   41.9762   26.0196 N   0  0  0  0  0  0  0  0  0  0  0  0
   15.7088   41.0752   26.8235 C   0  0  0  0  0  0  0  0  0  0  0  0
   14.6868   40.3582   27.6887 C   0  0  0  0  0  0  0  0  0  0  0  0
   13.4103   40.3444   26.8560 C   0  0  0  0  0  0  0  0  0  0  0  0
   13.7309   41.1622   25.6115 C   0  0  0  0  0  0  0  0  0  0  0  0
   21.6476   36.5581   19.4537 N   0  0  0  0  0  0  0  0  0  0  0  0
   21.8355   35.7581   18.9116 H   0  0  0  0  0  0  0  0  0  0  0  0
   20.9825   36.3547   20.6885 C   0  0  0  0  0  0  0  0  0  0  0  0
   20.9000   37.3382   21.6807 C   0  0  0  0  0  0  0  0  0  0  0  0
   20.2876   37.0553   22.9000 C   0  0  0  0  0  0  0  0  0  0  0  0
   20.2052   38.0160   23.8299 F   0  0  0  0  0  0  0  0  0  0  0  0
   19.7729   35.7976   23.1759 C   0  0  0  0  0  0  0  0  0  0  0  0
   19.8938   34.8026   22.2079 C   0  0  0  0  0  0  0  0  0  0  0  0
   20.4902   35.0742   20.9698 C   0  0  0  0  0  0  0  0  0  0  0  0
   19.2498   33.1845   22.5140 S   0  0  0  0  0  0  0  0  0  0  0  0
   18.3825   32.8160   21.4192 O   0  0  0  0  0  0  0  0  0  0  0  0
   20.3735   32.3533   22.8886 O   0  0  0  0  0  0  0  0  0  0  0  0
   18.3446   33.3678   23.9031 N   0  0  0  0  0  0  0  0  0  0  0  0
   17.3828   33.4514   23.5737 H   0  0  0  0  0  0  0  0  0  0  0  0
   18.2618   32.4646   25.0653 C   0  0  0  0  0  0  0  0  0  0  0  0
   19.4310   31.4837   25.1527 C   0  0  0  0  0  0  0  0  0  0  0  0
   16.9280   31.7118   25.0344 C   0  0  0  0  0  0  0  0  0  0  0  0
   18.2876   33.3637   26.3160 C   0  0  0  0  0  0  0  0  0  0  0  0
  1  2  1  0
  2  3  2  0
  3  4  1  0
  4  5  2  0
  5  8  1  0
  8 10  1  0
 10 11  2  0
 11 12  1  0
 12 13  2  0
 13 16  1  0
 16 17  1  0
 17 18  1  0
 18 19  1  0
 19 20  1  0
 20 21  1  0
 21 22  1  0
 22 23  1  0
 13 14  1  0
 14 15  2  0
  5  6  1  0
  6  7  2  0
  7 24  1  0
 24 26  1  0
 26 27  2  0
 27 28  1  0
 28 29  1  0
 28 30  2  0
 30 31  1  0
 31 33  1  0
 33 34  2  0
 33 35  2  0
 33 36  1  0
 36 38  1  0
 38 39  1  0
 38 40  1  0
 38 41  1  0
 31 32  2  0
  7  2  1  0
 32 26  1  0
 15 10  1  0
 23 19  1  0
  8  9  1  0
 24 25  1  0
 36 37  1  0
M  END
> <minimizedAffinity>
-9.31678

> <CNNscore>
0.9080021381

> <CNNaffinity>
7.8938603401

> <CNN_VS>
7.1676421165

> <CNNaffinity_variance>
0.2054682970

$$$$



 41 44  0  0  0  0  0  0  0  0999 V2000
   23.0669   37.5643   19.1575 C   0  0  0  0  0  0  0  0  0  0  0  0
   21.8614   38.2962   19.6473 C   0  0  0  0  0  0  0  0  0  0  0  0
   21.6187   39.5907   19.2455 C   0  0  0  0  0  0  0  0  0  0  0  0
   20.5731   40.3251   19.6615 N   0  0  0  0  0  0  0  0  0  0  0  0
   19.7260   39.7517   20.5209 C   0  0  0  0  0  0  0  0  0  0  0  0
   19.8640   38.4880   20.9525 N   0  0  0  0  0  0  0  0  0  0  0  0
   20.9078   37.7688   20.4999 C   0  0  0  0  0  0  0  0  0  0  0  0
   18.6319   40.4324   21.0487 N   0  0  0  0  0  0  0  0  0  0  0  0
   18.3344   41.1803   20.4818 H   0  0  0  0  0  0  0  0  0  0  0  0
   17.8634   40.2861   22.2077 C   0  0  0  0  0  0  0  0  0  0  0  0
   16.7836   39.3908   22.1888 C   0  0  0  0  0  0  0  0  0  0  0  0
   15.9902   39.1855   23.3229 C   0  0  0  0  0  0  0  0  0  0  0  0
   16.2528   39.8703   24.5076 C   0  0  0  0  0  0  0  0  0  0  0  0
   17.3051   40.7796   24.5353 C   0  0  0  0  0  0  0  0  0  0  0  0
   18.0991   40.9821   23.3955 C   0  0  0  0  0  0  0  0  0  0  0  0
   15.4188   39.5565   25.5415 O   0  0  0  0  0  0  0  0  0  0  0  0
   14.6774   40.6031   26.1763 C   0  0  0  0  0  0  0  0  0  0  0  0
   13.1585   40.5059   25.9235 C   0  0  0  0  0  0  0  0  0  0  0  0
   12.3405   41.2711   26.8793 N   0  0  0  0  0  0  0  0  0  0  0  0
   11.3691   40.4165   27.5666 C   0  0  0  0  0  0  0  0  0  0  0  0
   10.4289   41.4228   28.2072 C   0  0  0  0  0  0  0  0  0  0  0  0
   10.4763   42.6404   27.2916 C   0  0  0  0  0  0  0  0  0  0  0  0
   11.5342   42.3172   26.2443 C   0  0  0  0  0  0  0  0  0  0  0  0
   20.9754   36.4520   20.9982 N   0  0  0  0  0  0  0  0  0  0  0  0
   21.6517   35.8584   20.5987 H   0  0  0  0  0  0  0  0  0  0  0  0
   20.1618   35.9017   22.0198 C   0  0  0  0  0  0  0  0  0  0  0  0
   19.7040   36.6458   23.1131 C   0  0  0  0  0  0  0  0  0  0  0  0
   18.9604   36.0309   24.1184 C   0  0  0  0  0  0  0  0  0  0  0  0
   18.5183   36.7650   25.1480 F   0  0  0  0  0  0  0  0  0  0  0  0
   18.6789   34.6735   24.0821 C   0  0  0  0  0  0  0  0  0  0  0  0
   19.1719   33.9204   23.0185 C   0  0  0  0  0  0  0  0  0  0  0  0
   19.9057   34.5252   21.9899 C   0  0  0  0  0  0  0  0  0  0  0  0
   18.8357   32.1867   22.9284 S   0  0  0  0  0  0  0  0  0  0  0  0
   17.4457   31.9665   23.2539 O   0  0  0  0  0  0  0  0  0  0  0  0
   19.3926   31.7193   21.6772 O   0  0  0  0  0  0  0  0  0  0  0  0
   19.7974   31.5279   24.1215 N   0  0  0  0  0  0  0  0  0  0  0  0
   19.4833   31.9770   24.9818 H   0  0  0  0  0  0  0  0  0  0  0  0
   19.9612   30.1080   24.4825 C   0  0  0  0  0  0  0  0  0  0  0  0
   19.1639   29.1607   23.5858 C   0  0  0  0  0  0  0  0  0  0  0  0
   19.5804   29.9064   25.9526 C   0  0  0  0  0  0  0  0  0  0  0  0
   21.4590   29.7882   24.3165 C   0  0  0  0  0  0  0  0  0  0  0  0
  1  2  1  0
  2  3  2  0
  3  4  1  0
  4  5  2  0
  5  8  1  0
  8 10  1  0
 10 11  2  0
 11 12  1  0
 12 13  2  0
 13 16  1  0
 16 17  1  0
 17 18  1  0
 18 19  1  0
 19 20  1  0
 20 21  1  0
 21 22  1  0
 22 23  1  0
 13 14  1  0
 14 15  2  0
  5  6  1  0
  6  7  2  0
  7 24  1  0
 24 26  1  0
 26 27  2  0
 27 28  1  0
 28 29  1  0
 28 30  2  0
 30 31  1  0
 31 33  1  0
 33 34  2  0
 33 35  2  0
 33 36  1  0
 36 38  1  0
 38 39  1  0
 38 40  1  0
 38 41  1  0
 31 32  2  0
  7  2  1  0
 32 26  1  0
 15 10  1  0
 23 19  1  0
  8  9  1  0
 24 25  1  0
 36 37  1  0
M  END
> <minimizedAffinity>
-8.42133

> <CNNscore>
0.5403776169

> <CNNaffinity>
7.2333755493

> <CNN_VS>
3.9087543488

> <CNNaffinity_variance>
0.2100270241

$$$$



 41 44  0  0  0  0  0  0  0  0999 V2000
   21.5481   37.6046   23.5233 C   0  0  0  0  0  0  0  0  0  0  0  0
   20.4478   38.3453   24.2084 C   0  0  0  0  0  0  0  0  0  0  0  0
   20.6921   39.5591   24.8111 C   0  0  0  0  0  0  0  0  0  0  0  0
   19.7640   40.2735   25.4697 N   0  0  0  0  0  0  0  0  0  0  0  0
   18.5323   39.7604   25.5388 C   0  0  0  0  0  0  0  0  0  0  0  0
   18.1903   38.5966   24.9637 N   0  0  0  0  0  0  0  0  0  0  0  0
   19.1354   37.9148   24.2901 C   0  0  0  0  0  0  0  0  0  0  0  0
   17.5031   40.3945   26.2299 N   0  0  0  0  0  0  0  0  0  0  0  0
   17.8292   41.0111   26.9246 H   0  0  0  0  0  0  0  0  0  0  0  0
   16.1077   40.3469   26.1530 C   0  0  0  0  0  0  0  0  0  0  0  0
   15.3709   40.2943   27.3456 C   0  0  0  0  0  0  0  0  0  0  0  0
   13.9720   40.2658   27.3347 C   0  0  0  0  0  0  0  0  0  0  0  0
   13.2700   40.2879   26.1313 C   0  0  0  0  0  0  0  0  0  0  0  0
   13.9866   40.3156   24.9394 C   0  0  0  0  0  0  0  0  0  0  0  0
   15.3900   40.3448   24.9548 C   0  0  0  0  0  0  0  0  0  0  0  0
   11.9118   40.2820   26.2663 O   0  0  0  0  0  0  0  0  0  0  0  0
   11.3330   40.7837   27.4751 C   0  0  0  0  0  0  0  0  0  0  0  0
   10.0408   40.0433   27.8784 C   0  0  0  0  0  0  0  0  0  0  0  0
    9.4258   40.5416   29.1199 N   0  0  0  0  0  0  0  0  0  0  0  0
    7.9801   40.3057   29.1408 C   0  0  0  0  0  0  0  0  0  0  0  0
    7.5123   41.1813   30.2904 C   0  0  0  0  0  0  0  0  0  0  0  0
    8.5122   42.3305   30.3387 C   0  0  0  0  0  0  0  0  0  0  0  0
    9.5706   41.9892   29.2976 C   0  0  0  0  0  0  0  0  0  0  0  0
   18.6918   36.7075   23.7136 N   0  0  0  0  0  0  0  0  0  0  0  0
   18.4487   36.7319   22.7598 H   0  0  0  0  0  0  0  0  0  0  0  0
   18.5624   35.4619   24.3770 C   0  0  0  0  0  0  0  0  0  0  0  0
   18.2567   35.3517   25.7382 C   0  0  0  0  0  0  0  0  0  0  0  0
   18.2068   34.0992   26.3470 C   0  0  0  0  0  0  0  0  0  0  0  0
   17.8965   34.0151   27.6474 F   0  0  0  0  0  0  0  0  0  0  0  0
   18.4833   32.9395   25.6387 C   0  0  0  0  0  0  0  0  0  0  0  0
   18.8328   33.0488   24.2943 C   0  0  0  0  0  0  0  0  0  0  0  0
   18.8703   34.2981   23.6616 C   0  0  0  0  0  0  0  0  0  0  0  0
   19.1909   31.5972   23.3502 S   0  0  0  0  0  0  0  0  0  0  0  0
   18.1356   31.4009   22.3835 O   0  0  0  0  0  0  0  0  0  0  0  0
   20.5734   31.7012   22.9355 O   0  0  0  0  0  0  0  0  0  0  0  0
   19.1511   30.3659   24.4747 N   0  0  0  0  0  0  0  0  0  0  0  0
   18.2319   29.9399   24.3568 H   0  0  0  0  0  0  0  0  0  0  0  0
   20.0742   29.2247   24.6127 C   0  0  0  0  0  0  0  0  0  0  0  0
   19.7200   28.2983   25.7761 C   0  0  0  0  0  0  0  0  0  0  0  0
   21.5095   29.7414   24.7530 C   0  0  0  0  0  0  0  0  0  0  0  0
   19.9690   28.4210   23.3026 C   0  0  0  0  0  0  0  0  0  0  0  0
  1  2  1  0
  2  3  2  0
  3  4  1  0
  4  5  2  0
  5  8  1  0
  8 10  1  0
 10 11  2  0
 11 12  1  0
 12 13  2  0
 13 16  1  0
 16 17  1  0
 17 18  1  0
 18 19  1  0
 19 20  1  0
 20 21  1  0
 21 22  1  0
 22 23  1  0
 13 14  1  0
 14 15  2  0
  5  6  1  0
  6  7  2  0
  7 24  1  0
 24 26  1  0
 26 27  2  0
 27 28  1  0
 28 29  1  0
 28 30  2  0
 30 31  1  0
 31 33  1  0
 33 34  2  0
 33 35  2  0
 33 36  1  0
 36 38  1  0
 38 39  1  0
 38 40  1  0
 38 41  1  0
 31 32  2  0
  7  2  1  0
 32 26  1  0
 15 10  1  0
 23 19  1  0
  8  9  1  0
 24 25  1  0
 36 37  1  0
M  END
> <minimizedAffinity>
-8.14486

> <CNNscore>
0.4699855745

> <CNNaffinity>
6.5318350792

> <CNN_VS>
3.0698683262

> <CNNaffinity_variance>
0.6877585053

$$$$



 41 44  0  0  0  0  0  0  0  0999 V2000
   22.0315   38.5105   24.8110 C   0  0  0  0  0  0  0  0  0  0  0  0
   20.6537   39.0514   24.6167 C   0  0  0  0  0  0  0  0  0  0  0  0
   20.4327   40.4105   24.5984 C   0  0  0  0  0  0  0  0  0  0  0  0
   19.2215   40.9749   24.4558 N   0  0  0  0  0  0  0  0  0  0  0  0
   18.1752   40.1540   24.3279 C   0  0  0  0  0  0  0  0  0  0  0  0
   18.2913   38.8167   24.3098 N   0  0  0  0  0  0  0  0  0  0  0  0
   19.5200   38.2804   24.4306 C   0  0  0  0  0  0  0  0  0  0  0  0
   16.8709   40.6281   24.2148 N   0  0  0  0  0  0  0  0  0  0  0  0
   16.7169   41.1361   23.3857 H   0  0  0  0  0  0  0  0  0  0  0  0
   15.7319   40.5404   25.0213 C   0  0  0  0  0  0  0  0  0  0  0  0
   15.8953   40.5216   26.4144 C   0  0  0  0  0  0  0  0  0  0  0  0
   14.7936   40.4559   27.2744 C   0  0  0  0  0  0  0  0  0  0  0  0
   13.4971   40.4058   26.7661 C   0  0  0  0  0  0  0  0  0  0  0  0
   13.3195   40.3992   25.3865 C   0  0  0  0  0  0  0  0  0  0  0  0
   14.4276   40.4660   24.5273 C   0  0  0  0  0  0  0  0  0  0  0  0
   12.5165   40.3701   27.7148 O   0  0  0  0  0  0  0  0  0  0  0  0
   11.2009   40.8147   27.3691 C   0  0  0  0  0  0  0  0  0  0  0  0
   10.0881   39.9223   27.9572 C   0  0  0  0  0  0  0  0  0  0  0  0
    9.4123   40.5003   29.1308 N   0  0  0  0  0  0  0  0  0  0  0  0
    7.9557   40.3807   29.0306 C   0  0  0  0  0  0  0  0  0  0  0  0
    7.4647   41.3204   30.1182 C   0  0  0  0  0  0  0  0  0  0  0  0
    8.5472   42.3874   30.2311 C   0  0  0  0  0  0  0  0  0  0  0  0
    9.6589   41.9359   29.2927 C   0  0  0  0  0  0  0  0  0  0  0  0
   19.5531   36.8717   24.3968 N   0  0  0  0  0  0  0  0  0  0  0  0
   19.3817   36.4013   25.2446 H   0  0  0  0  0  0  0  0  0  0  0  0
   19.8100   36.0683   23.2580 C   0  0  0  0  0  0  0  0  0  0  0  0
   20.3952   36.5682   22.0891 C   0  0  0  0  0  0  0  0  0  0  0  0
   20.5629   35.7421   20.9795 C   0  0  0  0  0  0  0  0  0  0  0  0
   21.1400   36.2363   19.8763 F   0  0  0  0  0  0  0  0  0  0  0  0
   20.1341   34.4233   20.9887 C   0  0  0  0  0  0  0  0  0  0  0  0
   19.5097   33.9350   22.1347 C   0  0  0  0  0  0  0  0  0  0  0  0
   19.3491   34.7460   23.2656 C   0  0  0  0  0  0  0  0  0  0  0  0
   18.9491   32.2590   22.1935 S   0  0  0  0  0  0  0  0  0  0  0  0
   17.7246   32.2063   22.9580 O   0  0  0  0  0  0  0  0  0  0  0  0
   19.0058   31.7535   20.8388 O   0  0  0  0  0  0  0  0  0  0  0  0
   20.1565   31.4598   23.0216 N   0  0  0  0  0  0  0  0  0  0  0  0
   20.4772   32.1311   23.7193 H   0  0  0  0  0  0  0  0  0  0  0  0
   20.0726   30.1801   23.7488 C   0  0  0  0  0  0  0  0  0  0  0  0
   19.1411   29.1669   23.0834 C   0  0  0  0  0  0  0  0  0  0  0  0
   19.6403   30.4408   25.1952 C   0  0  0  0  0  0  0  0  0  0  0  0
   21.4975   29.5944   23.7618 C   0  0  0  0  0  0  0  0  0  0  0  0
  1  2  1  0
  2  3  2  0
  3  4  1  0
  4  5  2  0
  5  8  1  0
  8 10  1  0
 10 11  2  0
 11 12  1  0
 12 13  2  0
 13 16  1  0
 16 17  1  0
 17 18  1  0
 18 19  1  0
 19 20  1  0
 20 21  1  0
 21 22  1  0
 22 23  1  0
 13 14  1  0
 14 15  2  0
  5  6  1  0
  6  7  2  0
  7 24  1  0
 24 26  1  0
 26 27  2  0
 27 28  1  0
 28 29  1  0
 28 30  2  0
 30 31  1  0
 31 33  1  0
 33 34  2  0
 33 35  2  0
 33 36  1  0
 36 38  1  0
 38 39  1  0
 38 40  1  0
 38 41  1  0
 31 32  2  0
  7  2  1  0
 32 26  1  0
 15 10  1  0
 23 19  1  0
  8  9  1  0
 24 25  1  0
 36 37  1  0
M  END
> <minimizedAffinity>
-8.08621

> <CNNscore>
0.4235131741

> <CNNaffinity>
6.6049880981

> <CNN_VS>
2.7972993851

> <CNNaffinity_variance>
0.3953184187

$$$$



 41 44  0  0  0  0  0  0  0  0999 V2000
   19.8348   33.6527   20.9787 C   0  0  0  0  0  0  0  0  0  0  0  0
   19.9061   34.8336   21.8893 C   0  0  0  0  0  0  0  0  0  0  0  0
   19.2843   34.8074   23.1176 C   0  0  0  0  0  0  0  0  0  0  0  0
   19.2791   35.8368   23.9814 N   0  0  0  0  0  0  0  0  0  0  0  0
   19.9186   36.9497   23.6108 C   0  0  0  0  0  0  0  0  0  0  0  0
   20.5740   37.0642   22.4448 N   0  0  0  0  0  0  0  0  0  0  0  0
   20.5821   36.0082   21.6102 C   0  0  0  0  0  0  0  0  0  0  0  0
   19.9435   38.0906   24.4086 N   0  0  0  0  0  0  0  0  0  0  0  0
   19.1017   38.6002   24.3774 H   0  0  0  0  0  0  0  0  0  0  0  0
   20.9025   38.6710   25.2446 C   0  0  0  0  0  0  0  0  0  0  0  0
   22.2297   38.7422   24.7958 C   0  0  0  0  0  0  0  0  0  0  0  0
   23.2305   39.3296   25.5775 C   0  0  0  0  0  0  0  0  0  0  0  0
   22.9333   39.8614   26.8307 C   0  0  0  0  0  0  0  0  0  0  0  0
   21.6266   39.7768   27.3002 C   0  0  0  0  0  0  0  0  0  0  0  0
   20.6254   39.1873   26.5124 C   0  0  0  0  0  0  0  0  0  0  0  0
   23.9962   40.4259   27.4744 O   0  0  0  0  0  0  0  0  0  0  0  0
   24.0221   40.4221   28.9052 C   0  0  0  0  0  0  0  0  0  0  0  0
   24.5632   39.1034   29.4957 C   0  0  0  0  0  0  0  0  0  0  0  0
   26.0311   39.0488   29.5974 N   0  0  0  0  0  0  0  0  0  0  0  0
   26.4644   38.3947   30.8346 C   0  0  0  0  0  0  0  0  0  0  0  0
   27.9383   38.7542   30.9075 C   0  0  0  0  0  0  0  0  0  0  0  0
   28.0500   40.0943   30.1900 C   0  0  0  0  0  0  0  0  0  0  0  0
   26.6589   40.3725   29.6351 C   0  0  0  0  0  0  0  0  0  0  0  0
   21.2961   36.2106   20.4119 N   0  0  0  0  0  0  0  0  0  0  0  0
   21.5655   35.4062   19.9122 H   0  0  0  0  0  0  0  0  0  0  0  0
   21.6629   37.4626   19.8583 C   0  0  0  0  0  0  0  0  0  0  0  0
   21.2693   38.6857   20.4130 C   0  0  0  0  0  0  0  0  0  0  0  0
   21.6085   39.8825   19.7851 C   0  0  0  0  0  0  0  0  0  0  0  0
   21.2356   41.0426   20.3414 F   0  0  0  0  0  0  0  0  0  0  0  0
   22.3130   39.8980   18.5907 C   0  0  0  0  0  0  0  0  0  0  0  0
   22.6671   38.6810   18.0117 C   0  0  0  0  0  0  0  0  0  0  0  0
   22.3501   37.4688   18.6382 C   0  0  0  0  0  0  0  0  0  0  0  0
   23.5684   38.6514   16.4907 S   0  0  0  0  0  0  0  0  0  0  0  0
   23.1650   39.7845   15.6907 O   0  0  0  0  0  0  0  0  0  0  0  0
   24.9576   38.4368   16.8344 O   0  0  0  0  0  0  0  0  0  0  0  0
   23.0660   37.2424   15.7527 N   0  0  0  0  0  0  0  0  0  0  0  0
   22.3397   37.5389   15.1007 H   0  0  0  0  0  0  0  0  0  0  0  0
   23.8736   36.2714   14.9923 C   0  0  0  0  0  0  0  0  0  0  0  0
   24.6527   35.3041   15.8835 C   0  0  0  0  0  0  0  0  0  0  0  0
   24.8225   37.0204   14.0514 C   0  0  0  0  0  0  0  0  0  0  0  0
   22.8824   35.4557   14.1404 C   0  0  0  0  0  0  0  0  0  0  0  0
  1  2  1  0
  2  3  2  0
  3  4  1  0
  4  5  2  0
  5  8  1  0
  8 10  1  0
 10 11  2  0
 11 12  1  0
 12 13  2  0
 13 16  1  0
 16 17  1  0
 17 18  1  0
 18 19  1  0
 19 20  1  0
 20 21  1  0
 21 22  1  0
 22 23  1  0
 13 14  1  0
 14 15  2  0
  5  6  1  0
  6  7  2  0
  7 24  1  0
 24 26  1  0
 26 27  2  0
 27 28  1  0
 28 29  1  0
 28 30  2  0
 30 31  1  0
 31 33  1  0
 33 34  2  0
 33 35  2  0
 33 36  1  0
 36 38  1  0
 38 39  1  0
 38 40  1  0
 38 41  1  0
 31 32  2  0
  7  2  1  0
 32 26  1  0
 15 10  1  0
 23 19  1  0
  8  9  1  0
 24 25  1  0
 36 37  1  0
M  END
> <minimizedAffinity>
-8.94922

> <CNNscore>
0.3569271863

> <CNNaffinity>
7.0306754112

> <CNN_VS>
2.5094392300

> <CNNaffinity_variance>
0.9737011790

$$$$



 41 44  0  0  0  0  0  0  0  0999 V2000
   21.6381   37.7184   23.4482 C   0  0  0  0  0  0  0  0  0  0  0  0
   20.5335   38.3640   24.2176 C   0  0  0  0  0  0  0  0  0  0  0  0
   20.7530   39.5373   24.9042 C   0  0  0  0  0  0  0  0  0  0  0  0
   19.8205   40.1651   25.6403 N   0  0  0  0  0  0  0  0  0  0  0  0
   18.6102   39.6028   25.7035 C   0  0  0  0  0  0  0  0  0  0  0  0
   18.2921   38.4736   25.0508 N   0  0  0  0  0  0  0  0  0  0  0  0
   19.2400   37.8801   24.3018 C   0  0  0  0  0  0  0  0  0  0  0  0
   17.5805   40.1443   26.4686 N   0  0  0  0  0  0  0  0  0  0  0  0
   17.8115   40.2248   27.4223 H   0  0  0  0  0  0  0  0  0  0  0  0
   16.2903   40.5988   26.1788 C   0  0  0  0  0  0  0  0  0  0  0  0
   15.2299   40.1739   26.9930 C   0  0  0  0  0  0  0  0  0  0  0  0
   13.9199   40.6102   26.7665 C   0  0  0  0  0  0  0  0  0  0  0  0
   13.6325   41.4826   25.7188 C   0  0  0  0  0  0  0  0  0  0  0  0
   14.6692   41.8940   24.8875 C   0  0  0  0  0  0  0  0  0  0  0  0
   15.9821   41.4545   25.1187 C   0  0  0  0  0  0  0  0  0  0  0  0
   12.3204   41.8474   25.6276 O   0  0  0  0  0  0  0  0  0  0  0  0
   11.4118   40.9971   24.9210 C   0  0  0  0  0  0  0  0  0  0  0  0
   10.2420   40.5029   25.7972 C   0  0  0  0  0  0  0  0  0  0  0  0
   10.2207   39.0453   26.0040 N   0  0  0  0  0  0  0  0  0  0  0  0
    9.9513   38.3251   24.7571 C   0  0  0  0  0  0  0  0  0  0  0  0
    9.6260   36.9227   25.2414 C   0  0  0  0  0  0  0  0  0  0  0  0
    9.0353   37.1166   26.6330 C   0  0  0  0  0  0  0  0  0  0  0  0
    9.1678   38.6060   26.9241 C   0  0  0  0  0  0  0  0  0  0  0  0
   18.8219   36.7039   23.6471 N   0  0  0  0  0  0  0  0  0  0  0  0
   18.6734   36.7633   22.6757 H   0  0  0  0  0  0  0  0  0  0  0  0
   18.5951   35.4440   24.2550 C   0  0  0  0  0  0  0  0  0  0  0  0
   18.3547   35.2913   25.6253 C   0  0  0  0  0  0  0  0  0  0  0  0
   18.2029   34.0193   26.1735 C   0  0  0  0  0  0  0  0  0  0  0  0
   17.9575   33.8964   27.4847 F   0  0  0  0  0  0  0  0  0  0  0  0
   18.3126   32.8780   25.3936 C   0  0  0  0  0  0  0  0  0  0  0  0
   18.5972   33.0242   24.0374 C   0  0  0  0  0  0  0  0  0  0  0  0
   18.7351   34.2957   23.4658 C   0  0  0  0  0  0  0  0  0  0  0  0
   18.7433   31.5976   23.0030 S   0  0  0  0  0  0  0  0  0  0  0  0
   17.4430   30.9812   22.8769 O   0  0  0  0  0  0  0  0  0  0  0  0
   19.4924   32.0059   21.8342 O   0  0  0  0  0  0  0  0  0  0  0  0
   19.7585   30.5849   23.8552 N   0  0  0  0  0  0  0  0  0  0  0  0
   19.6600   30.8805   24.8265 H   0  0  0  0  0  0  0  0  0  0  0  0
   19.7422   29.1118   23.9121 C   0  0  0  0  0  0  0  0  0  0  0  0
   19.2148   28.4635   22.6320 C   0  0  0  0  0  0  0  0  0  0  0  0
   18.9238   28.6554   25.1240 C   0  0  0  0  0  0  0  0  0  0  0  0
   21.2040   28.6694   24.1139 C   0  0  0  0  0  0  0  0  0  0  0  0
  1  2  1  0
  2  3  2  0
  3  4  1  0
  4  5  2  0
  5  8  1  0
  8 10  1  0
 10 11  2  0
 11 12  1  0
 12 13  2  0
 13 16  1  0
 16 17  1  0
 17 18  1  0
 18 19  1  0
 19 20  1  0
 20 21  1  0
 21 22  1  0
 22 23  1  0
 13 14  1  0
 14 15  2  0
  5  6  1  0
  6  7  2  0
  7 24  1  0
 24 26  1  0
 26 27  2  0
 27 28  1  0
 28 29  1  0
 28 30  2  0
 30 31  1  0
 31 33  1  0
 33 34  2  0
 33 35  2  0
 33 36  1  0
 36 38  1  0
 38 39  1  0
 38 40  1  0
 38 41  1  0
 31 32  2  0
  7  2  1  0
 32 26  1  0
 15 10  1  0
 23 19  1  0
  8  9  1  0
 24 25  1  0
 36 37  1  0
M  END
> <minimizedAffinity>
-7.78016

> <CNNscore>
0.3046374321

> <CNNaffinity>
6.3832554817

> <CNN_VS>
1.9445785284

> <CNNaffinity_variance>
0.5895716548

$$$$



 41 44  0  0  0  0  0  0  0  0999 V2000
   22.0034   38.4627   24.8624 C   0  0  0  0  0  0  0  0  0  0  0  0
   20.6527   39.0842   24.7276 C   0  0  0  0  0  0  0  0  0  0  0  0
   20.5133   40.4538   24.6999 C   0  0  0  0  0  0  0  0  0  0  0  0
   19.3328   41.0892   24.6083 N   0  0  0  0  0  0  0  0  0  0  0  0
   18.2339   40.3321   24.5438 C   0  0  0  0  0  0  0  0  0  0  0  0
   18.2682   38.9901   24.5399 N   0  0  0  0  0  0  0  0  0  0  0  0
   19.4668   38.3815   24.6085 C   0  0  0  0  0  0  0  0  0  0  0  0
   16.9565   40.8834   24.4875 N   0  0  0  0  0  0  0  0  0  0  0  0
   16.8537   41.5426   23.7636 H   0  0  0  0  0  0  0  0  0  0  0  0
   15.7877   40.7055   25.2343 C   0  0  0  0  0  0  0  0  0  0  0  0
   15.8704   40.7580   26.6336 C   0  0  0  0  0  0  0  0  0  0  0  0
   14.7332   40.6080   27.4348 C   0  0  0  0  0  0  0  0  0  0  0  0
   13.4811   40.3998   26.8599 C   0  0  0  0  0  0  0  0  0  0  0  0
   13.3862   40.3210   25.4743 C   0  0  0  0  0  0  0  0  0  0  0  0
   14.5295   40.4728   24.6742 C   0  0  0  0  0  0  0  0  0  0  0  0
   12.4558   40.2960   27.7548 O   0  0  0  0  0  0  0  0  0  0  0  0
   11.2104   40.9363   27.4597 C   0  0  0  0  0  0  0  0  0  0  0  0
   10.0634   40.4817   28.3862 C   0  0  0  0  0  0  0  0  0  0  0  0
    8.9931   39.7412   27.6977 N   0  0  0  0  0  0  0  0  0  0  0  0
    7.7968   39.6157   28.5340 C   0  0  0  0  0  0  0  0  0  0  0  0
    6.9879   38.5547   27.8080 C   0  0  0  0  0  0  0  0  0  0  0  0
    8.0243   37.6835   27.1081 C   0  0  0  0  0  0  0  0  0  0  0  0
    9.3633   38.3625   27.3660 C   0  0  0  0  0  0  0  0  0  0  0  0
   19.4133   36.9730   24.5940 N   0  0  0  0  0  0  0  0  0  0  0  0
   19.2097   36.5259   25.4472 H   0  0  0  0  0  0  0  0  0  0  0  0
   19.6249   36.1397   23.4675 C   0  0  0  0  0  0  0  0  0  0  0  0
   19.3984   34.7588   23.4878 C   0  0  0  0  0  0  0  0  0  0  0  0
   19.6869   33.9838   22.3662 C   0  0  0  0  0  0  0  0  0  0  0  0
   19.4474   32.6663   22.4014 F   0  0  0  0  0  0  0  0  0  0  0  0
   20.2277   34.5451   21.2192 C   0  0  0  0  0  0  0  0  0  0  0  0
   20.4972   35.9122   21.2113 C   0  0  0  0  0  0  0  0  0  0  0  0
   20.1969   36.7095   22.3232 C   0  0  0  0  0  0  0  0  0  0  0  0
   21.1840   36.6724   19.7701 S   0  0  0  0  0  0  0  0  0  0  0  0
   22.5182   37.1316   20.0794 O   0  0  0  0  0  0  0  0  0  0  0  0
   20.9430   35.7672   18.6672 O   0  0  0  0  0  0  0  0  0  0  0  0
   20.1931   37.9861   19.4972 N   0  0  0  0  0  0  0  0  0  0  0  0
   19.7320   38.1504   20.3921 H   0  0  0  0  0  0  0  0  0  0  0  0
   20.5682   39.3299   19.0207 C   0  0  0  0  0  0  0  0  0  0  0  0
   19.3688   40.1763   18.5940 C   0  0  0  0  0  0  0  0  0  0  0  0
   21.5742   39.2033   17.8723 C   0  0  0  0  0  0  0  0  0  0  0  0
   21.2616   40.0317   20.2038 C   0  0  0  0  0  0  0  0  0  0  0  0
  1  2  1  0
  2  3  2  0
  3  4  1  0
  4  5  2  0
  5  8  1  0
  8 10  1  0
 10 11  2  0
 11 12  1  0
 12 13  2  0
 13 16  1  0
 16 17  1  0
 17 18  1  0
 18 19  1  0
 19 20  1  0
 20 21  1  0
 21 22  1  0
 22 23  1  0
 13 14  1  0
 14 15  2  0
  5  6  1  0
  6  7  2  0
  7 24  1  0
 24 26  1  0
 26 27  2  0
 27 28  1  0
 28 29  1  0
 28 30  2  0
 30 31  1  0
 31 33  1  0
 33 34  2  0
 33 35  2  0
 33 36  1  0
 36 38  1  0
 38 39  1  0
 38 40  1  0
 38 41  1  0
 31 32  2  0
  7  2  1  0
 32 26  1  0
 15 10  1  0
 23 19  1  0
  8  9  1  0
 24 25  1  0
 36 37  1  0
M  END
> <minimizedAffinity>
-7.26983

> <CNNscore>
0.2688994408

> <CNNaffinity>
6.2448334694

> <CNN_VS>
1.6792322397

> <CNNaffinity_variance>
1.6764842272

$$$$



 41 44  0  0  0  0  0  0  0  0999 V2000
   19.4447   43.1895   21.0871 C   0  0  0  0  0  0  0  0  0  0  0  0
   20.1968   42.4525   22.1453 C   0  0  0  0  0  0  0  0  0  0  0  0
   20.8544   43.1388   23.1417 C   0  0  0  0  0  0  0  0  0  0  0  0
   21.5739   42.5512   24.1127 N   0  0  0  0  0  0  0  0  0  0  0  0
   21.6500   41.2174   24.0959 C   0  0  0  0  0  0  0  0  0  0  0  0
   21.0251   40.4596   23.1808 N   0  0  0  0  0  0  0  0  0  0  0  0
   20.2919   41.0750   22.2346 C   0  0  0  0  0  0  0  0  0  0  0  0
   22.4005   40.5063   25.0285 N   0  0  0  0  0  0  0  0  0  0  0  0
   23.1563   40.0214   24.6247 H   0  0  0  0  0  0  0  0  0  0  0  0
   22.3157   40.3301   26.4131 C   0  0  0  0  0  0  0  0  0  0  0  0
   21.8032   39.1209   26.9060 C   0  0  0  0  0  0  0  0  0  0  0  0
   21.7124   38.8769   28.2808 C   0  0  0  0  0  0  0  0  0  0  0  0
   22.1301   39.8354   29.2019 C   0  0  0  0  0  0  0  0  0  0  0  0
   22.6181   41.0492   28.7292 C   0  0  0  0  0  0  0  0  0  0  0  0
   22.7082   41.2896   27.3491 C   0  0  0  0  0  0  0  0  0  0  0  0
   22.0100   39.4577   30.5080 O   0  0  0  0  0  0  0  0  0  0  0  0
   22.1191   38.0703   30.8415 C   0  0  0  0  0  0  0  0  0  0  0  0
   22.6072   37.8332   32.2858 C   0  0  0  0  0  0  0  0  0  0  0  0
   23.4998   38.8860   32.7984 N   0  0  0  0  0  0  0  0  0  0  0  0
   24.9005   38.6202   32.4612 C   0  0  0  0  0  0  0  0  0  0  0  0
   25.6525   39.5905   33.3557 C   0  0  0  0  0  0  0  0  0  0  0  0
   24.7557   39.7742   34.5744 C   0  0  0  0  0  0  0  0  0  0  0  0
   23.4825   38.9995   34.2595 C   0  0  0  0  0  0  0  0  0  0  0  0
   19.6662   40.2066   21.3175 N   0  0  0  0  0  0  0  0  0  0  0  0
   18.6947   40.3109   21.1965 H   0  0  0  0  0  0  0  0  0  0  0  0
   20.3033   39.1976   20.5531 C   0  0  0  0  0  0  0  0  0  0  0  0
   20.1648   37.8322   20.8273 C   0  0  0  0  0  0  0  0  0  0  0  0
   20.8687   36.8912   20.0784 C   0  0  0  0  0  0  0  0  0  0  0  0
   20.7093   35.5885   20.3469 F   0  0  0  0  0  0  0  0  0  0  0  0
   21.7396   37.2747   19.0698 C   0  0  0  0  0  0  0  0  0  0  0  0
   21.9149   38.6351   18.8241 C   0  0  0  0  0  0  0  0  0  0  0  0
   21.2019   39.5942   19.5550 C   0  0  0  0  0  0  0  0  0  0  0  0
   23.0129   39.1713   17.5460 S   0  0  0  0  0  0  0  0  0  0  0  0
   22.5683   40.4578   17.0625 O   0  0  0  0  0  0  0  0  0  0  0  0
   24.3575   38.9863   18.0478 O   0  0  0  0  0  0  0  0  0  0  0  0
   22.8209   38.0293   16.3454 N   0  0  0  0  0  0  0  0  0  0  0  0
   22.4989   38.5596   15.5357 H   0  0  0  0  0  0  0  0  0  0  0  0
   23.8255   37.0967   15.8027 C   0  0  0  0  0  0  0  0  0  0  0  0
   23.4551   36.5433   14.4266 C   0  0  0  0  0  0  0  0  0  0  0  0
   24.0549   35.9554   16.7986 C   0  0  0  0  0  0  0  0  0  0  0  0
   25.1337   37.8989   15.6676 C   0  0  0  0  0  0  0  0  0  0  0  0
  1  2  1  0
  2  3  2  0
  3  4  1  0
  4  5  2  0
  5  8  1  0
  8 10  1  0
 10 11  2  0
 11 12  1  0
 12 13  2  0
 13 16  1  0
 16 17  1  0
 17 18  1  0
 18 19  1  0
 19 20  1  0
 20 21  1  0
 21 22  1  0
 22 23  1  0
 13 14  1  0
 14 15  2  0
  5  6  1  0
  6  7  2  0
  7 24  1  0
 24 26  1  0
 26 27  2  0
 27 28  1  0
 28 29  1  0
 28 30  2  0
 30 31  1  0
 31 33  1  0
 33 34  2  0
 33 35  2  0
 33 36  1  0
 36 38  1  0
 38 39  1  0
 38 40  1  0
 38 41  1  0
 31 32  2  0
  7  2  1  0
 32 26  1  0
 15 10  1  0
 23 19  1  0
  8  9  1  0
 24 25  1  0
 36 37  1  0
M  END
> <minimizedAffinity>
-7.90025

> <CNNscore>
0.2664630413

> <CNNaffinity>
6.5916361809

> <CNN_VS>
1.7564274073

> <CNNaffinity_variance>
0.8164565563

$$$$



 41 44  0  0  0  0  0  0  0  0999 V2000
   17.9349   34.0984   25.4211 C   0  0  0  0  0  0  0  0  0  0  0  0
   18.6562   34.4971   24.1764 C   0  0  0  0  0  0  0  0  0  0  0  0
   19.0282   33.5486   23.2500 C   0  0  0  0  0  0  0  0  0  0  0  0
   19.7021   33.8227   22.1202 N   0  0  0  0  0  0  0  0  0  0  0  0
   20.0276   35.0990   21.8963 C   0  0  0  0  0  0  0  0  0  0  0  0
   19.6894   36.0978   22.7271 N   0  0  0  0  0  0  0  0  0  0  0  0
   18.9935   35.7959   23.8390 C   0  0  0  0  0  0  0  0  0  0  0  0
   20.7601   35.4919   20.7792 N   0  0  0  0  0  0  0  0  0  0  0  0
   21.2748   34.7547   20.3781 H   0  0  0  0  0  0  0  0  0  0  0  0
   20.9246   36.7045   20.1025 C   0  0  0  0  0  0  0  0  0  0  0  0
   22.1701   37.3466   20.1683 C   0  0  0  0  0  0  0  0  0  0  0  0
   22.4028   38.5514   19.4959 C   0  0  0  0  0  0  0  0  0  0  0  0
   21.3966   39.1492   18.7397 C   0  0  0  0  0  0  0  0  0  0  0  0
   20.1486   38.5373   18.6843 C   0  0  0  0  0  0  0  0  0  0  0  0
   19.9196   37.3283   19.3597 C   0  0  0  0  0  0  0  0  0  0  0  0
   21.7661   40.3060   18.1167 O   0  0  0  0  0  0  0  0  0  0  0  0
   22.2168   40.2493   16.7596 C   0  0  0  0  0  0  0  0  0  0  0  0
   23.6055   39.5934   16.6116 C   0  0  0  0  0  0  0  0  0  0  0  0
   23.5986   38.3410   15.8374 N   0  0  0  0  0  0  0  0  0  0  0  0
   23.6872   37.1658   16.7076 C   0  0  0  0  0  0  0  0  0  0  0  0
   24.0176   36.0488   15.7328 C   0  0  0  0  0  0  0  0  0  0  0  0
   24.7806   36.7293   14.6023 C   0  0  0  0  0  0  0  0  0  0  0  0
   24.7391   38.2174   14.9255 C   0  0  0  0  0  0  0  0  0  0  0  0
   18.6754   36.9020   24.6526 N   0  0  0  0  0  0  0  0  0  0  0  0
   19.0499   36.9080   25.5631 H   0  0  0  0  0  0  0  0  0  0  0  0
   17.8674   38.0064   24.2840 C   0  0  0  0  0  0  0  0  0  0  0  0
   17.9580   38.6341   23.0364 C   0  0  0  0  0  0  0  0  0  0  0  0
   17.1808   39.7565   22.7575 C   0  0  0  0  0  0  0  0  0  0  0  0
   17.2712   40.3324   21.5514 F   0  0  0  0  0  0  0  0  0  0  0  0
   16.3252   40.2972   23.7055 C   0  0  0  0  0  0  0  0  0  0  0  0
   16.2661   39.7024   24.9642 C   0  0  0  0  0  0  0  0  0  0  0  0
   17.0268   38.5628   25.2560 C   0  0  0  0  0  0  0  0  0  0  0  0
   15.1874   40.3552   26.2039 S   0  0  0  0  0  0  0  0  0  0  0  0
   15.2913   39.5341   27.3878 O   0  0  0  0  0  0  0  0  0  0  0  0
   15.4322   41.7803   26.2599 O   0  0  0  0  0  0  0  0  0  0  0  0
   13.6655   40.1869   25.5422 N   0  0  0  0  0  0  0  0  0  0  0  0
   13.4678   39.1881   25.6035 H   0  0  0  0  0  0  0  0  0  0  0  0
   12.4111   40.8399   25.9585 C   0  0  0  0  0  0  0  0  0  0  0  0
   12.4087   42.3503   25.7220 C   0  0  0  0  0  0  0  0  0  0  0  0
   12.1347   40.5248   27.4320 C   0  0  0  0  0  0  0  0  0  0  0  0
   11.2919   40.2130   25.1055 C   0  0  0  0  0  0  0  0  0  0  0  0
  1  2  1  0
  2  3  2  0
  3  4  1  0
  4  5  2  0
  5  8  1  0
  8 10  1  0
 10 11  2  0
 11 12  1  0
 12 13  2  0
 13 16  1  0
 16 17  1  0
 17 18  1  0
 18 19  1  0
 19 20  1  0
 20 21  1  0
 21 22  1  0
 22 23  1  0
 13 14  1  0
 14 15  2  0
  5  6  1  0
  6  7  2  0
  7 24  1  0
 24 26  1  0
 26 27  2  0
 27 28  1  0
 28 29  1  0
 28 30  2  0
 30 31  1  0
 31 33  1  0
 33 34  2  0
 33 35  2  0
 33 36  1  0
 36 38  1  0
 38 39  1  0
 38 40  1  0
 38 41  1  0
 31 32  2  0
  7  2  1  0
 32 26  1  0
 15 10  1  0
 23 19  1  0
  8  9  1  0
 24 25  1  0
 36 37  1  0
M  END
> <minimizedAffinity>
-9.42966

> <CNNscore>
0.2489005625

> <CNNaffinity>
6.7576041222

> <CNN_VS>
1.6819714308

> <CNNaffinity_variance>
1.5888413191

$$$$
