


 43 47  0  0  0  0  0  0  0  0999 V2000
  -51.3871  -11.5956  -24.3505 C   0  0  0  0  0  0  0  0  0  0  0  0
  -49.7193   -9.3063  -24.2897 O   0  0  0  0  0  0  0  0  0  0  0  0
  -49.8182   -9.9982  -23.2838 C   0  0  0  0  0  0  0  0  0  0  0  0
  -50.6311  -11.0925  -23.1957 N   0  0  0  0  0  0  0  0  0  0  0  0
  -50.7127  -11.5582  -22.3321 H   0  0  0  0  0  0  0  0  0  0  0  0
  -49.0737   -9.7135  -22.0383 C   0  0  0  0  0  0  0  0  0  0  0  0
  -48.6546  -10.7396  -21.2747 C   0  0  0  0  0  0  0  0  0  0  0  0
  -47.9623  -10.5099  -20.0050 C   0  0  0  0  0  0  0  0  0  0  0  0
  -46.5546  -10.4567  -20.0878 C   0  0  0  0  0  0  0  0  0  0  0  0
  -45.7751  -10.2279  -18.9561 C   0  0  0  0  0  0  0  0  0  0  0  0
  -44.0634  -10.1643  -19.0933 Cl  0  0  0  0  0  0  0  0  0  0  0  0
  -46.3769  -10.0477  -17.7204 C   0  0  0  0  0  0  0  0  0  0  0  0
  -47.7687  -10.1005  -17.6171 C   0  0  0  0  0  0  0  0  0  0  0  0
  -48.5840  -10.3346  -18.7495 C   0  0  0  0  0  0  0  0  0  0  0  0
  -49.9949  -10.3783  -18.5341 N   0  0  0  0  0  0  0  0  0  0  0  0
  -50.7862  -11.1920  -17.7580 C   0  0  0  0  0  0  0  0  0  0  0  0
  -52.0435  -10.8281  -17.8685 N   0  0  0  0  0  0  0  0  0  0  0  0
  -52.0478   -9.7667  -18.7286 N   0  0  0  0  0  0  0  0  0  0  0  0
  -50.8214   -9.4832  -19.1383 N   0  0  0  0  0  0  0  0  0  0  0  0
  -52.6711  -10.7530  -24.5507 C   0  0  0  0  0  0  0  0  0  0  0  0
  -53.7388  -11.0683  -24.0345 O   0  0  0  0  0  0  0  0  0  0  0  0
  -52.4489   -9.6419  -25.3510 N   0  0  0  0  0  0  0  0  0  0  0  0
  -51.5132   -9.4793  -25.6106 H   0  0  0  0  0  0  0  0  0  0  0  0
  -53.3905   -8.7184  -25.8384 C   0  0  0  0  0  0  0  0  0  0  0  0
  -54.2113   -8.0913  -24.8932 C   0  0  0  0  0  0  0  0  0  0  0  0
  -55.1448   -7.1202  -25.2792 C   0  0  0  0  0  0  0  0  0  0  0  0
  -55.2751   -6.7543  -26.6256 C   0  0  0  0  0  0  0  0  0  0  0  0
  -54.4646   -7.4045  -27.5689 C   0  0  0  0  0  0  0  0  0  0  0  0
  -53.5308   -8.3751  -27.1811 C   0  0  0  0  0  0  0  0  0  0  0  0
  -56.2073   -5.7224  -27.0736 C   0  0  0  0  0  0  0  0  0  0  0  0
  -57.0015   -4.9772  -26.3229 N   0  0  0  0  0  0  0  0  0  0  0  0
  -57.7175   -4.1782  -27.1811 N   0  0  0  0  0  0  0  0  0  0  0  0
  -57.3874   -4.4185  -28.4420 N   0  0  0  0  0  0  0  0  0  0  0  0
  -56.4500   -5.3707  -28.3749 N   0  0  0  0  0  0  0  0  0  0  0  0
  -55.9965   -5.7650  -29.1547 H   0  0  0  0  0  0  0  0  0  0  0  0
  -51.7472  -13.0853  -24.1825 C   0  0  0  0  0  0  0  0  0  0  0  0
  -51.3716  -13.6481  -22.8257 C   0  0  0  0  0  0  0  0  0  0  0  0
  -50.3303  -14.5853  -22.7098 C   0  0  0  0  0  0  0  0  0  0  0  0
  -49.9884  -15.1116  -21.4623 C   0  0  0  0  0  0  0  0  0  0  0  0
  -50.6860  -14.7020  -20.3313 C   0  0  0  0  0  0  0  0  0  0  0  0
  -50.3608  -15.2137  -19.1363 F   0  0  0  0  0  0  0  0  0  0  0  0
  -51.7106  -13.7688  -20.4228 C   0  0  0  0  0  0  0  0  0  0  0  0
  -52.0508  -13.2355  -21.6678 C   0  0  0  0  0  0  0  0  0  0  0  0
  2  3  2  0
  3  6  1  0
  6  7  2  0
  7  8  1  0
  8  9  2  0
  9 10  1  0
 10 11  1  0
 10 12  2  0
 12 13  1  0
 13 14  2  0
 14 15  1  0
 15 16  1  0
 16 17  2  0
 17 18  1  0
 18 19  2  0
  3  4  1  0
  4  1  1  0
  1 36  1  0
 36 37  1  0
 37 38  2  0
 38 39  1  0
 39 40  2  0
 40 41  1  0
 40 42  1  0
 42 43  2  0
  1 20  1  0
 20 21  2  0
 20 22  1  0
 22 24  1  0
 24 25  2  0
 25 26  1  0
 26 27  2  0
 27 30  1  0
 30 31  2  0
 31 32  1  0
 32 33  2  0
 33 34  1  0
 27 28  1  0
 28 29  2  0
 14  8  1  0
 19 15  1  0
 43 37  1  0
 29 24  1  0
 34 30  1  0
  4  5  1  0
 22 23  1  0
 34 35  1  0
M  END
> <minimizedAffinity>
-10.15975

> <CNNscore>
0.9611924887

> <CNNaffinity>
8.7357177734

> <CNN_VS>
8.3967065811

> <CNNaffinity_variance>
0.0282587204

$$$$



 43 47  0  0  0  0  0  0  0  0999 V2000
  -51.2587  -11.2605  -24.5766 C   0  0  0  0  0  0  0  0  0  0  0  0
  -50.0583  -13.3962  -23.1541 O   0  0  0  0  0  0  0  0  0  0  0  0
  -50.0129  -12.2666  -22.6828 C   0  0  0  0  0  0  0  0  0  0  0  0
  -50.5182  -11.1641  -23.3114 N   0  0  0  0  0  0  0  0  0  0  0  0
  -50.3820  -10.2781  -22.9043 H   0  0  0  0  0  0  0  0  0  0  0  0
  -49.3869  -11.9671  -21.3770 C   0  0  0  0  0  0  0  0  0  0  0  0
  -48.6093  -10.8751  -21.2567 C   0  0  0  0  0  0  0  0  0  0  0  0
  -47.9225  -10.5647  -20.0013 C   0  0  0  0  0  0  0  0  0  0  0  0
  -46.5145  -10.5153  -20.0814 C   0  0  0  0  0  0  0  0  0  0  0  0
  -45.7400  -10.2145  -18.9633 C   0  0  0  0  0  0  0  0  0  0  0  0
  -44.0277  -10.1578  -19.0971 Cl  0  0  0  0  0  0  0  0  0  0  0  0
  -46.3471   -9.9571  -17.7440 C   0  0  0  0  0  0  0  0  0  0  0  0
  -47.7393  -10.0048  -17.6433 C   0  0  0  0  0  0  0  0  0  0  0  0
  -48.5496  -10.3110  -18.7620 C   0  0  0  0  0  0  0  0  0  0  0  0
  -49.9614  -10.3426  -18.5501 N   0  0  0  0  0  0  0  0  0  0  0  0
  -50.9955   -9.6284  -19.1079 C   0  0  0  0  0  0  0  0  0  0  0  0
  -52.1393  -10.0328  -18.6041 N   0  0  0  0  0  0  0  0  0  0  0  0
  -51.8236  -11.0191  -17.7130 N   0  0  0  0  0  0  0  0  0  0  0  0
  -50.5157  -11.2179  -17.6691 N   0  0  0  0  0  0  0  0  0  0  0  0
  -52.4453  -10.2652  -24.5730 C   0  0  0  0  0  0  0  0  0  0  0  0
  -53.2305  -10.1980  -23.6324 O   0  0  0  0  0  0  0  0  0  0  0  0
  -52.4852   -9.4938  -25.7253 N   0  0  0  0  0  0  0  0  0  0  0  0
  -51.7271   -9.6050  -26.3435 H   0  0  0  0  0  0  0  0  0  0  0  0
  -53.4710   -8.5731  -26.1221 C   0  0  0  0  0  0  0  0  0  0  0  0
  -54.2927   -8.0511  -25.1159 C   0  0  0  0  0  0  0  0  0  0  0  0
  -55.2699   -7.0903  -25.4082 C   0  0  0  0  0  0  0  0  0  0  0  0
  -55.4440   -6.6292  -26.7200 C   0  0  0  0  0  0  0  0  0  0  0  0
  -54.6317   -7.1748  -27.7259 C   0  0  0  0  0  0  0  0  0  0  0  0
  -53.6542   -8.1351  -27.4318 C   0  0  0  0  0  0  0  0  0  0  0  0
  -56.4236   -5.6030  -27.0695 C   0  0  0  0  0  0  0  0  0  0  0  0
  -57.2505   -4.9711  -26.2531 N   0  0  0  0  0  0  0  0  0  0  0  0
  -58.0037   -4.1271  -27.0327 N   0  0  0  0  0  0  0  0  0  0  0  0
  -57.6645   -4.2294  -28.3098 N   0  0  0  0  0  0  0  0  0  0  0  0
  -56.6840   -5.1393  -28.3317 N   0  0  0  0  0  0  0  0  0  0  0  0
  -56.2137   -5.4353  -29.1443 H   0  0  0  0  0  0  0  0  0  0  0  0
  -51.7664  -12.6952  -24.8243 C   0  0  0  0  0  0  0  0  0  0  0  0
  -52.3421  -12.9008  -26.2118 C   0  0  0  0  0  0  0  0  0  0  0  0
  -51.5934  -12.5528  -27.3495 C   0  0  0  0  0  0  0  0  0  0  0  0
  -52.1250  -12.7331  -28.6281 C   0  0  0  0  0  0  0  0  0  0  0  0
  -53.4036  -13.2608  -28.7704 C   0  0  0  0  0  0  0  0  0  0  0  0
  -53.9144  -13.4264  -29.9982 F   0  0  0  0  0  0  0  0  0  0  0  0
  -54.1554  -13.6215  -27.6597 C   0  0  0  0  0  0  0  0  0  0  0  0
  -53.6243  -13.4486  -26.3797 C   0  0  0  0  0  0  0  0  0  0  0  0
  2  3  2  0
  3  6  1  0
  6  7  2  0
  7  8  1  0
  8  9  2  0
  9 10  1  0
 10 11  1  0
 10 12  2  0
 12 13  1  0
 13 14  2  0
 14 15  1  0
 15 16  1  0
 16 17  2  0
 17 18  1  0
 18 19  2  0
  3  4  1  0
  4  1  1  0
  1 36  1  0
 36 37  1  0
 37 38  2  0
 38 39  1  0
 39 40  2  0
 40 41  1  0
 40 42  1  0
 42 43  2  0
  1 20  1  0
 20 21  2  0
 20 22  1  0
 22 24  1  0
 24 25  2  0
 25 26  1  0
 26 27  2  0
 27 30  1  0
 30 31  2  0
 31 32  1  0
 32 33  2  0
 33 34  1  0
 27 28  1  0
 28 29  2  0
 14  8  1  0
 19 15  1  0
 43 37  1  0
 29 24  1  0
 34 30  1  0
  4  5  1  0
 22 23  1  0
 34 35  1  0
M  END
> <minimizedAffinity>
-9.99579

> <CNNscore>
0.8612138033

> <CNNaffinity>
8.2052068710

> <CNN_VS>
7.0664372444

> <CNNaffinity_variance>
0.0129637429

$$$$



 43 47  0  0  0  0  0  0  0  0999 V2000
  -50.1439  -11.3486  -19.6556 C   0  0  0  0  0  0  0  0  0  0  0  0
  -50.1226  -14.0589  -20.4800 O   0  0  0  0  0  0  0  0  0  0  0  0
  -50.3733  -13.1877  -21.3035 C   0  0  0  0  0  0  0  0  0  0  0  0
  -50.4550  -11.8589  -20.9976 N   0  0  0  0  0  0  0  0  0  0  0  0
  -50.7308  -11.2239  -21.6977 H   0  0  0  0  0  0  0  0  0  0  0  0
  -50.6326  -13.4828  -22.7292 C   0  0  0  0  0  0  0  0  0  0  0  0
  -51.9045  -13.5594  -23.1630 C   0  0  0  0  0  0  0  0  0  0  0  0
  -52.2150  -13.9032  -24.5521 C   0  0  0  0  0  0  0  0  0  0  0  0
  -52.3911  -15.2799  -24.8067 C   0  0  0  0  0  0  0  0  0  0  0  0
  -52.7062  -15.7415  -26.0827 C   0  0  0  0  0  0  0  0  0  0  0  0
  -52.9186  -17.4245  -26.3569 Cl  0  0  0  0  0  0  0  0  0  0  0  0
  -52.8525  -14.8463  -27.1309 C   0  0  0  0  0  0  0  0  0  0  0  0
  -52.6787  -13.4799  -26.9000 C   0  0  0  0  0  0  0  0  0  0  0  0
  -52.3551  -12.9843  -25.6149 C   0  0  0  0  0  0  0  0  0  0  0  0
  -52.1903  -11.5716  -25.4879 N   0  0  0  0  0  0  0  0  0  0  0  0
  -53.0895  -10.5510  -25.2875 C   0  0  0  0  0  0  0  0  0  0  0  0
  -52.4531   -9.4042  -25.2132 N   0  0  0  0  0  0  0  0  0  0  0  0
  -51.1294   -9.7043  -25.3691 N   0  0  0  0  0  0  0  0  0  0  0  0
  -50.9545  -11.0059  -25.5353 N   0  0  0  0  0  0  0  0  0  0  0  0
  -51.4436  -11.2214  -18.8228 C   0  0  0  0  0  0  0  0  0  0  0  0
  -52.0550  -10.1610  -18.7359 O   0  0  0  0  0  0  0  0  0  0  0  0
  -51.8027  -12.4211  -18.2262 N   0  0  0  0  0  0  0  0  0  0  0  0
  -51.2569  -13.2031  -18.4707 H   0  0  0  0  0  0  0  0  0  0  0  0
  -52.8476  -12.6618  -17.3166 C   0  0  0  0  0  0  0  0  0  0  0  0
  -53.3775  -11.5498  -16.6510 C   0  0  0  0  0  0  0  0  0  0  0  0
  -54.4535  -11.6850  -15.7638 C   0  0  0  0  0  0  0  0  0  0  0  0
  -55.0248  -12.9421  -15.5250 C   0  0  0  0  0  0  0  0  0  0  0  0
  -54.4726  -14.0543  -16.1787 C   0  0  0  0  0  0  0  0  0  0  0  0
  -53.3968  -13.9174  -17.0664 C   0  0  0  0  0  0  0  0  0  0  0  0
  -56.1702  -13.1297  -14.6375 C   0  0  0  0  0  0  0  0  0  0  0  0
  -56.2707  -12.7687  -13.3690 N   0  0  0  0  0  0  0  0  0  0  0  0
  -57.5088  -13.1817  -12.9398 N   0  0  0  0  0  0  0  0  0  0  0  0
  -58.1696  -13.7939  -13.9119 N   0  0  0  0  0  0  0  0  0  0  0  0
  -57.3431  -13.7577  -14.9633 N   0  0  0  0  0  0  0  0  0  0  0  0
  -57.5497  -14.1315  -15.8503 H   0  0  0  0  0  0  0  0  0  0  0  0
  -49.4187   -9.9896  -19.7237 C   0  0  0  0  0  0  0  0  0  0  0  0
  -47.9394  -10.0779  -19.4030 C   0  0  0  0  0  0  0  0  0  0  0  0
  -47.0155  -10.4230  -20.4047 C   0  0  0  0  0  0  0  0  0  0  0  0
  -45.6536  -10.5135  -20.1096 C   0  0  0  0  0  0  0  0  0  0  0  0
  -45.2147  -10.2593  -18.8150 C   0  0  0  0  0  0  0  0  0  0  0  0
  -43.9082  -10.3536  -18.5325 F   0  0  0  0  0  0  0  0  0  0  0  0
  -46.1098   -9.9060  -17.8135 C   0  0  0  0  0  0  0  0  0  0  0  0
  -47.4717   -9.8081  -18.1066 C   0  0  0  0  0  0  0  0  0  0  0  0
  2  3  2  0
  3  6  1  0
  6  7  2  0
  7  8  1  0
  8  9  2  0
  9 10  1  0
 10 11  1  0
 10 12  2  0
 12 13  1  0
 13 14  2  0
 14 15  1  0
 15 16  1  0
 16 17  2  0
 17 18  1  0
 18 19  2  0
  3  4  1  0
  4  1  1  0
  1 36  1  0
 36 37  1  0
 37 38  2  0
 38 39  1  0
 39 40  2  0
 40 41  1  0
 40 42  1  0
 42 43  2  0
  1 20  1  0
 20 21  2  0
 20 22  1  0
 22 24  1  0
 24 25  2  0
 25 26  1  0
 26 27  2  0
 27 30  1  0
 30 31  2  0
 31 32  1  0
 32 33  2  0
 33 34  1  0
 27 28  1  0
 28 29  2  0
 14  8  1  0
 19 15  1  0
 43 37  1  0
 29 24  1  0
 34 30  1  0
  4  5  1  0
 22 23  1  0
 34 35  1  0
M  END
> <minimizedAffinity>
-8.88353

> <CNNscore>
0.4238685369

> <CNNaffinity>
7.6824584007

> <CNN_VS>
3.2563524246

> <CNNaffinity_variance>
0.0161380786

$$$$



 43 47  0  0  0  0  0  0  0  0999 V2000
  -52.2651  -12.0272  -25.4243 C   0  0  0  0  0  0  0  0  0  0  0  0
  -50.4916   -9.8626  -24.9831 O   0  0  0  0  0  0  0  0  0  0  0  0
  -50.8946  -10.5077  -24.0231 C   0  0  0  0  0  0  0  0  0  0  0  0
  -51.7869  -11.5370  -24.1246 N   0  0  0  0  0  0  0  0  0  0  0  0
  -52.1197  -11.9632  -23.3019 H   0  0  0  0  0  0  0  0  0  0  0  0
  -50.4675  -10.2309  -22.6347 C   0  0  0  0  0  0  0  0  0  0  0  0
  -49.8396  -11.1951  -21.9363 C   0  0  0  0  0  0  0  0  0  0  0  0
  -49.4462  -10.9900  -20.5408 C   0  0  0  0  0  0  0  0  0  0  0  0
  -48.1642  -10.4311  -20.3525 C   0  0  0  0  0  0  0  0  0  0  0  0
  -47.6736  -10.1693  -19.0754 C   0  0  0  0  0  0  0  0  0  0  0  0
  -46.1099   -9.4834  -18.8821 Cl  0  0  0  0  0  0  0  0  0  0  0  0
  -48.4450  -10.4572  -17.9601 C   0  0  0  0  0  0  0  0  0  0  0  0
  -49.7150  -11.0142  -18.1254 C   0  0  0  0  0  0  0  0  0  0  0  0
  -50.2364  -11.2933  -19.4107 C   0  0  0  0  0  0  0  0  0  0  0  0
  -51.5411  -11.8707  -19.4692 N   0  0  0  0  0  0  0  0  0  0  0  0
  -52.0753  -13.0055  -18.9058 C   0  0  0  0  0  0  0  0  0  0  0  0
  -53.3437  -13.1100  -19.2308 N   0  0  0  0  0  0  0  0  0  0  0  0
  -53.6166  -12.0234  -20.0127 N   0  0  0  0  0  0  0  0  0  0  0  0
  -52.5412  -11.2669  -20.1655 N   0  0  0  0  0  0  0  0  0  0  0  0
  -52.9441  -10.8763  -26.2074 C   0  0  0  0  0  0  0  0  0  0  0  0
  -52.7036  -10.6706  -27.3930 O   0  0  0  0  0  0  0  0  0  0  0  0
  -53.8251  -10.1533  -25.4165 N   0  0  0  0  0  0  0  0  0  0  0  0
  -53.9754  -10.5043  -24.5091 H   0  0  0  0  0  0  0  0  0  0  0  0
  -54.5305   -8.9827  -25.7467 C   0  0  0  0  0  0  0  0  0  0  0  0
  -54.0265   -8.2157  -26.8040 C   0  0  0  0  0  0  0  0  0  0  0  0
  -54.6895   -7.0597  -27.2372 C   0  0  0  0  0  0  0  0  0  0  0  0
  -55.8772   -6.6470  -26.6185 C   0  0  0  0  0  0  0  0  0  0  0  0
  -56.3627   -7.4089  -25.5446 C   0  0  0  0  0  0  0  0  0  0  0  0
  -55.6988   -8.5653  -25.1131 C   0  0  0  0  0  0  0  0  0  0  0  0
  -56.6245   -5.4704  -27.0565 C   0  0  0  0  0  0  0  0  0  0  0  0
  -56.7869   -5.0379  -28.2958 N   0  0  0  0  0  0  0  0  0  0  0  0
  -57.5277   -3.8837  -28.2155 N   0  0  0  0  0  0  0  0  0  0  0  0
  -57.8195   -3.5924  -26.9559 N   0  0  0  0  0  0  0  0  0  0  0  0
  -57.2642   -4.5764  -26.2395 N   0  0  0  0  0  0  0  0  0  0  0  0
  -57.3094   -4.6482  -25.2587 H   0  0  0  0  0  0  0  0  0  0  0  0
  -53.2427  -13.2077  -25.2563 C   0  0  0  0  0  0  0  0  0  0  0  0
  -52.5544  -14.5218  -24.9430 C   0  0  0  0  0  0  0  0  0  0  0  0
  -51.7824  -14.6580  -23.7762 C   0  0  0  0  0  0  0  0  0  0  0  0
  -51.1404  -15.8647  -23.4900 C   0  0  0  0  0  0  0  0  0  0  0  0
  -51.2696  -16.9347  -24.3685 C   0  0  0  0  0  0  0  0  0  0  0  0
  -50.6469  -18.0894  -24.0954 F   0  0  0  0  0  0  0  0  0  0  0  0
  -52.0368  -16.8243  -25.5210 C   0  0  0  0  0  0  0  0  0  0  0  0
  -52.6855  -15.6211  -25.8070 C   0  0  0  0  0  0  0  0  0  0  0  0
  2  3  2  0
  3  6  1  0
  6  7  2  0
  7  8  1  0
  8  9  2  0
  9 10  1  0
 10 11  1  0
 10 12  2  0
 12 13  1  0
 13 14  2  0
 14 15  1  0
 15 16  1  0
 16 17  2  0
 17 18  1  0
 18 19  2  0
  3  4  1  0
  4  1  1  0
  1 36  1  0
 36 37  1  0
 37 38  2  0
 38 39  1  0
 39 40  2  0
 40 41  1  0
 40 42  1  0
 42 43  2  0
  1 20  1  0
 20 21  2  0
 20 22  1  0
 22 24  1  0
 24 25  2  0
 25 26  1  0
 26 27  2  0
 27 30  1  0
 30 31  2  0
 31 32  1  0
 32 33  2  0
 33 34  1  0
 27 28  1  0
 28 29  2  0
 14  8  1  0
 19 15  1  0
 43 37  1  0
 29 24  1  0
 34 30  1  0
  4  5  1  0
 22 23  1  0
 34 35  1  0
M  END
> <minimizedAffinity>
-8.45700

> <CNNscore>
0.3670658469

> <CNNaffinity>
7.3502769470

> <CNN_VS>
2.6980357170

> <CNNaffinity_variance>
0.1195477322

$$$$



 43 47  0  0  0  0  0  0  0  0999 V2000
  -52.3856  -10.9025  -25.4242 C   0  0  0  0  0  0  0  0  0  0  0  0
  -53.6862  -12.6125  -27.2709 O   0  0  0  0  0  0  0  0  0  0  0  0
  -52.8661  -13.0873  -26.4949 C   0  0  0  0  0  0  0  0  0  0  0  0
  -52.1513  -12.3420  -25.6007 N   0  0  0  0  0  0  0  0  0  0  0  0
  -51.4582  -12.7829  -25.0580 H   0  0  0  0  0  0  0  0  0  0  0  0
  -52.5454  -14.5302  -26.4511 C   0  0  0  0  0  0  0  0  0  0  0  0
  -52.5248  -15.1624  -25.2630 C   0  0  0  0  0  0  0  0  0  0  0  0
  -52.1592  -16.5766  -25.1600 C   0  0  0  0  0  0  0  0  0  0  0  0
  -52.6479  -17.4017  -26.1952 C   0  0  0  0  0  0  0  0  0  0  0  0
  -52.3596  -18.7642  -26.2264 C   0  0  0  0  0  0  0  0  0  0  0  0
  -52.9667  -19.7394  -27.5044 Cl  0  0  0  0  0  0  0  0  0  0  0  0
  -51.5814  -19.3347  -25.2311 C   0  0  0  0  0  0  0  0  0  0  0  0
  -51.0914  -18.5355  -24.1959 C   0  0  0  0  0  0  0  0  0  0  0  0
  -51.3716  -17.1499  -24.1380 C   0  0  0  0  0  0  0  0  0  0  0  0
  -50.8302  -16.4250  -23.0332 N   0  0  0  0  0  0  0  0  0  0  0  0
  -50.1941  -15.2090  -22.9487 C   0  0  0  0  0  0  0  0  0  0  0  0
  -49.8956  -14.9481  -21.6963 N   0  0  0  0  0  0  0  0  0  0  0  0
  -50.3504  -16.0166  -20.9767 N   0  0  0  0  0  0  0  0  0  0  0  0
  -50.9162  -16.9148  -21.7674 N   0  0  0  0  0  0  0  0  0  0  0  0
  -51.2707  -10.2886  -24.5416 C   0  0  0  0  0  0  0  0  0  0  0  0
  -50.4402   -9.5089  -24.9979 O   0  0  0  0  0  0  0  0  0  0  0  0
  -51.3479  -10.7196  -23.2254 N   0  0  0  0  0  0  0  0  0  0  0  0
  -52.1302  -11.2728  -22.9994 H   0  0  0  0  0  0  0  0  0  0  0  0
  -50.4504  -10.4664  -22.1730 C   0  0  0  0  0  0  0  0  0  0  0  0
  -50.9695  -10.5073  -20.8734 C   0  0  0  0  0  0  0  0  0  0  0  0
  -50.1414  -10.3172  -19.7591 C   0  0  0  0  0  0  0  0  0  0  0  0
  -48.7698  -10.0826  -19.9242 C   0  0  0  0  0  0  0  0  0  0  0  0
  -48.2621  -10.0203  -21.2311 C   0  0  0  0  0  0  0  0  0  0  0  0
  -49.0916  -10.2115  -22.3445 C   0  0  0  0  0  0  0  0  0  0  0  0
  -47.8590   -9.9144  -18.7942 C   0  0  0  0  0  0  0  0  0  0  0  0
  -46.5446  -10.0619  -18.7935 N   0  0  0  0  0  0  0  0  0  0  0  0
  -46.1248   -9.8391  -17.5045 N   0  0  0  0  0  0  0  0  0  0  0  0
  -47.1501   -9.5644  -16.7109 N   0  0  0  0  0  0  0  0  0  0  0  0
  -48.2223   -9.6068  -17.5099 N   0  0  0  0  0  0  0  0  0  0  0  0
  -49.1466   -9.4397  -17.2149 H   0  0  0  0  0  0  0  0  0  0  0  0
  -53.7697  -10.6290  -24.8022 C   0  0  0  0  0  0  0  0  0  0  0  0
  -54.3177   -9.2538  -25.1297 C   0  0  0  0  0  0  0  0  0  0  0  0
  -53.7061   -8.4629  -26.1179 C   0  0  0  0  0  0  0  0  0  0  0  0
  -54.2038   -7.1924  -26.4149 C   0  0  0  0  0  0  0  0  0  0  0  0
  -55.3118   -6.7122  -25.7256 C   0  0  0  0  0  0  0  0  0  0  0  0
  -55.7834   -5.4900  -26.0075 F   0  0  0  0  0  0  0  0  0  0  0  0
  -55.9374   -7.4821  -24.7536 C   0  0  0  0  0  0  0  0  0  0  0  0
  -55.4464   -8.7557  -24.4585 C   0  0  0  0  0  0  0  0  0  0  0  0
  2  3  2  0
  3  6  1  0
  6  7  2  0
  7  8  1  0
  8  9  2  0
  9 10  1  0
 10 11  1  0
 10 12  2  0
 12 13  1  0
 13 14  2  0
 14 15  1  0
 15 16  1  0
 16 17  2  0
 17 18  1  0
 18 19  2  0
  3  4  1  0
  4  1  1  0
  1 36  1  0
 36 37  1  0
 37 38  2  0
 38 39  1  0
 39 40  2  0
 40 41  1  0
 40 42  1  0
 42 43  2  0
  1 20  1  0
 20 21  2  0
 20 22  1  0
 22 24  1  0
 24 25  2  0
 25 26  1  0
 26 27  2  0
 27 30  1  0
 30 31  2  0
 31 32  1  0
 32 33  2  0
 33 34  1  0
 27 28  1  0
 28 29  2  0
 14  8  1  0
 19 15  1  0
 43 37  1  0
 29 24  1  0
 34 30  1  0
  4  5  1  0
 22 23  1  0
 34 35  1  0
M  END
> <minimizedAffinity>
-10.39236

> <CNNscore>
0.3388401568

> <CNNaffinity>
6.9694004059

> <CNN_VS>
2.3615126610

> <CNNaffinity_variance>
1.2351055145

$$$$



 43 47  0  0  0  0  0  0  0  0999 V2000
  -49.8141  -11.7297  -21.9249 C   0  0  0  0  0  0  0  0  0  0  0  0
  -50.1711   -9.8646  -24.0272 O   0  0  0  0  0  0  0  0  0  0  0  0
  -50.9490  -10.8053  -23.9269 C   0  0  0  0  0  0  0  0  0  0  0  0
  -50.8352  -11.7830  -22.9798 N   0  0  0  0  0  0  0  0  0  0  0  0
  -51.4563  -12.5465  -23.0048 H   0  0  0  0  0  0  0  0  0  0  0  0
  -52.0981  -10.9961  -24.8379 C   0  0  0  0  0  0  0  0  0  0  0  0
  -51.9060  -10.8984  -26.1665 C   0  0  0  0  0  0  0  0  0  0  0  0
  -53.0207  -11.0241  -27.1077 C   0  0  0  0  0  0  0  0  0  0  0  0
  -53.1124  -12.2667  -27.7700 C   0  0  0  0  0  0  0  0  0  0  0  0
  -54.1358  -12.5239  -28.6794 C   0  0  0  0  0  0  0  0  0  0  0  0
  -54.2207  -14.0500  -29.4647 Cl  0  0  0  0  0  0  0  0  0  0  0  0
  -55.0880  -11.5534  -28.9496 C   0  0  0  0  0  0  0  0  0  0  0  0
  -55.0124  -10.3156  -28.3070 C   0  0  0  0  0  0  0  0  0  0  0  0
  -53.9818  -10.0267  -27.3817 C   0  0  0  0  0  0  0  0  0  0  0  0
  -53.9903   -8.7285  -26.7870 N   0  0  0  0  0  0  0  0  0  0  0  0
  -54.4129   -8.2778  -25.5587 C   0  0  0  0  0  0  0  0  0  0  0  0
  -54.1930   -6.9867  -25.4577 N   0  0  0  0  0  0  0  0  0  0  0  0
  -53.6218   -6.6144  -26.6416 N   0  0  0  0  0  0  0  0  0  0  0  0
  -53.4926   -7.6523  -27.4530 N   0  0  0  0  0  0  0  0  0  0  0  0
  -50.4268  -12.1688  -20.5719 C   0  0  0  0  0  0  0  0  0  0  0  0
  -49.9964  -13.1352  -19.9501 O   0  0  0  0  0  0  0  0  0  0  0  0
  -51.4743  -11.3480  -20.1804 N   0  0  0  0  0  0  0  0  0  0  0  0
  -51.6361  -10.5584  -20.7457 H   0  0  0  0  0  0  0  0  0  0  0  0
  -52.3343  -11.5008  -19.0786 C   0  0  0  0  0  0  0  0  0  0  0  0
  -52.0040  -10.7971  -17.9142 C   0  0  0  0  0  0  0  0  0  0  0  0
  -52.8280  -10.8480  -16.7819 C   0  0  0  0  0  0  0  0  0  0  0  0
  -54.0060  -11.6069  -16.7931 C   0  0  0  0  0  0  0  0  0  0  0  0
  -54.3174  -12.3273  -17.9565 C   0  0  0  0  0  0  0  0  0  0  0  0
  -53.4926  -12.2748  -19.0884 C   0  0  0  0  0  0  0  0  0  0  0  0
  -54.9162  -11.6631  -15.6516 C   0  0  0  0  0  0  0  0  0  0  0  0
  -54.6346  -12.0498  -14.4185 N   0  0  0  0  0  0  0  0  0  0  0  0
  -55.8057  -11.9698  -13.7045 N   0  0  0  0  0  0  0  0  0  0  0  0
  -56.8022  -11.5495  -14.4704 N   0  0  0  0  0  0  0  0  0  0  0  0
  -56.2508  -11.3557  -15.6738 N   0  0  0  0  0  0  0  0  0  0  0  0
  -56.7379  -11.0357  -16.4673 H   0  0  0  0  0  0  0  0  0  0  0  0
  -49.2044  -10.3189  -21.8017 C   0  0  0  0  0  0  0  0  0  0  0  0
  -48.2438  -10.1758  -20.6375 C   0  0  0  0  0  0  0  0  0  0  0  0
  -46.8987  -10.5600  -20.7760 C   0  0  0  0  0  0  0  0  0  0  0  0
  -46.0141  -10.4374  -19.7024 C   0  0  0  0  0  0  0  0  0  0  0  0
  -46.4727   -9.9310  -18.4913 C   0  0  0  0  0  0  0  0  0  0  0  0
  -45.6237   -9.8207  -17.4604 F   0  0  0  0  0  0  0  0  0  0  0  0
  -47.7950   -9.5352  -18.3371 C   0  0  0  0  0  0  0  0  0  0  0  0
  -48.6808   -9.6504  -19.4106 C   0  0  0  0  0  0  0  0  0  0  0  0
  2  3  2  0
  3  6  1  0
  6  7  2  0
  7  8  1  0
  8  9  2  0
  9 10  1  0
 10 11  1  0
 10 12  2  0
 12 13  1  0
 13 14  2  0
 14 15  1  0
 15 16  1  0
 16 17  2  0
 17 18  1  0
 18 19  2  0
  3  4  1  0
  4  1  1  0
  1 36  1  0
 36 37  1  0
 37 38  2  0
 38 39  1  0
 39 40  2  0
 40 41  1  0
 40 42  1  0
 42 43  2  0
  1 20  1  0
 20 21  2  0
 20 22  1  0
 22 24  1  0
 24 25  2  0
 25 26  1  0
 26 27  2  0
 27 30  1  0
 30 31  2  0
 31 32  1  0
 32 33  2  0
 33 34  1  0
 27 28  1  0
 28 29  2  0
 14  8  1  0
 19 15  1  0
 43 37  1  0
 29 24  1  0
 34 30  1  0
  4  5  1  0
 22 23  1  0
 34 35  1  0
M  END
> <minimizedAffinity>
-9.56363

> <CNNscore>
0.3341409564

> <CNNaffinity>
7.3603196144

> <CNN_VS>
2.4593842030

> <CNNaffinity_variance>
0.1534872502

$$$$



 43 47  0  0  0  0  0  0  0  0999 V2000
  -50.2478  -11.4548  -19.7674 C   0  0  0  0  0  0  0  0  0  0  0  0
  -50.1980  -14.2138  -20.4085 O   0  0  0  0  0  0  0  0  0  0  0  0
  -50.5120  -13.4065  -21.2745 C   0  0  0  0  0  0  0  0  0  0  0  0
  -50.6125  -12.0621  -21.0544 N   0  0  0  0  0  0  0  0  0  0  0  0
  -50.9393  -11.4827  -21.7801 H   0  0  0  0  0  0  0  0  0  0  0  0
  -50.8348  -13.8038  -22.6618 C   0  0  0  0  0  0  0  0  0  0  0  0
  -51.9130  -14.5766  -22.8895 C   0  0  0  0  0  0  0  0  0  0  0  0
  -52.2440  -15.0426  -24.2377 C   0  0  0  0  0  0  0  0  0  0  0  0
  -52.5456  -14.0263  -25.1690 C   0  0  0  0  0  0  0  0  0  0  0  0
  -52.8615  -14.3319  -26.4908 C   0  0  0  0  0  0  0  0  0  0  0  0
  -53.2188  -13.0693  -27.6004 Cl  0  0  0  0  0  0  0  0  0  0  0  0
  -52.8847  -15.6516  -26.9144 C   0  0  0  0  0  0  0  0  0  0  0  0
  -52.5928  -16.6722  -26.0068 C   0  0  0  0  0  0  0  0  0  0  0  0
  -52.2720  -16.3903  -24.6579 C   0  0  0  0  0  0  0  0  0  0  0  0
  -51.9984  -17.5063  -23.8102 N   0  0  0  0  0  0  0  0  0  0  0  0
  -52.7413  -18.1304  -22.8359 C   0  0  0  0  0  0  0  0  0  0  0  0
  -52.0665  -19.1428  -22.3407 N   0  0  0  0  0  0  0  0  0  0  0  0
  -50.8772  -19.1595  -23.0127 N   0  0  0  0  0  0  0  0  0  0  0  0
  -50.8208  -18.1802  -23.9016 N   0  0  0  0  0  0  0  0  0  0  0  0
  -51.5131  -11.2608  -18.8956 C   0  0  0  0  0  0  0  0  0  0  0  0
  -52.0949  -10.1823  -18.8307 O   0  0  0  0  0  0  0  0  0  0  0  0
  -51.8799  -12.4261  -18.2384 N   0  0  0  0  0  0  0  0  0  0  0  0
  -51.3626  -13.2312  -18.4698 H   0  0  0  0  0  0  0  0  0  0  0  0
  -52.8970  -12.6033  -17.2839 C   0  0  0  0  0  0  0  0  0  0  0  0
  -53.4094  -11.4478  -16.6816 C   0  0  0  0  0  0  0  0  0  0  0  0
  -54.4585  -11.5212  -15.7557 C   0  0  0  0  0  0  0  0  0  0  0  0
  -55.0199  -12.7587  -15.4135 C   0  0  0  0  0  0  0  0  0  0  0  0
  -54.4849  -13.9136  -16.0046 C   0  0  0  0  0  0  0  0  0  0  0  0
  -53.4359  -13.8385  -16.9311 C   0  0  0  0  0  0  0  0  0  0  0  0
  -56.1382  -12.8844  -14.4818 C   0  0  0  0  0  0  0  0  0  0  0  0
  -56.1588  -12.5498  -13.2023 N   0  0  0  0  0  0  0  0  0  0  0  0
  -57.4053  -12.8816  -12.7292 N   0  0  0  0  0  0  0  0  0  0  0  0
  -58.1497  -13.4182  -13.6855 N   0  0  0  0  0  0  0  0  0  0  0  0
  -57.3672  -13.4158  -14.7705 N   0  0  0  0  0  0  0  0  0  0  0  0
  -57.6378  -13.7504  -15.6560 H   0  0  0  0  0  0  0  0  0  0  0  0
  -49.5244  -10.1076  -19.9650 C   0  0  0  0  0  0  0  0  0  0  0  0
  -48.0763  -10.1282  -19.5162 C   0  0  0  0  0  0  0  0  0  0  0  0
  -47.0577  -10.4742  -20.4211 C   0  0  0  0  0  0  0  0  0  0  0  0
  -45.7242  -10.5024  -20.0077 C   0  0  0  0  0  0  0  0  0  0  0  0
  -45.4081  -10.1851  -18.6913 C   0  0  0  0  0  0  0  0  0  0  0  0
  -44.1285  -10.2196  -18.2950 F   0  0  0  0  0  0  0  0  0  0  0  0
  -46.3983   -9.8298  -17.7845 C   0  0  0  0  0  0  0  0  0  0  0  0
  -47.7322   -9.7942  -18.1962 C   0  0  0  0  0  0  0  0  0  0  0  0
  2  3  2  0
  3  6  1  0
  6  7  2  0
  7  8  1  0
  8  9  2  0
  9 10  1  0
 10 11  1  0
 10 12  2  0
 12 13  1  0
 13 14  2  0
 14 15  1  0
 15 16  1  0
 16 17  2  0
 17 18  1  0
 18 19  2  0
  3  4  1  0
  4  1  1  0
  1 36  1  0
 36 37  1  0
 37 38  2  0
 38 39  1  0
 39 40  2  0
 40 41  1  0
 40 42  1  0
 42 43  2  0
  1 20  1  0
 20 21  2  0
 20 22  1  0
 22 24  1  0
 24 25  2  0
 25 26  1  0
 26 27  2  0
 27 30  1  0
 30 31  2  0
 31 32  1  0
 32 33  2  0
 33 34  1  0
 27 28  1  0
 28 29  2  0
 14  8  1  0
 19 15  1  0
 43 37  1  0
 29 24  1  0
 34 30  1  0
  4  5  1  0
 22 23  1  0
 34 35  1  0
M  END
> <minimizedAffinity>
-8.10391

> <CNNscore>
0.3118267059

> <CNNaffinity>
7.5789618492

> <CNN_VS>
2.3633227348

> <CNNaffinity_variance>
0.0087027168

$$$$



 43 47  0  0  0  0  0  0  0  0999 V2000
  -50.2334  -12.3588  -20.3603 C   0  0  0  0  0  0  0  0  0  0  0  0
  -50.8094  -11.4885  -22.9941 O   0  0  0  0  0  0  0  0  0  0  0  0
  -50.7238  -12.6894  -22.7688 C   0  0  0  0  0  0  0  0  0  0  0  0
  -50.4038  -13.2086  -21.5465 N   0  0  0  0  0  0  0  0  0  0  0  0
  -50.2837  -14.1817  -21.4578 H   0  0  0  0  0  0  0  0  0  0  0  0
  -50.9443  -13.7179  -23.8082 C   0  0  0  0  0  0  0  0  0  0  0  0
  -51.9412  -14.6083  -23.6497 C   0  0  0  0  0  0  0  0  0  0  0  0
  -52.1659  -15.6798  -24.6222 C   0  0  0  0  0  0  0  0  0  0  0  0
  -51.6399  -16.9390  -24.2630 C   0  0  0  0  0  0  0  0  0  0  0  0
  -51.7977  -18.0478  -25.0913 C   0  0  0  0  0  0  0  0  0  0  0  0
  -51.1488  -19.5679  -24.6210 Cl  0  0  0  0  0  0  0  0  0  0  0  0
  -52.4800  -17.9290  -26.2921 C   0  0  0  0  0  0  0  0  0  0  0  0
  -53.0049  -16.6903  -26.6672 C   0  0  0  0  0  0  0  0  0  0  0  0
  -52.8563  -15.5473  -25.8466 C   0  0  0  0  0  0  0  0  0  0  0  0
  -53.4225  -14.3273  -26.3264 N   0  0  0  0  0  0  0  0  0  0  0  0
  -54.6356  -13.7205  -26.1013 C   0  0  0  0  0  0  0  0  0  0  0  0
  -54.6921  -12.5814  -26.7529 N   0  0  0  0  0  0  0  0  0  0  0  0
  -53.4950  -12.4655  -27.4010 N   0  0  0  0  0  0  0  0  0  0  0  0
  -52.7189  -13.5091  -27.1539 N   0  0  0  0  0  0  0  0  0  0  0  0
  -51.5961  -12.1586  -19.6519 C   0  0  0  0  0  0  0  0  0  0  0  0
  -52.5512  -11.6397  -20.2215 O   0  0  0  0  0  0  0  0  0  0  0  0
  -51.5838  -12.6342  -18.3489 N   0  0  0  0  0  0  0  0  0  0  0  0
  -50.7665  -13.1080  -18.0719 H   0  0  0  0  0  0  0  0  0  0  0  0
  -52.5907  -12.5254  -17.3735 C   0  0  0  0  0  0  0  0  0  0  0  0
  -53.0104  -11.2327  -17.0371 C   0  0  0  0  0  0  0  0  0  0  0  0
  -54.0428  -11.0269  -16.1124 C   0  0  0  0  0  0  0  0  0  0  0  0
  -54.6803  -12.1165  -15.5040 C   0  0  0  0  0  0  0  0  0  0  0  0
  -54.2378  -13.4078  -15.8298 C   0  0  0  0  0  0  0  0  0  0  0  0
  -53.2055  -13.6120  -16.7555 C   0  0  0  0  0  0  0  0  0  0  0  0
  -55.7852  -11.9554  -14.5617 C   0  0  0  0  0  0  0  0  0  0  0  0
  -55.7122  -11.8871  -13.2428 N   0  0  0  0  0  0  0  0  0  0  0  0
  -57.0019  -11.7734  -12.7831 N   0  0  0  0  0  0  0  0  0  0  0  0
  -57.8669  -11.7765  -13.7872 N   0  0  0  0  0  0  0  0  0  0  0  0
  -57.1137  -11.8848  -14.8875 N   0  0  0  0  0  0  0  0  0  0  0  0
  -57.4663  -11.9102  -15.8064 H   0  0  0  0  0  0  0  0  0  0  0  0
  -49.6180  -10.9939  -20.7287 C   0  0  0  0  0  0  0  0  0  0  0  0
  -48.3923  -10.6429  -19.9081 C   0  0  0  0  0  0  0  0  0  0  0  0
  -47.1149  -10.6675  -20.4944 C   0  0  0  0  0  0  0  0  0  0  0  0
  -45.9838  -10.3532  -19.7383 C   0  0  0  0  0  0  0  0  0  0  0  0
  -46.1283  -10.0143  -18.3975 C   0  0  0  0  0  0  0  0  0  0  0  0
  -45.0408   -9.7198  -17.6721 F   0  0  0  0  0  0  0  0  0  0  0  0
  -47.3825   -9.9733  -17.8021 C   0  0  0  0  0  0  0  0  0  0  0  0
  -48.5165  -10.2807  -18.5570 C   0  0  0  0  0  0  0  0  0  0  0  0
  2  3  2  0
  3  6  1  0
  6  7  2  0
  7  8  1  0
  8  9  2  0
  9 10  1  0
 10 11  1  0
 10 12  2  0
 12 13  1  0
 13 14  2  0
 14 15  1  0
 15 16  1  0
 16 17  2  0
 17 18  1  0
 18 19  2  0
  3  4  1  0
  4  1  1  0
  1 36  1  0
 36 37  1  0
 37 38  2  0
 38 39  1  0
 39 40  2  0
 40 41  1  0
 40 42  1  0
 42 43  2  0
  1 20  1  0
 20 21  2  0
 20 22  1  0
 22 24  1  0
 24 25  2  0
 25 26  1  0
 26 27  2  0
 27 30  1  0
 30 31  2  0
 31 32  1  0
 32 33  2  0
 33 34  1  0
 27 28  1  0
 28 29  2  0
 14  8  1  0
 19 15  1  0
 43 37  1  0
 29 24  1  0
 34 30  1  0
  4  5  1  0
 22 23  1  0
 34 35  1  0
M  END
> <minimizedAffinity>
-8.18750

> <CNNscore>
0.2757740915

> <CNNaffinity>
7.3049769402

> <CNN_VS>
2.0145232677

> <CNNaffinity_variance>
0.0372640491

$$$$



 43 47  0  0  0  0  0  0  0  0999 V2000
  -52.2804  -11.9112  -25.8818 C   0  0  0  0  0  0  0  0  0  0  0  0
  -50.5249   -9.7769  -25.2584 O   0  0  0  0  0  0  0  0  0  0  0  0
  -50.9690  -10.4677  -24.3498 C   0  0  0  0  0  0  0  0  0  0  0  0
  -51.8574  -11.4878  -24.5402 N   0  0  0  0  0  0  0  0  0  0  0  0
  -52.2253  -11.9533  -23.7546 H   0  0  0  0  0  0  0  0  0  0  0  0
  -50.6010  -10.2617  -22.9324 C   0  0  0  0  0  0  0  0  0  0  0  0
  -49.9108  -11.2203  -22.2873 C   0  0  0  0  0  0  0  0  0  0  0  0
  -49.5704  -11.0890  -20.8691 C   0  0  0  0  0  0  0  0  0  0  0  0
  -48.3251  -10.4812  -20.6026 C   0  0  0  0  0  0  0  0  0  0  0  0
  -47.8870  -10.2807  -19.2956 C   0  0  0  0  0  0  0  0  0  0  0  0
  -46.3671   -9.5329  -19.0065 Cl  0  0  0  0  0  0  0  0  0  0  0  0
  -48.6757  -10.6795  -18.2276 C   0  0  0  0  0  0  0  0  0  0  0  0
  -49.9099  -11.2862  -18.4706 C   0  0  0  0  0  0  0  0  0  0  0  0
  -50.3775  -11.5049  -19.7879 C   0  0  0  0  0  0  0  0  0  0  0  0
  -51.6485  -12.1408  -19.9270 N   0  0  0  0  0  0  0  0  0  0  0  0
  -52.0191  -13.4640  -19.9763 C   0  0  0  0  0  0  0  0  0  0  0  0
  -53.3244  -13.5575  -20.0900 N   0  0  0  0  0  0  0  0  0  0  0  0
  -53.7873  -12.2723  -20.1130 N   0  0  0  0  0  0  0  0  0  0  0  0
  -52.7902  -11.4072  -20.0153 N   0  0  0  0  0  0  0  0  0  0  0  0
  -53.0489  -10.7630  -26.5819 C   0  0  0  0  0  0  0  0  0  0  0  0
  -52.9669  -10.5730  -27.7915 O   0  0  0  0  0  0  0  0  0  0  0  0
  -53.8112  -10.0230  -25.6899 N   0  0  0  0  0  0  0  0  0  0  0  0
  -53.8420  -10.3623  -24.7662 H   0  0  0  0  0  0  0  0  0  0  0  0
  -54.5454   -8.8498  -25.9379 C   0  0  0  0  0  0  0  0  0  0  0  0
  -54.1322   -8.0595  -27.0172 C   0  0  0  0  0  0  0  0  0  0  0  0
  -54.8324   -6.8986  -27.3715 C   0  0  0  0  0  0  0  0  0  0  0  0
  -55.9671   -6.5044  -26.6499 C   0  0  0  0  0  0  0  0  0  0  0  0
  -56.3606   -7.2898  -25.5555 C   0  0  0  0  0  0  0  0  0  0  0  0
  -55.6596   -8.4510  -25.2028 C   0  0  0  0  0  0  0  0  0  0  0  0
  -56.7518   -5.3232  -27.0018 C   0  0  0  0  0  0  0  0  0  0  0  0
  -56.9638   -4.8312  -28.2110 N   0  0  0  0  0  0  0  0  0  0  0  0
  -57.7245   -3.6990  -28.0469 N   0  0  0  0  0  0  0  0  0  0  0  0
  -57.9800   -3.4791  -26.7651 N   0  0  0  0  0  0  0  0  0  0  0  0
  -57.3818   -4.4865  -26.1192 N   0  0  0  0  0  0  0  0  0  0  0  0
  -57.3929   -4.6096  -25.1425 H   0  0  0  0  0  0  0  0  0  0  0  0
  -53.1545  -13.1799  -25.8228 C   0  0  0  0  0  0  0  0  0  0  0  0
  -53.7012  -13.5999  -27.1732 C   0  0  0  0  0  0  0  0  0  0  0  0
  -55.0834  -13.5528  -27.4251 C   0  0  0  0  0  0  0  0  0  0  0  0
  -55.5900  -13.9474  -28.6651 C   0  0  0  0  0  0  0  0  0  0  0  0
  -54.7167  -14.3888  -29.6530 C   0  0  0  0  0  0  0  0  0  0  0  0
  -55.2057  -14.7736  -30.8398 F   0  0  0  0  0  0  0  0  0  0  0  0
  -53.3468  -14.4324  -29.4282 C   0  0  0  0  0  0  0  0  0  0  0  0
  -52.8361  -14.0323  -28.1915 C   0  0  0  0  0  0  0  0  0  0  0  0
  2  3  2  0
  3  6  1  0
  6  7  2  0
  7  8  1  0
  8  9  2  0
  9 10  1  0
 10 11  1  0
 10 12  2  0
 12 13  1  0
 13 14  2  0
 14 15  1  0
 15 16  1  0
 16 17  2  0
 17 18  1  0
 18 19  2  0
  3  4  1  0
  4  1  1  0
  1 36  1  0
 36 37  1  0
 37 38  2  0
 38 39  1  0
 39 40  2  0
 40 41  1  0
 40 42  1  0
 42 43  2  0
  1 20  1  0
 20 21  2  0
 20 22  1  0
 22 24  1  0
 24 25  2  0
 25 26  1  0
 26 27  2  0
 27 30  1  0
 30 31  2  0
 31 32  1  0
 32 33  2  0
 33 34  1  0
 27 28  1  0
 28 29  2  0
 14  8  1  0
 19 15  1  0
 43 37  1  0
 29 24  1  0
 34 30  1  0
  4  5  1  0
 22 23  1  0
 34 35  1  0
M  END
> <minimizedAffinity>
-8.34161

> <CNNscore>
0.2358066738

> <CNNaffinity>
7.1064147949

> <CNN_VS>
1.6757400036

> <CNNaffinity_variance>
0.2313408107

$$$$
