


 21 23  0  0  0  0  0  0  0  0999 V2000
  -16.7441   11.4231   33.5438 C   0  0  0  0  0  0  0  0  0  0  0  0
  -15.8523   10.3874   32.8341 C   0  0  0  0  0  0  0  0  0  0  0  0
  -16.8382    9.2182   32.6954 C   0  0  0  0  0  0  0  0  0  0  0  0
  -16.3686    8.1074   31.7654 C   0  0  0  0  0  0  0  0  0  0  0  0
  -18.0654    9.8692   32.1697 N   0  0  0  0  0  0  0  0  0  0  0  0
  -18.1418   11.1624   32.9216 C   0  0  0  0  0  0  0  0  0  0  0  0
  -18.8876    9.2942   32.3532 H   0  0  0  0  0  0  0  0  0  0  0  0
  -19.2152   11.0811   33.9725 C   0  0  0  0  0  0  0  0  0  0  0  0
  -20.5178   11.2221   33.8155 N   0  0  0  0  0  0  0  0  0  0  0  0
  -21.0617   11.0539   35.0668 C   0  0  0  0  0  0  0  0  0  0  0  0
  -22.4018   11.1033   35.4763 C   0  0  0  0  0  0  0  0  0  0  0  0
  -22.6984   10.8992   36.8303 C   0  0  0  0  0  0  0  0  0  0  0  0
  -21.6816   10.6516   37.7563 C   0  0  0  0  0  0  0  0  0  0  0  0
  -20.3383   10.5983   37.3658 C   0  0  0  0  0  0  0  0  0  0  0  0
  -20.0725   10.8041   36.0108 C   0  0  0  0  0  0  0  0  0  0  0  0
  -18.9109   10.8225   35.2888 N   0  0  0  0  0  0  0  0  0  0  0  0
  -18.0074   10.6752   35.6509 H   0  0  0  0  0  0  0  0  0  0  0  0
  -15.2727   13.1095   34.3481 C   0  0  0  0  0  0  0  0  0  0  0  0
  -16.2350   12.7482   33.3647 O   0  0  0  0  0  0  0  0  0  0  0  0
  -15.4531   10.8070   31.5162 O   0  0  0  0  0  0  0  0  0  0  0  0
  -16.1948   11.9273   31.0505 C   0  0  0  0  0  0  0  0  0  0  0  0
 18 19  1  0
  1 19  1  0
  1  2  1  0
  2 20  1  0
 20 21  1  0
  2  3  1  0
  3  4  1  0
  3  5  1  0
  5  6  1  0
  6  8  1  0
  8  9  2  0
  9 10  1  0
 10 11  2  0
 11 12  1  0
 12 13  2  0
 13 14  1  0
 14 15  2  0
 15 16  1  0
  6  1  1  0
 16  8  1  0
 15 10  1  0
  5  7  1  0
 16 17  1  0
M  END
> <minimizedAffinity>
-6.24891

> <CNNscore>
0.7520149350

> <CNNaffinity>
5.2329502106

> <CNN_VS>
3.9352567196

> <CNNaffinity_variance>
0.2307881862

$$$$



 21 23  0  0  0  0  0  0  0  0999 V2000
  -20.3265   14.5579   35.6604 C   0  0  0  0  0  0  0  0  0  0  0  0
  -21.4603   15.3604   36.3252 C   0  0  0  0  0  0  0  0  0  0  0  0
  -20.8915   16.7833   36.2245 C   0  0  0  0  0  0  0  0  0  0  0  0
  -21.8964   17.8850   36.5338 C   0  0  0  0  0  0  0  0  0  0  0  0
  -20.4289   16.8653   34.8154 N   0  0  0  0  0  0  0  0  0  0  0  0
  -19.8222   15.5212   34.5529 C   0  0  0  0  0  0  0  0  0  0  0  0
  -19.7345   17.6042   34.7045 H   0  0  0  0  0  0  0  0  0  0  0  0
  -18.3216   15.6290   34.5467 C   0  0  0  0  0  0  0  0  0  0  0  0
  -17.5856   16.7211   34.6286 N   0  0  0  0  0  0  0  0  0  0  0  0
  -16.2803   16.2916   34.5870 C   0  0  0  0  0  0  0  0  0  0  0  0
  -15.0905   17.0320   34.6358 C   0  0  0  0  0  0  0  0  0  0  0  0
  -13.8700   16.3469   34.5711 C   0  0  0  0  0  0  0  0  0  0  0  0
  -13.8358   14.9544   34.4598 C   0  0  0  0  0  0  0  0  0  0  0  0
  -15.0134   14.1988   34.4100 C   0  0  0  0  0  0  0  0  0  0  0  0
  -16.2143   14.9075   34.4777 C   0  0  0  0  0  0  0  0  0  0  0  0
  -17.5236   14.5122   34.4586 N   0  0  0  0  0  0  0  0  0  0  0  0
  -17.8418   13.5829   34.3927 H   0  0  0  0  0  0  0  0  0  0  0  0
  -20.0299   12.1984   35.6876 C   0  0  0  0  0  0  0  0  0  0  0  0
  -20.7987   13.2896   35.1958 O   0  0  0  0  0  0  0  0  0  0  0  0
  -22.6908   15.3067   35.5801 O   0  0  0  0  0  0  0  0  0  0  0  0
  -23.7072   14.5757   36.2542 C   0  0  0  0  0  0  0  0  0  0  0  0
 18 19  1  0
  1 19  1  0
  1  2  1  0
  2 20  1  0
 20 21  1  0
  2  3  1  0
  3  4  1  0
  3  5  1  0
  5  6  1  0
  6  8  1  0
  8  9  2  0
  9 10  1  0
 10 11  2  0
 11 12  1  0
 12 13  2  0
 13 14  1  0
 14 15  2  0
 15 16  1  0
  6  1  1  0
 16  8  1  0
 15 10  1  0
  5  7  1  0
 16 17  1  0
M  END
> <minimizedAffinity>
-4.38476

> <CNNscore>
0.5908896923

> <CNNaffinity>
3.8007457256

> <CNN_VS>
2.2458214760

> <CNNaffinity_variance>
0.3821443617

$$$$



 21 23  0  0  0  0  0  0  0  0999 V2000
  -17.0612   11.4912   33.6516 C   0  0  0  0  0  0  0  0  0  0  0  0
  -16.7442   10.5327   32.4888 C   0  0  0  0  0  0  0  0  0  0  0  0
  -15.5682   11.2700   31.8317 C   0  0  0  0  0  0  0  0  0  0  0  0
  -14.8077   10.4467   30.8007 C   0  0  0  0  0  0  0  0  0  0  0  0
  -14.6973   11.6156   32.9842 N   0  0  0  0  0  0  0  0  0  0  0  0
  -15.6595   12.0183   34.0593 C   0  0  0  0  0  0  0  0  0  0  0  0
  -14.0737   12.3875   32.7484 H   0  0  0  0  0  0  0  0  0  0  0  0
  -15.6500   13.5139   34.2212 C   0  0  0  0  0  0  0  0  0  0  0  0
  -14.6054   14.3185   34.2728 N   0  0  0  0  0  0  0  0  0  0  0  0
  -15.1204   15.5845   34.4210 C   0  0  0  0  0  0  0  0  0  0  0  0
  -14.4576   16.8152   34.5317 C   0  0  0  0  0  0  0  0  0  0  0  0
  -15.2229   17.9793   34.6805 C   0  0  0  0  0  0  0  0  0  0  0  0
  -16.6184   17.9184   34.7185 C   0  0  0  0  0  0  0  0  0  0  0  0
  -17.2973   16.6990   34.6092 C   0  0  0  0  0  0  0  0  0  0  0  0
  -16.5096   15.5560   34.4607 C   0  0  0  0  0  0  0  0  0  0  0  0
  -16.8193   14.2304   34.3274 N   0  0  0  0  0  0  0  0  0  0  0  0
  -17.7280   13.8520   34.3104 H   0  0  0  0  0  0  0  0  0  0  0  0
  -19.1352   11.2558   34.7913 C   0  0  0  0  0  0  0  0  0  0  0  0
  -17.7849   10.8205   34.6878 O   0  0  0  0  0  0  0  0  0  0  0  0
  -16.2822    9.2457   32.9388 O   0  0  0  0  0  0  0  0  0  0  0  0
  -16.8898    8.1696   32.2355 C   0  0  0  0  0  0  0  0  0  0  0  0
 18 19  1  0
  1 19  1  0
  1  2  1  0
  2 20  1  0
 20 21  1  0
  2  3  1  0
  3  4  1  0
  3  5  1  0
  5  6  1  0
  6  8  1  0
  8  9  2  0
  9 10  1  0
 10 11  2  0
 11 12  1  0
 12 13  2  0
 13 14  1  0
 14 15  2  0
 15 16  1  0
  6  1  1  0
 16  8  1  0
 15 10  1  0
  5  7  1  0
 16 17  1  0
M  END
> <minimizedAffinity>
-6.82621

> <CNNscore>
0.3641364574

> <CNNaffinity>
4.5174655914

> <CNN_VS>
1.6449738741

> <CNNaffinity_variance>
0.3837611377

$$$$



 21 23  0  0  0  0  0  0  0  0999 V2000
  -19.0242   13.2388   34.7973 C   0  0  0  0  0  0  0  0  0  0  0  0
  -20.4098   13.0209   35.4329 C   0  0  0  0  0  0  0  0  0  0  0  0
  -20.5065   11.4895   35.3737 C   0  0  0  0  0  0  0  0  0  0  0  0
  -21.6465   10.8998   36.1934 C   0  0  0  0  0  0  0  0  0  0  0  0
  -19.1894   11.0454   35.8974 N   0  0  0  0  0  0  0  0  0  0  0  0
  -18.2151   12.0132   35.2993 C   0  0  0  0  0  0  0  0  0  0  0  0
  -18.9833   10.0923   35.5984 H   0  0  0  0  0  0  0  0  0  0  0  0
  -17.4544   11.3504   34.1834 C   0  0  0  0  0  0  0  0  0  0  0  0
  -16.4989   11.8661   33.4336 N   0  0  0  0  0  0  0  0  0  0  0  0
  -16.1256   10.8645   32.5691 C   0  0  0  0  0  0  0  0  0  0  0  0
  -15.1554   10.8688   31.5568 C   0  0  0  0  0  0  0  0  0  0  0  0
  -14.9670    9.7036   30.8020 C   0  0  0  0  0  0  0  0  0  0  0  0
  -15.7292    8.5590   31.0503 C   0  0  0  0  0  0  0  0  0  0  0  0
  -16.7019    8.5361   32.0569 C   0  0  0  0  0  0  0  0  0  0  0  0
  -16.8670    9.7104   32.7935 C   0  0  0  0  0  0  0  0  0  0  0  0
  -17.6995   10.0449   33.8260 N   0  0  0  0  0  0  0  0  0  0  0  0
  -18.3637    9.4503   34.2437 H   0  0  0  0  0  0  0  0  0  0  0  0
  -18.3202   15.3831   34.0472 C   0  0  0  0  0  0  0  0  0  0  0  0
  -18.4867   14.5140   35.1611 O   0  0  0  0  0  0  0  0  0  0  0  0
  -20.4594   13.4287   36.8125 O   0  0  0  0  0  0  0  0  0  0  0  0
  -19.7199   14.6181   37.0586 C   0  0  0  0  0  0  0  0  0  0  0  0
 18 19  1  0
  1 19  1  0
  1  2  1  0
  2 20  1  0
 20 21  1  0
  2  3  1  0
  3  4  1  0
  3  5  1  0
  5  6  1  0
  6  8  1  0
  8  9  2  0
  9 10  1  0
 10 11  2  0
 11 12  1  0
 12 13  2  0
 13 14  1  0
 14 15  2  0
 15 16  1  0
  6  1  1  0
 16  8  1  0
 15 10  1  0
  5  7  1  0
 16 17  1  0
M  END
> <minimizedAffinity>
-5.68272

> <CNNscore>
0.3428686857

> <CNNaffinity>
4.7482309341

> <CNN_VS>
1.6280196905

> <CNNaffinity_variance>
0.1952983290

$$$$



 21 23  0  0  0  0  0  0  0  0999 V2000
  -16.1255   11.5829   33.4183 C   0  0  0  0  0  0  0  0  0  0  0  0
  -17.2402   10.5392   33.6174 C   0  0  0  0  0  0  0  0  0  0  0  0
  -18.4061   11.4505   34.0277 C   0  0  0  0  0  0  0  0  0  0  0  0
  -19.7677   10.7685   34.0251 C   0  0  0  0  0  0  0  0  0  0  0  0
  -18.3553   12.5413   33.0208 N   0  0  0  0  0  0  0  0  0  0  0  0
  -16.8915   12.8036   32.8421 C   0  0  0  0  0  0  0  0  0  0  0  0
  -18.8334   13.3742   33.3644 H   0  0  0  0  0  0  0  0  0  0  0  0
  -16.5114   14.0816   33.5387 C   0  0  0  0  0  0  0  0  0  0  0  0
  -15.3052   14.4915   33.8824 N   0  0  0  0  0  0  0  0  0  0  0  0
  -15.4869   15.7154   34.4816 C   0  0  0  0  0  0  0  0  0  0  0  0
  -14.5429   16.5921   35.0350 C   0  0  0  0  0  0  0  0  0  0  0  0
  -14.9914   17.7946   35.5970 C   0  0  0  0  0  0  0  0  0  0  0  0
  -16.3512   18.1163   35.6077 C   0  0  0  0  0  0  0  0  0  0  0  0
  -17.3079   17.2536   35.0595 C   0  0  0  0  0  0  0  0  0  0  0  0
  -16.8323   16.0637   34.5056 C   0  0  0  0  0  0  0  0  0  0  0  0
  -17.4596   15.0115   33.8971 N   0  0  0  0  0  0  0  0  0  0  0  0
  -18.4285   14.9327   33.7414 H   0  0  0  0  0  0  0  0  0  0  0  0
  -15.1250   11.5893   31.2608 C   0  0  0  0  0  0  0  0  0  0  0  0
  -15.0830   11.0686   32.5839 O   0  0  0  0  0  0  0  0  0  0  0  0
  -17.5955    9.8649   32.3962 O   0  0  0  0  0  0  0  0  0  0  0  0
  -17.0932    8.5359   32.3387 C   0  0  0  0  0  0  0  0  0  0  0  0
 18 19  1  0
  1 19  1  0
  1  2  1  0
  2 20  1  0
 20 21  1  0
  2  3  1  0
  3  4  1  0
  3  5  1  0
  5  6  1  0
  6  8  1  0
  8  9  2  0
  9 10  1  0
 10 11  2  0
 11 12  1  0
 12 13  2  0
 13 14  1  0
 14 15  2  0
 15 16  1  0
  6  1  1  0
 16  8  1  0
 15 10  1  0
  5  7  1  0
 16 17  1  0
M  END
> <minimizedAffinity>
-5.54574

> <CNNscore>
0.3154123724

> <CNNaffinity>
4.6394581795

> <CNN_VS>
1.4633425474

> <CNNaffinity_variance>
0.2670764327

$$$$



 21 23  0  0  0  0  0  0  0  0999 V2000
  -17.5615   11.9703   33.0965 C   0  0  0  0  0  0  0  0  0  0  0  0
  -18.3461   10.8685   33.8326 C   0  0  0  0  0  0  0  0  0  0  0  0
  -18.8449   11.6507   35.0563 C   0  0  0  0  0  0  0  0  0  0  0  0
  -19.9129   10.9313   35.8693 C   0  0  0  0  0  0  0  0  0  0  0  0
  -19.3809   12.9029   34.4637 N   0  0  0  0  0  0  0  0  0  0  0  0
  -18.3982   13.2451   33.3862 C   0  0  0  0  0  0  0  0  0  0  0  0
  -19.4252   13.6445   35.1625 H   0  0  0  0  0  0  0  0  0  0  0  0
  -17.5326   14.3933   33.8284 C   0  0  0  0  0  0  0  0  0  0  0  0
  -17.9058   15.6226   34.1297 N   0  0  0  0  0  0  0  0  0  0  0  0
  -16.7524   16.2845   34.4782 C   0  0  0  0  0  0  0  0  0  0  0  0
  -16.5688   17.6147   34.8821 C   0  0  0  0  0  0  0  0  0  0  0  0
  -15.2723   18.0526   35.1825 C   0  0  0  0  0  0  0  0  0  0  0  0
  -14.1823   17.1841   35.0821 C   0  0  0  0  0  0  0  0  0  0  0  0
  -14.3464   15.8529   34.6809 C   0  0  0  0  0  0  0  0  0  0  0  0
  -15.6490   15.4440   34.3893 C   0  0  0  0  0  0  0  0  0  0  0  0
  -16.1730   14.2489   33.9791 N   0  0  0  0  0  0  0  0  0  0  0  0
  -15.6621   13.4229   33.8184 H   0  0  0  0  0  0  0  0  0  0  0  0
  -16.0943   11.9322   31.2253 C   0  0  0  0  0  0  0  0  0  0  0  0
  -17.4008   11.6489   31.7116 O   0  0  0  0  0  0  0  0  0  0  0  0
  -19.4888   10.4074   33.0884 O   0  0  0  0  0  0  0  0  0  0  0  0
  -19.4230    9.0189   32.7891 C   0  0  0  0  0  0  0  0  0  0  0  0
 18 19  1  0
  1 19  1  0
  1  2  1  0
  2 20  1  0
 20 21  1  0
  2  3  1  0
  3  4  1  0
  3  5  1  0
  5  6  1  0
  6  8  1  0
  8  9  2  0
  9 10  1  0
 10 11  2  0
 11 12  1  0
 12 13  2  0
 13 14  1  0
 14 15  2  0
 15 16  1  0
  6  1  1  0
 16  8  1  0
 15 10  1  0
  5  7  1  0
 16 17  1  0
M  END
> <minimizedAffinity>
-4.29520

> <CNNscore>
0.3029059768

> <CNNaffinity>
4.3299412727

> <CNN_VS>
1.3115650415

> <CNNaffinity_variance>
0.2852679789

$$$$



 21 23  0  0  0  0  0  0  0  0999 V2000
  -19.5877   11.9664   35.5657 C   0  0  0  0  0  0  0  0  0  0  0  0
  -19.4636   13.1418   36.5529 C   0  0  0  0  0  0  0  0  0  0  0  0
  -18.3122   13.9274   35.9085 C   0  0  0  0  0  0  0  0  0  0  0  0
  -18.1114   15.3264   36.4755 C   0  0  0  0  0  0  0  0  0  0  0  0
  -18.6999   13.9845   34.4758 N   0  0  0  0  0  0  0  0  0  0  0  0
  -19.2670   12.6262   34.1980 C   0  0  0  0  0  0  0  0  0  0  0  0
  -17.8867   14.1650   33.8872 H   0  0  0  0  0  0  0  0  0  0  0  0
  -18.2825   11.8132   33.4023 C   0  0  0  0  0  0  0  0  0  0  0  0
  -17.2886   12.2488   32.6515 N   0  0  0  0  0  0  0  0  0  0  0  0
  -16.6853   11.1217   32.1459 C   0  0  0  0  0  0  0  0  0  0  0  0
  -15.5826   11.0029   31.2880 C   0  0  0  0  0  0  0  0  0  0  0  0
  -15.1595    9.7214   30.9115 C   0  0  0  0  0  0  0  0  0  0  0  0
  -15.8211    8.5829   31.3795 C   0  0  0  0  0  0  0  0  0  0  0  0
  -16.9234    8.6822   32.2368 C   0  0  0  0  0  0  0  0  0  0  0  0
  -17.3219    9.9710   32.5961 C   0  0  0  0  0  0  0  0  0  0  0  0
  -18.3290   10.4385   33.3950 N   0  0  0  0  0  0  0  0  0  0  0  0
  -18.9790    9.8835   33.8834 H   0  0  0  0  0  0  0  0  0  0  0  0
  -21.5275   11.2380   34.3984 C   0  0  0  0  0  0  0  0  0  0  0  0
  -20.8764   11.3516   35.6581 O   0  0  0  0  0  0  0  0  0  0  0  0
  -20.6342   13.9793   36.5708 O   0  0  0  0  0  0  0  0  0  0  0  0
  -20.9496   14.5065   35.2883 C   0  0  0  0  0  0  0  0  0  0  0  0
 18 19  1  0
  1 19  1  0
  1  2  1  0
  2 20  1  0
 20 21  1  0
  2  3  1  0
  3  4  1  0
  3  5  1  0
  5  6  1  0
  6  8  1  0
  8  9  2  0
  9 10  1  0
 10 11  2  0
 11 12  1  0
 12 13  2  0
 13 14  1  0
 14 15  2  0
 15 16  1  0
  6  1  1  0
 16  8  1  0
 15 10  1  0
  5  7  1  0
 16 17  1  0
M  END
> <minimizedAffinity>
-5.74209

> <CNNscore>
0.2919483781

> <CNNaffinity>
4.2078585625

> <CNN_VS>
1.2284774780

> <CNNaffinity_variance>
0.4640953243

$$$$



 21 23  0  0  0  0  0  0  0  0999 V2000
  -20.2050   12.1693   36.7310 C   0  0  0  0  0  0  0  0  0  0  0  0
  -21.1665   11.3297   37.5924 C   0  0  0  0  0  0  0  0  0  0  0  0
  -22.4771   12.1017   37.3814 C   0  0  0  0  0  0  0  0  0  0  0  0
  -23.7217   11.3717   37.8683 C   0  0  0  0  0  0  0  0  0  0  0  0
  -22.5196   12.3031   35.9104 N   0  0  0  0  0  0  0  0  0  0  0  0
  -21.1010   12.6154   35.5448 C   0  0  0  0  0  0  0  0  0  0  0  0
  -23.1354   13.0795   35.6686 H   0  0  0  0  0  0  0  0  0  0  0  0
  -20.9578   14.0853   35.2580 C   0  0  0  0  0  0  0  0  0  0  0  0
  -21.8230   15.0496   35.5081 N   0  0  0  0  0  0  0  0  0  0  0  0
  -21.2251   16.2066   35.0680 C   0  0  0  0  0  0  0  0  0  0  0  0
  -21.7010   17.5255   35.0870 C   0  0  0  0  0  0  0  0  0  0  0  0
  -20.8877   18.5406   34.5665 C   0  0  0  0  0  0  0  0  0  0  0  0
  -19.6275   18.2479   34.0382 C   0  0  0  0  0  0  0  0  0  0  0  0
  -19.1358   16.9374   34.0112 C   0  0  0  0  0  0  0  0  0  0  0  0
  -19.9669   15.9468   34.5374 C   0  0  0  0  0  0  0  0  0  0  0  0
  -19.8207   14.5938   34.6745 N   0  0  0  0  0  0  0  0  0  0  0  0
  -19.0327   14.0708   34.4009 H   0  0  0  0  0  0  0  0  0  0  0  0
  -18.9349   11.2088   34.9646 C   0  0  0  0  0  0  0  0  0  0  0  0
  -19.0462   11.4125   36.3681 O   0  0  0  0  0  0  0  0  0  0  0  0
  -21.3388    9.9916   37.0905 O   0  0  0  0  0  0  0  0  0  0  0  0
  -20.8010    9.0062   37.9634 C   0  0  0  0  0  0  0  0  0  0  0  0
 18 19  1  0
  1 19  1  0
  1  2  1  0
  2 20  1  0
 20 21  1  0
  2  3  1  0
  3  4  1  0
  3  5  1  0
  5  6  1  0
  6  8  1  0
  8  9  2  0
  9 10  1  0
 10 11  2  0
 11 12  1  0
 12 13  2  0
 13 14  1  0
 14 15  2  0
 15 16  1  0
  6  1  1  0
 16  8  1  0
 15 10  1  0
  5  7  1  0
 16 17  1  0
M  END
> <minimizedAffinity>
-4.19713

> <CNNscore>
0.2903074920

> <CNNaffinity>
3.3586339951

> <CNN_VS>
0.9750366211

> <CNNaffinity_variance>
0.5702886581

$$$$



 21 23  0  0  0  0  0  0  0  0999 V2000
  -16.6543   15.0672   35.2034 C   0  0  0  0  0  0  0  0  0  0  0  0
  -15.2166   14.5493   35.0132 C   0  0  0  0  0  0  0  0  0  0  0  0
  -15.4933   13.2007   34.3328 C   0  0  0  0  0  0  0  0  0  0  0  0
  -14.2619   12.5355   33.7324 C   0  0  0  0  0  0  0  0  0  0  0  0
  -16.4782   13.5487   33.2768 N   0  0  0  0  0  0  0  0  0  0  0  0
  -17.3825   14.5440   33.9366 C   0  0  0  0  0  0  0  0  0  0  0  0
  -17.0008   12.7236   32.9827 H   0  0  0  0  0  0  0  0  0  0  0  0
  -18.6972   13.8959   34.2752 C   0  0  0  0  0  0  0  0  0  0  0  0
  -19.0644   12.6460   34.0650 N   0  0  0  0  0  0  0  0  0  0  0  0
  -20.3453   12.5493   34.5547 C   0  0  0  0  0  0  0  0  0  0  0  0
  -21.2128   11.4480   34.5862 C   0  0  0  0  0  0  0  0  0  0  0  0
  -22.4872   11.6126   35.1445 C   0  0  0  0  0  0  0  0  0  0  0  0
  -22.8888   12.8479   35.6598 C   0  0  0  0  0  0  0  0  0  0  0  0
  -22.0363   13.9581   35.6373 C   0  0  0  0  0  0  0  0  0  0  0  0
  -20.7726   13.7647   35.0765 C   0  0  0  0  0  0  0  0  0  0  0  0
  -19.7059   14.6004   34.8902 N   0  0  0  0  0  0  0  0  0  0  0  0
  -19.6666   15.5485   35.1526 H   0  0  0  0  0  0  0  0  0  0  0  0
  -17.0833   16.8863   36.6740 C   0  0  0  0  0  0  0  0  0  0  0  0
  -16.6705   16.4880   35.3723 O   0  0  0  0  0  0  0  0  0  0  0  0
  -14.4458   15.3656   34.1123 O   0  0  0  0  0  0  0  0  0  0  0  0
  -13.2514   15.8583   34.7063 C   0  0  0  0  0  0  0  0  0  0  0  0
 18 19  1  0
  1 19  1  0
  1  2  1  0
  2 20  1  0
 20 21  1  0
  2  3  1  0
  3  4  1  0
  3  5  1  0
  5  6  1  0
  6  8  1  0
  8  9  2  0
  9 10  1  0
 10 11  2  0
 11 12  1  0
 12 13  2  0
 13 14  1  0
 14 15  2  0
 15 16  1  0
  6  1  1  0
 16  8  1  0
 15 10  1  0
  5  7  1  0
 16 17  1  0
M  END
> <minimizedAffinity>
-4.96358

> <CNNscore>
0.2721572220

> <CNNaffinity>
4.0237388611

> <CNN_VS>
1.0950895548

> <CNNaffinity_variance>
0.2948344946

$$$$
