


 24 26  0  0  0  0  0  0  0  0999 V2000
   31.8013   -6.2613   62.3028 C   0  0  0  0  0  0  0  0  0  0  0  0
   30.8781   -5.3102   62.0628 C   0  0  0  0  0  0  0  0  0  0  0  0
   30.0531   -4.6437   63.1346 C   0  0  0  0  0  0  0  0  0  0  0  0
   29.2863   -3.4306   62.6182 C   0  0  0  0  0  0  0  0  0  0  0  0
   30.1247   -2.6807   61.5955 C   0  0  0  0  0  0  0  0  0  0  0  0
   30.3692   -3.5340   60.4304 N   0  0  0  0  0  0  0  0  0  0  0  0
   30.7008   -4.7602   60.6740 C   0  0  0  0  0  0  0  0  0  0  0  0
   31.7556   -8.2172   63.8760 C   0  0  0  0  0  0  0  0  0  0  0  0
   31.9835   -8.7334   65.1544 C   0  0  0  0  0  0  0  0  0  0  0  0
   32.4798   -7.9073   66.1610 C   0  0  0  0  0  0  0  0  0  0  0  0
   32.6837   -8.4638   67.3903 O   0  0  0  0  0  0  0  0  0  0  0  0
   32.7572   -6.5664   65.9227 C   0  0  0  0  0  0  0  0  0  0  0  0
   32.5316   -6.0409   64.6511 C   0  0  0  0  0  0  0  0  0  0  0  0
   32.0302   -6.8571   63.6267 C   0  0  0  0  0  0  0  0  0  0  0  0
   32.4910   -9.3697   67.5323 H   0  0  0  0  0  0  0  0  0  0  0  0
   30.1363   -9.7631   63.0492 C   0  0  0  0  0  0  0  0  0  0  0  0
   31.2727   -8.9413   62.8142 O   0  0  0  0  0  0  0  0  0  0  0  0
   30.8859   -5.6661   59.5101 C   0  0  0  0  0  0  0  0  0  0  0  0
   32.1115   -5.7903   58.8613 C   0  0  0  0  0  0  0  0  0  0  0  0
   32.3279   -6.6225   57.8118 N   0  0  0  0  0  0  0  0  0  0  0  0
   31.2741   -7.3773   57.4142 C   0  0  0  0  0  0  0  0  0  0  0  0
   30.0239   -7.3378   58.0159 C   0  0  0  0  0  0  0  0  0  0  0  0
   28.7458   -8.3351   57.4519 Cl  0  0  0  0  0  0  0  0  0  0  0  0
   29.8267   -6.4724   59.0853 C   0  0  0  0  0  0  0  0  0  0  0  0
 16 17  1  0
 17  8  1  0
  8  9  2  0
  9 10  1  0
 10 11  1  0
 10 12  2  0
 12 13  1  0
 13 14  2  0
 14  1  1  0
  1  2  2  0
  2  3  1  0
  3  4  1  0
  4  5  1  0
  5  6  1  0
  6  7  2  0
  7 18  1  0
 18 19  2  0
 19 20  1  0
 20 21  2  0
 21 22  1  0
 22 23  1  0
 22 24  2  0
 14  8  1  0
  7  2  1  0
 24 18  1  0
 11 15  1  0
M  END
> <minimizedAffinity>
-6.67834

> <CNNscore>
0.8135229945

> <CNNaffinity>
7.1662583351

> <CNN_VS>
5.8299160004

> <CNNaffinity_variance>
0.6733849645

$$$$



 24 26  0  0  0  0  0  0  0  0999 V2000
   31.9259   -6.0754   62.2292 C   0  0  0  0  0  0  0  0  0  0  0  0
   30.9655   -5.2303   61.8076 C   0  0  0  0  0  0  0  0  0  0  0  0
   29.8679   -4.6907   62.6895 C   0  0  0  0  0  0  0  0  0  0  0  0
   29.0848   -3.5604   62.0299 C   0  0  0  0  0  0  0  0  0  0  0  0
   30.0193   -2.6930   61.2017 C   0  0  0  0  0  0  0  0  0  0  0  0
   30.5934   -3.4821   60.1094 N   0  0  0  0  0  0  0  0  0  0  0  0
   31.0102   -4.6682   60.4131 C   0  0  0  0  0  0  0  0  0  0  0  0
   32.1134   -5.8833   64.7254 C   0  0  0  0  0  0  0  0  0  0  0  0
   32.1371   -6.5034   65.9774 C   0  0  0  0  0  0  0  0  0  0  0  0
   31.9959   -7.8866   66.0725 C   0  0  0  0  0  0  0  0  0  0  0  0
   32.0261   -8.4393   67.3198 O   0  0  0  0  0  0  0  0  0  0  0  0
   31.8301   -8.6745   64.9396 C   0  0  0  0  0  0  0  0  0  0  0  0
   31.8069   -8.0659   63.6854 C   0  0  0  0  0  0  0  0  0  0  0  0
   31.9500   -6.6754   63.5708 C   0  0  0  0  0  0  0  0  0  0  0  0
   32.1387   -7.8922   68.0721 H   0  0  0  0  0  0  0  0  0  0  0  0
   31.8674   -3.6716   65.5877 C   0  0  0  0  0  0  0  0  0  0  0  0
   32.2406   -4.5320   64.5188 O   0  0  0  0  0  0  0  0  0  0  0  0
   31.5324   -5.5164   59.3096 C   0  0  0  0  0  0  0  0  0  0  0  0
   32.7799   -6.1307   59.3803 C   0  0  0  0  0  0  0  0  0  0  0  0
   33.2823   -6.9307   58.4065 N   0  0  0  0  0  0  0  0  0  0  0  0
   32.4873   -7.1394   57.3283 C   0  0  0  0  0  0  0  0  0  0  0  0
   31.2214   -6.5889   57.1829 C   0  0  0  0  0  0  0  0  0  0  0  0
   30.2781   -6.9124   55.7858 Cl  0  0  0  0  0  0  0  0  0  0  0  0
   30.7323   -5.7681   58.1921 C   0  0  0  0  0  0  0  0  0  0  0  0
 16 17  1  0
 17  8  1  0
  8  9  2  0
  9 10  1  0
 10 11  1  0
 10 12  2  0
 12 13  1  0
 13 14  2  0
 14  1  1  0
  1  2  2  0
  2  3  1  0
  3  4  1  0
  4  5  1  0
  5  6  1  0
  6  7  2  0
  7 18  1  0
 18 19  2  0
 19 20  1  0
 20 21  2  0
 21 22  1  0
 22 23  1  0
 22 24  2  0
 14  8  1  0
  7  2  1  0
 24 18  1  0
 11 15  1  0
M  END
> <minimizedAffinity>
-6.82039

> <CNNscore>
0.7660399079

> <CNNaffinity>
7.0306248665

> <CNN_VS>
5.3857393265

> <CNNaffinity_variance>
0.6913620830

$$$$



 24 26  0  0  0  0  0  0  0  0999 V2000
   29.8532   -6.2373   58.5229 C   0  0  0  0  0  0  0  0  0  0  0  0
   30.9054   -6.9723   58.9315 C   0  0  0  0  0  0  0  0  0  0  0  0
   30.9635   -8.4774   58.8602 C   0  0  0  0  0  0  0  0  0  0  0  0
   32.3590   -9.0264   59.1382 C   0  0  0  0  0  0  0  0  0  0  0  0
   33.4105   -8.1020   58.5457 C   0  0  0  0  0  0  0  0  0  0  0  0
   33.3495   -6.7937   59.2016 N   0  0  0  0  0  0  0  0  0  0  0  0
   32.1699   -6.2968   59.3869 C   0  0  0  0  0  0  0  0  0  0  0  0
   27.3871   -6.6199   58.7966 C   0  0  0  0  0  0  0  0  0  0  0  0
   26.2047   -7.2006   58.3304 C   0  0  0  0  0  0  0  0  0  0  0  0
   26.2151   -7.9604   57.1622 C   0  0  0  0  0  0  0  0  0  0  0  0
   25.0322   -8.5038   56.7527 O   0  0  0  0  0  0  0  0  0  0  0  0
   27.3863   -8.1578   56.4403 C   0  0  0  0  0  0  0  0  0  0  0  0
   28.5720   -7.5843   56.8979 C   0  0  0  0  0  0  0  0  0  0  0  0
   28.5804   -6.8185   58.0728 C   0  0  0  0  0  0  0  0  0  0  0  0
   24.2527   -8.3599   57.2523 H   0  0  0  0  0  0  0  0  0  0  0  0
   27.8061   -6.5231   61.1441 C   0  0  0  0  0  0  0  0  0  0  0  0
   27.4882   -5.8530   59.9309 O   0  0  0  0  0  0  0  0  0  0  0  0
   32.0756   -5.0033   60.1133 C   0  0  0  0  0  0  0  0  0  0  0  0
   33.2030   -4.2429   60.4122 C   0  0  0  0  0  0  0  0  0  0  0  0
   33.1578   -3.0471   61.0517 N   0  0  0  0  0  0  0  0  0  0  0  0
   31.9261   -2.5872   61.3830 C   0  0  0  0  0  0  0  0  0  0  0  0
   30.7471   -3.2644   61.1039 C   0  0  0  0  0  0  0  0  0  0  0  0
   29.2275   -2.6044   61.5532 Cl  0  0  0  0  0  0  0  0  0  0  0  0
   30.8212   -4.4902   60.4532 C   0  0  0  0  0  0  0  0  0  0  0  0
 16 17  1  0
 17  8  1  0
  8  9  2  0
  9 10  1  0
 10 11  1  0
 10 12  2  0
 12 13  1  0
 13 14  2  0
 14  1  1  0
  1  2  2  0
  2  3  1  0
  3  4  1  0
  4  5  1  0
  5  6  1  0
  6  7  2  0
  7 18  1  0
 18 19  2  0
 19 20  1  0
 20 21  2  0
 21 22  1  0
 22 23  1  0
 22 24  2  0
 14  8  1  0
  7  2  1  0
 24 18  1  0
 11 15  1  0
M  END
> <minimizedAffinity>
-8.97413

> <CNNscore>
0.7230986357

> <CNNaffinity>
6.7101721764

> <CNN_VS>
4.8521161079

> <CNNaffinity_variance>
0.1108954623

$$$$



 24 26  0  0  0  0  0  0  0  0999 V2000
   31.2539   -6.8345   61.9647 C   0  0  0  0  0  0  0  0  0  0  0  0
   31.7027   -7.2339   63.1703 C   0  0  0  0  0  0  0  0  0  0  0  0
   32.2311   -6.2980   64.2279 C   0  0  0  0  0  0  0  0  0  0  0  0
   32.4196   -6.9817   65.5781 C   0  0  0  0  0  0  0  0  0  0  0  0
   31.3081   -7.9927   65.8102 C   0  0  0  0  0  0  0  0  0  0  0  0
   31.3817   -9.0534   64.8028 N   0  0  0  0  0  0  0  0  0  0  0  0
   31.5849   -8.6758   63.5826 C   0  0  0  0  0  0  0  0  0  0  0  0
   30.2136   -4.6017   61.4802 C   0  0  0  0  0  0  0  0  0  0  0  0
   30.3469   -3.2945   61.0044 C   0  0  0  0  0  0  0  0  0  0  0  0
   31.5826   -2.8430   60.5448 C   0  0  0  0  0  0  0  0  0  0  0  0
   31.6558   -1.5579   60.0917 O   0  0  0  0  0  0  0  0  0  0  0  0
   32.6996   -3.6702   60.5477 C   0  0  0  0  0  0  0  0  0  0  0  0
   32.5770   -4.9768   61.0186 C   0  0  0  0  0  0  0  0  0  0  0  0
   31.3405   -5.4487   61.4827 C   0  0  0  0  0  0  0  0  0  0  0  0
   30.8922   -1.0149   60.0974 H   0  0  0  0  0  0  0  0  0  0  0  0
   28.1516   -5.7047   61.0039 C   0  0  0  0  0  0  0  0  0  0  0  0
   29.0468   -5.1458   61.9569 O   0  0  0  0  0  0  0  0  0  0  0  0
   31.7341   -9.7357   62.5512 C   0  0  0  0  0  0  0  0  0  0  0  0
   31.9980  -11.0603   62.8895 C   0  0  0  0  0  0  0  0  0  0  0  0
   32.1176  -12.0608   61.9809 N   0  0  0  0  0  0  0  0  0  0  0  0
   31.9414  -11.7184   60.6809 C   0  0  0  0  0  0  0  0  0  0  0  0
   31.6517  -10.4301   60.2532 C   0  0  0  0  0  0  0  0  0  0  0  0
   31.4364  -10.0859   58.5853 Cl  0  0  0  0  0  0  0  0  0  0  0  0
   31.5404   -9.4221   61.2035 C   0  0  0  0  0  0  0  0  0  0  0  0
 16 17  1  0
 17  8  1  0
  8  9  2  0
  9 10  1  0
 10 11  1  0
 10 12  2  0
 12 13  1  0
 13 14  2  0
 14  1  1  0
  1  2  2  0
  2  3  1  0
  3  4  1  0
  4  5  1  0
  5  6  1  0
  6  7  2  0
  7 18  1  0
 18 19  2  0
 19 20  1  0
 20 21  2  0
 21 22  1  0
 22 23  1  0
 22 24  2  0
 14  8  1  0
  7  2  1  0
 24 18  1  0
 11 15  1  0
M  END
> <minimizedAffinity>
-6.68083

> <CNNscore>
0.6711176038

> <CNNaffinity>
6.4493403435

> <CNN_VS>
4.3282656670

> <CNNaffinity_variance>
0.2218918800

$$$$



 24 26  0  0  0  0  0  0  0  0999 V2000
   31.2901   -8.3866   61.5756 C   0  0  0  0  0  0  0  0  0  0  0  0
   30.2316   -7.5539   61.5515 C   0  0  0  0  0  0  0  0  0  0  0  0
   29.1605   -7.5178   62.6121 C   0  0  0  0  0  0  0  0  0  0  0  0
   28.2358   -6.3128   62.4741 C   0  0  0  0  0  0  0  0  0  0  0  0
   29.0275   -5.0977   62.0179 C   0  0  0  0  0  0  0  0  0  0  0  0
   29.5845   -5.3384   60.6848 N   0  0  0  0  0  0  0  0  0  0  0  0
   30.1235   -6.4972   60.4864 C   0  0  0  0  0  0  0  0  0  0  0  0
   32.3253  -10.5426   62.3391 C   0  0  0  0  0  0  0  0  0  0  0  0
   32.4515  -11.5317   63.3182 C   0  0  0  0  0  0  0  0  0  0  0  0
   31.7362  -11.4277   64.5097 C   0  0  0  0  0  0  0  0  0  0  0  0
   31.8975  -12.4215   65.4309 O   0  0  0  0  0  0  0  0  0  0  0  0
   30.8900  -10.3520   64.7517 C   0  0  0  0  0  0  0  0  0  0  0  0
   30.7554   -9.3607   63.7806 C   0  0  0  0  0  0  0  0  0  0  0  0
   31.4658   -9.4503   62.5747 C   0  0  0  0  0  0  0  0  0  0  0  0
   32.4724  -13.1390   65.2502 H   0  0  0  0  0  0  0  0  0  0  0  0
   32.9229  -11.7373   60.3615 C   0  0  0  0  0  0  0  0  0  0  0  0
   32.9838  -10.5454   61.1345 O   0  0  0  0  0  0  0  0  0  0  0  0
   30.6331   -6.7933   59.1217 C   0  0  0  0  0  0  0  0  0  0  0  0
   31.8737   -6.3373   58.6841 C   0  0  0  0  0  0  0  0  0  0  0  0
   32.3850   -6.6054   57.4562 N   0  0  0  0  0  0  0  0  0  0  0  0
   31.6271   -7.3833   56.6447 C   0  0  0  0  0  0  0  0  0  0  0  0
   30.3910   -7.9020   57.0046 C   0  0  0  0  0  0  0  0  0  0  0  0
   29.5005   -8.8859   55.9158 Cl  0  0  0  0  0  0  0  0  0  0  0  0
   29.8870   -7.6076   58.2659 C   0  0  0  0  0  0  0  0  0  0  0  0
 16 17  1  0
 17  8  1  0
  8  9  2  0
  9 10  1  0
 10 11  1  0
 10 12  2  0
 12 13  1  0
 13 14  2  0
 14  1  1  0
  1  2  2  0
  2  3  1  0
  3  4  1  0
  4  5  1  0
  5  6  1  0
  6  7  2  0
  7 18  1  0
 18 19  2  0
 19 20  1  0
 20 21  2  0
 21 22  1  0
 22 23  1  0
 22 24  2  0
 14  8  1  0
  7  2  1  0
 24 18  1  0
 11 15  1  0
M  END
> <minimizedAffinity>
-6.51922

> <CNNscore>
0.6542174816

> <CNNaffinity>
6.7783112526

> <CNN_VS>
4.4344897270

> <CNNaffinity_variance>
0.6540858150

$$$$



 24 26  0  0  0  0  0  0  0  0999 V2000
   32.1013   -3.1114   62.0310 C   0  0  0  0  0  0  0  0  0  0  0  0
   30.8893   -3.6740   62.2012 C   0  0  0  0  0  0  0  0  0  0  0  0
   29.7409   -3.5151   61.2371 C   0  0  0  0  0  0  0  0  0  0  0  0
   28.5855   -4.4646   61.5363 C   0  0  0  0  0  0  0  0  0  0  0  0
   29.1222   -5.8051   62.0120 C   0  0  0  0  0  0  0  0  0  0  0  0
   29.8445   -5.6323   63.2745 N   0  0  0  0  0  0  0  0  0  0  0  0
   30.6480   -4.6212   63.3445 C   0  0  0  0  0  0  0  0  0  0  0  0
   33.3547   -1.1332   61.1262 C   0  0  0  0  0  0  0  0  0  0  0  0
   33.6128   -0.2594   60.0666 C   0  0  0  0  0  0  0  0  0  0  0  0
   32.9490   -0.4220   58.8521 C   0  0  0  0  0  0  0  0  0  0  0  0
   33.2395    0.4594   57.8517 O   0  0  0  0  0  0  0  0  0  0  0  0
   32.0252   -1.4437   58.6659 C   0  0  0  0  0  0  0  0  0  0  0  0
   31.7590   -2.3198   59.7174 C   0  0  0  0  0  0  0  0  0  0  0  0
   32.4161   -2.1696   60.9473 C   0  0  0  0  0  0  0  0  0  0  0  0
   33.8652    1.1419   57.9956 H   0  0  0  0  0  0  0  0  0  0  0  0
   34.6858    0.1148   62.6645 C   0  0  0  0  0  0  0  0  0  0  0  0
   33.9527   -1.0650   62.3602 O   0  0  0  0  0  0  0  0  0  0  0  0
   31.3401   -4.3821   64.6382 C   0  0  0  0  0  0  0  0  0  0  0  0
   32.1949   -5.3258   65.2014 C   0  0  0  0  0  0  0  0  0  0  0  0
   32.8634   -5.1367   66.3669 N   0  0  0  0  0  0  0  0  0  0  0  0
   32.6822   -3.9402   66.9781 C   0  0  0  0  0  0  0  0  0  0  0  0
   31.8695   -2.9319   66.4785 C   0  0  0  0  0  0  0  0  0  0  0  0
   31.7031   -1.4423   67.3151 Cl  0  0  0  0  0  0  0  0  0  0  0  0
   31.1910   -3.1530   65.2859 C   0  0  0  0  0  0  0  0  0  0  0  0
 16 17  1  0
 17  8  1  0
  8  9  2  0
  9 10  1  0
 10 11  1  0
 10 12  2  0
 12 13  1  0
 13 14  2  0
 14  1  1  0
  1  2  2  0
  2  3  1  0
  3  4  1  0
  4  5  1  0
  5  6  1  0
  6  7  2  0
  7 18  1  0
 18 19  2  0
 19 20  1  0
 20 21  2  0
 21 22  1  0
 22 23  1  0
 22 24  2  0
 14  8  1  0
  7  2  1  0
 24 18  1  0
 11 15  1  0
M  END
> <minimizedAffinity>
-8.42080

> <CNNscore>
0.6528314352

> <CNNaffinity>
6.3512153625

> <CNN_VS>
4.1462731361

> <CNNaffinity_variance>
0.0299831536

$$$$



 24 26  0  0  0  0  0  0  0  0999 V2000
   31.3848   -5.6171   62.2222 C   0  0  0  0  0  0  0  0  0  0  0  0
   30.2525   -6.1723   61.7488 C   0  0  0  0  0  0  0  0  0  0  0  0
   28.9549   -6.2293   62.5146 C   0  0  0  0  0  0  0  0  0  0  0  0
   27.7790   -6.6689   61.6486 C   0  0  0  0  0  0  0  0  0  0  0  0
   27.9198   -6.0945   60.2480 C   0  0  0  0  0  0  0  0  0  0  0  0
   29.1215   -6.6340   59.6073 N   0  0  0  0  0  0  0  0  0  0  0  0
   30.1911   -6.6771   60.3331 C   0  0  0  0  0  0  0  0  0  0  0  0
   31.2790   -3.7577   63.9057 C   0  0  0  0  0  0  0  0  0  0  0  0
   31.4391   -3.3232   65.2242 C   0  0  0  0  0  0  0  0  0  0  0  0
   31.8378   -4.2231   66.2106 C   0  0  0  0  0  0  0  0  0  0  0  0
   31.9782   -3.7449   67.4810 O   0  0  0  0  0  0  0  0  0  0  0  0
   32.0835   -5.5583   65.9126 C   0  0  0  0  0  0  0  0  0  0  0  0
   31.9285   -6.0017   64.5998 C   0  0  0  0  0  0  0  0  0  0  0  0
   31.5301   -5.1093   63.5938 C   0  0  0  0  0  0  0  0  0  0  0  0
   31.8082   -2.8416   67.6631 H   0  0  0  0  0  0  0  0  0  0  0  0
   29.5046   -2.6489   62.7578 C   0  0  0  0  0  0  0  0  0  0  0  0
   30.8888   -2.9580   62.8601 O   0  0  0  0  0  0  0  0  0  0  0  0
   31.4063   -7.2849   59.7303 C   0  0  0  0  0  0  0  0  0  0  0  0
   32.1185   -6.6537   58.7139 C   0  0  0  0  0  0  0  0  0  0  0  0
   33.2446   -7.1631   58.1542 N   0  0  0  0  0  0  0  0  0  0  0  0
   33.6847   -8.3441   58.6538 C   0  0  0  0  0  0  0  0  0  0  0  0
   33.0540   -9.0321   59.6812 C   0  0  0  0  0  0  0  0  0  0  0  0
   33.6851  -10.5203   60.2587 Cl  0  0  0  0  0  0  0  0  0  0  0  0
   31.8988   -8.4919   60.2334 C   0  0  0  0  0  0  0  0  0  0  0  0
 16 17  1  0
 17  8  1  0
  8  9  2  0
  9 10  1  0
 10 11  1  0
 10 12  2  0
 12 13  1  0
 13 14  2  0
 14  1  1  0
  1  2  2  0
  2  3  1  0
  3  4  1  0
  4  5  1  0
  5  6  1  0
  6  7  2  0
  7 18  1  0
 18 19  2  0
 19 20  1  0
 20 21  2  0
 21 22  1  0
 22 23  1  0
 22 24  2  0
 14  8  1  0
  7  2  1  0
 24 18  1  0
 11 15  1  0
M  END
> <minimizedAffinity>
-7.00256

> <CNNscore>
0.6121999621

> <CNNaffinity>
6.4934191704

> <CNN_VS>
3.9752709866

> <CNNaffinity_variance>
0.2548879087

$$$$



 24 26  0  0  0  0  0  0  0  0999 V2000
   31.2312   -7.4254   61.9713 C   0  0  0  0  0  0  0  0  0  0  0  0
   30.8728   -6.1685   62.2973 C   0  0  0  0  0  0  0  0  0  0  0  0
   31.1862   -5.5167   63.6203 C   0  0  0  0  0  0  0  0  0  0  0  0
   30.9005   -4.0185   63.6207 C   0  0  0  0  0  0  0  0  0  0  0  0
   31.2541   -3.4201   62.2687 C   0  0  0  0  0  0  0  0  0  0  0  0
   30.3983   -3.9975   61.2296 N   0  0  0  0  0  0  0  0  0  0  0  0
   30.2209   -5.2778   61.2754 C   0  0  0  0  0  0  0  0  0  0  0  0
   31.0983   -9.2904   63.6467 C   0  0  0  0  0  0  0  0  0  0  0  0
   31.7464  -10.1534   64.5344 C   0  0  0  0  0  0  0  0  0  0  0  0
   33.1309  -10.0909   64.6810 C   0  0  0  0  0  0  0  0  0  0  0  0
   33.7116  -10.9570   65.5612 O   0  0  0  0  0  0  0  0  0  0  0  0
   33.8927   -9.1807   63.9577 C   0  0  0  0  0  0  0  0  0  0  0  0
   33.2556   -8.3139   63.0707 C   0  0  0  0  0  0  0  0  0  0  0  0
   31.8629   -8.3612   62.9123 C   0  0  0  0  0  0  0  0  0  0  0  0
   33.1818  -11.5637   66.0401 H   0  0  0  0  0  0  0  0  0  0  0  0
   28.9468  -10.1806   64.1702 C   0  0  0  0  0  0  0  0  0  0  0  0
   29.7437   -9.2693   63.4243 O   0  0  0  0  0  0  0  0  0  0  0  0
   29.3006   -5.8800   60.2754 C   0  0  0  0  0  0  0  0  0  0  0  0
   27.9483   -6.0755   60.5431 C   0  0  0  0  0  0  0  0  0  0  0  0
   27.0712   -6.5992   59.6503 N   0  0  0  0  0  0  0  0  0  0  0  0
   27.5707   -6.9175   58.4307 C   0  0  0  0  0  0  0  0  0  0  0  0
   28.8978   -6.7351   58.0671 C   0  0  0  0  0  0  0  0  0  0  0  0
   29.4443   -7.1593   56.4962 Cl  0  0  0  0  0  0  0  0  0  0  0  0
   29.7772   -6.2024   59.0021 C   0  0  0  0  0  0  0  0  0  0  0  0
 16 17  1  0
 17  8  1  0
  8  9  2  0
  9 10  1  0
 10 11  1  0
 10 12  2  0
 12 13  1  0
 13 14  2  0
 14  1  1  0
  1  2  2  0
  2  3  1  0
  3  4  1  0
  4  5  1  0
  5  6  1  0
  6  7  2  0
  7 18  1  0
 18 19  2  0
 19 20  1  0
 20 21  2  0
 21 22  1  0
 22 23  1  0
 22 24  2  0
 14  8  1  0
  7  2  1  0
 24 18  1  0
 11 15  1  0
M  END
> <minimizedAffinity>
-6.79374

> <CNNscore>
0.5905591249

> <CNNaffinity>
6.6862869263

> <CNN_VS>
3.9486477375

> <CNNaffinity_variance>
0.2803945541

$$$$



 24 26  0  0  0  0  0  0  0  0999 V2000
   29.7026   -6.2227   61.5844 C   0  0  0  0  0  0  0  0  0  0  0  0
   30.6333   -5.2633   61.7509 C   0  0  0  0  0  0  0  0  0  0  0  0
   31.1100   -4.3484   60.6513 C   0  0  0  0  0  0  0  0  0  0  0  0
   31.9616   -3.1955   61.1725 C   0  0  0  0  0  0  0  0  0  0  0  0
   31.4248   -2.7146   62.5111 C   0  0  0  0  0  0  0  0  0  0  0  0
   31.5358   -3.7847   63.5052 N   0  0  0  0  0  0  0  0  0  0  0  0
   31.1785   -4.9668   63.1212 C   0  0  0  0  0  0  0  0  0  0  0  0
   29.8856   -7.2600   59.3055 C   0  0  0  0  0  0  0  0  0  0  0  0
   29.2939   -7.5702   58.0781 C   0  0  0  0  0  0  0  0  0  0  0  0
   27.9699   -7.2114   57.8325 C   0  0  0  0  0  0  0  0  0  0  0  0
   27.4426   -7.5392   56.6173 O   0  0  0  0  0  0  0  0  0  0  0  0
   27.2137   -6.5446   58.7893 C   0  0  0  0  0  0  0  0  0  0  0  0
   27.7951   -6.2288   60.0166 C   0  0  0  0  0  0  0  0  0  0  0  0
   29.1271   -6.5801   60.2800 C   0  0  0  0  0  0  0  0  0  0  0  0
   27.9676   -7.9887   55.9847 H   0  0  0  0  0  0  0  0  0  0  0  0
   32.1776   -7.3973   58.6548 C   0  0  0  0  0  0  0  0  0  0  0  0
   31.1779   -7.5684   59.6515 O   0  0  0  0  0  0  0  0  0  0  0  0
   31.3474   -6.0835   64.0877 C   0  0  0  0  0  0  0  0  0  0  0  0
   32.0396   -5.9226   65.2850 C   0  0  0  0  0  0  0  0  0  0  0  0
   32.1956   -6.9086   66.2038 N   0  0  0  0  0  0  0  0  0  0  0  0
   31.6114   -8.0979   65.9165 C   0  0  0  0  0  0  0  0  0  0  0  0
   30.8827   -8.3421   64.7606 C   0  0  0  0  0  0  0  0  0  0  0  0
   30.1692   -9.8779   64.4801 Cl  0  0  0  0  0  0  0  0  0  0  0  0
   30.7428   -7.3171   63.8326 C   0  0  0  0  0  0  0  0  0  0  0  0
 16 17  1  0
 17  8  1  0
  8  9  2  0
  9 10  1  0
 10 11  1  0
 10 12  2  0
 12 13  1  0
 13 14  2  0
 14  1  1  0
  1  2  2  0
  2  3  1  0
  3  4  1  0
  4  5  1  0
  5  6  1  0
  6  7  2  0
  7 18  1  0
 18 19  2  0
 19 20  1  0
 20 21  2  0
 21 22  1  0
 22 23  1  0
 22 24  2  0
 14  8  1  0
  7  2  1  0
 24 18  1  0
 11 15  1  0
M  END
> <minimizedAffinity>
-7.69937

> <CNNscore>
0.5787460804

> <CNNaffinity>
6.7687549591

> <CNN_VS>
3.9173903465

> <CNNaffinity_variance>
0.4152513444

$$$$
