


 23 25  0  0  0  0  0  0  0  0999 V2000
   15.6716   16.4313   23.0179 C   0  0  0  0  0  0  0  0  0  0  0  0
   15.4543   16.4122   21.7433 N   0  0  0  0  0  0  0  0  0  0  0  0
   16.4692   16.8149   20.8495 C   0  0  0  0  0  0  0  0  0  0  0  0
   16.2358   16.8080   19.4589 C   0  0  0  0  0  0  0  0  0  0  0  0
   14.5601   16.2655   18.7433 Br  0  0  0  0  0  0  0  0  0  0  0  0
   17.2599   17.2118   18.5766 C   0  0  0  0  0  0  0  0  0  0  0  0
   17.2851   17.2933   17.1997 N   0  0  0  0  0  0  0  0  0  0  0  0
   18.4793   17.7284   16.8817 C   0  0  0  0  0  0  0  0  0  0  0  0
   19.2405   17.9297   18.0010 N   0  0  0  0  0  0  0  0  0  0  0  0
   18.4858   17.6112   19.1014 C   0  0  0  0  0  0  0  0  0  0  0  0
   18.7650   17.6343   20.4663 C   0  0  0  0  0  0  0  0  0  0  0  0
   17.7237   17.2276   21.3167 C   0  0  0  0  0  0  0  0  0  0  0  0
   17.9377   17.2250   22.7737 C   0  0  0  0  0  0  0  0  0  0  0  0
   19.0083   17.5524   23.2735 O   0  0  0  0  0  0  0  0  0  0  0  0
   16.8688   16.8335   23.5345 N   0  0  0  0  0  0  0  0  0  0  0  0
   20.1717   18.2489   18.0143 H   0  0  0  0  0  0  0  0  0  0  0  0
   16.9701   16.8428   24.5137 H   0  0  0  0  0  0  0  0  0  0  0  0
   13.8581   14.9279   23.7001 C   0  0  0  0  0  0  0  0  0  0  0  0
   14.7343   16.0558   23.9349 N   0  0  0  0  0  0  0  0  0  0  0  0
   14.6520   16.5630   24.7747 H   0  0  0  0  0  0  0  0  0  0  0  0
   18.9969   17.9679   15.6620 N   0  0  0  0  0  0  0  0  0  0  0  0
   18.0778   18.3444   14.6049 C   0  0  0  0  0  0  0  0  0  0  0  0
   19.9639   17.8904   15.4938 H   0  0  0  0  0  0  0  0  0  0  0  0
 18 19  1  0
 19  1  1  0
  1  2  2  0
  2  3  1  0
  3  4  2  0
  4  5  1  0
  4  6  1  0
  6  7  1  0
  7  8  2  0
  8 21  1  0
 21 22  1  0
  8  9  1  0
  9 10  1  0
 10 11  1  0
 11 12  2  0
 12 13  1  0
 13 14  2  0
 13 15  1  0
 15  1  1  0
 12  3  1  0
 10  6  2  0
 19 20  1  0
 21 23  1  0
  9 16  1  0
 15 17  1  0
M  END
> <minimizedAffinity>
-9.15389

> <CNNscore>
0.9795414209

> <CNNaffinity>
7.0633521080

> <CNN_VS>
6.9188461304

> <CNNaffinity_variance>
0.1067121699

$$$$



 23 25  0  0  0  0  0  0  0  0999 V2000
   16.0112   16.5436   22.4269 C   0  0  0  0  0  0  0  0  0  0  0  0
   15.3838   16.4667   21.2987 N   0  0  0  0  0  0  0  0  0  0  0  0
   16.0495   16.7953   20.0987 C   0  0  0  0  0  0  0  0  0  0  0  0
   15.3687   16.7252   18.8659 C   0  0  0  0  0  0  0  0  0  0  0  0
   13.5452   16.1950   18.7754 Br  0  0  0  0  0  0  0  0  0  0  0  0
   16.0469   17.0552   17.6735 C   0  0  0  0  0  0  0  0  0  0  0  0
   15.6155   17.0667   16.3633 N   0  0  0  0  0  0  0  0  0  0  0  0
   16.6414   17.4515   15.6447 C   0  0  0  0  0  0  0  0  0  0  0  0
   17.7322   17.6870   16.4368 N   0  0  0  0  0  0  0  0  0  0  0  0
   17.3813   17.4456   17.7407 C   0  0  0  0  0  0  0  0  0  0  0  0
   18.0970   17.5292   18.9333 C   0  0  0  0  0  0  0  0  0  0  0  0
   17.3920   17.1953   20.1014 C   0  0  0  0  0  0  0  0  0  0  0  0
   18.0764   17.2598   21.4038 C   0  0  0  0  0  0  0  0  0  0  0  0
   19.2554   17.5814   21.5028 O   0  0  0  0  0  0  0  0  0  0  0  0
   17.3158   16.9372   22.4957 N   0  0  0  0  0  0  0  0  0  0  0  0
   18.6184   17.9801   16.1238 H   0  0  0  0  0  0  0  0  0  0  0  0
   17.7358   16.9928   23.3844 H   0  0  0  0  0  0  0  0  0  0  0  0
   14.0683   15.7464   23.6935 C   0  0  0  0  0  0  0  0  0  0  0  0
   15.4267   16.2412   23.6216 N   0  0  0  0  0  0  0  0  0  0  0  0
   15.9398   16.3622   24.4531 H   0  0  0  0  0  0  0  0  0  0  0  0
   16.7283   17.6148   14.3111 N   0  0  0  0  0  0  0  0  0  0  0  0
   16.1095   16.6080   13.4699 C   0  0  0  0  0  0  0  0  0  0  0  0
   17.1947   18.3891   13.9211 H   0  0  0  0  0  0  0  0  0  0  0  0
 18 19  1  0
 19  1  1  0
  1  2  2  0
  2  3  1  0
  3  4  2  0
  4  5  1  0
  4  6  1  0
  6  7  1  0
  7  8  2  0
  8 21  1  0
 21 22  1  0
  8  9  1  0
  9 10  1  0
 10 11  1  0
 11 12  2  0
 12 13  1  0
 13 14  2  0
 13 15  1  0
 15  1  1  0
 12  3  1  0
 10  6  2  0
 19 20  1  0
 21 23  1  0
  9 16  1  0
 15 17  1  0
M  END
> <minimizedAffinity>
-7.26744

> <CNNscore>
0.8557355404

> <CNNaffinity>
6.2107276917

> <CNN_VS>
5.3147401810

> <CNNaffinity_variance>
0.1318613440

$$$$



 23 25  0  0  0  0  0  0  0  0999 V2000
   18.4790   17.7732   17.3950 C   0  0  0  0  0  0  0  0  0  0  0  0
   17.3025   17.3350   17.7052 N   0  0  0  0  0  0  0  0  0  0  0  0
   16.9661   17.1170   19.0581 C   0  0  0  0  0  0  0  0  0  0  0  0
   15.6892   16.6282   19.4032 C   0  0  0  0  0  0  0  0  0  0  0  0
   14.3876   16.2441   18.0719 Br  0  0  0  0  0  0  0  0  0  0  0  0
   15.3657   16.4161   20.7600 C   0  0  0  0  0  0  0  0  0  0  0  0
   14.2075   15.9544   21.3503 N   0  0  0  0  0  0  0  0  0  0  0  0
   14.4343   15.9450   22.6408 C   0  0  0  0  0  0  0  0  0  0  0  0
   15.6983   16.3898   22.9182 N   0  0  0  0  0  0  0  0  0  0  0  0
   16.3200   16.6953   21.7342 C   0  0  0  0  0  0  0  0  0  0  0  0
   17.5936   17.1802   21.4437 C   0  0  0  0  0  0  0  0  0  0  0  0
   17.8835   17.3789   20.0838 C   0  0  0  0  0  0  0  0  0  0  0  0
   19.2089   17.8877   19.6926 C   0  0  0  0  0  0  0  0  0  0  0  0
   20.0698   18.1623   20.5214 O   0  0  0  0  0  0  0  0  0  0  0  0
   19.4195   18.0363   18.3479 N   0  0  0  0  0  0  0  0  0  0  0  0
   16.0944   16.4760   23.8154 H   0  0  0  0  0  0  0  0  0  0  0  0
   20.3033   18.3522   18.0504 H   0  0  0  0  0  0  0  0  0  0  0  0
   17.9031   18.0983   15.0334 C   0  0  0  0  0  0  0  0  0  0  0  0
   18.8680   18.0043   16.1083 N   0  0  0  0  0  0  0  0  0  0  0  0
   19.8258   18.1094   15.9062 H   0  0  0  0  0  0  0  0  0  0  0  0
   13.6118   15.5819   23.6430 N   0  0  0  0  0  0  0  0  0  0  0  0
   13.7144   14.2216   24.1361 C   0  0  0  0  0  0  0  0  0  0  0  0
   12.9645   16.2165   24.0272 H   0  0  0  0  0  0  0  0  0  0  0  0
 18 19  1  0
 19  1  1  0
  1  2  2  0
  2  3  1  0
  3  4  2  0
  4  5  1  0
  4  6  1  0
  6  7  1  0
  7  8  2  0
  8 21  1  0
 21 22  1  0
  8  9  1  0
  9 10  1  0
 10 11  1  0
 11 12  2  0
 12 13  1  0
 13 14  2  0
 13 15  1  0
 15  1  1  0
 12  3  1  0
 10  6  2  0
 19 20  1  0
 21 23  1  0
  9 16  1  0
 15 17  1  0
M  END
> <minimizedAffinity>
-7.96241

> <CNNscore>
0.7837190628

> <CNNaffinity>
6.4352736473

> <CNN_VS>
5.0434465408

> <CNNaffinity_variance>
0.2093221694

$$$$



 23 25  0  0  0  0  0  0  0  0999 V2000
   16.4659   16.8625   21.1531 C   0  0  0  0  0  0  0  0  0  0  0  0
   15.9622   16.8115   19.9632 N   0  0  0  0  0  0  0  0  0  0  0  0
   16.7589   17.1412   18.8462 C   0  0  0  0  0  0  0  0  0  0  0  0
   16.2133   17.0993   17.5467 C   0  0  0  0  0  0  0  0  0  0  0  0
   14.4007   16.6065   17.2538 Br  0  0  0  0  0  0  0  0  0  0  0  0
   17.0216   17.4301   16.4386 C   0  0  0  0  0  0  0  0  0  0  0  0
   16.7338   17.4659   15.0900 N   0  0  0  0  0  0  0  0  0  0  0  0
   17.8378   17.8388   14.4910 C   0  0  0  0  0  0  0  0  0  0  0  0
   18.8413   18.0433   15.3986 N   0  0  0  0  0  0  0  0  0  0  0  0
   18.3480   17.7933   16.6540 C   0  0  0  0  0  0  0  0  0  0  0  0
   18.9328   17.8484   17.9174 C   0  0  0  0  0  0  0  0  0  0  0  0
   18.1004   17.5146   18.9984 C   0  0  0  0  0  0  0  0  0  0  0  0
   18.6420   17.5499   20.3674 C   0  0  0  0  0  0  0  0  0  0  0  0
   19.8092   17.8470   20.5968 O   0  0  0  0  0  0  0  0  0  0  0  0
   17.7627   17.2295   21.3669 N   0  0  0  0  0  0  0  0  0  0  0  0
   19.7613   18.3225   15.1866 H   0  0  0  0  0  0  0  0  0  0  0  0
   18.0856   17.2660   22.2962 H   0  0  0  0  0  0  0  0  0  0  0  0
   14.4317   15.9680   22.1904 C   0  0  0  0  0  0  0  0  0  0  0  0
   15.7510   16.5575   22.2740 N   0  0  0  0  0  0  0  0  0  0  0  0
   16.1408   16.7423   23.1589 H   0  0  0  0  0  0  0  0  0  0  0  0
   18.0705   18.0163   13.1768 N   0  0  0  0  0  0  0  0  0  0  0  0
   16.9874   17.7225   12.2577 C   0  0  0  0  0  0  0  0  0  0  0  0
   18.9437   18.3339   12.8515 H   0  0  0  0  0  0  0  0  0  0  0  0
 18 19  1  0
 19  1  1  0
  1  2  2  0
  2  3  1  0
  3  4  2  0
  4  5  1  0
  4  6  1  0
  6  7  1  0
  7  8  2  0
  8 21  1  0
 21 22  1  0
  8  9  1  0
  9 10  1  0
 10 11  1  0
 11 12  2  0
 12 13  1  0
 13 14  2  0
 13 15  1  0
 15  1  1  0
 12  3  1  0
 10  6  2  0
 19 20  1  0
 21 23  1  0
  9 16  1  0
 15 17  1  0
M  END
> <minimizedAffinity>
-7.09022

> <CNNscore>
0.5451630354

> <CNNaffinity>
6.0334935188

> <CNN_VS>
3.2892377377

> <CNNaffinity_variance>
0.1434104443

$$$$



 23 25  0  0  0  0  0  0  0  0999 V2000
   17.8861   17.6631   16.2708 C   0  0  0  0  0  0  0  0  0  0  0  0
   18.1466   17.5989   17.5359 N   0  0  0  0  0  0  0  0  0  0  0  0
   17.1347   17.2249   18.4454 C   0  0  0  0  0  0  0  0  0  0  0  0
   17.4081   17.1641   19.8274 C   0  0  0  0  0  0  0  0  0  0  0  0
   19.1317   17.5839   20.5108 Br  0  0  0  0  0  0  0  0  0  0  0  0
   16.3873   16.7873   20.7255 C   0  0  0  0  0  0  0  0  0  0  0  0
   16.3974   16.6524   22.0984 N   0  0  0  0  0  0  0  0  0  0  0  0
   15.1877   16.2804   22.4374 C   0  0  0  0  0  0  0  0  0  0  0  0
   14.3860   16.1607   21.3348 N   0  0  0  0  0  0  0  0  0  0  0  0
   15.1248   16.4824   20.2247 C   0  0  0  0  0  0  0  0  0  0  0  0
   14.8062   16.5267   18.8690 C   0  0  0  0  0  0  0  0  0  0  0  0
   15.8444   16.9067   18.0026 C   0  0  0  0  0  0  0  0  0  0  0  0
   15.5887   16.9799   16.5541 C   0  0  0  0  0  0  0  0  0  0  0  0
   14.4960   16.7019   16.0726 O   0  0  0  0  0  0  0  0  0  0  0  0
   16.6460   17.3758   15.7794 N   0  0  0  0  0  0  0  0  0  0  0  0
   13.4395   15.8897   21.3378 H   0  0  0  0  0  0  0  0  0  0  0  0
   16.5028   17.4581   14.8089 H   0  0  0  0  0  0  0  0  0  0  0  0
   18.4341   18.4101   14.0001 C   0  0  0  0  0  0  0  0  0  0  0  0
   18.8174   18.0180   15.3397 N   0  0  0  0  0  0  0  0  0  0  0  0
   19.7711   18.0073   15.5841 H   0  0  0  0  0  0  0  0  0  0  0  0
   14.6949   16.0138   23.6617 N   0  0  0  0  0  0  0  0  0  0  0  0
   14.0494   14.7301   23.8605 C   0  0  0  0  0  0  0  0  0  0  0  0
   14.7701   16.6662   24.3951 H   0  0  0  0  0  0  0  0  0  0  0  0
 18 19  1  0
 19  1  1  0
  1  2  2  0
  2  3  1  0
  3  4  2  0
  4  5  1  0
  4  6  1  0
  6  7  1  0
  7  8  2  0
  8 21  1  0
 21 22  1  0
  8  9  1  0
  9 10  1  0
 10 11  1  0
 11 12  2  0
 12 13  1  0
 13 14  2  0
 13 15  1  0
 15  1  1  0
 12  3  1  0
 10  6  2  0
 19 20  1  0
 21 23  1  0
  9 16  1  0
 15 17  1  0
M  END
> <minimizedAffinity>
-7.34412

> <CNNscore>
0.3873394430

> <CNNaffinity>
5.6190333366

> <CNN_VS>
2.1764731407

> <CNNaffinity_variance>
0.2711240351

$$$$



 23 25  0  0  0  0  0  0  0  0999 V2000
   24.2368   17.8946   10.9437 C   0  0  0  0  0  0  0  0  0  0  0  0
   23.1012   17.4799   10.4846 N   0  0  0  0  0  0  0  0  0  0  0  0
   21.9063   18.1184   10.8792 C   0  0  0  0  0  0  0  0  0  0  0  0
   20.6634   17.6645   10.3920 C   0  0  0  0  0  0  0  0  0  0  0  0
   20.5513   16.1871    9.2009 Br  0  0  0  0  0  0  0  0  0  0  0  0
   19.4766   18.3132   10.7937 C   0  0  0  0  0  0  0  0  0  0  0  0
   18.1590   18.0688   10.4659 N   0  0  0  0  0  0  0  0  0  0  0  0
   17.4505   18.9611   11.1129 C   0  0  0  0  0  0  0  0  0  0  0  0
   18.2573   19.7859   11.8489 N   0  0  0  0  0  0  0  0  0  0  0  0
   19.5591   19.3934   11.6678 C   0  0  0  0  0  0  0  0  0  0  0  0
   20.7624   19.8793   12.1752 C   0  0  0  0  0  0  0  0  0  0  0  0
   21.9243   19.2103   11.7566 C   0  0  0  0  0  0  0  0  0  0  0  0
   23.2369   19.6612   12.2491 C   0  0  0  0  0  0  0  0  0  0  0  0
   23.3527   20.6193   13.0053 O   0  0  0  0  0  0  0  0  0  0  0  0
   24.3185   18.9459   11.8096 N   0  0  0  0  0  0  0  0  0  0  0  0
   17.9546   20.5340   12.4128 H   0  0  0  0  0  0  0  0  0  0  0  0
   25.2093   19.2059   12.1384 H   0  0  0  0  0  0  0  0  0  0  0  0
   26.4681   17.1046   11.5853 C   0  0  0  0  0  0  0  0  0  0  0  0
   25.4270   17.3220   10.6034 N   0  0  0  0  0  0  0  0  0  0  0  0
   25.5815   17.0507    9.6697 H   0  0  0  0  0  0  0  0  0  0  0  0
   16.1164   19.1423   11.1182 N   0  0  0  0  0  0  0  0  0  0  0  0
   15.4403   19.1146   12.4012 C   0  0  0  0  0  0  0  0  0  0  0  0
   15.6179   19.2882   10.2818 H   0  0  0  0  0  0  0  0  0  0  0  0
 18 19  1  0
 19  1  1  0
  1  2  2  0
  2  3  1  0
  3  4  2  0
  4  5  1  0
  4  6  1  0
  6  7  1  0
  7  8  2  0
  8 21  1  0
 21 22  1  0
  8  9  1  0
  9 10  1  0
 10 11  1  0
 11 12  2  0
 12 13  1  0
 13 14  2  0
 13 15  1  0
 15  1  1  0
 12  3  1  0
 10  6  2  0
 19 20  1  0
 21 23  1  0
  9 16  1  0
 15 17  1  0
M  END
> <minimizedAffinity>
-5.19840

> <CNNscore>
0.3379356861

> <CNNaffinity>
5.4282736778

> <CNN_VS>
1.8344074488

> <CNNaffinity_variance>
0.2352253050

$$$$



 23 25  0  0  0  0  0  0  0  0999 V2000
   16.2574   16.6236   22.8618 C   0  0  0  0  0  0  0  0  0  0  0  0
   16.3516   16.6827   21.5734 N   0  0  0  0  0  0  0  0  0  0  0  0
   15.1893   16.5994   20.7776 C   0  0  0  0  0  0  0  0  0  0  0  0
   15.2851   16.6512   19.3717 C   0  0  0  0  0  0  0  0  0  0  0  0
   16.9674   16.8287   18.5041 Br  0  0  0  0  0  0  0  0  0  0  0  0
   14.1148   16.5682   18.5882 C   0  0  0  0  0  0  0  0  0  0  0  0
   13.9407   16.5951   17.2200 N   0  0  0  0  0  0  0  0  0  0  0  0
   12.6517   16.4815   17.0139 C   0  0  0  0  0  0  0  0  0  0  0  0
   11.9736   16.3871   18.1987 N   0  0  0  0  0  0  0  0  0  0  0  0
   12.8836   16.4358   19.2241 C   0  0  0  0  0  0  0  0  0  0  0  0
   12.7372   16.3812   20.6086 C   0  0  0  0  0  0  0  0  0  0  0  0
   13.9218   16.4651   21.3587 C   0  0  0  0  0  0  0  0  0  0  0  0
   13.8534   16.4130   22.8289 C   0  0  0  0  0  0  0  0  0  0  0  0
   12.7873   16.3151   23.4264 O   0  0  0  0  0  0  0  0  0  0  0  0
   15.0525   16.4822   23.4862 N   0  0  0  0  0  0  0  0  0  0  0  0
   10.9981   16.2991   18.2984 H   0  0  0  0  0  0  0  0  0  0  0  0
   15.0448   16.4264   24.4691 H   0  0  0  0  0  0  0  0  0  0  0  0
   18.6136   17.2022   23.2199 C   0  0  0  0  0  0  0  0  0  0  0  0
   17.3403   16.6973   23.6878 N   0  0  0  0  0  0  0  0  0  0  0  0
   17.2540   16.4006   24.6226 H   0  0  0  0  0  0  0  0  0  0  0  0
   11.9786   16.4614   15.8480 N   0  0  0  0  0  0  0  0  0  0  0  0
   11.9944   15.2278   15.0851 C   0  0  0  0  0  0  0  0  0  0  0  0
   11.4934   17.2548   15.5251 H   0  0  0  0  0  0  0  0  0  0  0  0
 18 19  1  0
 19  1  1  0
  1  2  2  0
  2  3  1  0
  3  4  2  0
  4  5  1  0
  4  6  1  0
  6  7  1  0
  7  8  2  0
  8 21  1  0
 21 22  1  0
  8  9  1  0
  9 10  1  0
 10 11  1  0
 11 12  2  0
 12 13  1  0
 13 14  2  0
 13 15  1  0
 15  1  1  0
 12  3  1  0
 10  6  2  0
 19 20  1  0
 21 23  1  0
  9 16  1  0
 15 17  1  0
M  END
> <minimizedAffinity>
-8.15317

> <CNNscore>
0.2685336769

> <CNNaffinity>
5.5112681389

> <CNN_VS>
1.4799611568

> <CNNaffinity_variance>
0.1421387345

$$$$



 23 25  0  0  0  0  0  0  0  0999 V2000
   14.2530   16.3837   20.3642 C   0  0  0  0  0  0  0  0  0  0  0  0
   14.3395   16.5833   19.0895 N   0  0  0  0  0  0  0  0  0  0  0  0
   15.5738   16.9579   18.5172 C   0  0  0  0  0  0  0  0  0  0  0  0
   15.6732   17.1888   17.1298 C   0  0  0  0  0  0  0  0  0  0  0  0
   14.1622   17.0104   15.9899 Br  0  0  0  0  0  0  0  0  0  0  0  0
   16.9138   17.5615   16.5707 C   0  0  0  0  0  0  0  0  0  0  0  0
   17.2695   17.8386   15.2670 N   0  0  0  0  0  0  0  0  0  0  0  0
   18.5458   18.1343   15.2920 C   0  0  0  0  0  0  0  0  0  0  0  0
   19.0411   18.0551   16.5652 N   0  0  0  0  0  0  0  0  0  0  0  0
   18.0192   17.6943   17.4062 C   0  0  0  0  0  0  0  0  0  0  0  0
   17.9718   17.4761   18.7816 C   0  0  0  0  0  0  0  0  0  0  0  0
   16.7218   17.1080   19.3058 C   0  0  0  0  0  0  0  0  0  0  0  0
   16.5870   16.8609   20.7513 C   0  0  0  0  0  0  0  0  0  0  0  0
   17.5403   16.9498   21.5172 O   0  0  0  0  0  0  0  0  0  0  0  0
   15.3330   16.5247   21.1862 N   0  0  0  0  0  0  0  0  0  0  0  0
   19.9728   18.2277   16.8323 H   0  0  0  0  0  0  0  0  0  0  0  0
   15.2025   16.3757   22.1506 H   0  0  0  0  0  0  0  0  0  0  0  0
   12.1888   17.0093   21.5312 C   0  0  0  0  0  0  0  0  0  0  0  0
   13.0914   16.0209   20.9801 N   0  0  0  0  0  0  0  0  0  0  0  0
   12.8618   15.0662   21.0513 H   0  0  0  0  0  0  0  0  0  0  0  0
   19.3579   18.4703   14.2720 N   0  0  0  0  0  0  0  0  0  0  0  0
   18.7383   18.9405   13.0476 C   0  0  0  0  0  0  0  0  0  0  0  0
   20.3364   18.3994   14.3541 H   0  0  0  0  0  0  0  0  0  0  0  0
 18 19  1  0
 19  1  1  0
  1  2  2  0
  2  3  1  0
  3  4  2  0
  4  5  1  0
  4  6  1  0
  6  7  1  0
  7  8  2  0
  8 21  1  0
 21 22  1  0
  8  9  1  0
  9 10  1  0
 10 11  1  0
 11 12  2  0
 12 13  1  0
 13 14  2  0
 13 15  1  0
 15  1  1  0
 12  3  1  0
 10  6  2  0
 19 20  1  0
 21 23  1  0
  9 16  1  0
 15 17  1  0
M  END
> <minimizedAffinity>
-5.97298

> <CNNscore>
0.2603961527

> <CNNaffinity>
5.3147277832

> <CNN_VS>
1.3839346170

> <CNNaffinity_variance>
0.4285611808

$$$$



 23 25  0  0  0  0  0  0  0  0999 V2000
   14.7214   16.2336   20.9666 C   0  0  0  0  0  0  0  0  0  0  0  0
   14.4209   16.2715   19.7094 N   0  0  0  0  0  0  0  0  0  0  0  0
   15.3769   16.7120   18.7696 C   0  0  0  0  0  0  0  0  0  0  0  0
   15.0527   16.7672   17.3984 C   0  0  0  0  0  0  0  0  0  0  0  0
   13.3313   16.2598   16.7711 Br  0  0  0  0  0  0  0  0  0  0  0  0
   16.0186   17.2083   16.4694 C   0  0  0  0  0  0  0  0  0  0  0  0
   15.9538   17.3509   15.0989 N   0  0  0  0  0  0  0  0  0  0  0  0
   17.1266   17.7978   14.7226 C   0  0  0  0  0  0  0  0  0  0  0  0
   17.9604   17.9479   15.7973 N   0  0  0  0  0  0  0  0  0  0  0  0
   17.2781   17.5820   16.9297 C   0  0  0  0  0  0  0  0  0  0  0  0
   17.6463   17.5439   18.2730 C   0  0  0  0  0  0  0  0  0  0  0  0
   16.6612   17.1015   19.1711 C   0  0  0  0  0  0  0  0  0  0  0  0
   16.9702   17.0338   20.6094 C   0  0  0  0  0  0  0  0  0  0  0  0
   18.0727   17.3369   21.0518 O   0  0  0  0  0  0  0  0  0  0  0  0
   15.9516   16.6106   21.4207 N   0  0  0  0  0  0  0  0  0  0  0  0
   18.8919   18.2647   15.7635 H   0  0  0  0  0  0  0  0  0  0  0  0
   16.1170   16.5761   22.3906 H   0  0  0  0  0  0  0  0  0  0  0  0
   14.0358   16.1577   23.3200 C   0  0  0  0  0  0  0  0  0  0  0  0
   13.8446   15.8193   21.9257 N   0  0  0  0  0  0  0  0  0  0  0  0
   13.0647   15.2783   21.6640 H   0  0  0  0  0  0  0  0  0  0  0  0
   17.5643   18.0905   13.4834 N   0  0  0  0  0  0  0  0  0  0  0  0
   18.9444   18.5137   13.3415 C   0  0  0  0  0  0  0  0  0  0  0  0
   16.9693   18.0198   12.7022 H   0  0  0  0  0  0  0  0  0  0  0  0
 18 19  1  0
 19  1  1  0
  1  2  2  0
  2  3  1  0
  3  4  2  0
  4  5  1  0
  4  6  1  0
  6  7  1  0
  7  8  2  0
  8 21  1  0
 21 22  1  0
  8  9  1  0
  9 10  1  0
 10 11  1  0
 11 12  2  0
 12 13  1  0
 13 14  2  0
 13 15  1  0
 15  1  1  0
 12  3  1  0
 10  6  2  0
 19 20  1  0
 21 23  1  0
  9 16  1  0
 15 17  1  0
M  END
> <minimizedAffinity>
-6.41663

> <CNNscore>
0.2433332503

> <CNNaffinity>
5.2215685844

> <CNN_VS>
1.2705812454

> <CNNaffinity_variance>
0.1282772422

$$$$
