


 26 29  0  0  0  0  0  0  0  0999 V2000
    9.6274   56.2137   -0.1779 C   0  0  0  0  0  0  0  0  0  0  0  0
   10.0036   57.3152   -0.8093 N   0  0  0  0  0  0  0  0  0  0  0  0
    8.9478   58.1754   -0.7112 C   0  0  0  0  0  0  0  0  0  0  0  0
    8.7872   59.4901   -1.1856 C   0  0  0  0  0  0  0  0  0  0  0  0
    7.6504   60.2176   -0.9777 N   0  0  0  0  0  0  0  0  0  0  0  0
    6.7007   59.5865   -0.2699 C   0  0  0  0  0  0  0  0  0  0  0  0
    5.4852   60.0913    0.0977 N   0  0  0  0  0  0  0  0  0  0  0  0
    4.8285   59.1437    0.8274 C   0  0  0  0  0  0  0  0  0  0  0  0
    3.2861   59.5249    1.4253 Cl  0  0  0  0  0  0  0  0  0  0  0  0
    5.5948   58.0073    0.9450 C   0  0  0  0  0  0  0  0  0  0  0  0
    6.7804   58.2999    0.2283 C   0  0  0  0  0  0  0  0  0  0  0  0
    7.9146   57.5767   -0.0077 C   0  0  0  0  0  0  0  0  0  0  0  0
    8.3153   56.3192    0.2969 N   0  0  0  0  0  0  0  0  0  0  0  0
    5.1418   60.9864   -0.1260 H   0  0  0  0  0  0  0  0  0  0  0  0
    7.5941   55.2118    0.9186 C   0  0  0  0  0  0  0  0  0  0  0  0
    7.3499   55.3973    2.4253 C   0  0  0  0  0  0  0  0  0  0  0  0
    6.1463   54.6005    2.9472 C   0  0  0  0  0  0  0  0  0  0  0  0
    5.9308   53.2689    2.2198 C   0  0  0  0  0  0  0  0  0  0  0  0
    5.7291   53.4745    0.7070 C   0  0  0  0  0  0  0  0  0  0  0  0
    6.3568   54.7547    0.1348 C   0  0  0  0  0  0  0  0  0  0  0  0
    7.0568   52.3478    2.4776 C   0  0  0  0  0  0  0  0  0  0  0  0
    7.9394   51.6133    2.6397 N   0  0  0  0  0  0  0  0  0  0  0  0
    9.7565   53.7164   -0.0139 C   0  0  0  0  0  0  0  0  0  0  0  0
   10.5328   55.0233   -0.0119 C   0  0  0  0  0  0  0  0  0  0  0  0
   11.4179   55.0185   -1.1355 O   0  0  0  0  0  0  0  0  0  0  0  0
   10.9015   54.9490   -1.9536 H   0  0  0  0  0  0  0  0  0  0  0  0
 24 23  1  0
 24 25  1  0
 24  1  1  0
  1  2  2  0
  2  3  1  0
  3  4  2  0
  4  5  1  0
  5  6  2  0
  6  7  1  0
  7  8  1  0
  8  9  1  0
  8 10  2  0
 10 11  1  0
 11 12  2  0
 12 13  1  0
 15 13  1  0
 15 16  1  0
 16 17  1  0
 17 18  1  0
 18 21  1  0
 21 22  3  0
 18 19  1  0
 19 20  1  0
 13  1  1  0
 20 15  1  0
 12  3  1  0
 11  6  1  0
 25 26  1  0
  7 14  1  0
M  END
> <minimizedAffinity>
-9.00843

> <CNNscore>
0.9671204686

> <CNNaffinity>
7.6728148460

> <CNN_VS>
7.4205365181

> <CNNaffinity_variance>
0.1668622643

$$$$



 26 29  0  0  0  0  0  0  0  0999 V2000
    5.3623   56.7941    1.6064 C   0  0  0  0  0  0  0  0  0  0  0  0
    4.7883   57.9839    1.5149 N   0  0  0  0  0  0  0  0  0  0  0  0
    5.6255   58.7391    0.7448 C   0  0  0  0  0  0  0  0  0  0  0  0
    5.5203   60.0731    0.3104 C   0  0  0  0  0  0  0  0  0  0  0  0
    6.4598   60.6691   -0.4814 N   0  0  0  0  0  0  0  0  0  0  0  0
    7.4866   59.8778   -0.8284 C   0  0  0  0  0  0  0  0  0  0  0  0
    8.5430   60.2140   -1.6274 N   0  0  0  0  0  0  0  0  0  0  0  0
    9.3521   59.1224   -1.7531 C   0  0  0  0  0  0  0  0  0  0  0  0
   10.7422   59.2670   -2.7165 Cl  0  0  0  0  0  0  0  0  0  0  0  0
    8.8462   58.0611   -1.0390 C   0  0  0  0  0  0  0  0  0  0  0  0
    7.6634   58.5623   -0.4434 C   0  0  0  0  0  0  0  0  0  0  0  0
    6.7270   57.9872    0.3675 C   0  0  0  0  0  0  0  0  0  0  0  0
    6.5943   56.7683    0.9431 N   0  0  0  0  0  0  0  0  0  0  0  0
    8.6946   61.0941   -2.0418 H   0  0  0  0  0  0  0  0  0  0  0  0
    7.5064   55.6284    0.9859 C   0  0  0  0  0  0  0  0  0  0  0  0
    7.8694   55.1763    2.4100 C   0  0  0  0  0  0  0  0  0  0  0  0
    8.3033   53.7061    2.4874 C   0  0  0  0  0  0  0  0  0  0  0  0
    9.0450   53.2193    1.2377 C   0  0  0  0  0  0  0  0  0  0  0  0
    8.1875   53.3828   -0.0310 C   0  0  0  0  0  0  0  0  0  0  0  0
    7.1163   54.4814    0.0446 C   0  0  0  0  0  0  0  0  0  0  0  0
   10.3355   53.9236    1.0921 C   0  0  0  0  0  0  0  0  0  0  0  0
   11.3471   54.4687    0.9365 N   0  0  0  0  0  0  0  0  0  0  0  0
    4.7302   54.3713    1.5036 C   0  0  0  0  0  0  0  0  0  0  0  0
    4.7302   55.6415    2.3387 C   0  0  0  0  0  0  0  0  0  0  0  0
    5.5241   55.4088    3.5054 O   0  0  0  0  0  0  0  0  0  0  0  0
    6.4324   55.1943    3.2409 H   0  0  0  0  0  0  0  0  0  0  0  0
 24 23  1  0
 24 25  1  0
 24  1  1  0
  1  2  2  0
  2  3  1  0
  3  4  2  0
  4  5  1  0
  5  6  2  0
  6  7  1  0
  7  8  1  0
  8  9  1  0
  8 10  2  0
 10 11  1  0
 11 12  2  0
 12 13  1  0
 15 13  1  0
 15 16  1  0
 16 17  1  0
 17 18  1  0
 18 21  1  0
 21 22  3  0
 18 19  1  0
 19 20  1  0
 13  1  1  0
 20 15  1  0
 12  3  1  0
 11  6  1  0
 25 26  1  0
  7 14  1  0
M  END
> <minimizedAffinity>
-7.94484

> <CNNscore>
0.8455381393

> <CNNaffinity>
7.5274200439

> <CNN_VS>
6.3647208214

> <CNNaffinity_variance>
0.0378364697

$$$$



 26 29  0  0  0  0  0  0  0  0999 V2000
    5.0077   58.0990    0.7220 C   0  0  0  0  0  0  0  0  0  0  0  0
    5.1810   59.3574    0.3479 N   0  0  0  0  0  0  0  0  0  0  0  0
    6.4172   59.4035   -0.2301 C   0  0  0  0  0  0  0  0  0  0  0  0
    7.1185   60.4741   -0.8143 C   0  0  0  0  0  0  0  0  0  0  0  0
    8.3588   60.3315   -1.3674 N   0  0  0  0  0  0  0  0  0  0  0  0
    8.8530   59.0844   -1.3257 C   0  0  0  0  0  0  0  0  0  0  0  0
   10.0536   58.6646   -1.8253 N   0  0  0  0  0  0  0  0  0  0  0  0
   10.1672   57.3232   -1.6025 C   0  0  0  0  0  0  0  0  0  0  0  0
   11.5728   56.5411   -2.1448 Cl  0  0  0  0  0  0  0  0  0  0  0  0
    9.0531   56.8453   -0.9524 C   0  0  0  0  0  0  0  0  0  0  0  0
    8.2299   57.9829   -0.7704 C   0  0  0  0  0  0  0  0  0  0  0  0
    6.9996   58.1462   -0.2004 C   0  0  0  0  0  0  0  0  0  0  0  0
    6.1363   57.3215    0.4392 N   0  0  0  0  0  0  0  0  0  0  0  0
   10.7228   59.2333   -2.2704 H   0  0  0  0  0  0  0  0  0  0  0  0
    6.2782   55.9291    0.8570 C   0  0  0  0  0  0  0  0  0  0  0  0
    6.4806   54.9481   -0.3095 C   0  0  0  0  0  0  0  0  0  0  0  0
    7.1964   53.6546    0.1032 C   0  0  0  0  0  0  0  0  0  0  0  0
    6.8731   53.2043    1.5320 C   0  0  0  0  0  0  0  0  0  0  0  0
    7.2399   54.2862    2.5648 C   0  0  0  0  0  0  0  0  0  0  0  0
    7.2524   55.7242    2.0244 C   0  0  0  0  0  0  0  0  0  0  0  0
    5.4488   52.8298    1.6491 C   0  0  0  0  0  0  0  0  0  0  0  0
    4.3294   52.5559    1.7777 N   0  0  0  0  0  0  0  0  0  0  0  0
    3.8763   56.1886    1.8840 C   0  0  0  0  0  0  0  0  0  0  0  0
    3.7373   57.6100    1.3634 C   0  0  0  0  0  0  0  0  0  0  0  0
    3.4799   58.4701    2.4768 O   0  0  0  0  0  0  0  0  0  0  0  0
    4.2220   58.4237    3.0996 H   0  0  0  0  0  0  0  0  0  0  0  0
 24 23  1  0
 24 25  1  0
 24  1  1  0
  1  2  2  0
  2  3  1  0
  3  4  2  0
  4  5  1  0
  5  6  2  0
  6  7  1  0
  7  8  1  0
  8  9  1  0
  8 10  2  0
 10 11  1  0
 11 12  2  0
 12 13  1  0
 15 13  1  0
 15 16  1  0
 16 17  1  0
 17 18  1  0
 18 21  1  0
 21 22  3  0
 18 19  1  0
 19 20  1  0
 13  1  1  0
 20 15  1  0
 12  3  1  0
 11  6  1  0
 25 26  1  0
  7 14  1  0
M  END
> <minimizedAffinity>
-8.40252

> <CNNscore>
0.6948803663

> <CNNaffinity>
7.2377657890

> <CNN_VS>
5.0293812752

> <CNNaffinity_variance>
0.0726879239

$$$$



 26 29  0  0  0  0  0  0  0  0999 V2000
    6.6199   59.2342   -0.4502 C   0  0  0  0  0  0  0  0  0  0  0  0
    7.4932   59.9762   -1.1137 N   0  0  0  0  0  0  0  0  0  0  0  0
    8.5911   59.1840   -1.2906 C   0  0  0  0  0  0  0  0  0  0  0  0
    9.8152   59.4415   -1.9346 C   0  0  0  0  0  0  0  0  0  0  0  0
   10.8098   58.5108   -2.0316 N   0  0  0  0  0  0  0  0  0  0  0  0
   10.5235   57.3223   -1.4780 C   0  0  0  0  0  0  0  0  0  0  0  0
   11.3269   56.2171   -1.4556 N   0  0  0  0  0  0  0  0  0  0  0  0
   10.6579   55.2115   -0.8207 C   0  0  0  0  0  0  0  0  0  0  0  0
   11.4336   53.7091   -0.6692 Cl  0  0  0  0  0  0  0  0  0  0  0  0
    9.4153   55.6391   -0.4141 C   0  0  0  0  0  0  0  0  0  0  0  0
    9.3495   56.9916   -0.8282 C   0  0  0  0  0  0  0  0  0  0  0  0
    8.3733   57.9403   -0.7191 C   0  0  0  0  0  0  0  0  0  0  0  0
    7.1467   57.9742   -0.1453 N   0  0  0  0  0  0  0  0  0  0  0  0
   12.2341   56.1568   -1.8332 H   0  0  0  0  0  0  0  0  0  0  0  0
    6.4564   56.9950    0.6901 C   0  0  0  0  0  0  0  0  0  0  0  0
    5.9985   55.7408   -0.0723 C   0  0  0  0  0  0  0  0  0  0  0  0
    5.8293   54.5107    0.8300 C   0  0  0  0  0  0  0  0  0  0  0  0
    5.3559   54.8507    2.2474 C   0  0  0  0  0  0  0  0  0  0  0  0
    6.3276   55.8136    2.9547 C   0  0  0  0  0  0  0  0  0  0  0  0
    7.1651   56.6974    2.0179 C   0  0  0  0  0  0  0  0  0  0  0  0
    3.9900   55.4129    2.2182 C   0  0  0  0  0  0  0  0  0  0  0  0
    2.9345   55.8926    2.1935 N   0  0  0  0  0  0  0  0  0  0  0  0
    4.7497   59.1279    1.2145 C   0  0  0  0  0  0  0  0  0  0  0  0
    5.2425   59.7245   -0.0939 C   0  0  0  0  0  0  0  0  0  0  0  0
    5.3390   61.1421    0.0701 O   0  0  0  0  0  0  0  0  0  0  0  0
    5.9716   61.3435    0.7772 H   0  0  0  0  0  0  0  0  0  0  0  0
 24 23  1  0
 24 25  1  0
 24  1  1  0
  1  2  2  0
  2  3  1  0
  3  4  2  0
  4  5  1  0
  5  6  2  0
  6  7  1  0
  7  8  1  0
  8  9  1  0
  8 10  2  0
 10 11  1  0
 11 12  2  0
 12 13  1  0
 15 13  1  0
 15 16  1  0
 16 17  1  0
 17 18  1  0
 18 21  1  0
 21 22  3  0
 18 19  1  0
 19 20  1  0
 13  1  1  0
 20 15  1  0
 12  3  1  0
 11  6  1  0
 25 26  1  0
  7 14  1  0
M  END
> <minimizedAffinity>
-7.78907

> <CNNscore>
0.4537416399

> <CNNaffinity>
7.0705051422

> <CNN_VS>
3.2081825733

> <CNNaffinity_variance>
0.0651739314

$$$$



 26 29  0  0  0  0  0  0  0  0999 V2000
   10.1191   55.0192    0.1574 C   0  0  0  0  0  0  0  0  0  0  0  0
   10.9894   55.6792   -0.5913 N   0  0  0  0  0  0  0  0  0  0  0  0
   10.3753   56.8526   -0.9233 C   0  0  0  0  0  0  0  0  0  0  0  0
   10.8282   57.9410   -1.6911 C   0  0  0  0  0  0  0  0  0  0  0  0
   10.0726   59.0574   -1.9090 N   0  0  0  0  0  0  0  0  0  0  0  0
    8.8671   59.0443   -1.3194 C   0  0  0  0  0  0  0  0  0  0  0  0
    7.9293   60.0375   -1.3562 N   0  0  0  0  0  0  0  0  0  0  0  0
    6.8560   59.6438   -0.6112 C   0  0  0  0  0  0  0  0  0  0  0  0
    5.5433   60.7118   -0.4776 Cl  0  0  0  0  0  0  0  0  0  0  0  0
    7.0684   58.3921   -0.0816 C   0  0  0  0  0  0  0  0  0  0  0  0
    8.3496   58.0170   -0.5535 C   0  0  0  0  0  0  0  0  0  0  0  0
    9.1080   56.8972   -0.3638 C   0  0  0  0  0  0  0  0  0  0  0  0
    8.9170   55.7240    0.2856 N   0  0  0  0  0  0  0  0  0  0  0  0
    8.0136   60.8918   -1.8382 H   0  0  0  0  0  0  0  0  0  0  0  0
    7.7336   55.1809    0.9474 C   0  0  0  0  0  0  0  0  0  0  0  0
    7.5983   55.6000    2.4205 C   0  0  0  0  0  0  0  0  0  0  0  0
    6.1524   55.5550    2.9335 C   0  0  0  0  0  0  0  0  0  0  0  0
    5.3102   54.4445    2.2961 C   0  0  0  0  0  0  0  0  0  0  0  0
    5.2536   54.5836    0.7635 C   0  0  0  0  0  0  0  0  0  0  0  0
    6.4414   55.3266    0.1332 C   0  0  0  0  0  0  0  0  0  0  0  0
    5.8254   53.1149    2.6827 C   0  0  0  0  0  0  0  0  0  0  0  0
    6.2209   52.0803    3.0261 N   0  0  0  0  0  0  0  0  0  0  0  0
   11.0616   52.7287   -0.2235 C   0  0  0  0  0  0  0  0  0  0  0  0
   10.4289   53.6830    0.7762 C   0  0  0  0  0  0  0  0  0  0  0  0
   11.3728   53.9226    1.8238 O   0  0  0  0  0  0  0  0  0  0  0  0
   12.1730   54.3256    1.4521 H   0  0  0  0  0  0  0  0  0  0  0  0
 24 23  1  0
 24 25  1  0
 24  1  1  0
  1  2  2  0
  2  3  1  0
  3  4  2  0
  4  5  1  0
  5  6  2  0
  6  7  1  0
  7  8  1  0
  8  9  1  0
  8 10  2  0
 10 11  1  0
 11 12  2  0
 12 13  1  0
 15 13  1  0
 15 16  1  0
 16 17  1  0
 17 18  1  0
 18 21  1  0
 21 22  3  0
 18 19  1  0
 19 20  1  0
 13  1  1  0
 20 15  1  0
 12  3  1  0
 11  6  1  0
 25 26  1  0
  7 14  1  0
M  END
> <minimizedAffinity>
-8.64130

> <CNNscore>
0.3841863871

> <CNNaffinity>
6.5823044777

> <CNN_VS>
2.5288317204

> <CNNaffinity_variance>
0.1442470551

$$$$



 26 29  0  0  0  0  0  0  0  0999 V2000
   14.7760   62.2190   -4.4992 C   0  0  0  0  0  0  0  0  0  0  0  0
   15.1570   61.2935   -3.6322 N   0  0  0  0  0  0  0  0  0  0  0  0
   16.0268   61.9176   -2.7848 C   0  0  0  0  0  0  0  0  0  0  0  0
   16.7318   61.4297   -1.6693 C   0  0  0  0  0  0  0  0  0  0  0  0
   17.5587   62.2134   -0.9165 N   0  0  0  0  0  0  0  0  0  0  0  0
   17.6355   63.4931   -1.3133 C   0  0  0  0  0  0  0  0  0  0  0  0
   18.3660   64.4877   -0.7263 N   0  0  0  0  0  0  0  0  0  0  0  0
   18.1524   65.6443   -1.4181 C   0  0  0  0  0  0  0  0  0  0  0  0
   18.9376   67.0506   -0.8821 Cl  0  0  0  0  0  0  0  0  0  0  0  0
   17.2886   65.4277   -2.4666 C   0  0  0  0  0  0  0  0  0  0  0  0
   16.9784   64.0480   -2.3951 C   0  0  0  0  0  0  0  0  0  0  0  0
   16.1729   63.2460   -3.1521 C   0  0  0  0  0  0  0  0  0  0  0  0
   15.4210   63.4381   -4.2623 N   0  0  0  0  0  0  0  0  0  0  0  0
   18.9474   64.3869    0.0618 H   0  0  0  0  0  0  0  0  0  0  0  0
   15.2923   64.5992   -5.1389 C   0  0  0  0  0  0  0  0  0  0  0  0
   14.5361   65.7771   -4.5028 C   0  0  0  0  0  0  0  0  0  0  0  0
   14.8933   67.1340   -5.1250 C   0  0  0  0  0  0  0  0  0  0  0  0
   15.2197   67.0556   -6.6204 C   0  0  0  0  0  0  0  0  0  0  0  0
   16.3928   66.0968   -6.8958 C   0  0  0  0  0  0  0  0  0  0  0  0
   16.5966   64.9980   -5.8417 C   0  0  0  0  0  0  0  0  0  0  0  0
   14.0250   66.6572   -7.3928 C   0  0  0  0  0  0  0  0  0  0  0  0
   13.0838   66.3105   -7.9746 N   0  0  0  0  0  0  0  0  0  0  0  0
   14.2237   60.8377   -6.5158 C   0  0  0  0  0  0  0  0  0  0  0  0
   13.7692   61.9498   -5.5847 C   0  0  0  0  0  0  0  0  0  0  0  0
   12.5670   61.5257   -4.9361 O   0  0  0  0  0  0  0  0  0  0  0  0
   12.7434   60.7230   -4.4210 H   0  0  0  0  0  0  0  0  0  0  0  0
 24 23  1  0
 24 25  1  0
 24  1  1  0
  1  2  2  0
  2  3  1  0
  3  4  2  0
  4  5  1  0
  5  6  2  0
  6  7  1  0
  7  8  1  0
  8  9  1  0
  8 10  2  0
 10 11  1  0
 11 12  2  0
 12 13  1  0
 15 13  1  0
 15 16  1  0
 16 17  1  0
 17 18  1  0
 18 21  1  0
 21 22  3  0
 18 19  1  0
 19 20  1  0
 13  1  1  0
 20 15  1  0
 12  3  1  0
 11  6  1  0
 25 26  1  0
  7 14  1  0
M  END
> <minimizedAffinity>
-4.75675

> <CNNscore>
0.2841283679

> <CNNaffinity>
4.6590728760

> <CNN_VS>
1.3237748146

> <CNNaffinity_variance>
0.2095845938

$$$$



 26 29  0  0  0  0  0  0  0  0999 V2000
    9.0834   56.6388    0.1871 C   0  0  0  0  0  0  0  0  0  0  0  0
    8.7716   57.8561   -0.2306 N   0  0  0  0  0  0  0  0  0  0  0  0
    7.4385   58.0036    0.0249 C   0  0  0  0  0  0  0  0  0  0  0  0
    6.5755   59.0919   -0.1989 C   0  0  0  0  0  0  0  0  0  0  0  0
    5.2528   59.0686    0.1400 N   0  0  0  0  0  0  0  0  0  0  0  0
    4.8410   57.9305    0.7198 C   0  0  0  0  0  0  0  0  0  0  0  0
    3.5823   57.6548    1.1746 N   0  0  0  0  0  0  0  0  0  0  0  0
    3.5854   56.4029    1.7175 C   0  0  0  0  0  0  0  0  0  0  0  0
    2.1352   55.8157    2.3761 Cl  0  0  0  0  0  0  0  0  0  0  0  0
    4.8363   55.8384    1.6233 C   0  0  0  0  0  0  0  0  0  0  0  0
    5.6230   56.8193    0.9722 C   0  0  0  0  0  0  0  0  0  0  0  0
    6.9385   56.8492    0.6064 C   0  0  0  0  0  0  0  0  0  0  0  0
    7.9596   55.9618    0.6738 N   0  0  0  0  0  0  0  0  0  0  0  0
    2.8053   58.2569    1.1200 H   0  0  0  0  0  0  0  0  0  0  0  0
    7.9801   54.5593    1.0811 C   0  0  0  0  0  0  0  0  0  0  0  0
    7.8885   54.3526    2.6019 C   0  0  0  0  0  0  0  0  0  0  0  0
    7.3275   52.9789    2.9945 C   0  0  0  0  0  0  0  0  0  0  0  0
    7.7047   51.8606    2.0168 C   0  0  0  0  0  0  0  0  0  0  0  0
    7.2189   52.1680    0.5881 C   0  0  0  0  0  0  0  0  0  0  0  0
    7.0393   53.6599    0.2686 C   0  0  0  0  0  0  0  0  0  0  0  0
    9.1630   51.6246    2.0347 C   0  0  0  0  0  0  0  0  0  0  0  0
   10.3099   51.4554    2.0102 N   0  0  0  0  0  0  0  0  0  0  0  0
   10.5617   54.6701    0.6544 C   0  0  0  0  0  0  0  0  0  0  0  0
   10.4853   56.0948    0.1304 C   0  0  0  0  0  0  0  0  0  0  0  0
   10.8683   56.0849   -1.2476 O   0  0  0  0  0  0  0  0  0  0  0  0
   10.2580   55.5216   -1.7488 H   0  0  0  0  0  0  0  0  0  0  0  0
 24 23  1  0
 24 25  1  0
 24  1  1  0
  1  2  2  0
  2  3  1  0
  3  4  2  0
  4  5  1  0
  5  6  2  0
  6  7  1  0
  7  8  1  0
  8  9  1  0
  8 10  2  0
 10 11  1  0
 11 12  2  0
 12 13  1  0
 15 13  1  0
 15 16  1  0
 16 17  1  0
 17 18  1  0
 18 21  1  0
 21 22  3  0
 18 19  1  0
 19 20  1  0
 13  1  1  0
 20 15  1  0
 12  3  1  0
 11  6  1  0
 25 26  1  0
  7 14  1  0
M  END
> <minimizedAffinity>
-6.59844

> <CNNscore>
0.2323894352

> <CNNaffinity>
6.5250816345

> <CNN_VS>
1.5163600445

> <CNNaffinity_variance>
0.0641580075

$$$$



 26 29  0  0  0  0  0  0  0  0999 V2000
    7.5727   59.0590   -0.5908 C   0  0  0  0  0  0  0  0  0  0  0  0
    8.0434   60.1207   -1.2271 N   0  0  0  0  0  0  0  0  0  0  0  0
    9.1704   59.6957   -1.8701 C   0  0  0  0  0  0  0  0  0  0  0  0
   10.0693   60.3879   -2.7021 C   0  0  0  0  0  0  0  0  0  0  0  0
   11.1510   59.7891   -3.2819 N   0  0  0  0  0  0  0  0  0  0  0  0
   11.2829   58.4816   -3.0098 C   0  0  0  0  0  0  0  0  0  0  0  0
   12.2561   57.6442   -3.4776 N   0  0  0  0  0  0  0  0  0  0  0  0
   12.0193   56.3929   -2.9877 C   0  0  0  0  0  0  0  0  0  0  0  0
   13.0833   55.1475   -3.4334 Cl  0  0  0  0  0  0  0  0  0  0  0  0
   10.8976   56.3900   -2.1914 C   0  0  0  0  0  0  0  0  0  0  0  0
   10.4468   57.7322   -2.2039 C   0  0  0  0  0  0  0  0  0  0  0  0
    9.3823   58.3505   -1.6126 C   0  0  0  0  0  0  0  0  0  0  0  0
    8.4030   57.9467   -0.7684 N   0  0  0  0  0  0  0  0  0  0  0  0
   13.0015   57.9002   -4.0677 H   0  0  0  0  0  0  0  0  0  0  0  0
    8.2012   56.6749   -0.0792 C   0  0  0  0  0  0  0  0  0  0  0  0
    8.3556   56.7644    1.4479 C   0  0  0  0  0  0  0  0  0  0  0  0
    7.5997   55.6603    2.1997 C   0  0  0  0  0  0  0  0  0  0  0  0
    7.5396   54.3313    1.4388 C   0  0  0  0  0  0  0  0  0  0  0  0
    6.8703   54.4955    0.0616 C   0  0  0  0  0  0  0  0  0  0  0  0
    6.9551   55.9069   -0.5391 C   0  0  0  0  0  0  0  0  0  0  0  0
    8.8911   53.7514    1.2985 C   0  0  0  0  0  0  0  0  0  0  0  0
    9.9363   53.2589    1.1996 N   0  0  0  0  0  0  0  0  0  0  0  0
    5.8513   60.5117    0.5075 C   0  0  0  0  0  0  0  0  0  0  0  0
    6.2979   59.0900    0.2081 C   0  0  0  0  0  0  0  0  0  0  0  0
    5.2925   58.4660   -0.5953 O   0  0  0  0  0  0  0  0  0  0  0  0
    5.1921   58.9563   -1.4262 H   0  0  0  0  0  0  0  0  0  0  0  0
 24 23  1  0
 24 25  1  0
 24  1  1  0
  1  2  2  0
  2  3  1  0
  3  4  2  0
  4  5  1  0
  5  6  2  0
  6  7  1  0
  7  8  1  0
  8  9  1  0
  8 10  2  0
 10 11  1  0
 11 12  2  0
 12 13  1  0
 15 13  1  0
 15 16  1  0
 16 17  1  0
 17 18  1  0
 18 21  1  0
 21 22  3  0
 18 19  1  0
 19 20  1  0
 13  1  1  0
 20 15  1  0
 12  3  1  0
 11  6  1  0
 25 26  1  0
  7 14  1  0
M  END
> <minimizedAffinity>
-7.57731

> <CNNscore>
0.1788849831

> <CNNaffinity>
6.1241974831

> <CNN_VS>
1.0955269337

> <CNNaffinity_variance>
0.0168914236

$$$$



 26 29  0  0  0  0  0  0  0  0999 V2000
    5.6443   53.8237    1.4144 C   0  0  0  0  0  0  0  0  0  0  0  0
    4.4412   54.2802    1.7272 N   0  0  0  0  0  0  0  0  0  0  0  0
    4.4875   55.6261    1.5022 C   0  0  0  0  0  0  0  0  0  0  0  0
    3.4997   56.6167    1.6517 C   0  0  0  0  0  0  0  0  0  0  0  0
    3.7213   57.9320    1.3590 N   0  0  0  0  0  0  0  0  0  0  0  0
    4.9525   58.2063    0.9009 C   0  0  0  0  0  0  0  0  0  0  0  0
    5.4265   59.4283    0.5142 N   0  0  0  0  0  0  0  0  0  0  0  0
    6.7144   59.2758    0.0900 C   0  0  0  0  0  0  0  0  0  0  0  0
    7.5395   60.6519   -0.4644 Cl  0  0  0  0  0  0  0  0  0  0  0  0
    7.1057   57.9613    0.1959 C   0  0  0  0  0  0  0  0  0  0  0  0
    5.9758   57.2937    0.7276 C   0  0  0  0  0  0  0  0  0  0  0  0
    5.7460   55.9859    1.0465 C   0  0  0  0  0  0  0  0  0  0  0  0
    6.5006   54.8611    1.0290 N   0  0  0  0  0  0  0  0  0  0  0  0
    4.9241   60.2747    0.5377 H   0  0  0  0  0  0  0  0  0  0  0  0
    7.9220   54.6695    0.7532 C   0  0  0  0  0  0  0  0  0  0  0  0
    8.4094   55.3815   -0.5194 C   0  0  0  0  0  0  0  0  0  0  0  0
    9.9134   55.6878   -0.5047 C   0  0  0  0  0  0  0  0  0  0  0  0
   10.7453   54.6385    0.2408 C   0  0  0  0  0  0  0  0  0  0  0  0
   10.2892   54.4873    1.7039 C   0  0  0  0  0  0  0  0  0  0  0  0
    8.8280   54.8774    1.9738 C   0  0  0  0  0  0  0  0  0  0  0  0
   10.6930   53.3395   -0.4610 C   0  0  0  0  0  0  0  0  0  0  0  0
   10.6918   52.3133   -1.0010 N   0  0  0  0  0  0  0  0  0  0  0  0
    6.2138   51.8919    2.9056 C   0  0  0  0  0  0  0  0  0  0  0  0
    6.0000   52.3628    1.4763 C   0  0  0  0  0  0  0  0  0  0  0  0
    4.8899   51.6446    0.9309 O   0  0  0  0  0  0  0  0  0  0  0  0
    4.0955   51.8298    1.4558 H   0  0  0  0  0  0  0  0  0  0  0  0
 24 23  1  0
 24 25  1  0
 24  1  1  0
  1  2  2  0
  2  3  1  0
  3  4  2  0
  4  5  1  0
  5  6  2  0
  6  7  1  0
  7  8  1  0
  8  9  1  0
  8 10  2  0
 10 11  1  0
 11 12  2  0
 12 13  1  0
 15 13  1  0
 15 16  1  0
 16 17  1  0
 17 18  1  0
 18 21  1  0
 21 22  3  0
 18 19  1  0
 19 20  1  0
 13  1  1  0
 20 15  1  0
 12  3  1  0
 11  6  1  0
 25 26  1  0
  7 14  1  0
M  END
> <minimizedAffinity>
-6.56240

> <CNNscore>
0.1478958875

> <CNNaffinity>
6.0774002075

> <CNN_VS>
0.8988224864

> <CNNaffinity_variance>
0.1559187323

$$$$
