


 47 51  0  0  0  0  0  0  0  0999 V2000
   -8.4091   44.4132    1.3503 C   0  0  0  0  0  0  0  0  0  0  0  0
   -9.1172   43.4886    0.5587 C   0  0  0  0  0  0  0  0  0  0  0  0
   -8.5362   42.2707    0.2049 C   0  0  0  0  0  0  0  0  0  0  0  0
   -9.4997   41.0548   -0.8756 Br  0  0  0  0  0  0  0  0  0  0  0  0
   -7.2531   41.9412    0.6325 C   0  0  0  0  0  0  0  0  0  0  0  0
   -6.5387   42.8445    1.4203 C   0  0  0  0  0  0  0  0  0  0  0  0
   -7.1094   44.0777    1.7770 C   0  0  0  0  0  0  0  0  0  0  0  0
   -6.3138   44.9962    2.6354 C   0  0  0  0  0  0  0  0  0  0  0  0
   -6.7270   46.1169    2.8999 O   0  0  0  0  0  0  0  0  0  0  0  0
   -5.1334   44.4740    3.1014 N   0  0  0  0  0  0  0  0  0  0  0  0
   -4.9106   43.5388    2.8893 H   0  0  0  0  0  0  0  0  0  0  0  0
   -4.2003   45.2552    3.8981 C   0  0  0  0  0  0  0  0  0  0  0  0
   -2.7907   44.9582    3.3897 C   0  0  0  0  0  0  0  0  0  0  0  0
   -1.7145   44.7846    4.2742 C   0  0  0  0  0  0  0  0  0  0  0  0
   -0.4342   44.5156    3.7859 C   0  0  0  0  0  0  0  0  0  0  0  0
   -0.2010   44.4154    2.4125 C   0  0  0  0  0  0  0  0  0  0  0  0
   -1.2682   44.5605    1.5264 C   0  0  0  0  0  0  0  0  0  0  0  0
   -2.5537   44.8241    2.0109 C   0  0  0  0  0  0  0  0  0  0  0  0
    1.0984   44.1631    2.0711 O   0  0  0  0  0  0  0  0  0  0  0  0
    1.9216   43.5854    3.0775 C   0  0  0  0  0  0  0  0  0  0  0  0
   -4.3607   45.0542    5.4116 C   0  0  0  0  0  0  0  0  0  0  0  0
   -4.4368   46.1742    6.2627 C   0  0  0  0  0  0  0  0  0  0  0  0
   -4.6302   46.0362    7.6446 C   0  0  0  0  0  0  0  0  0  0  0  0
   -4.7785   44.7712    8.2056 C   0  0  0  0  0  0  0  0  0  0  0  0
   -4.7157   43.6542    7.3768 C   0  0  0  0  0  0  0  0  0  0  0  0
   -4.5108   43.7904    5.9984 C   0  0  0  0  0  0  0  0  0  0  0  0
   -4.9983   44.4929    9.5265 O   0  0  0  0  0  0  0  0  0  0  0  0
   -4.7516   43.1591    9.9480 C   0  0  0  0  0  0  0  0  0  0  0  0
   -9.0477   45.7482    1.6852 C   0  0  0  0  0  0  0  0  0  0  0  0
  -10.1828   46.0715    0.8068 N   0  0  0  0  0  0  0  0  0  0  0  0
   -9.7434   46.5187   -0.5176 C   0  0  0  0  0  0  0  0  0  0  0  0
  -11.0643   48.5856   -1.0442 C   0  0  0  0  0  0  0  0  0  0  0  0
   -9.9090   47.9987   -0.7097 C   0  0  0  0  0  0  0  0  0  0  0  0
  -11.2277   45.0283    0.7965 C   0  0  0  0  0  0  0  0  0  0  0  0
  -12.2020   45.0266   -0.3734 C   0  0  0  0  0  0  0  0  0  0  0  0
  -11.8004   44.4038   -1.5872 C   0  0  0  0  0  0  0  0  0  0  0  0
  -12.6206   44.3981   -2.7173 C   0  0  0  0  0  0  0  0  0  0  0  0
  -13.8523   45.0042   -2.6152 C   0  0  0  0  0  0  0  0  0  0  0  0
  -14.2861   45.5920   -1.4499 C   0  0  0  0  0  0  0  0  0  0  0  0
  -13.4885   45.6105   -0.3141 C   0  0  0  0  0  0  0  0  0  0  0  0
  -15.5451   46.0922   -1.5825 O   0  0  0  0  0  0  0  0  0  0  0  0
  -15.8313   45.7955   -2.9625 C   0  0  0  0  0  0  0  0  0  0  0  0
  -14.7650   45.0833   -3.6184 O   0  0  0  0  0  0  0  0  0  0  0  0
  -14.0418   46.1515    0.9357 C   0  0  0  0  0  0  0  0  0  0  0  0
  -14.7978   45.5698    1.6926 O   0  0  0  0  0  0  0  0  0  0  0  0
  -13.5601   47.3778    1.2015 O   0  0  0  0  0  0  0  0  0  0  0  0
  -12.9801   47.7949    0.5953 H   0  0  0  0  0  0  0  0  0  0  0  0
 32 33  2  0
 33 31  1  0
 31 30  1  0
 30 29  1  0
 29  1  1  0
  1  2  2  0
  2  3  1  0
  3  4  1  0
  3  5  2  0
  5  6  1  0
  6  7  2  0
  7  8  1  0
  8  9  2  0
  8 10  1  0
 10 12  1  0
 12 13  1  0
 13 14  2  0
 14 15  1  0
 15 16  2  0
 16 19  1  0
 19 20  1  0
 16 17  1  0
 17 18  2  0
 12 21  1  0
 21 22  2  0
 22 23  1  0
 23 24  2  0
 24 27  1  0
 27 28  1  0
 24 25  1  0
 25 26  2  0
 30 34  1  0
 34 35  1  0
 35 36  2  0
 36 37  1  0
 37 38  2  0
 38 39  1  0
 39 40  2  0
 40 44  1  0
 44 45  2  0
 44 46  1  0
 39 41  1  0
 41 42  1  0
 42 43  1  0
  7  1  1  0
 18 13  1  0
 26 21  1  0
 40 35  1  0
 43 38  1  0
 10 11  1  0
 46 47  1  0
M  END
> <minimizedAffinity>
-8.87953

> <CNNscore>
0.8915551305

> <CNNaffinity>
6.7356381416

> <CNN_VS>
6.0051927567

> <CNNaffinity_variance>
0.6177927852

$$$$



 47 51  0  0  0  0  0  0  0  0999 V2000
   -9.9741   44.3423    0.9231 C   0  0  0  0  0  0  0  0  0  0  0  0
  -10.7642   43.4728    0.1468 C   0  0  0  0  0  0  0  0  0  0  0  0
  -10.1669   42.5843   -0.7475 C   0  0  0  0  0  0  0  0  0  0  0  0
  -11.2505   41.4412   -1.7931 Br  0  0  0  0  0  0  0  0  0  0  0  0
   -8.7826   42.5324   -0.8844 C   0  0  0  0  0  0  0  0  0  0  0  0
   -7.9846   43.3848   -0.1205 C   0  0  0  0  0  0  0  0  0  0  0  0
   -8.5740   44.2896    0.7780 C   0  0  0  0  0  0  0  0  0  0  0  0
   -7.6777   45.1620    1.5838 C   0  0  0  0  0  0  0  0  0  0  0  0
   -6.5569   45.4440    1.1830 O   0  0  0  0  0  0  0  0  0  0  0  0
   -8.2200   45.6193    2.7585 N   0  0  0  0  0  0  0  0  0  0  0  0
   -9.1542   45.3926    2.9710 H   0  0  0  0  0  0  0  0  0  0  0  0
   -7.4616   46.4277    3.7002 C   0  0  0  0  0  0  0  0  0  0  0  0
   -6.6639   47.4538    2.8973 C   0  0  0  0  0  0  0  0  0  0  0  0
   -5.2608   47.4256    2.8617 C   0  0  0  0  0  0  0  0  0  0  0  0
   -4.5530   48.3752    2.1220 C   0  0  0  0  0  0  0  0  0  0  0  0
   -5.2257   49.3684    1.4068 C   0  0  0  0  0  0  0  0  0  0  0  0
   -6.6202   49.3895    1.4146 C   0  0  0  0  0  0  0  0  0  0  0  0
   -7.3340   48.4368    2.1490 C   0  0  0  0  0  0  0  0  0  0  0  0
   -4.4125   50.2406    0.7385 O   0  0  0  0  0  0  0  0  0  0  0  0
   -3.2552   50.6923    1.4318 C   0  0  0  0  0  0  0  0  0  0  0  0
   -6.6008   45.6042    4.6686 C   0  0  0  0  0  0  0  0  0  0  0  0
   -6.3433   46.0919    5.9648 C   0  0  0  0  0  0  0  0  0  0  0  0
   -5.6018   45.3507    6.8958 C   0  0  0  0  0  0  0  0  0  0  0  0
   -5.1211   44.0887    6.5593 C   0  0  0  0  0  0  0  0  0  0  0  0
   -5.3754   43.5878    5.2853 C   0  0  0  0  0  0  0  0  0  0  0  0
   -6.1057   44.3321    4.3509 C   0  0  0  0  0  0  0  0  0  0  0  0
   -4.4106   43.2503    7.3733 O   0  0  0  0  0  0  0  0  0  0  0  0
   -4.4218   43.5473    8.7623 C   0  0  0  0  0  0  0  0  0  0  0  0
  -10.6510   45.3283    1.8568 C   0  0  0  0  0  0  0  0  0  0  0  0
  -11.2629   46.4595    1.1421 N   0  0  0  0  0  0  0  0  0  0  0  0
  -10.9303   47.7455    1.7607 C   0  0  0  0  0  0  0  0  0  0  0  0
  -10.5521   48.6606    4.0658 C   0  0  0  0  0  0  0  0  0  0  0  0
  -11.0314   47.7071    3.2584 C   0  0  0  0  0  0  0  0  0  0  0  0
  -11.0637   46.4020   -0.3198 C   0  0  0  0  0  0  0  0  0  0  0  0
  -12.2064   45.8475   -1.1594 C   0  0  0  0  0  0  0  0  0  0  0  0
  -11.8906   45.1819   -2.3760 C   0  0  0  0  0  0  0  0  0  0  0  0
  -12.8845   44.6838   -3.2210 C   0  0  0  0  0  0  0  0  0  0  0  0
  -14.1943   44.8413   -2.8283 C   0  0  0  0  0  0  0  0  0  0  0  0
  -14.5368   45.4545   -1.6458 C   0  0  0  0  0  0  0  0  0  0  0  0
  -13.5667   45.9577   -0.7900 C   0  0  0  0  0  0  0  0  0  0  0  0
  -15.8852   45.4608   -1.4597 O   0  0  0  0  0  0  0  0  0  0  0  0
  -16.3479   44.8297   -2.6688 C   0  0  0  0  0  0  0  0  0  0  0  0
  -15.2738   44.4137   -3.5337 O   0  0  0  0  0  0  0  0  0  0  0  0
  -13.9791   46.5030    0.5113 C   0  0  0  0  0  0  0  0  0  0  0  0
  -14.2538   45.8525    1.5035 O   0  0  0  0  0  0  0  0  0  0  0  0
  -13.9603   47.8469    0.5145 O   0  0  0  0  0  0  0  0  0  0  0  0
  -13.7443   48.3143   -0.2683 H   0  0  0  0  0  0  0  0  0  0  0  0
 32 33  2  0
 33 31  1  0
 31 30  1  0
 30 29  1  0
 29  1  1  0
  1  2  2  0
  2  3  1  0
  3  4  1  0
  3  5  2  0
  5  6  1  0
  6  7  2  0
  7  8  1  0
  8  9  2  0
  8 10  1  0
 10 12  1  0
 12 13  1  0
 13 14  2  0
 14 15  1  0
 15 16  2  0
 16 19  1  0
 19 20  1  0
 16 17  1  0
 17 18  2  0
 12 21  1  0
 21 22  2  0
 22 23  1  0
 23 24  2  0
 24 27  1  0
 27 28  1  0
 24 25  1  0
 25 26  2  0
 30 34  1  0
 34 35  1  0
 35 36  2  0
 36 37  1  0
 37 38  2  0
 38 39  1  0
 39 40  2  0
 40 44  1  0
 44 45  2  0
 44 46  1  0
 39 41  1  0
 41 42  1  0
 42 43  1  0
  7  1  1  0
 18 13  1  0
 26 21  1  0
 40 35  1  0
 43 38  1  0
 10 11  1  0
 46 47  1  0
M  END
> <minimizedAffinity>
-7.36396

> <CNNscore>
0.8829520345

> <CNNaffinity>
6.9022135735

> <CNN_VS>
6.0943236351

> <CNNaffinity_variance>
0.5088133216

$$$$



 47 51  0  0  0  0  0  0  0  0999 V2000
   -8.8000   44.3824    1.0763 C   0  0  0  0  0  0  0  0  0  0  0  0
   -9.5114   43.5392    0.2012 C   0  0  0  0  0  0  0  0  0  0  0  0
   -8.9691   42.3182   -0.2000 C   0  0  0  0  0  0  0  0  0  0  0  0
   -9.9352   41.2131   -1.3916 Br  0  0  0  0  0  0  0  0  0  0  0  0
   -7.7224   41.9051    0.2612 C   0  0  0  0  0  0  0  0  0  0  0  0
   -7.0053   42.7270    1.1314 C   0  0  0  0  0  0  0  0  0  0  0  0
   -7.5368   43.9625    1.5370 C   0  0  0  0  0  0  0  0  0  0  0  0
   -6.7413   44.7917    2.4820 C   0  0  0  0  0  0  0  0  0  0  0  0
   -7.2926   45.5892    3.2280 O   0  0  0  0  0  0  0  0  0  0  0  0
   -5.3884   44.5639    2.4524 N   0  0  0  0  0  0  0  0  0  0  0  0
   -5.0380   43.8566    1.8640 H   0  0  0  0  0  0  0  0  0  0  0  0
   -4.4544   45.3320    3.2608 C   0  0  0  0  0  0  0  0  0  0  0  0
   -3.2288   45.6313    2.3993 C   0  0  0  0  0  0  0  0  0  0  0  0
   -2.9272   46.9378    1.9835 C   0  0  0  0  0  0  0  0  0  0  0  0
   -1.8021   47.1869    1.1948 C   0  0  0  0  0  0  0  0  0  0  0  0
   -0.9590   46.1439    0.8053 C   0  0  0  0  0  0  0  0  0  0  0  0
   -1.2352   44.8460    1.2346 C   0  0  0  0  0  0  0  0  0  0  0  0
   -2.3576   44.5922    2.0299 C   0  0  0  0  0  0  0  0  0  0  0  0
    0.0963   46.5244    0.0242 O   0  0  0  0  0  0  0  0  0  0  0  0
   -0.0012   46.2342   -1.3652 C   0  0  0  0  0  0  0  0  0  0  0  0
   -4.1126   44.6727    4.6044 C   0  0  0  0  0  0  0  0  0  0  0  0
   -2.9216   45.0196    5.2718 C   0  0  0  0  0  0  0  0  0  0  0  0
   -2.5942   44.4766    6.5225 C   0  0  0  0  0  0  0  0  0  0  0  0
   -3.4662   43.5909    7.1486 C   0  0  0  0  0  0  0  0  0  0  0  0
   -4.6525   43.2453    6.5068 C   0  0  0  0  0  0  0  0  0  0  0  0
   -4.9747   43.7779    5.2526 C   0  0  0  0  0  0  0  0  0  0  0  0
   -3.2870   43.0095    8.3735 O   0  0  0  0  0  0  0  0  0  0  0  0
   -3.7941   41.6927    8.5359 C   0  0  0  0  0  0  0  0  0  0  0  0
   -9.3938   45.7239    1.4632 C   0  0  0  0  0  0  0  0  0  0  0  0
  -10.5622   46.0853    0.6454 N   0  0  0  0  0  0  0  0  0  0  0  0
  -10.1748   46.5860   -0.6761 C   0  0  0  0  0  0  0  0  0  0  0  0
   -9.3136   48.8228   -1.4170 C   0  0  0  0  0  0  0  0  0  0  0  0
  -10.2148   48.0848   -0.7583 C   0  0  0  0  0  0  0  0  0  0  0  0
  -11.6103   45.0455    0.6343 C   0  0  0  0  0  0  0  0  0  0  0  0
  -12.5507   45.0138   -0.5626 C   0  0  0  0  0  0  0  0  0  0  0  0
  -12.1244   44.3395   -1.7400 C   0  0  0  0  0  0  0  0  0  0  0  0
  -12.9119   44.3030   -2.8925 C   0  0  0  0  0  0  0  0  0  0  0  0
  -14.1362   44.9308   -2.8493 C   0  0  0  0  0  0  0  0  0  0  0  0
  -14.5938   45.5687   -1.7201 C   0  0  0  0  0  0  0  0  0  0  0  0
  -13.8288   45.6184   -0.5629 C   0  0  0  0  0  0  0  0  0  0  0  0
  -15.8404   46.0820   -1.9080 O   0  0  0  0  0  0  0  0  0  0  0  0
  -16.0917   45.7375   -3.2837 C   0  0  0  0  0  0  0  0  0  0  0  0
  -15.0184   44.9852   -3.8810 O   0  0  0  0  0  0  0  0  0  0  0  0
  -14.4091   46.2147    0.6490 C   0  0  0  0  0  0  0  0  0  0  0  0
  -14.7644   45.6082    1.6433 O   0  0  0  0  0  0  0  0  0  0  0  0
  -14.4508   47.5558    0.5709 O   0  0  0  0  0  0  0  0  0  0  0  0
  -14.1691   47.9886   -0.2109 H   0  0  0  0  0  0  0  0  0  0  0  0
 32 33  2  0
 33 31  1  0
 31 30  1  0
 30 29  1  0
 29  1  1  0
  1  2  2  0
  2  3  1  0
  3  4  1  0
  3  5  2  0
  5  6  1  0
  6  7  2  0
  7  8  1  0
  8  9  2  0
  8 10  1  0
 10 12  1  0
 12 13  1  0
 13 14  2  0
 14 15  1  0
 15 16  2  0
 16 19  1  0
 19 20  1  0
 16 17  1  0
 17 18  2  0
 12 21  1  0
 21 22  2  0
 22 23  1  0
 23 24  2  0
 24 27  1  0
 27 28  1  0
 24 25  1  0
 25 26  2  0
 30 34  1  0
 34 35  1  0
 35 36  2  0
 36 37  1  0
 37 38  2  0
 38 39  1  0
 39 40  2  0
 40 44  1  0
 44 45  2  0
 44 46  1  0
 39 41  1  0
 41 42  1  0
 42 43  1  0
  7  1  1  0
 18 13  1  0
 26 21  1  0
 40 35  1  0
 43 38  1  0
 10 11  1  0
 46 47  1  0
M  END
> <minimizedAffinity>
-8.89634

> <CNNscore>
0.8759472966

> <CNNaffinity>
6.7797942162

> <CNN_VS>
5.9387426376

> <CNNaffinity_variance>
0.7900418639

$$$$



 47 51  0  0  0  0  0  0  0  0999 V2000
   -8.7783   44.7795    0.5697 C   0  0  0  0  0  0  0  0  0  0  0  0
   -9.3846   43.8530   -0.3002 C   0  0  0  0  0  0  0  0  0  0  0  0
   -8.9695   42.5212   -0.3146 C   0  0  0  0  0  0  0  0  0  0  0  0
   -9.7854   41.3010   -1.5062 Br  0  0  0  0  0  0  0  0  0  0  0  0
   -7.9577   42.0799    0.5334 C   0  0  0  0  0  0  0  0  0  0  0  0
   -7.3483   42.9842    1.4041 C   0  0  0  0  0  0  0  0  0  0  0  0
   -7.7517   44.3297    1.4229 C   0  0  0  0  0  0  0  0  0  0  0  0
   -7.0844   45.2484    2.3843 C   0  0  0  0  0  0  0  0  0  0  0  0
   -6.3710   46.1582    1.9847 O   0  0  0  0  0  0  0  0  0  0  0  0
   -7.3579   44.9995    3.7058 N   0  0  0  0  0  0  0  0  0  0  0  0
   -7.9950   44.2841    3.9331 H   0  0  0  0  0  0  0  0  0  0  0  0
   -6.7385   45.7567    4.7823 C   0  0  0  0  0  0  0  0  0  0  0  0
   -7.3944   47.1359    4.8196 C   0  0  0  0  0  0  0  0  0  0  0  0
   -7.1685   48.0820    3.8073 C   0  0  0  0  0  0  0  0  0  0  0  0
   -7.7777   49.3371    3.8638 C   0  0  0  0  0  0  0  0  0  0  0  0
   -8.6199   49.6741    4.9257 C   0  0  0  0  0  0  0  0  0  0  0  0
   -8.8715   48.7322    5.9230 C   0  0  0  0  0  0  0  0  0  0  0  0
   -8.2685   47.4713    5.8678 C   0  0  0  0  0  0  0  0  0  0  0  0
   -9.1383   50.9375    4.8643 O   0  0  0  0  0  0  0  0  0  0  0  0
   -8.7125   51.7495    3.7764 C   0  0  0  0  0  0  0  0  0  0  0  0
   -5.2065   45.8089    4.6992 C   0  0  0  0  0  0  0  0  0  0  0  0
   -4.5033   44.7642    4.0681 C   0  0  0  0  0  0  0  0  0  0  0  0
   -3.1084   44.7951    3.9291 C   0  0  0  0  0  0  0  0  0  0  0  0
   -2.3845   45.8879    4.3969 C   0  0  0  0  0  0  0  0  0  0  0  0
   -3.0655   46.9336    5.0145 C   0  0  0  0  0  0  0  0  0  0  0  0
   -4.4572   46.8982    5.1642 C   0  0  0  0  0  0  0  0  0  0  0  0
   -1.0311   46.0610    4.3044 O   0  0  0  0  0  0  0  0  0  0  0  0
   -0.4598   45.9493    3.0088 C   0  0  0  0  0  0  0  0  0  0  0  0
   -9.2193   46.2309    0.5351 C   0  0  0  0  0  0  0  0  0  0  0  0
  -10.6084   46.4136    0.9842 N   0  0  0  0  0  0  0  0  0  0  0  0
  -10.6805   46.9095    2.3612 C   0  0  0  0  0  0  0  0  0  0  0  0
  -11.6986   48.9200    3.4637 C   0  0  0  0  0  0  0  0  0  0  0  0
  -11.0561   48.3617    2.4311 C   0  0  0  0  0  0  0  0  0  0  0  0
  -11.4431   47.1489    0.0133 C   0  0  0  0  0  0  0  0  0  0  0  0
  -12.4285   46.3375   -0.8167 C   0  0  0  0  0  0  0  0  0  0  0  0
  -11.9607   45.7213   -2.0101 C   0  0  0  0  0  0  0  0  0  0  0  0
  -12.8128   44.9968   -2.8462 C   0  0  0  0  0  0  0  0  0  0  0  0
  -14.1309   44.8794   -2.4675 C   0  0  0  0  0  0  0  0  0  0  0  0
  -14.6130   45.4377   -1.3067 C   0  0  0  0  0  0  0  0  0  0  0  0
  -13.7854   46.1623   -0.4601 C   0  0  0  0  0  0  0  0  0  0  0  0
  -15.9335   45.1585   -1.1301 O   0  0  0  0  0  0  0  0  0  0  0  0
  -16.2334   44.4084   -2.3224 C   0  0  0  0  0  0  0  0  0  0  0  0
  -15.0836   44.2092   -3.1668 O   0  0  0  0  0  0  0  0  0  0  0  0
  -14.3228   46.6428    0.8210 C   0  0  0  0  0  0  0  0  0  0  0  0
  -14.3612   47.8029    1.1891 O   0  0  0  0  0  0  0  0  0  0  0  0
  -14.8459   45.6398    1.5469 O   0  0  0  0  0  0  0  0  0  0  0  0
  -14.7978   44.7588    1.2317 H   0  0  0  0  0  0  0  0  0  0  0  0
 32 33  2  0
 33 31  1  0
 31 30  1  0
 30 29  1  0
 29  1  1  0
  1  2  2  0
  2  3  1  0
  3  4  1  0
  3  5  2  0
  5  6  1  0
  6  7  2  0
  7  8  1  0
  8  9  2  0
  8 10  1  0
 10 12  1  0
 12 13  1  0
 13 14  2  0
 14 15  1  0
 15 16  2  0
 16 19  1  0
 19 20  1  0
 16 17  1  0
 17 18  2  0
 12 21  1  0
 21 22  2  0
 22 23  1  0
 23 24  2  0
 24 27  1  0
 27 28  1  0
 24 25  1  0
 25 26  2  0
 30 34  1  0
 34 35  1  0
 35 36  2  0
 36 37  1  0
 37 38  2  0
 38 39  1  0
 39 40  2  0
 40 44  1  0
 44 45  2  0
 44 46  1  0
 39 41  1  0
 41 42  1  0
 42 43  1  0
  7  1  1  0
 18 13  1  0
 26 21  1  0
 40 35  1  0
 43 38  1  0
 10 11  1  0
 46 47  1  0
M  END
> <minimizedAffinity>
-7.44652

> <CNNscore>
0.8586745858

> <CNNaffinity>
7.0984978676

> <CNN_VS>
6.0952997208

> <CNNaffinity_variance>
0.2247997969

$$$$



 47 51  0  0  0  0  0  0  0  0999 V2000
   -9.7202   44.8023    0.6789 C   0  0  0  0  0  0  0  0  0  0  0  0
  -10.1626   43.5706    0.1594 C   0  0  0  0  0  0  0  0  0  0  0  0
   -9.4997   42.9784   -0.9158 C   0  0  0  0  0  0  0  0  0  0  0  0
  -10.1254   41.3342   -1.6083 Br  0  0  0  0  0  0  0  0  0  0  0  0
   -8.3863   43.5856   -1.4897 C   0  0  0  0  0  0  0  0  0  0  0  0
   -7.9327   44.8049   -0.9851 C   0  0  0  0  0  0  0  0  0  0  0  0
   -8.5960   45.4155    0.0923 C   0  0  0  0  0  0  0  0  0  0  0  0
   -8.0597   46.7047    0.6059 C   0  0  0  0  0  0  0  0  0  0  0  0
   -7.6161   46.7868    1.7430 O   0  0  0  0  0  0  0  0  0  0  0  0
   -8.0879   47.7412   -0.2930 N   0  0  0  0  0  0  0  0  0  0  0  0
   -8.4047   47.5679   -1.2089 H   0  0  0  0  0  0  0  0  0  0  0  0
   -7.6656   49.0873    0.0613 C   0  0  0  0  0  0  0  0  0  0  0  0
   -8.6409   50.0680   -0.5875 C   0  0  0  0  0  0  0  0  0  0  0  0
   -9.3434   49.7366   -1.7568 C   0  0  0  0  0  0  0  0  0  0  0  0
  -10.2284   50.6502   -2.3329 C   0  0  0  0  0  0  0  0  0  0  0  0
  -10.4299   51.9073   -1.7587 C   0  0  0  0  0  0  0  0  0  0  0  0
   -9.7564   52.2366   -0.5826 C   0  0  0  0  0  0  0  0  0  0  0  0
   -8.8734   51.3225    0.0017 C   0  0  0  0  0  0  0  0  0  0  0  0
  -11.3108   52.7075   -2.4313 O   0  0  0  0  0  0  0  0  0  0  0  0
  -12.2597   53.4155   -1.6424 C   0  0  0  0  0  0  0  0  0  0  0  0
   -6.1944   49.3797   -0.2656 C   0  0  0  0  0  0  0  0  0  0  0  0
   -5.5233   50.4243    0.3998 C   0  0  0  0  0  0  0  0  0  0  0  0
   -4.1676   50.6946    0.1655 C   0  0  0  0  0  0  0  0  0  0  0  0
   -3.4425   49.9070   -0.7238 C   0  0  0  0  0  0  0  0  0  0  0  0
   -4.0885   48.8642   -1.3825 C   0  0  0  0  0  0  0  0  0  0  0  0
   -5.4452   48.6008   -1.1579 C   0  0  0  0  0  0  0  0  0  0  0  0
   -2.1153   50.0405   -1.0257 O   0  0  0  0  0  0  0  0  0  0  0  0
   -1.3032   50.6937   -0.0607 C   0  0  0  0  0  0  0  0  0  0  0  0
  -10.4847   45.4454    1.8210 C   0  0  0  0  0  0  0  0  0  0  0  0
  -11.5086   46.3942    1.3563 N   0  0  0  0  0  0  0  0  0  0  0  0
  -11.5995   47.5729    2.2220 C   0  0  0  0  0  0  0  0  0  0  0  0
  -12.0247   49.9667    1.6031 C   0  0  0  0  0  0  0  0  0  0  0  0
  -11.2974   48.8490    1.4906 C   0  0  0  0  0  0  0  0  0  0  0  0
  -11.4187   46.6880   -0.0879 C   0  0  0  0  0  0  0  0  0  0  0  0
  -12.4563   46.0449   -0.9978 C   0  0  0  0  0  0  0  0  0  0  0  0
  -12.0053   45.3592   -2.1593 C   0  0  0  0  0  0  0  0  0  0  0  0
  -12.8973   44.7804   -3.0643 C   0  0  0  0  0  0  0  0  0  0  0  0
  -14.2419   44.8779   -2.7865 C   0  0  0  0  0  0  0  0  0  0  0  0
  -14.7140   45.5088   -1.6592 C   0  0  0  0  0  0  0  0  0  0  0  0
  -13.8468   46.0917   -0.7455 C   0  0  0  0  0  0  0  0  0  0  0  0
  -16.0717   45.4467   -1.5848 O   0  0  0  0  0  0  0  0  0  0  0  0
  -16.3977   44.7528   -2.8040 C   0  0  0  0  0  0  0  0  0  0  0  0
  -15.2346   44.3692   -3.5620 O   0  0  0  0  0  0  0  0  0  0  0  0
  -14.3949   46.6548    0.4969 C   0  0  0  0  0  0  0  0  0  0  0  0
  -14.6797   47.8235    0.6864 O   0  0  0  0  0  0  0  0  0  0  0  0
  -14.6184   45.7013    1.4174 O   0  0  0  0  0  0  0  0  0  0  0  0
  -14.3861   44.8117    1.2364 H   0  0  0  0  0  0  0  0  0  0  0  0
 32 33  2  0
 33 31  1  0
 31 30  1  0
 30 29  1  0
 29  1  1  0
  1  2  2  0
  2  3  1  0
  3  4  1  0
  3  5  2  0
  5  6  1  0
  6  7  2  0
  7  8  1  0
  8  9  2  0
  8 10  1  0
 10 12  1  0
 12 13  1  0
 13 14  2  0
 14 15  1  0
 15 16  2  0
 16 19  1  0
 19 20  1  0
 16 17  1  0
 17 18  2  0
 12 21  1  0
 21 22  2  0
 22 23  1  0
 23 24  2  0
 24 27  1  0
 27 28  1  0
 24 25  1  0
 25 26  2  0
 30 34  1  0
 34 35  1  0
 35 36  2  0
 36 37  1  0
 37 38  2  0
 38 39  1  0
 39 40  2  0
 40 44  1  0
 44 45  2  0
 44 46  1  0
 39 41  1  0
 41 42  1  0
 42 43  1  0
  7  1  1  0
 18 13  1  0
 26 21  1  0
 40 35  1  0
 43 38  1  0
 10 11  1  0
 46 47  1  0
M  END
> <minimizedAffinity>
-7.28963

> <CNNscore>
0.8233353496

> <CNNaffinity>
6.5162453651

> <CNN_VS>
5.3650550842

> <CNNaffinity_variance>
0.4176175892

$$$$



 47 51  0  0  0  0  0  0  0  0999 V2000
   -9.4783   44.3436    1.1037 C   0  0  0  0  0  0  0  0  0  0  0  0
  -10.2178   43.5825    0.1781 C   0  0  0  0  0  0  0  0  0  0  0  0
   -9.6639   42.4400   -0.3998 C   0  0  0  0  0  0  0  0  0  0  0  0
  -10.6696   41.4465   -1.6551 Br  0  0  0  0  0  0  0  0  0  0  0  0
   -8.3772   42.0249   -0.0684 C   0  0  0  0  0  0  0  0  0  0  0  0
   -7.6318   42.7657    0.8495 C   0  0  0  0  0  0  0  0  0  0  0  0
   -8.1751   43.9225    1.4327 C   0  0  0  0  0  0  0  0  0  0  0  0
   -7.3467   44.6648    2.4209 C   0  0  0  0  0  0  0  0  0  0  0  0
   -7.2135   44.2461    3.5626 O   0  0  0  0  0  0  0  0  0  0  0  0
   -6.7523   45.8031    1.9371 N   0  0  0  0  0  0  0  0  0  0  0  0
   -6.8637   46.0303    0.9857 H   0  0  0  0  0  0  0  0  0  0  0  0
   -5.9631   46.6855    2.7823 C   0  0  0  0  0  0  0  0  0  0  0  0
   -4.4900   46.3423    2.5678 C   0  0  0  0  0  0  0  0  0  0  0  0
   -3.5078   47.3427    2.4963 C   0  0  0  0  0  0  0  0  0  0  0  0
   -2.1676   47.0049    2.2977 C   0  0  0  0  0  0  0  0  0  0  0  0
   -1.7805   45.6694    2.1662 C   0  0  0  0  0  0  0  0  0  0  0  0
   -2.7449   44.6665    2.2617 C   0  0  0  0  0  0  0  0  0  0  0  0
   -4.0880   44.9994    2.4666 C   0  0  0  0  0  0  0  0  0  0  0  0
   -0.4421   45.4805    1.9624 O   0  0  0  0  0  0  0  0  0  0  0  0
    0.4127   46.5701    2.2884 C   0  0  0  0  0  0  0  0  0  0  0  0
   -6.3872   46.6704    4.2578 C   0  0  0  0  0  0  0  0  0  0  0  0
   -5.5317   46.1102    5.2266 C   0  0  0  0  0  0  0  0  0  0  0  0
   -5.8593   46.1180    6.5899 C   0  0  0  0  0  0  0  0  0  0  0  0
   -7.0423   46.7116    7.0200 C   0  0  0  0  0  0  0  0  0  0  0  0
   -7.8944   47.2787    6.0761 C   0  0  0  0  0  0  0  0  0  0  0  0
   -7.5737   47.2610    4.7132 C   0  0  0  0  0  0  0  0  0  0  0  0
   -7.4719   46.8140    8.3144 O   0  0  0  0  0  0  0  0  0  0  0  0
   -6.7804   46.0354    9.2804 C   0  0  0  0  0  0  0  0  0  0  0  0
  -10.0884   45.6054    1.6851 C   0  0  0  0  0  0  0  0  0  0  0  0
  -10.0462   46.7402    0.7496 N   0  0  0  0  0  0  0  0  0  0  0  0
   -9.1768   46.4737   -0.3994 C   0  0  0  0  0  0  0  0  0  0  0  0
   -8.6068   48.7968   -1.1558 C   0  0  0  0  0  0  0  0  0  0  0  0
   -8.2295   47.6047   -0.6790 C   0  0  0  0  0  0  0  0  0  0  0  0
  -11.3836   47.2655    0.4097 C   0  0  0  0  0  0  0  0  0  0  0  0
  -12.2204   46.4616   -0.5760 C   0  0  0  0  0  0  0  0  0  0  0  0
  -11.6066   46.0177   -1.7796 C   0  0  0  0  0  0  0  0  0  0  0  0
  -12.3190   45.3123   -2.7516 C   0  0  0  0  0  0  0  0  0  0  0  0
  -13.6445   45.0397   -2.4994 C   0  0  0  0  0  0  0  0  0  0  0  0
  -14.2645   45.4285   -1.3349 C   0  0  0  0  0  0  0  0  0  0  0  0
  -13.5771   46.1307   -0.3546 C   0  0  0  0  0  0  0  0  0  0  0  0
  -15.5614   45.0165   -1.2991 O   0  0  0  0  0  0  0  0  0  0  0  0
  -15.6966   44.3719   -2.5798 C   0  0  0  0  0  0  0  0  0  0  0  0
  -14.4725   44.3648   -3.3389 O   0  0  0  0  0  0  0  0  0  0  0  0
  -14.2535   46.4248    0.9170 C   0  0  0  0  0  0  0  0  0  0  0  0
  -14.6177   45.6033    1.7387 O   0  0  0  0  0  0  0  0  0  0  0  0
  -14.3774   47.7479    1.1185 O   0  0  0  0  0  0  0  0  0  0  0  0
  -14.0859   48.3510    0.4634 H   0  0  0  0  0  0  0  0  0  0  0  0
 32 33  2  0
 33 31  1  0
 31 30  1  0
 30 29  1  0
 29  1  1  0
  1  2  2  0
  2  3  1  0
  3  4  1  0
  3  5  2  0
  5  6  1  0
  6  7  2  0
  7  8  1  0
  8  9  2  0
  8 10  1  0
 10 12  1  0
 12 13  1  0
 13 14  2  0
 14 15  1  0
 15 16  2  0
 16 19  1  0
 19 20  1  0
 16 17  1  0
 17 18  2  0
 12 21  1  0
 21 22  2  0
 22 23  1  0
 23 24  2  0
 24 27  1  0
 27 28  1  0
 24 25  1  0
 25 26  2  0
 30 34  1  0
 34 35  1  0
 35 36  2  0
 36 37  1  0
 37 38  2  0
 38 39  1  0
 39 40  2  0
 40 44  1  0
 44 45  2  0
 44 46  1  0
 39 41  1  0
 41 42  1  0
 42 43  1  0
  7  1  1  0
 18 13  1  0
 26 21  1  0
 40 35  1  0
 43 38  1  0
 10 11  1  0
 46 47  1  0
M  END
> <minimizedAffinity>
-8.05973

> <CNNscore>
0.8220860362

> <CNNaffinity>
6.6311507225

> <CNN_VS>
5.4513764381

> <CNNaffinity_variance>
0.5674449205

$$$$



 47 51  0  0  0  0  0  0  0  0999 V2000
   -9.6491   44.6475    0.6442 C   0  0  0  0  0  0  0  0  0  0  0  0
  -10.4922   43.6502    0.1173 C   0  0  0  0  0  0  0  0  0  0  0  0
  -10.0860   42.8881   -0.9781 C   0  0  0  0  0  0  0  0  0  0  0  0
  -11.2445   41.5690   -1.6798 Br  0  0  0  0  0  0  0  0  0  0  0  0
   -8.8403   43.0902   -1.5656 C   0  0  0  0  0  0  0  0  0  0  0  0
   -7.9911   44.0721   -1.0540 C   0  0  0  0  0  0  0  0  0  0  0  0
   -8.3913   44.8517    0.0439 C   0  0  0  0  0  0  0  0  0  0  0  0
   -7.4405   45.8711    0.5638 C   0  0  0  0  0  0  0  0  0  0  0  0
   -7.2151   46.8936   -0.0687 O   0  0  0  0  0  0  0  0  0  0  0  0
   -6.8850   45.5741    1.7830 N   0  0  0  0  0  0  0  0  0  0  0  0
   -7.1729   44.7569    2.2504 H   0  0  0  0  0  0  0  0  0  0  0  0
   -5.8852   46.4257    2.4082 C   0  0  0  0  0  0  0  0  0  0  0  0
   -5.2509   45.6373    3.5528 C   0  0  0  0  0  0  0  0  0  0  0  0
   -5.9576   44.6294    4.2277 C   0  0  0  0  0  0  0  0  0  0  0  0
   -5.3575   43.9233    5.2722 C   0  0  0  0  0  0  0  0  0  0  0  0
   -4.0473   44.2063    5.6644 C   0  0  0  0  0  0  0  0  0  0  0  0
   -3.3276   45.1879    4.9833 C   0  0  0  0  0  0  0  0  0  0  0  0
   -3.9223   45.8939    3.9323 C   0  0  0  0  0  0  0  0  0  0  0  0
   -3.5880   43.4514    6.7074 O   0  0  0  0  0  0  0  0  0  0  0  0
   -4.3611   43.4759    7.9014 C   0  0  0  0  0  0  0  0  0  0  0  0
   -6.4225   47.7993    2.8344 C   0  0  0  0  0  0  0  0  0  0  0  0
   -7.5619   47.8806    3.6586 C   0  0  0  0  0  0  0  0  0  0  0  0
   -8.0575   49.1125    4.1091 C   0  0  0  0  0  0  0  0  0  0  0  0
   -7.4073   50.2941    3.7655 C   0  0  0  0  0  0  0  0  0  0  0  0
   -6.2738   50.2304    2.9595 C   0  0  0  0  0  0  0  0  0  0  0  0
   -5.7849   49.0016    2.4996 C   0  0  0  0  0  0  0  0  0  0  0  0
   -7.7636   51.5559    4.1545 O   0  0  0  0  0  0  0  0  0  0  0  0
   -7.9382   51.7695    5.5479 C   0  0  0  0  0  0  0  0  0  0  0  0
  -10.1325   45.4908    1.8092 C   0  0  0  0  0  0  0  0  0  0  0  0
  -11.3189   46.2944    1.4754 N   0  0  0  0  0  0  0  0  0  0  0  0
  -11.5849   47.3264    2.4810 C   0  0  0  0  0  0  0  0  0  0  0  0
  -11.3619   49.8144    2.7128 C   0  0  0  0  0  0  0  0  0  0  0  0
  -11.3766   48.7152    1.9497 C   0  0  0  0  0  0  0  0  0  0  0  0
  -11.3260   46.7706    0.0778 C   0  0  0  0  0  0  0  0  0  0  0  0
  -12.3018   46.1044   -0.8825 C   0  0  0  0  0  0  0  0  0  0  0  0
  -11.7922   45.5547   -2.0912 C   0  0  0  0  0  0  0  0  0  0  0  0
  -12.6290   44.9656   -3.0412 C   0  0  0  0  0  0  0  0  0  0  0  0
  -13.9759   44.9150   -2.7620 C   0  0  0  0  0  0  0  0  0  0  0  0
  -14.5013   45.4109   -1.5916 C   0  0  0  0  0  0  0  0  0  0  0  0
  -13.6896   46.0011   -0.6328 C   0  0  0  0  0  0  0  0  0  0  0  0
  -15.8470   45.2162   -1.5274 O   0  0  0  0  0  0  0  0  0  0  0  0
  -16.1105   44.5899   -2.7972 C   0  0  0  0  0  0  0  0  0  0  0  0
  -14.9191   44.3761   -3.5779 O   0  0  0  0  0  0  0  0  0  0  0  0
  -14.2840   46.4138    0.6468 C   0  0  0  0  0  0  0  0  0  0  0  0
  -14.4880   45.6910    1.6054 O   0  0  0  0  0  0  0  0  0  0  0  0
  -14.5308   47.7346    0.6762 O   0  0  0  0  0  0  0  0  0  0  0  0
  -14.3614   48.2598   -0.0811 H   0  0  0  0  0  0  0  0  0  0  0  0
 32 33  2  0
 33 31  1  0
 31 30  1  0
 30 29  1  0
 29  1  1  0
  1  2  2  0
  2  3  1  0
  3  4  1  0
  3  5  2  0
  5  6  1  0
  6  7  2  0
  7  8  1  0
  8  9  2  0
  8 10  1  0
 10 12  1  0
 12 13  1  0
 13 14  2  0
 14 15  1  0
 15 16  2  0
 16 19  1  0
 19 20  1  0
 16 17  1  0
 17 18  2  0
 12 21  1  0
 21 22  2  0
 22 23  1  0
 23 24  2  0
 24 27  1  0
 27 28  1  0
 24 25  1  0
 25 26  2  0
 30 34  1  0
 34 35  1  0
 35 36  2  0
 36 37  1  0
 37 38  2  0
 38 39  1  0
 39 40  2  0
 40 44  1  0
 44 45  2  0
 44 46  1  0
 39 41  1  0
 41 42  1  0
 42 43  1  0
  7  1  1  0
 18 13  1  0
 26 21  1  0
 40 35  1  0
 43 38  1  0
 10 11  1  0
 46 47  1  0
M  END
> <minimizedAffinity>
-7.44258

> <CNNscore>
0.8107371926

> <CNNaffinity>
6.8541035652

> <CNN_VS>
5.5568766594

> <CNNaffinity_variance>
0.1943967789

$$$$



 47 51  0  0  0  0  0  0  0  0999 V2000
   -9.7681   44.7582    0.6601 C   0  0  0  0  0  0  0  0  0  0  0  0
  -10.4399   43.6306    0.1502 C   0  0  0  0  0  0  0  0  0  0  0  0
   -9.9376   42.9509   -0.9596 C   0  0  0  0  0  0  0  0  0  0  0  0
  -10.8689   41.4518   -1.6375 Br  0  0  0  0  0  0  0  0  0  0  0  0
   -8.7618   43.3659   -1.5785 C   0  0  0  0  0  0  0  0  0  0  0  0
   -8.0817   44.4795   -1.0842 C   0  0  0  0  0  0  0  0  0  0  0  0
   -8.5812   45.1774    0.0280 C   0  0  0  0  0  0  0  0  0  0  0  0
   -7.8072   46.3454    0.5282 C   0  0  0  0  0  0  0  0  0  0  0  0
   -6.7206   46.1886    1.0678 O   0  0  0  0  0  0  0  0  0  0  0  0
   -8.3970   47.5652    0.3103 N   0  0  0  0  0  0  0  0  0  0  0  0
   -9.2445   47.6012   -0.1893 H   0  0  0  0  0  0  0  0  0  0  0  0
   -7.8124   48.8068    0.7925 C   0  0  0  0  0  0  0  0  0  0  0  0
   -6.3845   48.8893    0.2557 C   0  0  0  0  0  0  0  0  0  0  0  0
   -5.2784   48.9273    1.1193 C   0  0  0  0  0  0  0  0  0  0  0  0
   -3.9824   49.0046    0.6054 C   0  0  0  0  0  0  0  0  0  0  0  0
   -3.7630   49.0462   -0.7733 C   0  0  0  0  0  0  0  0  0  0  0  0
   -4.8536   48.9828   -1.6404 C   0  0  0  0  0  0  0  0  0  0  0  0
   -6.1535   48.8992   -1.1306 C   0  0  0  0  0  0  0  0  0  0  0  0
   -2.4491   49.1353   -1.1397 O   0  0  0  0  0  0  0  0  0  0  0  0
   -1.6574   50.0934   -0.4473 C   0  0  0  0  0  0  0  0  0  0  0  0
   -7.9059   48.9839    2.3146 C   0  0  0  0  0  0  0  0  0  0  0  0
   -8.0697   47.8558    3.1421 C   0  0  0  0  0  0  0  0  0  0  0  0
   -8.1126   47.9683    4.5391 C   0  0  0  0  0  0  0  0  0  0  0  0
   -7.9660   49.2132    5.1438 C   0  0  0  0  0  0  0  0  0  0  0  0
   -7.7933   50.3372    4.3404 C   0  0  0  0  0  0  0  0  0  0  0  0
   -7.7621   50.2274    2.9449 C   0  0  0  0  0  0  0  0  0  0  0  0
   -7.9611   49.4638    6.4883 O   0  0  0  0  0  0  0  0  0  0  0  0
   -6.9145   48.8721    7.2447 C   0  0  0  0  0  0  0  0  0  0  0  0
  -10.3586   45.5044    1.8419 C   0  0  0  0  0  0  0  0  0  0  0  0
  -11.4552   46.4055    1.4545 N   0  0  0  0  0  0  0  0  0  0  0  0
  -11.5992   47.5283    2.3850 C   0  0  0  0  0  0  0  0  0  0  0  0
  -11.4733   50.0333    2.3284 C   0  0  0  0  0  0  0  0  0  0  0  0
  -11.5587   48.8595    1.6914 C   0  0  0  0  0  0  0  0  0  0  0  0
  -11.4251   46.7803    0.0266 C   0  0  0  0  0  0  0  0  0  0  0  0
  -12.4204   46.0924   -0.8976 C   0  0  0  0  0  0  0  0  0  0  0  0
  -11.9412   45.5422   -2.1184 C   0  0  0  0  0  0  0  0  0  0  0  0
  -12.7985   44.9336   -3.0373 C   0  0  0  0  0  0  0  0  0  0  0  0
  -14.1349   44.8643   -2.7147 C   0  0  0  0  0  0  0  0  0  0  0  0
  -14.6304   45.3602   -1.5314 C   0  0  0  0  0  0  0  0  0  0  0  0
  -13.7978   45.9696   -0.6029 C   0  0  0  0  0  0  0  0  0  0  0  0
  -15.9701   45.1453   -1.4229 O   0  0  0  0  0  0  0  0  0  0  0  0
  -16.2641   44.5061   -2.6796 C   0  0  0  0  0  0  0  0  0  0  0  0
  -15.0950   44.3052   -3.4965 O   0  0  0  0  0  0  0  0  0  0  0  0
  -14.3575   46.3820    0.6923 C   0  0  0  0  0  0  0  0  0  0  0  0
  -14.5382   45.6585    1.6550 O   0  0  0  0  0  0  0  0  0  0  0  0
  -14.6000   47.7035    0.7298 O   0  0  0  0  0  0  0  0  0  0  0  0
  -14.4491   48.2292   -0.0310 H   0  0  0  0  0  0  0  0  0  0  0  0
 32 33  2  0
 33 31  1  0
 31 30  1  0
 30 29  1  0
 29  1  1  0
  1  2  2  0
  2  3  1  0
  3  4  1  0
  3  5  2  0
  5  6  1  0
  6  7  2  0
  7  8  1  0
  8  9  2  0
  8 10  1  0
 10 12  1  0
 12 13  1  0
 13 14  2  0
 14 15  1  0
 15 16  2  0
 16 19  1  0
 19 20  1  0
 16 17  1  0
 17 18  2  0
 12 21  1  0
 21 22  2  0
 22 23  1  0
 23 24  2  0
 24 27  1  0
 27 28  1  0
 24 25  1  0
 25 26  2  0
 30 34  1  0
 34 35  1  0
 35 36  2  0
 36 37  1  0
 37 38  2  0
 38 39  1  0
 39 40  2  0
 40 44  1  0
 44 45  2  0
 44 46  1  0
 39 41  1  0
 41 42  1  0
 42 43  1  0
  7  1  1  0
 18 13  1  0
 26 21  1  0
 40 35  1  0
 43 38  1  0
 10 11  1  0
 46 47  1  0
M  END
> <minimizedAffinity>
-7.33644

> <CNNscore>
0.8010522127

> <CNNaffinity>
6.7208733559

> <CNN_VS>
5.3837704659

> <CNNaffinity_variance>
0.1808992177

$$$$



 47 51  0  0  0  0  0  0  0  0999 V2000
   -9.4209   43.8397    1.1476 C   0  0  0  0  0  0  0  0  0  0  0  0
  -10.0994   43.1988    0.0932 C   0  0  0  0  0  0  0  0  0  0  0  0
   -9.5802   42.0368   -0.4780 C   0  0  0  0  0  0  0  0  0  0  0  0
  -10.4997   41.2063   -1.9060 Br  0  0  0  0  0  0  0  0  0  0  0  0
   -8.3901   41.4837   -0.0140 C   0  0  0  0  0  0  0  0  0  0  0  0
   -7.7065   42.1042    1.0323 C   0  0  0  0  0  0  0  0  0  0  0  0
   -8.2146   43.2792    1.6110 C   0  0  0  0  0  0  0  0  0  0  0  0
   -7.4582   43.8898    2.7372 C   0  0  0  0  0  0  0  0  0  0  0  0
   -7.5302   43.4197    3.8643 O   0  0  0  0  0  0  0  0  0  0  0  0
   -6.6852   44.9708    2.3950 N   0  0  0  0  0  0  0  0  0  0  0  0
   -6.6384   45.2418    1.4497 H   0  0  0  0  0  0  0  0  0  0  0  0
   -5.9327   45.7300    3.3815 C   0  0  0  0  0  0  0  0  0  0  0  0
   -6.9249   46.5842    4.1686 C   0  0  0  0  0  0  0  0  0  0  0  0
   -6.8172   46.7373    5.5599 C   0  0  0  0  0  0  0  0  0  0  0  0
   -7.7372   47.5218    6.2583 C   0  0  0  0  0  0  0  0  0  0  0  0
   -8.7792   48.1663    5.5879 C   0  0  0  0  0  0  0  0  0  0  0  0
   -8.8799   48.0418    4.2024 C   0  0  0  0  0  0  0  0  0  0  0  0
   -7.9571   47.2619    3.4974 C   0  0  0  0  0  0  0  0  0  0  0  0
   -9.6147   48.8895    6.3926 O   0  0  0  0  0  0  0  0  0  0  0  0
   -9.0096   49.5968    7.4686 C   0  0  0  0  0  0  0  0  0  0  0  0
   -4.7690   46.5349    2.7857 C   0  0  0  0  0  0  0  0  0  0  0  0
   -4.8700   47.9356    2.6763 C   0  0  0  0  0  0  0  0  0  0  0  0
   -3.8130   48.7130    2.1818 C   0  0  0  0  0  0  0  0  0  0  0  0
   -2.6167   48.1076    1.8085 C   0  0  0  0  0  0  0  0  0  0  0  0
   -2.4970   46.7249    1.9198 C   0  0  0  0  0  0  0  0  0  0  0  0
   -3.5561   45.9465    2.4024 C   0  0  0  0  0  0  0  0  0  0  0  0
   -1.5009   48.7433    1.3380 O   0  0  0  0  0  0  0  0  0  0  0  0
   -1.6229   49.4065    0.0878 C   0  0  0  0  0  0  0  0  0  0  0  0
   -9.9852   45.1255    1.7224 C   0  0  0  0  0  0  0  0  0  0  0  0
   -9.8342   46.2701    0.8104 N   0  0  0  0  0  0  0  0  0  0  0  0
   -9.0059   45.9410   -0.3527 C   0  0  0  0  0  0  0  0  0  0  0  0
   -7.1360   47.5750    0.0045 C   0  0  0  0  0  0  0  0  0  0  0  0
   -8.1124   47.0760   -0.7627 C   0  0  0  0  0  0  0  0  0  0  0  0
  -11.1133   46.9370    0.4951 C   0  0  0  0  0  0  0  0  0  0  0  0
  -12.0320   46.2491   -0.5054 C   0  0  0  0  0  0  0  0  0  0  0  0
  -11.4704   45.7707   -1.7213 C   0  0  0  0  0  0  0  0  0  0  0  0
  -12.2550   45.1674   -2.7063 C   0  0  0  0  0  0  0  0  0  0  0  0
  -13.6015   45.0307   -2.4552 C   0  0  0  0  0  0  0  0  0  0  0  0
  -14.1751   45.4559   -1.2797 C   0  0  0  0  0  0  0  0  0  0  0  0
  -13.4158   46.0586   -0.2863 C   0  0  0  0  0  0  0  0  0  0  0  0
  -15.5082   45.1828   -1.2482 O   0  0  0  0  0  0  0  0  0  0  0  0
  -15.7128   44.5859   -2.5428 C   0  0  0  0  0  0  0  0  0  0  0  0
  -14.4975   44.4669   -3.3066 O   0  0  0  0  0  0  0  0  0  0  0  0
  -14.0553   46.3931    0.9943 C   0  0  0  0  0  0  0  0  0  0  0  0
  -14.5151   45.5965    1.7924 O   0  0  0  0  0  0  0  0  0  0  0  0
  -14.0232   47.7151    1.2345 O   0  0  0  0  0  0  0  0  0  0  0  0
  -13.6615   48.2985    0.5966 H   0  0  0  0  0  0  0  0  0  0  0  0
 32 33  2  0
 33 31  1  0
 31 30  1  0
 30 29  1  0
 29  1  1  0
  1  2  2  0
  2  3  1  0
  3  4  1  0
  3  5  2  0
  5  6  1  0
  6  7  2  0
  7  8  1  0
  8  9  2  0
  8 10  1  0
 10 12  1  0
 12 13  1  0
 13 14  2  0
 14 15  1  0
 15 16  2  0
 16 19  1  0
 19 20  1  0
 16 17  1  0
 17 18  2  0
 12 21  1  0
 21 22  2  0
 22 23  1  0
 23 24  2  0
 24 27  1  0
 27 28  1  0
 24 25  1  0
 25 26  2  0
 30 34  1  0
 34 35  1  0
 35 36  2  0
 36 37  1  0
 37 38  2  0
 38 39  1  0
 39 40  2  0
 40 44  1  0
 44 45  2  0
 44 46  1  0
 39 41  1  0
 41 42  1  0
 42 43  1  0
  7  1  1  0
 18 13  1  0
 26 21  1  0
 40 35  1  0
 43 38  1  0
 10 11  1  0
 46 47  1  0
M  END
> <minimizedAffinity>
-7.70613

> <CNNscore>
0.7685812116

> <CNNaffinity>
6.4321150780

> <CNN_VS>
4.9436025620

> <CNNaffinity_variance>
0.6653234363

$$$$
