


 21 23  0  0  0  0  0  0  0  0999 V2000
  -15.8845   11.2188   32.1063 C   0  0  0  0  0  0  0  0  0  0  0  0
  -15.6630    9.9166   31.3075 C   0  0  0  0  0  0  0  0  0  0  0  0
  -16.2718    9.9796   30.0118 O   0  0  0  0  0  0  0  0  0  0  0  0
  -16.3182    8.8434   32.1881 C   0  0  0  0  0  0  0  0  0  0  0  0
  -16.6984    7.5653   31.4569 C   0  0  0  0  0  0  0  0  0  0  0  0
  -17.5213    9.5181   32.7119 N   0  0  0  0  0  0  0  0  0  0  0  0
  -17.0820   10.8931   33.0380 C   0  0  0  0  0  0  0  0  0  0  0  0
  -17.2207   10.1562   30.1086 H   0  0  0  0  0  0  0  0  0  0  0  0
  -17.8625    9.0436   33.5479 H   0  0  0  0  0  0  0  0  0  0  0  0
  -16.6968   11.0030   34.4869 C   0  0  0  0  0  0  0  0  0  0  0  0
  -15.5881   10.5616   35.0515 N   0  0  0  0  0  0  0  0  0  0  0  0
  -15.7086   10.8539   36.3872 C   0  0  0  0  0  0  0  0  0  0  0  0
  -14.8346   10.5836   37.4474 C   0  0  0  0  0  0  0  0  0  0  0  0
  -15.1965   10.9896   38.7377 C   0  0  0  0  0  0  0  0  0  0  0  0
  -16.4078   11.6529   38.9661 C   0  0  0  0  0  0  0  0  0  0  0  0
  -17.2994   11.9216   37.9205 C   0  0  0  0  0  0  0  0  0  0  0  0
  -16.9102   11.5055   36.6447 C   0  0  0  0  0  0  0  0  0  0  0  0
  -17.5188   11.5904   35.4188 N   0  0  0  0  0  0  0  0  0  0  0  0
  -18.3947   12.0018   35.2373 H   0  0  0  0  0  0  0  0  0  0  0  0
  -17.3962   13.0090   31.7042 C   0  0  0  0  0  0  0  0  0  0  0  0
  -16.2195   12.3356   31.2662 O   0  0  0  0  0  0  0  0  0  0  0  0
 20 21  1  0
  1 21  1  0
  1  2  1  0
  2  3  1  0
  2  4  1  0
  4  5  1  0
  4  6  1  0
  6  7  1  0
  7 10  1  0
 10 11  2  0
 11 12  1  0
 12 13  2  0
 13 14  1  0
 14 15  2  0
 15 16  1  0
 16 17  2  0
 17 18  1  0
  7  1  1  0
 18 10  1  0
 17 12  1  0
  3  8  1  0
  6  9  1  0
 18 19  1  0
M  END
> <minimizedAffinity>
-6.61625

> <CNNscore>
0.9603052139

> <CNNaffinity>
6.2545933723

> <CNN_VS>
6.0063185692

> <CNNaffinity_variance>
0.4117204845

$$$$



 21 23  0  0  0  0  0  0  0  0999 V2000
  -16.6289   12.1680   33.5930 C   0  0  0  0  0  0  0  0  0  0  0  0
  -15.6451   11.1016   33.0661 C   0  0  0  0  0  0  0  0  0  0  0  0
  -14.8973   11.5800   31.9413 O   0  0  0  0  0  0  0  0  0  0  0  0
  -16.5616    9.9324   32.6793 C   0  0  0  0  0  0  0  0  0  0  0  0
  -15.9569    8.9510   31.6873 C   0  0  0  0  0  0  0  0  0  0  0  0
  -17.7401   10.6004   32.0944 N   0  0  0  0  0  0  0  0  0  0  0  0
  -17.9906   11.7722   32.9627 C   0  0  0  0  0  0  0  0  0  0  0  0
  -15.5083   11.8492   31.2377 H   0  0  0  0  0  0  0  0  0  0  0  0
  -18.5450    9.9738   32.0976 H   0  0  0  0  0  0  0  0  0  0  0  0
  -19.0113   11.4486   34.0178 C   0  0  0  0  0  0  0  0  0  0  0  0
  -20.3235   11.5494   33.9135 N   0  0  0  0  0  0  0  0  0  0  0  0
  -20.8234   11.1861   35.1391 C   0  0  0  0  0  0  0  0  0  0  0  0
  -22.1484   11.1392   35.5898 C   0  0  0  0  0  0  0  0  0  0  0  0
  -22.3973   10.7306   36.9057 C   0  0  0  0  0  0  0  0  0  0  0  0
  -21.3439   10.3753   37.7564 C   0  0  0  0  0  0  0  0  0  0  0  0
  -20.0121   10.4269   37.3271 C   0  0  0  0  0  0  0  0  0  0  0  0
  -19.7957   10.8373   36.0091 C   0  0  0  0  0  0  0  0  0  0  0  0
  -18.6534   11.0102   35.2705 N   0  0  0  0  0  0  0  0  0  0  0  0
  -17.7342   10.8481   35.5837 H   0  0  0  0  0  0  0  0  0  0  0  0
  -15.8811   14.3184   34.2773 C   0  0  0  0  0  0  0  0  0  0  0  0
  -16.2779   13.4993   33.1811 O   0  0  0  0  0  0  0  0  0  0  0  0
 20 21  1  0
  1 21  1  0
  1  2  1  0
  2  3  1  0
  2  4  1  0
  4  5  1  0
  4  6  1  0
  6  7  1  0
  7 10  1  0
 10 11  2  0
 11 12  1  0
 12 13  2  0
 13 14  1  0
 14 15  2  0
 15 16  1  0
 16 17  2  0
 17 18  1  0
  7  1  1  0
 18 10  1  0
 17 12  1  0
  3  8  1  0
  6  9  1  0
 18 19  1  0
M  END
> <minimizedAffinity>
-6.26714

> <CNNscore>
0.5605738163

> <CNNaffinity>
5.2141079903

> <CNN_VS>
2.9228923321

> <CNNaffinity_variance>
0.3699848652

$$$$



 21 23  0  0  0  0  0  0  0  0999 V2000
  -16.4972   12.5152   32.9969 C   0  0  0  0  0  0  0  0  0  0  0  0
  -15.9644   11.4980   31.9654 C   0  0  0  0  0  0  0  0  0  0  0  0
  -16.6317   11.6238   30.7035 O   0  0  0  0  0  0  0  0  0  0  0  0
  -16.2509   10.1410   32.6233 C   0  0  0  0  0  0  0  0  0  0  0  0
  -16.2987    8.9645   31.6609 C   0  0  0  0  0  0  0  0  0  0  0  0
  -17.5658   10.3413   33.2623 N   0  0  0  0  0  0  0  0  0  0  0  0
  -17.5088   11.7001   33.8457 C   0  0  0  0  0  0  0  0  0  0  0  0
  -17.5861   11.5050   30.8292 H   0  0  0  0  0  0  0  0  0  0  0  0
  -17.7193    9.6448   33.9915 H   0  0  0  0  0  0  0  0  0  0  0  0
  -17.0961   11.6460   35.2902 C   0  0  0  0  0  0  0  0  0  0  0  0
  -15.8955   11.8845   35.7846 N   0  0  0  0  0  0  0  0  0  0  0  0
  -16.0001   11.6702   37.1363 C   0  0  0  0  0  0  0  0  0  0  0  0
  -15.0235   11.7536   38.1364 C   0  0  0  0  0  0  0  0  0  0  0  0
  -15.3905   11.4798   39.4596 C   0  0  0  0  0  0  0  0  0  0  0  0
  -16.7075   11.1292   39.7793 C   0  0  0  0  0  0  0  0  0  0  0  0
  -17.6948   11.0296   38.7915 C   0  0  0  0  0  0  0  0  0  0  0  0
  -17.2985   11.3098   37.4811 C   0  0  0  0  0  0  0  0  0  0  0  0
  -17.9764   11.3044   36.2892 N   0  0  0  0  0  0  0  0  0  0  0  0
  -18.9302   11.0922   36.1693 H   0  0  0  0  0  0  0  0  0  0  0  0
  -17.7832   14.4847   33.3426 C   0  0  0  0  0  0  0  0  0  0  0  0
  -17.1708   13.6270   32.3838 O   0  0  0  0  0  0  0  0  0  0  0  0
 20 21  1  0
  1 21  1  0
  1  2  1  0
  2  3  1  0
  2  4  1  0
  4  5  1  0
  4  6  1  0
  6  7  1  0
  7 10  1  0
 10 11  2  0
 11 12  1  0
 12 13  2  0
 13 14  1  0
 14 15  2  0
 15 16  1  0
 16 17  2  0
 17 18  1  0
  7  1  1  0
 18 10  1  0
 17 12  1  0
  3  8  1  0
  6  9  1  0
 18 19  1  0
M  END
> <minimizedAffinity>
-5.63426

> <CNNscore>
0.4701440334

> <CNNaffinity>
5.1632423401

> <CNN_VS>
2.4274675846

> <CNNaffinity_variance>
0.6004350781

$$$$



 21 23  0  0  0  0  0  0  0  0999 V2000
  -18.2152   11.3717   33.3619 C   0  0  0  0  0  0  0  0  0  0  0  0
  -17.9734   10.3016   32.2762 C   0  0  0  0  0  0  0  0  0  0  0  0
  -18.7337    9.1127   32.5250 O   0  0  0  0  0  0  0  0  0  0  0  0
  -16.4641   10.0366   32.3678 C   0  0  0  0  0  0  0  0  0  0  0  0
  -16.0155    8.7042   31.7878 C   0  0  0  0  0  0  0  0  0  0  0  0
  -16.1952   10.0872   33.8178 N   0  0  0  0  0  0  0  0  0  0  0  0
  -17.0054   11.2184   34.3217 C   0  0  0  0  0  0  0  0  0  0  0  0
  -18.5059    8.7604   33.3996 H   0  0  0  0  0  0  0  0  0  0  0  0
  -15.2038   10.2512   33.9925 H   0  0  0  0  0  0  0  0  0  0  0  0
  -16.1878   12.4784   34.3810 C   0  0  0  0  0  0  0  0  0  0  0  0
  -14.8736   12.5713   34.4662 N   0  0  0  0  0  0  0  0  0  0  0  0
  -14.5990   13.9144   34.5342 C   0  0  0  0  0  0  0  0  0  0  0  0
  -13.3702   14.5738   34.6622 C   0  0  0  0  0  0  0  0  0  0  0  0
  -13.3597   15.9730   34.7124 C   0  0  0  0  0  0  0  0  0  0  0  0
  -14.5529   16.7011   34.6364 C   0  0  0  0  0  0  0  0  0  0  0  0
  -15.7917   16.0590   34.5198 C   0  0  0  0  0  0  0  0  0  0  0  0
  -15.7698   14.6627   34.4711 C   0  0  0  0  0  0  0  0  0  0  0  0
  -16.7657   13.7255   34.3711 N   0  0  0  0  0  0  0  0  0  0  0  0
  -17.7297   13.9136   34.3038 H   0  0  0  0  0  0  0  0  0  0  0  0
  -19.2477   11.2445   35.4996 C   0  0  0  0  0  0  0  0  0  0  0  0
  -19.4358   11.1585   34.0900 O   0  0  0  0  0  0  0  0  0  0  0  0
 20 21  1  0
  1 21  1  0
  1  2  1  0
  2  3  1  0
  2  4  1  0
  4  5  1  0
  4  6  1  0
  6  7  1  0
  7 10  1  0
 10 11  2  0
 11 12  1  0
 12 13  2  0
 13 14  1  0
 14 15  2  0
 15 16  1  0
 16 17  2  0
 17 18  1  0
  7  1  1  0
 18 10  1  0
 17 12  1  0
  3  8  1  0
  6  9  1  0
 18 19  1  0
M  END
> <minimizedAffinity>
-6.80071

> <CNNscore>
0.3883062303

> <CNNaffinity>
4.9082279205

> <CNN_VS>
1.9058954716

> <CNNaffinity_variance>
0.1909718066

$$$$



 21 23  0  0  0  0  0  0  0  0999 V2000
  -16.7140   11.1221   32.6982 C   0  0  0  0  0  0  0  0  0  0  0  0
  -17.8170   10.3015   33.4002 C   0  0  0  0  0  0  0  0  0  0  0  0
  -18.6334    9.5954   32.4576 O   0  0  0  0  0  0  0  0  0  0  0  0
  -18.6223   11.3649   34.1601 C   0  0  0  0  0  0  0  0  0  0  0  0
  -20.0362   10.9467   34.5324 C   0  0  0  0  0  0  0  0  0  0  0  0
  -18.6488   12.5066   33.2256 N   0  0  0  0  0  0  0  0  0  0  0  0
  -17.2885   12.5627   32.6457 C   0  0  0  0  0  0  0  0  0  0  0  0
  -19.0291   10.2264   31.8362 H   0  0  0  0  0  0  0  0  0  0  0  0
  -18.8619   13.3713   33.7229 H   0  0  0  0  0  0  0  0  0  0  0  0
  -16.4218   13.5281   33.4050 C   0  0  0  0  0  0  0  0  0  0  0  0
  -16.7198   14.7687   33.7439 N   0  0  0  0  0  0  0  0  0  0  0  0
  -15.6075   15.2578   34.3822 C   0  0  0  0  0  0  0  0  0  0  0  0
  -15.3681   16.5275   34.9221 C   0  0  0  0  0  0  0  0  0  0  0  0
  -14.1308   16.7788   35.5274 C   0  0  0  0  0  0  0  0  0  0  0  0
  -13.1502   15.7820   35.5928 C   0  0  0  0  0  0  0  0  0  0  0  0
  -13.3671   14.5103   35.0485 C   0  0  0  0  0  0  0  0  0  0  0  0
  -14.6114   14.2895   34.4524 C   0  0  0  0  0  0  0  0  0  0  0  0
  -15.1557   13.1978   33.8261 N   0  0  0  0  0  0  0  0  0  0  0  0
  -14.7151   12.3265   33.6996 H   0  0  0  0  0  0  0  0  0  0  0  0
  -15.3928    9.7036   31.3220 C   0  0  0  0  0  0  0  0  0  0  0  0
  -16.4450   10.6633   31.3631 O   0  0  0  0  0  0  0  0  0  0  0  0
 20 21  1  0
  1 21  1  0
  1  2  1  0
  2  3  1  0
  2  4  1  0
  4  5  1  0
  4  6  1  0
  6  7  1  0
  7 10  1  0
 10 11  2  0
 11 12  1  0
 12 13  2  0
 13 14  1  0
 14 15  2  0
 15 16  1  0
 16 17  2  0
 17 18  1  0
  7  1  1  0
 18 10  1  0
 17 12  1  0
  3  8  1  0
  6  9  1  0
 18 19  1  0
M  END
> <minimizedAffinity>
-6.15574

> <CNNscore>
0.3613195419

> <CNNaffinity>
4.4954805374

> <CNN_VS>
1.6243050098

> <CNNaffinity_variance>
0.2597777247

$$$$



 21 23  0  0  0  0  0  0  0  0999 V2000
  -18.2363   11.7398   36.8323 C   0  0  0  0  0  0  0  0  0  0  0  0
  -19.6388   11.3917   36.2896 C   0  0  0  0  0  0  0  0  0  0  0  0
  -20.0010   10.0374   36.5868 O   0  0  0  0  0  0  0  0  0  0  0  0
  -19.5023   11.6214   34.7779 C   0  0  0  0  0  0  0  0  0  0  0  0
  -20.5379   10.9009   33.9287 C   0  0  0  0  0  0  0  0  0  0  0  0
  -18.1470   11.1217   34.4768 N   0  0  0  0  0  0  0  0  0  0  0  0
  -17.3047   11.5885   35.6005 C   0  0  0  0  0  0  0  0  0  0  0  0
  -19.3381    9.4360   36.2129 H   0  0  0  0  0  0  0  0  0  0  0  0
  -17.8115   11.5068   33.5939 H   0  0  0  0  0  0  0  0  0  0  0  0
  -16.6288   12.8873   35.2598 C   0  0  0  0  0  0  0  0  0  0  0  0
  -15.3389   13.0850   35.0598 N   0  0  0  0  0  0  0  0  0  0  0  0
  -15.2009   14.4297   34.8216 C   0  0  0  0  0  0  0  0  0  0  0  0
  -14.0468   15.1836   34.5752 C   0  0  0  0  0  0  0  0  0  0  0  0
  -14.1761   16.5615   34.3626 C   0  0  0  0  0  0  0  0  0  0  0  0
  -15.4334   17.1761   34.3952 C   0  0  0  0  0  0  0  0  0  0  0  0
  -16.5970   16.4406   34.6514 C   0  0  0  0  0  0  0  0  0  0  0  0
  -16.4361   15.0681   34.8583 C   0  0  0  0  0  0  0  0  0  0  0  0
  -17.3280   14.0643   35.1361 N   0  0  0  0  0  0  0  0  0  0  0  0
  -18.3024   14.1687   35.2307 H   0  0  0  0  0  0  0  0  0  0  0  0
  -16.8030   11.4254   38.7028 C   0  0  0  0  0  0  0  0  0  0  0  0
  -17.8057   10.8465   37.8726 O   0  0  0  0  0  0  0  0  0  0  0  0
 20 21  1  0
  1 21  1  0
  1  2  1  0
  2  3  1  0
  2  4  1  0
  4  5  1  0
  4  6  1  0
  6  7  1  0
  7 10  1  0
 10 11  2  0
 11 12  1  0
 12 13  2  0
 13 14  1  0
 14 15  2  0
 15 16  1  0
 16 17  2  0
 17 18  1  0
  7  1  1  0
 18 10  1  0
 17 12  1  0
  3  8  1  0
  6  9  1  0
 18 19  1  0
M  END
> <minimizedAffinity>
-5.22887

> <CNNscore>
0.2063486278

> <CNNaffinity>
3.6815967560

> <CNN_VS>
0.7596924305

> <CNNaffinity_variance>
0.4055729806

$$$$



 21 23  0  0  0  0  0  0  0  0999 V2000
  -23.3837   10.8437   37.6503 C   0  0  0  0  0  0  0  0  0  0  0  0
  -24.7115   10.7142   38.4267 C   0  0  0  0  0  0  0  0  0  0  0  0
  -25.2130    9.3721   38.3990 O   0  0  0  0  0  0  0  0  0  0  0  0
  -25.6489   11.6830   37.6924 C   0  0  0  0  0  0  0  0  0  0  0  0
  -27.1313   11.4141   37.8997 C   0  0  0  0  0  0  0  0  0  0  0  0
  -25.2833   11.5039   36.2741 N   0  0  0  0  0  0  0  0  0  0  0  0
  -23.8070   11.4021   36.2657 C   0  0  0  0  0  0  0  0  0  0  0  0
  -25.3342    9.0912   37.4785 H   0  0  0  0  0  0  0  0  0  0  0  0
  -25.5900   12.3046   35.7215 H   0  0  0  0  0  0  0  0  0  0  0  0
  -23.1791   12.7414   35.9979 C   0  0  0  0  0  0  0  0  0  0  0  0
  -23.7431   13.9270   36.1363 N   0  0  0  0  0  0  0  0  0  0  0  0
  -22.7981   14.8380   35.7350 C   0  0  0  0  0  0  0  0  0  0  0  0
  -22.8749   16.2338   35.6533 C   0  0  0  0  0  0  0  0  0  0  0  0
  -21.7553   16.9440   35.2032 C   0  0  0  0  0  0  0  0  0  0  0  0
  -20.5807   16.2741   34.8410 C   0  0  0  0  0  0  0  0  0  0  0  0
  -20.4891   14.8784   34.9051 C   0  0  0  0  0  0  0  0  0  0  0  0
  -21.6218   14.1978   35.3591 C   0  0  0  0  0  0  0  0  0  0  0  0
  -21.8895   12.8649   35.5383 N   0  0  0  0  0  0  0  0  0  0  0  0
  -21.2650   12.1234   35.3671 H   0  0  0  0  0  0  0  0  0  0  0  0
  -21.3049    9.6903   37.6339 C   0  0  0  0  0  0  0  0  0  0  0  0
  -22.7168    9.5826   37.4761 O   0  0  0  0  0  0  0  0  0  0  0  0
 20 21  1  0
  1 21  1  0
  1  2  1  0
  2  3  1  0
  2  4  1  0
  4  5  1  0
  4  6  1  0
  6  7  1  0
  7 10  1  0
 10 11  2  0
 11 12  1  0
 12 13  2  0
 13 14  1  0
 14 15  2  0
 15 16  1  0
 16 17  2  0
 17 18  1  0
  7  1  1  0
 18 10  1  0
 17 12  1  0
  3  8  1  0
  6  9  1  0
 18 19  1  0
M  END
> <minimizedAffinity>
-4.80227

> <CNNscore>
0.1933946460

> <CNNaffinity>
2.7799565792

> <CNN_VS>
0.5376287103

> <CNNaffinity_variance>
0.8827238083

$$$$



 21 23  0  0  0  0  0  0  0  0999 V2000
  -15.9136   12.5183   34.9470 C   0  0  0  0  0  0  0  0  0  0  0  0
  -16.8492   11.2980   34.8119 C   0  0  0  0  0  0  0  0  0  0  0  0
  -16.1448   10.1385   34.3506 O   0  0  0  0  0  0  0  0  0  0  0  0
  -17.8978   11.7648   33.7926 C   0  0  0  0  0  0  0  0  0  0  0  0
  -18.6458   10.6427   33.0897 C   0  0  0  0  0  0  0  0  0  0  0  0
  -17.1077   12.5477   32.8229 N   0  0  0  0  0  0  0  0  0  0  0  0
  -16.1502   13.3239   33.6419 C   0  0  0  0  0  0  0  0  0  0  0  0
  -15.7234   10.3337   33.4989 H   0  0  0  0  0  0  0  0  0  0  0  0
  -17.7123   13.1730   32.2903 H   0  0  0  0  0  0  0  0  0  0  0  0
  -16.6857   14.6979   33.9336 C   0  0  0  0  0  0  0  0  0  0  0  0
  -16.0240   15.7171   34.4496 N   0  0  0  0  0  0  0  0  0  0  0  0
  -16.9384   16.7341   34.5660 C   0  0  0  0  0  0  0  0  0  0  0  0
  -16.7811   18.0283   35.0771 C   0  0  0  0  0  0  0  0  0  0  0  0
  -17.8872   18.8867   35.0869 C   0  0  0  0  0  0  0  0  0  0  0  0
  -19.1274   18.4620   34.5959 C   0  0  0  0  0  0  0  0  0  0  0  0
  -19.3066   17.1682   34.0916 C   0  0  0  0  0  0  0  0  0  0  0  0
  -18.1846   16.3354   34.0940 C   0  0  0  0  0  0  0  0  0  0  0  0
  -17.9961   15.0371   33.6950 N   0  0  0  0  0  0  0  0  0  0  0  0
  -18.6820   14.4487   33.3044 H   0  0  0  0  0  0  0  0  0  0  0  0
  -13.7066   12.9013   34.1505 C   0  0  0  0  0  0  0  0  0  0  0  0
  -14.5278   12.1484   35.0384 O   0  0  0  0  0  0  0  0  0  0  0  0
 20 21  1  0
  1 21  1  0
  1  2  1  0
  2  3  1  0
  2  4  1  0
  4  5  1  0
  4  6  1  0
  6  7  1  0
  7 10  1  0
 10 11  2  0
 11 12  1  0
 12 13  2  0
 13 14  1  0
 14 15  2  0
 15 16  1  0
 16 17  2  0
 17 18  1  0
  7  1  1  0
 18 10  1  0
 17 12  1  0
  3  8  1  0
  6  9  1  0
 18 19  1  0
M  END
> <minimizedAffinity>
-5.22788

> <CNNscore>
0.1929067820

> <CNNaffinity>
4.3482050896

> <CNN_VS>
0.8387982249

> <CNNaffinity_variance>
0.1378111094

$$$$



 21 23  0  0  0  0  0  0  0  0999 V2000
  -16.5602   11.4412   38.1418 C   0  0  0  0  0  0  0  0  0  0  0  0
  -18.0436   11.0888   38.3824 C   0  0  0  0  0  0  0  0  0  0  0  0
  -18.2186    9.6942   38.6615 O   0  0  0  0  0  0  0  0  0  0  0  0
  -18.7228   11.4912   37.0658 C   0  0  0  0  0  0  0  0  0  0  0  0
  -20.0638   10.8207   36.8107 C   0  0  0  0  0  0  0  0  0  0  0  0
  -17.7409   11.0934   36.0387 N   0  0  0  0  0  0  0  0  0  0  0  0
  -16.4236   11.4723   36.5963 C   0  0  0  0  0  0  0  0  0  0  0  0
  -17.8647    9.1704   37.9258 H   0  0  0  0  0  0  0  0  0  0  0  0
  -17.9160   11.5897   35.1649 H   0  0  0  0  0  0  0  0  0  0  0  0
  -16.0065   12.8317   36.1087 C   0  0  0  0  0  0  0  0  0  0  0  0
  -16.7805   13.8868   35.9338 N   0  0  0  0  0  0  0  0  0  0  0  0
  -15.9619   14.8713   35.4392 C   0  0  0  0  0  0  0  0  0  0  0  0
  -16.2672   16.1820   35.0523 C   0  0  0  0  0  0  0  0  0  0  0  0
  -15.2369   16.9984   34.5702 C   0  0  0  0  0  0  0  0  0  0  0  0
  -13.9261   16.5162   34.4758 C   0  0  0  0  0  0  0  0  0  0  0  0
  -13.6040   15.2052   34.8470 C   0  0  0  0  0  0  0  0  0  0  0  0
  -14.6528   14.4153   35.3251 C   0  0  0  0  0  0  0  0  0  0  0  0
  -14.7076   13.1160   35.7601 N   0  0  0  0  0  0  0  0  0  0  0  0
  -13.9469   12.4933   35.8134 H   0  0  0  0  0  0  0  0  0  0  0  0
  -14.4864   11.0473   39.2354 C   0  0  0  0  0  0  0  0  0  0  0  0
  -15.6611   10.4596   38.6837 O   0  0  0  0  0  0  0  0  0  0  0  0
 20 21  1  0
  1 21  1  0
  1  2  1  0
  2  3  1  0
  2  4  1  0
  4  5  1  0
  4  6  1  0
  6  7  1  0
  7 10  1  0
 10 11  2  0
 11 12  1  0
 12 13  2  0
 13 14  1  0
 14 15  2  0
 15 16  1  0
 16 17  2  0
 17 18  1  0
  7  1  1  0
 18 10  1  0
 17 12  1  0
  3  8  1  0
  6  9  1  0
 18 19  1  0
M  END
> <minimizedAffinity>
-4.87040

> <CNNscore>
0.1858252138

> <CNNaffinity>
3.1687185764

> <CNN_VS>
0.5888277888

> <CNNaffinity_variance>
0.7610097528

$$$$
