


 14 14  0  0  0  0  0  0  0  0999 V2000
    5.4049   -7.0978    8.6661 C   0  0  0  0  0  0  0  0  0  0  0  0
    5.6229   -6.7437    7.3321 C   0  0  0  0  0  0  0  0  0  0  0  0
    4.5775   -6.2227    6.5621 C   0  0  0  0  0  0  0  0  0  0  0  0
    3.3121   -6.0642    7.1317 C   0  0  0  0  0  0  0  0  0  0  0  0
    3.0854   -6.4025    8.4667 C   0  0  0  0  0  0  0  0  0  0  0  0
    4.1343   -6.9234    9.2260 C   0  0  0  0  0  0  0  0  0  0  0  0
    1.9807   -5.4017    6.1671 S   0  0  0  0  0  0  0  0  0  0  0  0
    1.0242   -4.6914    7.3579 N   0  0  0  0  0  0  0  0  0  0  0  0
    1.1982   -6.4998    5.6476 O   0  0  0  0  0  0  0  0  0  0  0  0
    2.5032   -4.3515    5.3269 O   0  0  0  0  0  0  0  0  0  0  0  0
    0.6431   -5.4167    7.9654 H   0  0  0  0  0  0  0  0  0  0  0  0
    0.2593   -4.1791    6.9188 H   0  0  0  0  0  0  0  0  0  0  0  0
    7.4201   -6.7723    9.8872 C   0  0  0  0  0  0  0  0  0  0  0  0
    6.3361   -7.6176    9.5217 O   0  0  0  0  0  0  0  0  0  0  0  0
 13 14  1  0
 14  1  1  0
  1  2  2  0
  2  3  1  0
  3  4  2  0
  4  7  1  0
  7  8  1  0
  7  9  2  0
  7 10  2  0
  4  5  1  0
  5  6  2  0
  6  1  1  0
  8 11  1  0
  8 12  1  0
M  END
> <minimizedAffinity>
-6.70963

> <CNNscore>
0.9643291235

> <CNNaffinity>
4.5360646248

> <CNN_VS>
4.3742589951

> <CNNaffinity_variance>
0.3539742231

$$$$



 14 14  0  0  0  0  0  0  0  0999 V2000
    5.5507   -7.0509    8.7666 C   0  0  0  0  0  0  0  0  0  0  0  0
    4.3052   -6.7913    9.3442 C   0  0  0  0  0  0  0  0  0  0  0  0
    3.2592   -6.2857    8.5648 C   0  0  0  0  0  0  0  0  0  0  0  0
    3.4681   -6.0351    7.2067 C   0  0  0  0  0  0  0  0  0  0  0  0
    4.7040   -6.3022    6.6158 C   0  0  0  0  0  0  0  0  0  0  0  0
    5.7418   -6.8047    7.4024 C   0  0  0  0  0  0  0  0  0  0  0  0
    2.1494   -5.3978    6.2082 S   0  0  0  0  0  0  0  0  0  0  0  0
    1.1074   -4.7832    7.3802 N   0  0  0  0  0  0  0  0  0  0  0  0
    1.4458   -6.5097    5.6110 O   0  0  0  0  0  0  0  0  0  0  0  0
    2.6560   -4.2904    5.4343 O   0  0  0  0  0  0  0  0  0  0  0  0
    0.7361   -5.5501    7.9409 H   0  0  0  0  0  0  0  0  0  0  0  0
    0.3382   -4.2903    6.9265 H   0  0  0  0  0  0  0  0  0  0  0  0
    7.7917   -7.8346    8.6185 C   0  0  0  0  0  0  0  0  0  0  0  0
    6.6504   -7.5406    9.4149 O   0  0  0  0  0  0  0  0  0  0  0  0
 13 14  1  0
 14  1  1  0
  1  2  2  0
  2  3  1  0
  3  4  2  0
  4  7  1  0
  7  8  1  0
  7  9  2  0
  7 10  2  0
  4  5  1  0
  5  6  2  0
  6  1  1  0
  8 11  1  0
  8 12  1  0
M  END
> <minimizedAffinity>
-6.61009

> <CNNscore>
0.9507008791

> <CNNaffinity>
4.4591293335

> <CNN_VS>
4.2392983437

> <CNNaffinity_variance>
0.2544639409

$$$$



 14 14  0  0  0  0  0  0  0  0999 V2000
    5.2768   -7.0250    8.6412 C   0  0  0  0  0  0  0  0  0  0  0  0
    5.5329   -6.6751    7.3129 C   0  0  0  0  0  0  0  0  0  0  0  0
    4.5137   -6.1426    6.5160 C   0  0  0  0  0  0  0  0  0  0  0  0
    3.2363   -5.9685    7.0531 C   0  0  0  0  0  0  0  0  0  0  0  0
    2.9716   -6.3025    8.3821 C   0  0  0  0  0  0  0  0  0  0  0  0
    3.9945   -6.8349    9.1684 C   0  0  0  0  0  0  0  0  0  0  0  0
    1.9378   -5.2914    6.0542 S   0  0  0  0  0  0  0  0  0  0  0  0
    2.4650   -3.7050    5.8479 N   0  0  0  0  0  0  0  0  0  0  0  0
    0.7402   -5.1987    6.8575 O   0  0  0  0  0  0  0  0  0  0  0  0
    1.9639   -5.9430    4.7671 O   0  0  0  0  0  0  0  0  0  0  0  0
    2.4549   -3.2237    6.7472 H   0  0  0  0  0  0  0  0  0  0  0  0
    1.8453   -3.2227    5.1971 H   0  0  0  0  0  0  0  0  0  0  0  0
    7.3242   -6.7667    9.8243 C   0  0  0  0  0  0  0  0  0  0  0  0
    6.1797   -7.5548    9.5207 O   0  0  0  0  0  0  0  0  0  0  0  0
 13 14  1  0
 14  1  1  0
  1  2  2  0
  2  3  1  0
  3  4  2  0
  4  7  1  0
  7  8  1  0
  7  9  2  0
  7 10  2  0
  4  5  1  0
  5  6  2  0
  6  1  1  0
  8 11  1  0
  8 12  1  0
M  END
> <minimizedAffinity>
-6.52607

> <CNNscore>
0.9461705089

> <CNNaffinity>
4.5915579796

> <CNN_VS>
4.3443965912

> <CNNaffinity_variance>
0.1770645380

$$$$



 14 14  0  0  0  0  0  0  0  0999 V2000
    6.4969   -7.0445    9.3800 C   0  0  0  0  0  0  0  0  0  0  0  0
    6.6840   -6.9936    7.9963 C   0  0  0  0  0  0  0  0  0  0  0  0
    5.6020   -6.7327    7.1486 C   0  0  0  0  0  0  0  0  0  0  0  0
    4.3316   -6.5297    7.6922 C   0  0  0  0  0  0  0  0  0  0  0  0
    4.1347   -6.5657    9.0735 C   0  0  0  0  0  0  0  0  0  0  0  0
    5.2201   -6.8287    9.9106 C   0  0  0  0  0  0  0  0  0  0  0  0
    2.9537   -6.1948    6.6285 S   0  0  0  0  0  0  0  0  0  0  0  0
    3.5996   -5.0284    5.5992 N   0  0  0  0  0  0  0  0  0  0  0  0
    1.9362   -5.5126    7.3948 O   0  0  0  0  0  0  0  0  0  0  0  0
    2.6797   -7.3777    5.8490 O   0  0  0  0  0  0  0  0  0  0  0  0
    3.8017   -4.1811    6.1299 H   0  0  0  0  0  0  0  0  0  0  0  0
    2.9274   -4.8157    4.8621 H   0  0  0  0  0  0  0  0  0  0  0  0
    7.7617   -8.6551   10.5900 C   0  0  0  0  0  0  0  0  0  0  0  0
    7.4653   -7.2919   10.3130 O   0  0  0  0  0  0  0  0  0  0  0  0
 13 14  1  0
 14  1  1  0
  1  2  2  0
  2  3  1  0
  3  4  2  0
  4  7  1  0
  7  8  1  0
  7  9  2  0
  7 10  2  0
  4  5  1  0
  5  6  2  0
  6  1  1  0
  8 11  1  0
  8 12  1  0
M  END
> <minimizedAffinity>
-6.79039

> <CNNscore>
0.9240075946

> <CNNaffinity>
4.2720088959

> <CNN_VS>
3.9473686218

> <CNNaffinity_variance>
0.2578231394

$$$$



 14 14  0  0  0  0  0  0  0  0999 V2000
    4.9226   -6.6191    9.0603 C   0  0  0  0  0  0  0  0  0  0  0  0
    5.6160   -7.1349   10.1582 C   0  0  0  0  0  0  0  0  0  0  0  0
    6.9034   -7.6580    9.9955 C   0  0  0  0  0  0  0  0  0  0  0  0
    7.4900   -7.6682    8.7281 C   0  0  0  0  0  0  0  0  0  0  0  0
    6.8123   -7.1444    7.6262 C   0  0  0  0  0  0  0  0  0  0  0  0
    5.5276   -6.6267    7.7984 C   0  0  0  0  0  0  0  0  0  0  0  0
    9.1219   -8.3250    8.5102 S   0  0  0  0  0  0  0  0  0  0  0  0
    9.5882   -7.5940    7.0661 N   0  0  0  0  0  0  0  0  0  0  0  0
    9.0145   -9.7348    8.2121 O   0  0  0  0  0  0  0  0  0  0  0  0
    9.9651   -7.8137    9.5636 O   0  0  0  0  0  0  0  0  0  0  0  0
    9.0043   -7.9412    6.3052 H   0  0  0  0  0  0  0  0  0  0  0  0
   10.5651   -7.8151    6.8730 H   0  0  0  0  0  0  0  0  0  0  0  0
    3.1449   -5.6018    7.8508 C   0  0  0  0  0  0  0  0  0  0  0  0
    3.6645   -6.0844    9.0837 O   0  0  0  0  0  0  0  0  0  0  0  0
 13 14  1  0
 14  1  1  0
  1  2  2  0
  2  3  1  0
  3  4  2  0
  4  7  1  0
  7  8  1  0
  7  9  2  0
  7 10  2  0
  4  5  1  0
  5  6  2  0
  6  1  1  0
  8 11  1  0
  8 12  1  0
M  END
> <minimizedAffinity>
-7.06638

> <CNNscore>
0.8820354342

> <CNNaffinity>
4.2706828117

> <CNN_VS>
3.7668936253

> <CNNaffinity_variance>
0.5864667296

$$$$



 14 14  0  0  0  0  0  0  0  0999 V2000
    3.4992   -6.1321    7.8412 C   0  0  0  0  0  0  0  0  0  0  0  0
    4.4737   -6.2528    6.8471 C   0  0  0  0  0  0  0  0  0  0  0  0
    5.7442   -6.7464    7.1628 C   0  0  0  0  0  0  0  0  0  0  0  0
    6.0361   -7.1119    8.4788 C   0  0  0  0  0  0  0  0  0  0  0  0
    5.0670   -7.0077    9.4779 C   0  0  0  0  0  0  0  0  0  0  0  0
    3.8032   -6.5122    9.1532 C   0  0  0  0  0  0  0  0  0  0  0  0
    7.6410   -7.7419    8.8903 S   0  0  0  0  0  0  0  0  0  0  0  0
    8.5108   -7.3839    7.4929 N   0  0  0  0  0  0  0  0  0  0  0  0
    7.5699   -9.1842    8.9417 O   0  0  0  0  0  0  0  0  0  0  0  0
    8.1805   -6.9497    9.9689 O   0  0  0  0  0  0  0  0  0  0  0  0
    8.1460   -7.9338    6.7151 H   0  0  0  0  0  0  0  0  0  0  0  0
    9.4948   -7.6105    7.6375 H   0  0  0  0  0  0  0  0  0  0  0  0
    1.6514   -5.8254    6.3752 C   0  0  0  0  0  0  0  0  0  0  0  0
    2.2266   -5.6640    7.6659 O   0  0  0  0  0  0  0  0  0  0  0  0
 13 14  1  0
 14  1  1  0
  1  2  2  0
  2  3  1  0
  3  4  2  0
  4  7  1  0
  7  8  1  0
  7  9  2  0
  7 10  2  0
  4  5  1  0
  5  6  2  0
  6  1  1  0
  8 11  1  0
  8 12  1  0
M  END
> <minimizedAffinity>
-6.89059

> <CNNscore>
0.8765861392

> <CNNaffinity>
4.3708038330

> <CNN_VS>
3.8313860893

> <CNNaffinity_variance>
1.0836523771

$$$$



 14 14  0  0  0  0  0  0  0  0999 V2000
    9.8234   -3.9423   -2.5480 C   0  0  0  0  0  0  0  0  0  0  0  0
    8.5040   -3.8080   -2.9879 C   0  0  0  0  0  0  0  0  0  0  0  0
    7.6566   -4.9206   -3.0223 C   0  0  0  0  0  0  0  0  0  0  0  0
    8.1380   -6.1686   -2.6207 C   0  0  0  0  0  0  0  0  0  0  0  0
    9.4502   -6.3128   -2.1674 C   0  0  0  0  0  0  0  0  0  0  0  0
   10.2884   -5.1971   -2.1388 C   0  0  0  0  0  0  0  0  0  0  0  0
    7.0727   -7.5849   -2.6564 S   0  0  0  0  0  0  0  0  0  0  0  0
    7.2966   -8.2128   -1.1096 N   0  0  0  0  0  0  0  0  0  0  0  0
    7.6387   -8.5638   -3.5561 O   0  0  0  0  0  0  0  0  0  0  0  0
    5.7080   -7.1281   -2.7610 O   0  0  0  0  0  0  0  0  0  0  0  0
    8.2568   -8.5428   -1.0123 H   0  0  0  0  0  0  0  0  0  0  0  0
    6.6533   -8.9905   -0.9619 H   0  0  0  0  0  0  0  0  0  0  0  0
   10.3724   -1.7661   -1.7603 C   0  0  0  0  0  0  0  0  0  0  0  0
   10.7499   -2.9399   -2.4692 O   0  0  0  0  0  0  0  0  0  0  0  0
 13 14  1  0
 14  1  1  0
  1  2  2  0
  2  3  1  0
  3  4  2  0
  4  7  1  0
  7  8  1  0
  7  9  2  0
  7 10  2  0
  4  5  1  0
  5  6  2  0
  6  1  1  0
  8 11  1  0
  8 12  1  0
M  END
> <minimizedAffinity>
-3.16767

> <CNNscore>
0.8682286143

> <CNNaffinity>
3.5092906952

> <CNN_VS>
3.0468666553

> <CNNaffinity_variance>
0.1405555308

$$$$



 14 14  0  0  0  0  0  0  0  0999 V2000
    4.0126   -6.0948    7.5932 C   0  0  0  0  0  0  0  0  0  0  0  0
    3.9879   -6.4765    8.9371 C   0  0  0  0  0  0  0  0  0  0  0  0
    5.1012   -7.0978    9.5132 C   0  0  0  0  0  0  0  0  0  0  0  0
    6.2360   -7.3409    8.7361 C   0  0  0  0  0  0  0  0  0  0  0  0
    6.2771   -6.9529    7.3960 C   0  0  0  0  0  0  0  0  0  0  0  0
    5.1606   -6.3355    6.8301 C   0  0  0  0  0  0  0  0  0  0  0  0
    7.6540   -8.1242    9.4557 S   0  0  0  0  0  0  0  0  0  0  0  0
    7.7555   -7.3362   10.9409 N   0  0  0  0  0  0  0  0  0  0  0  0
    8.8285   -7.7147    8.7204 O   0  0  0  0  0  0  0  0  0  0  0  0
    7.3343   -9.5091    9.7045 O   0  0  0  0  0  0  0  0  0  0  0  0
    7.9811   -6.3531   10.7895 H   0  0  0  0  0  0  0  0  0  0  0  0
    8.4855   -7.7694   11.5065 H   0  0  0  0  0  0  0  0  0  0  0  0
    2.0677   -6.3315    6.2445 C   0  0  0  0  0  0  0  0  0  0  0  0
    2.9955   -5.4853    6.9124 O   0  0  0  0  0  0  0  0  0  0  0  0
 13 14  1  0
 14  1  1  0
  1  2  2  0
  2  3  1  0
  3  4  2  0
  4  7  1  0
  7  8  1  0
  7  9  2  0
  7 10  2  0
  4  5  1  0
  5  6  2  0
  6  1  1  0
  8 11  1  0
  8 12  1  0
M  END
> <minimizedAffinity>
-6.47004

> <CNNscore>
0.8653299212

> <CNNaffinity>
3.7467708588

> <CNN_VS>
3.2421929836

> <CNNaffinity_variance>
0.7511647344

$$$$



 14 14  0  0  0  0  0  0  0  0999 V2000
    3.8175   -6.2361    8.4249 C   0  0  0  0  0  0  0  0  0  0  0  0
    2.6963   -5.4024    8.4339 C   0  0  0  0  0  0  0  0  0  0  0  0
    1.8750   -5.3147    7.3047 C   0  0  0  0  0  0  0  0  0  0  0  0
    2.1853   -6.0601    6.1650 C   0  0  0  0  0  0  0  0  0  0  0  0
    3.2954   -6.9058    6.1485 C   0  0  0  0  0  0  0  0  0  0  0  0
    4.1097   -6.9848    7.2793 C   0  0  0  0  0  0  0  0  0  0  0  0
    1.1502   -5.9600    4.7295 S   0  0  0  0  0  0  0  0  0  0  0  0
    0.6109   -7.5498    4.5927 N   0  0  0  0  0  0  0  0  0  0  0  0
    1.9875   -5.7356    3.5734 O   0  0  0  0  0  0  0  0  0  0  0  0
    0.0142   -5.1270    5.0420 O   0  0  0  0  0  0  0  0  0  0  0  0
    1.3990   -8.1584    4.3715 H   0  0  0  0  0  0  0  0  0  0  0  0
   -0.0845   -7.6101    3.8489 H   0  0  0  0  0  0  0  0  0  0  0  0
    5.9800   -6.9322    9.1300 C   0  0  0  0  0  0  0  0  0  0  0  0
    4.6983   -6.4090    9.4563 O   0  0  0  0  0  0  0  0  0  0  0  0
 13 14  1  0
 14  1  1  0
  1  2  2  0
  2  3  1  0
  3  4  2  0
  4  7  1  0
  7  8  1  0
  7  9  2  0
  7 10  2  0
  4  5  1  0
  5  6  2  0
  6  1  1  0
  8 11  1  0
  8 12  1  0
M  END
> <minimizedAffinity>
-5.61489

> <CNNscore>
0.8629733324

> <CNNaffinity>
3.9900290966

> <CNN_VS>
3.4432888031

> <CNNaffinity_variance>
0.3481100798

$$$$
