


 22 22  0  0  0  0  0  0  0  0999 V2000
    6.8065  -11.0808    4.1975 C   0  0  0  0  0  0  0  0  0  0  0  0
    7.9015  -12.0854    4.2095 N   0  0  0  0  0  0  0  0  0  0  0  0
    7.4758  -13.4647    4.4485 C   0  0  0  0  0  0  0  0  0  0  0  0
    6.8255  -14.2152    3.2719 C   0  0  0  0  0  0  0  0  0  0  0  0
    5.5961  -13.4765    2.6853 C   0  0  0  0  0  0  0  0  0  0  0  0
    6.0247  -12.1807    1.9363 C   0  0  0  0  0  0  0  0  0  0  0  0
    6.0571  -10.9290    2.8454 C   0  0  0  0  0  0  0  0  0  0  0  0
    8.5601  -11.8262    4.9440 H   0  0  0  0  0  0  0  0  0  0  0  0
    4.8403  -14.3799    1.7945 N   0  0  0  0  0  0  0  0  0  0  0  0
    5.4474  -14.9940    0.7219 C   0  0  0  0  0  0  0  0  0  0  0  0
    4.5824  -16.0174    0.0367 C   0  0  0  0  0  0  0  0  0  0  0  0
    6.5883  -14.7497    0.3401 O   0  0  0  0  0  0  0  0  0  0  0  0
    3.8859  -14.5459    1.9704 H   0  0  0  0  0  0  0  0  0  0  0  0
    6.3875  -15.5084    3.7502 O   0  0  0  0  0  0  0  0  0  0  0  0
    7.2785  -16.5662    3.4238 C   0  0  0  0  0  0  0  0  0  0  0  0
    5.0658  -11.9201    0.8721 O   0  0  0  0  0  0  0  0  0  0  0  0
    3.8310  -11.3972    1.3421 C   0  0  0  0  0  0  0  0  0  0  0  0
    6.7062   -9.8747    2.0856 O   0  0  0  0  0  0  0  0  0  0  0  0
    7.8528  -10.3320    1.3788 C   0  0  0  0  0  0  0  0  0  0  0  0
    5.8227  -11.1494    5.3927 C   0  0  0  0  0  0  0  0  0  0  0  0
    7.1001  -10.0305    7.0316 C   0  0  0  0  0  0  0  0  0  0  0  0
    5.9616   -9.9606    6.1822 O   0  0  0  0  0  0  0  0  0  0  0  0
 21 22  1  0
 22 20  1  0
  1 20  1  0
  1  2  1  0
  2  3  1  0
  3  4  1  0
  4 14  1  0
 14 15  1  0
  4  5  1  0
  5  9  1  0
  9 10  1  0
 10 11  1  0
 10 12  2  0
  5  6  1  0
  6 16  1  0
 16 17  1  0
  6  7  1  0
  7 18  1  0
 18 19  1  0
  7  1  1  0
  2  8  1  0
  9 13  1  0
M  END
> <minimizedAffinity>
-5.71363

> <CNNscore>
0.6308417320

> <CNNaffinity>
5.2865185738

> <CNN_VS>
3.3349566460

> <CNNaffinity_variance>
1.1772437096

$$$$



 22 22  0  0  0  0  0  0  0  0999 V2000
    9.2942  -17.8121   -2.3181 C   0  0  0  0  0  0  0  0  0  0  0  0
    9.5446  -18.9204   -1.3602 N   0  0  0  0  0  0  0  0  0  0  0  0
    9.9831  -18.5023   -0.0284 C   0  0  0  0  0  0  0  0  0  0  0  0
    8.9092  -17.9463    0.9246 C   0  0  0  0  0  0  0  0  0  0  0  0
    8.1293  -16.7476    0.3278 C   0  0  0  0  0  0  0  0  0  0  0  0
    7.2033  -17.2046   -0.8373 C   0  0  0  0  0  0  0  0  0  0  0  0
    7.8903  -17.1543   -2.2227 C   0  0  0  0  0  0  0  0  0  0  0  0
   10.2662  -19.5230   -1.7558 H   0  0  0  0  0  0  0  0  0  0  0  0
    7.3553  -16.0693    1.3870 N   0  0  0  0  0  0  0  0  0  0  0  0
    6.4751  -16.7673    2.1833 C   0  0  0  0  0  0  0  0  0  0  0  0
    5.9145  -15.9605    3.3234 C   0  0  0  0  0  0  0  0  0  0  0  0
    6.1609  -17.9404    2.0036 O   0  0  0  0  0  0  0  0  0  0  0  0
    7.4707  -15.1016    1.5262 H   0  0  0  0  0  0  0  0  0  0  0  0
    9.5678  -17.4982    2.1323 O   0  0  0  0  0  0  0  0  0  0  0  0
   10.9773  -17.3764    1.9987 C   0  0  0  0  0  0  0  0  0  0  0  0
    6.0509  -16.3163   -0.8911 O   0  0  0  0  0  0  0  0  0  0  0  0
    6.2890  -15.1294   -1.6351 C   0  0  0  0  0  0  0  0  0  0  0  0
    7.0082  -17.8360   -3.1541 O   0  0  0  0  0  0  0  0  0  0  0  0
    7.1896  -17.4067   -4.4980 C   0  0  0  0  0  0  0  0  0  0  0  0
   10.4181  -16.7505   -2.4214 C   0  0  0  0  0  0  0  0  0  0  0  0
   10.8338  -15.6326   -4.4578 C   0  0  0  0  0  0  0  0  0  0  0  0
   11.0223  -16.8331   -3.7191 O   0  0  0  0  0  0  0  0  0  0  0  0
 21 22  1  0
 22 20  1  0
  1 20  1  0
  1  2  1  0
  2  3  1  0
  3  4  1  0
  4 14  1  0
 14 15  1  0
  4  5  1  0
  5  9  1  0
  9 10  1  0
 10 11  1  0
 10 12  2  0
  5  6  1  0
  6 16  1  0
 16 17  1  0
  6  7  1  0
  7 18  1  0
 18 19  1  0
  7  1  1  0
  2  8  1  0
  9 13  1  0
M  END
> <minimizedAffinity>
-3.64956

> <CNNscore>
0.3310193419

> <CNNaffinity>
4.0301470757

> <CNN_VS>
1.3340566158

> <CNNaffinity_variance>
0.2101534009

$$$$



 22 22  0  0  0  0  0  0  0  0999 V2000
   11.6362  -20.1714   13.6258 C   0  0  0  0  0  0  0  0  0  0  0  0
   11.3052  -21.5342   14.1174 N   0  0  0  0  0  0  0  0  0  0  0  0
    9.9508  -21.6902   14.6487 C   0  0  0  0  0  0  0  0  0  0  0  0
    8.8023  -21.7994   13.6292 C   0  0  0  0  0  0  0  0  0  0  0  0
    8.7479  -20.6035   12.6451 C   0  0  0  0  0  0  0  0  0  0  0  0
    9.9504  -20.6348   11.6568 C   0  0  0  0  0  0  0  0  0  0  0  0
   11.1876  -19.8612   12.1714 C   0  0  0  0  0  0  0  0  0  0  0  0
   11.9646  -21.7716   14.8585 H   0  0  0  0  0  0  0  0  0  0  0  0
    7.4624  -20.6042   11.9182 N   0  0  0  0  0  0  0  0  0  0  0  0
    6.9942  -21.7426   11.3009 C   0  0  0  0  0  0  0  0  0  0  0  0
    5.5920  -21.6141   10.7697 C   0  0  0  0  0  0  0  0  0  0  0  0
    7.6393  -22.7804   11.1830 O   0  0  0  0  0  0  0  0  0  0  0  0
    6.9310  -19.7766   11.8742 H   0  0  0  0  0  0  0  0  0  0  0  0
    7.5542  -21.8381   14.3598 O   0  0  0  0  0  0  0  0  0  0  0  0
    7.6941  -22.2923   15.6990 C   0  0  0  0  0  0  0  0  0  0  0  0
    9.5398  -20.0146   10.4052 O   0  0  0  0  0  0  0  0  0  0  0  0
    9.8292  -20.8075    9.2621 C   0  0  0  0  0  0  0  0  0  0  0  0
   12.2876  -20.1875   11.2805 O   0  0  0  0  0  0  0  0  0  0  0  0
   13.5581  -20.0705   11.9094 C   0  0  0  0  0  0  0  0  0  0  0  0
   11.2912  -19.0098   14.5915 C   0  0  0  0  0  0  0  0  0  0  0  0
   13.0912  -17.9989   15.7351 C   0  0  0  0  0  0  0  0  0  0  0  0
   12.1601  -19.0739   15.7303 O   0  0  0  0  0  0  0  0  0  0  0  0
 21 22  1  0
 22 20  1  0
  1 20  1  0
  1  2  1  0
  2  3  1  0
  3  4  1  0
  4 14  1  0
 14 15  1  0
  4  5  1  0
  5  9  1  0
  9 10  1  0
 10 11  1  0
 10 12  2  0
  5  6  1  0
  6 16  1  0
 16 17  1  0
  6  7  1  0
  7 18  1  0
 18 19  1  0
  7  1  1  0
  2  8  1  0
  9 13  1  0
M  END
> <minimizedAffinity>
-3.82531

> <CNNscore>
0.3014706969

> <CNNaffinity>
3.2892892361

> <CNN_VS>
0.9916242957

> <CNNaffinity_variance>
0.7275285721

$$$$



 22 22  0  0  0  0  0  0  0  0999 V2000
    4.8140  -11.5918    2.4732 C   0  0  0  0  0  0  0  0  0  0  0  0
    3.7989  -12.6450    2.2114 N   0  0  0  0  0  0  0  0  0  0  0  0
    4.2134  -13.6863    1.2708 C   0  0  0  0  0  0  0  0  0  0  0  0
    5.1736  -14.7689    1.7965 C   0  0  0  0  0  0  0  0  0  0  0  0
    6.4761  -14.1847    2.3995 C   0  0  0  0  0  0  0  0  0  0  0  0
    6.1915  -13.4447    3.7393 C   0  0  0  0  0  0  0  0  0  0  0  0
    5.8729  -11.9419    3.5544 C   0  0  0  0  0  0  0  0  0  0  0  0
    2.9649  -12.1936    1.8357 H   0  0  0  0  0  0  0  0  0  0  0  0
    7.4731  -15.2579    2.5866 N   0  0  0  0  0  0  0  0  0  0  0  0
    7.1808  -16.3797    3.3298 C   0  0  0  0  0  0  0  0  0  0  0  0
    8.2391  -17.4475    3.2622 C   0  0  0  0  0  0  0  0  0  0  0  0
    6.1578  -16.5222    3.9933 O   0  0  0  0  0  0  0  0  0  0  0  0
    8.3621  -15.1699    2.1728 H   0  0  0  0  0  0  0  0  0  0  0  0
    5.5355  -15.6258    0.6885 O   0  0  0  0  0  0  0  0  0  0  0  0
    6.0176  -14.9161   -0.4443 C   0  0  0  0  0  0  0  0  0  0  0  0
    7.3751  -13.5374    4.5822 O   0  0  0  0  0  0  0  0  0  0  0  0
    8.2369  -12.4134    4.4687 C   0  0  0  0  0  0  0  0  0  0  0  0
    5.3891  -11.4544    4.8344 O   0  0  0  0  0  0  0  0  0  0  0  0
    6.1706  -10.3812    5.3453 C   0  0  0  0  0  0  0  0  0  0  0  0
    5.4660  -10.9637    1.2156 C   0  0  0  0  0  0  0  0  0  0  0  0
    7.7127  -10.2641    1.3954 C   0  0  0  0  0  0  0  0  0  0  0  0
    6.8420  -11.3621    1.1531 O   0  0  0  0  0  0  0  0  0  0  0  0
 21 22  1  0
 22 20  1  0
  1 20  1  0
  1  2  1  0
  2  3  1  0
  3  4  1  0
  4 14  1  0
 14 15  1  0
  4  5  1  0
  5  9  1  0
  9 10  1  0
 10 11  1  0
 10 12  2  0
  5  6  1  0
  6 16  1  0
 16 17  1  0
  6  7  1  0
  7 18  1  0
 18 19  1  0
  7  1  1  0
  2  8  1  0
  9 13  1  0
M  END
> <minimizedAffinity>
-5.66647

> <CNNscore>
0.2621561289

> <CNNaffinity>
3.8792362213

> <CNN_VS>
1.0169655085

> <CNNaffinity_variance>
1.6894470453

$$$$



 22 22  0  0  0  0  0  0  0  0999 V2000
    6.3279  -18.5637   -3.4910 C   0  0  0  0  0  0  0  0  0  0  0  0
    6.7499  -17.9043   -4.7541 N   0  0  0  0  0  0  0  0  0  0  0  0
    7.5759  -16.7086   -4.5840 C   0  0  0  0  0  0  0  0  0  0  0  0
    9.0572  -16.9211   -4.2220 C   0  0  0  0  0  0  0  0  0  0  0  0
    9.2535  -17.7707   -2.9409 C   0  0  0  0  0  0  0  0  0  0  0  0
    8.8503  -19.2545   -3.1843 C   0  0  0  0  0  0  0  0  0  0  0  0
    7.3624  -19.5446   -2.8742 C   0  0  0  0  0  0  0  0  0  0  0  0
    5.9098  -17.6377   -5.2675 H   0  0  0  0  0  0  0  0  0  0  0  0
   10.6514  -17.6693   -2.4757 N   0  0  0  0  0  0  0  0  0  0  0  0
   10.9571  -17.1052   -1.2573 C   0  0  0  0  0  0  0  0  0  0  0  0
   12.4026  -17.2510   -0.8645 C   0  0  0  0  0  0  0  0  0  0  0  0
   10.1445  -16.5323   -0.5371 O   0  0  0  0  0  0  0  0  0  0  0  0
   11.3773  -18.0109   -3.0464 H   0  0  0  0  0  0  0  0  0  0  0  0
    9.6562  -15.6235   -3.9977 O   0  0  0  0  0  0  0  0  0  0  0  0
   10.8873  -15.4402   -4.6833 C   0  0  0  0  0  0  0  0  0  0  0  0
    9.6494  -20.1027   -2.3114 O   0  0  0  0  0  0  0  0  0  0  0  0
   10.4915  -21.0031   -3.0177 C   0  0  0  0  0  0  0  0  0  0  0  0
    7.0795  -20.8763   -3.3809 O   0  0  0  0  0  0  0  0  0  0  0  0
    7.3137  -20.9941   -4.7790 C   0  0  0  0  0  0  0  0  0  0  0  0
    5.7175  -17.6264   -2.4187 C   0  0  0  0  0  0  0  0  0  0  0  0
    6.2568  -15.5074   -1.5306 C   0  0  0  0  0  0  0  0  0  0  0  0
    6.0842  -16.2726   -2.7168 O   0  0  0  0  0  0  0  0  0  0  0  0
 21 22  1  0
 22 20  1  0
  1 20  1  0
  1  2  1  0
  2  3  1  0
  3  4  1  0
  4 14  1  0
 14 15  1  0
  4  5  1  0
  5  9  1  0
  9 10  1  0
 10 11  1  0
 10 12  2  0
  5  6  1  0
  6 16  1  0
 16 17  1  0
  6  7  1  0
  7 18  1  0
 18 19  1  0
  7  1  1  0
  2  8  1  0
  9 13  1  0
M  END
> <minimizedAffinity>
-3.74259

> <CNNscore>
0.2422182262

> <CNNaffinity>
3.0656287670

> <CNN_VS>
0.7425511479

> <CNNaffinity_variance>
0.8863905072

$$$$



 22 22  0  0  0  0  0  0  0  0999 V2000
    7.1711  -16.9349   -3.4307 C   0  0  0  0  0  0  0  0  0  0  0  0
    6.9178  -15.4986   -3.1456 N   0  0  0  0  0  0  0  0  0  0  0  0
    6.2476  -15.2272   -1.8735 C   0  0  0  0  0  0  0  0  0  0  0  0
    7.1018  -15.3109   -0.5953 C   0  0  0  0  0  0  0  0  0  0  0  0
    7.8133  -16.6775   -0.4287 C   0  0  0  0  0  0  0  0  0  0  0  0
    8.9434  -16.8543   -1.4848 C   0  0  0  0  0  0  0  0  0  0  0  0
    8.4602  -17.5227   -2.7940 C   0  0  0  0  0  0  0  0  0  0  0  0
    6.3356  -15.1255   -3.8954 H   0  0  0  0  0  0  0  0  0  0  0  0
    8.3433  -16.8082    0.9436 N   0  0  0  0  0  0  0  0  0  0  0  0
    7.8709  -17.7777    1.7998 C   0  0  0  0  0  0  0  0  0  0  0  0
    8.6468  -17.8854    3.0849 C   0  0  0  0  0  0  0  0  0  0  0  0
    6.9093  -18.5024    1.5608 O   0  0  0  0  0  0  0  0  0  0  0  0
    9.0463  -16.1916    1.2515 H   0  0  0  0  0  0  0  0  0  0  0  0
    6.2295  -15.1161    0.5423 O   0  0  0  0  0  0  0  0  0  0  0  0
    6.1344  -13.7610    0.9594 C   0  0  0  0  0  0  0  0  0  0  0  0
    9.9797  -17.7061   -0.9188 O   0  0  0  0  0  0  0  0  0  0  0  0
   11.2286  -17.0464   -0.7639 C   0  0  0  0  0  0  0  0  0  0  0  0
    9.5400  -17.3901   -3.7567 O   0  0  0  0  0  0  0  0  0  0  0  0
    9.9054  -16.0354   -3.9903 C   0  0  0  0  0  0  0  0  0  0  0  0
    5.9570  -17.8788   -3.2407 C   0  0  0  0  0  0  0  0  0  0  0  0
    5.7366  -20.1158   -3.9596 C   0  0  0  0  0  0  0  0  0  0  0  0
    5.8682  -18.7600   -4.3683 O   0  0  0  0  0  0  0  0  0  0  0  0
 21 22  1  0
 22 20  1  0
  1 20  1  0
  1  2  1  0
  2  3  1  0
  3  4  1  0
  4 14  1  0
 14 15  1  0
  4  5  1  0
  5  9  1  0
  9 10  1  0
 10 11  1  0
 10 12  2  0
  5  6  1  0
  6 16  1  0
 16 17  1  0
  6  7  1  0
  7 18  1  0
 18 19  1  0
  7  1  1  0
  2  8  1  0
  9 13  1  0
M  END
> <minimizedAffinity>
-4.18889

> <CNNscore>
0.2324974835

> <CNNaffinity>
3.1851704121

> <CNN_VS>
0.7405440807

> <CNNaffinity_variance>
1.4395065308

$$$$



 22 22  0  0  0  0  0  0  0  0999 V2000
    8.2923  -17.2048    2.1426 C   0  0  0  0  0  0  0  0  0  0  0  0
    9.4423  -16.3953    1.6624 N   0  0  0  0  0  0  0  0  0  0  0  0
   10.1631  -16.9578    0.5201 C   0  0  0  0  0  0  0  0  0  0  0  0
    9.5081  -16.8150   -0.8660 C   0  0  0  0  0  0  0  0  0  0  0  0
    8.0753  -17.4027   -0.9241 C   0  0  0  0  0  0  0  0  0  0  0  0
    7.0798  -16.5371   -0.0974 C   0  0  0  0  0  0  0  0  0  0  0  0
    6.9578  -16.9840    1.3789 C   0  0  0  0  0  0  0  0  0  0  0  0
   10.1020  -16.2948    2.4339 H   0  0  0  0  0  0  0  0  0  0  0  0
    7.6346  -17.5242   -2.3284 N   0  0  0  0  0  0  0  0  0  0  0  0
    7.6847  -16.4479   -3.1859 C   0  0  0  0  0  0  0  0  0  0  0  0
    7.3744  -16.7951   -4.6171 C   0  0  0  0  0  0  0  0  0  0  0  0
    7.9567  -15.3015   -2.8415 O   0  0  0  0  0  0  0  0  0  0  0  0
    7.2993  -18.3895   -2.6571 H   0  0  0  0  0  0  0  0  0  0  0  0
   10.3252  -17.5258   -1.8252 O   0  0  0  0  0  0  0  0  0  0  0  0
   11.3636  -16.7331   -2.3844 C   0  0  0  0  0  0  0  0  0  0  0  0
    5.7574  -16.6499   -0.6962 O   0  0  0  0  0  0  0  0  0  0  0  0
    5.0322  -17.7875   -0.2500 C   0  0  0  0  0  0  0  0  0  0  0  0
    6.2078  -15.9498    2.0703 O   0  0  0  0  0  0  0  0  0  0  0  0
    6.0315  -16.2300    3.4537 C   0  0  0  0  0  0  0  0  0  0  0  0
    8.5813  -18.7105    2.3668 C   0  0  0  0  0  0  0  0  0  0  0  0
    9.9207  -18.8118    4.3072 C   0  0  0  0  0  0  0  0  0  0  0  0
    8.6121  -18.9766    3.7754 O   0  0  0  0  0  0  0  0  0  0  0  0
 21 22  1  0
 22 20  1  0
  1 20  1  0
  1  2  1  0
  2  3  1  0
  3  4  1  0
  4 14  1  0
 14 15  1  0
  4  5  1  0
  5  9  1  0
  9 10  1  0
 10 11  1  0
 10 12  2  0
  5  6  1  0
  6 16  1  0
 16 17  1  0
  6  7  1  0
  7 18  1  0
 18 19  1  0
  7  1  1  0
  2  8  1  0
  9 13  1  0
M  END
> <minimizedAffinity>
-4.13102

> <CNNscore>
0.2185078114

> <CNNaffinity>
3.2299079895

> <CNN_VS>
0.7057601213

> <CNNaffinity_variance>
0.9731049538

$$$$



 22 22  0  0  0  0  0  0  0  0999 V2000
    7.1913  -17.6672    1.6510 C   0  0  0  0  0  0  0  0  0  0  0  0
    6.5261  -17.5287    2.9726 N   0  0  0  0  0  0  0  0  0  0  0  0
    6.8621  -16.3116    3.7120 C   0  0  0  0  0  0  0  0  0  0  0  0
    6.1900  -15.0030    3.2576 C   0  0  0  0  0  0  0  0  0  0  0  0
    6.4331  -14.6832    1.7609 C   0  0  0  0  0  0  0  0  0  0  0  0
    5.6659  -15.6789    0.8425 C   0  0  0  0  0  0  0  0  0  0  0  0
    6.4919  -16.9342    0.4736 C   0  0  0  0  0  0  0  0  0  0  0  0
    6.7914  -18.3298    3.5455 H   0  0  0  0  0  0  0  0  0  0  0  0
    6.0460  -13.2876    1.4721 N   0  0  0  0  0  0  0  0  0  0  0  0
    4.7268  -12.8938    1.5031 C   0  0  0  0  0  0  0  0  0  0  0  0
    4.5319  -11.4077    1.3675 C   0  0  0  0  0  0  0  0  0  0  0  0
    3.7784  -13.6628    1.6307 O   0  0  0  0  0  0  0  0  0  0  0  0
    6.7430  -12.6275    1.2537 H   0  0  0  0  0  0  0  0  0  0  0  0
    6.7377  -13.9192    4.0441 O   0  0  0  0  0  0  0  0  0  0  0  0
    6.5807  -12.6430    3.4393 C   0  0  0  0  0  0  0  0  0  0  0  0
    5.3289  -14.9998   -0.4005 O   0  0  0  0  0  0  0  0  0  0  0  0
    6.3183  -15.1481   -1.4095 C   0  0  0  0  0  0  0  0  0  0  0  0
    5.5769  -17.8681   -0.1596 O   0  0  0  0  0  0  0  0  0  0  0  0
    6.2348  -19.0196   -0.6739 C   0  0  0  0  0  0  0  0  0  0  0  0
    8.7225  -17.4295    1.6447 C   0  0  0  0  0  0  0  0  0  0  0  0
    9.8753  -19.2484    2.6101 C   0  0  0  0  0  0  0  0  0  0  0  0
    9.3887  -18.6759    1.4027 O   0  0  0  0  0  0  0  0  0  0  0  0
 21 22  1  0
 22 20  1  0
  1 20  1  0
  1  2  1  0
  2  3  1  0
  3  4  1  0
  4 14  1  0
 14 15  1  0
  4  5  1  0
  5  9  1  0
  9 10  1  0
 10 11  1  0
 10 12  2  0
  5  6  1  0
  6 16  1  0
 16 17  1  0
  6  7  1  0
  7 18  1  0
 18 19  1  0
  7  1  1  0
  2  8  1  0
  9 13  1  0
M  END
> <minimizedAffinity>
-5.08790

> <CNNscore>
0.1883426458

> <CNNaffinity>
3.4034559727

> <CNN_VS>
0.6410158873

> <CNNaffinity_variance>
1.0353250504

$$$$



 22 22  0  0  0  0  0  0  0  0999 V2000
    2.9000  -20.1180   -1.6643 C   0  0  0  0  0  0  0  0  0  0  0  0
    3.4525  -21.3863   -2.2073 N   0  0  0  0  0  0  0  0  0  0  0  0
    4.0289  -21.2880   -3.5485 C   0  0  0  0  0  0  0  0  0  0  0  0
    5.4247  -20.6497   -3.6705 C   0  0  0  0  0  0  0  0  0  0  0  0
    5.4971  -19.2267   -3.0612 C   0  0  0  0  0  0  0  0  0  0  0  0
    5.3896  -19.2747   -1.5088 C   0  0  0  0  0  0  0  0  0  0  0  0
    3.9349  -19.1753   -0.9913 C   0  0  0  0  0  0  0  0  0  0  0  0
    2.6983  -22.0724   -2.2369 H   0  0  0  0  0  0  0  0  0  0  0  0
    6.7422  -18.5564   -3.4872 N   0  0  0  0  0  0  0  0  0  0  0  0
    6.7136  -17.4814   -4.3474 C   0  0  0  0  0  0  0  0  0  0  0  0
    8.0485  -16.8103   -4.5273 C   0  0  0  0  0  0  0  0  0  0  0  0
    5.7058  -17.0849   -4.9253 O   0  0  0  0  0  0  0  0  0  0  0  0
    7.6074  -18.8837   -3.1504 H   0  0  0  0  0  0  0  0  0  0  0  0
    5.7548  -20.5548   -5.0758 O   0  0  0  0  0  0  0  0  0  0  0  0
    5.1468  -21.5632   -5.8713 C   0  0  0  0  0  0  0  0  0  0  0  0
    6.1254  -18.1462   -0.9566 O   0  0  0  0  0  0  0  0  0  0  0  0
    7.2214  -18.5338   -0.1396 C   0  0  0  0  0  0  0  0  0  0  0  0
    3.9716  -19.4849    0.4275 O   0  0  0  0  0  0  0  0  0  0  0  0
    4.4793  -20.7868    0.6935 C   0  0  0  0  0  0  0  0  0  0  0  0
    1.9501  -19.3425   -2.6115 C   0  0  0  0  0  0  0  0  0  0  0  0
    0.1631  -20.3720   -3.7589 C   0  0  0  0  0  0  0  0  0  0  0  0
    0.6303  -19.8924   -2.5042 O   0  0  0  0  0  0  0  0  0  0  0  0
 21 22  1  0
 22 20  1  0
  1 20  1  0
  1  2  1  0
  2  3  1  0
  3  4  1  0
  4 14  1  0
 14 15  1  0
  4  5  1  0
  5  9  1  0
  9 10  1  0
 10 11  1  0
 10 12  2  0
  5  6  1  0
  6 16  1  0
 16 17  1  0
  6  7  1  0
  7 18  1  0
 18 19  1  0
  7  1  1  0
  2  8  1  0
  9 13  1  0
M  END
> <minimizedAffinity>
-3.97533

> <CNNscore>
0.1699394286

> <CNNaffinity>
2.3181807995

> <CNN_VS>
0.3939503133

> <CNNaffinity_variance>
1.8744927645

$$$$
