


 42 43  0  0  0  0  0  0  0  0999 V2000
   35.6011   42.3566   -6.0383 P   0  0  0  0  0  0  0  0  0  0  0  0
   36.9416   42.3589   -6.7078 O   0  0  0  0  0  0  0  0  0  0  0  0
   35.0290   43.8565   -5.9007 O   0  0  0  0  0  0  0  0  0  0  0  0
   35.6545   44.3957   -5.3918 H   0  0  0  0  0  0  0  0  0  0  0  0
   35.5643   41.8649   -4.4723 N   0  0  0  0  0  0  0  0  0  0  0  0
   34.6509   42.1126   -4.0916 H   0  0  0  0  0  0  0  0  0  0  0  0
   36.5982   42.4359   -3.5708 C   0  0  0  0  0  0  0  0  0  0  0  0
   37.8584   41.5569   -3.6611 C   0  0  0  0  0  0  0  0  0  0  0  0
   38.9788   42.0316   -3.8294 O   0  0  0  0  0  0  0  0  0  0  0  0
   37.6267   40.2051   -3.5031 N   0  0  0  0  0  0  0  0  0  0  0  0
   36.7275   39.8827   -3.2649 H   0  0  0  0  0  0  0  0  0  0  0  0
   38.7214   39.2534   -3.6907 C   0  0  0  0  0  0  0  0  0  0  0  0
   38.7506   38.2696   -2.5289 C   0  0  0  0  0  0  0  0  0  0  0  0
   38.6115   38.4698   -5.0040 C   0  0  0  0  0  0  0  0  0  0  0  0
   37.5832   38.2693   -5.6331 O   0  0  0  0  0  0  0  0  0  0  0  0
   39.7924   38.0317   -5.4952 O   0  0  0  0  0  0  0  0  0  0  0  0
   40.5838   38.1828   -5.0168 H   0  0  0  0  0  0  0  0  0  0  0  0
   36.0370   42.5257   -2.1398 C   0  0  0  0  0  0  0  0  0  0  0  0
   36.7232   42.4547    0.3186 C   0  0  0  0  0  0  0  0  0  0  0  0
   37.0649   42.9763   -1.0788 C   0  0  0  0  0  0  0  0  0  0  0  0
   37.1269   44.5076   -1.0303 C   0  0  0  0  0  0  0  0  0  0  0  0
   34.3077   41.4940   -7.0145 C   0  0  0  0  0  0  0  0  0  0  0  0
   34.3182   42.0081   -8.3906 N   0  0  0  0  0  0  0  0  0  0  0  0
   33.5626   43.0716   -8.7675 C   0  0  0  0  0  0  0  0  0  0  0  0
   32.7232   43.6024   -8.0534 O   0  0  0  0  0  0  0  0  0  0  0  0
   34.8904   41.5681   -9.0601 H   0  0  0  0  0  0  0  0  0  0  0  0
   33.9213   43.4599  -10.0091 O   0  0  0  0  0  0  0  0  0  0  0  0
   33.3249   42.7158  -11.0802 C   0  0  0  0  0  0  0  0  0  0  0  0
   33.2447   43.5481  -12.3365 C   0  0  0  0  0  0  0  0  0  0  0  0
   33.4922   44.9272  -12.2962 C   0  0  0  0  0  0  0  0  0  0  0  0
   33.4243   45.6943  -13.4623 C   0  0  0  0  0  0  0  0  0  0  0  0
   33.1084   45.0840  -14.6742 C   0  0  0  0  0  0  0  0  0  0  0  0
   33.0211   46.1183  -16.2536 Br  0  0  0  0  0  0  0  0  0  0  0  0
   32.8594   43.7145  -14.7311 C   0  0  0  0  0  0  0  0  0  0  0  0
   32.9268   42.9491  -13.5646 C   0  0  0  0  0  0  0  0  0  0  0  0
   34.5000   39.9725   -6.9992 C   0  0  0  0  0  0  0  0  0  0  0  0
   33.3267   39.1993   -7.5587 C   0  0  0  0  0  0  0  0  0  0  0  0
   32.7705   38.1259   -6.8464 C   0  0  0  0  0  0  0  0  0  0  0  0
   31.6973   37.4039   -7.3718 C   0  0  0  0  0  0  0  0  0  0  0  0
   31.1729   37.7428   -8.6168 C   0  0  0  0  0  0  0  0  0  0  0  0
   31.7226   38.8011   -9.3381 C   0  0  0  0  0  0  0  0  0  0  0  0
   32.7954   39.5256   -8.8136 C   0  0  0  0  0  0  0  0  0  0  0  0
 19 20  1  0
 20 21  1  0
 20 18  1  0
  7 18  1  0
  7  5  1  0
  5  1  1  0
  1  2  2  0
  1  3  1  0
  1 22  1  0
 22 36  1  0
 36 37  1  0
 37 38  2  0
 38 39  1  0
 39 40  2  0
 40 41  1  0
 41 42  2  0
 22 23  1  0
 23 24  1  0
 24 25  2  0
 24 27  1  0
 27 28  1  0
 28 29  1  0
 29 30  2  0
 30 31  1  0
 31 32  2  0
 32 33  1  0
 32 34  1  0
 34 35  2  0
  7  8  1  0
  8  9  2  0
  8 10  1  0
 10 12  1  0
 12 13  1  0
 12 14  1  0
 14 15  2  0
 14 16  1  0
 42 37  1  0
 35 29  1  0
  5  6  1  0
  3  4  1  0
 23 26  1  0
 10 11  1  0
 16 17  1  0
M  END
> <minimizedAffinity>
-9.75872

> <CNNscore>
0.7591359615

> <CNNaffinity>
7.5324196815

> <CNN_VS>
5.7181305885

> <CNNaffinity_variance>
0.0510214157

$$$$



 42 43  0  0  0  0  0  0  0  0999 V2000
   35.8754   42.2116   -6.0045 P   0  0  0  0  0  0  0  0  0  0  0  0
   34.6310   43.0410   -5.9117 O   0  0  0  0  0  0  0  0  0  0  0  0
   37.0914   43.0732   -6.6171 O   0  0  0  0  0  0  0  0  0  0  0  0
   36.8442   43.4022   -7.4954 H   0  0  0  0  0  0  0  0  0  0  0  0
   35.8361   40.9442   -7.0475 N   0  0  0  0  0  0  0  0  0  0  0  0
   35.8502   41.3224   -7.9947 H   0  0  0  0  0  0  0  0  0  0  0  0
   34.6673   40.0328   -6.9436 C   0  0  0  0  0  0  0  0  0  0  0  0
   35.1473   38.5964   -7.2179 C   0  0  0  0  0  0  0  0  0  0  0  0
   34.4496   37.6143   -6.9782 O   0  0  0  0  0  0  0  0  0  0  0  0
   36.4037   38.5103   -7.7837 N   0  0  0  0  0  0  0  0  0  0  0  0
   36.8802   39.3280   -8.0550 H   0  0  0  0  0  0  0  0  0  0  0  0
   37.0247   37.2004   -7.9789 C   0  0  0  0  0  0  0  0  0  0  0  0
   37.6227   37.1193   -9.3767 C   0  0  0  0  0  0  0  0  0  0  0  0
   38.1214   36.9016   -6.9499 C   0  0  0  0  0  0  0  0  0  0  0  0
   37.9403   36.5727   -5.7869 O   0  0  0  0  0  0  0  0  0  0  0  0
   39.3802   36.9672   -7.4383 O   0  0  0  0  0  0  0  0  0  0  0  0
   39.5246   37.2188   -8.3292 H   0  0  0  0  0  0  0  0  0  0  0  0
   33.5716   40.4911   -7.9236 C   0  0  0  0  0  0  0  0  0  0  0  0
   33.6442   42.3056   -9.7185 C   0  0  0  0  0  0  0  0  0  0  0  0
   34.0939   40.8986   -9.3188 C   0  0  0  0  0  0  0  0  0  0  0  0
   33.5935   39.9045  -10.3736 C   0  0  0  0  0  0  0  0  0  0  0  0
   36.5119   41.6784   -4.3673 C   0  0  0  0  0  0  0  0  0  0  0  0
   37.3532   40.4867   -4.5412 N   0  0  0  0  0  0  0  0  0  0  0  0
   38.6379   40.4424   -4.1034 C   0  0  0  0  0  0  0  0  0  0  0  0
   39.2431   41.4076   -3.6582 O   0  0  0  0  0  0  0  0  0  0  0  0
   36.9740   39.6960   -4.9889 H   0  0  0  0  0  0  0  0  0  0  0  0
   39.1006   39.1782   -4.1962 O   0  0  0  0  0  0  0  0  0  0  0  0
   40.4769   39.0010   -3.8341 C   0  0  0  0  0  0  0  0  0  0  0  0
   40.6138   38.0174   -2.6978 C   0  0  0  0  0  0  0  0  0  0  0  0
   39.5568   37.8115   -1.8005 C   0  0  0  0  0  0  0  0  0  0  0  0
   39.6838   36.8947   -0.7535 C   0  0  0  0  0  0  0  0  0  0  0  0
   40.8697   36.1797   -0.6004 C   0  0  0  0  0  0  0  0  0  0  0  0
   41.0420   34.9353    0.8118 Br  0  0  0  0  0  0  0  0  0  0  0  0
   41.9296   36.3729   -1.4834 C   0  0  0  0  0  0  0  0  0  0  0  0
   41.8017   37.2903   -2.5290 C   0  0  0  0  0  0  0  0  0  0  0  0
   37.2903   42.7976   -3.6648 C   0  0  0  0  0  0  0  0  0  0  0  0
   37.1942   42.7591   -2.1559 C   0  0  0  0  0  0  0  0  0  0  0  0
   36.3355   41.8529   -1.5152 C   0  0  0  0  0  0  0  0  0  0  0  0
   36.2372   41.8297   -0.1227 C   0  0  0  0  0  0  0  0  0  0  0  0
   36.9907   42.7156    0.6435 C   0  0  0  0  0  0  0  0  0  0  0  0
   37.8403   43.6267    0.0185 C   0  0  0  0  0  0  0  0  0  0  0  0
   37.9413   43.6505   -1.3743 C   0  0  0  0  0  0  0  0  0  0  0  0
 19 20  1  0
 20 21  1  0
 20 18  1  0
  7 18  1  0
  7  5  1  0
  5  1  1  0
  1  2  2  0
  1  3  1  0
  1 22  1  0
 22 36  1  0
 36 37  1  0
 37 38  2  0
 38 39  1  0
 39 40  2  0
 40 41  1  0
 41 42  2  0
 22 23  1  0
 23 24  1  0
 24 25  2  0
 24 27  1  0
 27 28  1  0
 28 29  1  0
 29 30  2  0
 30 31  1  0
 31 32  2  0
 32 33  1  0
 32 34  1  0
 34 35  2  0
  7  8  1  0
  8  9  2  0
  8 10  1  0
 10 12  1  0
 12 13  1  0
 12 14  1  0
 14 15  2  0
 14 16  1  0
 42 37  1  0
 35 29  1  0
  5  6  1  0
  3  4  1  0
 23 26  1  0
 10 11  1  0
 16 17  1  0
M  END
> <minimizedAffinity>
-8.33488

> <CNNscore>
0.6947929859

> <CNNaffinity>
7.4426321983

> <CNN_VS>
5.1710886955

> <CNNaffinity_variance>
0.0516179502

$$$$



 42 43  0  0  0  0  0  0  0  0999 V2000
   36.2504   42.2095   -5.3146 P   0  0  0  0  0  0  0  0  0  0  0  0
   34.8913   42.8379   -5.2615 O   0  0  0  0  0  0  0  0  0  0  0  0
   37.2883   43.1591   -6.1001 O   0  0  0  0  0  0  0  0  0  0  0  0
   36.9612   43.3217   -6.9987 H   0  0  0  0  0  0  0  0  0  0  0  0
   36.3830   40.8208   -6.1804 N   0  0  0  0  0  0  0  0  0  0  0  0
   37.1346   40.9492   -6.8580 H   0  0  0  0  0  0  0  0  0  0  0  0
   35.1744   40.3830   -6.9255 C   0  0  0  0  0  0  0  0  0  0  0  0
   35.2788   38.8670   -7.1699 C   0  0  0  0  0  0  0  0  0  0  0  0
   36.2231   38.1991   -6.7562 O   0  0  0  0  0  0  0  0  0  0  0  0
   34.2124   38.3226   -7.8572 N   0  0  0  0  0  0  0  0  0  0  0  0
   33.4297   38.8786   -8.0750 H   0  0  0  0  0  0  0  0  0  0  0  0
   34.2491   36.9172   -8.2608 C   0  0  0  0  0  0  0  0  0  0  0  0
   35.4932   36.6565   -9.0989 C   0  0  0  0  0  0  0  0  0  0  0  0
   34.2417   35.9541   -7.0678 C   0  0  0  0  0  0  0  0  0  0  0  0
   35.1064   35.1305   -6.8083 O   0  0  0  0  0  0  0  0  0  0  0  0
   33.1926   36.1092   -6.2294 O   0  0  0  0  0  0  0  0  0  0  0  0
   32.5268   36.7393   -6.4237 H   0  0  0  0  0  0  0  0  0  0  0  0
   35.0580   41.1895   -8.2320 C   0  0  0  0  0  0  0  0  0  0  0  0
   33.2995   41.2142  -10.0830 C   0  0  0  0  0  0  0  0  0  0  0  0
   33.6114   41.5606   -8.6255 C   0  0  0  0  0  0  0  0  0  0  0  0
   33.3836   43.0626   -8.4178 C   0  0  0  0  0  0  0  0  0  0  0  0
   37.0202   42.0123   -3.6597 C   0  0  0  0  0  0  0  0  0  0  0  0
   38.3978   41.5284   -3.8227 N   0  0  0  0  0  0  0  0  0  0  0  0
   38.8142   40.3499   -3.2920 C   0  0  0  0  0  0  0  0  0  0  0  0
   38.1413   39.6642   -2.5349 O   0  0  0  0  0  0  0  0  0  0  0  0
   39.0385   42.0753   -4.3322 H   0  0  0  0  0  0  0  0  0  0  0  0
   40.0411   40.0517   -3.7680 O   0  0  0  0  0  0  0  0  0  0  0  0
   40.6787   38.9227   -3.1551 C   0  0  0  0  0  0  0  0  0  0  0  0
   41.5681   38.2044   -4.1403 C   0  0  0  0  0  0  0  0  0  0  0  0
   42.9504   38.1195   -3.9240 C   0  0  0  0  0  0  0  0  0  0  0  0
   43.7706   37.4475   -4.8342 C   0  0  0  0  0  0  0  0  0  0  0  0
   43.2104   36.8572   -5.9651 C   0  0  0  0  0  0  0  0  0  0  0  0
   44.3169   35.9433   -7.1949 Br  0  0  0  0  0  0  0  0  0  0  0  0
   41.8385   36.9329   -6.1947 C   0  0  0  0  0  0  0  0  0  0  0  0
   41.0199   37.6056   -5.2844 C   0  0  0  0  0  0  0  0  0  0  0  0
   36.9925   43.3189   -2.8573 C   0  0  0  0  0  0  0  0  0  0  0  0
   37.2530   43.1374   -1.3786 C   0  0  0  0  0  0  0  0  0  0  0  0
   38.1807   43.9499   -0.7091 C   0  0  0  0  0  0  0  0  0  0  0  0
   38.4307   43.7704    0.6527 C   0  0  0  0  0  0  0  0  0  0  0  0
   37.7613   42.7733    1.3580 C   0  0  0  0  0  0  0  0  0  0  0  0
   36.8443   41.9538    0.7023 C   0  0  0  0  0  0  0  0  0  0  0  0
   36.5917   42.1328   -0.6596 C   0  0  0  0  0  0  0  0  0  0  0  0
 19 20  1  0
 20 21  1  0
 20 18  1  0
  7 18  1  0
  7  5  1  0
  5  1  1  0
  1  2  2  0
  1  3  1  0
  1 22  1  0
 22 36  1  0
 36 37  1  0
 37 38  2  0
 38 39  1  0
 39 40  2  0
 40 41  1  0
 41 42  2  0
 22 23  1  0
 23 24  1  0
 24 25  2  0
 24 27  1  0
 27 28  1  0
 28 29  1  0
 29 30  2  0
 30 31  1  0
 31 32  2  0
 32 33  1  0
 32 34  1  0
 34 35  2  0
  7  8  1  0
  8  9  2  0
  8 10  1  0
 10 12  1  0
 12 13  1  0
 12 14  1  0
 14 15  2  0
 14 16  1  0
 42 37  1  0
 35 29  1  0
  5  6  1  0
  3  4  1  0
 23 26  1  0
 10 11  1  0
 16 17  1  0
M  END
> <minimizedAffinity>
-8.31316

> <CNNscore>
0.4470036626

> <CNNaffinity>
6.7591319084

> <CNN_VS>
3.0213568211

> <CNNaffinity_variance>
0.0525306165

$$$$



 42 43  0  0  0  0  0  0  0  0999 V2000
   37.9017   40.6788   -3.5451 P   0  0  0  0  0  0  0  0  0  0  0  0
   39.2733   41.2818   -3.5346 O   0  0  0  0  0  0  0  0  0  0  0  0
   37.6281   39.8586   -2.1856 O   0  0  0  0  0  0  0  0  0  0  0  0
   38.2970   39.1630   -2.0874 H   0  0  0  0  0  0  0  0  0  0  0  0
   37.6197   39.5174   -4.6709 N   0  0  0  0  0  0  0  0  0  0  0  0
   36.8086   38.9801   -4.3646 H   0  0  0  0  0  0  0  0  0  0  0  0
   38.7246   38.5581   -4.9288 C   0  0  0  0  0  0  0  0  0  0  0  0
   38.2231   37.4982   -5.9257 C   0  0  0  0  0  0  0  0  0  0  0  0
   37.0536   37.4493   -6.2984 O   0  0  0  0  0  0  0  0  0  0  0  0
   39.1994   36.6378   -6.3868 N   0  0  0  0  0  0  0  0  0  0  0  0
   40.1416   36.7829   -6.1411 H   0  0  0  0  0  0  0  0  0  0  0  0
   38.8294   35.5100   -7.2416 C   0  0  0  0  0  0  0  0  0  0  0  0
   37.5197   34.9053   -6.7547 C   0  0  0  0  0  0  0  0  0  0  0  0
   38.6785   35.9038   -8.7157 C   0  0  0  0  0  0  0  0  0  0  0  0
   37.9448   36.7792   -9.1504 O   0  0  0  0  0  0  0  0  0  0  0  0
   39.4916   35.2317   -9.5609 O   0  0  0  0  0  0  0  0  0  0  0  0
   40.0560   34.5596   -9.2328 H   0  0  0  0  0  0  0  0  0  0  0  0
   39.1933   37.9462   -3.5957 C   0  0  0  0  0  0  0  0  0  0  0  0
   40.9739   36.3378   -2.7229 C   0  0  0  0  0  0  0  0  0  0  0  0
   40.6968   37.5960   -3.5485 C   0  0  0  0  0  0  0  0  0  0  0  0
   41.4854   38.7639   -2.9442 C   0  0  0  0  0  0  0  0  0  0  0  0
   36.5614   41.9330   -3.5645 C   0  0  0  0  0  0  0  0  0  0  0  0
   35.5949   41.5905   -4.6166 N   0  0  0  0  0  0  0  0  0  0  0  0
   35.6190   42.1850   -5.8373 C   0  0  0  0  0  0  0  0  0  0  0  0
   36.3391   43.1313   -6.1239 O   0  0  0  0  0  0  0  0  0  0  0  0
   34.9089   40.9093   -4.4310 H   0  0  0  0  0  0  0  0  0  0  0  0
   34.7730   41.5401   -6.6676 O   0  0  0  0  0  0  0  0  0  0  0  0
   34.9872   40.1269   -6.7843 C   0  0  0  0  0  0  0  0  0  0  0  0
   33.7902   39.4490   -7.4051 C   0  0  0  0  0  0  0  0  0  0  0  0
   33.1616   38.3765   -6.7574 C   0  0  0  0  0  0  0  0  0  0  0  0
   32.0490   37.7553   -7.3311 C   0  0  0  0  0  0  0  0  0  0  0  0
   31.5605   38.2054   -8.5557 C   0  0  0  0  0  0  0  0  0  0  0  0
   30.0527   37.3703   -9.3311 Br  0  0  0  0  0  0  0  0  0  0  0  0
   32.1740   39.2699   -9.2124 C   0  0  0  0  0  0  0  0  0  0  0  0
   33.2866   39.8893   -8.6382 C   0  0  0  0  0  0  0  0  0  0  0  0
   35.8666   42.0478   -2.2021 C   0  0  0  0  0  0  0  0  0  0  0  0
   36.7477   42.6092   -1.1085 C   0  0  0  0  0  0  0  0  0  0  0  0
   36.7693   42.0232    0.1662 C   0  0  0  0  0  0  0  0  0  0  0  0
   37.5719   42.5525    1.1786 C   0  0  0  0  0  0  0  0  0  0  0  0
   38.3561   43.6762    0.9297 C   0  0  0  0  0  0  0  0  0  0  0  0
   38.3363   44.2729   -0.3297 C   0  0  0  0  0  0  0  0  0  0  0  0
   37.5352   43.7440   -1.3442 C   0  0  0  0  0  0  0  0  0  0  0  0
 19 20  1  0
 20 21  1  0
 20 18  1  0
  7 18  1  0
  7  5  1  0
  5  1  1  0
  1  2  2  0
  1  3  1  0
  1 22  1  0
 22 36  1  0
 36 37  1  0
 37 38  2  0
 38 39  1  0
 39 40  2  0
 40 41  1  0
 41 42  2  0
 22 23  1  0
 23 24  1  0
 24 25  2  0
 24 27  1  0
 27 28  1  0
 28 29  1  0
 29 30  2  0
 30 31  1  0
 31 32  2  0
 32 33  1  0
 32 34  1  0
 34 35  2  0
  7  8  1  0
  8  9  2  0
  8 10  1  0
 10 12  1  0
 12 13  1  0
 12 14  1  0
 14 15  2  0
 14 16  1  0
 42 37  1  0
 35 29  1  0
  5  6  1  0
  3  4  1  0
 23 26  1  0
 10 11  1  0
 16 17  1  0
M  END
> <minimizedAffinity>
-8.05520

> <CNNscore>
0.4293549657

> <CNNaffinity>
7.0179576874

> <CNN_VS>
3.0131950378

> <CNNaffinity_variance>
0.3443369865

$$$$



 42 43  0  0  0  0  0  0  0  0999 V2000
   36.1335   42.2055   -5.3205 P   0  0  0  0  0  0  0  0  0  0  0  0
   34.7134   42.6737   -5.2240 O   0  0  0  0  0  0  0  0  0  0  0  0
   37.0510   43.3116   -6.0491 O   0  0  0  0  0  0  0  0  0  0  0  0
   36.6987   43.4914   -6.9348 H   0  0  0  0  0  0  0  0  0  0  0  0
   36.4110   40.8961   -6.2713 N   0  0  0  0  0  0  0  0  0  0  0  0
   37.2763   41.0642   -6.7845 H   0  0  0  0  0  0  0  0  0  0  0  0
   35.3574   40.5581   -7.2628 C   0  0  0  0  0  0  0  0  0  0  0  0
   35.0949   41.8001   -8.1331 C   0  0  0  0  0  0  0  0  0  0  0  0
   35.6801   42.8646   -7.9508 O   0  0  0  0  0  0  0  0  0  0  0  0
   34.1796   41.6055   -9.1482 N   0  0  0  0  0  0  0  0  0  0  0  0
   33.8168   40.7066   -9.3204 H   0  0  0  0  0  0  0  0  0  0  0  0
   33.7507   42.7389   -9.9671 C   0  0  0  0  0  0  0  0  0  0  0  0
   33.1292   42.2310  -11.2609 C   0  0  0  0  0  0  0  0  0  0  0  0
   32.7405   43.6432   -9.2510 C   0  0  0  0  0  0  0  0  0  0  0  0
   32.5187   43.6561   -8.0493 O   0  0  0  0  0  0  0  0  0  0  0  0
   32.1069   44.5237  -10.0576 O   0  0  0  0  0  0  0  0  0  0  0  0
   32.2734   44.5180  -10.9797 H   0  0  0  0  0  0  0  0  0  0  0  0
   34.0965   40.0718   -6.5247 C   0  0  0  0  0  0  0  0  0  0  0  0
   34.7962   37.8203   -7.5050 C   0  0  0  0  0  0  0  0  0  0  0  0
   33.6575   38.6367   -6.8900 C   0  0  0  0  0  0  0  0  0  0  0  0
   32.4936   38.6855   -7.8870 C   0  0  0  0  0  0  0  0  0  0  0  0
   36.9374   41.9946   -3.6837 C   0  0  0  0  0  0  0  0  0  0  0  0
   38.3101   41.5090   -3.8791 N   0  0  0  0  0  0  0  0  0  0  0  0
   38.7378   40.3306   -3.3572 C   0  0  0  0  0  0  0  0  0  0  0  0
   38.0825   39.6464   -2.5834 O   0  0  0  0  0  0  0  0  0  0  0  0
   38.9391   42.0546   -4.4044 H   0  0  0  0  0  0  0  0  0  0  0  0
   39.9527   40.0304   -3.8621 O   0  0  0  0  0  0  0  0  0  0  0  0
   40.6606   38.9879   -3.1774 C   0  0  0  0  0  0  0  0  0  0  0  0
   41.5004   38.1838   -4.1395 C   0  0  0  0  0  0  0  0  0  0  0  0
   40.9547   37.7118   -5.3413 C   0  0  0  0  0  0  0  0  0  0  0  0
   41.7367   36.9736   -6.2336 C   0  0  0  0  0  0  0  0  0  0  0  0
   43.0689   36.7048   -5.9268 C   0  0  0  0  0  0  0  0  0  0  0  0
   44.1301   35.7110   -7.1344 Br  0  0  0  0  0  0  0  0  0  0  0  0
   43.6262   37.1664   -4.7364 C   0  0  0  0  0  0  0  0  0  0  0  0
   42.8431   37.9035   -3.8450 C   0  0  0  0  0  0  0  0  0  0  0  0
   36.9295   43.2954   -2.8714 C   0  0  0  0  0  0  0  0  0  0  0  0
   37.2421   43.1052   -1.4039 C   0  0  0  0  0  0  0  0  0  0  0  0
   36.5882   42.1156   -0.6542 C   0  0  0  0  0  0  0  0  0  0  0  0
   36.8672   41.9520    0.7040 C   0  0  0  0  0  0  0  0  0  0  0  0
   37.7975   42.7794    1.3284 C   0  0  0  0  0  0  0  0  0  0  0  0
   38.4468   43.7720    0.5966 C   0  0  0  0  0  0  0  0  0  0  0  0
   38.1702   43.9363   -0.7625 C   0  0  0  0  0  0  0  0  0  0  0  0
 19 20  1  0
 20 21  1  0
 20 18  1  0
  7 18  1  0
  7  5  1  0
  5  1  1  0
  1  2  2  0
  1  3  1  0
  1 22  1  0
 22 36  1  0
 36 37  1  0
 37 38  2  0
 38 39  1  0
 39 40  2  0
 40 41  1  0
 41 42  2  0
 22 23  1  0
 23 24  1  0
 24 25  2  0
 24 27  1  0
 27 28  1  0
 28 29  1  0
 29 30  2  0
 30 31  1  0
 31 32  2  0
 32 33  1  0
 32 34  1  0
 34 35  2  0
  7  8  1  0
  8  9  2  0
  8 10  1  0
 10 12  1  0
 12 13  1  0
 12 14  1  0
 14 15  2  0
 14 16  1  0
 42 37  1  0
 35 29  1  0
  5  6  1  0
  3  4  1  0
 23 26  1  0
 10 11  1  0
 16 17  1  0
M  END
> <minimizedAffinity>
-8.54388

> <CNNscore>
0.4179401100

> <CNNaffinity>
6.9559912682

> <CNN_VS>
2.9071877003

> <CNNaffinity_variance>
0.0130387135

$$$$



 42 43  0  0  0  0  0  0  0  0999 V2000
   37.9103   40.8016   -3.5762 P   0  0  0  0  0  0  0  0  0  0  0  0
   39.2753   41.3628   -3.3175 O   0  0  0  0  0  0  0  0  0  0  0  0
   37.5273   39.6975   -2.4671 O   0  0  0  0  0  0  0  0  0  0  0  0
   38.1871   38.9866   -2.4772 H   0  0  0  0  0  0  0  0  0  0  0  0
   37.7242   39.9328   -4.9569 N   0  0  0  0  0  0  0  0  0  0  0  0
   36.7625   40.0572   -5.2734 H   0  0  0  0  0  0  0  0  0  0  0  0
   37.9830   38.4726   -4.8646 C   0  0  0  0  0  0  0  0  0  0  0  0
   39.4760   38.2640   -4.5541 C   0  0  0  0  0  0  0  0  0  0  0  0
   40.3612   38.5840   -5.3432 O   0  0  0  0  0  0  0  0  0  0  0  0
   39.7325   37.7238   -3.3097 N   0  0  0  0  0  0  0  0  0  0  0  0
   38.9963   37.5827   -2.6714 H   0  0  0  0  0  0  0  0  0  0  0  0
   41.1012   37.3619   -2.9427 C   0  0  0  0  0  0  0  0  0  0  0  0
   41.4757   36.0398   -3.5986 C   0  0  0  0  0  0  0  0  0  0  0  0
   42.1280   38.4265   -3.3466 C   0  0  0  0  0  0  0  0  0  0  0  0
   42.2804   39.5133   -2.8089 O   0  0  0  0  0  0  0  0  0  0  0  0
   42.9493   38.0582   -4.3553 O   0  0  0  0  0  0  0  0  0  0  0  0
   42.8367   37.2260   -4.7710 H   0  0  0  0  0  0  0  0  0  0  0  0
   37.5471   37.7913   -6.1748 C   0  0  0  0  0  0  0  0  0  0  0  0
   38.4513   36.3491   -8.0779 C   0  0  0  0  0  0  0  0  0  0  0  0
   38.3909   36.5573   -6.5631 C   0  0  0  0  0  0  0  0  0  0  0  0
   37.8010   35.2981   -5.9170 C   0  0  0  0  0  0  0  0  0  0  0  0
   36.5738   42.0497   -3.4160 C   0  0  0  0  0  0  0  0  0  0  0  0
   35.5674   41.8163   -4.4605 N   0  0  0  0  0  0  0  0  0  0  0  0
   35.6615   42.3841   -5.6904 C   0  0  0  0  0  0  0  0  0  0  0  0
   36.4943   43.2273   -5.9934 O   0  0  0  0  0  0  0  0  0  0  0  0
   34.8015   41.2302   -4.2628 H   0  0  0  0  0  0  0  0  0  0  0  0
   34.7373   41.8389   -6.5087 O   0  0  0  0  0  0  0  0  0  0  0  0
   35.1722   40.6860   -7.2425 C   0  0  0  0  0  0  0  0  0  0  0  0
   34.0100   39.7758   -7.5562 C   0  0  0  0  0  0  0  0  0  0  0  0
   33.3411   39.8696   -8.7845 C   0  0  0  0  0  0  0  0  0  0  0  0
   32.2699   39.0206   -9.0752 C   0  0  0  0  0  0  0  0  0  0  0  0
   31.8637   38.0737   -8.1376 C   0  0  0  0  0  0  0  0  0  0  0  0
   30.4185   36.9208   -8.5305 Br  0  0  0  0  0  0  0  0  0  0  0  0
   32.5177   37.9679   -6.9121 C   0  0  0  0  0  0  0  0  0  0  0  0
   33.5878   38.8177   -6.6225 C   0  0  0  0  0  0  0  0  0  0  0  0
   35.9310   42.0230   -2.0238 C   0  0  0  0  0  0  0  0  0  0  0  0
   36.8072   42.5947   -0.9316 C   0  0  0  0  0  0  0  0  0  0  0  0
   37.5635   43.7557   -1.1534 C   0  0  0  0  0  0  0  0  0  0  0  0
   38.3833   44.2730   -0.1487 C   0  0  0  0  0  0  0  0  0  0  0  0
   38.4610   43.6323    1.0855 C   0  0  0  0  0  0  0  0  0  0  0  0
   37.7218   42.4732    1.3149 C   0  0  0  0  0  0  0  0  0  0  0  0
   36.8999   41.9550    0.3116 C   0  0  0  0  0  0  0  0  0  0  0  0
 19 20  1  0
 20 21  1  0
 20 18  1  0
  7 18  1  0
  7  5  1  0
  5  1  1  0
  1  2  2  0
  1  3  1  0
  1 22  1  0
 22 36  1  0
 36 37  1  0
 37 38  2  0
 38 39  1  0
 39 40  2  0
 40 41  1  0
 41 42  2  0
 22 23  1  0
 23 24  1  0
 24 25  2  0
 24 27  1  0
 27 28  1  0
 28 29  1  0
 29 30  2  0
 30 31  1  0
 31 32  2  0
 32 33  1  0
 32 34  1  0
 34 35  2  0
  7  8  1  0
  8  9  2  0
  8 10  1  0
 10 12  1  0
 12 13  1  0
 12 14  1  0
 14 15  2  0
 14 16  1  0
 42 37  1  0
 35 29  1  0
  5  6  1  0
  3  4  1  0
 23 26  1  0
 10 11  1  0
 16 17  1  0
M  END
> <minimizedAffinity>
-7.63331

> <CNNscore>
0.4107697606

> <CNNaffinity>
7.0021500587

> <CNN_VS>
2.8762714863

> <CNNaffinity_variance>
0.4955115020

$$$$



 42 43  0  0  0  0  0  0  0  0999 V2000
   37.8210   40.8406   -3.5275 P   0  0  0  0  0  0  0  0  0  0  0  0
   39.2086   41.4055   -3.5456 O   0  0  0  0  0  0  0  0  0  0  0  0
   37.5924   39.9298   -2.2182 O   0  0  0  0  0  0  0  0  0  0  0  0
   38.2444   39.2118   -2.2060 H   0  0  0  0  0  0  0  0  0  0  0  0
   37.4481   39.7730   -4.7178 N   0  0  0  0  0  0  0  0  0  0  0  0
   36.5609   39.3335   -4.4725 H   0  0  0  0  0  0  0  0  0  0  0  0
   38.4325   38.6896   -4.9726 C   0  0  0  0  0  0  0  0  0  0  0  0
   37.8754   37.7802   -6.0824 C   0  0  0  0  0  0  0  0  0  0  0  0
   36.7979   37.9983   -6.6303 O   0  0  0  0  0  0  0  0  0  0  0  0
   38.7000   36.7286   -6.4293 N   0  0  0  0  0  0  0  0  0  0  0  0
   39.6000   36.6566   -6.0368 H   0  0  0  0  0  0  0  0  0  0  0  0
   38.2323   35.7220   -7.3818 C   0  0  0  0  0  0  0  0  0  0  0  0
   39.4155   35.1642   -8.1610 C   0  0  0  0  0  0  0  0  0  0  0  0
   37.4893   34.5628   -6.7072 C   0  0  0  0  0  0  0  0  0  0  0  0
   36.4858   34.6621   -6.0167 O   0  0  0  0  0  0  0  0  0  0  0  0
   37.9968   33.3394   -6.9776 O   0  0  0  0  0  0  0  0  0  0  0  0
   38.7660   33.2578   -7.5065 H   0  0  0  0  0  0  0  0  0  0  0  0
   38.7076   37.9290   -3.6624 C   0  0  0  0  0  0  0  0  0  0  0  0
   40.5328   37.4020   -1.9565 C   0  0  0  0  0  0  0  0  0  0  0  0
   40.1903   37.5582   -3.4397 C   0  0  0  0  0  0  0  0  0  0  0  0
   41.0944   38.6405   -4.0416 C   0  0  0  0  0  0  0  0  0  0  0  0
   36.5191   42.1271   -3.3856 C   0  0  0  0  0  0  0  0  0  0  0  0
   35.5039   41.9030   -4.4236 N   0  0  0  0  0  0  0  0  0  0  0  0
   35.6286   42.4156   -5.6749 C   0  0  0  0  0  0  0  0  0  0  0  0
   36.5036   43.2027   -6.0083 O   0  0  0  0  0  0  0  0  0  0  0  0
   34.7089   41.3649   -4.2054 H   0  0  0  0  0  0  0  0  0  0  0  0
   34.6793   41.8854   -6.4740 O   0  0  0  0  0  0  0  0  0  0  0  0
   34.1826   42.7580   -7.4980 C   0  0  0  0  0  0  0  0  0  0  0  0
   33.8864   41.9913   -8.7637 C   0  0  0  0  0  0  0  0  0  0  0  0
   33.4000   42.6511   -9.9008 C   0  0  0  0  0  0  0  0  0  0  0  0
   33.1334   41.9398  -11.0737 C   0  0  0  0  0  0  0  0  0  0  0  0
   33.3531   40.5646  -11.1137 C   0  0  0  0  0  0  0  0  0  0  0  0
   32.9984   39.6011  -12.7005 Br  0  0  0  0  0  0  0  0  0  0  0  0
   33.8360   39.8939   -9.9921 C   0  0  0  0  0  0  0  0  0  0  0  0
   34.1011   40.6061   -8.8201 C   0  0  0  0  0  0  0  0  0  0  0  0
   35.8798   42.1416   -1.9917 C   0  0  0  0  0  0  0  0  0  0  0  0
   36.7854   42.6791   -0.9061 C   0  0  0  0  0  0  0  0  0  0  0  0
   37.6078   43.7908   -1.1439 C   0  0  0  0  0  0  0  0  0  0  0  0
   38.4542   44.2758   -0.1451 C   0  0  0  0  0  0  0  0  0  0  0  0
   38.4923   43.6512    1.0992 C   0  0  0  0  0  0  0  0  0  0  0  0
   37.6871   42.5405    1.3447 C   0  0  0  0  0  0  0  0  0  0  0  0
   36.8385   42.0547    0.3473 C   0  0  0  0  0  0  0  0  0  0  0  0
 19 20  1  0
 20 21  1  0
 20 18  1  0
  7 18  1  0
  7  5  1  0
  5  1  1  0
  1  2  2  0
  1  3  1  0
  1 22  1  0
 22 36  1  0
 36 37  1  0
 37 38  2  0
 38 39  1  0
 39 40  2  0
 40 41  1  0
 41 42  2  0
 22 23  1  0
 23 24  1  0
 24 25  2  0
 24 27  1  0
 27 28  1  0
 28 29  1  0
 29 30  2  0
 30 31  1  0
 31 32  2  0
 32 33  1  0
 32 34  1  0
 34 35  2  0
  7  8  1  0
  8  9  2  0
  8 10  1  0
 10 12  1  0
 12 13  1  0
 12 14  1  0
 14 15  2  0
 14 16  1  0
 42 37  1  0
 35 29  1  0
  5  6  1  0
  3  4  1  0
 23 26  1  0
 10 11  1  0
 16 17  1  0
M  END
> <minimizedAffinity>
-8.08966

> <CNNscore>
0.2994188666

> <CNNaffinity>
6.7105183601

> <CNN_VS>
2.0092558861

> <CNNaffinity_variance>
0.3998340070

$$$$



 42 43  0  0  0  0  0  0  0  0999 V2000
   36.0194   42.1615   -6.0105 P   0  0  0  0  0  0  0  0  0  0  0  0
   36.8465   43.3904   -6.2359 O   0  0  0  0  0  0  0  0  0  0  0  0
   34.6461   42.5287   -5.2520 O   0  0  0  0  0  0  0  0  0  0  0  0
   34.8489   42.9538   -4.4040 H   0  0  0  0  0  0  0  0  0  0  0  0
   36.6438   41.0334   -4.9942 N   0  0  0  0  0  0  0  0  0  0  0  0
   35.8630   40.5281   -4.5755 H   0  0  0  0  0  0  0  0  0  0  0  0
   37.5008   41.5348   -3.8889 C   0  0  0  0  0  0  0  0  0  0  0  0
   38.5158   40.4360   -3.5262 C   0  0  0  0  0  0  0  0  0  0  0  0
   39.7178   40.5534   -3.7500 O   0  0  0  0  0  0  0  0  0  0  0  0
   37.9678   39.3332   -2.9020 N   0  0  0  0  0  0  0  0  0  0  0  0
   37.0164   39.3311   -2.6488 H   0  0  0  0  0  0  0  0  0  0  0  0
   38.8052   38.1681   -2.6181 C   0  0  0  0  0  0  0  0  0  0  0  0
   39.0635   38.0746   -1.1205 C   0  0  0  0  0  0  0  0  0  0  0  0
   38.1797   36.8533   -3.0985 C   0  0  0  0  0  0  0  0  0  0  0  0
   38.2975   36.3714   -4.2154 O   0  0  0  0  0  0  0  0  0  0  0  0
   37.4943   36.1791   -2.1481 O   0  0  0  0  0  0  0  0  0  0  0  0
   37.4009   36.5440   -1.2901 H   0  0  0  0  0  0  0  0  0  0  0  0
   36.6141   41.9421   -2.6977 C   0  0  0  0  0  0  0  0  0  0  0  0
   36.9426   42.1971   -0.1784 C   0  0  0  0  0  0  0  0  0  0  0  0
   37.3643   42.6808   -1.5676 C   0  0  0  0  0  0  0  0  0  0  0  0
   37.0995   44.1880   -1.6646 C   0  0  0  0  0  0  0  0  0  0  0  0
   35.4497   41.3781   -7.5700 C   0  0  0  0  0  0  0  0  0  0  0  0
   35.6732   39.9282   -7.4915 N   0  0  0  0  0  0  0  0  0  0  0  0
   34.7878   39.0953   -6.8864 C   0  0  0  0  0  0  0  0  0  0  0  0
   33.8160   39.4756   -6.2483 O   0  0  0  0  0  0  0  0  0  0  0  0
   36.4897   39.5490   -7.8898 H   0  0  0  0  0  0  0  0  0  0  0  0
   35.1276   37.8150   -7.1438 O   0  0  0  0  0  0  0  0  0  0  0  0
   36.1770   37.6409   -8.1057 C   0  0  0  0  0  0  0  0  0  0  0  0
   37.0395   36.4533   -7.7546 C   0  0  0  0  0  0  0  0  0  0  0  0
   38.4264   36.4944   -7.9540 C   0  0  0  0  0  0  0  0  0  0  0  0
   39.2235   35.3959   -7.6212 C   0  0  0  0  0  0  0  0  0  0  0  0
   38.6357   34.2513   -7.0870 C   0  0  0  0  0  0  0  0  0  0  0  0
   39.7122   32.7663   -6.6312 Br  0  0  0  0  0  0  0  0  0  0  0  0
   37.2588   34.1944   -6.8829 C   0  0  0  0  0  0  0  0  0  0  0  0
   36.4631   35.2928   -7.2168 C   0  0  0  0  0  0  0  0  0  0  0  0
   33.9759   41.6879   -7.8598 C   0  0  0  0  0  0  0  0  0  0  0  0
   33.7126   42.1526   -9.2747 C   0  0  0  0  0  0  0  0  0  0  0  0
   33.3687   41.2344  -10.2785 C   0  0  0  0  0  0  0  0  0  0  0  0
   33.1410   41.6638  -11.5873 C   0  0  0  0  0  0  0  0  0  0  0  0
   33.2608   43.0138  -11.9080 C   0  0  0  0  0  0  0  0  0  0  0  0
   33.6109   43.9343  -10.9219 C   0  0  0  0  0  0  0  0  0  0  0  0
   33.8376   43.5070   -9.6117 C   0  0  0  0  0  0  0  0  0  0  0  0
 19 20  1  0
 20 21  1  0
 20 18  1  0
  7 18  1  0
  7  5  1  0
  5  1  1  0
  1  2  2  0
  1  3  1  0
  1 22  1  0
 22 36  1  0
 36 37  1  0
 37 38  2  0
 38 39  1  0
 39 40  2  0
 40 41  1  0
 41 42  2  0
 22 23  1  0
 23 24  1  0
 24 25  2  0
 24 27  1  0
 27 28  1  0
 28 29  1  0
 29 30  2  0
 30 31  1  0
 31 32  2  0
 32 33  1  0
 32 34  1  0
 34 35  2  0
  7  8  1  0
  8  9  2  0
  8 10  1  0
 10 12  1  0
 12 13  1  0
 12 14  1  0
 14 15  2  0
 14 16  1  0
 42 37  1  0
 35 29  1  0
  5  6  1  0
  3  4  1  0
 23 26  1  0
 10 11  1  0
 16 17  1  0
M  END
> <minimizedAffinity>
-7.87210

> <CNNscore>
0.2817357183

> <CNNaffinity>
7.1688265800

> <CNN_VS>
2.0197145939

> <CNNaffinity_variance>
0.1574603766

$$$$



 42 43  0  0  0  0  0  0  0  0999 V2000
   35.5549   42.0634   -6.5444 P   0  0  0  0  0  0  0  0  0  0  0  0
   34.1241   42.4845   -6.4011 O   0  0  0  0  0  0  0  0  0  0  0  0
   36.4814   43.3177   -6.9496 O   0  0  0  0  0  0  0  0  0  0  0  0
   36.1619   43.7002   -7.7818 H   0  0  0  0  0  0  0  0  0  0  0  0
   35.8934   41.0195   -7.7656 N   0  0  0  0  0  0  0  0  0  0  0  0
   36.2614   41.5644   -8.5454 H   0  0  0  0  0  0  0  0  0  0  0  0
   34.7610   40.2060   -8.2790 C   0  0  0  0  0  0  0  0  0  0  0  0
   33.8616   41.1144   -9.1363 C   0  0  0  0  0  0  0  0  0  0  0  0
   32.7113   40.8046   -9.4358 O   0  0  0  0  0  0  0  0  0  0  0  0
   34.4422   42.3111   -9.5062 N   0  0  0  0  0  0  0  0  0  0  0  0
   35.3269   42.5605   -9.1536 H   0  0  0  0  0  0  0  0  0  0  0  0
   33.7388   43.2072  -10.4235 C   0  0  0  0  0  0  0  0  0  0  0  0
   33.0767   42.3945  -11.5277 C   0  0  0  0  0  0  0  0  0  0  0  0
   32.6724   44.0587   -9.7243 C   0  0  0  0  0  0  0  0  0  0  0  0
   32.0721   45.0010  -10.2194 O   0  0  0  0  0  0  0  0  0  0  0  0
   32.3663   43.6547   -8.4711 O   0  0  0  0  0  0  0  0  0  0  0  0
   32.8235   42.9327   -8.0868 H   0  0  0  0  0  0  0  0  0  0  0  0
   34.0087   39.5706   -7.0953 C   0  0  0  0  0  0  0  0  0  0  0  0
   32.4255   37.7280   -6.3090 C   0  0  0  0  0  0  0  0  0  0  0  0
   33.4004   38.1834   -7.3971 C   0  0  0  0  0  0  0  0  0  0  0  0
   34.5174   37.1407   -7.5238 C   0  0  0  0  0  0  0  0  0  0  0  0
   36.2959   41.4755   -4.9711 C   0  0  0  0  0  0  0  0  0  0  0  0
   36.9980   40.2077   -5.2122 N   0  0  0  0  0  0  0  0  0  0  0  0
   38.1127   39.8592   -4.5194 C   0  0  0  0  0  0  0  0  0  0  0  0
   38.7002   40.6046   -3.7477 O   0  0  0  0  0  0  0  0  0  0  0  0
   36.6498   39.5921   -5.8971 H   0  0  0  0  0  0  0  0  0  0  0  0
   38.4221   38.5727   -4.7842 O   0  0  0  0  0  0  0  0  0  0  0  0
   39.8007   38.2233   -4.5995 C   0  0  0  0  0  0  0  0  0  0  0  0
   40.0140   37.5558   -3.2630 C   0  0  0  0  0  0  0  0  0  0  0  0
   41.2959   37.1551   -2.8616 C   0  0  0  0  0  0  0  0  0  0  0  0
   41.4916   36.5437   -1.6204 C   0  0  0  0  0  0  0  0  0  0  0  0
   40.4047   36.3310   -0.7751 C   0  0  0  0  0  0  0  0  0  0  0  0
   40.6676   35.5091    0.9064 Br  0  0  0  0  0  0  0  0  0  0  0  0
   39.1243   36.7231   -1.1593 C   0  0  0  0  0  0  0  0  0  0  0  0
   38.9300   37.3333   -2.4007 C   0  0  0  0  0  0  0  0  0  0  0  0
   37.2433   42.5162   -4.3618 C   0  0  0  0  0  0  0  0  0  0  0  0
   36.9817   42.8039   -2.9002 C   0  0  0  0  0  0  0  0  0  0  0  0
   36.1242   41.9842   -2.1506 C   0  0  0  0  0  0  0  0  0  0  0  0
   35.8723   42.2606   -0.8055 C   0  0  0  0  0  0  0  0  0  0  0  0
   36.4693   43.3623   -0.1973 C   0  0  0  0  0  0  0  0  0  0  0  0
   37.3156   44.1893   -0.9336 C   0  0  0  0  0  0  0  0  0  0  0  0
   37.5701   43.9136   -2.2790 C   0  0  0  0  0  0  0  0  0  0  0  0
 19 20  1  0
 20 21  1  0
 20 18  1  0
  7 18  1  0
  7  5  1  0
  5  1  1  0
  1  2  2  0
  1  3  1  0
  1 22  1  0
 22 36  1  0
 36 37  1  0
 37 38  2  0
 38 39  1  0
 39 40  2  0
 40 41  1  0
 41 42  2  0
 22 23  1  0
 23 24  1  0
 24 25  2  0
 24 27  1  0
 27 28  1  0
 28 29  1  0
 29 30  2  0
 30 31  1  0
 31 32  2  0
 32 33  1  0
 32 34  1  0
 34 35  2  0
  7  8  1  0
  8  9  2  0
  8 10  1  0
 10 12  1  0
 12 13  1  0
 12 14  1  0
 14 15  2  0
 14 16  1  0
 42 37  1  0
 35 29  1  0
  5  6  1  0
  3  4  1  0
 23 26  1  0
 10 11  1  0
 16 17  1  0
M  END
> <minimizedAffinity>
-8.65795

> <CNNscore>
0.2375462353

> <CNNaffinity>
6.9184670448

> <CNN_VS>
1.6434557438

> <CNNaffinity_variance>
0.0686979368

$$$$
