


 32 34  0  0  0  0  0  0  0  0999 V2000
   91.1010   95.4247  -44.9223 C   0  0  0  0  0  0  0  0  0  0  0  0
   91.1461   94.4458  -45.9331 C   0  0  0  0  0  0  0  0  0  0  0  0
   91.6364   93.1639  -45.6724 C   0  0  0  0  0  0  0  0  0  0  0  0
   92.0819   92.8339  -44.3923 C   0  0  0  0  0  0  0  0  0  0  0  0
   92.0318   93.7904  -43.3767 C   0  0  0  0  0  0  0  0  0  0  0  0
   92.7033   93.2521  -41.4699 I   0  0  0  0  0  0  0  0  0  0  0  0
   91.5400   95.0770  -43.6381 C   0  0  0  0  0  0  0  0  0  0  0  0
   91.4735   96.0243  -42.6512 O   0  0  0  0  0  0  0  0  0  0  0  0
   91.7606   95.8179  -41.7835 H   0  0  0  0  0  0  0  0  0  0  0  0
   91.6825   92.1898  -46.7186 C   0  0  0  0  0  0  0  0  0  0  0  0
   91.7200   91.3707  -47.5965 C   0  0  0  0  0  0  0  0  0  0  0  0
   91.7704   90.3655  -48.6643 C   0  0  0  0  0  0  0  0  0  0  0  0
   90.4380   90.0157  -49.0342 O   0  0  0  0  0  0  0  0  0  0  0  0
   89.9151   90.6281  -50.1392 C   0  0  0  0  0  0  0  0  0  0  0  0
   88.7722   90.2325  -50.8378 C   0  0  0  0  0  0  0  0  0  0  0  0
   88.3482   90.9556  -51.9587 C   0  0  0  0  0  0  0  0  0  0  0  0
   89.0670   92.0731  -52.3790 C   0  0  0  0  0  0  0  0  0  0  0  0
   88.4906   93.0456  -53.8932 Br  0  0  0  0  0  0  0  0  0  0  0  0
   90.2072   92.4759  -51.6894 C   0  0  0  0  0  0  0  0  0  0  0  0
   90.6271   91.7514  -50.5716 C   0  0  0  0  0  0  0  0  0  0  0  0
   90.5471   96.8002  -45.2387 C   0  0  0  0  0  0  0  0  0  0  0  0
   90.3697  100.4541  -42.9017 C   0  0  0  0  0  0  0  0  0  0  0  0
   91.7070   99.7084  -43.1173 C   0  0  0  0  0  0  0  0  0  0  0  0
   91.6319   98.7426  -44.3018 C   0  0  0  0  0  0  0  0  0  0  0  0
   90.5886   97.7256  -44.0856 N   0  0  0  0  0  0  0  0  0  0  0  0
   89.2773   98.3715  -43.8867 C   0  0  0  0  0  0  0  0  0  0  0  0
   89.3184   99.3391  -42.7001 C   0  0  0  0  0  0  0  0  0  0  0  0
   90.0451  101.4168  -44.0002 N   0  0  0  0  0  0  0  0  0  0  0  0
   90.9222  103.4648  -45.2129 C   0  0  0  0  0  0  0  0  0  0  0  0
   91.2299  102.1964  -44.4180 C   0  0  0  0  0  0  0  0  0  0  0  0
   88.8775  102.2742  -43.7165 C   0  0  0  0  0  0  0  0  0  0  0  0
   88.7780  102.8275  -42.2976 C   0  0  0  0  0  0  0  0  0  0  0  0
 29 30  1  0
 30 28  1  0
 28 31  1  0
 31 32  1  0
 28 22  1  0
 22 23  1  0
 23 24  1  0
 24 25  1  0
 25 21  1  0
 21  1  1  0
  1  2  2  0
  2  3  1  0
  3 10  1  0
 10 11  3  0
 11 12  1  0
 12 13  1  0
 13 14  1  0
 14 15  2  0
 15 16  1  0
 16 17  2  0
 17 18  1  0
 17 19  1  0
 19 20  2  0
  3  4  2  0
  4  5  1  0
  5  6  1  0
  5  7  2  0
  7  8  1  0
 25 26  1  0
 26 27  1  0
 27 22  1  0
  7  1  1  0
 20 14  1  0
  8  9  1  0
M  END
> <minimizedAffinity>
-6.83662

> <CNNscore>
0.8837544322

> <CNNaffinity>
5.7438321114

> <CNN_VS>
5.0761370659

> <CNNaffinity_variance>
0.8425858617

$$$$



 32 34  0  0  0  0  0  0  0  0999 V2000
   91.0088   95.5008  -44.9881 C   0  0  0  0  0  0  0  0  0  0  0  0
   91.0355   94.5263  -46.0036 C   0  0  0  0  0  0  0  0  0  0  0  0
   91.5059   93.2354  -45.7504 C   0  0  0  0  0  0  0  0  0  0  0  0
   91.9497   92.8922  -44.4731 C   0  0  0  0  0  0  0  0  0  0  0  0
   91.9176   93.8446  -43.4528 C   0  0  0  0  0  0  0  0  0  0  0  0
   92.5856   93.2866  -41.5505 I   0  0  0  0  0  0  0  0  0  0  0  0
   91.4457   95.1401  -43.7068 C   0  0  0  0  0  0  0  0  0  0  0  0
   91.3970   96.0836  -42.7152 O   0  0  0  0  0  0  0  0  0  0  0  0
   91.6832   95.8685  -41.8493 H   0  0  0  0  0  0  0  0  0  0  0  0
   91.5336   92.2657  -46.8013 C   0  0  0  0  0  0  0  0  0  0  0  0
   91.5552   91.4513  -47.6841 C   0  0  0  0  0  0  0  0  0  0  0  0
   91.5792   90.4509  -48.7572 C   0  0  0  0  0  0  0  0  0  0  0  0
   90.3203   90.4606  -49.4276 O   0  0  0  0  0  0  0  0  0  0  0  0
   89.8257   89.2565  -49.8459 C   0  0  0  0  0  0  0  0  0  0  0  0
   90.1400   88.0053  -49.3108 C   0  0  0  0  0  0  0  0  0  0  0  0
   89.5568   86.8481  -49.8398 C   0  0  0  0  0  0  0  0  0  0  0  0
   88.6600   86.9437  -50.9022 C   0  0  0  0  0  0  0  0  0  0  0  0
   87.8757   85.3782  -51.6130 Br  0  0  0  0  0  0  0  0  0  0  0  0
   88.3397   88.1860  -51.4424 C   0  0  0  0  0  0  0  0  0  0  0  0
   88.9241   89.3382  -50.9120 C   0  0  0  0  0  0  0  0  0  0  0  0
   90.4760   96.8865  -45.2964 C   0  0  0  0  0  0  0  0  0  0  0  0
   90.3126  100.5243  -42.9333 C   0  0  0  0  0  0  0  0  0  0  0  0
   91.6534   99.7974  -43.1883 C   0  0  0  0  0  0  0  0  0  0  0  0
   91.5597   98.8376  -44.3763 C   0  0  0  0  0  0  0  0  0  0  0  0
   90.5358   97.8058  -44.1392 N   0  0  0  0  0  0  0  0  0  0  0  0
   89.2219   98.4332  -43.9021 C   0  0  0  0  0  0  0  0  0  0  0  0
   89.2815   99.3944  -42.7111 C   0  0  0  0  0  0  0  0  0  0  0  0
   89.9469  101.4889  -44.0171 N   0  0  0  0  0  0  0  0  0  0  0  0
   88.4586  101.8673  -46.0360 C   0  0  0  0  0  0  0  0  0  0  0  0
   88.9928  100.8996  -44.9807 C   0  0  0  0  0  0  0  0  0  0  0  0
   91.1102  102.1079  -44.6823 C   0  0  0  0  0  0  0  0  0  0  0  0
   91.6512  103.3834  -44.0423 C   0  0  0  0  0  0  0  0  0  0  0  0
 29 30  1  0
 30 28  1  0
 28 31  1  0
 31 32  1  0
 28 22  1  0
 22 23  1  0
 23 24  1  0
 24 25  1  0
 25 21  1  0
 21  1  1  0
  1  2  2  0
  2  3  1  0
  3 10  1  0
 10 11  3  0
 11 12  1  0
 12 13  1  0
 13 14  1  0
 14 15  2  0
 15 16  1  0
 16 17  2  0
 17 18  1  0
 17 19  1  0
 19 20  2  0
  3  4  2  0
  4  5  1  0
  5  6  1  0
  5  7  2  0
  7  8  1  0
 25 26  1  0
 26 27  1  0
 27 22  1  0
  7  1  1  0
 20 14  1  0
  8  9  1  0
M  END
> <minimizedAffinity>
-6.82098

> <CNNscore>
0.8672607541

> <CNNaffinity>
5.9251885414

> <CNN_VS>
5.1386833191

> <CNNaffinity_variance>
0.4002645910

$$$$



 32 34  0  0  0  0  0  0  0  0999 V2000
   90.9336   95.7587  -45.0462 C   0  0  0  0  0  0  0  0  0  0  0  0
   90.9636   94.7612  -46.0392 C   0  0  0  0  0  0  0  0  0  0  0  0
   91.4467   93.4807  -45.7589 C   0  0  0  0  0  0  0  0  0  0  0  0
   91.9001   93.1709  -44.4766 C   0  0  0  0  0  0  0  0  0  0  0  0
   91.8651   94.1462  -43.4783 C   0  0  0  0  0  0  0  0  0  0  0  0
   92.5480   93.6380  -41.5673 I   0  0  0  0  0  0  0  0  0  0  0  0
   91.3805   95.4314  -43.7594 C   0  0  0  0  0  0  0  0  0  0  0  0
   91.3287   96.3971  -42.7895 O   0  0  0  0  0  0  0  0  0  0  0  0
   91.6214   96.2044  -41.9205 H   0  0  0  0  0  0  0  0  0  0  0  0
   91.4773   92.4873  -46.7874 C   0  0  0  0  0  0  0  0  0  0  0  0
   91.5021   91.6539  -47.6522 C   0  0  0  0  0  0  0  0  0  0  0  0
   91.5249   90.6337  -48.7066 C   0  0  0  0  0  0  0  0  0  0  0  0
   90.2155   90.5084  -49.2581 O   0  0  0  0  0  0  0  0  0  0  0  0
   89.8228   89.2614  -49.6586 C   0  0  0  0  0  0  0  0  0  0  0  0
   90.2734   88.0474  -49.1353 C   0  0  0  0  0  0  0  0  0  0  0  0
   89.7841   86.8384  -49.6433 C   0  0  0  0  0  0  0  0  0  0  0  0
   88.8449   86.8450  -50.6728 C   0  0  0  0  0  0  0  0  0  0  0  0
   88.1879   85.2100  -51.3553 Br  0  0  0  0  0  0  0  0  0  0  0  0
   88.3890   88.0496  -51.2009 C   0  0  0  0  0  0  0  0  0  0  0  0
   88.8800   89.2538  -50.6916 C   0  0  0  0  0  0  0  0  0  0  0  0
   90.3871   97.1322  -45.3835 C   0  0  0  0  0  0  0  0  0  0  0  0
   86.6908   99.1328  -44.2975 C   0  0  0  0  0  0  0  0  0  0  0  0
   87.8882   99.0823  -43.3204 C   0  0  0  0  0  0  0  0  0  0  0  0
   89.1947   98.7477  -44.0432 C   0  0  0  0  0  0  0  0  0  0  0  0
   89.1082   97.4344  -44.7045 N   0  0  0  0  0  0  0  0  0  0  0  0
   87.9896   97.4180  -45.6661 C   0  0  0  0  0  0  0  0  0  0  0  0
   86.6644   97.7410  -44.9695 C   0  0  0  0  0  0  0  0  0  0  0  0
   86.7572  100.2797  -45.2563 N   0  0  0  0  0  0  0  0  0  0  0  0
   85.4207  101.3018  -43.3581 C   0  0  0  0  0  0  0  0  0  0  0  0
   86.0446  101.4692  -44.7430 C   0  0  0  0  0  0  0  0  0  0  0  0
   86.3534   99.9308  -46.6326 C   0  0  0  0  0  0  0  0  0  0  0  0
   85.2701  100.8052  -47.2579 C   0  0  0  0  0  0  0  0  0  0  0  0
 29 30  1  0
 30 28  1  0
 28 31  1  0
 31 32  1  0
 28 22  1  0
 22 23  1  0
 23 24  1  0
 24 25  1  0
 25 21  1  0
 21  1  1  0
  1  2  2  0
  2  3  1  0
  3 10  1  0
 10 11  3  0
 11 12  1  0
 12 13  1  0
 13 14  1  0
 14 15  2  0
 15 16  1  0
 16 17  2  0
 17 18  1  0
 17 19  1  0
 19 20  2  0
  3  4  2  0
  4  5  1  0
  5  6  1  0
  5  7  2  0
  7  8  1  0
 25 26  1  0
 26 27  1  0
 27 22  1  0
  7  1  1  0
 20 14  1  0
  8  9  1  0
M  END
> <minimizedAffinity>
-6.51726

> <CNNscore>
0.7357349992

> <CNNaffinity>
5.2120265961

> <CNN_VS>
3.8346703053

> <CNNaffinity_variance>
1.0811978579

$$$$



 32 34  0  0  0  0  0  0  0  0999 V2000
   90.9497   95.5690  -45.1392 C   0  0  0  0  0  0  0  0  0  0  0  0
   91.0189   94.5368  -46.0940 C   0  0  0  0  0  0  0  0  0  0  0  0
   91.5191   93.2767  -45.7568 C   0  0  0  0  0  0  0  0  0  0  0  0
   91.9508   93.0225  -44.4549 C   0  0  0  0  0  0  0  0  0  0  0  0
   91.8767   94.0326  -43.4941 C   0  0  0  0  0  0  0  0  0  0  0  0
   92.5280   93.6075  -41.5520 I   0  0  0  0  0  0  0  0  0  0  0  0
   91.3749   95.2973  -43.8323 C   0  0  0  0  0  0  0  0  0  0  0  0
   91.2850   96.2966  -42.8999 O   0  0  0  0  0  0  0  0  0  0  0  0
   91.5625   96.1413  -42.0185 H   0  0  0  0  0  0  0  0  0  0  0  0
   91.5897   92.2472  -46.7472 C   0  0  0  0  0  0  0  0  0  0  0  0
   91.6473   91.3825  -47.5790 C   0  0  0  0  0  0  0  0  0  0  0  0
   91.7159   90.3208  -48.5896 C   0  0  0  0  0  0  0  0  0  0  0  0
   90.4218   90.1424  -49.1623 O   0  0  0  0  0  0  0  0  0  0  0  0
   90.1157   90.8958  -50.2614 C   0  0  0  0  0  0  0  0  0  0  0  0
   90.8148   92.0175  -50.7130 C   0  0  0  0  0  0  0  0  0  0  0  0
   90.3874   92.6975  -51.8593 C   0  0  0  0  0  0  0  0  0  0  0  0
   89.2625   92.2547  -52.5526 C   0  0  0  0  0  0  0  0  0  0  0  0
   88.6895   93.1766  -54.0994 Br  0  0  0  0  0  0  0  0  0  0  0  0
   88.5591   91.1375  -52.1112 C   0  0  0  0  0  0  0  0  0  0  0  0
   88.9885   90.4621  -50.9667 C   0  0  0  0  0  0  0  0  0  0  0  0
   90.3855   96.9187  -45.5380 C   0  0  0  0  0  0  0  0  0  0  0  0
   86.5290   98.7716  -44.8046 C   0  0  0  0  0  0  0  0  0  0  0  0
   87.6607   98.8405  -43.7532 C   0  0  0  0  0  0  0  0  0  0  0  0
   89.0271   98.5382  -44.3719 C   0  0  0  0  0  0  0  0  0  0  0  0
   89.0512   97.1877  -44.9593 N   0  0  0  0  0  0  0  0  0  0  0  0
   88.0004   97.0574  -45.9864 C   0  0  0  0  0  0  0  0  0  0  0  0
   86.6176   97.3456  -45.3943 C   0  0  0  0  0  0  0  0  0  0  0  0
   86.5997   99.8658  -45.8228 N   0  0  0  0  0  0  0  0  0  0  0  0
   86.1788  102.0358  -44.5785 C   0  0  0  0  0  0  0  0  0  0  0  0
   87.1798  101.1045  -45.2614 C   0  0  0  0  0  0  0  0  0  0  0  0
   85.3254  100.1087  -46.5270 C   0  0  0  0  0  0  0  0  0  0  0  0
   84.6085   98.8739  -47.0660 C   0  0  0  0  0  0  0  0  0  0  0  0
 29 30  1  0
 30 28  1  0
 28 31  1  0
 31 32  1  0
 28 22  1  0
 22 23  1  0
 23 24  1  0
 24 25  1  0
 25 21  1  0
 21  1  1  0
  1  2  2  0
  2  3  1  0
  3 10  1  0
 10 11  3  0
 11 12  1  0
 12 13  1  0
 13 14  1  0
 14 15  2  0
 15 16  1  0
 16 17  2  0
 17 18  1  0
 17 19  1  0
 19 20  2  0
  3  4  2  0
  4  5  1  0
  5  6  1  0
  5  7  2  0
  7  8  1  0
 25 26  1  0
 26 27  1  0
 27 22  1  0
  7  1  1  0
 20 14  1  0
  8  9  1  0
M  END
> <minimizedAffinity>
-6.55711

> <CNNscore>
0.7301071286

> <CNNaffinity>
5.1483550072

> <CNN_VS>
3.7588505745

> <CNNaffinity_variance>
1.3914767504

$$$$



 32 34  0  0  0  0  0  0  0  0999 V2000
   90.9137   95.7465  -45.0476 C   0  0  0  0  0  0  0  0  0  0  0  0
   90.9585   94.7531  -46.0441 C   0  0  0  0  0  0  0  0  0  0  0  0
   91.4316   93.4696  -45.7603 C   0  0  0  0  0  0  0  0  0  0  0  0
   91.8599   93.1528  -44.4711 C   0  0  0  0  0  0  0  0  0  0  0  0
   91.8098   94.1240  -43.4694 C   0  0  0  0  0  0  0  0  0  0  0  0
   92.4551   93.6052  -41.5483 I   0  0  0  0  0  0  0  0  0  0  0  0
   91.3352   95.4121  -43.7541 C   0  0  0  0  0  0  0  0  0  0  0  0
   91.2689   96.3739  -42.7812 O   0  0  0  0  0  0  0  0  0  0  0  0
   91.5446   96.1766  -41.9077 H   0  0  0  0  0  0  0  0  0  0  0  0
   91.4778   92.4804  -46.7923 C   0  0  0  0  0  0  0  0  0  0  0  0
   91.5182   91.6495  -47.6588 C   0  0  0  0  0  0  0  0  0  0  0  0
   91.5708   90.6398  -48.7222 C   0  0  0  0  0  0  0  0  0  0  0  0
   90.4380   89.7814  -48.6022 O   0  0  0  0  0  0  0  0  0  0  0  0
   89.7005   89.5584  -49.7317 C   0  0  0  0  0  0  0  0  0  0  0  0
   89.1849   90.5356  -50.5861 C   0  0  0  0  0  0  0  0  0  0  0  0
   88.4430   90.1632  -51.7131 C   0  0  0  0  0  0  0  0  0  0  0  0
   88.2183   88.8149  -51.9843 C   0  0  0  0  0  0  0  0  0  0  0  0
   87.2157   88.3176  -53.5069 Br  0  0  0  0  0  0  0  0  0  0  0  0
   88.7282   87.8332  -51.1393 C   0  0  0  0  0  0  0  0  0  0  0  0
   89.4676   88.2089  -50.0156 C   0  0  0  0  0  0  0  0  0  0  0  0
   90.3785   97.1235  -45.3891 C   0  0  0  0  0  0  0  0  0  0  0  0
   86.9654   98.1810  -47.8541 C   0  0  0  0  0  0  0  0  0  0  0  0
   87.0000   96.8506  -47.0669 C   0  0  0  0  0  0  0  0  0  0  0  0
   88.0421   96.8827  -45.9469 C   0  0  0  0  0  0  0  0  0  0  0  0
   89.3919   97.1095  -46.4910 N   0  0  0  0  0  0  0  0  0  0  0  0
   89.4336   98.3765  -47.2455 C   0  0  0  0  0  0  0  0  0  0  0  0
   88.4060   98.3711  -48.3812 C   0  0  0  0  0  0  0  0  0  0  0  0
   86.4458   99.3310  -47.0501 N   0  0  0  0  0  0  0  0  0  0  0  0
   84.8470   99.0474  -45.1014 C   0  0  0  0  0  0  0  0  0  0  0  0
   85.0497   99.1132  -46.6147 C   0  0  0  0  0  0  0  0  0  0  0  0
   86.6365  100.6447  -47.6958 C   0  0  0  0  0  0  0  0  0  0  0  0
   85.3722  101.4634  -47.9416 C   0  0  0  0  0  0  0  0  0  0  0  0
 29 30  1  0
 30 28  1  0
 28 31  1  0
 31 32  1  0
 28 22  1  0
 22 23  1  0
 23 24  1  0
 24 25  1  0
 25 21  1  0
 21  1  1  0
  1  2  2  0
  2  3  1  0
  3 10  1  0
 10 11  3  0
 11 12  1  0
 12 13  1  0
 13 14  1  0
 14 15  2  0
 15 16  1  0
 16 17  2  0
 17 18  1  0
 17 19  1  0
 19 20  2  0
  3  4  2  0
  4  5  1  0
  5  6  1  0
  5  7  2  0
  7  8  1  0
 25 26  1  0
 26 27  1  0
 27 22  1  0
  7  1  1  0
 20 14  1  0
  8  9  1  0
M  END
> <minimizedAffinity>
-5.94432

> <CNNscore>
0.5580626726

> <CNNaffinity>
4.8545432091

> <CNN_VS>
2.7091393471

> <CNNaffinity_variance>
1.4097310305

$$$$



 32 34  0  0  0  0  0  0  0  0999 V2000
   86.7565   88.2892  -48.8026 C   0  0  0  0  0  0  0  0  0  0  0  0
   87.2144   89.4932  -49.3706 C   0  0  0  0  0  0  0  0  0  0  0  0
   88.5477   89.6447  -49.7592 C   0  0  0  0  0  0  0  0  0  0  0  0
   89.4464   88.5903  -49.5958 C   0  0  0  0  0  0  0  0  0  0  0  0
   89.0041   87.3860  -49.0453 C   0  0  0  0  0  0  0  0  0  0  0  0
   90.3827   85.8281  -48.8241 I   0  0  0  0  0  0  0  0  0  0  0  0
   87.6661   87.2339  -48.6551 C   0  0  0  0  0  0  0  0  0  0  0  0
   87.2125   86.0560  -48.1235 O   0  0  0  0  0  0  0  0  0  0  0  0
   87.8001   85.3344  -48.0140 H   0  0  0  0  0  0  0  0  0  0  0  0
   88.9917   90.8814  -50.3237 C   0  0  0  0  0  0  0  0  0  0  0  0
   89.3661   91.9196  -50.7980 C   0  0  0  0  0  0  0  0  0  0  0  0
   89.8265   93.1900  -51.3702 C   0  0  0  0  0  0  0  0  0  0  0  0
   90.7611   92.9166  -52.4125 O   0  0  0  0  0  0  0  0  0  0  0  0
   91.6420   93.9102  -52.7383 C   0  0  0  0  0  0  0  0  0  0  0  0
   91.3172   95.1529  -53.2870 C   0  0  0  0  0  0  0  0  0  0  0  0
   92.3259   96.0802  -53.5731 C   0  0  0  0  0  0  0  0  0  0  0  0
   93.6574   95.7639  -53.3096 C   0  0  0  0  0  0  0  0  0  0  0  0
   95.0154   97.0192  -53.6981 Br  0  0  0  0  0  0  0  0  0  0  0  0
   93.9916   94.5283  -52.7624 C   0  0  0  0  0  0  0  0  0  0  0  0
   92.9821   93.6058  -52.4788 C   0  0  0  0  0  0  0  0  0  0  0  0
   85.2986   88.1563  -48.4081 C   0  0  0  0  0  0  0  0  0  0  0  0
   83.4039   88.3079  -44.5053 C   0  0  0  0  0  0  0  0  0  0  0  0
   84.5394   89.2883  -44.8802 C   0  0  0  0  0  0  0  0  0  0  0  0
   84.7422   89.3668  -46.3948 C   0  0  0  0  0  0  0  0  0  0  0  0
   85.0968   88.0480  -46.9468 N   0  0  0  0  0  0  0  0  0  0  0  0
   84.0433   87.0631  -46.6366 C   0  0  0  0  0  0  0  0  0  0  0  0
   83.8232   86.9552  -45.1247 C   0  0  0  0  0  0  0  0  0  0  0  0
   82.0485   88.7843  -44.9236 N   0  0  0  0  0  0  0  0  0  0  0  0
   80.5388   90.8208  -45.0117 C   0  0  0  0  0  0  0  0  0  0  0  0
   81.7427   90.1242  -44.3784 C   0  0  0  0  0  0  0  0  0  0  0  0
   80.9687   87.8112  -44.6669 C   0  0  0  0  0  0  0  0  0  0  0  0
   80.2535   87.2597  -45.8971 C   0  0  0  0  0  0  0  0  0  0  0  0
 29 30  1  0
 30 28  1  0
 28 31  1  0
 31 32  1  0
 28 22  1  0
 22 23  1  0
 23 24  1  0
 24 25  1  0
 25 21  1  0
 21  1  1  0
  1  2  2  0
  2  3  1  0
  3 10  1  0
 10 11  3  0
 11 12  1  0
 12 13  1  0
 13 14  1  0
 14 15  2  0
 15 16  1  0
 16 17  2  0
 17 18  1  0
 17 19  1  0
 19 20  2  0
  3  4  2  0
  4  5  1  0
  5  6  1  0
  5  7  2  0
  7  8  1  0
 25 26  1  0
 26 27  1  0
 27 22  1  0
  7  1  1  0
 20 14  1  0
  8  9  1  0
M  END
> <minimizedAffinity>
-4.28070

> <CNNscore>
0.3915280104

> <CNNaffinity>
4.8677296638

> <CNN_VS>
1.9058525562

> <CNNaffinity_variance>
0.5762662292

$$$$



 32 34  0  0  0  0  0  0  0  0999 V2000
   84.1199   93.0094  -48.1985 C   0  0  0  0  0  0  0  0  0  0  0  0
   84.1948   93.9422  -47.1468 C   0  0  0  0  0  0  0  0  0  0  0  0
   84.7632   95.2034  -47.3422 C   0  0  0  0  0  0  0  0  0  0  0  0
   85.2588   95.5589  -48.5968 C   0  0  0  0  0  0  0  0  0  0  0  0
   85.1802   94.6488  -49.6526 C   0  0  0  0  0  0  0  0  0  0  0  0
   85.9288   95.2245  -51.5193 I   0  0  0  0  0  0  0  0  0  0  0  0
   84.6100   93.3831  -49.4566 C   0  0  0  0  0  0  0  0  0  0  0  0
   84.5149   92.4820  -50.4837 O   0  0  0  0  0  0  0  0  0  0  0  0
   84.8350   92.7066  -51.3352 H   0  0  0  0  0  0  0  0  0  0  0  0
   84.8379   96.1299  -46.2553 C   0  0  0  0  0  0  0  0  0  0  0  0
   84.9022   96.9075  -45.3419 C   0  0  0  0  0  0  0  0  0  0  0  0
   84.9786   97.8515  -44.2211 C   0  0  0  0  0  0  0  0  0  0  0  0
   85.8512   98.9224  -44.5764 O   0  0  0  0  0  0  0  0  0  0  0  0
   87.1661   98.8008  -44.2220 C   0  0  0  0  0  0  0  0  0  0  0  0
   88.1604   98.1481  -44.9543 C   0  0  0  0  0  0  0  0  0  0  0  0
   89.4727   98.0997  -44.4697 C   0  0  0  0  0  0  0  0  0  0  0  0
   89.7888   98.7044  -43.2546 C   0  0  0  0  0  0  0  0  0  0  0  0
   91.5619   98.6357  -42.6047 Br  0  0  0  0  0  0  0  0  0  0  0  0
   88.8053   99.3578  -42.5174 C   0  0  0  0  0  0  0  0  0  0  0  0
   87.4971   99.4035  -43.0042 C   0  0  0  0  0  0  0  0  0  0  0  0
   83.4813   91.6564  -47.9528 C   0  0  0  0  0  0  0  0  0  0  0  0
   84.8764   88.1046  -45.8833 C   0  0  0  0  0  0  0  0  0  0  0  0
   84.6747   89.4399  -45.1303 C   0  0  0  0  0  0  0  0  0  0  0  0
   83.7764   90.4006  -45.9123 C   0  0  0  0  0  0  0  0  0  0  0  0
   84.3634   90.7180  -47.2253 N   0  0  0  0  0  0  0  0  0  0  0  0
   84.5696   89.4834  -48.0059 C   0  0  0  0  0  0  0  0  0  0  0  0
   85.4740   88.5039  -47.2518 C   0  0  0  0  0  0  0  0  0  0  0  0
   83.6306   87.2805  -45.9709 N   0  0  0  0  0  0  0  0  0  0  0  0
   83.3371   85.5724  -44.1187 C   0  0  0  0  0  0  0  0  0  0  0  0
   83.0696   86.9857  -44.6350 C   0  0  0  0  0  0  0  0  0  0  0  0
   83.7739   86.0690  -46.8021 C   0  0  0  0  0  0  0  0  0  0  0  0
   82.7240   85.8731  -47.8923 C   0  0  0  0  0  0  0  0  0  0  0  0
 29 30  1  0
 30 28  1  0
 28 31  1  0
 31 32  1  0
 28 22  1  0
 22 23  1  0
 23 24  1  0
 24 25  1  0
 25 21  1  0
 21  1  1  0
  1  2  2  0
  2  3  1  0
  3 10  1  0
 10 11  3  0
 11 12  1  0
 12 13  1  0
 13 14  1  0
 14 15  2  0
 15 16  1  0
 16 17  2  0
 17 18  1  0
 17 19  1  0
 19 20  2  0
  3  4  2  0
  4  5  1  0
  5  6  1  0
  5  7  2  0
  7  8  1  0
 25 26  1  0
 26 27  1  0
 27 22  1  0
  7  1  1  0
 20 14  1  0
  8  9  1  0
M  END
> <minimizedAffinity>
-4.33089

> <CNNscore>
0.3294434547

> <CNNaffinity>
4.6587767601

> <CNN_VS>
1.5348035097

> <CNNaffinity_variance>
0.4768450260

$$$$



 32 34  0  0  0  0  0  0  0  0999 V2000
   85.5539   98.4641  -43.9598 C   0  0  0  0  0  0  0  0  0  0  0  0
   85.1857   97.3236  -44.6983 C   0  0  0  0  0  0  0  0  0  0  0  0
   83.9018   97.1965  -45.2342 C   0  0  0  0  0  0  0  0  0  0  0  0
   82.9645   98.2131  -45.0494 C   0  0  0  0  0  0  0  0  0  0  0  0
   83.3191   99.3557  -44.3298 C   0  0  0  0  0  0  0  0  0  0  0  0
   81.8859  100.8593  -44.0820 I   0  0  0  0  0  0  0  0  0  0  0  0
   84.6075   99.4833  -43.7918 C   0  0  0  0  0  0  0  0  0  0  0  0
   84.9758  100.6019  -43.0925 O   0  0  0  0  0  0  0  0  0  0  0  0
   84.3620  101.2984  -42.9656 H   0  0  0  0  0  0  0  0  0  0  0  0
   83.5478   96.0232  -45.9715 C   0  0  0  0  0  0  0  0  0  0  0  0
   83.2489   95.0383  -46.5908 C   0  0  0  0  0  0  0  0  0  0  0  0
   82.8807   93.8320  -47.3407 C   0  0  0  0  0  0  0  0  0  0  0  0
   84.0691   93.1964  -47.8078 O   0  0  0  0  0  0  0  0  0  0  0  0
   84.2868   91.9071  -47.4081 C   0  0  0  0  0  0  0  0  0  0  0  0
   84.2808   91.4398  -46.0919 C   0  0  0  0  0  0  0  0  0  0  0  0
   84.5207   90.0868  -45.8254 C   0  0  0  0  0  0  0  0  0  0  0  0
   84.7655   89.2033  -46.8750 C   0  0  0  0  0  0  0  0  0  0  0  0
   85.0893   87.3778  -46.5097 Br  0  0  0  0  0  0  0  0  0  0  0  0
   84.7732   89.6589  -48.1903 C   0  0  0  0  0  0  0  0  0  0  0  0
   84.5338   91.0098  -48.4520 C   0  0  0  0  0  0  0  0  0  0  0  0
   86.9618   98.5740  -43.4075 C   0  0  0  0  0  0  0  0  0  0  0  0
   89.9978  101.6530  -43.7905 C   0  0  0  0  0  0  0  0  0  0  0  0
   88.8435  101.7923  -42.7711 C   0  0  0  0  0  0  0  0  0  0  0  0
   88.1755  100.4457  -42.4850 C   0  0  0  0  0  0  0  0  0  0  0  0
   87.6106   99.8670  -43.7159 N   0  0  0  0  0  0  0  0  0  0  0  0
   88.6665   99.6925  -44.7312 C   0  0  0  0  0  0  0  0  0  0  0  0
   89.3487  101.0271  -45.0460 C   0  0  0  0  0  0  0  0  0  0  0  0
   91.1698  100.8910  -43.2570 N   0  0  0  0  0  0  0  0  0  0  0  0
   92.3294  101.5036  -41.0857 C   0  0  0  0  0  0  0  0  0  0  0  0
   91.1536  100.8176  -41.7803 C   0  0  0  0  0  0  0  0  0  0  0  0
   92.4699  101.3498  -43.7844 C   0  0  0  0  0  0  0  0  0  0  0  0
   92.4571  102.6696  -44.5507 C   0  0  0  0  0  0  0  0  0  0  0  0
 29 30  1  0
 30 28  1  0
 28 31  1  0
 31 32  1  0
 28 22  1  0
 22 23  1  0
 23 24  1  0
 24 25  1  0
 25 21  1  0
 21  1  1  0
  1  2  2  0
  2  3  1  0
  3 10  1  0
 10 11  3  0
 11 12  1  0
 12 13  1  0
 13 14  1  0
 14 15  2  0
 15 16  1  0
 16 17  2  0
 17 18  1  0
 17 19  1  0
 19 20  2  0
  3  4  2  0
  4  5  1  0
  5  6  1  0
  5  7  2  0
  7  8  1  0
 25 26  1  0
 26 27  1  0
 27 22  1  0
  7  1  1  0
 20 14  1  0
  8  9  1  0
M  END
> <minimizedAffinity>
-4.62913

> <CNNscore>
0.3283760846

> <CNNaffinity>
4.9052677155

> <CNN_VS>
1.6107726097

> <CNNaffinity_variance>
0.2812289000

$$$$



 32 34  0  0  0  0  0  0  0  0999 V2000
   84.4392   96.0131  -47.1974 C   0  0  0  0  0  0  0  0  0  0  0  0
   85.7965   96.2587  -46.9156 C   0  0  0  0  0  0  0  0  0  0  0  0
   86.1811   97.3288  -46.1039 C   0  0  0  0  0  0  0  0  0  0  0  0
   85.2138   98.1680  -45.5506 C   0  0  0  0  0  0  0  0  0  0  0  0
   83.8631   97.9295  -45.8111 C   0  0  0  0  0  0  0  0  0  0  0  0
   82.4448   99.2076  -44.9561 I   0  0  0  0  0  0  0  0  0  0  0  0
   83.4770   96.8558  -46.6258 C   0  0  0  0  0  0  0  0  0  0  0  0
   82.1562   96.6006  -46.8830 O   0  0  0  0  0  0  0  0  0  0  0  0
   81.4924   97.1489  -46.5131 H   0  0  0  0  0  0  0  0  0  0  0  0
   87.5670   97.5646  -45.8411 C   0  0  0  0  0  0  0  0  0  0  0  0
   88.7313   97.7627  -45.6220 C   0  0  0  0  0  0  0  0  0  0  0  0
   90.1553   97.9973  -45.3565 C   0  0  0  0  0  0  0  0  0  0  0  0
   90.8895   96.8231  -45.6979 O   0  0  0  0  0  0  0  0  0  0  0  0
   91.2303   95.9802  -44.6767 C   0  0  0  0  0  0  0  0  0  0  0  0
   91.2893   96.3095  -43.3207 C   0  0  0  0  0  0  0  0  0  0  0  0
   91.6558   95.3421  -42.3778 C   0  0  0  0  0  0  0  0  0  0  0  0
   91.9619   94.0471  -42.7920 C   0  0  0  0  0  0  0  0  0  0  0  0
   92.4565   92.7450  -41.5151 Br  0  0  0  0  0  0  0  0  0  0  0  0
   91.9056   93.7086  -44.1411 C   0  0  0  0  0  0  0  0  0  0  0  0
   91.5399   94.6769  -45.0787 C   0  0  0  0  0  0  0  0  0  0  0  0
   84.0592   94.8323  -48.0693 C   0  0  0  0  0  0  0  0  0  0  0  0
   82.2282   91.1959  -46.5631 C   0  0  0  0  0  0  0  0  0  0  0  0
   81.6188   91.9594  -47.7616 C   0  0  0  0  0  0  0  0  0  0  0  0
   82.6310   92.9140  -48.3984 C   0  0  0  0  0  0  0  0  0  0  0  0
   83.0927   93.9173  -47.4239 N   0  0  0  0  0  0  0  0  0  0  0  0
   83.7017   93.2538  -46.2555 C   0  0  0  0  0  0  0  0  0  0  0  0
   82.7079   92.2970  -45.5901 C   0  0  0  0  0  0  0  0  0  0  0  0
   83.2897   90.2194  -46.9614 N   0  0  0  0  0  0  0  0  0  0  0  0
   84.6104   89.0887  -45.1143 C   0  0  0  0  0  0  0  0  0  0  0  0
   84.4603   90.2796  -46.0603 C   0  0  0  0  0  0  0  0  0  0  0  0
   83.6697   90.2993  -48.3855 C   0  0  0  0  0  0  0  0  0  0  0  0
   85.1636   90.2239  -48.6884 C   0  0  0  0  0  0  0  0  0  0  0  0
 29 30  1  0
 30 28  1  0
 28 31  1  0
 31 32  1  0
 28 22  1  0
 22 23  1  0
 23 24  1  0
 24 25  1  0
 25 21  1  0
 21  1  1  0
  1  2  2  0
  2  3  1  0
  3 10  1  0
 10 11  3  0
 11 12  1  0
 12 13  1  0
 13 14  1  0
 14 15  2  0
 15 16  1  0
 16 17  2  0
 17 18  1  0
 17 19  1  0
 19 20  2  0
  3  4  2  0
  4  5  1  0
  5  6  1  0
  5  7  2  0
  7  8  1  0
 25 26  1  0
 26 27  1  0
 27 22  1  0
  7  1  1  0
 20 14  1  0
  8  9  1  0
M  END
> <minimizedAffinity>
-5.27378

> <CNNscore>
0.2655267119

> <CNNaffinity>
4.9646458626

> <CNN_VS>
1.3182461262

> <CNNaffinity_variance>
0.8863592148

$$$$
