


 25 26  0  0  0  0  0  0  0  0999 V2000
   31.8646   20.9942   26.3793 C   0  0  0  0  0  0  0  0  0  0  0  0
   32.7609   21.5456   27.5138 C   0  0  0  0  0  0  0  0  0  0  0  0
   33.8661   20.6490   27.7209 O   0  0  0  0  0  0  0  0  0  0  0  0
   33.1853   23.0135   27.2508 C   0  0  0  0  0  0  0  0  0  0  0  0
   32.0277   23.8259   27.0396 O   0  0  0  0  0  0  0  0  0  0  0  0
   31.2161   23.4300   25.9126 C   0  0  0  0  0  0  0  0  0  0  0  0
   31.5484   22.0500   25.3142 C   0  0  0  0  0  0  0  0  0  0  0  0
   32.7038   22.1754   24.4659 O   0  0  0  0  0  0  0  0  0  0  0  0
   34.3924   20.5913   26.9081 H   0  0  0  0  0  0  0  0  0  0  0  0
   33.4628   22.4676   24.9945 H   0  0  0  0  0  0  0  0  0  0  0  0
   33.9468   23.5573   28.3906 N   0  0  0  0  0  0  0  0  0  0  0  0
   35.3315   23.6308   28.3588 C   0  0  0  0  0  0  0  0  0  0  0  0
   36.0224   24.2056   29.3404 C   0  0  0  0  0  0  0  0  0  0  0  0
   37.3653   24.2963   29.3217 F   0  0  0  0  0  0  0  0  0  0  0  0
   35.3114   24.8242   30.4748 C   0  0  0  0  0  0  0  0  0  0  0  0
   35.8914   25.4611   31.3507 O   0  0  0  0  0  0  0  0  0  0  0  0
   33.9514   24.6389   30.4696 N   0  0  0  0  0  0  0  0  0  0  0  0
   33.2178   24.1173   29.4343 C   0  0  0  0  0  0  0  0  0  0  0  0
   31.9864   24.1703   29.4428 O   0  0  0  0  0  0  0  0  0  0  0  0
   33.4591   24.9036   31.2801 H   0  0  0  0  0  0  0  0  0  0  0  0
   29.7582   23.5261   26.3648 C   0  0  0  0  0  0  0  0  0  0  0  0
   29.0131   22.4660   25.7635 O   0  0  0  0  0  0  0  0  0  0  0  0
   29.0642   22.5421   24.7978 H   0  0  0  0  0  0  0  0  0  0  0  0
   30.7091   19.2182   27.4706 C   0  0  0  0  0  0  0  0  0  0  0  0
   30.6056   20.5252   26.9055 O   0  0  0  0  0  0  0  0  0  0  0  0
 24 25  1  0
  1 25  1  0
  1  2  1  0
  2  3  1  0
  2  4  1  0
  4 11  1  0
 11 12  1  0
 12 13  2  0
 13 14  1  0
 13 15  1  0
 15 16  2  0
 15 17  1  0
 17 18  1  0
 18 19  2  0
  4  5  1  0
  5  6  1  0
  6 21  1  0
 21 22  1  0
  6  7  1  0
  7  8  1  0
  7  1  1  0
 18 11  1  0
  3  9  1  0
 17 20  1  0
 22 23  1  0
  8 10  1  0
M  END
> <minimizedAffinity>
-9.00121

> <CNNscore>
0.5352065563

> <CNNaffinity>
4.4136481285

> <CNN_VS>
2.3622133732

> <CNNaffinity_variance>
0.3964637220

$$$$



 25 26  0  0  0  0  0  0  0  0999 V2000
   32.4676   22.6001   25.3516 C   0  0  0  0  0  0  0  0  0  0  0  0
   33.4568   23.1946   26.3823 C   0  0  0  0  0  0  0  0  0  0  0  0
   33.8099   24.5302   25.9825 O   0  0  0  0  0  0  0  0  0  0  0  0
   32.9085   23.0977   27.8293 C   0  0  0  0  0  0  0  0  0  0  0  0
   32.5686   21.7423   28.1327 O   0  0  0  0  0  0  0  0  0  0  0  0
   31.5551   21.1730   27.2757 C   0  0  0  0  0  0  0  0  0  0  0  0
   31.2263   21.9904   26.0121 C   0  0  0  0  0  0  0  0  0  0  0  0
   30.3466   23.0708   26.3713 O   0  0  0  0  0  0  0  0  0  0  0  0
   33.0128   25.0826   25.9611 H   0  0  0  0  0  0  0  0  0  0  0  0
   30.7938   23.6555   27.0030 H   0  0  0  0  0  0  0  0  0  0  0  0
   33.9071   23.5682   28.8071 N   0  0  0  0  0  0  0  0  0  0  0  0
   35.2656   23.4940   28.5376 C   0  0  0  0  0  0  0  0  0  0  0  0
   36.1710   24.0013   29.3708 C   0  0  0  0  0  0  0  0  0  0  0  0
   37.4926   23.9487   29.1209 F   0  0  0  0  0  0  0  0  0  0  0  0
   35.7339   24.7023   30.5925 C   0  0  0  0  0  0  0  0  0  0  0  0
   36.5188   25.2822   31.3389 O   0  0  0  0  0  0  0  0  0  0  0  0
   34.3816   24.6624   30.8245 N   0  0  0  0  0  0  0  0  0  0  0  0
   33.4307   24.2121   29.9441 C   0  0  0  0  0  0  0  0  0  0  0  0
   32.2313   24.3956   30.1612 O   0  0  0  0  0  0  0  0  0  0  0  0
   34.0664   24.9853   31.6995 H   0  0  0  0  0  0  0  0  0  0  0  0
   32.0098   19.7517   26.9406 C   0  0  0  0  0  0  0  0  0  0  0  0
   31.2670   18.8255   27.7350 O   0  0  0  0  0  0  0  0  0  0  0  0
   31.4225   19.0082   28.6748 H   0  0  0  0  0  0  0  0  0  0  0  0
   34.2935   21.0761   25.1977 C   0  0  0  0  0  0  0  0  0  0  0  0
   33.0993   21.5569   24.5805 O   0  0  0  0  0  0  0  0  0  0  0  0
 24 25  1  0
  1 25  1  0
  1  2  1  0
  2  3  1  0
  2  4  1  0
  4 11  1  0
 11 12  1  0
 12 13  2  0
 13 14  1  0
 13 15  1  0
 15 16  2  0
 15 17  1  0
 17 18  1  0
 18 19  2  0
  4  5  1  0
  5  6  1  0
  6 21  1  0
 21 22  1  0
  6  7  1  0
  7  8  1  0
  7  1  1  0
 18 11  1  0
  3  9  1  0
 17 20  1  0
 22 23  1  0
  8 10  1  0
M  END
> <minimizedAffinity>
-8.86726

> <CNNscore>
0.4547419548

> <CNNaffinity>
4.5346961021

> <CNN_VS>
2.0621166229

> <CNNaffinity_variance>
0.2439251989

$$$$



 25 26  0  0  0  0  0  0  0  0999 V2000
   37.8706   23.8394   30.7535 C   0  0  0  0  0  0  0  0  0  0  0  0
   37.9635   24.3119   32.2240 C   0  0  0  0  0  0  0  0  0  0  0  0
   39.3286   24.2151   32.6661 O   0  0  0  0  0  0  0  0  0  0  0  0
   37.3400   25.7182   32.4178 C   0  0  0  0  0  0  0  0  0  0  0  0
   35.9935   25.7257   31.9365 O   0  0  0  0  0  0  0  0  0  0  0  0
   35.8575   25.4112   30.5336 C   0  0  0  0  0  0  0  0  0  0  0  0
   37.1185   24.8344   29.8628 C   0  0  0  0  0  0  0  0  0  0  0  0
   38.0188   25.9139   29.5558 O   0  0  0  0  0  0  0  0  0  0  0  0
   39.8872   24.7888   32.1186 H   0  0  0  0  0  0  0  0  0  0  0  0
   38.2868   26.3549   30.3772 H   0  0  0  0  0  0  0  0  0  0  0  0
   37.3390   26.1061   33.8405 N   0  0  0  0  0  0  0  0  0  0  0  0
   38.4209   26.7652   34.4053 C   0  0  0  0  0  0  0  0  0  0  0  0
   38.3926   27.2034   35.6617 C   0  0  0  0  0  0  0  0  0  0  0  0
   39.4281   27.8547   36.2233 F   0  0  0  0  0  0  0  0  0  0  0  0
   37.1724   27.0321   36.4722 C   0  0  0  0  0  0  0  0  0  0  0  0
   37.0530   27.5116   37.5970 O   0  0  0  0  0  0  0  0  0  0  0  0
   36.1795   26.3023   35.8676 N   0  0  0  0  0  0  0  0  0  0  0  0
   36.1612   25.9091   34.5534 C   0  0  0  0  0  0  0  0  0  0  0  0
   35.1429   25.4290   34.0516 O   0  0  0  0  0  0  0  0  0  0  0  0
   35.4131   26.0379   36.4261 H   0  0  0  0  0  0  0  0  0  0  0  0
   34.6569   24.4721   30.4076 C   0  0  0  0  0  0  0  0  0  0  0  0
   33.6304   25.1263   29.6599 O   0  0  0  0  0  0  0  0  0  0  0  0
   33.3658   25.9398   30.1171 H   0  0  0  0  0  0  0  0  0  0  0  0
   36.3852   22.4759   29.4826 C   0  0  0  0  0  0  0  0  0  0  0  0
   37.1780   22.5766   30.6657 O   0  0  0  0  0  0  0  0  0  0  0  0
 24 25  1  0
  1 25  1  0
  1  2  1  0
  2  3  1  0
  2  4  1  0
  4 11  1  0
 11 12  1  0
 12 13  2  0
 13 14  1  0
 13 15  1  0
 15 16  2  0
 15 17  1  0
 17 18  1  0
 18 19  2  0
  4  5  1  0
  5  6  1  0
  6 21  1  0
 21 22  1  0
  6  7  1  0
  7  8  1  0
  7  1  1  0
 18 11  1  0
  3  9  1  0
 17 20  1  0
 22 23  1  0
  8 10  1  0
M  END
> <minimizedAffinity>
-6.85110

> <CNNscore>
0.2412429601

> <CNNaffinity>
4.1173496246

> <CNN_VS>
0.9932816029

> <CNNaffinity_variance>
0.4885064065

$$$$



 25 26  0  0  0  0  0  0  0  0999 V2000
   33.6596   22.6501   26.3489 C   0  0  0  0  0  0  0  0  0  0  0  0
   32.6149   23.7391   26.6909 C   0  0  0  0  0  0  0  0  0  0  0  0
   33.1136   25.0209   26.2705 O   0  0  0  0  0  0  0  0  0  0  0  0
   31.2149   23.3936   26.1212 C   0  0  0  0  0  0  0  0  0  0  0  0
   30.8088   22.0999   26.5754 O   0  0  0  0  0  0  0  0  0  0  0  0
   31.6857   21.0234   26.1780 C   0  0  0  0  0  0  0  0  0  0  0  0
   33.0459   21.4606   25.6021 C   0  0  0  0  0  0  0  0  0  0  0  0
   32.8673   21.8512   24.2289 O   0  0  0  0  0  0  0  0  0  0  0  0
   33.2540   25.0143   25.3108 H   0  0  0  0  0  0  0  0  0  0  0  0
   32.2616   22.6076   24.1841 H   0  0  0  0  0  0  0  0  0  0  0  0
   30.2098   24.3848   26.5477 N   0  0  0  0  0  0  0  0  0  0  0  0
   29.0027   24.5167   25.8773 C   0  0  0  0  0  0  0  0  0  0  0  0
   28.0509   25.3404   26.3096 C   0  0  0  0  0  0  0  0  0  0  0  0
   26.8692   25.4734   25.6788 F   0  0  0  0  0  0  0  0  0  0  0  0
   28.2506   26.1048   27.5549 C   0  0  0  0  0  0  0  0  0  0  0  0
   27.3663   26.7944   28.0566 O   0  0  0  0  0  0  0  0  0  0  0  0
   29.4986   25.9780   28.1123 N   0  0  0  0  0  0  0  0  0  0  0  0
   30.4616   25.0810   27.7250 C   0  0  0  0  0  0  0  0  0  0  0  0
   31.4735   24.9066   28.4070 O   0  0  0  0  0  0  0  0  0  0  0  0
   29.7221   26.5841   28.8552 H   0  0  0  0  0  0  0  0  0  0  0  0
   31.8417   20.1108   27.3953 C   0  0  0  0  0  0  0  0  0  0  0  0
   32.8384   19.1266   27.1148 O   0  0  0  0  0  0  0  0  0  0  0  0
   32.5687   18.6039   26.3435 H   0  0  0  0  0  0  0  0  0  0  0  0
   34.6002   23.1683   28.4766 C   0  0  0  0  0  0  0  0  0  0  0  0
   34.2707   22.1336   27.5497 O   0  0  0  0  0  0  0  0  0  0  0  0
 24 25  1  0
  1 25  1  0
  1  2  1  0
  2  3  1  0
  2  4  1  0
  4 11  1  0
 11 12  1  0
 12 13  2  0
 13 14  1  0
 13 15  1  0
 15 16  2  0
 15 17  1  0
 17 18  1  0
 18 19  2  0
  4  5  1  0
  5  6  1  0
  6 21  1  0
 21 22  1  0
  6  7  1  0
  7  8  1  0
  7  1  1  0
 18 11  1  0
  3  9  1  0
 17 20  1  0
 22 23  1  0
  8 10  1  0
M  END
> <minimizedAffinity>
-8.70695

> <CNNscore>
0.2107839435

> <CNNaffinity>
3.8711249828

> <CNN_VS>
0.8159710169

> <CNNaffinity_variance>
0.2589595020

$$$$



 25 26  0  0  0  0  0  0  0  0999 V2000
   35.2384   25.0355   30.9330 C   0  0  0  0  0  0  0  0  0  0  0  0
   34.4057   24.3312   29.8353 C   0  0  0  0  0  0  0  0  0  0  0  0
   33.3407   25.2028   29.4178 O   0  0  0  0  0  0  0  0  0  0  0  0
   35.2966   23.8276   28.6706 C   0  0  0  0  0  0  0  0  0  0  0  0
   36.3346   22.9856   29.1789 O   0  0  0  0  0  0  0  0  0  0  0  0
   37.2216   23.6300   30.1189 C   0  0  0  0  0  0  0  0  0  0  0  0
   36.7433   24.9964   30.6453 C   0  0  0  0  0  0  0  0  0  0  0  0
   37.0257   26.0022   29.6559 O   0  0  0  0  0  0  0  0  0  0  0  0
   33.7156   26.0181   29.0495 H   0  0  0  0  0  0  0  0  0  0  0  0
   36.5364   25.8022   28.8426 H   0  0  0  0  0  0  0  0  0  0  0  0
   34.5038   23.0652   27.6883 N   0  0  0  0  0  0  0  0  0  0  0  0
   34.4581   23.4434   26.3546 C   0  0  0  0  0  0  0  0  0  0  0  0
   33.8238   22.7101   25.4428 C   0  0  0  0  0  0  0  0  0  0  0  0
   33.7781   23.0550   24.1425 F   0  0  0  0  0  0  0  0  0  0  0  0
   33.1875   21.4388   25.8354 C   0  0  0  0  0  0  0  0  0  0  0  0
   32.6840   20.6715   25.0187 O   0  0  0  0  0  0  0  0  0  0  0  0
   33.2097   21.1779   27.1828 N   0  0  0  0  0  0  0  0  0  0  0  0
   33.9199   21.8802   28.1233 C   0  0  0  0  0  0  0  0  0  0  0  0
   34.0348   21.4562   29.2749 O   0  0  0  0  0  0  0  0  0  0  0  0
   32.6685   20.4201   27.5024 H   0  0  0  0  0  0  0  0  0  0  0  0
   37.4656   22.6300   31.2502 C   0  0  0  0  0  0  0  0  0  0  0  0
   38.4231   23.1780   32.1578 O   0  0  0  0  0  0  0  0  0  0  0  0
   39.2530   23.3514   31.6865 H   0  0  0  0  0  0  0  0  0  0  0  0
   35.6864   25.1045   33.2729 C   0  0  0  0  0  0  0  0  0  0  0  0
   35.0302   24.4061   32.2146 O   0  0  0  0  0  0  0  0  0  0  0  0
 24 25  1  0
  1 25  1  0
  1  2  1  0
  2  3  1  0
  2  4  1  0
  4 11  1  0
 11 12  1  0
 12 13  2  0
 13 14  1  0
 13 15  1  0
 15 16  2  0
 15 17  1  0
 17 18  1  0
 18 19  2  0
  4  5  1  0
  5  6  1  0
  6 21  1  0
 21 22  1  0
  6  7  1  0
  7  8  1  0
  7  1  1  0
 18 11  1  0
  3  9  1  0
 17 20  1  0
 22 23  1  0
  8 10  1  0
M  END
> <minimizedAffinity>
-4.31339

> <CNNscore>
0.2077068090

> <CNNaffinity>
3.7017681599

> <CNN_VS>
0.7688824534

> <CNNaffinity_variance>
0.9107260704

$$$$



 25 26  0  0  0  0  0  0  0  0999 V2000
   33.5405   23.4703   26.5839 C   0  0  0  0  0  0  0  0  0  0  0  0
   32.0694   23.9490   26.5543 C   0  0  0  0  0  0  0  0  0  0  0  0
   32.0366   25.3582   26.2690 O   0  0  0  0  0  0  0  0  0  0  0  0
   31.2047   23.0943   25.5922 C   0  0  0  0  0  0  0  0  0  0  0  0
   31.3113   21.7111   25.9385 O   0  0  0  0  0  0  0  0  0  0  0  0
   32.6508   21.1766   25.8634 C   0  0  0  0  0  0  0  0  0  0  0  0
   33.7709   22.2246   25.7212 C   0  0  0  0  0  0  0  0  0  0  0  0
   33.8401   22.6499   24.3484 O   0  0  0  0  0  0  0  0  0  0  0  0
   32.4350   25.5214   25.3997 H   0  0  0  0  0  0  0  0  0  0  0  0
   33.0012   23.0664   24.0963 H   0  0  0  0  0  0  0  0  0  0  0  0
   29.7866   23.4934   25.6580 N   0  0  0  0  0  0  0  0  0  0  0  0
   29.3440   24.6691   25.0701 C   0  0  0  0  0  0  0  0  0  0  0  0
   28.0532   24.9920   25.0414 C   0  0  0  0  0  0  0  0  0  0  0  0
   27.6038   26.1228   24.4658 F   0  0  0  0  0  0  0  0  0  0  0  0
   27.0518   24.0669   25.6038 C   0  0  0  0  0  0  0  0  0  0  0  0
   25.8428   24.2629   25.5076 O   0  0  0  0  0  0  0  0  0  0  0  0
   27.5770   22.9670   26.2350 N   0  0  0  0  0  0  0  0  0  0  0  0
   28.8933   22.5812   26.2096 C   0  0  0  0  0  0  0  0  0  0  0  0
   29.2369   21.4783   26.6396 O   0  0  0  0  0  0  0  0  0  0  0  0
   26.9545   22.4057   26.7513 H   0  0  0  0  0  0  0  0  0  0  0  0
   32.8418   20.2928   27.0968 C   0  0  0  0  0  0  0  0  0  0  0  0
   33.3572   19.0253   26.6863 O   0  0  0  0  0  0  0  0  0  0  0  0
   32.7331   18.6055   26.0737 H   0  0  0  0  0  0  0  0  0  0  0  0
   35.2040   23.7155   28.2730 C   0  0  0  0  0  0  0  0  0  0  0  0
   33.9432   23.1404   27.9297 O   0  0  0  0  0  0  0  0  0  0  0  0
 24 25  1  0
  1 25  1  0
  1  2  1  0
  2  3  1  0
  2  4  1  0
  4 11  1  0
 11 12  1  0
 12 13  2  0
 13 14  1  0
 13 15  1  0
 15 16  2  0
 15 17  1  0
 17 18  1  0
 18 19  2  0
  4  5  1  0
  5  6  1  0
  6 21  1  0
 21 22  1  0
  6  7  1  0
  7  8  1  0
  7  1  1  0
 18 11  1  0
  3  9  1  0
 17 20  1  0
 22 23  1  0
  8 10  1  0
M  END
> <minimizedAffinity>
-8.09701

> <CNNscore>
0.1995596886

> <CNNaffinity>
3.4661614895

> <CNN_VS>
0.6917061210

> <CNNaffinity_variance>
0.5356729627

$$$$



 25 26  0  0  0  0  0  0  0  0999 V2000
   31.7547   23.6832   27.5932 C   0  0  0  0  0  0  0  0  0  0  0  0
   32.7577   24.2576   28.6219 C   0  0  0  0  0  0  0  0  0  0  0  0
   32.0472   24.6379   29.8131 O   0  0  0  0  0  0  0  0  0  0  0  0
   33.9385   23.2864   28.8794 C   0  0  0  0  0  0  0  0  0  0  0  0
   34.5727   22.9503   27.6427 O   0  0  0  0  0  0  0  0  0  0  0  0
   33.7106   22.2964   26.6862 C   0  0  0  0  0  0  0  0  0  0  0  0
   32.2073   22.3357   27.0200 C   0  0  0  0  0  0  0  0  0  0  0  0
   31.9211   21.3241   28.0024 O   0  0  0  0  0  0  0  0  0  0  0  0
   31.6194   23.8569   30.1976 H   0  0  0  0  0  0  0  0  0  0  0  0
   32.4172   21.5124   28.8144 H   0  0  0  0  0  0  0  0  0  0  0  0
   34.9384   23.8939   29.7772 N   0  0  0  0  0  0  0  0  0  0  0  0
   36.1818   24.2871   29.3049 C   0  0  0  0  0  0  0  0  0  0  0  0
   37.0552   24.9216   30.0834 C   0  0  0  0  0  0  0  0  0  0  0  0
   38.2617   25.3207   29.6398 F   0  0  0  0  0  0  0  0  0  0  0  0
   36.6901   25.2625   31.4710 C   0  0  0  0  0  0  0  0  0  0  0  0
   37.4128   25.9405   32.1974 O   0  0  0  0  0  0  0  0  0  0  0  0
   35.4771   24.7698   31.8831 N   0  0  0  0  0  0  0  0  0  0  0  0
   34.5357   24.1816   31.0769 C   0  0  0  0  0  0  0  0  0  0  0  0
   33.4007   23.9483   31.4973 O   0  0  0  0  0  0  0  0  0  0  0  0
   35.2639   24.8451   32.8412 H   0  0  0  0  0  0  0  0  0  0  0  0
   34.0146   22.9185   25.3225 C   0  0  0  0  0  0  0  0  0  0  0  0
   33.2286   22.2630   24.3259 O   0  0  0  0  0  0  0  0  0  0  0  0
   33.4462   21.3178   24.3126 H   0  0  0  0  0  0  0  0  0  0  0  0
   30.4030   24.3152   25.7347 C   0  0  0  0  0  0  0  0  0  0  0  0
   31.5887   24.5881   26.4816 O   0  0  0  0  0  0  0  0  0  0  0  0
 24 25  1  0
  1 25  1  0
  1  2  1  0
  2  3  1  0
  2  4  1  0
  4 11  1  0
 11 12  1  0
 12 13  2  0
 13 14  1  0
 13 15  1  0
 15 16  2  0
 15 17  1  0
 17 18  1  0
 18 19  2  0
  4  5  1  0
  5  6  1  0
  6 21  1  0
 21 22  1  0
  6  7  1  0
  7  8  1  0
  7  1  1  0
 18 11  1  0
  3  9  1  0
 17 20  1  0
 22 23  1  0
  8 10  1  0
M  END
> <minimizedAffinity>
-7.92239

> <CNNscore>
0.1670526415

> <CNNaffinity>
3.8992469311

> <CNN_VS>
0.6513795257

> <CNNaffinity_variance>
0.6174331307

$$$$



 25 26  0  0  0  0  0  0  0  0999 V2000
   35.4454   25.1465   30.9205 C   0  0  0  0  0  0  0  0  0  0  0  0
   34.5079   24.4458   29.9084 C   0  0  0  0  0  0  0  0  0  0  0  0
   33.4832   25.3674   29.4971 O   0  0  0  0  0  0  0  0  0  0  0  0
   35.2973   23.8194   28.7301 C   0  0  0  0  0  0  0  0  0  0  0  0
   36.3020   22.9342   29.2315 O   0  0  0  0  0  0  0  0  0  0  0  0
   37.2810   23.5630   30.0871 C   0  0  0  0  0  0  0  0  0  0  0  0
   36.9261   24.9858   30.5590 C   0  0  0  0  0  0  0  0  0  0  0  0
   37.2215   25.9153   29.5011 O   0  0  0  0  0  0  0  0  0  0  0  0
   33.8919   26.1334   29.0646 H   0  0  0  0  0  0  0  0  0  0  0  0
   36.6759   25.7076   28.7265 H   0  0  0  0  0  0  0  0  0  0  0  0
   34.4018   23.0642   27.8343 N   0  0  0  0  0  0  0  0  0  0  0  0
   33.7239   21.9390   28.2793 C   0  0  0  0  0  0  0  0  0  0  0  0
   32.8420   21.3058   27.5095 C   0  0  0  0  0  0  0  0  0  0  0  0
   32.1665   20.2193   27.9278 F   0  0  0  0  0  0  0  0  0  0  0  0
   32.5332   21.8266   26.1647 C   0  0  0  0  0  0  0  0  0  0  0  0
   31.6516   21.3469   25.4561 O   0  0  0  0  0  0  0  0  0  0  0  0
   33.3024   22.8933   25.7717 N   0  0  0  0  0  0  0  0  0  0  0  0
   34.1590   23.6025   26.5750 C   0  0  0  0  0  0  0  0  0  0  0  0
   34.6573   24.6614   26.1880 O   0  0  0  0  0  0  0  0  0  0  0  0
   33.2333   23.1742   24.8306 H   0  0  0  0  0  0  0  0  0  0  0  0
   37.5182   22.6095   31.2592 C   0  0  0  0  0  0  0  0  0  0  0  0
   38.4442   23.2088   32.1670 O   0  0  0  0  0  0  0  0  0  0  0  0
   39.2812   23.3815   31.7081 H   0  0  0  0  0  0  0  0  0  0  0  0
   35.8951   25.4001   33.2473 C   0  0  0  0  0  0  0  0  0  0  0  0
   35.2656   24.6021   32.2446 O   0  0  0  0  0  0  0  0  0  0  0  0
 24 25  1  0
  1 25  1  0
  1  2  1  0
  2  3  1  0
  2  4  1  0
  4 11  1  0
 11 12  1  0
 12 13  2  0
 13 14  1  0
 13 15  1  0
 15 16  2  0
 15 17  1  0
 17 18  1  0
 18 19  2  0
  4  5  1  0
  5  6  1  0
  6 21  1  0
 21 22  1  0
  6  7  1  0
  7  8  1  0
  7  1  1  0
 18 11  1  0
  3  9  1  0
 17 20  1  0
 22 23  1  0
  8 10  1  0
M  END
> <minimizedAffinity>
-5.90187

> <CNNscore>
0.1657380760

> <CNNaffinity>
3.9375743866

> <CNN_VS>
0.6526060104

> <CNNaffinity_variance>
0.4076730311

$$$$



 25 26  0  0  0  0  0  0  0  0999 V2000
   37.1301   26.7514   34.8701 C   0  0  0  0  0  0  0  0  0  0  0  0
   36.3590   25.8808   33.8494 C   0  0  0  0  0  0  0  0  0  0  0  0
   34.9475   25.9995   34.0981 O   0  0  0  0  0  0  0  0  0  0  0  0
   36.7679   26.2062   32.3896 C   0  0  0  0  0  0  0  0  0  0  0  0
   38.1843   26.0799   32.2397 O   0  0  0  0  0  0  0  0  0  0  0  0
   38.9566   26.9615   33.0836 C   0  0  0  0  0  0  0  0  0  0  0  0
   38.1637   27.6646   34.2016 C   0  0  0  0  0  0  0  0  0  0  0  0
   37.4582   28.7854   33.6390 O   0  0  0  0  0  0  0  0  0  0  0  0
   34.6762   26.9242   33.9868 H   0  0  0  0  0  0  0  0  0  0  0  0
   36.8280   28.4694   32.9728 H   0  0  0  0  0  0  0  0  0  0  0  0
   36.1055   25.2949   31.4381 N   0  0  0  0  0  0  0  0  0  0  0  0
   36.6778   25.0010   30.2092 C   0  0  0  0  0  0  0  0  0  0  0  0
   36.1371   24.1082   29.3834 C   0  0  0  0  0  0  0  0  0  0  0  0
   36.6838   23.8019   28.1922 F   0  0  0  0  0  0  0  0  0  0  0  0
   34.9252   23.3719   29.7888 C   0  0  0  0  0  0  0  0  0  0  0  0
   34.4476   22.4625   29.1148 O   0  0  0  0  0  0  0  0  0  0  0  0
   34.3791   23.7774   30.9810 N   0  0  0  0  0  0  0  0  0  0  0  0
   34.9605   24.6386   31.8768 C   0  0  0  0  0  0  0  0  0  0  0  0
   34.4877   24.7910   33.0048 O   0  0  0  0  0  0  0  0  0  0  0  0
   33.4923   23.4186   31.2138 H   0  0  0  0  0  0  0  0  0  0  0  0
   40.1203   26.1359   33.6342 C   0  0  0  0  0  0  0  0  0  0  0  0
   40.2809   24.9646   32.8323 O   0  0  0  0  0  0  0  0  0  0  0  0
   39.4647   24.4412   32.8575 H   0  0  0  0  0  0  0  0  0  0  0  0
   38.7977   26.6632   36.5706 C   0  0  0  0  0  0  0  0  0  0  0  0
   37.8379   25.9231   35.8161 O   0  0  0  0  0  0  0  0  0  0  0  0
 24 25  1  0
  1 25  1  0
  1  2  1  0
  2  3  1  0
  2  4  1  0
  4 11  1  0
 11 12  1  0
 12 13  2  0
 13 14  1  0
 13 15  1  0
 15 16  2  0
 15 17  1  0
 17 18  1  0
 18 19  2  0
  4  5  1  0
  5  6  1  0
  6 21  1  0
 21 22  1  0
  6  7  1  0
  7  8  1  0
  7  1  1  0
 18 11  1  0
  3  9  1  0
 17 20  1  0
 22 23  1  0
  8 10  1  0
M  END
> <minimizedAffinity>
-5.43909

> <CNNscore>
0.1580628455

> <CNNaffinity>
4.0644860268

> <CNN_VS>
0.6424442530

> <CNNaffinity_variance>
0.6065843701

$$$$
