


 43 47  0  0  0  0  0  0  0  0999 V2000
   41.1370  -21.1256   29.3952 C   0  0  0  0  0  0  0  0  0  0  0  0
   40.0112  -20.3564   28.7480 C   0  0  0  0  0  0  0  0  0  0  0  0
   39.7516  -19.0628   28.8825 N   0  0  0  0  0  0  0  0  0  0  0  0
   38.5734  -18.8110   28.1923 C   0  0  0  0  0  0  0  0  0  0  0  0
   38.1417  -19.9879   27.6183 C   0  0  0  0  0  0  0  0  0  0  0  0
   36.8548  -20.4977   26.6290 Cl  0  0  0  0  0  0  0  0  0  0  0  0
   39.0263  -20.9539   27.9871 N   0  0  0  0  0  0  0  0  0  0  0  0
   38.9734  -21.9087   27.7530 H   0  0  0  0  0  0  0  0  0  0  0  0
   37.9930  -17.4638   28.1635 C   0  0  0  0  0  0  0  0  0  0  0  0
   38.7433  -16.4357   27.4704 C   0  0  0  0  0  0  0  0  0  0  0  0
   38.3549  -15.0804   27.3305 C   0  0  0  0  0  0  0  0  0  0  0  0
   37.1368  -14.8572   27.9555 C   0  0  0  0  0  0  0  0  0  0  0  0
   36.4753  -13.6586   28.0281 C   0  0  0  0  0  0  0  0  0  0  0  0
   36.7349  -12.4114   27.5654 N   0  0  0  0  0  0  0  0  0  0  0  0
   35.3338  -13.9519   28.7321 N   0  0  0  0  0  0  0  0  0  0  0  0
   35.2320  -15.2314   29.1442 N   0  0  0  0  0  0  0  0  0  0  0  0
   36.3393  -15.8276   28.6697 C   0  0  0  0  0  0  0  0  0  0  0  0
   36.7588  -17.1686   28.7917 C   0  0  0  0  0  0  0  0  0  0  0  0
   37.5635  -12.2350   27.0637 H   0  0  0  0  0  0  0  0  0  0  0  0
   36.0950  -11.6818   27.7309 H   0  0  0  0  0  0  0  0  0  0  0  0
   34.6414  -13.2783   28.9218 H   0  0  0  0  0  0  0  0  0  0  0  0
   41.1423  -23.1489   27.9385 C   0  0  0  0  0  0  0  0  0  0  0  0
   41.6155  -22.5214   26.9954 O   0  0  0  0  0  0  0  0  0  0  0  0
   40.9564  -22.5689   29.1778 N   0  0  0  0  0  0  0  0  0  0  0  0
   40.6954  -23.1379   29.9377 H   0  0  0  0  0  0  0  0  0  0  0  0
   42.2252  -26.8881   29.2600 C   0  0  0  0  0  0  0  0  0  0  0  0
   42.8669  -25.9844   28.1894 C   0  0  0  0  0  0  0  0  0  0  0  0
   41.8492  -25.4532   27.1788 C   0  0  0  0  0  0  0  0  0  0  0  0
   40.7378  -24.6274   27.8604 C   0  0  0  0  0  0  0  0  0  0  0  0
   40.3581  -25.1803   29.2499 C   0  0  0  0  0  0  0  0  0  0  0  0
   40.7077  -26.6586   29.3975 C   0  0  0  0  0  0  0  0  0  0  0  0
   41.7436  -29.3000   29.8601 N   0  0  0  0  0  0  0  0  0  0  0  0
   42.5680  -28.3828   29.0767 C   0  0  0  0  0  0  0  0  0  0  0  0
   42.0370  -30.2600   29.6790 H   0  0  0  0  0  0  0  0  0  0  0  0
   40.7650  -29.1879   29.5955 H   0  0  0  0  0  0  0  0  0  0  0  0
   42.5190  -20.6974   28.8524 C   0  0  0  0  0  0  0  0  0  0  0  0
   43.6875  -20.9529   29.7791 C   0  0  0  0  0  0  0  0  0  0  0  0
   43.6137  -21.9665   30.7493 C   0  0  0  0  0  0  0  0  0  0  0  0
   44.6855  -22.1996   31.6137 C   0  0  0  0  0  0  0  0  0  0  0  0
   45.8297  -21.4186   31.5106 C   0  0  0  0  0  0  0  0  0  0  0  0
   46.8578  -21.6399   32.3419 F   0  0  0  0  0  0  0  0  0  0  0  0
   45.9235  -20.4091   30.5600 C   0  0  0  0  0  0  0  0  0  0  0  0
   44.8516  -20.1715   29.6950 C   0  0  0  0  0  0  0  0  0  0  0  0
 32 33  1  0
 26 33  1  0
 26 27  1  0
 27 28  1  0
 28 29  1  0
 29 22  1  0
 22 23  2  0
 22 24  1  0
 24  1  1  0
  1 36  1  0
 36 37  1  0
 37 38  2  0
 38 39  1  0
 39 40  2  0
 40 41  1  0
 40 42  1  0
 42 43  2  0
  1  2  1  0
  2  3  2  0
  3  4  1  0
  4  9  1  0
  9 10  1  0
 10 11  2  0
 11 12  1  0
 12 13  2  0
 13 14  1  0
 13 15  1  0
 15 16  1  0
 16 17  2  0
 17 18  1  0
  4  5  2  0
  5  6  1  0
  5  7  1  0
 29 30  1  0
 30 31  1  0
 31 26  1  0
 43 37  1  0
  7  2  1  0
 18  9  2  0
 17 12  1  0
 32 34  1  0
 32 35  1  0
 24 25  1  0
 14 19  1  0
 14 20  1  0
 15 21  1  0
  7  8  1  0
M  END
> <minimizedAffinity>
-10.33014

> <CNNscore>
0.7940419316

> <CNNaffinity>
7.8811345100

> <CNN_VS>
6.2579512596

> <CNNaffinity_variance>
0.1076967791

$$$$



 43 47  0  0  0  0  0  0  0  0999 V2000
   38.4226  -20.3958   27.6082 C   0  0  0  0  0  0  0  0  0  0  0  0
   39.4720  -21.1283   28.4083 C   0  0  0  0  0  0  0  0  0  0  0  0
   40.6762  -20.6811   28.7383 N   0  0  0  0  0  0  0  0  0  0  0  0
   41.3322  -21.7201   29.3849 C   0  0  0  0  0  0  0  0  0  0  0  0
   40.4790  -22.8009   29.4549 C   0  0  0  0  0  0  0  0  0  0  0  0
   40.5093  -24.3781   30.0921 Cl  0  0  0  0  0  0  0  0  0  0  0  0
   39.3298  -22.4372   28.8235 N   0  0  0  0  0  0  0  0  0  0  0  0
   38.5380  -23.0061   28.6871 H   0  0  0  0  0  0  0  0  0  0  0  0
   42.7098  -21.5568   29.8627 C   0  0  0  0  0  0  0  0  0  0  0  0
   43.5563  -20.6323   29.1353 C   0  0  0  0  0  0  0  0  0  0  0  0
   44.9085  -20.3360   29.4371 C   0  0  0  0  0  0  0  0  0  0  0  0
   45.3291  -21.0598   30.5432 C   0  0  0  0  0  0  0  0  0  0  0  0
   46.5819  -21.0280   31.0990 C   0  0  0  0  0  0  0  0  0  0  0  0
   47.7222  -20.3546   30.8103 N   0  0  0  0  0  0  0  0  0  0  0  0
   46.4974  -21.8983   32.1573 N   0  0  0  0  0  0  0  0  0  0  0  0
   45.3036  -22.5082   32.2989 N   0  0  0  0  0  0  0  0  0  0  0  0
   44.5467  -22.0018   31.3104 C   0  0  0  0  0  0  0  0  0  0  0  0
   43.2033  -22.2746   30.9790 C   0  0  0  0  0  0  0  0  0  0  0  0
   47.7488  -19.7376   30.0436 H   0  0  0  0  0  0  0  0  0  0  0  0
   48.5238  -20.4825   31.3673 H   0  0  0  0  0  0  0  0  0  0  0  0
   47.2521  -22.0646   32.7672 H   0  0  0  0  0  0  0  0  0  0  0  0
   39.1285  -18.0076   27.4905 C   0  0  0  0  0  0  0  0  0  0  0  0
   39.8276  -18.2182   26.5035 O   0  0  0  0  0  0  0  0  0  0  0  0
   38.3375  -18.9941   28.0454 N   0  0  0  0  0  0  0  0  0  0  0  0
   37.6982  -18.7522   28.7540 H   0  0  0  0  0  0  0  0  0  0  0  0
   36.5498  -14.8782   28.1674 C   0  0  0  0  0  0  0  0  0  0  0  0
   37.3188  -15.2789   26.8935 C   0  0  0  0  0  0  0  0  0  0  0  0
   38.8057  -15.5237   27.1545 C   0  0  0  0  0  0  0  0  0  0  0  0
   39.0317  -16.6452   28.1904 C   0  0  0  0  0  0  0  0  0  0  0  0
   37.9540  -16.6560   29.2946 C   0  0  0  0  0  0  0  0  0  0  0  0
   37.2816  -15.2955   29.4575 C   0  0  0  0  0  0  0  0  0  0  0  0
   36.8886  -12.5401   27.2576 N   0  0  0  0  0  0  0  0  0  0  0  0
   36.1474  -13.3873   28.1891 C   0  0  0  0  0  0  0  0  0  0  0  0
   36.5603  -11.5778   27.3383 H   0  0  0  0  0  0  0  0  0  0  0  0
   36.7395  -12.8714   26.3045 H   0  0  0  0  0  0  0  0  0  0  0  0
   38.7145  -20.4398   26.0913 C   0  0  0  0  0  0  0  0  0  0  0  0
   37.5271  -20.7648   25.2115 C   0  0  0  0  0  0  0  0  0  0  0  0
   37.0841  -19.8412   24.2498 C   0  0  0  0  0  0  0  0  0  0  0  0
   35.9826  -20.1323   23.4423 C   0  0  0  0  0  0  0  0  0  0  0  0
   35.3221  -21.3446   23.5972 C   0  0  0  0  0  0  0  0  0  0  0  0
   34.2629  -21.6234   22.8243 F   0  0  0  0  0  0  0  0  0  0  0  0
   35.7415  -22.2718   24.5437 C   0  0  0  0  0  0  0  0  0  0  0  0
   36.8422  -21.9826   25.3553 C   0  0  0  0  0  0  0  0  0  0  0  0
 32 33  1  0
 26 33  1  0
 26 27  1  0
 27 28  1  0
 28 29  1  0
 29 22  1  0
 22 23  2  0
 22 24  1  0
 24  1  1  0
  1 36  1  0
 36 37  1  0
 37 38  2  0
 38 39  1  0
 39 40  2  0
 40 41  1  0
 40 42  1  0
 42 43  2  0
  1  2  1  0
  2  3  2  0
  3  4  1  0
  4  9  1  0
  9 10  1  0
 10 11  2  0
 11 12  1  0
 12 13  2  0
 13 14  1  0
 13 15  1  0
 15 16  1  0
 16 17  2  0
 17 18  1  0
  4  5  2  0
  5  6  1  0
  5  7  1  0
 29 30  1  0
 30 31  1  0
 31 26  1  0
 43 37  1  0
  7  2  1  0
 18  9  2  0
 17 12  1  0
 32 34  1  0
 32 35  1  0
 24 25  1  0
 14 19  1  0
 14 20  1  0
 15 21  1  0
  7  8  1  0
M  END
> <minimizedAffinity>
-10.17732

> <CNNscore>
0.7189747691

> <CNNaffinity>
8.0278139114

> <CNN_VS>
5.7717957497

> <CNNaffinity_variance>
0.0108712343

$$$$



 43 47  0  0  0  0  0  0  0  0999 V2000
   40.0121  -20.7214   28.6779 C   0  0  0  0  0  0  0  0  0  0  0  0
   41.5196  -20.7531   28.6100 C   0  0  0  0  0  0  0  0  0  0  0  0
   42.3528  -21.0853   29.5868 N   0  0  0  0  0  0  0  0  0  0  0  0
   43.6405  -20.8776   29.1106 C   0  0  0  0  0  0  0  0  0  0  0  0
   43.5595  -20.4312   27.8086 C   0  0  0  0  0  0  0  0  0  0  0  0
   44.6383  -19.9984   26.5663 Cl  0  0  0  0  0  0  0  0  0  0  0  0
   42.2362  -20.3310   27.5080 N   0  0  0  0  0  0  0  0  0  0  0  0
   41.8572  -20.0139   26.6565 H   0  0  0  0  0  0  0  0  0  0  0  0
   44.8068  -21.1311   29.9638 C   0  0  0  0  0  0  0  0  0  0  0  0
   44.5728  -21.8267   31.2135 C   0  0  0  0  0  0  0  0  0  0  0  0
   45.5619  -22.1649   32.1699 C   0  0  0  0  0  0  0  0  0  0  0  0
   46.8119  -21.7360   31.7484 C   0  0  0  0  0  0  0  0  0  0  0  0
   47.9892  -21.8842   32.4350 C   0  0  0  0  0  0  0  0  0  0  0  0
   48.3203  -22.4422   33.6250 N   0  0  0  0  0  0  0  0  0  0  0  0
   48.9271  -21.3107   31.6128 N   0  0  0  0  0  0  0  0  0  0  0  0
   48.4375  -20.7780   30.4753 N   0  0  0  0  0  0  0  0  0  0  0  0
   47.1186  -21.0323   30.5241 C   0  0  0  0  0  0  0  0  0  0  0  0
   46.1074  -20.7092   29.5957 C   0  0  0  0  0  0  0  0  0  0  0  0
   47.6226  -22.8452   34.1908 H   0  0  0  0  0  0  0  0  0  0  0  0
   49.2584  -22.4444   33.9237 H   0  0  0  0  0  0  0  0  0  0  0  0
   49.8855  -21.2899   31.8371 H   0  0  0  0  0  0  0  0  0  0  0  0
   39.2327  -18.3550   28.5857 C   0  0  0  0  0  0  0  0  0  0  0  0
   39.5602  -18.1566   29.7522 O   0  0  0  0  0  0  0  0  0  0  0  0
   39.4956  -19.5524   27.9501 N   0  0  0  0  0  0  0  0  0  0  0  0
   39.3327  -19.6256   26.9819 H   0  0  0  0  0  0  0  0  0  0  0  0
   37.0288  -14.8906   28.7906 C   0  0  0  0  0  0  0  0  0  0  0  0
   36.6278  -16.3470   29.0953 C   0  0  0  0  0  0  0  0  0  0  0  0
   37.0136  -17.3122   27.9734 C   0  0  0  0  0  0  0  0  0  0  0  0
   38.5339  -17.3081   27.7076 C   0  0  0  0  0  0  0  0  0  0  0  0
   39.1624  -15.9109   27.8908 C   0  0  0  0  0  0  0  0  0  0  0  0
   38.1381  -14.7917   27.7257 C   0  0  0  0  0  0  0  0  0  0  0  0
   34.5681  -14.3776   29.0920 N   0  0  0  0  0  0  0  0  0  0  0  0
   35.8225  -13.9876   28.4524 C   0  0  0  0  0  0  0  0  0  0  0  0
   33.8297  -13.7309   28.8149 H   0  0  0  0  0  0  0  0  0  0  0  0
   34.6806  -14.3512   30.1054 H   0  0  0  0  0  0  0  0  0  0  0  0
   39.3783  -22.0050   28.0959 C   0  0  0  0  0  0  0  0  0  0  0  0
   40.0830  -23.2956   28.4528 C   0  0  0  0  0  0  0  0  0  0  0  0
   40.0443  -23.7831   29.7700 C   0  0  0  0  0  0  0  0  0  0  0  0
   40.7014  -24.9684   30.1066 C   0  0  0  0  0  0  0  0  0  0  0  0
   41.3992  -25.6653   29.1282 C   0  0  0  0  0  0  0  0  0  0  0  0
   42.0327  -26.8017   29.4512 F   0  0  0  0  0  0  0  0  0  0  0  0
   41.4528  -25.2003   27.8196 C   0  0  0  0  0  0  0  0  0  0  0  0
   40.7982  -24.0129   27.4798 C   0  0  0  0  0  0  0  0  0  0  0  0
 32 33  1  0
 26 33  1  0
 26 27  1  0
 27 28  1  0
 28 29  1  0
 29 22  1  0
 22 23  2  0
 22 24  1  0
 24  1  1  0
  1 36  1  0
 36 37  1  0
 37 38  2  0
 38 39  1  0
 39 40  2  0
 40 41  1  0
 40 42  1  0
 42 43  2  0
  1  2  1  0
  2  3  2  0
  3  4  1  0
  4  9  1  0
  9 10  1  0
 10 11  2  0
 11 12  1  0
 12 13  2  0
 13 14  1  0
 13 15  1  0
 15 16  1  0
 16 17  2  0
 17 18  1  0
  4  5  2  0
  5  6  1  0
  5  7  1  0
 29 30  1  0
 30 31  1  0
 31 26  1  0
 43 37  1  0
  7  2  1  0
 18  9  2  0
 17 12  1  0
 32 34  1  0
 32 35  1  0
 24 25  1  0
 14 19  1  0
 14 20  1  0
 15 21  1  0
  7  8  1  0
M  END
> <minimizedAffinity>
-9.58610

> <CNNscore>
0.6389188170

> <CNNaffinity>
7.5769448280

> <CNN_VS>
4.8410525322

> <CNNaffinity_variance>
0.0237112585

$$$$



 43 47  0  0  0  0  0  0  0  0999 V2000
   38.0376  -20.5547   27.2956 C   0  0  0  0  0  0  0  0  0  0  0  0
   39.0992  -21.3526   28.0128 C   0  0  0  0  0  0  0  0  0  0  0  0
   39.4607  -22.6032   27.7597 N   0  0  0  0  0  0  0  0  0  0  0  0
   40.3958  -22.9586   28.7227 C   0  0  0  0  0  0  0  0  0  0  0  0
   40.6043  -21.8765   29.5513 C   0  0  0  0  0  0  0  0  0  0  0  0
   41.5768  -21.5009   30.8959 Cl  0  0  0  0  0  0  0  0  0  0  0  0
   39.7766  -20.8858   29.1215 N   0  0  0  0  0  0  0  0  0  0  0  0
   39.6783  -19.9948   29.5285 H   0  0  0  0  0  0  0  0  0  0  0  0
   40.9842  -24.3025   28.7385 C   0  0  0  0  0  0  0  0  0  0  0  0
   42.4304  -24.3905   28.7696 C   0  0  0  0  0  0  0  0  0  0  0  0
   43.1862  -25.5887   28.7896 C   0  0  0  0  0  0  0  0  0  0  0  0
   42.3466  -26.6928   28.7753 C   0  0  0  0  0  0  0  0  0  0  0  0
   42.7410  -28.0058   28.7729 C   0  0  0  0  0  0  0  0  0  0  0  0
   43.9460  -28.6261   28.7898 N   0  0  0  0  0  0  0  0  0  0  0  0
   41.5605  -28.7065   28.7624 N   0  0  0  0  0  0  0  0  0  0  0  0
   40.4477  -27.9467   28.7220 N   0  0  0  0  0  0  0  0  0  0  0  0
   40.9022  -26.6819   28.7362 C   0  0  0  0  0  0  0  0  0  0  0  0
   40.1824  -25.4693   28.7142 C   0  0  0  0  0  0  0  0  0  0  0  0
   44.7738  -28.0933   28.7969 H   0  0  0  0  0  0  0  0  0  0  0  0
   43.9934  -29.6094   28.7949 H   0  0  0  0  0  0  0  0  0  0  0  0
   41.5290  -29.6903   28.7829 H   0  0  0  0  0  0  0  0  0  0  0  0
   39.1282  -18.3250   27.5301 C   0  0  0  0  0  0  0  0  0  0  0  0
   40.0573  -18.6546   26.7983 O   0  0  0  0  0  0  0  0  0  0  0  0
   38.0517  -19.1590   27.7592 N   0  0  0  0  0  0  0  0  0  0  0  0
   37.2713  -18.8093   28.2469 H   0  0  0  0  0  0  0  0  0  0  0  0
   36.6247  -15.1161   28.1095 C   0  0  0  0  0  0  0  0  0  0  0  0
   37.4419  -15.5323   26.8711 C   0  0  0  0  0  0  0  0  0  0  0  0
   38.9052  -15.8291   27.2025 C   0  0  0  0  0  0  0  0  0  0  0  0
   39.0423  -16.9657   28.2374 C   0  0  0  0  0  0  0  0  0  0  0  0
   37.9117  -16.9490   29.2873 C   0  0  0  0  0  0  0  0  0  0  0  0
   37.2777  -15.5680   29.4299 C   0  0  0  0  0  0  0  0  0  0  0  0
   37.2621  -12.7448   27.4930 N   0  0  0  0  0  0  0  0  0  0  0  0
   36.2716  -13.6126   28.1257 C   0  0  0  0  0  0  0  0  0  0  0  0
   36.9499  -11.7754   27.5489 H   0  0  0  0  0  0  0  0  0  0  0  0
   37.3716  -13.0109   26.5144 H   0  0  0  0  0  0  0  0  0  0  0  0
   38.2270  -20.5843   25.7622 C   0  0  0  0  0  0  0  0  0  0  0  0
   37.0601  -21.1398   24.9752 C   0  0  0  0  0  0  0  0  0  0  0  0
   36.6530  -22.4722   25.1571 C   0  0  0  0  0  0  0  0  0  0  0  0
   35.5831  -22.9925   24.4258 C   0  0  0  0  0  0  0  0  0  0  0  0
   34.9217  -22.1828   23.5111 C   0  0  0  0  0  0  0  0  0  0  0  0
   33.8964  -22.6825   22.8066 F   0  0  0  0  0  0  0  0  0  0  0  0
   35.3089  -20.8628   23.3133 C   0  0  0  0  0  0  0  0  0  0  0  0
   36.3809  -20.3395   24.0418 C   0  0  0  0  0  0  0  0  0  0  0  0
 32 33  1  0
 26 33  1  0
 26 27  1  0
 27 28  1  0
 28 29  1  0
 29 22  1  0
 22 23  2  0
 22 24  1  0
 24  1  1  0
  1 36  1  0
 36 37  1  0
 37 38  2  0
 38 39  1  0
 39 40  2  0
 40 41  1  0
 40 42  1  0
 42 43  2  0
  1  2  1  0
  2  3  2  0
  3  4  1  0
  4  9  1  0
  9 10  1  0
 10 11  2  0
 11 12  1  0
 12 13  2  0
 13 14  1  0
 13 15  1  0
 15 16  1  0
 16 17  2  0
 17 18  1  0
  4  5  2  0
  5  6  1  0
  5  7  1  0
 29 30  1  0
 30 31  1  0
 31 26  1  0
 43 37  1  0
  7  2  1  0
 18  9  2  0
 17 12  1  0
 32 34  1  0
 32 35  1  0
 24 25  1  0
 14 19  1  0
 14 20  1  0
 15 21  1  0
  7  8  1  0
M  END
> <minimizedAffinity>
-9.74334

> <CNNscore>
0.5517774820

> <CNNaffinity>
7.4964046478

> <CNN_VS>
4.1363472939

> <CNNaffinity_variance>
0.0328088105

$$$$



 43 47  0  0  0  0  0  0  0  0999 V2000
   41.1371  -21.7885   29.9322 C   0  0  0  0  0  0  0  0  0  0  0  0
   40.1061  -20.9532   29.2128 C   0  0  0  0  0  0  0  0  0  0  0  0
   39.9709  -19.6352   29.2686 N   0  0  0  0  0  0  0  0  0  0  0  0
   38.8383  -19.3115   28.5336 C   0  0  0  0  0  0  0  0  0  0  0  0
   38.3067  -20.4726   28.0137 C   0  0  0  0  0  0  0  0  0  0  0  0
   36.9983  -20.9126   27.0191 Cl  0  0  0  0  0  0  0  0  0  0  0  0
   39.0846  -21.4962   28.4593 N   0  0  0  0  0  0  0  0  0  0  0  0
   38.9441  -22.4534   28.2770 H   0  0  0  0  0  0  0  0  0  0  0  0
   38.3926  -17.9187   28.4146 C   0  0  0  0  0  0  0  0  0  0  0  0
   37.1432  -17.5673   29.0593 C   0  0  0  0  0  0  0  0  0  0  0  0
   36.5458  -16.2826   29.0610 C   0  0  0  0  0  0  0  0  0  0  0  0
   37.3269  -15.3827   28.3509 C   0  0  0  0  0  0  0  0  0  0  0  0
   37.0413  -14.0587   28.1391 C   0  0  0  0  0  0  0  0  0  0  0  0
   36.0215  -13.2458   28.5081 N   0  0  0  0  0  0  0  0  0  0  0  0
   38.1044  -13.6044   27.3988 N   0  0  0  0  0  0  0  0  0  0  0  0
   39.0255  -14.5396   27.0920 N   0  0  0  0  0  0  0  0  0  0  0  0
   38.5746  -15.6622   27.6777 C   0  0  0  0  0  0  0  0  0  0  0  0
   39.1387  -16.9546   27.6943 C   0  0  0  0  0  0  0  0  0  0  0  0
   35.2739  -13.6039   29.0392 H   0  0  0  0  0  0  0  0  0  0  0  0
   36.0282  -12.2971   28.2449 H   0  0  0  0  0  0  0  0  0  0  0  0
   38.1878  -12.6659   27.1133 H   0  0  0  0  0  0  0  0  0  0  0  0
   41.0543  -23.2926   27.9456 C   0  0  0  0  0  0  0  0  0  0  0  0
   40.9329  -22.3425   27.1776 O   0  0  0  0  0  0  0  0  0  0  0  0
   41.2486  -23.1121   29.3008 N   0  0  0  0  0  0  0  0  0  0  0  0
   41.4680  -23.8918   29.8604 H   0  0  0  0  0  0  0  0  0  0  0  0
   42.4874  -27.0161   28.9368 C   0  0  0  0  0  0  0  0  0  0  0  0
   43.2068  -25.8042   28.3136 C   0  0  0  0  0  0  0  0  0  0  0  0
   42.4553  -25.2247   27.1143 C   0  0  0  0  0  0  0  0  0  0  0  0
   41.0338  -24.7597   27.4953 C   0  0  0  0  0  0  0  0  0  0  0  0
   40.3810  -25.6654   28.5603 C   0  0  0  0  0  0  0  0  0  0  0  0
   40.9896  -27.0649   28.5785 C   0  0  0  0  0  0  0  0  0  0  0  0
   42.5666  -29.5263   29.2558 N   0  0  0  0  0  0  0  0  0  0  0  0
   43.1945  -28.3576   28.6439 C   0  0  0  0  0  0  0  0  0  0  0  0
   43.0958  -30.3634   29.0118 H   0  0  0  0  0  0  0  0  0  0  0  0
   41.6101  -29.6168   28.9133 H   0  0  0  0  0  0  0  0  0  0  0  0
   42.5260  -21.1111   29.9446 C   0  0  0  0  0  0  0  0  0  0  0  0
   43.3146  -21.2247   28.6582 C   0  0  0  0  0  0  0  0  0  0  0  0
   43.1150  -20.2984   27.6208 C   0  0  0  0  0  0  0  0  0  0  0  0
   43.8330  -20.4049   26.4278 C   0  0  0  0  0  0  0  0  0  0  0  0
   44.7482  -21.4380   26.2701 C   0  0  0  0  0  0  0  0  0  0  0  0
   45.4357  -21.5426   25.1240 F   0  0  0  0  0  0  0  0  0  0  0  0
   44.9599  -22.3668   27.2820 C   0  0  0  0  0  0  0  0  0  0  0  0
   44.2411  -22.2646   28.4765 C   0  0  0  0  0  0  0  0  0  0  0  0
 32 33  1  0
 26 33  1  0
 26 27  1  0
 27 28  1  0
 28 29  1  0
 29 22  1  0
 22 23  2  0
 22 24  1  0
 24  1  1  0
  1 36  1  0
 36 37  1  0
 37 38  2  0
 38 39  1  0
 39 40  2  0
 40 41  1  0
 40 42  1  0
 42 43  2  0
  1  2  1  0
  2  3  2  0
  3  4  1  0
  4  9  1  0
  9 10  1  0
 10 11  2  0
 11 12  1  0
 12 13  2  0
 13 14  1  0
 13 15  1  0
 15 16  1  0
 16 17  2  0
 17 18  1  0
  4  5  2  0
  5  6  1  0
  5  7  1  0
 29 30  1  0
 30 31  1  0
 31 26  1  0
 43 37  1  0
  7  2  1  0
 18  9  2  0
 17 12  1  0
 32 34  1  0
 32 35  1  0
 24 25  1  0
 14 19  1  0
 14 20  1  0
 15 21  1  0
  7  8  1  0
M  END
> <minimizedAffinity>
-8.42378

> <CNNscore>
0.5368405581

> <CNNaffinity>
7.1094479561

> <CNN_VS>
3.8166399002

> <CNNaffinity_variance>
0.1152739823

$$$$



 43 47  0  0  0  0  0  0  0  0999 V2000
   38.5418  -18.9270   27.9024 C   0  0  0  0  0  0  0  0  0  0  0  0
   37.8495  -19.2875   26.6105 C   0  0  0  0  0  0  0  0  0  0  0  0
   37.8840  -18.6066   25.4730 N   0  0  0  0  0  0  0  0  0  0  0  0
   37.0293  -19.2503   24.5881 C   0  0  0  0  0  0  0  0  0  0  0  0
   36.4950  -20.3536   25.2193 C   0  0  0  0  0  0  0  0  0  0  0  0
   35.4345  -21.6254   24.8289 Cl  0  0  0  0  0  0  0  0  0  0  0  0
   36.9888  -20.3598   26.4872 N   0  0  0  0  0  0  0  0  0  0  0  0
   36.7711  -21.0127   27.1912 H   0  0  0  0  0  0  0  0  0  0  0  0
   36.8208  -18.7300   23.2323 C   0  0  0  0  0  0  0  0  0  0  0  0
   35.4714  -18.7788   22.7059 C   0  0  0  0  0  0  0  0  0  0  0  0
   35.0660  -18.3278   21.4254 C   0  0  0  0  0  0  0  0  0  0  0  0
   36.1498  -17.8216   20.7232 C   0  0  0  0  0  0  0  0  0  0  0  0
   36.1202  -17.3154   19.4495 C   0  0  0  0  0  0  0  0  0  0  0  0
   35.1404  -17.1396   18.5296 N   0  0  0  0  0  0  0  0  0  0  0  0
   37.4201  -16.9447   19.2096 N   0  0  0  0  0  0  0  0  0  0  0  0
   38.2812  -17.2064   20.2133 N   0  0  0  0  0  0  0  0  0  0  0  0
   37.5192  -17.7485   21.1787 C   0  0  0  0  0  0  0  0  0  0  0  0
   37.8873  -18.2101   22.4595 C   0  0  0  0  0  0  0  0  0  0  0  0
   34.2180  -17.4168   18.7339 H   0  0  0  0  0  0  0  0  0  0  0  0
   35.3510  -16.7349   17.6573 H   0  0  0  0  0  0  0  0  0  0  0  0
   37.7023  -16.5196   18.3677 H   0  0  0  0  0  0  0  0  0  0  0  0
   40.2964  -19.8870   29.3908 C   0  0  0  0  0  0  0  0  0  0  0  0
   39.9436  -19.1829   30.3326 O   0  0  0  0  0  0  0  0  0  0  0  0
   39.6133  -19.8923   28.1907 N   0  0  0  0  0  0  0  0  0  0  0  0
   39.8503  -20.5615   27.5086 H   0  0  0  0  0  0  0  0  0  0  0  0
   41.3353  -23.8267   28.8425 C   0  0  0  0  0  0  0  0  0  0  0  0
   40.5618  -23.1499   29.9908 C   0  0  0  0  0  0  0  0  0  0  0  0
   41.2785  -21.9141   30.5368 C   0  0  0  0  0  0  0  0  0  0  0  0
   41.4947  -20.8445   29.4454 C   0  0  0  0  0  0  0  0  0  0  0  0
   41.7841  -21.4621   28.0614 C   0  0  0  0  0  0  0  0  0  0  0  0
   42.3443  -22.8778   28.1674 C   0  0  0  0  0  0  0  0  0  0  0  0
   43.4486  -25.1735   29.2013 N   0  0  0  0  0  0  0  0  0  0  0  0
   41.9887  -25.1634   29.2566 C   0  0  0  0  0  0  0  0  0  0  0  0
   43.7934  -26.0893   29.4892 H   0  0  0  0  0  0  0  0  0  0  0  0
   43.8176  -24.4588   29.8285 H   0  0  0  0  0  0  0  0  0  0  0  0
   39.1370  -17.5014   27.8630 C   0  0  0  0  0  0  0  0  0  0  0  0
   38.1438  -16.3780   28.0650 C   0  0  0  0  0  0  0  0  0  0  0  0
   38.4396  -15.0810   27.6128 C   0  0  0  0  0  0  0  0  0  0  0  0
   37.5306  -14.0386   27.8058 C   0  0  0  0  0  0  0  0  0  0  0  0
   36.3275  -14.2912   28.4527 C   0  0  0  0  0  0  0  0  0  0  0  0
   35.4557  -13.2904   28.6408 F   0  0  0  0  0  0  0  0  0  0  0  0
   36.0152  -15.5657   28.9103 C   0  0  0  0  0  0  0  0  0  0  0  0
   36.9239  -16.6108   28.7211 C   0  0  0  0  0  0  0  0  0  0  0  0
 32 33  1  0
 26 33  1  0
 26 27  1  0
 27 28  1  0
 28 29  1  0
 29 22  1  0
 22 23  2  0
 22 24  1  0
 24  1  1  0
  1 36  1  0
 36 37  1  0
 37 38  2  0
 38 39  1  0
 39 40  2  0
 40 41  1  0
 40 42  1  0
 42 43  2  0
  1  2  1  0
  2  3  2  0
  3  4  1  0
  4  9  1  0
  9 10  1  0
 10 11  2  0
 11 12  1  0
 12 13  2  0
 13 14  1  0
 13 15  1  0
 15 16  1  0
 16 17  2  0
 17 18  1  0
  4  5  2  0
  5  6  1  0
  5  7  1  0
 29 30  1  0
 30 31  1  0
 31 26  1  0
 43 37  1  0
  7  2  1  0
 18  9  2  0
 17 12  1  0
 32 34  1  0
 32 35  1  0
 24 25  1  0
 14 19  1  0
 14 20  1  0
 15 21  1  0
  7  8  1  0
M  END
> <minimizedAffinity>
-9.24575

> <CNNscore>
0.5138255358

> <CNNaffinity>
7.4718756676

> <CNN_VS>
3.8392405510

> <CNNaffinity_variance>
0.0820320845

$$$$



 43 47  0  0  0  0  0  0  0  0999 V2000
   39.6639  -20.7347   28.1250 C   0  0  0  0  0  0  0  0  0  0  0  0
   41.1372  -20.7693   28.4507 C   0  0  0  0  0  0  0  0  0  0  0  0
   42.1424  -20.5621   27.6107 N   0  0  0  0  0  0  0  0  0  0  0  0
   43.3158  -20.7895   28.3174 C   0  0  0  0  0  0  0  0  0  0  0  0
   42.9886  -21.1185   29.6158 C   0  0  0  0  0  0  0  0  0  0  0  0
   43.8133  -21.4944   31.0556 Cl  0  0  0  0  0  0  0  0  0  0  0  0
   41.6299  -21.1293   29.6891 N   0  0  0  0  0  0  0  0  0  0  0  0
   41.0938  -21.3539   30.4837 H   0  0  0  0  0  0  0  0  0  0  0  0
   44.6229  -20.6659   27.6626 C   0  0  0  0  0  0  0  0  0  0  0  0
   44.6655  -19.9535   26.4013 C   0  0  0  0  0  0  0  0  0  0  0  0
   45.8239  -19.7269   25.6177 C   0  0  0  0  0  0  0  0  0  0  0  0
   46.9383  -20.2864   26.2253 C   0  0  0  0  0  0  0  0  0  0  0  0
   48.2185  -20.2682   25.7352 C   0  0  0  0  0  0  0  0  0  0  0  0
   48.7916  -19.7531   24.6202 N   0  0  0  0  0  0  0  0  0  0  0  0
   48.9476  -20.9366   26.6872 N   0  0  0  0  0  0  0  0  0  0  0  0
   48.2300  -21.4096   27.7257 N   0  0  0  0  0  0  0  0  0  0  0  0
   46.9703  -21.0149   27.4729 C   0  0  0  0  0  0  0  0  0  0  0  0
   45.7961  -21.2241   28.2255 C   0  0  0  0  0  0  0  0  0  0  0  0
   48.2395  -19.2792   23.9570 H   0  0  0  0  0  0  0  0  0  0  0  0
   49.7600  -19.8529   24.4734 H   0  0  0  0  0  0  0  0  0  0  0  0
   49.9217  -21.0611   26.6168 H   0  0  0  0  0  0  0  0  0  0  0  0
   39.0072  -18.3303   28.1855 C   0  0  0  0  0  0  0  0  0  0  0  0
   39.1509  -18.2773   29.4036 O   0  0  0  0  0  0  0  0  0  0  0  0
   39.3195  -19.4662   27.4651 N   0  0  0  0  0  0  0  0  0  0  0  0
   39.3114  -19.4258   26.4814 H   0  0  0  0  0  0  0  0  0  0  0  0
   37.1635  -14.6672   28.4735 C   0  0  0  0  0  0  0  0  0  0  0  0
   36.5884  -16.0881   28.6315 C   0  0  0  0  0  0  0  0  0  0  0  0
   36.9719  -17.0117   27.4745 C   0  0  0  0  0  0  0  0  0  0  0  0
   38.5022  -17.1563   27.3357 C   0  0  0  0  0  0  0  0  0  0  0  0
   39.2526  -15.8519   27.6768 C   0  0  0  0  0  0  0  0  0  0  0  0
   38.3684  -14.6186   27.5143 C   0  0  0  0  0  0  0  0  0  0  0  0
   36.5937  -12.4672   27.3578 N   0  0  0  0  0  0  0  0  0  0  0  0
   36.0922  -13.6166   28.1075 C   0  0  0  0  0  0  0  0  0  0  0  0
   35.8238  -11.8282   27.1599 H   0  0  0  0  0  0  0  0  0  0  0  0
   37.0047  -12.7865   26.4806 H   0  0  0  0  0  0  0  0  0  0  0  0
   39.2429  -21.9122   27.2172 C   0  0  0  0  0  0  0  0  0  0  0  0
   38.1605  -21.5982   26.2077 C   0  0  0  0  0  0  0  0  0  0  0  0
   36.8183  -21.5070   26.6133 C   0  0  0  0  0  0  0  0  0  0  0  0
   35.8145  -21.2274   25.6836 C   0  0  0  0  0  0  0  0  0  0  0  0
   36.1509  -21.0417   24.3487 C   0  0  0  0  0  0  0  0  0  0  0  0
   35.1874  -20.7761   23.4553 F   0  0  0  0  0  0  0  0  0  0  0  0
   37.4715  -21.1297   23.9249 C   0  0  0  0  0  0  0  0  0  0  0  0
   38.4785  -21.4119   24.8524 C   0  0  0  0  0  0  0  0  0  0  0  0
 32 33  1  0
 26 33  1  0
 26 27  1  0
 27 28  1  0
 28 29  1  0
 29 22  1  0
 22 23  2  0
 22 24  1  0
 24  1  1  0
  1 36  1  0
 36 37  1  0
 37 38  2  0
 38 39  1  0
 39 40  2  0
 40 41  1  0
 40 42  1  0
 42 43  2  0
  1  2  1  0
  2  3  2  0
  3  4  1  0
  4  9  1  0
  9 10  1  0
 10 11  2  0
 11 12  1  0
 12 13  2  0
 13 14  1  0
 13 15  1  0
 15 16  1  0
 16 17  2  0
 17 18  1  0
  4  5  2  0
  5  6  1  0
  5  7  1  0
 29 30  1  0
 30 31  1  0
 31 26  1  0
 43 37  1  0
  7  2  1  0
 18  9  2  0
 17 12  1  0
 32 34  1  0
 32 35  1  0
 24 25  1  0
 14 19  1  0
 14 20  1  0
 15 21  1  0
  7  8  1  0
M  END
> <minimizedAffinity>
-8.39527

> <CNNscore>
0.4994067550

> <CNNaffinity>
7.7013912201

> <CNN_VS>
3.8461267948

> <CNNaffinity_variance>
0.0809279606

$$$$



 43 47  0  0  0  0  0  0  0  0999 V2000
   42.0750  -20.7024   29.1963 C   0  0  0  0  0  0  0  0  0  0  0  0
   40.7815  -20.1130   28.6886 C   0  0  0  0  0  0  0  0  0  0  0  0
   40.3967  -18.8468   28.7748 N   0  0  0  0  0  0  0  0  0  0  0  0
   39.1055  -18.7792   28.2687 C   0  0  0  0  0  0  0  0  0  0  0  0
   38.7311  -20.0397   27.8536 C   0  0  0  0  0  0  0  0  0  0  0  0
   37.3762  -20.7637   27.1224 Cl  0  0  0  0  0  0  0  0  0  0  0  0
   39.7681  -20.8729   28.1395 N   0  0  0  0  0  0  0  0  0  0  0  0
   39.7916  -21.8446   27.9827 H   0  0  0  0  0  0  0  0  0  0  0  0
   38.3746  -17.5074   28.2423 C   0  0  0  0  0  0  0  0  0  0  0  0
   39.0431  -16.3735   27.6357 C   0  0  0  0  0  0  0  0  0  0  0  0
   38.5087  -15.0672   27.5121 C   0  0  0  0  0  0  0  0  0  0  0  0
   37.2348  -15.0098   28.0579 C   0  0  0  0  0  0  0  0  0  0  0  0
   36.4343  -13.8988   28.1223 C   0  0  0  0  0  0  0  0  0  0  0  0
   36.5759  -12.6127   27.7184 N   0  0  0  0  0  0  0  0  0  0  0  0
   35.2915  -14.3485   28.7358 N   0  0  0  0  0  0  0  0  0  0  0  0
   35.3135  -15.6465   29.0992 N   0  0  0  0  0  0  0  0  0  0  0  0
   36.5114  -16.0927   28.6841 C   0  0  0  0  0  0  0  0  0  0  0  0
   37.0761  -17.3805   28.7924 C   0  0  0  0  0  0  0  0  0  0  0  0
   37.4090  -12.3230   27.2812 H   0  0  0  0  0  0  0  0  0  0  0  0
   35.8456  -11.9684   27.8621 H   0  0  0  0  0  0  0  0  0  0  0  0
   34.5142  -13.7666   28.8983 H   0  0  0  0  0  0  0  0  0  0  0  0
   41.2362  -22.7779   30.2939 C   0  0  0  0  0  0  0  0  0  0  0  0
   40.5230  -22.1360   31.0598 O   0  0  0  0  0  0  0  0  0  0  0  0
   41.9630  -22.1657   29.2920 N   0  0  0  0  0  0  0  0  0  0  0  0
   42.4194  -22.7249   28.6225 H   0  0  0  0  0  0  0  0  0  0  0  0
   41.3877  -26.1027   27.8807 C   0  0  0  0  0  0  0  0  0  0  0  0
   40.1945  -25.2112   28.2763 C   0  0  0  0  0  0  0  0  0  0  0  0
   40.1057  -24.9801   29.7855 C   0  0  0  0  0  0  0  0  0  0  0  0
   41.3777  -24.3054   30.3408 C   0  0  0  0  0  0  0  0  0  0  0  0
   42.6585  -24.7735   29.6188 C   0  0  0  0  0  0  0  0  0  0  0  0
   42.4838  -26.1404   28.9629 C   0  0  0  0  0  0  0  0  0  0  0  0
   41.2643  -28.5768   28.4024 N   0  0  0  0  0  0  0  0  0  0  0  0
   40.9648  -27.5207   27.4384 C   0  0  0  0  0  0  0  0  0  0  0  0
   40.9532  -29.4744   28.0310 H   0  0  0  0  0  0  0  0  0  0  0  0
   40.7790  -28.3849   29.2788 H   0  0  0  0  0  0  0  0  0  0  0  0
   43.2724  -20.3410   28.2888 C   0  0  0  0  0  0  0  0  0  0  0  0
   44.6373  -20.6633   28.8569 C   0  0  0  0  0  0  0  0  0  0  0  0
   45.5232  -21.4904   28.1462 C   0  0  0  0  0  0  0  0  0  0  0  0
   46.7800  -21.7990   28.6709 C   0  0  0  0  0  0  0  0  0  0  0  0
   47.1508  -21.2836   29.9065 C   0  0  0  0  0  0  0  0  0  0  0  0
   48.3560  -21.5818   30.4121 F   0  0  0  0  0  0  0  0  0  0  0  0
   46.2895  -20.4654   30.6278 C   0  0  0  0  0  0  0  0  0  0  0  0
   45.0298  -20.1566   30.1067 C   0  0  0  0  0  0  0  0  0  0  0  0
 32 33  1  0
 26 33  1  0
 26 27  1  0
 27 28  1  0
 28 29  1  0
 29 22  1  0
 22 23  2  0
 22 24  1  0
 24  1  1  0
  1 36  1  0
 36 37  1  0
 37 38  2  0
 38 39  1  0
 39 40  2  0
 40 41  1  0
 40 42  1  0
 42 43  2  0
  1  2  1  0
  2  3  2  0
  3  4  1  0
  4  9  1  0
  9 10  1  0
 10 11  2  0
 11 12  1  0
 12 13  2  0
 13 14  1  0
 13 15  1  0
 15 16  1  0
 16 17  2  0
 17 18  1  0
  4  5  2  0
  5  6  1  0
  5  7  1  0
 29 30  1  0
 30 31  1  0
 31 26  1  0
 43 37  1  0
  7  2  1  0
 18  9  2  0
 17 12  1  0
 32 34  1  0
 32 35  1  0
 24 25  1  0
 14 19  1  0
 14 20  1  0
 15 21  1  0
  7  8  1  0
M  END
> <minimizedAffinity>
-10.36174

> <CNNscore>
0.4187538028

> <CNNaffinity>
7.1704964638

> <CNN_VS>
3.0026726723

> <CNNaffinity_variance>
0.6988990307

$$$$



 43 47  0  0  0  0  0  0  0  0999 V2000
   40.4477  -20.4068   28.9968 C   0  0  0  0  0  0  0  0  0  0  0  0
   41.9318  -20.5386   28.7560 C   0  0  0  0  0  0  0  0  0  0  0  0
   42.8534  -20.8884   29.6431 N   0  0  0  0  0  0  0  0  0  0  0  0
   44.0858  -20.7820   29.0122 C   0  0  0  0  0  0  0  0  0  0  0  0
   43.8780  -20.3787   27.7102 C   0  0  0  0  0  0  0  0  0  0  0  0
   44.8261  -20.0620   26.3334 Cl  0  0  0  0  0  0  0  0  0  0  0  0
   42.5369  -20.2039   27.5610 N   0  0  0  0  0  0  0  0  0  0  0  0
   42.0795  -19.8940   26.7461 H   0  0  0  0  0  0  0  0  0  0  0  0
   45.3276  -21.0794   29.7346 C   0  0  0  0  0  0  0  0  0  0  0  0
   45.2101  -21.4213   31.1380 C   0  0  0  0  0  0  0  0  0  0  0  0
   46.2846  -21.7403   32.0046 C   0  0  0  0  0  0  0  0  0  0  0  0
   47.4916  -21.6826   31.3234 C   0  0  0  0  0  0  0  0  0  0  0  0
   48.7317  -21.9183   31.8584 C   0  0  0  0  0  0  0  0  0  0  0  0
   49.1740  -22.2593   33.0933 N   0  0  0  0  0  0  0  0  0  0  0  0
   49.5880  -21.7454   30.7994 N   0  0  0  0  0  0  0  0  0  0  0  0
   48.9973  -21.3842   29.6427 N   0  0  0  0  0  0  0  0  0  0  0  0
   47.6855  -21.3425   29.9324 C   0  0  0  0  0  0  0  0  0  0  0  0
   46.5921  -21.0273   29.0994 C   0  0  0  0  0  0  0  0  0  0  0  0
   48.5327  -22.3754   33.8312 H   0  0  0  0  0  0  0  0  0  0  0  0
   50.1366  -22.3908   33.2525 H   0  0  0  0  0  0  0  0  0  0  0  0
   50.5606  -21.8756   30.8787 H   0  0  0  0  0  0  0  0  0  0  0  0
   39.2719  -18.2209   28.7618 C   0  0  0  0  0  0  0  0  0  0  0  0
   39.2798  -18.0374   29.9757 O   0  0  0  0  0  0  0  0  0  0  0  0
   39.8974  -19.3094   28.1868 N   0  0  0  0  0  0  0  0  0  0  0  0
   39.9772  -19.3522   27.2065 H   0  0  0  0  0  0  0  0  0  0  0  0
   37.2709  -14.6375   28.5253 C   0  0  0  0  0  0  0  0  0  0  0  0
   36.7994  -16.0106   29.0419 C   0  0  0  0  0  0  0  0  0  0  0  0
   37.0962  -17.1443   28.0592 C   0  0  0  0  0  0  0  0  0  0  0  0
   38.6053  -17.2675   27.7607 C   0  0  0  0  0  0  0  0  0  0  0  0
   39.3157  -15.8981   27.7302 C   0  0  0  0  0  0  0  0  0  0  0  0
   38.3504  -14.7542   27.4321 C   0  0  0  0  0  0  0  0  0  0  0  0
   34.8309  -13.9995   28.7461 N   0  0  0  0  0  0  0  0  0  0  0  0
   36.1065  -13.7207   28.0906 C   0  0  0  0  0  0  0  0  0  0  0  0
   34.1228  -13.3512   28.4016 H   0  0  0  0  0  0  0  0  0  0  0  0
   34.9347  -13.8854   29.7543 H   0  0  0  0  0  0  0  0  0  0  0  0
   39.6889  -21.7124   28.6690 C   0  0  0  0  0  0  0  0  0  0  0  0
   39.0062  -21.7444   27.3190 C   0  0  0  0  0  0  0  0  0  0  0  0
   39.6695  -22.2801   26.2022 C   0  0  0  0  0  0  0  0  0  0  0  0
   39.0475  -22.3026   24.9521 C   0  0  0  0  0  0  0  0  0  0  0  0
   37.7644  -21.7879   24.8170 C   0  0  0  0  0  0  0  0  0  0  0  0
   37.1679  -21.8066   23.6166 F   0  0  0  0  0  0  0  0  0  0  0  0
   37.0906  -21.2510   25.9076 C   0  0  0  0  0  0  0  0  0  0  0  0
   37.7111  -21.2246   27.1598 C   0  0  0  0  0  0  0  0  0  0  0  0
 32 33  1  0
 26 33  1  0
 26 27  1  0
 27 28  1  0
 28 29  1  0
 29 22  1  0
 22 23  2  0
 22 24  1  0
 24  1  1  0
  1 36  1  0
 36 37  1  0
 37 38  2  0
 38 39  1  0
 39 40  2  0
 40 41  1  0
 40 42  1  0
 42 43  2  0
  1  2  1  0
  2  3  2  0
  3  4  1  0
  4  9  1  0
  9 10  1  0
 10 11  2  0
 11 12  1  0
 12 13  2  0
 13 14  1  0
 13 15  1  0
 15 16  1  0
 16 17  2  0
 17 18  1  0
  4  5  2  0
  5  6  1  0
  5  7  1  0
 29 30  1  0
 30 31  1  0
 31 26  1  0
 43 37  1  0
  7  2  1  0
 18  9  2  0
 17 12  1  0
 32 34  1  0
 32 35  1  0
 24 25  1  0
 14 19  1  0
 14 20  1  0
 15 21  1  0
  7  8  1  0
M  END
> <minimizedAffinity>
-8.90395

> <CNNscore>
0.4151689708

> <CNNaffinity>
7.2773380280

> <CNN_VS>
3.0213248730

> <CNNaffinity_variance>
0.0312623493

$$$$
