


 26 28  0  0  0  0  0  0  0  0999 V2000
  -19.1225  -17.0396   -8.3803 C   0  0  0  0  0  0  0  0  0  0  0  0
  -19.5231  -15.8423   -9.1320 N   0  0  0  0  0  0  0  0  0  0  0  0
  -18.6843  -15.4185   -9.5286 H   0  0  0  0  0  0  0  0  0  0  0  0
  -20.2117  -14.8317   -8.3311 C   0  0  0  0  0  0  0  0  0  0  0  0
  -22.6382  -14.0542   -8.6307 C   0  0  0  0  0  0  0  0  0  0  0  0
  -23.6827  -13.4683   -9.5474 C   0  0  0  0  0  0  0  0  0  0  0  0
  -21.3778  -14.2468   -9.0743 C   0  0  0  0  0  0  0  0  0  0  0  0
  -23.1212  -14.3676   -7.2264 C   0  0  0  0  0  0  0  0  0  0  0  0
  -24.6291  -14.1647   -7.0140 C   0  0  0  0  0  0  0  0  0  0  0  0
  -25.5997  -11.5177   -5.6008 C   0  0  0  0  0  0  0  0  0  0  0  0
  -25.4281  -12.8612   -4.9490 C   0  0  0  0  0  0  0  0  0  0  0  0
  -25.7606  -12.8837   -3.4795 C   0  0  0  0  0  0  0  0  0  0  0  0
  -24.9997  -13.9805   -5.5661 C   0  0  0  0  0  0  0  0  0  0  0  0
  -19.6347  -18.3848   -8.9473 C   0  0  0  0  0  0  0  0  0  0  0  0
  -20.3439  -19.2524   -7.9975 N   0  0  0  0  0  0  0  0  0  0  0  0
  -20.0992  -18.9540   -7.0533 H   0  0  0  0  0  0  0  0  0  0  0  0
  -21.8101  -19.2376   -8.1146 C   0  0  0  0  0  0  0  0  0  0  0  0
  -22.5172  -20.2878   -7.2145 C   0  0  0  0  0  0  0  0  0  0  0  0
  -24.0372  -20.2204   -7.4689 C   0  0  0  0  0  0  0  0  0  0  0  0
  -24.5757  -18.8254   -7.1130 C   0  0  0  0  0  0  0  0  0  0  0  0
  -24.2934  -18.5399   -5.6280 C   0  0  0  0  0  0  0  0  0  0  0  0
  -22.7794  -18.5928   -5.3600 C   0  0  0  0  0  0  0  0  0  0  0  0
  -22.2520  -19.9916   -5.7246 C   0  0  0  0  0  0  0  0  0  0  0  0
  -22.0787  -17.5372   -6.2323 C   0  0  0  0  0  0  0  0  0  0  0  0
  -22.3392  -17.8265   -7.7256 C   0  0  0  0  0  0  0  0  0  0  0  0
  -23.8597  -17.7742   -7.9771 C   0  0  0  0  0  0  0  0  0  0  0  0
 10 11  1  0
 11 12  1  0
 11 13  2  0
 13  9  1  0
  9  8  1  0
  8  5  1  0
  5  6  1  0
  5  7  2  0
  7  4  1  0
  4  2  1  0
  2  1  1  0
  1 14  1  0
 14 15  1  0
 17 15  1  0
 17 18  1  0
 18 19  1  0
 20 19  1  0
 20 21  1  0
 22 21  1  0
 22 23  1  0
 22 24  1  0
 25 24  1  0
 25 26  1  0
 25 17  1  0
 23 18  1  0
 26 20  1  0
  2  3  1  0
 15 16  1  0
M  END
> <minimizedAffinity>
-8.77952

> <CNNscore>
0.8493745327

> <CNNaffinity>
7.1959438324

> <CNN_VS>
6.1120514870

> <CNNaffinity_variance>
0.0118022365

$$$$



 26 28  0  0  0  0  0  0  0  0999 V2000
  -19.8855  -15.2180   -8.7837 C   0  0  0  0  0  0  0  0  0  0  0  0
  -20.3826  -14.0011   -8.1270 N   0  0  0  0  0  0  0  0  0  0  0  0
  -20.7895  -14.2657   -7.2298 H   0  0  0  0  0  0  0  0  0  0  0  0
  -21.3946  -13.2753   -8.8925 C   0  0  0  0  0  0  0  0  0  0  0  0
  -23.8792  -13.8353   -8.5841 C   0  0  0  0  0  0  0  0  0  0  0  0
  -25.0077  -14.8013   -8.8445 C   0  0  0  0  0  0  0  0  0  0  0  0
  -22.6427  -14.0926   -9.0610 C   0  0  0  0  0  0  0  0  0  0  0  0
  -24.2635  -12.5996   -7.7911 C   0  0  0  0  0  0  0  0  0  0  0  0
  -25.0141  -12.8932   -6.4832 C   0  0  0  0  0  0  0  0  0  0  0  0
  -27.6255  -11.9617   -7.9863 C   0  0  0  0  0  0  0  0  0  0  0  0
  -27.0830  -11.3861   -6.7082 C   0  0  0  0  0  0  0  0  0  0  0  0
  -27.9027  -10.2564   -6.1406 C   0  0  0  0  0  0  0  0  0  0  0  0
  -25.9572  -11.7885   -6.0854 C   0  0  0  0  0  0  0  0  0  0  0  0
  -19.4476  -16.3570   -7.8327 C   0  0  0  0  0  0  0  0  0  0  0  0
  -20.2302  -17.5974   -7.9150 N   0  0  0  0  0  0  0  0  0  0  0  0
  -19.5825  -18.3838   -7.8646 H   0  0  0  0  0  0  0  0  0  0  0  0
  -21.2390  -17.7693   -6.8583 C   0  0  0  0  0  0  0  0  0  0  0  0
  -22.6163  -17.1396   -7.2042 C   0  0  0  0  0  0  0  0  0  0  0  0
  -23.5663  -17.3272   -6.0033 C   0  0  0  0  0  0  0  0  0  0  0  0
  -23.7685  -18.8229   -5.7124 C   0  0  0  0  0  0  0  0  0  0  0  0
  -24.3744  -19.5004   -6.9534 C   0  0  0  0  0  0  0  0  0  0  0  0
  -23.4329  -19.3314   -8.1583 C   0  0  0  0  0  0  0  0  0  0  0  0
  -23.2347  -17.8309   -8.4361 C   0  0  0  0  0  0  0  0  0  0  0  0
  -22.0755  -19.9754   -7.8280 C   0  0  0  0  0  0  0  0  0  0  0  0
  -21.4495  -19.2889   -6.5957 C   0  0  0  0  0  0  0  0  0  0  0  0
  -22.4061  -19.4631   -5.3988 C   0  0  0  0  0  0  0  0  0  0  0  0
 10 11  1  0
 11 12  1  0
 11 13  2  0
 13  9  1  0
  9  8  1  0
  8  5  1  0
  5  6  1  0
  5  7  2  0
  7  4  1  0
  4  2  1  0
  2  1  1  0
  1 14  1  0
 14 15  1  0
 17 15  1  0
 17 18  1  0
 18 19  1  0
 20 19  1  0
 20 21  1  0
 22 21  1  0
 22 23  1  0
 22 24  1  0
 25 24  1  0
 25 26  1  0
 25 17  1  0
 23 18  1  0
 26 20  1  0
  2  3  1  0
 15 16  1  0
M  END
> <minimizedAffinity>
-8.03943

> <CNNscore>
0.7784193158

> <CNNaffinity>
7.1973152161

> <CNN_VS>
5.6025290489

> <CNNaffinity_variance>
0.0192346182

$$$$



 26 28  0  0  0  0  0  0  0  0999 V2000
  -20.5203  -14.8291   -9.0451 C   0  0  0  0  0  0  0  0  0  0  0  0
  -21.7610  -14.2530   -9.5818 N   0  0  0  0  0  0  0  0  0  0  0  0
  -21.5190  -13.6481  -10.3666 H   0  0  0  0  0  0  0  0  0  0  0  0
  -22.5256  -13.4660   -8.6158 C   0  0  0  0  0  0  0  0  0  0  0  0
  -25.0551  -13.4519   -8.1870 C   0  0  0  0  0  0  0  0  0  0  0  0
  -26.4442  -13.3841   -8.7703 C   0  0  0  0  0  0  0  0  0  0  0  0
  -23.9761  -13.3933   -8.9964 C   0  0  0  0  0  0  0  0  0  0  0  0
  -24.9999  -13.5653   -6.6746 C   0  0  0  0  0  0  0  0  0  0  0  0
  -25.1740  -12.2320   -5.9316 C   0  0  0  0  0  0  0  0  0  0  0  0
  -26.0478   -9.2048   -6.0675 C   0  0  0  0  0  0  0  0  0  0  0  0
  -26.9639  -10.3961   -6.0977 C   0  0  0  0  0  0  0  0  0  0  0  0
  -28.4270  -10.0500   -6.1973 C   0  0  0  0  0  0  0  0  0  0  0  0
  -26.5736  -11.6844   -6.0258 C   0  0  0  0  0  0  0  0  0  0  0  0
  -20.6820  -16.1633   -8.2789 C   0  0  0  0  0  0  0  0  0  0  0  0
  -21.3721  -17.2390   -9.0032 N   0  0  0  0  0  0  0  0  0  0  0  0
  -20.7884  -18.0743   -8.9599 H   0  0  0  0  0  0  0  0  0  0  0  0
  -22.7038  -17.5859   -8.4836 C   0  0  0  0  0  0  0  0  0  0  0  0
  -22.8871  -19.1029   -8.2039 C   0  0  0  0  0  0  0  0  0  0  0  0
  -24.3326  -19.3511   -7.7260 C   0  0  0  0  0  0  0  0  0  0  0  0
  -24.6051  -18.5751   -6.4274 C   0  0  0  0  0  0  0  0  0  0  0  0
  -23.6210  -19.0459   -5.3429 C   0  0  0  0  0  0  0  0  0  0  0  0
  -22.1737  -18.7951   -5.8002 C   0  0  0  0  0  0  0  0  0  0  0  0
  -21.9151  -19.5727   -7.1027 C   0  0  0  0  0  0  0  0  0  0  0  0
  -21.9821  -17.2902   -6.0549 C   0  0  0  0  0  0  0  0  0  0  0  0
  -22.9515  -16.8118   -7.1563 C   0  0  0  0  0  0  0  0  0  0  0  0
  -24.3963  -17.0736   -6.6852 C   0  0  0  0  0  0  0  0  0  0  0  0
 10 11  1  0
 11 12  1  0
 11 13  2  0
 13  9  1  0
  9  8  1  0
  8  5  1  0
  5  6  1  0
  5  7  2  0
  7  4  1  0
  4  2  1  0
  2  1  1  0
  1 14  1  0
 14 15  1  0
 17 15  1  0
 17 18  1  0
 18 19  1  0
 20 19  1  0
 20 21  1  0
 22 21  1  0
 22 23  1  0
 22 24  1  0
 25 24  1  0
 25 26  1  0
 25 17  1  0
 23 18  1  0
 26 20  1  0
  2  3  1  0
 15 16  1  0
M  END
> <minimizedAffinity>
-8.33679

> <CNNscore>
0.7783303261

> <CNNaffinity>
7.0201563835

> <CNN_VS>
5.4640007019

> <CNNaffinity_variance>
0.0338713601

$$$$



 26 28  0  0  0  0  0  0  0  0999 V2000
  -22.7438  -14.1314   -8.7499 C   0  0  0  0  0  0  0  0  0  0  0  0
  -24.2080  -14.0144   -8.7091 N   0  0  0  0  0  0  0  0  0  0  0  0
  -24.5596  -14.0696   -9.6650 H   0  0  0  0  0  0  0  0  0  0  0  0
  -24.6956  -12.7720   -8.1128 C   0  0  0  0  0  0  0  0  0  0  0  0
  -25.9268  -12.2310   -5.9279 C   0  0  0  0  0  0  0  0  0  0  0  0
  -26.1636  -12.5816   -4.4803 C   0  0  0  0  0  0  0  0  0  0  0  0
  -25.0788  -12.9698   -6.6747 C   0  0  0  0  0  0  0  0  0  0  0  0
  -26.7157  -11.0379   -6.4356 C   0  0  0  0  0  0  0  0  0  0  0  0
  -27.3963  -11.2593   -7.7949 C   0  0  0  0  0  0  0  0  0  0  0  0
  -28.9980   -9.2418   -5.9754 C   0  0  0  0  0  0  0  0  0  0  0  0
  -29.5863  -10.1861   -6.9861 C   0  0  0  0  0  0  0  0  0  0  0  0
  -31.0880  -10.1226   -7.0925 C   0  0  0  0  0  0  0  0  0  0  0  0
  -28.8871  -11.0516   -7.7472 C   0  0  0  0  0  0  0  0  0  0  0  0
  -22.1425  -15.2741   -7.8978 C   0  0  0  0  0  0  0  0  0  0  0  0
  -23.0562  -15.9061   -6.9367 N   0  0  0  0  0  0  0  0  0  0  0  0
  -23.9395  -16.0884   -7.4131 H   0  0  0  0  0  0  0  0  0  0  0  0
  -22.5780  -17.1732   -6.3626 C   0  0  0  0  0  0  0  0  0  0  0  0
  -23.6907  -17.9962   -5.6571 C   0  0  0  0  0  0  0  0  0  0  0  0
  -23.0609  -19.2640   -5.0442 C   0  0  0  0  0  0  0  0  0  0  0  0
  -22.4308  -20.1316   -6.1454 C   0  0  0  0  0  0  0  0  0  0  0  0
  -23.5205  -20.5385   -7.1521 C   0  0  0  0  0  0  0  0  0  0  0  0
  -24.1515  -19.2841   -7.7808 C   0  0  0  0  0  0  0  0  0  0  0  0
  -24.7740  -18.4221   -6.6685 C   0  0  0  0  0  0  0  0  0  0  0  0
  -23.0562  -18.4792   -8.5009 C   0  0  0  0  0  0  0  0  0  0  0  0
  -21.9675  -18.0488   -7.4953 C   0  0  0  0  0  0  0  0  0  0  0  0
  -21.3482  -19.3157   -6.8712 C   0  0  0  0  0  0  0  0  0  0  0  0
 10 11  1  0
 11 12  1  0
 11 13  2  0
 13  9  1  0
  9  8  1  0
  8  5  1  0
  5  6  1  0
  5  7  2  0
  7  4  1  0
  4  2  1  0
  2  1  1  0
  1 14  1  0
 14 15  1  0
 17 15  1  0
 17 18  1  0
 18 19  1  0
 20 19  1  0
 20 21  1  0
 22 21  1  0
 22 23  1  0
 22 24  1  0
 25 24  1  0
 25 26  1  0
 25 17  1  0
 23 18  1  0
 26 20  1  0
  2  3  1  0
 15 16  1  0
M  END
> <minimizedAffinity>
-8.40257

> <CNNscore>
0.7692292333

> <CNNaffinity>
7.1772365570

> <CNN_VS>
5.5209403038

> <CNNaffinity_variance>
0.2129615098

$$$$



 26 28  0  0  0  0  0  0  0  0999 V2000
  -19.5711  -15.1392   -8.2562 C   0  0  0  0  0  0  0  0  0  0  0  0
  -20.6466  -14.9520   -9.2398 N   0  0  0  0  0  0  0  0  0  0  0  0
  -20.2435  -15.0334  -10.1733 H   0  0  0  0  0  0  0  0  0  0  0  0
  -21.3290  -13.6626   -9.1466 C   0  0  0  0  0  0  0  0  0  0  0  0
  -23.7624  -14.2479   -8.5826 C   0  0  0  0  0  0  0  0  0  0  0  0
  -25.1922  -14.3359   -9.0544 C   0  0  0  0  0  0  0  0  0  0  0  0
  -22.7993  -13.8018   -9.4169 C   0  0  0  0  0  0  0  0  0  0  0  0
  -23.5356  -14.6703   -7.1426 C   0  0  0  0  0  0  0  0  0  0  0  0
  -24.6894  -14.3220   -6.1899 C   0  0  0  0  0  0  0  0  0  0  0  0
  -25.8466  -12.5335   -3.8644 C   0  0  0  0  0  0  0  0  0  0  0  0
  -25.5781  -12.0913   -5.2757 C   0  0  0  0  0  0  0  0  0  0  0  0
  -25.9184  -10.6490   -5.5483 C   0  0  0  0  0  0  0  0  0  0  0  0
  -25.0945  -12.8734   -6.2614 C   0  0  0  0  0  0  0  0  0  0  0  0
  -19.7310  -16.3589   -7.3181 C   0  0  0  0  0  0  0  0  0  0  0  0
  -21.1115  -16.7383   -6.9893 N   0  0  0  0  0  0  0  0  0  0  0  0
  -21.7334  -16.2714   -7.6494 H   0  0  0  0  0  0  0  0  0  0  0  0
  -21.3909  -18.1815   -7.0426 C   0  0  0  0  0  0  0  0  0  0  0  0
  -22.3066  -18.6812   -5.8915 C   0  0  0  0  0  0  0  0  0  0  0  0
  -22.4758  -20.2095   -6.0161 C   0  0  0  0  0  0  0  0  0  0  0  0
  -23.1350  -20.5648   -7.3585 C   0  0  0  0  0  0  0  0  0  0  0  0
  -24.5153  -19.8903   -7.4364 C   0  0  0  0  0  0  0  0  0  0  0  0
  -24.3626  -18.3636   -7.3243 C   0  0  0  0  0  0  0  0  0  0  0  0
  -23.6975  -18.0213   -5.9796 C   0  0  0  0  0  0  0  0  0  0  0  0
  -23.4759  -17.8624   -8.4771 C   0  0  0  0  0  0  0  0  0  0  0  0
  -22.0813  -18.5184   -8.3962 C   0  0  0  0  0  0  0  0  0  0  0  0
  -22.2514  -20.0471   -8.5056 C   0  0  0  0  0  0  0  0  0  0  0  0
 10 11  1  0
 11 12  1  0
 11 13  2  0
 13  9  1  0
  9  8  1  0
  8  5  1  0
  5  6  1  0
  5  7  2  0
  7  4  1  0
  4  2  1  0
  2  1  1  0
  1 14  1  0
 14 15  1  0
 17 15  1  0
 17 18  1  0
 18 19  1  0
 20 19  1  0
 20 21  1  0
 22 21  1  0
 22 23  1  0
 22 24  1  0
 25 24  1  0
 25 26  1  0
 25 17  1  0
 23 18  1  0
 26 20  1  0
  2  3  1  0
 15 16  1  0
M  END
> <minimizedAffinity>
-8.56455

> <CNNscore>
0.7462556958

> <CNNaffinity>
7.0918755531

> <CNN_VS>
5.2923526764

> <CNNaffinity_variance>
0.0043180697

$$$$



 26 28  0  0  0  0  0  0  0  0999 V2000
  -22.7512  -14.7196   -9.2586 C   0  0  0  0  0  0  0  0  0  0  0  0
  -23.2594  -14.0680   -8.0436 N   0  0  0  0  0  0  0  0  0  0  0  0
  -22.5657  -14.1841   -7.3048 H   0  0  0  0  0  0  0  0  0  0  0  0
  -24.5332  -14.6007   -7.5634 C   0  0  0  0  0  0  0  0  0  0  0  0
  -25.3902  -13.0343   -5.7211 C   0  0  0  0  0  0  0  0  0  0  0  0
  -25.5545  -12.7772   -4.2442 C   0  0  0  0  0  0  0  0  0  0  0  0
  -24.8063  -14.1734   -6.1503 C   0  0  0  0  0  0  0  0  0  0  0  0
  -25.9398  -11.9468   -6.6260 C   0  0  0  0  0  0  0  0  0  0  0  0
  -26.3406  -10.6561   -5.8956 C   0  0  0  0  0  0  0  0  0  0  0  0
  -28.1862  -10.6815   -8.4528 C   0  0  0  0  0  0  0  0  0  0  0  0
  -28.6245  -10.3958   -7.0437 C   0  0  0  0  0  0  0  0  0  0  0  0
  -30.0939  -10.0942   -6.9012 C   0  0  0  0  0  0  0  0  0  0  0  0
  -27.8189  -10.3768   -5.9631 C   0  0  0  0  0  0  0  0  0  0  0  0
  -22.1719  -16.1403   -9.0603 C   0  0  0  0  0  0  0  0  0  0  0  0
  -23.1418  -17.2420   -9.1185 N   0  0  0  0  0  0  0  0  0  0  0  0
  -23.2715  -17.4976  -10.0974 H   0  0  0  0  0  0  0  0  0  0  0  0
  -22.7548  -18.4530   -8.3785 C   0  0  0  0  0  0  0  0  0  0  0  0
  -21.8074  -18.1738   -7.1795 C   0  0  0  0  0  0  0  0  0  0  0  0
  -21.4230  -19.5163   -6.5241 C   0  0  0  0  0  0  0  0  0  0  0  0
  -22.6785  -20.2333   -6.0024 C   0  0  0  0  0  0  0  0  0  0  0  0
  -23.3746  -19.3385   -4.9626 C   0  0  0  0  0  0  0  0  0  0  0  0
  -23.7743  -17.9985   -5.6041 C   0  0  0  0  0  0  0  0  0  0  0  0
  -22.5103  -17.2933   -6.1265 C   0  0  0  0  0  0  0  0  0  0  0  0
  -24.7318  -18.2701   -6.7770 C   0  0  0  0  0  0  0  0  0  0  0  0
  -24.0357  -19.1510   -7.8358 C   0  0  0  0  0  0  0  0  0  0  0  0
  -23.6377  -20.4872   -7.1770 C   0  0  0  0  0  0  0  0  0  0  0  0
 10 11  1  0
 11 12  1  0
 11 13  2  0
 13  9  1  0
  9  8  1  0
  8  5  1  0
  5  6  1  0
  5  7  2  0
  7  4  1  0
  4  2  1  0
  2  1  1  0
  1 14  1  0
 14 15  1  0
 17 15  1  0
 17 18  1  0
 18 19  1  0
 20 19  1  0
 20 21  1  0
 22 21  1  0
 22 23  1  0
 22 24  1  0
 25 24  1  0
 25 26  1  0
 25 17  1  0
 23 18  1  0
 26 20  1  0
  2  3  1  0
 15 16  1  0
M  END
> <minimizedAffinity>
-8.93549

> <CNNscore>
0.7085424066

> <CNNaffinity>
6.6913108826

> <CNN_VS>
4.7410774231

> <CNNaffinity_variance>
0.3628044128

$$$$



 26 28  0  0  0  0  0  0  0  0999 V2000
  -19.6172  -19.0919  -10.5646 C   0  0  0  0  0  0  0  0  0  0  0  0
  -19.5299  -17.7786   -9.9116 N   0  0  0  0  0  0  0  0  0  0  0  0
  -19.4271  -17.0678  -10.6359 H   0  0  0  0  0  0  0  0  0  0  0  0
  -18.4137  -17.6446   -8.9771 C   0  0  0  0  0  0  0  0  0  0  0  0
  -19.4899  -15.6834   -7.7210 C   0  0  0  0  0  0  0  0  0  0  0  0
  -19.7676  -15.0203   -6.3953 C   0  0  0  0  0  0  0  0  0  0  0  0
  -18.8065  -16.8468   -7.7674 C   0  0  0  0  0  0  0  0  0  0  0  0
  -20.0477  -14.9560   -8.9307 C   0  0  0  0  0  0  0  0  0  0  0  0
  -20.7274  -13.6167   -8.6080 C   0  0  0  0  0  0  0  0  0  0  0  0
  -23.3795  -14.2768   -7.0342 C   0  0  0  0  0  0  0  0  0  0  0  0
  -23.2857  -13.8022   -8.4574 C   0  0  0  0  0  0  0  0  0  0  0  0
  -24.6159  -13.6513   -9.1489 C   0  0  0  0  0  0  0  0  0  0  0  0
  -22.1417  -13.5365   -9.1190 C   0  0  0  0  0  0  0  0  0  0  0  0
  -20.5963  -20.0967   -9.9125 C   0  0  0  0  0  0  0  0  0  0  0  0
  -21.0063  -19.7906   -8.5355 N   0  0  0  0  0  0  0  0  0  0  0  0
  -20.4389  -19.0110   -8.2027 H   0  0  0  0  0  0  0  0  0  0  0  0
  -22.4221  -19.4261   -8.3730 C   0  0  0  0  0  0  0  0  0  0  0  0
  -23.1996  -20.3637   -7.4089 C   0  0  0  0  0  0  0  0  0  0  0  0
  -24.6774  -19.9230   -7.3682 C   0  0  0  0  0  0  0  0  0  0  0  0
  -24.7891  -18.4809   -6.8482 C   0  0  0  0  0  0  0  0  0  0  0  0
  -24.1956  -18.4087   -5.4309 C   0  0  0  0  0  0  0  0  0  0  0  0
  -22.7177  -18.8353   -5.4563 C   0  0  0  0  0  0  0  0  0  0  0  0
  -22.6189  -20.2777   -5.9830 C   0  0  0  0  0  0  0  0  0  0  0  0
  -21.9402  -17.8935   -6.3916 C   0  0  0  0  0  0  0  0  0  0  0  0
  -22.5153  -17.9736   -7.8215 C   0  0  0  0  0  0  0  0  0  0  0  0
  -23.9967  -17.5477   -7.7786 C   0  0  0  0  0  0  0  0  0  0  0  0
 10 11  1  0
 11 12  1  0
 11 13  2  0
 13  9  1  0
  9  8  1  0
  8  5  1  0
  5  6  1  0
  5  7  2  0
  7  4  1  0
  4  2  1  0
  2  1  1  0
  1 14  1  0
 14 15  1  0
 17 15  1  0
 17 18  1  0
 18 19  1  0
 20 19  1  0
 20 21  1  0
 22 21  1  0
 22 23  1  0
 22 24  1  0
 25 24  1  0
 25 26  1  0
 25 17  1  0
 23 18  1  0
 26 20  1  0
  2  3  1  0
 15 16  1  0
M  END
> <minimizedAffinity>
-7.59817

> <CNNscore>
0.6229813695

> <CNNaffinity>
6.5613055229

> <CNN_VS>
4.0875711441

> <CNNaffinity_variance>
0.0858013704

$$$$



 26 28  0  0  0  0  0  0  0  0999 V2000
  -18.9751  -19.7856   -9.5881 C   0  0  0  0  0  0  0  0  0  0  0  0
  -18.5364  -21.1108  -10.0468 N   0  0  0  0  0  0  0  0  0  0  0  0
  -17.6601  -21.3377   -9.5767 H   0  0  0  0  0  0  0  0  0  0  0  0
  -18.3203  -21.2067  -11.4894 C   0  0  0  0  0  0  0  0  0  0  0  0
  -17.7259  -23.5199  -12.4265 C   0  0  0  0  0  0  0  0  0  0  0  0
  -16.6615  -24.5616  -12.6637 C   0  0  0  0  0  0  0  0  0  0  0  0
  -17.4095  -22.3505  -11.8307 C   0  0  0  0  0  0  0  0  0  0  0  0
  -19.1111  -23.8950  -12.9206 C   0  0  0  0  0  0  0  0  0  0  0  0
  -19.9370  -24.7237  -11.9250 C   0  0  0  0  0  0  0  0  0  0  0  0
  -18.2497  -27.1948  -10.9288 C   0  0  0  0  0  0  0  0  0  0  0  0
  -19.3834  -27.2327  -11.9150 C   0  0  0  0  0  0  0  0  0  0  0  0
  -19.6944  -28.6071  -12.4486 C   0  0  0  0  0  0  0  0  0  0  0  0
  -20.0862  -26.1637  -12.3396 C   0  0  0  0  0  0  0  0  0  0  0  0
  -20.4965  -19.5195   -9.6769 C   0  0  0  0  0  0  0  0  0  0  0  0
  -21.3328  -20.2537   -8.7181 N   0  0  0  0  0  0  0  0  0  0  0  0
  -20.8659  -21.1341   -8.5006 H   0  0  0  0  0  0  0  0  0  0  0  0
  -21.5932  -19.5510   -7.4522 C   0  0  0  0  0  0  0  0  0  0  0  0
  -22.0267  -18.0711   -7.6394 C   0  0  0  0  0  0  0  0  0  0  0  0
  -22.2088  -17.4251   -6.2505 C   0  0  0  0  0  0  0  0  0  0  0  0
  -23.3020  -18.1614   -5.4596 C   0  0  0  0  0  0  0  0  0  0  0  0
  -24.6268  -18.0821   -6.2372 C   0  0  0  0  0  0  0  0  0  0  0  0
  -24.4646  -18.7325   -7.6220 C   0  0  0  0  0  0  0  0  0  0  0  0
  -23.3649  -17.9901   -8.4013 C   0  0  0  0  0  0  0  0  0  0  0  0
  -24.0588  -20.2050   -7.4397 C   0  0  0  0  0  0  0  0  0  0  0  0
  -22.7198  -20.2950   -6.6777 C   0  0  0  0  0  0  0  0  0  0  0  0
  -22.8973  -19.6357   -5.2950 C   0  0  0  0  0  0  0  0  0  0  0  0
 10 11  1  0
 11 12  1  0
 11 13  2  0
 13  9  1  0
  9  8  1  0
  8  5  1  0
  5  6  1  0
  5  7  2  0
  7  4  1  0
  4  2  1  0
  2  1  1  0
  1 14  1  0
 14 15  1  0
 17 15  1  0
 17 18  1  0
 18 19  1  0
 20 19  1  0
 20 21  1  0
 22 21  1  0
 22 23  1  0
 22 24  1  0
 25 24  1  0
 25 26  1  0
 25 17  1  0
 23 18  1  0
 26 20  1  0
  2  3  1  0
 15 16  1  0
M  END
> <minimizedAffinity>
-7.03915

> <CNNscore>
0.5674300194

> <CNNaffinity>
5.9876270294

> <CNN_VS>
3.3975594044

> <CNNaffinity_variance>
0.1386030167

$$$$



 26 28  0  0  0  0  0  0  0  0999 V2000
  -25.4083  -18.1493   -4.8597 C   0  0  0  0  0  0  0  0  0  0  0  0
  -25.9484  -16.7909   -5.0088 N   0  0  0  0  0  0  0  0  0  0  0  0
  -25.3247  -16.1443   -4.5259 H   0  0  0  0  0  0  0  0  0  0  0  0
  -27.2957  -16.6168   -4.4689 C   0  0  0  0  0  0  0  0  0  0  0  0
  -26.7466  -14.1929   -3.8319 C   0  0  0  0  0  0  0  0  0  0  0  0
  -26.9721  -13.0452   -2.8799 C   0  0  0  0  0  0  0  0  0  0  0  0
  -27.3991  -15.3612   -3.6523 C   0  0  0  0  0  0  0  0  0  0  0  0
  -25.7779  -13.9054   -4.9644 C   0  0  0  0  0  0  0  0  0  0  0  0
  -25.5730  -12.4120   -5.2603 C   0  0  0  0  0  0  0  0  0  0  0  0
  -27.8925  -10.3385   -5.7771 C   0  0  0  0  0  0  0  0  0  0  0  0
  -27.1295  -11.0978   -6.8263 C   0  0  0  0  0  0  0  0  0  0  0  0
  -27.5608  -10.8042   -8.2398 C   0  0  0  0  0  0  0  0  0  0  0  0
  -26.1484  -11.9906   -6.5867 C   0  0  0  0  0  0  0  0  0  0  0  0
  -23.9510  -18.3436   -5.3411 C   0  0  0  0  0  0  0  0  0  0  0  0
  -23.6723  -17.9325   -6.7236 N   0  0  0  0  0  0  0  0  0  0  0  0
  -24.3569  -17.2237   -6.9868 H   0  0  0  0  0  0  0  0  0  0  0  0
  -22.3297  -17.3758   -6.9498 C   0  0  0  0  0  0  0  0  0  0  0  0
  -21.9201  -17.3270   -8.4475 C   0  0  0  0  0  0  0  0  0  0  0  0
  -20.4790  -16.7872   -8.5534 C   0  0  0  0  0  0  0  0  0  0  0  0
  -20.3988  -15.3653   -7.9751 C   0  0  0  0  0  0  0  0  0  0  0  0
  -21.3475  -14.4462   -8.7636 C   0  0  0  0  0  0  0  0  0  0  0  0
  -22.7918  -14.9656   -8.6589 C   0  0  0  0  0  0  0  0  0  0  0  0
  -22.8578  -16.3905   -9.2360 C   0  0  0  0  0  0  0  0  0  0  0  0
  -23.2089  -14.9922   -7.1784 C   0  0  0  0  0  0  0  0  0  0  0  0
  -22.2751  -15.9277   -6.3819 C   0  0  0  0  0  0  0  0  0  0  0  0
  -20.8321  -15.3968   -6.5001 C   0  0  0  0  0  0  0  0  0  0  0  0
 10 11  1  0
 11 12  1  0
 11 13  2  0
 13  9  1  0
  9  8  1  0
  8  5  1  0
  5  6  1  0
  5  7  2  0
  7  4  1  0
  4  2  1  0
  2  1  1  0
  1 14  1  0
 14 15  1  0
 17 15  1  0
 17 18  1  0
 18 19  1  0
 20 19  1  0
 20 21  1  0
 22 21  1  0
 22 23  1  0
 22 24  1  0
 25 24  1  0
 25 26  1  0
 25 17  1  0
 23 18  1  0
 26 20  1  0
  2  3  1  0
 15 16  1  0
M  END
> <minimizedAffinity>
-7.01917

> <CNNscore>
0.5401033759

> <CNNaffinity>
7.0595774651

> <CNN_VS>
3.8129017353

> <CNNaffinity_variance>
0.0392212123

$$$$
