


 47 51  0  0  0  0  0  0  0  0999 V2000
  -10.4986   48.5842    2.7972 C   0  0  0  0  0  0  0  0  0  0  0  0
  -11.6771   49.1249    3.3424 C   0  0  0  0  0  0  0  0  0  0  0  0
  -11.8668   49.1564    4.7215 C   0  0  0  0  0  0  0  0  0  0  0  0
  -12.9971   49.6787    5.2159 F   0  0  0  0  0  0  0  0  0  0  0  0
  -10.9112   48.6451    5.5900 C   0  0  0  0  0  0  0  0  0  0  0  0
   -9.7352   48.1016    5.0716 C   0  0  0  0  0  0  0  0  0  0  0  0
   -9.5198   48.0790    3.6803 C   0  0  0  0  0  0  0  0  0  0  0  0
   -8.2565   47.4808    3.1717 C   0  0  0  0  0  0  0  0  0  0  0  0
   -7.3586   48.1963    2.7485 O   0  0  0  0  0  0  0  0  0  0  0  0
   -8.2162   46.1046    3.1945 N   0  0  0  0  0  0  0  0  0  0  0  0
   -8.9554   45.6088    3.6152 H   0  0  0  0  0  0  0  0  0  0  0  0
   -7.1074   45.3670    2.6119 C   0  0  0  0  0  0  0  0  0  0  0  0
   -6.0564   44.9853    3.6622 C   0  0  0  0  0  0  0  0  0  0  0  0
   -4.6890   45.2413    3.4587 C   0  0  0  0  0  0  0  0  0  0  0  0
   -3.7374   44.8752    4.4160 C   0  0  0  0  0  0  0  0  0  0  0  0
   -4.1174   44.2235    5.5881 C   0  0  0  0  0  0  0  0  0  0  0  0
   -5.4620   43.9151    5.7829 C   0  0  0  0  0  0  0  0  0  0  0  0
   -6.4181   44.2806    4.8256 C   0  0  0  0  0  0  0  0  0  0  0  0
   -3.0921   43.9369    6.4469 O   0  0  0  0  0  0  0  0  0  0  0  0
   -2.2824   45.0267    6.8668 C   0  0  0  0  0  0  0  0  0  0  0  0
   -7.6840   44.1833    1.8329 C   0  0  0  0  0  0  0  0  0  0  0  0
   -9.0662   44.0383    1.6192 C   0  0  0  0  0  0  0  0  0  0  0  0
   -9.5708   42.9601    0.8797 C   0  0  0  0  0  0  0  0  0  0  0  0
   -8.7009   42.0138    0.3351 C   0  0  0  0  0  0  0  0  0  0  0  0
   -7.3268   42.1560    0.5369 C   0  0  0  0  0  0  0  0  0  0  0  0
   -6.8205   43.2313    1.2720 C   0  0  0  0  0  0  0  0  0  0  0  0
   -9.0569   40.9190   -0.4035 O   0  0  0  0  0  0  0  0  0  0  0  0
   -8.4372   39.6868   -0.0570 C   0  0  0  0  0  0  0  0  0  0  0  0
  -10.3139   48.5791    1.2920 C   0  0  0  0  0  0  0  0  0  0  0  0
  -10.0510   47.2341    0.7725 N   0  0  0  0  0  0  0  0  0  0  0  0
   -9.5065   47.2432   -0.5850 C   0  0  0  0  0  0  0  0  0  0  0  0
   -7.3215   46.0793   -1.0130 C   0  0  0  0  0  0  0  0  0  0  0  0
   -8.0069   47.1473   -0.5849 C   0  0  0  0  0  0  0  0  0  0  0  0
  -11.1661   46.2894    0.9849 C   0  0  0  0  0  0  0  0  0  0  0  0
  -12.0242   45.9426   -0.2263 C   0  0  0  0  0  0  0  0  0  0  0  0
  -11.3806   45.5146   -1.4194 C   0  0  0  0  0  0  0  0  0  0  0  0
  -12.0991   45.1429   -2.5586 C   0  0  0  0  0  0  0  0  0  0  0  0
  -13.4704   45.2277   -2.5047 C   0  0  0  0  0  0  0  0  0  0  0  0
  -14.1281   45.6685   -1.3789 C   0  0  0  0  0  0  0  0  0  0  0  0
  -13.4356   46.0343   -0.2301 C   0  0  0  0  0  0  0  0  0  0  0  0
  -15.4767   45.7190   -1.5786 O   0  0  0  0  0  0  0  0  0  0  0  0
  -15.5859   45.2446   -2.9333 C   0  0  0  0  0  0  0  0  0  0  0  0
  -14.3117   44.9257   -3.5277 O   0  0  0  0  0  0  0  0  0  0  0  0
  -14.1865   46.5928    0.9065 C   0  0  0  0  0  0  0  0  0  0  0  0
  -14.2039   47.7601    1.2503 O   0  0  0  0  0  0  0  0  0  0  0  0
  -14.8654   45.6441    1.5785 O   0  0  0  0  0  0  0  0  0  0  0  0
  -14.8338   44.7529    1.2908 H   0  0  0  0  0  0  0  0  0  0  0  0
 32 33  2  0
 33 31  1  0
 31 30  1  0
 30 29  1  0
 29  1  1  0
  1  2  2  0
  2  3  1  0
  3  4  1  0
  3  5  2  0
  5  6  1  0
  6  7  2  0
  7  8  1  0
  8  9  2  0
  8 10  1  0
 10 12  1  0
 12 13  1  0
 13 14  2  0
 14 15  1  0
 15 16  2  0
 16 19  1  0
 19 20  1  0
 16 17  1  0
 17 18  2  0
 12 21  1  0
 21 22  2  0
 22 23  1  0
 23 24  2  0
 24 27  1  0
 27 28  1  0
 24 25  1  0
 25 26  2  0
 30 34  1  0
 34 35  1  0
 35 36  2  0
 36 37  1  0
 37 38  2  0
 38 39  1  0
 39 40  2  0
 40 44  1  0
 44 45  2  0
 44 46  1  0
 39 41  1  0
 41 42  1  0
 42 43  1  0
  7  1  1  0
 18 13  1  0
 26 21  1  0
 40 35  1  0
 43 38  1  0
 10 11  1  0
 46 47  1  0
M  END
> <minimizedAffinity>
-8.53302

> <CNNscore>
0.8986042142

> <CNNaffinity>
6.7863478661

> <CNN_VS>
6.0982408524

> <CNNaffinity_variance>
0.6805324554

$$$$



 47 51  0  0  0  0  0  0  0  0999 V2000
   -8.7519   44.5402    0.0785 C   0  0  0  0  0  0  0  0  0  0  0  0
   -9.2445   43.3640   -0.5151 C   0  0  0  0  0  0  0  0  0  0  0  0
   -8.6874   42.1275   -0.1992 C   0  0  0  0  0  0  0  0  0  0  0  0
   -9.1760   41.0217   -0.7765 F   0  0  0  0  0  0  0  0  0  0  0  0
   -7.6281   42.0236    0.6929 C   0  0  0  0  0  0  0  0  0  0  0  0
   -7.1215   43.1774    1.2922 C   0  0  0  0  0  0  0  0  0  0  0  0
   -7.6857   44.4334    0.9977 C   0  0  0  0  0  0  0  0  0  0  0  0
   -7.1072   45.6374    1.6518 C   0  0  0  0  0  0  0  0  0  0  0  0
   -6.5122   46.4768    0.9894 O   0  0  0  0  0  0  0  0  0  0  0  0
   -7.2732   45.6916    3.0177 N   0  0  0  0  0  0  0  0  0  0  0  0
   -7.8243   45.0078    3.4626 H   0  0  0  0  0  0  0  0  0  0  0  0
   -6.6536   46.7351    3.8179 C   0  0  0  0  0  0  0  0  0  0  0  0
   -7.6756   47.7731    4.2991 C   0  0  0  0  0  0  0  0  0  0  0  0
   -8.4259   47.5753    5.4716 C   0  0  0  0  0  0  0  0  0  0  0  0
   -9.3662   48.5209    5.8931 C   0  0  0  0  0  0  0  0  0  0  0  0
   -9.6025   49.6747    5.1475 C   0  0  0  0  0  0  0  0  0  0  0  0
   -8.9059   49.8622    3.9557 C   0  0  0  0  0  0  0  0  0  0  0  0
   -7.9628   48.9167    3.5305 C   0  0  0  0  0  0  0  0  0  0  0  0
  -10.5338   50.5240    5.6790 O   0  0  0  0  0  0  0  0  0  0  0  0
  -11.8733   50.0530    5.7373 C   0  0  0  0  0  0  0  0  0  0  0  0
   -5.8578   46.0626    4.9380 C   0  0  0  0  0  0  0  0  0  0  0  0
   -4.9184   46.7702    5.7088 C   0  0  0  0  0  0  0  0  0  0  0  0
   -4.2197   46.1408    6.7479 C   0  0  0  0  0  0  0  0  0  0  0  0
   -4.4550   44.7958    7.0384 C   0  0  0  0  0  0  0  0  0  0  0  0
   -5.3921   44.0893    6.2822 C   0  0  0  0  0  0  0  0  0  0  0  0
   -6.0919   44.7148    5.2468 C   0  0  0  0  0  0  0  0  0  0  0  0
   -3.8467   44.0623    8.0196 O   0  0  0  0  0  0  0  0  0  0  0  0
   -4.6710   43.6243    9.0924 C   0  0  0  0  0  0  0  0  0  0  0  0
   -9.3904   45.8700   -0.2732 C   0  0  0  0  0  0  0  0  0  0  0  0
  -10.6254   46.1058    0.4799 N   0  0  0  0  0  0  0  0  0  0  0  0
  -10.3817   46.5911    1.8380 C   0  0  0  0  0  0  0  0  0  0  0  0
  -11.6633   48.7516    1.8783 C   0  0  0  0  0  0  0  0  0  0  0  0
  -11.4823   47.4975    2.3122 C   0  0  0  0  0  0  0  0  0  0  0  0
  -11.5972   44.9979    0.3845 C   0  0  0  0  0  0  0  0  0  0  0  0
  -12.5708   45.0257   -0.7881 C   0  0  0  0  0  0  0  0  0  0  0  0
  -12.1397   44.5226   -2.0459 C   0  0  0  0  0  0  0  0  0  0  0  0
  -12.9850   44.4788   -3.1575 C   0  0  0  0  0  0  0  0  0  0  0  0
  -14.2614   44.9678   -3.0089 C   0  0  0  0  0  0  0  0  0  0  0  0
  -14.7049   45.4927   -1.8164 C   0  0  0  0  0  0  0  0  0  0  0  0
  -13.8857   45.5380   -0.6940 C   0  0  0  0  0  0  0  0  0  0  0  0
  -15.9810   45.9630   -1.9241 O   0  0  0  0  0  0  0  0  0  0  0  0
  -16.2871   45.6557   -3.2967 C   0  0  0  0  0  0  0  0  0  0  0  0
  -15.1973   45.0177   -3.9924 O   0  0  0  0  0  0  0  0  0  0  0  0
  -14.3816   46.2020    0.5230 C   0  0  0  0  0  0  0  0  0  0  0  0
  -14.6589   45.6567    1.5751 O   0  0  0  0  0  0  0  0  0  0  0  0
  -14.5313   47.5286    0.3493 O   0  0  0  0  0  0  0  0  0  0  0  0
  -14.3097   47.9216   -0.4720 H   0  0  0  0  0  0  0  0  0  0  0  0
 32 33  2  0
 33 31  1  0
 31 30  1  0
 30 29  1  0
 29  1  1  0
  1  2  2  0
  2  3  1  0
  3  4  1  0
  3  5  2  0
  5  6  1  0
  6  7  2  0
  7  8  1  0
  8  9  2  0
  8 10  1  0
 10 12  1  0
 12 13  1  0
 13 14  2  0
 14 15  1  0
 15 16  2  0
 16 19  1  0
 19 20  1  0
 16 17  1  0
 17 18  2  0
 12 21  1  0
 21 22  2  0
 22 23  1  0
 23 24  2  0
 24 27  1  0
 27 28  1  0
 24 25  1  0
 25 26  2  0
 30 34  1  0
 34 35  1  0
 35 36  2  0
 36 37  1  0
 37 38  2  0
 38 39  1  0
 39 40  2  0
 40 44  1  0
 44 45  2  0
 44 46  1  0
 39 41  1  0
 41 42  1  0
 42 43  1  0
  7  1  1  0
 18 13  1  0
 26 21  1  0
 40 35  1  0
 43 38  1  0
 10 11  1  0
 46 47  1  0
M  END
> <minimizedAffinity>
-7.72379

> <CNNscore>
0.7715221643

> <CNNaffinity>
6.8961968422

> <CNN_VS>
5.3205685616

> <CNNaffinity_variance>
0.4065675437

$$$$



 47 51  0  0  0  0  0  0  0  0999 V2000
   -8.8134   43.6190    0.4214 C   0  0  0  0  0  0  0  0  0  0  0  0
   -9.8113   43.1078   -0.4277 C   0  0  0  0  0  0  0  0  0  0  0  0
   -9.8227   41.7582   -0.7705 C   0  0  0  0  0  0  0  0  0  0  0  0
  -10.7853   41.2954   -1.5792 F   0  0  0  0  0  0  0  0  0  0  0  0
   -8.8478   40.8889   -0.2988 C   0  0  0  0  0  0  0  0  0  0  0  0
   -7.8464   41.3743    0.5432 C   0  0  0  0  0  0  0  0  0  0  0  0
   -7.8314   42.7325    0.9142 C   0  0  0  0  0  0  0  0  0  0  0  0
   -6.7395   43.2082    1.8051 C   0  0  0  0  0  0  0  0  0  0  0  0
   -5.7323   42.5321    1.9661 O   0  0  0  0  0  0  0  0  0  0  0  0
   -6.9809   44.4134    2.4258 N   0  0  0  0  0  0  0  0  0  0  0  0
   -7.7880   44.9241    2.1870 H   0  0  0  0  0  0  0  0  0  0  0  0
   -6.0717   44.9491    3.4255 C   0  0  0  0  0  0  0  0  0  0  0  0
   -4.8020   45.5332    2.7928 C   0  0  0  0  0  0  0  0  0  0  0  0
   -3.5781   44.8423    2.8318 C   0  0  0  0  0  0  0  0  0  0  0  0
   -2.4229   45.3907    2.2655 C   0  0  0  0  0  0  0  0  0  0  0  0
   -2.4488   46.6499    1.6681 C   0  0  0  0  0  0  0  0  0  0  0  0
   -3.6407   47.3713    1.6665 C   0  0  0  0  0  0  0  0  0  0  0  0
   -4.8001   46.8246    2.2330 C   0  0  0  0  0  0  0  0  0  0  0  0
   -1.2568   47.0615    1.1385 O   0  0  0  0  0  0  0  0  0  0  0  0
   -0.6389   46.1946    0.1970 C   0  0  0  0  0  0  0  0  0  0  0  0
   -6.8543   45.9317    4.2987 C   0  0  0  0  0  0  0  0  0  0  0  0
   -6.6684   45.9976    5.6909 C   0  0  0  0  0  0  0  0  0  0  0  0
   -7.3767   46.9239    6.4684 C   0  0  0  0  0  0  0  0  0  0  0  0
   -8.2763   47.8046    5.8652 C   0  0  0  0  0  0  0  0  0  0  0  0
   -8.4599   47.7498    4.4823 C   0  0  0  0  0  0  0  0  0  0  0  0
   -7.7534   46.8287    3.7042 C   0  0  0  0  0  0  0  0  0  0  0  0
   -9.0286   48.7534    6.5015 O   0  0  0  0  0  0  0  0  0  0  0  0
   -8.4681   50.0572    6.5914 C   0  0  0  0  0  0  0  0  0  0  0  0
   -8.8373   45.0900    0.7898 C   0  0  0  0  0  0  0  0  0  0  0  0
   -9.6063   45.8870   -0.1700 N   0  0  0  0  0  0  0  0  0  0  0  0
   -8.8715   47.0519   -0.6625 C   0  0  0  0  0  0  0  0  0  0  0  0
   -6.4628   47.6966   -0.9694 C   0  0  0  0  0  0  0  0  0  0  0  0
   -7.3999   46.9435   -0.3792 C   0  0  0  0  0  0  0  0  0  0  0  0
  -10.9887   46.1678    0.2672 C   0  0  0  0  0  0  0  0  0  0  0  0
  -12.1127   45.7740   -0.6842 C   0  0  0  0  0  0  0  0  0  0  0  0
  -11.7788   45.3692   -2.0055 C   0  0  0  0  0  0  0  0  0  0  0  0
  -12.7483   44.9574   -2.9234 C   0  0  0  0  0  0  0  0  0  0  0  0
  -14.0619   44.9783   -2.5176 C   0  0  0  0  0  0  0  0  0  0  0  0
  -14.4273   45.3948   -1.2577 C   0  0  0  0  0  0  0  0  0  0  0  0
  -13.4801   45.7995   -0.3238 C   0  0  0  0  0  0  0  0  0  0  0  0
  -15.7826   45.3810   -1.1030 O   0  0  0  0  0  0  0  0  0  0  0  0
  -16.2148   44.8938   -2.3867 C   0  0  0  0  0  0  0  0  0  0  0  0
  -15.1232   44.6312   -3.2913 O   0  0  0  0  0  0  0  0  0  0  0  0
  -13.9382   46.3292    0.9713 C   0  0  0  0  0  0  0  0  0  0  0  0
  -13.5783   47.3707    1.4879 O   0  0  0  0  0  0  0  0  0  0  0  0
  -14.8155   45.5039    1.5727 O   0  0  0  0  0  0  0  0  0  0  0  0
  -15.0749   44.7082    1.1513 H   0  0  0  0  0  0  0  0  0  0  0  0
 32 33  2  0
 33 31  1  0
 31 30  1  0
 30 29  1  0
 29  1  1  0
  1  2  2  0
  2  3  1  0
  3  4  1  0
  3  5  2  0
  5  6  1  0
  6  7  2  0
  7  8  1  0
  8  9  2  0
  8 10  1  0
 10 12  1  0
 12 13  1  0
 13 14  2  0
 14 15  1  0
 15 16  2  0
 16 19  1  0
 19 20  1  0
 16 17  1  0
 17 18  2  0
 12 21  1  0
 21 22  2  0
 22 23  1  0
 23 24  2  0
 24 27  1  0
 27 28  1  0
 24 25  1  0
 25 26  2  0
 30 34  1  0
 34 35  1  0
 35 36  2  0
 36 37  1  0
 37 38  2  0
 38 39  1  0
 39 40  2  0
 40 44  1  0
 44 45  2  0
 44 46  1  0
 39 41  1  0
 41 42  1  0
 42 43  1  0
  7  1  1  0
 18 13  1  0
 26 21  1  0
 40 35  1  0
 43 38  1  0
 10 11  1  0
 46 47  1  0
M  END
> <minimizedAffinity>
-8.97204

> <CNNscore>
0.7290360928

> <CNNaffinity>
6.4267420769

> <CNN_VS>
4.6853270531

> <CNNaffinity_variance>
1.4409559965

$$$$



 47 51  0  0  0  0  0  0  0  0999 V2000
  -10.7442   48.4317    3.9924 C   0  0  0  0  0  0  0  0  0  0  0  0
  -11.4206   48.8235    5.1617 C   0  0  0  0  0  0  0  0  0  0  0  0
  -10.7260   49.4135    6.2146 C   0  0  0  0  0  0  0  0  0  0  0  0
  -11.3937   49.7799    7.3167 F   0  0  0  0  0  0  0  0  0  0  0  0
   -9.3539   49.6165    6.1458 C   0  0  0  0  0  0  0  0  0  0  0  0
   -8.6614   49.2335    4.9964 C   0  0  0  0  0  0  0  0  0  0  0  0
   -9.3519   48.6525    3.9155 C   0  0  0  0  0  0  0  0  0  0  0  0
   -8.5718   48.2503    2.7146 C   0  0  0  0  0  0  0  0  0  0  0  0
   -8.5535   48.9633    1.7203 O   0  0  0  0  0  0  0  0  0  0  0  0
   -7.9303   47.0364    2.8195 N   0  0  0  0  0  0  0  0  0  0  0  0
   -7.9418   46.5593    3.6806 H   0  0  0  0  0  0  0  0  0  0  0  0
   -7.2365   46.4431    1.6883 C   0  0  0  0  0  0  0  0  0  0  0  0
   -5.7738   46.1181    2.0178 C   0  0  0  0  0  0  0  0  0  0  0  0
   -4.7403   47.0324    1.7485 C   0  0  0  0  0  0  0  0  0  0  0  0
   -3.4084   46.7199    2.0385 C   0  0  0  0  0  0  0  0  0  0  0  0
   -3.0669   45.4819    2.5805 C   0  0  0  0  0  0  0  0  0  0  0  0
   -4.0719   44.5437    2.8055 C   0  0  0  0  0  0  0  0  0  0  0  0
   -5.4076   44.8537    2.5160 C   0  0  0  0  0  0  0  0  0  0  0  0
   -1.7334   45.3107    2.8322 O   0  0  0  0  0  0  0  0  0  0  0  0
   -1.3622   45.0501    4.1790 C   0  0  0  0  0  0  0  0  0  0  0  0
   -8.0580   45.2469    1.2040 C   0  0  0  0  0  0  0  0  0  0  0  0
   -9.2027   44.8059    1.8912 C   0  0  0  0  0  0  0  0  0  0  0  0
   -9.9559   43.7242    1.4149 C   0  0  0  0  0  0  0  0  0  0  0  0
   -9.5812   43.0712    0.2394 C   0  0  0  0  0  0  0  0  0  0  0  0
   -8.4501   43.5090   -0.4522 C   0  0  0  0  0  0  0  0  0  0  0  0
   -7.6984   44.5886    0.0191 C   0  0  0  0  0  0  0  0  0  0  0  0
  -10.2226   42.0083   -0.3347 O   0  0  0  0  0  0  0  0  0  0  0  0
   -9.3999   41.0082   -0.9223 C   0  0  0  0  0  0  0  0  0  0  0  0
  -11.5309   47.8069    2.8564 C   0  0  0  0  0  0  0  0  0  0  0  0
  -12.0089   48.8087    1.8995 N   0  0  0  0  0  0  0  0  0  0  0  0
  -12.3923   50.0685    2.5361 C   0  0  0  0  0  0  0  0  0  0  0  0
  -13.3027   51.8705    1.0408 C   0  0  0  0  0  0  0  0  0  0  0  0
  -12.2634   51.2315    1.5935 C   0  0  0  0  0  0  0  0  0  0  0  0
  -12.9917   48.2810    0.9317 C   0  0  0  0  0  0  0  0  0  0  0  0
  -12.5053   47.2133   -0.0414 C   0  0  0  0  0  0  0  0  0  0  0  0
  -11.3151   47.4540   -0.7807 C   0  0  0  0  0  0  0  0  0  0  0  0
  -10.7849   46.5092   -1.6629 C   0  0  0  0  0  0  0  0  0  0  0  0
  -11.4702   45.3278   -1.8211 C   0  0  0  0  0  0  0  0  0  0  0  0
  -12.6430   45.0716   -1.1478 C   0  0  0  0  0  0  0  0  0  0  0  0
  -13.1848   45.9919   -0.2575 C   0  0  0  0  0  0  0  0  0  0  0  0
  -13.1677   43.8639   -1.5047 O   0  0  0  0  0  0  0  0  0  0  0  0
  -12.1894   43.3920   -2.4494 C   0  0  0  0  0  0  0  0  0  0  0  0
  -11.1031   44.3180   -2.6523 O   0  0  0  0  0  0  0  0  0  0  0  0
  -14.4921   45.7045    0.3557 C   0  0  0  0  0  0  0  0  0  0  0  0
  -14.7192   45.6062    1.5473 O   0  0  0  0  0  0  0  0  0  0  0  0
  -15.4553   45.5270   -0.5681 O   0  0  0  0  0  0  0  0  0  0  0  0
  -15.2516   45.6088   -1.4790 H   0  0  0  0  0  0  0  0  0  0  0  0
 32 33  2  0
 33 31  1  0
 31 30  1  0
 30 29  1  0
 29  1  1  0
  1  2  2  0
  2  3  1  0
  3  4  1  0
  3  5  2  0
  5  6  1  0
  6  7  2  0
  7  8  1  0
  8  9  2  0
  8 10  1  0
 10 12  1  0
 12 13  1  0
 13 14  2  0
 14 15  1  0
 15 16  2  0
 16 19  1  0
 19 20  1  0
 16 17  1  0
 17 18  2  0
 12 21  1  0
 21 22  2  0
 22 23  1  0
 23 24  2  0
 24 27  1  0
 27 28  1  0
 24 25  1  0
 25 26  2  0
 30 34  1  0
 34 35  1  0
 35 36  2  0
 36 37  1  0
 37 38  2  0
 38 39  1  0
 39 40  2  0
 40 44  1  0
 44 45  2  0
 44 46  1  0
 39 41  1  0
 41 42  1  0
 42 43  1  0
  7  1  1  0
 18 13  1  0
 26 21  1  0
 40 35  1  0
 43 38  1  0
 10 11  1  0
 46 47  1  0
M  END
> <minimizedAffinity>
-7.20024

> <CNNscore>
0.7042769194

> <CNNaffinity>
6.3762726784

> <CNN_VS>
4.4906616211

> <CNNaffinity_variance>
0.5092789531

$$$$



 47 51  0  0  0  0  0  0  0  0999 V2000
   -8.8338   44.0847   -0.4031 C   0  0  0  0  0  0  0  0  0  0  0  0
   -9.0512   42.7764   -0.8715 C   0  0  0  0  0  0  0  0  0  0  0  0
   -8.3880   41.6992   -0.2893 C   0  0  0  0  0  0  0  0  0  0  0  0
   -8.6140   40.4625   -0.7522 F   0  0  0  0  0  0  0  0  0  0  0  0
   -7.4890   41.8870    0.7525 C   0  0  0  0  0  0  0  0  0  0  0  0
   -7.2558   43.1765    1.2320 C   0  0  0  0  0  0  0  0  0  0  0  0
   -7.9323   44.2744    0.6666 C   0  0  0  0  0  0  0  0  0  0  0  0
   -7.6450   45.6319    1.2023 C   0  0  0  0  0  0  0  0  0  0  0  0
   -7.1494   46.4894    0.4837 O   0  0  0  0  0  0  0  0  0  0  0  0
   -7.9488   45.8061    2.5340 N   0  0  0  0  0  0  0  0  0  0  0  0
   -8.4085   45.0843    3.0208 H   0  0  0  0  0  0  0  0  0  0  0  0
   -7.6066   47.0311    3.2377 C   0  0  0  0  0  0  0  0  0  0  0  0
   -8.7635   48.0388    3.2327 C   0  0  0  0  0  0  0  0  0  0  0  0
  -10.0714   47.6561    3.5783 C   0  0  0  0  0  0  0  0  0  0  0  0
  -11.1218   48.5792    3.5555 C   0  0  0  0  0  0  0  0  0  0  0  0
  -10.9040   49.8995    3.1651 C   0  0  0  0  0  0  0  0  0  0  0  0
   -9.6247   50.2836    2.7691 C   0  0  0  0  0  0  0  0  0  0  0  0
   -8.5699   49.3610    2.7909 C   0  0  0  0  0  0  0  0  0  0  0  0
  -12.0109   50.7022    3.2034 O   0  0  0  0  0  0  0  0  0  0  0  0
  -12.8937   50.5268    4.3031 C   0  0  0  0  0  0  0  0  0  0  0  0
   -7.1031   46.6512    4.6315 C   0  0  0  0  0  0  0  0  0  0  0  0
   -7.0950   47.5723    5.6940 C   0  0  0  0  0  0  0  0  0  0  0  0
   -6.6543   47.1952    6.9698 C   0  0  0  0  0  0  0  0  0  0  0  0
   -6.2222   45.8889    7.2058 C   0  0  0  0  0  0  0  0  0  0  0  0
   -6.2351   44.9672    6.1572 C   0  0  0  0  0  0  0  0  0  0  0  0
   -6.6761   45.3397    4.8845 C   0  0  0  0  0  0  0  0  0  0  0  0
   -5.7695   45.3897    8.3960 O   0  0  0  0  0  0  0  0  0  0  0  0
   -6.4924   45.7652    9.5616 C   0  0  0  0  0  0  0  0  0  0  0  0
   -9.5835   45.2353   -1.0466 C   0  0  0  0  0  0  0  0  0  0  0  0
  -11.0331   45.1211   -0.8631 N   0  0  0  0  0  0  0  0  0  0  0  0
  -11.7802   45.2786   -2.1107 C   0  0  0  0  0  0  0  0  0  0  0  0
  -13.7994   43.8366   -2.5048 C   0  0  0  0  0  0  0  0  0  0  0  0
  -12.4708   44.0058   -2.5115 C   0  0  0  0  0  0  0  0  0  0  0  0
  -11.5501   45.9129    0.2712 C   0  0  0  0  0  0  0  0  0  0  0  0
  -11.8859   47.3754    0.0028 C   0  0  0  0  0  0  0  0  0  0  0  0
  -10.8205   48.3058   -0.1399 C   0  0  0  0  0  0  0  0  0  0  0  0
  -11.0458   49.6550   -0.4246 C   0  0  0  0  0  0  0  0  0  0  0  0
  -12.3503   50.0741   -0.5401 C   0  0  0  0  0  0  0  0  0  0  0  0
  -13.4090   49.2101   -0.3764 C   0  0  0  0  0  0  0  0  0  0  0  0
  -13.2098   47.8616   -0.1025 C   0  0  0  0  0  0  0  0  0  0  0  0
  -14.6032   49.8612   -0.4826 O   0  0  0  0  0  0  0  0  0  0  0  0
  -14.1743   51.2091   -0.7496 C   0  0  0  0  0  0  0  0  0  0  0  0
  -12.7402   51.3509   -0.7919 O   0  0  0  0  0  0  0  0  0  0  0  0
  -14.3802   47.0083    0.1617 C   0  0  0  0  0  0  0  0  0  0  0  0
  -14.7984   46.6839    1.2576 O   0  0  0  0  0  0  0  0  0  0  0  0
  -14.9588   46.5784   -0.9753 O   0  0  0  0  0  0  0  0  0  0  0  0
  -14.6153   46.8444   -1.8055 H   0  0  0  0  0  0  0  0  0  0  0  0
 32 33  2  0
 33 31  1  0
 31 30  1  0
 30 29  1  0
 29  1  1  0
  1  2  2  0
  2  3  1  0
  3  4  1  0
  3  5  2  0
  5  6  1  0
  6  7  2  0
  7  8  1  0
  8  9  2  0
  8 10  1  0
 10 12  1  0
 12 13  1  0
 13 14  2  0
 14 15  1  0
 15 16  2  0
 16 19  1  0
 19 20  1  0
 16 17  1  0
 17 18  2  0
 12 21  1  0
 21 22  2  0
 22 23  1  0
 23 24  2  0
 24 27  1  0
 27 28  1  0
 24 25  1  0
 25 26  2  0
 30 34  1  0
 34 35  1  0
 35 36  2  0
 36 37  1  0
 37 38  2  0
 38 39  1  0
 39 40  2  0
 40 44  1  0
 44 45  2  0
 44 46  1  0
 39 41  1  0
 41 42  1  0
 42 43  1  0
  7  1  1  0
 18 13  1  0
 26 21  1  0
 40 35  1  0
 43 38  1  0
 10 11  1  0
 46 47  1  0
M  END
> <minimizedAffinity>
-7.15429

> <CNNscore>
0.6529105902

> <CNNaffinity>
6.8545174599

> <CNN_VS>
4.4753870964

> <CNNaffinity_variance>
0.2852011025

$$$$



 47 51  0  0  0  0  0  0  0  0999 V2000
   -8.5478   44.3296    1.0635 C   0  0  0  0  0  0  0  0  0  0  0  0
   -9.2792   43.4686    0.2255 C   0  0  0  0  0  0  0  0  0  0  0  0
   -8.8311   42.1732   -0.0191 C   0  0  0  0  0  0  0  0  0  0  0  0
   -9.5471   41.3720   -0.8192 F   0  0  0  0  0  0  0  0  0  0  0  0
   -7.6506   41.7035    0.5417 C   0  0  0  0  0  0  0  0  0  0  0  0
   -6.9071   42.5407    1.3745 C   0  0  0  0  0  0  0  0  0  0  0  0
   -7.3560   43.8472    1.6467 C   0  0  0  0  0  0  0  0  0  0  0  0
   -6.5264   44.7081    2.5316 C   0  0  0  0  0  0  0  0  0  0  0  0
   -7.0399   45.6170    3.1701 O   0  0  0  0  0  0  0  0  0  0  0  0
   -5.1816   44.4124    2.5333 N   0  0  0  0  0  0  0  0  0  0  0  0
   -4.8627   43.6206    2.0428 H   0  0  0  0  0  0  0  0  0  0  0  0
   -4.2218   45.2424    3.2424 C   0  0  0  0  0  0  0  0  0  0  0  0
   -3.8712   44.6658    4.6202 C   0  0  0  0  0  0  0  0  0  0  0  0
   -4.7785   43.8610    5.3313 C   0  0  0  0  0  0  0  0  0  0  0  0
   -4.4549   43.3531    6.5936 C   0  0  0  0  0  0  0  0  0  0  0  0
   -3.2318   43.6521    7.1917 C   0  0  0  0  0  0  0  0  0  0  0  0
   -2.3417   44.4907    6.5243 C   0  0  0  0  0  0  0  0  0  0  0  0
   -2.6629   45.0013    5.2593 C   0  0  0  0  0  0  0  0  0  0  0  0
   -3.0341   43.0789    8.4178 O   0  0  0  0  0  0  0  0  0  0  0  0
   -2.0238   42.0833    8.5058 C   0  0  0  0  0  0  0  0  0  0  0  0
   -3.0189   45.4649    2.3238 C   0  0  0  0  0  0  0  0  0  0  0  0
   -2.1755   44.4084    1.9367 C   0  0  0  0  0  0  0  0  0  0  0  0
   -1.0946   44.6302    1.0727 C   0  0  0  0  0  0  0  0  0  0  0  0
   -0.8444   45.9103    0.5753 C   0  0  0  0  0  0  0  0  0  0  0  0
   -1.6826   46.9623    0.9493 C   0  0  0  0  0  0  0  0  0  0  0  0
   -2.7625   46.7439    1.8090 C   0  0  0  0  0  0  0  0  0  0  0  0
    0.1699   46.2648   -0.2711 O   0  0  0  0  0  0  0  0  0  0  0  0
   -0.0569   46.0595   -1.6599 C   0  0  0  0  0  0  0  0  0  0  0  0
   -9.0703   45.7292    1.3238 C   0  0  0  0  0  0  0  0  0  0  0  0
   -9.7520   46.2905    0.1541 N   0  0  0  0  0  0  0  0  0  0  0  0
   -9.0035   47.3785   -0.4749 C   0  0  0  0  0  0  0  0  0  0  0  0
   -6.5573   47.8907   -0.7311 C   0  0  0  0  0  0  0  0  0  0  0  0
   -7.5646   47.0085   -0.6992 C   0  0  0  0  0  0  0  0  0  0  0  0
  -11.1826   46.5763    0.3835 C   0  0  0  0  0  0  0  0  0  0  0  0
  -12.1756   46.0085   -0.6239 C   0  0  0  0  0  0  0  0  0  0  0  0
  -11.6882   45.5432   -1.8758 C   0  0  0  0  0  0  0  0  0  0  0  0
  -12.5294   44.9748   -2.8356 C   0  0  0  0  0  0  0  0  0  0  0  0
  -13.8711   44.8986   -2.5442 C   0  0  0  0  0  0  0  0  0  0  0  0
  -14.3853   45.3680   -1.3570 C   0  0  0  0  0  0  0  0  0  0  0  0
  -13.5669   45.9284   -0.3826 C   0  0  0  0  0  0  0  0  0  0  0  0
  -15.7424   45.2352   -1.3158 O   0  0  0  0  0  0  0  0  0  0  0  0
  -16.0107   44.6171   -2.5879 C   0  0  0  0  0  0  0  0  0  0  0  0
  -14.8223   44.3960   -3.3737 O   0  0  0  0  0  0  0  0  0  0  0  0
  -14.1865   46.5038    0.8227 C   0  0  0  0  0  0  0  0  0  0  0  0
  -14.1652   47.6758    1.1501 O   0  0  0  0  0  0  0  0  0  0  0  0
  -14.7864   45.5656    1.5792 O   0  0  0  0  0  0  0  0  0  0  0  0
  -14.7873   44.6705    1.3022 H   0  0  0  0  0  0  0  0  0  0  0  0
 32 33  2  0
 33 31  1  0
 31 30  1  0
 30 29  1  0
 29  1  1  0
  1  2  2  0
  2  3  1  0
  3  4  1  0
  3  5  2  0
  5  6  1  0
  6  7  2  0
  7  8  1  0
  8  9  2  0
  8 10  1  0
 10 12  1  0
 12 13  1  0
 13 14  2  0
 14 15  1  0
 15 16  2  0
 16 19  1  0
 19 20  1  0
 16 17  1  0
 17 18  2  0
 12 21  1  0
 21 22  2  0
 22 23  1  0
 23 24  2  0
 24 27  1  0
 27 28  1  0
 24 25  1  0
 25 26  2  0
 30 34  1  0
 34 35  1  0
 35 36  2  0
 36 37  1  0
 37 38  2  0
 38 39  1  0
 39 40  2  0
 40 44  1  0
 44 45  2  0
 44 46  1  0
 39 41  1  0
 41 42  1  0
 42 43  1  0
  7  1  1  0
 18 13  1  0
 26 21  1  0
 40 35  1  0
 43 38  1  0
 10 11  1  0
 46 47  1  0
M  END
> <minimizedAffinity>
-8.82381

> <CNNscore>
0.6412399411

> <CNNaffinity>
6.2735004425

> <CNN_VS>
4.0228190422

> <CNNaffinity_variance>
0.6725966334

$$$$



 47 51  0  0  0  0  0  0  0  0999 V2000
   -7.8569   44.6683    0.7537 C   0  0  0  0  0  0  0  0  0  0  0  0
   -7.7405   43.3292    0.3395 C   0  0  0  0  0  0  0  0  0  0  0  0
   -6.8490   42.4689    0.9753 C   0  0  0  0  0  0  0  0  0  0  0  0
   -6.7585   41.1973    0.5634 F   0  0  0  0  0  0  0  0  0  0  0  0
   -6.0455   42.9098    2.0187 C   0  0  0  0  0  0  0  0  0  0  0  0
   -6.1422   44.2350    2.4451 C   0  0  0  0  0  0  0  0  0  0  0  0
   -7.0519   45.1128    1.8249 C   0  0  0  0  0  0  0  0  0  0  0  0
   -7.1140   46.5191    2.3052 C   0  0  0  0  0  0  0  0  0  0  0  0
   -6.4650   47.3936    1.7470 O   0  0  0  0  0  0  0  0  0  0  0  0
   -7.9123   46.7204    3.4089 N   0  0  0  0  0  0  0  0  0  0  0  0
   -8.4532   45.9736    3.7538 H   0  0  0  0  0  0  0  0  0  0  0  0
   -7.9749   48.0100    4.0767 C   0  0  0  0  0  0  0  0  0  0  0  0
   -9.2659   48.7682    3.7418 C   0  0  0  0  0  0  0  0  0  0  0  0
  -10.5297   48.1762    3.9121 C   0  0  0  0  0  0  0  0  0  0  0  0
  -11.6999   48.8707    3.5891 C   0  0  0  0  0  0  0  0  0  0  0  0
  -11.6431   50.1614    3.0658 C   0  0  0  0  0  0  0  0  0  0  0  0
  -10.3977   50.7442    2.8415 C   0  0  0  0  0  0  0  0  0  0  0  0
   -9.2231   50.0509    3.1641 C   0  0  0  0  0  0  0  0  0  0  0  0
  -12.8587   50.7336    2.8093 O   0  0  0  0  0  0  0  0  0  0  0  0
  -13.3998   51.5726    3.8208 C   0  0  0  0  0  0  0  0  0  0  0  0
   -7.7443   47.7805    5.5715 C   0  0  0  0  0  0  0  0  0  0  0  0
   -7.1940   46.5830    6.0620 C   0  0  0  0  0  0  0  0  0  0  0  0
   -6.9665   46.4044    7.4333 C   0  0  0  0  0  0  0  0  0  0  0  0
   -7.2779   47.4232    8.3354 C   0  0  0  0  0  0  0  0  0  0  0  0
   -7.8172   48.6177    7.8542 C   0  0  0  0  0  0  0  0  0  0  0  0
   -8.0432   48.7996    6.4872 C   0  0  0  0  0  0  0  0  0  0  0  0
   -7.1077   47.3819    9.6919 O   0  0  0  0  0  0  0  0  0  0  0  0
   -5.8431   46.9331   10.1627 C   0  0  0  0  0  0  0  0  0  0  0  0
   -8.8486   45.5763    0.0524 C   0  0  0  0  0  0  0  0  0  0  0  0
  -10.1787   45.5190    0.6652 N   0  0  0  0  0  0  0  0  0  0  0  0
  -10.7225   44.1623    0.7223 C   0  0  0  0  0  0  0  0  0  0  0  0
  -11.1834   42.4659   -1.0726 C   0  0  0  0  0  0  0  0  0  0  0  0
  -10.3738   43.3697   -0.5057 C   0  0  0  0  0  0  0  0  0  0  0  0
  -11.1134   46.5382    0.1471 C   0  0  0  0  0  0  0  0  0  0  0  0
  -12.2219   46.0572   -0.7820 C   0  0  0  0  0  0  0  0  0  0  0  0
  -11.8889   45.7082   -2.1194 C   0  0  0  0  0  0  0  0  0  0  0  0
  -12.8412   45.2231   -3.0194 C   0  0  0  0  0  0  0  0  0  0  0  0
  -14.1391   45.1139   -2.5789 C   0  0  0  0  0  0  0  0  0  0  0  0
  -14.5063   45.4726   -1.3019 C   0  0  0  0  0  0  0  0  0  0  0  0
  -13.5751   45.9484   -0.3854 C   0  0  0  0  0  0  0  0  0  0  0  0
  -15.8496   45.3293   -1.1119 O   0  0  0  0  0  0  0  0  0  0  0  0
  -16.2702   44.8257   -2.3932 C   0  0  0  0  0  0  0  0  0  0  0  0
  -15.1847   44.6821   -3.3311 O   0  0  0  0  0  0  0  0  0  0  0  0
  -14.0442   46.4106    0.9314 C   0  0  0  0  0  0  0  0  0  0  0  0
  -13.8378   47.5047    1.4227 O   0  0  0  0  0  0  0  0  0  0  0  0
  -14.7348   45.4572    1.5848 O   0  0  0  0  0  0  0  0  0  0  0  0
  -14.8786   44.6236    1.1819 H   0  0  0  0  0  0  0  0  0  0  0  0
 32 33  2  0
 33 31  1  0
 31 30  1  0
 30 29  1  0
 29  1  1  0
  1  2  2  0
  2  3  1  0
  3  4  1  0
  3  5  2  0
  5  6  1  0
  6  7  2  0
  7  8  1  0
  8  9  2  0
  8 10  1  0
 10 12  1  0
 12 13  1  0
 13 14  2  0
 14 15  1  0
 15 16  2  0
 16 19  1  0
 19 20  1  0
 16 17  1  0
 17 18  2  0
 12 21  1  0
 21 22  2  0
 22 23  1  0
 23 24  2  0
 24 27  1  0
 27 28  1  0
 24 25  1  0
 25 26  2  0
 30 34  1  0
 34 35  1  0
 35 36  2  0
 36 37  1  0
 37 38  2  0
 38 39  1  0
 39 40  2  0
 40 44  1  0
 44 45  2  0
 44 46  1  0
 39 41  1  0
 41 42  1  0
 42 43  1  0
  7  1  1  0
 18 13  1  0
 26 21  1  0
 40 35  1  0
 43 38  1  0
 10 11  1  0
 46 47  1  0
M  END
> <minimizedAffinity>
-7.59154

> <CNNscore>
0.6204767227

> <CNNaffinity>
6.6646385193

> <CNN_VS>
4.1352529526

> <CNNaffinity_variance>
0.3512873650

$$$$



 47 51  0  0  0  0  0  0  0  0999 V2000
   -8.7619   43.9699    1.1647 C   0  0  0  0  0  0  0  0  0  0  0  0
   -9.6243   43.1290    0.4384 C   0  0  0  0  0  0  0  0  0  0  0  0
   -9.2088   41.8580    0.0501 C   0  0  0  0  0  0  0  0  0  0  0  0
  -10.0499   41.0754   -0.6391 F   0  0  0  0  0  0  0  0  0  0  0  0
   -7.9355   41.3942    0.3543 C   0  0  0  0  0  0  0  0  0  0  0  0
   -7.0619   42.2120    1.0721 C   0  0  0  0  0  0  0  0  0  0  0  0
   -7.4732   43.4928    1.4882 C   0  0  0  0  0  0  0  0  0  0  0  0
   -6.5055   44.3341    2.2420 C   0  0  0  0  0  0  0  0  0  0  0  0
   -5.3352   43.9917    2.3442 O   0  0  0  0  0  0  0  0  0  0  0  0
   -7.0429   45.4659    2.8131 N   0  0  0  0  0  0  0  0  0  0  0  0
   -7.9799   45.7016    2.6238 H   0  0  0  0  0  0  0  0  0  0  0  0
   -6.2588   46.3209    3.6890 C   0  0  0  0  0  0  0  0  0  0  0  0
   -5.3534   45.5090    4.6242 C   0  0  0  0  0  0  0  0  0  0  0  0
   -5.8880   44.6838    5.6292 C   0  0  0  0  0  0  0  0  0  0  0  0
   -5.0533   43.9599    6.4865 C   0  0  0  0  0  0  0  0  0  0  0  0
   -3.6666   44.0564    6.3831 C   0  0  0  0  0  0  0  0  0  0  0  0
   -3.1192   44.9094    5.4272 C   0  0  0  0  0  0  0  0  0  0  0  0
   -3.9529   45.6363    4.5665 C   0  0  0  0  0  0  0  0  0  0  0  0
   -2.9671   43.2845    7.2696 O   0  0  0  0  0  0  0  0  0  0  0  0
   -2.0400   43.9548    8.1127 C   0  0  0  0  0  0  0  0  0  0  0  0
   -5.5204   47.3396    2.8188 C   0  0  0  0  0  0  0  0  0  0  0  0
   -4.7656   46.9495    1.6983 C   0  0  0  0  0  0  0  0  0  0  0  0
   -4.1189   47.9020    0.8993 C   0  0  0  0  0  0  0  0  0  0  0  0
   -4.2231   49.2606    1.2029 C   0  0  0  0  0  0  0  0  0  0  0  0
   -4.9775   49.6554    2.3094 C   0  0  0  0  0  0  0  0  0  0  0  0
   -5.6252   48.7080    3.1068 C   0  0  0  0  0  0  0  0  0  0  0  0
   -3.6466   50.2901    0.5112 O   0  0  0  0  0  0  0  0  0  0  0  0
   -3.3641   50.0563   -0.8628 C   0  0  0  0  0  0  0  0  0  0  0  0
   -9.2492   45.3424    1.5875 C   0  0  0  0  0  0  0  0  0  0  0  0
   -9.9695   46.0283    0.5111 N   0  0  0  0  0  0  0  0  0  0  0  0
   -9.3495   47.2963    0.1275 C   0  0  0  0  0  0  0  0  0  0  0  0
   -7.2046   48.0836   -0.9174 C   0  0  0  0  0  0  0  0  0  0  0  0
   -7.9851   47.0923   -0.4680 C   0  0  0  0  0  0  0  0  0  0  0  0
  -11.4294   46.0935    0.7239 C   0  0  0  0  0  0  0  0  0  0  0  0
  -12.3213   45.7719   -0.4697 C   0  0  0  0  0  0  0  0  0  0  0  0
  -11.7150   45.3183   -1.6729 C   0  0  0  0  0  0  0  0  0  0  0  0
  -12.4669   44.9672   -2.7970 C   0  0  0  0  0  0  0  0  0  0  0  0
  -13.8333   45.0984   -2.7178 C   0  0  0  0  0  0  0  0  0  0  0  0
  -14.4545   45.5650   -1.5817 C   0  0  0  0  0  0  0  0  0  0  0  0
  -13.7286   45.9111   -0.4476 C   0  0  0  0  0  0  0  0  0  0  0  0
  -15.8042   45.6604   -1.7564 O   0  0  0  0  0  0  0  0  0  0  0  0
  -15.9547   45.1854   -3.1070 C   0  0  0  0  0  0  0  0  0  0  0  0
  -14.7033   44.8216   -3.7238 O   0  0  0  0  0  0  0  0  0  0  0  0
  -14.4389   46.4985    0.7006 C   0  0  0  0  0  0  0  0  0  0  0  0
  -14.6640   47.6817    0.8756 O   0  0  0  0  0  0  0  0  0  0  0  0
  -14.8127   45.5643    1.5950 O   0  0  0  0  0  0  0  0  0  0  0  0
  -14.6261   44.6603    1.4340 H   0  0  0  0  0  0  0  0  0  0  0  0
 32 33  2  0
 33 31  1  0
 31 30  1  0
 30 29  1  0
 29  1  1  0
  1  2  2  0
  2  3  1  0
  3  4  1  0
  3  5  2  0
  5  6  1  0
  6  7  2  0
  7  8  1  0
  8  9  2  0
  8 10  1  0
 10 12  1  0
 12 13  1  0
 13 14  2  0
 14 15  1  0
 15 16  2  0
 16 19  1  0
 19 20  1  0
 16 17  1  0
 17 18  2  0
 12 21  1  0
 21 22  2  0
 22 23  1  0
 23 24  2  0
 24 27  1  0
 27 28  1  0
 24 25  1  0
 25 26  2  0
 30 34  1  0
 34 35  1  0
 35 36  2  0
 36 37  1  0
 37 38  2  0
 38 39  1  0
 39 40  2  0
 40 44  1  0
 44 45  2  0
 44 46  1  0
 39 41  1  0
 41 42  1  0
 42 43  1  0
  7  1  1  0
 18 13  1  0
 26 21  1  0
 40 35  1  0
 43 38  1  0
 10 11  1  0
 46 47  1  0
M  END
> <minimizedAffinity>
-8.07906

> <CNNscore>
0.6200516224

> <CNNaffinity>
6.5786395073

> <CNN_VS>
4.0790963173

> <CNNaffinity_variance>
0.6284794807

$$$$



 47 51  0  0  0  0  0  0  0  0999 V2000
   -8.1154   44.1665   -0.4253 C   0  0  0  0  0  0  0  0  0  0  0  0
   -8.6878   43.1790   -1.2472 C   0  0  0  0  0  0  0  0  0  0  0  0
   -8.8237   41.8712   -0.7889 C   0  0  0  0  0  0  0  0  0  0  0  0
   -9.3743   40.9496   -1.5903 F   0  0  0  0  0  0  0  0  0  0  0  0
   -8.3877   41.5049    0.4778 C   0  0  0  0  0  0  0  0  0  0  0  0
   -7.8145   42.4673    1.3100 C   0  0  0  0  0  0  0  0  0  0  0  0
   -7.6867   43.7982    0.8685 C   0  0  0  0  0  0  0  0  0  0  0  0
   -7.0604   44.7883    1.7849 C   0  0  0  0  0  0  0  0  0  0  0  0
   -5.9576   44.5728    2.2696 O   0  0  0  0  0  0  0  0  0  0  0  0
   -7.8259   45.9029    2.0453 N   0  0  0  0  0  0  0  0  0  0  0  0
   -8.6728   46.0287    1.5594 H   0  0  0  0  0  0  0  0  0  0  0  0
   -7.4124   46.8980    3.0209 C   0  0  0  0  0  0  0  0  0  0  0  0
   -6.4750   47.9472    2.4092 C   0  0  0  0  0  0  0  0  0  0  0  0
   -5.0787   47.8505    2.5425 C   0  0  0  0  0  0  0  0  0  0  0  0
   -4.2339   48.8208    1.9942 C   0  0  0  0  0  0  0  0  0  0  0  0
   -4.7557   49.9243    1.3210 C   0  0  0  0  0  0  0  0  0  0  0  0
   -6.1385   50.0636    1.2245 C   0  0  0  0  0  0  0  0  0  0  0  0
   -6.9879   49.0930    1.7728 C   0  0  0  0  0  0  0  0  0  0  0  0
   -3.8216   50.7882    0.8191 O   0  0  0  0  0  0  0  0  0  0  0  0
   -3.0804   51.5512    1.7616 C   0  0  0  0  0  0  0  0  0  0  0  0
   -8.6713   47.4749    3.6709 C   0  0  0  0  0  0  0  0  0  0  0  0
   -8.6636   47.9805    4.9830 C   0  0  0  0  0  0  0  0  0  0  0  0
   -9.8222   48.5290    5.5495 C   0  0  0  0  0  0  0  0  0  0  0  0
  -11.0050   48.5883    4.8104 C   0  0  0  0  0  0  0  0  0  0  0  0
  -11.0175   48.0952    3.5043 C   0  0  0  0  0  0  0  0  0  0  0  0
   -9.8632   47.5496    2.9359 C   0  0  0  0  0  0  0  0  0  0  0  0
  -12.2012   49.0951    5.2383 O   0  0  0  0  0  0  0  0  0  0  0  0
  -12.5226   50.4145    4.8162 C   0  0  0  0  0  0  0  0  0  0  0  0
   -7.9960   45.5855   -0.9467 C   0  0  0  0  0  0  0  0  0  0  0  0
   -9.2884   46.2764   -0.9678 N   0  0  0  0  0  0  0  0  0  0  0  0
   -9.1756   47.7064   -0.6816 C   0  0  0  0  0  0  0  0  0  0  0  0
  -10.2708   49.8255   -1.4702 C   0  0  0  0  0  0  0  0  0  0  0  0
   -9.9682   48.5338   -1.6537 C   0  0  0  0  0  0  0  0  0  0  0  0
  -10.3461   45.5762   -0.2116 C   0  0  0  0  0  0  0  0  0  0  0  0
  -11.6299   45.2389   -0.9611 C   0  0  0  0  0  0  0  0  0  0  0  0
  -11.5603   44.3532   -2.0709 C   0  0  0  0  0  0  0  0  0  0  0  0
  -12.6974   43.9660   -2.7845 C   0  0  0  0  0  0  0  0  0  0  0  0
  -13.9060   44.4935   -2.3954 C   0  0  0  0  0  0  0  0  0  0  0  0
  -14.0093   45.3791   -1.3470 C   0  0  0  0  0  0  0  0  0  0  0  0
  -12.8937   45.7715   -0.6157 C   0  0  0  0  0  0  0  0  0  0  0  0
  -15.2942   45.8067   -1.1819 O   0  0  0  0  0  0  0  0  0  0  0  0
  -15.9762   45.0791   -2.2201 C   0  0  0  0  0  0  0  0  0  0  0  0
  -15.0983   44.2373   -2.9942 O   0  0  0  0  0  0  0  0  0  0  0  0
  -13.0518   46.7974    0.4285 C   0  0  0  0  0  0  0  0  0  0  0  0
  -12.6830   47.9551    0.3581 O   0  0  0  0  0  0  0  0  0  0  0  0
  -13.6480   46.3075    1.5317 O   0  0  0  0  0  0  0  0  0  0  0  0
  -13.9217   45.4118    1.5578 H   0  0  0  0  0  0  0  0  0  0  0  0
 32 33  2  0
 33 31  1  0
 31 30  1  0
 30 29  1  0
 29  1  1  0
  1  2  2  0
  2  3  1  0
  3  4  1  0
  3  5  2  0
  5  6  1  0
  6  7  2  0
  7  8  1  0
  8  9  2  0
  8 10  1  0
 10 12  1  0
 12 13  1  0
 13 14  2  0
 14 15  1  0
 15 16  2  0
 16 19  1  0
 19 20  1  0
 16 17  1  0
 17 18  2  0
 12 21  1  0
 21 22  2  0
 22 23  1  0
 23 24  2  0
 24 27  1  0
 27 28  1  0
 24 25  1  0
 25 26  2  0
 30 34  1  0
 34 35  1  0
 35 36  2  0
 36 37  1  0
 37 38  2  0
 38 39  1  0
 39 40  2  0
 40 44  1  0
 44 45  2  0
 44 46  1  0
 39 41  1  0
 41 42  1  0
 42 43  1  0
  7  1  1  0
 18 13  1  0
 26 21  1  0
 40 35  1  0
 43 38  1  0
 10 11  1  0
 46 47  1  0
M  END
> <minimizedAffinity>
-7.34476

> <CNNscore>
0.6171426773

> <CNNaffinity>
6.3045134544

> <CNN_VS>
3.8907842636

> <CNNaffinity_variance>
0.8559021354

$$$$
