


 20 20  0  0  0  0  0  0  0  0999 V2000
   20.6340   61.7894   28.7561 N   0  0  0  0  0  0  0  0  0  0  0  0
   21.4650   61.8411   29.8565 C   0  0  0  0  0  0  0  0  0  0  0  0
   20.9315   62.0611   31.0787 F   0  0  0  0  0  0  0  0  0  0  0  0
   22.7837   61.6846   29.7540 C   0  0  0  0  0  0  0  0  0  0  0  0
   23.6110   61.7325   30.8144 F   0  0  0  0  0  0  0  0  0  0  0  0
   23.3809   61.4524   28.4307 C   0  0  0  0  0  0  0  0  0  0  0  0
   24.5857   61.3042   28.2646 O   0  0  0  0  0  0  0  0  0  0  0  0
   22.4912   61.4155   27.3908 N   0  0  0  0  0  0  0  0  0  0  0  0
   21.1349   61.5933   27.4784 C   0  0  0  0  0  0  0  0  0  0  0  0
   20.4421   61.5762   26.4651 O   0  0  0  0  0  0  0  0  0  0  0  0
   22.8609   61.2449   26.4944 H   0  0  0  0  0  0  0  0  0  0  0  0
   19.1955   62.0089   28.9457 C   0  0  0  0  0  0  0  0  0  0  0  0
   18.8246   64.4399   29.4521 N   0  0  0  0  0  0  0  0  0  0  0  0
   18.7076   63.3754   28.4246 C   0  0  0  0  0  0  0  0  0  0  0  0
   19.7983   64.5256   29.7435 H   0  0  0  0  0  0  0  0  0  0  0  0
   18.2483   64.1990   30.2584 H   0  0  0  0  0  0  0  0  0  0  0  0
   17.2439   63.2591   27.9982 C   0  0  0  0  0  0  0  0  0  0  0  0
   16.8135   62.6039   27.0605 O   0  0  0  0  0  0  0  0  0  0  0  0
   16.4105   63.9964   28.7609 O   0  0  0  0  0  0  0  0  0  0  0  0
   16.7497   64.4955   29.4777 H   0  0  0  0  0  0  0  0  0  0  0  0
 14 13  1  0
 14 12  1  0
 12  1  1  0
  1  2  1  0
  2  3  1  0
  2  4  2  0
  4  5  1  0
  4  6  1  0
  6  7  2  0
  6  8  1  0
  8  9  1  0
  9 10  2  0
 14 17  1  0
 17 18  2  0
 17 19  1  0
  9  1  1  0
 13 15  1  0
 13 16  1  0
  8 11  1  0
 19 20  1  0
M  END
> <minimizedAffinity>
-9.07171

> <CNNscore>
0.9931305051

> <CNNaffinity>
6.5339045525

> <CNN_VS>
6.4890198708

> <CNNaffinity_variance>
0.0649939626

$$$$



 20 20  0  0  0  0  0  0  0  0999 V2000
   20.7829   61.7837   28.8495 N   0  0  0  0  0  0  0  0  0  0  0  0
   21.5413   61.2482   27.8285 C   0  0  0  0  0  0  0  0  0  0  0  0
   20.9261   60.8078   26.7085 F   0  0  0  0  0  0  0  0  0  0  0  0
   22.8666   61.1463   27.9115 C   0  0  0  0  0  0  0  0  0  0  0  0
   23.6237   60.6265   26.9277 F   0  0  0  0  0  0  0  0  0  0  0  0
   23.5504   61.6132   29.1264 C   0  0  0  0  0  0  0  0  0  0  0  0
   24.7653   61.5455   29.2701 O   0  0  0  0  0  0  0  0  0  0  0  0
   22.7294   62.1300   30.0923 N   0  0  0  0  0  0  0  0  0  0  0  0
   21.3634   62.2242   30.0289 C   0  0  0  0  0  0  0  0  0  0  0  0
   20.7295   62.6735   30.9794 O   0  0  0  0  0  0  0  0  0  0  0  0
   23.1613   62.4662   30.9107 H   0  0  0  0  0  0  0  0  0  0  0  0
   19.3240   61.8272   28.6985 C   0  0  0  0  0  0  0  0  0  0  0  0
   18.9511   64.1971   29.4392 N   0  0  0  0  0  0  0  0  0  0  0  0
   18.7848   63.2241   28.3310 C   0  0  0  0  0  0  0  0  0  0  0  0
   19.9400   64.2762   29.6766 H   0  0  0  0  0  0  0  0  0  0  0  0
   18.4303   63.8755   30.2551 H   0  0  0  0  0  0  0  0  0  0  0  0
   17.2989   63.1166   27.9869 C   0  0  0  0  0  0  0  0  0  0  0  0
   16.7824   62.2760   27.2654 O   0  0  0  0  0  0  0  0  0  0  0  0
   16.5538   64.0903   28.5495 O   0  0  0  0  0  0  0  0  0  0  0  0
   16.9586   64.7304   29.1012 H   0  0  0  0  0  0  0  0  0  0  0  0
 14 13  1  0
 14 12  1  0
 12  1  1  0
  1  2  1  0
  2  3  1  0
  2  4  2  0
  4  5  1  0
  4  6  1  0
  6  7  2  0
  6  8  1  0
  8  9  1  0
  9 10  2  0
 14 17  1  0
 17 18  2  0
 17 19  1  0
  9  1  1  0
 13 15  1  0
 13 16  1  0
  8 11  1  0
 19 20  1  0
M  END
> <minimizedAffinity>
-8.46005

> <CNNscore>
0.9275075793

> <CNNaffinity>
6.2096304893

> <CNN_VS>
5.7594795227

> <CNNaffinity_variance>
0.1260469556

$$$$



 20 20  0  0  0  0  0  0  0  0999 V2000
   15.9330   64.6471   18.6306 N   0  0  0  0  0  0  0  0  0  0  0  0
   17.0246   65.1261   17.9355 C   0  0  0  0  0  0  0  0  0  0  0  0
   17.0167   65.0894   16.5844 F   0  0  0  0  0  0  0  0  0  0  0  0
   18.0940   65.6228   18.5548 C   0  0  0  0  0  0  0  0  0  0  0  0
   19.1685   66.0938   17.8953 F   0  0  0  0  0  0  0  0  0  0  0  0
   18.1219   65.6625   20.0241 C   0  0  0  0  0  0  0  0  0  0  0  0
   19.0746   66.1022   20.6568 O   0  0  0  0  0  0  0  0  0  0  0  0
   17.0030   65.1688   20.6395 N   0  0  0  0  0  0  0  0  0  0  0  0
   15.9036   64.6378   20.0166 C   0  0  0  0  0  0  0  0  0  0  0  0
   14.9731   64.1894   20.6800 O   0  0  0  0  0  0  0  0  0  0  0  0
   16.9865   65.1980   21.6234 H   0  0  0  0  0  0  0  0  0  0  0  0
   14.8083   64.0807   17.8772 C   0  0  0  0  0  0  0  0  0  0  0  0
   14.2845   65.6338   15.9753 N   0  0  0  0  0  0  0  0  0  0  0  0
   13.8501   65.1461   17.3079 C   0  0  0  0  0  0  0  0  0  0  0  0
   14.3312   64.8496   15.3248 H   0  0  0  0  0  0  0  0  0  0  0  0
   15.2055   66.0650   16.0546 H   0  0  0  0  0  0  0  0  0  0  0  0
   13.7851   66.3319   18.2709 C   0  0  0  0  0  0  0  0  0  0  0  0
   14.4225   67.3709   18.1831 O   0  0  0  0  0  0  0  0  0  0  0  0
   12.9413   66.1289   19.3037 O   0  0  0  0  0  0  0  0  0  0  0  0
   12.4568   65.3291   19.3626 H   0  0  0  0  0  0  0  0  0  0  0  0
 14 13  1  0
 14 12  1  0
 12  1  1  0
  1  2  1  0
  2  3  1  0
  2  4  2  0
  4  5  1  0
  4  6  1  0
  6  7  2  0
  6  8  1  0
  8  9  1  0
  9 10  2  0
 14 17  1  0
 17 18  2  0
 17 19  1  0
  9  1  1  0
 13 15  1  0
 13 16  1  0
  8 11  1  0
 19 20  1  0
M  END
> <minimizedAffinity>
-5.09473

> <CNNscore>
0.8391472101

> <CNNaffinity>
3.8772675991

> <CNN_VS>
3.2535982132

> <CNNaffinity_variance>
0.2189961225

$$$$



 20 20  0  0  0  0  0  0  0  0999 V2000
   12.1207   60.2519   20.3037 N   0  0  0  0  0  0  0  0  0  0  0  0
   12.8771   61.1895   19.6307 C   0  0  0  0  0  0  0  0  0  0  0  0
   13.7954   61.9109   20.3112 F   0  0  0  0  0  0  0  0  0  0  0  0
   12.7293   61.4119   18.3258 C   0  0  0  0  0  0  0  0  0  0  0  0
   13.4562   62.3220   17.6516 F   0  0  0  0  0  0  0  0  0  0  0  0
   11.7292   60.6414   17.5724 C   0  0  0  0  0  0  0  0  0  0  0  0
   11.5389   60.7981   16.3723 O   0  0  0  0  0  0  0  0  0  0  0  0
   11.0198   59.7326   18.3109 N   0  0  0  0  0  0  0  0  0  0  0  0
   11.1477   59.5059   19.6566 C   0  0  0  0  0  0  0  0  0  0  0  0
   10.4248   58.6874   20.2175 O   0  0  0  0  0  0  0  0  0  0  0  0
   10.3543   59.1900   17.8293 H   0  0  0  0  0  0  0  0  0  0  0  0
   12.3161   60.0915   21.7492 C   0  0  0  0  0  0  0  0  0  0  0  0
   14.2741   60.2753   23.3101 N   0  0  0  0  0  0  0  0  0  0  0  0
   13.4281   60.9919   22.3235 C   0  0  0  0  0  0  0  0  0  0  0  0
   14.7026   59.4638   22.8648 H   0  0  0  0  0  0  0  0  0  0  0  0
   13.6972   59.9683   24.0932 H   0  0  0  0  0  0  0  0  0  0  0  0
   12.7934   62.2044   23.0052 C   0  0  0  0  0  0  0  0  0  0  0  0
   13.2645   63.3307   23.0631 O   0  0  0  0  0  0  0  0  0  0  0  0
   11.6151   61.9214   23.5980 O   0  0  0  0  0  0  0  0  0  0  0  0
   11.2618   61.0550   23.5482 H   0  0  0  0  0  0  0  0  0  0  0  0
 14 13  1  0
 14 12  1  0
 12  1  1  0
  1  2  1  0
  2  3  1  0
  2  4  2  0
  4  5  1  0
  4  6  1  0
  6  7  2  0
  6  8  1  0
  8  9  1  0
  9 10  2  0
 14 17  1  0
 17 18  2  0
 17 19  1  0
  9  1  1  0
 13 15  1  0
 13 16  1  0
  8 11  1  0
 19 20  1  0
M  END
> <minimizedAffinity>
-6.19353

> <CNNscore>
0.6443746090

> <CNNaffinity>
3.9165484905

> <CNN_VS>
2.5237243176

> <CNNaffinity_variance>
0.2433805019

$$$$



 20 20  0  0  0  0  0  0  0  0999 V2000
   15.8913   65.1095   19.2982 N   0  0  0  0  0  0  0  0  0  0  0  0
   16.6390   65.9631   18.5130 C   0  0  0  0  0  0  0  0  0  0  0  0
   16.1231   66.4123   17.3473 F   0  0  0  0  0  0  0  0  0  0  0  0
   17.8611   66.3585   18.8652 C   0  0  0  0  0  0  0  0  0  0  0  0
   18.6065   67.1894   18.1132 F   0  0  0  0  0  0  0  0  0  0  0  0
   18.4401   65.8727   20.1262 C   0  0  0  0  0  0  0  0  0  0  0  0
   19.5593   66.1934   20.5080 O   0  0  0  0  0  0  0  0  0  0  0  0
   17.6371   65.0302   20.8470 N   0  0  0  0  0  0  0  0  0  0  0  0
   16.3860   64.5999   20.4888 C   0  0  0  0  0  0  0  0  0  0  0  0
   15.7754   63.8099   21.2031 O   0  0  0  0  0  0  0  0  0  0  0  0
   17.9922   64.7020   21.7046 H   0  0  0  0  0  0  0  0  0  0  0  0
   14.5677   64.6896   18.8236 C   0  0  0  0  0  0  0  0  0  0  0  0
   13.9644   64.0415   16.4741 N   0  0  0  0  0  0  0  0  0  0  0  0
   14.6220   63.6036   17.7304 C   0  0  0  0  0  0  0  0  0  0  0  0
   14.4224   64.8839   16.1264 H   0  0  0  0  0  0  0  0  0  0  0  0
   12.9807   64.2399   16.6565 H   0  0  0  0  0  0  0  0  0  0  0  0
   13.9252   62.3412   18.2388 C   0  0  0  0  0  0  0  0  0  0  0  0
   13.5680   62.1248   19.3874 O   0  0  0  0  0  0  0  0  0  0  0  0
   13.7433   61.4134   17.2765 O   0  0  0  0  0  0  0  0  0  0  0  0
   14.0204   61.5883   16.3987 H   0  0  0  0  0  0  0  0  0  0  0  0
 14 13  1  0
 14 12  1  0
 12  1  1  0
  1  2  1  0
  2  3  1  0
  2  4  2  0
  4  5  1  0
  4  6  1  0
  6  7  2  0
  6  8  1  0
  8  9  1  0
  9 10  2  0
 14 17  1  0
 17 18  2  0
 17 19  1  0
  9  1  1  0
 13 15  1  0
 13 16  1  0
  8 11  1  0
 19 20  1  0
M  END
> <minimizedAffinity>
-5.64368

> <CNNscore>
0.6167137027

> <CNNaffinity>
4.2032279968

> <CNN_VS>
2.5921883583

> <CNNaffinity_variance>
0.0640133098

$$$$



 20 20  0  0  0  0  0  0  0  0999 V2000
   16.1894   65.4142   18.0989 N   0  0  0  0  0  0  0  0  0  0  0  0
   15.9368   64.7803   19.2983 C   0  0  0  0  0  0  0  0  0  0  0  0
   14.8248   64.0224   19.4247 F   0  0  0  0  0  0  0  0  0  0  0  0
   16.7545   64.8940   20.3434 C   0  0  0  0  0  0  0  0  0  0  0  0
   16.5255   64.2849   21.5215 F   0  0  0  0  0  0  0  0  0  0  0  0
   17.9642   65.7211   20.2250 C   0  0  0  0  0  0  0  0  0  0  0  0
   18.7564   65.8718   21.1474 O   0  0  0  0  0  0  0  0  0  0  0  0
   18.1432   66.3165   19.0052 N   0  0  0  0  0  0  0  0  0  0  0  0
   17.3015   66.2239   17.9274 C   0  0  0  0  0  0  0  0  0  0  0  0
   17.5504   66.8377   16.8937 O   0  0  0  0  0  0  0  0  0  0  0  0
   18.9539   66.8633   18.8914 H   0  0  0  0  0  0  0  0  0  0  0  0
   15.2210   65.2705   17.0057 C   0  0  0  0  0  0  0  0  0  0  0  0
   14.9325   67.6033   16.1231 N   0  0  0  0  0  0  0  0  0  0  0  0
   14.2833   66.4846   16.8508 C   0  0  0  0  0  0  0  0  0  0  0  0
   15.2184   67.2859   15.1968 H   0  0  0  0  0  0  0  0  0  0  0  0
   15.7521   67.9169   16.6430 H   0  0  0  0  0  0  0  0  0  0  0  0
   13.8608   66.9754   18.2358 C   0  0  0  0  0  0  0  0  0  0  0  0
   14.3654   67.8956   18.8623 O   0  0  0  0  0  0  0  0  0  0  0  0
   12.8451   66.2610   18.7631 O   0  0  0  0  0  0  0  0  0  0  0  0
   12.4646   65.5573   18.2754 H   0  0  0  0  0  0  0  0  0  0  0  0
 14 13  1  0
 14 12  1  0
 12  1  1  0
  1  2  1  0
  2  3  1  0
  2  4  2  0
  4  5  1  0
  4  6  1  0
  6  7  2  0
  6  8  1  0
  8  9  1  0
  9 10  2  0
 14 17  1  0
 17 18  2  0
 17 19  1  0
  9  1  1  0
 13 15  1  0
 13 16  1  0
  8 11  1  0
 19 20  1  0
M  END
> <minimizedAffinity>
-4.89180

> <CNNscore>
0.6146053076

> <CNNaffinity>
3.5952386856

> <CNN_VS>
2.2096526623

> <CNNaffinity_variance>
0.4016810656

$$$$



 20 20  0  0  0  0  0  0  0  0999 V2000
   27.9924   57.3525   39.1803 N   0  0  0  0  0  0  0  0  0  0  0  0
   28.0602   58.1018   38.0235 C   0  0  0  0  0  0  0  0  0  0  0  0
   29.2544   58.2702   37.4133 F   0  0  0  0  0  0  0  0  0  0  0  0
   26.9827   58.6717   37.4868 C   0  0  0  0  0  0  0  0  0  0  0  0
   27.0280   59.4068   36.3603 F   0  0  0  0  0  0  0  0  0  0  0  0
   25.6774   58.5051   38.1424 C   0  0  0  0  0  0  0  0  0  0  0  0
   24.6479   59.0048   37.7049 O   0  0  0  0  0  0  0  0  0  0  0  0
   25.6936   57.7496   39.2841 N   0  0  0  0  0  0  0  0  0  0  0  0
   26.7965   57.1729   39.8582 C   0  0  0  0  0  0  0  0  0  0  0  0
   26.6910   56.5469   40.9090 O   0  0  0  0  0  0  0  0  0  0  0  0
   24.8305   57.6069   39.7358 H   0  0  0  0  0  0  0  0  0  0  0  0
   29.2302   56.7880   39.7304 C   0  0  0  0  0  0  0  0  0  0  0  0
   29.8363   54.4035   40.2313 N   0  0  0  0  0  0  0  0  0  0  0  0
   29.5794   55.3986   39.1606 C   0  0  0  0  0  0  0  0  0  0  0  0
   29.0099   54.3200   40.8232 H   0  0  0  0  0  0  0  0  0  0  0  0
   30.6294   54.7085   40.7956 H   0  0  0  0  0  0  0  0  0  0  0  0
   30.8259   55.5125   38.2825 C   0  0  0  0  0  0  0  0  0  0  0  0
   31.7412   56.3096   38.4256 O   0  0  0  0  0  0  0  0  0  0  0  0
   30.8340   54.6338   37.2589 O   0  0  0  0  0  0  0  0  0  0  0  0
   30.1278   54.0263   37.1573 H   0  0  0  0  0  0  0  0  0  0  0  0
 14 13  1  0
 14 12  1  0
 12  1  1  0
  1  2  1  0
  2  3  1  0
  2  4  2  0
  4  5  1  0
  4  6  1  0
  6  7  2  0
  6  8  1  0
  8  9  1  0
  9 10  2  0
 14 17  1  0
 17 18  2  0
 17 19  1  0
  9  1  1  0
 13 15  1  0
 13 16  1  0
  8 11  1  0
 19 20  1  0
M  END
> <minimizedAffinity>
-4.80723

> <CNNscore>
0.5964401960

> <CNNaffinity>
3.8136737347

> <CNN_VS>
2.2746284008

> <CNNaffinity_variance>
0.2180526406

$$$$



 20 20  0  0  0  0  0  0  0  0999 V2000
   15.2289   64.0801   19.8130 N   0  0  0  0  0  0  0  0  0  0  0  0
   16.4726   64.5993   20.1095 C   0  0  0  0  0  0  0  0  0  0  0  0
   16.7830   64.8801   21.3947 F   0  0  0  0  0  0  0  0  0  0  0  0
   17.3817   64.8384   19.1660 C   0  0  0  0  0  0  0  0  0  0  0  0
   18.5992   65.3450   19.4344 F   0  0  0  0  0  0  0  0  0  0  0  0
   17.0570   64.5461   17.7622 C   0  0  0  0  0  0  0  0  0  0  0  0
   17.8444   64.7454   16.8449 O   0  0  0  0  0  0  0  0  0  0  0  0
   15.8048   64.0345   17.5504 N   0  0  0  0  0  0  0  0  0  0  0  0
   14.8527   63.8008   18.5083 C   0  0  0  0  0  0  0  0  0  0  0  0
   13.7467   63.3734   18.1898 O   0  0  0  0  0  0  0  0  0  0  0  0
   15.5655   63.8133   16.6214 H   0  0  0  0  0  0  0  0  0  0  0  0
   14.2680   63.8800   20.9039 C   0  0  0  0  0  0  0  0  0  0  0  0
   13.2901   61.5678   20.9383 N   0  0  0  0  0  0  0  0  0  0  0  0
   14.3193   62.4665   21.5175 C   0  0  0  0  0  0  0  0  0  0  0  0
   13.4297   61.4961   19.9304 H   0  0  0  0  0  0  0  0  0  0  0  0
   12.3623   61.9473   21.1268 H   0  0  0  0  0  0  0  0  0  0  0  0
   14.0970   62.5639   23.0271 C   0  0  0  0  0  0  0  0  0  0  0  0
   14.6275   63.3611   23.7865 O   0  0  0  0  0  0  0  0  0  0  0  0
   13.2402   61.6336   23.4967 O   0  0  0  0  0  0  0  0  0  0  0  0
   12.8383   61.0266   22.9069 H   0  0  0  0  0  0  0  0  0  0  0  0
 14 13  1  0
 14 12  1  0
 12  1  1  0
  1  2  1  0
  2  3  1  0
  2  4  2  0
  4  5  1  0
  4  6  1  0
  6  7  2  0
  6  8  1  0
  8  9  1  0
  9 10  2  0
 14 17  1  0
 17 18  2  0
 17 19  1  0
  9  1  1  0
 13 15  1  0
 13 16  1  0
  8 11  1  0
 19 20  1  0
M  END
> <minimizedAffinity>
-5.78898

> <CNNscore>
0.5883653164

> <CNNaffinity>
3.9962692261

> <CNN_VS>
2.3512661457

> <CNNaffinity_variance>
0.2078477740

$$$$



 20 20  0  0  0  0  0  0  0  0999 V2000
   17.0996   64.7731   18.8212 N   0  0  0  0  0  0  0  0  0  0  0  0
   17.2098   64.9889   20.1797 C   0  0  0  0  0  0  0  0  0  0  0  0
   16.4814   64.2327   21.0309 F   0  0  0  0  0  0  0  0  0  0  0  0
   18.0113   65.9257   20.6836 C   0  0  0  0  0  0  0  0  0  0  0  0
   18.1320   66.1523   22.0047 F   0  0  0  0  0  0  0  0  0  0  0  0
   18.8043   66.7623   19.7710 C   0  0  0  0  0  0  0  0  0  0  0  0
   19.5577   67.6437   20.1667 O   0  0  0  0  0  0  0  0  0  0  0  0
   18.6391   66.4872   18.4401 N   0  0  0  0  0  0  0  0  0  0  0  0
   17.8046   65.5398   17.9063 C   0  0  0  0  0  0  0  0  0  0  0  0
   17.7131   65.4115   16.6888 O   0  0  0  0  0  0  0  0  0  0  0  0
   19.1704   67.0208   17.8058 H   0  0  0  0  0  0  0  0  0  0  0  0
   16.1663   63.7473   18.3418 C   0  0  0  0  0  0  0  0  0  0  0  0
   14.0619   64.9549   18.9874 N   0  0  0  0  0  0  0  0  0  0  0  0
   14.8114   64.3171   17.8766 C   0  0  0  0  0  0  0  0  0  0  0  0
   14.6199   65.7109   19.3841 H   0  0  0  0  0  0  0  0  0  0  0  0
   13.8677   64.2608   19.7092 H   0  0  0  0  0  0  0  0  0  0  0  0
   13.9628   63.1871   17.2928 C   0  0  0  0  0  0  0  0  0  0  0  0
   13.1226   63.2944   16.4117 O   0  0  0  0  0  0  0  0  0  0  0  0
   14.2023   61.9924   17.8718 O   0  0  0  0  0  0  0  0  0  0  0  0
   14.8484   61.9199   18.5465 H   0  0  0  0  0  0  0  0  0  0  0  0
 14 13  1  0
 14 12  1  0
 12  1  1  0
  1  2  1  0
  2  3  1  0
  2  4  2  0
  4  5  1  0
  4  6  1  0
  6  7  2  0
  6  8  1  0
  8  9  1  0
  9 10  2  0
 14 17  1  0
 17 18  2  0
 17 19  1  0
  9  1  1  0
 13 15  1  0
 13 16  1  0
  8 11  1  0
 19 20  1  0
M  END
> <minimizedAffinity>
-5.35306

> <CNNscore>
0.5736526847

> <CNNaffinity>
3.8875644207

> <CNN_VS>
2.2301118374

> <CNNaffinity_variance>
0.2023988217

$$$$
