


 39 41  0  0  0  0  0  0  0  0999 V2000
   49.8026    8.0676    1.9581 C   0  0  0  0  0  0  0  0  0  0  0  0
   50.0812    8.1210    3.6534 S   0  0  0  0  0  0  0  0  0  0  0  0
   51.6208    7.3693    3.5274 C   0  0  0  0  0  0  0  0  0  0  0  0
   51.9388    7.1318    2.2029 C   0  0  0  0  0  0  0  0  0  0  0  0
   50.8879    7.5068    1.3156 C   0  0  0  0  0  0  0  0  0  0  0  0
   51.0045    7.1774   -0.5515 Br  0  0  0  0  0  0  0  0  0  0  0  0
   46.7097    8.3927   -0.2225 C   0  0  0  0  0  0  0  0  0  0  0  0
   46.0845    9.4741    0.4000 C   0  0  0  0  0  0  0  0  0  0  0  0
   46.6396   10.0795    1.5301 C   0  0  0  0  0  0  0  0  0  0  0  0
   47.8492    9.6249    2.0485 C   0  0  0  0  0  0  0  0  0  0  0  0
   48.5307    8.5742    1.4217 C   0  0  0  0  0  0  0  0  0  0  0  0
   47.9624    7.9946    0.2727 C   0  0  0  0  0  0  0  0  0  0  0  0
   46.2176    7.7612   -1.3695 N   0  0  0  0  0  0  0  0  0  0  0  0
   46.4439    6.8169   -1.5319 H   0  0  0  0  0  0  0  0  0  0  0  0
   45.1185    7.8086   -6.1724 C   0  0  0  0  0  0  0  0  0  0  0  0
   44.8762    8.6013   -4.8680 C   0  0  0  0  0  0  0  0  0  0  0  0
   45.3391   10.0451   -5.1413 C   0  0  0  0  0  0  0  0  0  0  0  0
   45.7289    7.9652   -3.7474 C   0  0  0  0  0  0  0  0  0  0  0  0
   45.3697    8.4731   -2.3397 C   0  0  0  0  0  0  0  0  0  0  0  0
   43.8871    8.1905   -2.0605 C   0  0  0  0  0  0  0  0  0  0  0  0
   42.9298    8.8503   -3.0755 C   0  0  0  0  0  0  0  0  0  0  0  0
   41.5120    8.2756   -2.8415 C   0  0  0  0  0  0  0  0  0  0  0  0
   42.8371   10.3666   -2.8336 C   0  0  0  0  0  0  0  0  0  0  0  0
   43.3611    8.5165   -4.5288 C   0  0  0  0  0  0  0  0  0  0  0  0
   52.3365    7.0908    4.7492 C   0  0  0  0  0  0  0  0  0  0  0  0
   53.1032    7.8109    5.3715 O   0  0  0  0  0  0  0  0  0  0  0  0
   52.0995    5.8428    5.2302 O   0  0  0  0  0  0  0  0  0  0  0  0
   51.5164    5.2680    4.7746 H   0  0  0  0  0  0  0  0  0  0  0  0
   53.0749    6.4883    1.8286 O   0  0  0  0  0  0  0  0  0  0  0  0
   52.9172    5.0670    1.8777 C   0  0  0  0  0  0  0  0  0  0  0  0
   54.2965    4.4240    2.1271 C   0  0  0  0  0  0  0  0  0  0  0  0
   54.7575    3.3491    1.0786 N   0  0  0  0  0  0  0  0  0  0  0  0
   53.4752    2.7213    0.4409 C   0  0  0  0  0  0  0  0  0  0  0  0
   55.5299    3.9898   -0.0607 C   0  0  0  0  0  0  0  0  0  0  0  0
   55.4578    2.1718    1.7427 C   0  0  0  0  0  0  0  0  0  0  0  0
   56.9687    2.1109    1.8841 N   0  0  0  0  0  0  0  0  0  0  0  0
   57.2378    1.0981    3.0399 C   0  0  0  0  0  0  0  0  0  0  0  0
   57.6758    1.5234    0.6590 C   0  0  0  0  0  0  0  0  0  0  0  0
   57.6520    3.4002    2.2925 C   0  0  0  0  0  0  0  0  0  0  0  0
 15 16  1  0
 16 17  1  0
 16 18  1  0
 18 19  1  0
 19 13  1  0
 13  7  1  0
  7  8  2  0
  8  9  1  0
  9 10  2  0
 10 11  1  0
 11  1  1  0
  1  2  1  0
  2  3  1  0
  3 25  1  0
 25 26  2  0
 25 27  1  0
  3  4  2  0
  4 29  1  0
 29 30  1  0
 30 31  1  0
 31 32  1  0
 32 33  1  0
 32 34  1  0
 32 35  1  0
 35 36  1  0
 36 37  1  0
 36 38  1  0
 36 39  1  0
  4  5  1  0
  5  6  1  0
 11 12  2  0
 19 20  1  0
 20 21  1  0
 21 22  1  0
 21 23  1  0
 21 24  1  0
 24 16  1  0
 12  7  1  0
  5  1  2  0
 13 14  1  0
 27 28  1  0
M  CHG 1  32   1
M  CHG 1  36   1
M  END
> <minimizedAffinity>
-5.61758

> <CNNscore>
0.2693867981

> <CNNaffinity>
5.1883721352

> <CNN_VS>
1.3976789713

> <CNNaffinity_variance>
0.3636717796

$$$$



 39 41  0  0  0  0  0  0  0  0999 V2000
   49.9753    6.6556    1.7793 C   0  0  0  0  0  0  0  0  0  0  0  0
   51.0969    7.9094    2.1325 S   0  0  0  0  0  0  0  0  0  0  0  0
   51.3555    7.3647    3.7411 C   0  0  0  0  0  0  0  0  0  0  0  0
   50.6359    6.2094    3.9847 C   0  0  0  0  0  0  0  0  0  0  0  0
   49.8306    5.8256    2.8727 C   0  0  0  0  0  0  0  0  0  0  0  0
   48.6447    4.3452    2.9739 Br  0  0  0  0  0  0  0  0  0  0  0  0
   47.4809    7.2967   -1.0123 C   0  0  0  0  0  0  0  0  0  0  0  0
   48.1017    6.6102   -2.0570 C   0  0  0  0  0  0  0  0  0  0  0  0
   49.3280    5.9667   -1.8733 C   0  0  0  0  0  0  0  0  0  0  0  0
   49.9492    5.9800   -0.6272 C   0  0  0  0  0  0  0  0  0  0  0  0
   49.3328    6.6163    0.4573 C   0  0  0  0  0  0  0  0  0  0  0  0
   48.0880    7.2391    0.2530 C   0  0  0  0  0  0  0  0  0  0  0  0
   46.2433    7.9383   -1.1268 N   0  0  0  0  0  0  0  0  0  0  0  0
   45.4460    7.4065   -1.3519 H   0  0  0  0  0  0  0  0  0  0  0  0
   46.6214   11.3464    2.4118 C   0  0  0  0  0  0  0  0  0  0  0  0
   46.1688   11.1709    0.9444 C   0  0  0  0  0  0  0  0  0  0  0  0
   44.7096   11.6605    0.8752 C   0  0  0  0  0  0  0  0  0  0  0  0
   46.2509    9.6700    0.5869 C   0  0  0  0  0  0  0  0  0  0  0  0
   46.1030    9.3889   -0.9190 C   0  0  0  0  0  0  0  0  0  0  0  0
   47.1956   10.1457   -1.6869 C   0  0  0  0  0  0  0  0  0  0  0  0
   47.1587   11.6733   -1.4704 C   0  0  0  0  0  0  0  0  0  0  0  0
   48.4513   12.2747   -2.0726 C   0  0  0  0  0  0  0  0  0  0  0  0
   45.9810   12.3051   -2.2323 C   0  0  0  0  0  0  0  0  0  0  0  0
   47.1207   12.0088    0.0448 C   0  0  0  0  0  0  0  0  0  0  0  0
   52.2315    8.1431    4.5833 C   0  0  0  0  0  0  0  0  0  0  0  0
   52.2890    9.3565    4.7180 O   0  0  0  0  0  0  0  0  0  0  0  0
   53.0974    7.3789    5.2981 O   0  0  0  0  0  0  0  0  0  0  0  0
   53.0769    6.4458    5.2156 H   0  0  0  0  0  0  0  0  0  0  0  0
   50.6136    5.6057    5.2013 O   0  0  0  0  0  0  0  0  0  0  0  0
   51.8070    4.8532    5.4393 C   0  0  0  0  0  0  0  0  0  0  0  0
   51.6846    3.4918    4.7254 C   0  0  0  0  0  0  0  0  0  0  0  0
   52.8469    3.1240    3.7349 N   0  0  0  0  0  0  0  0  0  0  0  0
   52.2065    2.7895    2.3481 C   0  0  0  0  0  0  0  0  0  0  0  0
   53.7672    4.3092    3.5044 C   0  0  0  0  0  0  0  0  0  0  0  0
   53.5519    1.8369    4.1396 C   0  0  0  0  0  0  0  0  0  0  0  0
   53.0189    0.9417    5.2446 N   0  0  0  0  0  0  0  0  0  0  0  0
   53.9291   -0.3253    5.2289 C   0  0  0  0  0  0  0  0  0  0  0  0
   53.1791    1.5372    6.6467 C   0  0  0  0  0  0  0  0  0  0  0  0
   51.6008    0.4381    5.0681 C   0  0  0  0  0  0  0  0  0  0  0  0
 15 16  1  0
 16 17  1  0
 16 18  1  0
 18 19  1  0
 19 13  1  0
 13  7  1  0
  7  8  2  0
  8  9  1  0
  9 10  2  0
 10 11  1  0
 11  1  1  0
  1  2  1  0
  2  3  1  0
  3 25  1  0
 25 26  2  0
 25 27  1  0
  3  4  2  0
  4 29  1  0
 29 30  1  0
 30 31  1  0
 31 32  1  0
 32 33  1  0
 32 34  1  0
 32 35  1  0
 35 36  1  0
 36 37  1  0
 36 38  1  0
 36 39  1  0
  4  5  1  0
  5  6  1  0
 11 12  2  0
 19 20  1  0
 20 21  1  0
 21 22  1  0
 21 23  1  0
 21 24  1  0
 24 16  1  0
 12  7  1  0
  5  1  2  0
 13 14  1  0
 27 28  1  0
M  CHG 1  32   1
M  CHG 1  36   1
M  END
> <minimizedAffinity>
-6.65213

> <CNNscore>
0.2244257778

> <CNNaffinity>
5.8561038971

> <CNN_VS>
1.3142607212

> <CNNaffinity_variance>
0.3641581833

$$$$



 39 41  0  0  0  0  0  0  0  0999 V2000
   44.5432   10.0064   -1.0685 C   0  0  0  0  0  0  0  0  0  0  0  0
   43.6094    8.5636   -1.0381 S   0  0  0  0  0  0  0  0  0  0  0  0
   42.7802    8.9481   -2.4927 C   0  0  0  0  0  0  0  0  0  0  0  0
   43.2511   10.1358   -3.0212 C   0  0  0  0  0  0  0  0  0  0  0  0
   44.2359   10.7477   -2.1916 C   0  0  0  0  0  0  0  0  0  0  0  0
   44.9652   12.4503   -2.6127 Br  0  0  0  0  0  0  0  0  0  0  0  0
   47.6861    9.9077    1.0620 C   0  0  0  0  0  0  0  0  0  0  0  0
   47.3266   10.8046    2.0692 C   0  0  0  0  0  0  0  0  0  0  0  0
   46.0920   11.4580    2.0507 C   0  0  0  0  0  0  0  0  0  0  0  0
   45.1795   11.2079    1.0291 C   0  0  0  0  0  0  0  0  0  0  0  0
   45.4846   10.2774    0.0281 C   0  0  0  0  0  0  0  0  0  0  0  0
   46.7253    9.6163    0.0797 C   0  0  0  0  0  0  0  0  0  0  0  0
   48.8951    9.2048    1.0380 N   0  0  0  0  0  0  0  0  0  0  0  0
   49.6808    9.6158    0.6102 H   0  0  0  0  0  0  0  0  0  0  0  0
   50.1173    4.5842   -0.1601 C   0  0  0  0  0  0  0  0  0  0  0  0
   49.5326    5.4183    1.0023 C   0  0  0  0  0  0  0  0  0  0  0  0
   48.1784    4.7780    1.3621 C   0  0  0  0  0  0  0  0  0  0  0  0
   49.3285    6.8672    0.5058 C   0  0  0  0  0  0  0  0  0  0  0  0
   49.0222    7.8658    1.6362 C   0  0  0  0  0  0  0  0  0  0  0  0
   50.1678    7.8445    2.6574 C   0  0  0  0  0  0  0  0  0  0  0  0
   50.4104    6.4560    3.2862 C   0  0  0  0  0  0  0  0  0  0  0  0
   51.7383    6.5136    4.0790 C   0  0  0  0  0  0  0  0  0  0  0  0
   49.3051    6.1146    4.3002 C   0  0  0  0  0  0  0  0  0  0  0  0
   50.5443    5.3730    2.1822 C   0  0  0  0  0  0  0  0  0  0  0  0
   41.7533    8.0396   -2.9430 C   0  0  0  0  0  0  0  0  0  0  0  0
   40.5389    8.1559   -2.8695 O   0  0  0  0  0  0  0  0  0  0  0  0
   42.2543    6.9125   -3.5119 O   0  0  0  0  0  0  0  0  0  0  0  0
   43.1813    6.7954   -3.5821 H   0  0  0  0  0  0  0  0  0  0  0  0
   42.7203   10.6999   -4.1370 O   0  0  0  0  0  0  0  0  0  0  0  0
   41.7154   11.6657   -3.8134 C   0  0  0  0  0  0  0  0  0  0  0  0
   40.4613   11.3795   -4.6639 C   0  0  0  0  0  0  0  0  0  0  0  0
   39.2493   12.3575   -4.4588 N   0  0  0  0  0  0  0  0  0  0  0  0
   39.1104   13.2257   -5.7518 C   0  0  0  0  0  0  0  0  0  0  0  0
   37.9454   11.5931   -4.3167 C   0  0  0  0  0  0  0  0  0  0  0  0
   39.5187   13.3720   -3.3562 C   0  0  0  0  0  0  0  0  0  0  0  0
   38.4059   14.1973   -2.7339 N   0  0  0  0  0  0  0  0  0  0  0  0
   39.0995   15.4801   -2.1797 C   0  0  0  0  0  0  0  0  0  0  0  0
   37.3755   14.7013   -3.7490 C   0  0  0  0  0  0  0  0  0  0  0  0
   37.6896   13.5689   -1.5558 C   0  0  0  0  0  0  0  0  0  0  0  0
 15 16  1  0
 16 17  1  0
 16 18  1  0
 18 19  1  0
 19 13  1  0
 13  7  1  0
  7  8  2  0
  8  9  1  0
  9 10  2  0
 10 11  1  0
 11  1  1  0
  1  2  1  0
  2  3  1  0
  3 25  1  0
 25 26  2  0
 25 27  1  0
  3  4  2  0
  4 29  1  0
 29 30  1  0
 30 31  1  0
 31 32  1  0
 32 33  1  0
 32 34  1  0
 32 35  1  0
 35 36  1  0
 36 37  1  0
 36 38  1  0
 36 39  1  0
  4  5  1  0
  5  6  1  0
 11 12  2  0
 19 20  1  0
 20 21  1  0
 21 22  1  0
 21 23  1  0
 21 24  1  0
 24 16  1  0
 12  7  1  0
  5  1  2  0
 13 14  1  0
 27 28  1  0
M  CHG 1  32   1
M  CHG 1  36   1
M  END
> <minimizedAffinity>
-5.63580

> <CNNscore>
0.2204198837

> <CNNaffinity>
5.6761889458

> <CNN_VS>
1.2511448860

> <CNNaffinity_variance>
0.2164356709

$$$$



 39 41  0  0  0  0  0  0  0  0999 V2000
   44.2123   10.2057   -1.2198 C   0  0  0  0  0  0  0  0  0  0  0  0
   43.4374    8.6714   -1.2070 S   0  0  0  0  0  0  0  0  0  0  0  0
   42.4994    9.0193   -2.6035 C   0  0  0  0  0  0  0  0  0  0  0  0
   42.8157   10.2694   -3.1025 C   0  0  0  0  0  0  0  0  0  0  0  0
   43.7722   10.9514   -2.2947 C   0  0  0  0  0  0  0  0  0  0  0  0
   44.2967   12.7366   -2.6768 Br  0  0  0  0  0  0  0  0  0  0  0  0
   47.4643   10.4014    0.7328 C   0  0  0  0  0  0  0  0  0  0  0  0
   47.0528   11.1808    1.8151 C   0  0  0  0  0  0  0  0  0  0  0  0
   45.7448   11.6633    1.9046 C   0  0  0  0  0  0  0  0  0  0  0  0
   44.8126   11.3547    0.9175 C   0  0  0  0  0  0  0  0  0  0  0  0
   45.1750   10.5344   -0.1581 C   0  0  0  0  0  0  0  0  0  0  0  0
   46.4919   10.0431   -0.2154 C   0  0  0  0  0  0  0  0  0  0  0  0
   48.7507    9.8690    0.5990 N   0  0  0  0  0  0  0  0  0  0  0  0
   49.4394   10.3908    0.1271 H   0  0  0  0  0  0  0  0  0  0  0  0
   47.4907    6.7771    4.2228 C   0  0  0  0  0  0  0  0  0  0  0  0
   48.5467    6.9720    3.1112 C   0  0  0  0  0  0  0  0  0  0  0  0
   49.9222    6.9420    3.8045 C   0  0  0  0  0  0  0  0  0  0  0  0
   48.3070    8.3475    2.4492 C   0  0  0  0  0  0  0  0  0  0  0  0
   49.1008    8.5479    1.1460 C   0  0  0  0  0  0  0  0  0  0  0  0
   48.7283    7.4420    0.1488 C   0  0  0  0  0  0  0  0  0  0  0  0
   49.0047    6.0172    0.6736 C   0  0  0  0  0  0  0  0  0  0  0  0
   48.3473    5.0109   -0.3012 C   0  0  0  0  0  0  0  0  0  0  0  0
   50.5132    5.7159    0.6684 C   0  0  0  0  0  0  0  0  0  0  0  0
   48.3755    5.8218    2.0791 C   0  0  0  0  0  0  0  0  0  0  0  0
   41.5515    8.0240   -3.0434 C   0  0  0  0  0  0  0  0  0  0  0  0
   40.3306    8.0519   -2.9955 O   0  0  0  0  0  0  0  0  0  0  0  0
   42.1455    6.9207   -3.5674 O   0  0  0  0  0  0  0  0  0  0  0  0
   43.0799    6.8706   -3.6172 H   0  0  0  0  0  0  0  0  0  0  0  0
   42.1724   10.8150   -4.1672 O   0  0  0  0  0  0  0  0  0  0  0  0
   41.0229   11.5645   -3.7622 C   0  0  0  0  0  0  0  0  0  0  0  0
   40.7901   12.7016   -4.7775 C   0  0  0  0  0  0  0  0  0  0  0  0
   40.1105   14.0015   -4.2155 N   0  0  0  0  0  0  0  0  0  0  0  0
   41.2264   14.8819   -3.5639 C   0  0  0  0  0  0  0  0  0  0  0  0
   39.5098   14.8340   -5.3339 C   0  0  0  0  0  0  0  0  0  0  0  0
   39.1603   13.6940   -3.0666 C   0  0  0  0  0  0  0  0  0  0  0  0
   38.0214   14.6271   -2.6939 N   0  0  0  0  0  0  0  0  0  0  0  0
   37.6548   14.2681   -1.2205 C   0  0  0  0  0  0  0  0  0  0  0  0
   38.4249   16.1044   -2.6616 C   0  0  0  0  0  0  0  0  0  0  0  0
   36.7428   14.4694   -3.4915 C   0  0  0  0  0  0  0  0  0  0  0  0
 15 16  1  0
 16 17  1  0
 16 18  1  0
 18 19  1  0
 19 13  1  0
 13  7  1  0
  7  8  2  0
  8  9  1  0
  9 10  2  0
 10 11  1  0
 11  1  1  0
  1  2  1  0
  2  3  1  0
  3 25  1  0
 25 26  2  0
 25 27  1  0
  3  4  2  0
  4 29  1  0
 29 30  1  0
 30 31  1  0
 31 32  1  0
 32 33  1  0
 32 34  1  0
 32 35  1  0
 35 36  1  0
 36 37  1  0
 36 38  1  0
 36 39  1  0
  4  5  1  0
  5  6  1  0
 11 12  2  0
 19 20  1  0
 20 21  1  0
 21 22  1  0
 21 23  1  0
 21 24  1  0
 24 16  1  0
 12  7  1  0
  5  1  2  0
 13 14  1  0
 27 28  1  0
M  CHG 1  32   1
M  CHG 1  36   1
M  END
> <minimizedAffinity>
-6.01670

> <CNNscore>
0.2055046111

> <CNNaffinity>
5.7003006935

> <CNN_VS>
1.1714380980

> <CNNaffinity_variance>
0.2667143643

$$$$



 39 41  0  0  0  0  0  0  0  0999 V2000
   50.5872    7.4372    1.0535 C   0  0  0  0  0  0  0  0  0  0  0  0
   50.3989    7.6601    2.7474 S   0  0  0  0  0  0  0  0  0  0  0  0
   51.9185    6.9473    3.1135 C   0  0  0  0  0  0  0  0  0  0  0  0
   52.5823    6.5948    1.9530 C   0  0  0  0  0  0  0  0  0  0  0  0
   51.8076    6.8513    0.7840 C   0  0  0  0  0  0  0  0  0  0  0  0
   52.4239    6.3495   -0.9413 Br  0  0  0  0  0  0  0  0  0  0  0  0
   48.4365    9.6084   -1.2019 C   0  0  0  0  0  0  0  0  0  0  0  0
   47.4907    8.6691   -1.6156 C   0  0  0  0  0  0  0  0  0  0  0  0
   47.5580    7.3389   -1.1938 C   0  0  0  0  0  0  0  0  0  0  0  0
   48.5669    6.9265   -0.3272 C   0  0  0  0  0  0  0  0  0  0  0  0
   49.5047    7.8513    0.1486 C   0  0  0  0  0  0  0  0  0  0  0  0
   49.4037    9.1894   -0.2735 C   0  0  0  0  0  0  0  0  0  0  0  0
   48.4085   10.9578   -1.5690 N   0  0  0  0  0  0  0  0  0  0  0  0
   49.1788   11.3409   -2.0476 H   0  0  0  0  0  0  0  0  0  0  0  0
   43.9765   12.1961   -3.3305 C   0  0  0  0  0  0  0  0  0  0  0  0
   44.9904   12.5785   -2.2284 C   0  0  0  0  0  0  0  0  0  0  0  0
   45.2839   14.0804   -2.4062 C   0  0  0  0  0  0  0  0  0  0  0  0
   46.2765   11.7492   -2.4426 C   0  0  0  0  0  0  0  0  0  0  0  0
   47.2562   11.8194   -1.2578 C   0  0  0  0  0  0  0  0  0  0  0  0
   46.5514   11.3283    0.0143 C   0  0  0  0  0  0  0  0  0  0  0  0
   45.2904   12.1414    0.3759 C   0  0  0  0  0  0  0  0  0  0  0  0
   44.5409   11.3892    1.5018 C   0  0  0  0  0  0  0  0  0  0  0  0
   45.6726   13.5191    0.9438 C   0  0  0  0  0  0  0  0  0  0  0  0
   44.3458   12.2574   -0.8504 C   0  0  0  0  0  0  0  0  0  0  0  0
   52.2799    6.8083    4.5037 C   0  0  0  0  0  0  0  0  0  0  0  0
   52.9545    7.5525    5.2001 O   0  0  0  0  0  0  0  0  0  0  0  0
   51.7863    5.6765    5.0696 O   0  0  0  0  0  0  0  0  0  0  0  0
   51.2657    5.0868    4.5606 H   0  0  0  0  0  0  0  0  0  0  0  0
   53.7797    5.9537    1.9625 O   0  0  0  0  0  0  0  0  0  0  0  0
   53.6258    4.5448    1.7657 C   0  0  0  0  0  0  0  0  0  0  0  0
   54.9940    3.9461    1.3813 C   0  0  0  0  0  0  0  0  0  0  0  0
   55.4704    2.7116    2.2276 N   0  0  0  0  0  0  0  0  0  0  0  0
   54.6461    2.6950    3.5563 C   0  0  0  0  0  0  0  0  0  0  0  0
   55.1597    1.4064    1.5172 C   0  0  0  0  0  0  0  0  0  0  0  0
   56.9141    2.8611    2.6869 C   0  0  0  0  0  0  0  0  0  0  0  0
   58.0803    2.3779    1.8426 N   0  0  0  0  0  0  0  0  0  0  0  0
   59.2963    3.2563    2.2712 C   0  0  0  0  0  0  0  0  0  0  0  0
   58.4981    0.9351    2.1430 C   0  0  0  0  0  0  0  0  0  0  0  0
   57.9403    2.5624    0.3452 C   0  0  0  0  0  0  0  0  0  0  0  0
 15 16  1  0
 16 17  1  0
 16 18  1  0
 18 19  1  0
 19 13  1  0
 13  7  1  0
  7  8  2  0
  8  9  1  0
  9 10  2  0
 10 11  1  0
 11  1  1  0
  1  2  1  0
  2  3  1  0
  3 25  1  0
 25 26  2  0
 25 27  1  0
  3  4  2  0
  4 29  1  0
 29 30  1  0
 30 31  1  0
 31 32  1  0
 32 33  1  0
 32 34  1  0
 32 35  1  0
 35 36  1  0
 36 37  1  0
 36 38  1  0
 36 39  1  0
  4  5  1  0
  5  6  1  0
 11 12  2  0
 19 20  1  0
 20 21  1  0
 21 22  1  0
 21 23  1  0
 21 24  1  0
 24 16  1  0
 12  7  1  0
  5  1  2  0
 13 14  1  0
 27 28  1  0
M  CHG 1  32   1
M  CHG 1  36   1
M  END
> <minimizedAffinity>
-5.50514

> <CNNscore>
0.2001073807

> <CNNaffinity>
5.1926798820

> <CNN_VS>
1.0390936136

> <CNNaffinity_variance>
0.4064788818

$$$$



 39 41  0  0  0  0  0  0  0  0999 V2000
   46.3220   10.4534    0.8365 C   0  0  0  0  0  0  0  0  0  0  0  0
   46.9414   11.4509    2.0918 S   0  0  0  0  0  0  0  0  0  0  0  0
   45.9053   12.7638    1.6993 C   0  0  0  0  0  0  0  0  0  0  0  0
   45.0610   12.4226    0.6589 C   0  0  0  0  0  0  0  0  0  0  0  0
   45.3215   11.1152    0.1536 C   0  0  0  0  0  0  0  0  0  0  0  0
   44.3931   10.4354   -1.3578 Br  0  0  0  0  0  0  0  0  0  0  0  0
   47.6592    6.9790    1.5892 C   0  0  0  0  0  0  0  0  0  0  0  0
   47.9275    6.5345    0.2937 C   0  0  0  0  0  0  0  0  0  0  0  0
   47.6560    7.3359   -0.8180 C   0  0  0  0  0  0  0  0  0  0  0  0
   47.1280    8.6135   -0.6514 C   0  0  0  0  0  0  0  0  0  0  0  0
   46.8917    9.1129    0.6354 C   0  0  0  0  0  0  0  0  0  0  0  0
   47.1930    8.2954    1.7399 C   0  0  0  0  0  0  0  0  0  0  0  0
   47.9315    6.2346    2.7417 N   0  0  0  0  0  0  0  0  0  0  0  0
   47.1895    5.9870    3.3395 H   0  0  0  0  0  0  0  0  0  0  0  0
   52.1465    8.0329    4.5525 C   0  0  0  0  0  0  0  0  0  0  0  0
   51.5524    6.7605    3.9069 C   0  0  0  0  0  0  0  0  0  0  0  0
   52.4220    6.4487    2.6740 C   0  0  0  0  0  0  0  0  0  0  0  0
   50.0997    7.0662    3.4782 C   0  0  0  0  0  0  0  0  0  0  0  0
   49.2997    5.8122    3.0832 C   0  0  0  0  0  0  0  0  0  0  0  0
   49.2761    4.8317    4.2639 C   0  0  0  0  0  0  0  0  0  0  0  0
   50.6796    4.3882    4.7279 C   0  0  0  0  0  0  0  0  0  0  0  0
   50.5245    3.6291    6.0676 C   0  0  0  0  0  0  0  0  0  0  0  0
   51.2980    3.3966    3.7275 C   0  0  0  0  0  0  0  0  0  0  0  0
   51.5909    5.6222    4.9654 C   0  0  0  0  0  0  0  0  0  0  0  0
   46.0485   13.9844    2.4558 C   0  0  0  0  0  0  0  0  0  0  0  0
   46.8761   14.2661    3.3098 O   0  0  0  0  0  0  0  0  0  0  0  0
   45.1071   14.9135    2.1470 O   0  0  0  0  0  0  0  0  0  0  0  0
   44.4595   14.7260    1.4962 H   0  0  0  0  0  0  0  0  0  0  0  0
   44.1837   13.3032    0.1114 O   0  0  0  0  0  0  0  0  0  0  0  0
   44.7341   13.9499   -1.0402 C   0  0  0  0  0  0  0  0  0  0  0  0
   43.5798   14.3592   -1.9774 C   0  0  0  0  0  0  0  0  0  0  0  0
   43.9680   15.2770   -3.1916 N   0  0  0  0  0  0  0  0  0  0  0  0
   45.4872   15.0586   -3.4906 C   0  0  0  0  0  0  0  0  0  0  0  0
   43.2231   14.8671   -4.4494 C   0  0  0  0  0  0  0  0  0  0  0  0
   43.8659   16.7550   -2.8417 C   0  0  0  0  0  0  0  0  0  0  0  0
   44.0664   17.8431   -3.8821 N   0  0  0  0  0  0  0  0  0  0  0  0
   42.6620   18.4930   -4.0802 C   0  0  0  0  0  0  0  0  0  0  0  0
   44.9760   18.9818   -3.4106 C   0  0  0  0  0  0  0  0  0  0  0  0
   44.5080   17.3786   -5.2551 C   0  0  0  0  0  0  0  0  0  0  0  0
 15 16  1  0
 16 17  1  0
 16 18  1  0
 18 19  1  0
 19 13  1  0
 13  7  1  0
  7  8  2  0
  8  9  1  0
  9 10  2  0
 10 11  1  0
 11  1  1  0
  1  2  1  0
  2  3  1  0
  3 25  1  0
 25 26  2  0
 25 27  1  0
  3  4  2  0
  4 29  1  0
 29 30  1  0
 30 31  1  0
 31 32  1  0
 32 33  1  0
 32 34  1  0
 32 35  1  0
 35 36  1  0
 36 37  1  0
 36 38  1  0
 36 39  1  0
  4  5  1  0
  5  6  1  0
 11 12  2  0
 19 20  1  0
 20 21  1  0
 21 22  1  0
 21 23  1  0
 21 24  1  0
 24 16  1  0
 12  7  1  0
  5  1  2  0
 13 14  1  0
 27 28  1  0
M  CHG 1  32   1
M  CHG 1  36   1
M  END
> <minimizedAffinity>
-5.91067

> <CNNscore>
0.1759389937

> <CNNaffinity>
6.0138306618

> <CNN_VS>
1.0580673218

> <CNNaffinity_variance>
0.1020891443

$$$$



 39 41  0  0  0  0  0  0  0  0999 V2000
   46.1809   13.1061    1.5927 C   0  0  0  0  0  0  0  0  0  0  0  0
   46.4309   14.0067    3.0353 S   0  0  0  0  0  0  0  0  0  0  0  0
   45.2026   15.1469    2.6578 C   0  0  0  0  0  0  0  0  0  0  0  0
   44.5748   14.8105    1.4727 C   0  0  0  0  0  0  0  0  0  0  0  0
   45.1544   13.6628    0.8569 C   0  0  0  0  0  0  0  0  0  0  0  0
   44.5696   13.0508   -0.8437 Br  0  0  0  0  0  0  0  0  0  0  0  0
   47.6510    9.6109    1.8145 C   0  0  0  0  0  0  0  0  0  0  0  0
   48.5957    9.6778    0.7893 C   0  0  0  0  0  0  0  0  0  0  0  0
   48.7422   10.8301    0.0132 C   0  0  0  0  0  0  0  0  0  0  0  0
   47.9561   11.9515    0.2644 C   0  0  0  0  0  0  0  0  0  0  0  0
   47.0319   11.9392    1.3164 C   0  0  0  0  0  0  0  0  0  0  0  0
   46.9174   10.7749    2.0976 C   0  0  0  0  0  0  0  0  0  0  0  0
   47.4740    8.4966    2.6412 N   0  0  0  0  0  0  0  0  0  0  0  0
   46.5647    8.2518    2.9285 H   0  0  0  0  0  0  0  0  0  0  0  0
   48.7801    3.7920    3.3046 C   0  0  0  0  0  0  0  0  0  0  0  0
   49.2722    5.2331    3.5692 C   0  0  0  0  0  0  0  0  0  0  0  0
   49.5352    5.3344    5.0838 C   0  0  0  0  0  0  0  0  0  0  0  0
   48.1535    6.2131    3.1500 C   0  0  0  0  0  0  0  0  0  0  0  0
   48.6132    7.6807    3.0924 C   0  0  0  0  0  0  0  0  0  0  0  0
   49.7837    7.8084    2.1078 C   0  0  0  0  0  0  0  0  0  0  0  0
   50.9993    6.9310    2.4748 C   0  0  0  0  0  0  0  0  0  0  0  0
   51.9822    6.9488    1.2795 C   0  0  0  0  0  0  0  0  0  0  0  0
   51.7557    7.5207    3.6775 C   0  0  0  0  0  0  0  0  0  0  0  0
   50.5576    5.4641    2.7254 C   0  0  0  0  0  0  0  0  0  0  0  0
   45.0033   16.2486    3.5683 C   0  0  0  0  0  0  0  0  0  0  0  0
   44.6585   16.2235    4.7406 O   0  0  0  0  0  0  0  0  0  0  0  0
   45.2348   17.4584    2.9960 O   0  0  0  0  0  0  0  0  0  0  0  0
   45.5003   17.5092    2.0988 H   0  0  0  0  0  0  0  0  0  0  0  0
   43.6072   15.5830    0.9139 O   0  0  0  0  0  0  0  0  0  0  0  0
   44.1384   16.4461   -0.0961 C   0  0  0  0  0  0  0  0  0  0  0  0
   43.3234   16.2534   -1.3910 C   0  0  0  0  0  0  0  0  0  0  0  0
   43.9823   16.7968   -2.7094 N   0  0  0  0  0  0  0  0  0  0  0  0
   42.8557   16.9388   -3.7844 C   0  0  0  0  0  0  0  0  0  0  0  0
   44.5533   18.1884   -2.5043 C   0  0  0  0  0  0  0  0  0  0  0  0
   44.9513   15.7915   -3.3160 C   0  0  0  0  0  0  0  0  0  0  0  0
   45.7854   16.1184   -4.5423 N   0  0  0  0  0  0  0  0  0  0  0  0
   47.2246   15.6140   -4.2129 C   0  0  0  0  0  0  0  0  0  0  0  0
   45.3628   15.3449   -5.7950 C   0  0  0  0  0  0  0  0  0  0  0  0
   45.9264   17.5889   -4.8795 C   0  0  0  0  0  0  0  0  0  0  0  0
 15 16  1  0
 16 17  1  0
 16 18  1  0
 18 19  1  0
 19 13  1  0
 13  7  1  0
  7  8  2  0
  8  9  1  0
  9 10  2  0
 10 11  1  0
 11  1  1  0
  1  2  1  0
  2  3  1  0
  3 25  1  0
 25 26  2  0
 25 27  1  0
  3  4  2  0
  4 29  1  0
 29 30  1  0
 30 31  1  0
 31 32  1  0
 32 33  1  0
 32 34  1  0
 32 35  1  0
 35 36  1  0
 36 37  1  0
 36 38  1  0
 36 39  1  0
  4  5  1  0
  5  6  1  0
 11 12  2  0
 19 20  1  0
 20 21  1  0
 21 22  1  0
 21 23  1  0
 21 24  1  0
 24 16  1  0
 12  7  1  0
  5  1  2  0
 13 14  1  0
 27 28  1  0
M  CHG 1  32   1
M  CHG 1  36   1
M  END
> <minimizedAffinity>
-7.06527

> <CNNscore>
0.1704353690

> <CNNaffinity>
6.2811932564

> <CNN_VS>
1.0705374479

> <CNNaffinity_variance>
0.1032902524

$$$$



 39 41  0  0  0  0  0  0  0  0999 V2000
   44.4237   10.4660   -1.0327 C   0  0  0  0  0  0  0  0  0  0  0  0
   44.1446    8.7700   -1.0147 S   0  0  0  0  0  0  0  0  0  0  0  0
   43.3383    8.7834   -2.5316 C   0  0  0  0  0  0  0  0  0  0  0  0
   43.3323   10.0579   -3.0677 C   0  0  0  0  0  0  0  0  0  0  0  0
   43.9278   11.0169   -2.1970 C   0  0  0  0  0  0  0  0  0  0  0  0
   43.9444   12.8673   -2.6264 Br  0  0  0  0  0  0  0  0  0  0  0  0
   46.8788   11.0421    1.8076 C   0  0  0  0  0  0  0  0  0  0  0  0
   46.4383   12.2858    2.2627 C   0  0  0  0  0  0  0  0  0  0  0  0
   45.3753   12.9487    1.6444 C   0  0  0  0  0  0  0  0  0  0  0  0
   44.7151   12.3655    0.5660 C   0  0  0  0  0  0  0  0  0  0  0  0
   45.0965   11.0966    0.1127 C   0  0  0  0  0  0  0  0  0  0  0  0
   46.1558   10.4396    0.7649 C   0  0  0  0  0  0  0  0  0  0  0  0
   47.9195   10.3185    2.3990 N   0  0  0  0  0  0  0  0  0  0  0  0
   48.5142   10.7704    3.0404 H   0  0  0  0  0  0  0  0  0  0  0  0
   50.4673    7.4466   -0.6896 C   0  0  0  0  0  0  0  0  0  0  0  0
   49.3710    7.3803    0.3978 C   0  0  0  0  0  0  0  0  0  0  0  0
   48.1536    6.6930   -0.2497 C   0  0  0  0  0  0  0  0  0  0  0  0
   49.0146    8.8241    0.8170 C   0  0  0  0  0  0  0  0  0  0  0  0
   48.1478    8.8982    2.0866 C   0  0  0  0  0  0  0  0  0  0  0  0
   48.8825    8.2088    3.2446 C   0  0  0  0  0  0  0  0  0  0  0  0
   49.2185    6.7278    2.9697 C   0  0  0  0  0  0  0  0  0  0  0  0
   50.1760    6.2383    4.0827 C   0  0  0  0  0  0  0  0  0  0  0  0
   47.9549    5.8550    3.0588 C   0  0  0  0  0  0  0  0  0  0  0  0
   49.9372    6.5761    1.6021 C   0  0  0  0  0  0  0  0  0  0  0  0
   42.7954    7.5375   -3.0169 C   0  0  0  0  0  0  0  0  0  0  0  0
   42.2099    6.6617   -2.3973 O   0  0  0  0  0  0  0  0  0  0  0  0
   42.9939    7.3549   -4.3481 O   0  0  0  0  0  0  0  0  0  0  0  0
   43.4397    8.0091   -4.8494 H   0  0  0  0  0  0  0  0  0  0  0  0
   42.7024   10.3570   -4.2334 O   0  0  0  0  0  0  0  0  0  0  0  0
   41.2828   10.4201   -4.0653 C   0  0  0  0  0  0  0  0  0  0  0  0
   40.8002   11.8317   -4.4558 C   0  0  0  0  0  0  0  0  0  0  0  0
   39.2800   12.1365   -4.2040 N   0  0  0  0  0  0  0  0  0  0  0  0
   39.1905   13.3941   -3.2791 C   0  0  0  0  0  0  0  0  0  0  0  0
   38.5732   12.5065   -5.4956 C   0  0  0  0  0  0  0  0  0  0  0  0
   38.6055   11.0340   -3.3997 C   0  0  0  0  0  0  0  0  0  0  0  0
   37.6200   10.0664   -4.0312 N   0  0  0  0  0  0  0  0  0  0  0  0
   37.5777    8.8333   -3.0764 C   0  0  0  0  0  0  0  0  0  0  0  0
   36.1829   10.5950   -4.0727 C   0  0  0  0  0  0  0  0  0  0  0  0
   37.9990    9.5247   -5.3946 C   0  0  0  0  0  0  0  0  0  0  0  0
 15 16  1  0
 16 17  1  0
 16 18  1  0
 18 19  1  0
 19 13  1  0
 13  7  1  0
  7  8  2  0
  8  9  1  0
  9 10  2  0
 10 11  1  0
 11  1  1  0
  1  2  1  0
  2  3  1  0
  3 25  1  0
 25 26  2  0
 25 27  1  0
  3  4  2  0
  4 29  1  0
 29 30  1  0
 30 31  1  0
 31 32  1  0
 32 33  1  0
 32 34  1  0
 32 35  1  0
 35 36  1  0
 36 37  1  0
 36 38  1  0
 36 39  1  0
  4  5  1  0
  5  6  1  0
 11 12  2  0
 19 20  1  0
 20 21  1  0
 21 22  1  0
 21 23  1  0
 21 24  1  0
 24 16  1  0
 12  7  1  0
  5  1  2  0
 13 14  1  0
 27 28  1  0
M  CHG 1  32   1
M  CHG 1  36   1
M  END
> <minimizedAffinity>
-5.76491

> <CNNscore>
0.1648844630

> <CNNaffinity>
5.7469005585

> <CNN_VS>
0.9475746155

> <CNNaffinity_variance>
0.1809809059

$$$$



 39 41  0  0  0  0  0  0  0  0999 V2000
   44.8409   12.4752   -0.2758 C   0  0  0  0  0  0  0  0  0  0  0  0
   44.7737   13.2965    1.2328 S   0  0  0  0  0  0  0  0  0  0  0  0
   44.4117   14.8113    0.5080 C   0  0  0  0  0  0  0  0  0  0  0  0
   44.2902   14.6777   -0.8628 C   0  0  0  0  0  0  0  0  0  0  0  0
   44.5625   13.3504   -1.3061 C   0  0  0  0  0  0  0  0  0  0  0  0
   44.5900   12.9104   -3.1538 Br  0  0  0  0  0  0  0  0  0  0  0  0
   46.8742    9.2685   -0.1817 C   0  0  0  0  0  0  0  0  0  0  0  0
   45.8503    8.3266   -0.2934 C   0  0  0  0  0  0  0  0  0  0  0  0
   44.5115    8.7178   -0.3721 C   0  0  0  0  0  0  0  0  0  0  0  0
   44.1720   10.0681   -0.3623 C   0  0  0  0  0  0  0  0  0  0  0  0
   45.1750   11.0435   -0.3012 C   0  0  0  0  0  0  0  0  0  0  0  0
   46.5171   10.6255   -0.2442 C   0  0  0  0  0  0  0  0  0  0  0  0
   48.2329    8.9411   -0.1243 N   0  0  0  0  0  0  0  0  0  0  0  0
   48.8713    9.4428   -0.6810 H   0  0  0  0  0  0  0  0  0  0  0  0
   47.4299    6.9241    4.2990 C   0  0  0  0  0  0  0  0  0  0  0  0
   48.4153    6.8781    3.1092 C   0  0  0  0  0  0  0  0  0  0  0  0
   49.8145    7.1602    3.6891 C   0  0  0  0  0  0  0  0  0  0  0  0
   48.0159    7.9821    2.1047 C   0  0  0  0  0  0  0  0  0  0  0  0
   48.7321    7.8651    0.7475 C   0  0  0  0  0  0  0  0  0  0  0  0
   48.4284    6.4935    0.1291 C   0  0  0  0  0  0  0  0  0  0  0  0
   48.8636    5.3060    1.0137 C   0  0  0  0  0  0  0  0  0  0  0  0
   48.2677    4.0126    0.4078 C   0  0  0  0  0  0  0  0  0  0  0  0
   50.3927    5.1401    0.9923 C   0  0  0  0  0  0  0  0  0  0  0  0
   48.3147    5.4706    2.4564 C   0  0  0  0  0  0  0  0  0  0  0  0
   44.2974   15.9614    1.3722 C   0  0  0  0  0  0  0  0  0  0  0  0
   45.0742   16.3596    2.2276 O   0  0  0  0  0  0  0  0  0  0  0  0
   43.1493   16.6602    1.1764 O   0  0  0  0  0  0  0  0  0  0  0  0
   42.5346   16.3790    0.5275 H   0  0  0  0  0  0  0  0  0  0  0  0
   44.0688   15.7375   -1.6832 O   0  0  0  0  0  0  0  0  0  0  0  0
   42.6758   15.9060   -1.9636 C   0  0  0  0  0  0  0  0  0  0  0  0
   42.4446   15.6884   -3.4727 C   0  0  0  0  0  0  0  0  0  0  0  0
   42.5683   16.9635   -4.3816 N   0  0  0  0  0  0  0  0  0  0  0  0
   41.1650   17.2386   -5.0142 C   0  0  0  0  0  0  0  0  0  0  0  0
   42.9131   18.1923   -3.5593 C   0  0  0  0  0  0  0  0  0  0  0  0
   43.4758   16.7211   -5.5796 C   0  0  0  0  0  0  0  0  0  0  0  0
   44.0467   17.8646   -6.3999 N   0  0  0  0  0  0  0  0  0  0  0  0
   43.7666   17.4893   -7.8881 C   0  0  0  0  0  0  0  0  0  0  0  0
   43.3268   19.1981   -6.1769 C   0  0  0  0  0  0  0  0  0  0  0  0
   45.5438   18.0750   -6.2980 C   0  0  0  0  0  0  0  0  0  0  0  0
 15 16  1  0
 16 17  1  0
 16 18  1  0
 18 19  1  0
 19 13  1  0
 13  7  1  0
  7  8  2  0
  8  9  1  0
  9 10  2  0
 10 11  1  0
 11  1  1  0
  1  2  1  0
  2  3  1  0
  3 25  1  0
 25 26  2  0
 25 27  1  0
  3  4  2  0
  4 29  1  0
 29 30  1  0
 30 31  1  0
 31 32  1  0
 32 33  1  0
 32 34  1  0
 32 35  1  0
 35 36  1  0
 36 37  1  0
 36 38  1  0
 36 39  1  0
  4  5  1  0
  5  6  1  0
 11 12  2  0
 19 20  1  0
 20 21  1  0
 21 22  1  0
 21 23  1  0
 21 24  1  0
 24 16  1  0
 12  7  1  0
  5  1  2  0
 13 14  1  0
 27 28  1  0
M  CHG 1  32   1
M  CHG 1  36   1
M  END
> <minimizedAffinity>
-6.00614

> <CNNscore>
0.1621010602

> <CNNaffinity>
5.8017582893

> <CNN_VS>
0.9404711723

> <CNNaffinity_variance>
0.2927771509

$$$$
