


 34 37  0  0  0  0  0  0  0  0999 V2000
  -29.1061    2.1898   27.8106 N   0  0  0  0  0  0  0  0  0  0  0  0
  -29.4995    1.4934   26.6939 C   0  0  0  0  0  0  0  0  0  0  0  0
  -28.8304    0.5771   26.2220 O   0  0  0  0  0  0  0  0  0  0  0  0
  -29.7410    2.8047   28.2442 H   0  0  0  0  0  0  0  0  0  0  0  0
  -30.7975    1.8429   26.0539 C   0  0  0  0  0  0  0  0  0  0  0  0
  -30.8117    2.9856   25.2305 C   0  0  0  0  0  0  0  0  0  0  0  0
  -31.9857    3.4247   24.5923 C   0  0  0  0  0  0  0  0  0  0  0  0
  -33.1887    2.7405   24.7664 C   0  0  0  0  0  0  0  0  0  0  0  0
  -33.1954    1.6204   25.5825 C   0  0  0  0  0  0  0  0  0  0  0  0
  -32.0062    1.1802   26.2124 C   0  0  0  0  0  0  0  0  0  0  0  0
  -32.3838   -0.0140   27.0096 C   0  0  0  0  0  0  0  0  0  0  0  0
  -31.6551   -0.7105   27.6847 O   0  0  0  0  0  0  0  0  0  0  0  0
  -33.8273   -0.2398   26.8175 C   0  0  0  0  0  0  0  0  0  0  0  0
  -34.6292   -1.2279   27.3551 C   0  0  0  0  0  0  0  0  0  0  0  0
  -35.9736   -1.2028   26.9941 C   0  0  0  0  0  0  0  0  0  0  0  0
  -37.1469   -2.5166   27.6830 Br  0  0  0  0  0  0  0  0  0  0  0  0
  -36.4768   -0.2163   26.1244 C   0  0  0  0  0  0  0  0  0  0  0  0
  -35.6347    0.7726   25.5952 C   0  0  0  0  0  0  0  0  0  0  0  0
  -34.2964    0.7540   25.9496 C   0  0  0  0  0  0  0  0  0  0  0  0
  -27.7700    2.0369   28.3652 C   0  0  0  0  0  0  0  0  0  0  0  0
  -24.5069    4.8234   27.1608 C   0  0  0  0  0  0  0  0  0  0  0  0
  -24.7291    3.3097   27.2355 C   0  0  0  0  0  0  0  0  0  0  0  0
  -26.0759    2.9980   26.7171 N   0  0  0  0  0  0  0  0  0  0  0  0
  -26.7094    1.7715   27.2661 C   0  0  0  0  0  0  0  0  0  0  0  0
  -25.6727    0.7160   27.7002 C   0  0  0  0  0  0  0  0  0  0  0  0
  -24.9423    0.2709   26.5389 O   0  0  0  0  0  0  0  0  0  0  0  0
  -24.6583    1.2441   28.7308 C   0  0  0  0  0  0  0  0  0  0  0  0
  -25.0560    0.9147   30.0746 O   0  0  0  0  0  0  0  0  0  0  0  0
  -24.4342    2.7672   28.6478 C   0  0  0  0  0  0  0  0  0  0  0  0
  -25.2218    3.4442   29.6373 O   0  0  0  0  0  0  0  0  0  0  0  0
  -26.0047    2.8879   25.7055 H   0  0  0  0  0  0  0  0  0  0  0  0
  -24.4632    1.0201   26.1515 H   0  0  0  0  0  0  0  0  0  0  0  0
  -25.8916    1.3609   30.2831 H   0  0  0  0  0  0  0  0  0  0  0  0
  -26.1630    3.2807   29.4688 H   0  0  0  0  0  0  0  0  0  0  0  0
 22 21  1  0
 22 23  1  0
 23 24  1  0
 24 20  1  0
 20  1  1  0
  1  2  1  0
  2  3  2  0
  2  5  1  0
  5  6  2  0
  6  7  1  0
  7  8  2  0
  8  9  1  0
  9 10  2  0
 10 11  1  0
 11 12  2  0
 11 13  1  0
 13 14  2  0
 14 15  1  0
 15 16  1  0
 15 17  2  0
 17 18  1  0
 18 19  2  0
 24 25  1  0
 25 26  1  0
 25 27  1  0
 27 28  1  0
 27 29  1  0
 29 30  1  0
 29 22  1  0
 10  5  1  0
 19 13  1  0
 19  9  1  0
 23 31  1  0
  1  4  1  0
 26 32  1  0
 28 33  1  0
 30 34  1  0
M  END
> <minimizedAffinity>
-8.34974

> <CNNscore>
0.9667423964

> <CNNaffinity>
7.4599938393

> <CNN_VS>
7.2118921280

> <CNNaffinity_variance>
0.3230953217

$$$$



 34 37  0  0  0  0  0  0  0  0999 V2000
  -35.1153    8.3525   18.7452 N   0  0  0  0  0  0  0  0  0  0  0  0
  -35.7596    8.6416   19.9234 C   0  0  0  0  0  0  0  0  0  0  0  0
  -36.9147    9.0596   19.9545 O   0  0  0  0  0  0  0  0  0  0  0  0
  -34.2547    7.8750   18.7706 H   0  0  0  0  0  0  0  0  0  0  0  0
  -35.0413    8.4099   21.2066 C   0  0  0  0  0  0  0  0  0  0  0  0
  -34.5817    9.5516   21.8917 C   0  0  0  0  0  0  0  0  0  0  0  0
  -33.8710    9.4538   23.1015 C   0  0  0  0  0  0  0  0  0  0  0  0
  -33.5861    8.2081   23.6608 C   0  0  0  0  0  0  0  0  0  0  0  0
  -34.0209    7.0736   22.9941 C   0  0  0  0  0  0  0  0  0  0  0  0
  -34.7447    7.1826   21.7820 C   0  0  0  0  0  0  0  0  0  0  0  0
  -35.0266    5.7912   21.3477 C   0  0  0  0  0  0  0  0  0  0  0  0
  -35.6465    5.4360   20.3671 O   0  0  0  0  0  0  0  0  0  0  0  0
  -34.4379    4.8840   22.3487 C   0  0  0  0  0  0  0  0  0  0  0  0
  -34.4421    3.5028   22.3755 C   0  0  0  0  0  0  0  0  0  0  0  0
  -33.8060    2.8998   23.4572 C   0  0  0  0  0  0  0  0  0  0  0  0
  -33.7611    1.0128   23.5767 Br  0  0  0  0  0  0  0  0  0  0  0  0
  -33.1950    3.6696   24.4655 C   0  0  0  0  0  0  0  0  0  0  0  0
  -33.2098    5.0709   24.4083 C   0  0  0  0  0  0  0  0  0  0  0  0
  -33.8405    5.6778   23.3356 C   0  0  0  0  0  0  0  0  0  0  0  0
  -35.6792    8.7375   17.4607 C   0  0  0  0  0  0  0  0  0  0  0  0
  -39.7496   10.0409   16.1974 C   0  0  0  0  0  0  0  0  0  0  0  0
  -38.7817    8.8963   15.8820 C   0  0  0  0  0  0  0  0  0  0  0  0
  -38.1895    8.4095   17.1438 N   0  0  0  0  0  0  0  0  0  0  0  0
  -36.8383    7.8029   17.0292 C   0  0  0  0  0  0  0  0  0  0  0  0
  -36.5914    7.1701   15.6451 C   0  0  0  0  0  0  0  0  0  0  0  0
  -37.5097    6.0734   15.4604 O   0  0  0  0  0  0  0  0  0  0  0  0
  -36.7833    8.1571   14.4794 C   0  0  0  0  0  0  0  0  0  0  0  0
  -35.5293    8.7308   14.0659 O   0  0  0  0  0  0  0  0  0  0  0  0
  -37.7625    9.3040   14.7999 C   0  0  0  0  0  0  0  0  0  0  0  0
  -37.0432   10.4841   15.1846 O   0  0  0  0  0  0  0  0  0  0  0  0
  -38.8168    7.7059   17.5336 H   0  0  0  0  0  0  0  0  0  0  0  0
  -38.4202    6.4074   15.4793 H   0  0  0  0  0  0  0  0  0  0  0  0
  -35.1598    9.2576   14.7918 H   0  0  0  0  0  0  0  0  0  0  0  0
  -36.5344   10.3043   15.9907 H   0  0  0  0  0  0  0  0  0  0  0  0
 22 21  1  0
 22 23  1  0
 23 24  1  0
 24 20  1  0
 20  1  1  0
  1  2  1  0
  2  3  2  0
  2  5  1  0
  5  6  2  0
  6  7  1  0
  7  8  2  0
  8  9  1  0
  9 10  2  0
 10 11  1  0
 11 12  2  0
 11 13  1  0
 13 14  2  0
 14 15  1  0
 15 16  1  0
 15 17  2  0
 17 18  1  0
 18 19  2  0
 24 25  1  0
 25 26  1  0
 25 27  1  0
 27 28  1  0
 27 29  1  0
 29 30  1  0
 29 22  1  0
 10  5  1  0
 19 13  1  0
 19  9  1  0
 23 31  1  0
  1  4  1  0
 26 32  1  0
 28 33  1  0
 30 34  1  0
M  END
> <minimizedAffinity>
-7.34193

> <CNNscore>
0.2755617499

> <CNNaffinity>
4.6784744263

> <CNN_VS>
1.2892086506

> <CNNaffinity_variance>
1.2022067308

$$$$



 34 37  0  0  0  0  0  0  0  0999 V2000
  -32.0827    0.6085   24.4625 N   0  0  0  0  0  0  0  0  0  0  0  0
  -31.8262    0.7565   25.8038 C   0  0  0  0  0  0  0  0  0  0  0  0
  -31.6512    1.8572   26.3212 O   0  0  0  0  0  0  0  0  0  0  0  0
  -32.3706   -0.2685   24.1203 H   0  0  0  0  0  0  0  0  0  0  0  0
  -31.7905   -0.4587   26.6632 C   0  0  0  0  0  0  0  0  0  0  0  0
  -32.9513   -0.7428   27.4090 C   0  0  0  0  0  0  0  0  0  0  0  0
  -33.0249   -1.8509   28.2720 C   0  0  0  0  0  0  0  0  0  0  0  0
  -31.9339   -2.7062   28.4265 C   0  0  0  0  0  0  0  0  0  0  0  0
  -30.7797   -2.4351   27.7089 C   0  0  0  0  0  0  0  0  0  0  0  0
  -30.7188   -1.3230   26.8346 C   0  0  0  0  0  0  0  0  0  0  0  0
  -29.3504   -1.3303   26.2587 C   0  0  0  0  0  0  0  0  0  0  0  0
  -28.8894   -0.5592   25.4434 O   0  0  0  0  0  0  0  0  0  0  0  0
  -28.6307   -2.4801   26.8344 C   0  0  0  0  0  0  0  0  0  0  0  0
  -27.3338   -2.8956   26.6022 C   0  0  0  0  0  0  0  0  0  0  0  0
  -26.9125   -4.0318   27.2877 C   0  0  0  0  0  0  0  0  0  0  0  0
  -25.1517   -4.6733   27.0324 Br  0  0  0  0  0  0  0  0  0  0  0  0
  -27.7741   -4.7134   28.1685 C   0  0  0  0  0  0  0  0  0  0  0  0
  -29.0860   -4.2652   28.3810 C   0  0  0  0  0  0  0  0  0  0  0  0
  -29.5122   -3.1359   27.7027 C   0  0  0  0  0  0  0  0  0  0  0  0
  -31.9375    1.7219   23.5376 C   0  0  0  0  0  0  0  0  0  0  0  0
  -33.2631    1.5800   19.2849 C   0  0  0  0  0  0  0  0  0  0  0  0
  -31.9801    1.9010   20.0577 C   0  0  0  0  0  0  0  0  0  0  0  0
  -31.8022    0.8981   21.1266 N   0  0  0  0  0  0  0  0  0  0  0  0
  -31.0481    1.3572   22.3214 C   0  0  0  0  0  0  0  0  0  0  0  0
  -30.0340    2.4695   21.9873 C   0  0  0  0  0  0  0  0  0  0  0  0
  -29.0328    1.9386   21.0952 O   0  0  0  0  0  0  0  0  0  0  0  0
  -30.6739    3.6968   21.3133 C   0  0  0  0  0  0  0  0  0  0  0  0
  -30.9744    4.7258   22.2742 O   0  0  0  0  0  0  0  0  0  0  0  0
  -31.9616    3.3675   20.5322 C   0  0  0  0  0  0  0  0  0  0  0  0
  -33.1191    3.6700   21.3239 O   0  0  0  0  0  0  0  0  0  0  0  0
  -31.3048    0.1013   20.7291 H   0  0  0  0  0  0  0  0  0  0  0  0
  -29.4534    1.6578   20.2674 H   0  0  0  0  0  0  0  0  0  0  0  0
  -31.6395    4.3993   22.9003 H   0  0  0  0  0  0  0  0  0  0  0  0
  -33.1169    3.1203   22.1231 H   0  0  0  0  0  0  0  0  0  0  0  0
 22 21  1  0
 22 23  1  0
 23 24  1  0
 24 20  1  0
 20  1  1  0
  1  2  1  0
  2  3  2  0
  2  5  1  0
  5  6  2  0
  6  7  1  0
  7  8  2  0
  8  9  1  0
  9 10  2  0
 10 11  1  0
 11 12  2  0
 11 13  1  0
 13 14  2  0
 14 15  1  0
 15 16  1  0
 15 17  2  0
 17 18  1  0
 18 19  2  0
 24 25  1  0
 25 26  1  0
 25 27  1  0
 27 28  1  0
 27 29  1  0
 29 30  1  0
 29 22  1  0
 10  5  1  0
 19 13  1  0
 19  9  1  0
 23 31  1  0
  1  4  1  0
 26 32  1  0
 28 33  1  0
 30 34  1  0
M  END
> <minimizedAffinity>
-6.86812

> <CNNscore>
0.2600004077

> <CNNaffinity>
3.7759120464

> <CNN_VS>
0.9817386866

> <CNNaffinity_variance>
1.0081413984

$$$$



 34 37  0  0  0  0  0  0  0  0999 V2000
  -34.3089    5.0585   23.7570 N   0  0  0  0  0  0  0  0  0  0  0  0
  -33.3869    6.0123   23.4006 C   0  0  0  0  0  0  0  0  0  0  0  0
  -32.1785    5.8445   23.5476 O   0  0  0  0  0  0  0  0  0  0  0  0
  -35.2473    5.1672   23.4794 H   0  0  0  0  0  0  0  0  0  0  0  0
  -33.8700    7.2794   22.7864 C   0  0  0  0  0  0  0  0  0  0  0  0
  -33.5126    8.4766   23.4370 C   0  0  0  0  0  0  0  0  0  0  0  0
  -33.9309    9.7322   22.9609 C   0  0  0  0  0  0  0  0  0  0  0  0
  -34.7316    9.8311   21.8231 C   0  0  0  0  0  0  0  0  0  0  0  0
  -35.1024    8.6624   21.1769 C   0  0  0  0  0  0  0  0  0  0  0  0
  -34.6676    7.4036   21.6579 C   0  0  0  0  0  0  0  0  0  0  0  0
  -35.2598    6.3914   20.7474 C   0  0  0  0  0  0  0  0  0  0  0  0
  -35.1173    5.1874   20.7909 O   0  0  0  0  0  0  0  0  0  0  0  0
  -36.0493    7.1121   19.7331 C   0  0  0  0  0  0  0  0  0  0  0  0
  -36.7812    6.5997   18.6794 C   0  0  0  0  0  0  0  0  0  0  0  0
  -37.4321    7.5240   17.8667 C   0  0  0  0  0  0  0  0  0  0  0  0
  -38.4586    6.9134   16.4002 Br  0  0  0  0  0  0  0  0  0  0  0  0
  -37.3400    8.9067   18.1162 C   0  0  0  0  0  0  0  0  0  0  0  0
  -36.5873    9.3938   19.1947 C   0  0  0  0  0  0  0  0  0  0  0  0
  -35.9370    8.4807   20.0074 C   0  0  0  0  0  0  0  0  0  0  0  0
  -33.9267    3.8911   24.5362 C   0  0  0  0  0  0  0  0  0  0  0  0
  -30.5971    3.3544   21.6226 C   0  0  0  0  0  0  0  0  0  0  0  0
  -31.4491    2.4709   22.5392 C   0  0  0  0  0  0  0  0  0  0  0  0
  -32.8585    2.9000   22.4418 N   0  0  0  0  0  0  0  0  0  0  0  0
  -33.6938    2.6452   23.6436 C   0  0  0  0  0  0  0  0  0  0  0  0
  -33.2029    1.4303   24.4562 C   0  0  0  0  0  0  0  0  0  0  0  0
  -33.3366    0.2420   23.6500 O   0  0  0  0  0  0  0  0  0  0  0  0
  -31.7331    1.5457   24.8994 C   0  0  0  0  0  0  0  0  0  0  0  0
  -31.6284    2.0581   26.2407 O   0  0  0  0  0  0  0  0  0  0  0  0
  -30.8788    2.4313   23.9707 C   0  0  0  0  0  0  0  0  0  0  0  0
  -30.7530    3.7527   24.5146 O   0  0  0  0  0  0  0  0  0  0  0  0
  -33.2823    2.4078   21.6554 H   0  0  0  0  0  0  0  0  0  0  0  0
  -32.7769    0.3214   22.8617 H   0  0  0  0  0  0  0  0  0  0  0  0
  -31.9783    2.9624   26.2696 H   0  0  0  0  0  0  0  0  0  0  0  0
  -31.6305    4.1614   24.5773 H   0  0  0  0  0  0  0  0  0  0  0  0
 22 21  1  0
 22 23  1  0
 23 24  1  0
 24 20  1  0
 20  1  1  0
  1  2  1  0
  2  3  2  0
  2  5  1  0
  5  6  2  0
  6  7  1  0
  7  8  2  0
  8  9  1  0
  9 10  2  0
 10 11  1  0
 11 12  2  0
 11 13  1  0
 13 14  2  0
 14 15  1  0
 15 16  1  0
 15 17  2  0
 17 18  1  0
 18 19  2  0
 24 25  1  0
 25 26  1  0
 25 27  1  0
 27 28  1  0
 27 29  1  0
 29 30  1  0
 29 22  1  0
 10  5  1  0
 19 13  1  0
 19  9  1  0
 23 31  1  0
  1  4  1  0
 26 32  1  0
 28 33  1  0
 30 34  1  0
M  END
> <minimizedAffinity>
-7.25657

> <CNNscore>
0.2473957092

> <CNNaffinity>
4.4706950188

> <CNN_VS>
1.1060308218

> <CNNaffinity_variance>
0.4444922507

$$$$



 34 37  0  0  0  0  0  0  0  0999 V2000
  -35.0097    7.4372   18.9302 N   0  0  0  0  0  0  0  0  0  0  0  0
  -35.7397    7.3309   20.0889 C   0  0  0  0  0  0  0  0  0  0  0  0
  -36.9451    7.0918   20.0857 O   0  0  0  0  0  0  0  0  0  0  0  0
  -34.0271    7.4723   18.9807 H   0  0  0  0  0  0  0  0  0  0  0  0
  -35.0371    7.4801   21.3928 C   0  0  0  0  0  0  0  0  0  0  0  0
  -34.6214    8.7792   21.7447 C   0  0  0  0  0  0  0  0  0  0  0  0
  -33.9289    9.0371   22.9414 C   0  0  0  0  0  0  0  0  0  0  0  0
  -33.6187    8.0005   23.8216 C   0  0  0  0  0  0  0  0  0  0  0  0
  -34.0101    6.7141   23.4857 C   0  0  0  0  0  0  0  0  0  0  0  0
  -34.7160    6.4660   22.2836 C   0  0  0  0  0  0  0  0  0  0  0  0
  -34.9513    5.0006   22.2428 C   0  0  0  0  0  0  0  0  0  0  0  0
  -35.5442    4.3725   21.3909 O   0  0  0  0  0  0  0  0  0  0  0  0
  -34.3544    4.4194   23.4582 C   0  0  0  0  0  0  0  0  0  0  0  0
  -34.3202    3.0983   23.8606 C   0  0  0  0  0  0  0  0  0  0  0  0
  -33.6859    2.8331   25.0713 C   0  0  0  0  0  0  0  0  0  0  0  0
  -33.5901    1.0523   25.7011 Br  0  0  0  0  0  0  0  0  0  0  0  0
  -33.1139    3.8673   25.8367 C   0  0  0  0  0  0  0  0  0  0  0  0
  -33.1671    5.1988   25.3995 C   0  0  0  0  0  0  0  0  0  0  0  0
  -33.7964    5.4704   24.1964 C   0  0  0  0  0  0  0  0  0  0  0  0
  -35.6593    7.4990   17.6301 C   0  0  0  0  0  0  0  0  0  0  0  0
  -34.4509   11.0744   15.2596 C   0  0  0  0  0  0  0  0  0  0  0  0
  -35.7502   10.3567   15.6379 C   0  0  0  0  0  0  0  0  0  0  0  0
  -35.6938    9.9871   17.0663 N   0  0  0  0  0  0  0  0  0  0  0  0
  -36.4911    8.7955   17.4551 C   0  0  0  0  0  0  0  0  0  0  0  0
  -37.7163    8.5826   16.5437 C   0  0  0  0  0  0  0  0  0  0  0  0
  -38.6154    9.6997   16.6981 O   0  0  0  0  0  0  0  0  0  0  0  0
  -37.3543    8.4616   15.0523 C   0  0  0  0  0  0  0  0  0  0  0  0
  -37.2394    7.0839   14.6505 O   0  0  0  0  0  0  0  0  0  0  0  0
  -36.0489    9.1902   14.6756 C   0  0  0  0  0  0  0  0  0  0  0  0
  -34.9540    8.2645   14.6287 O   0  0  0  0  0  0  0  0  0  0  0  0
  -36.0324   10.7815   17.6092 H   0  0  0  0  0  0  0  0  0  0  0  0
  -38.1702   10.5143   16.4167 H   0  0  0  0  0  0  0  0  0  0  0  0
  -36.5053    6.6678   15.1287 H   0  0  0  0  0  0  0  0  0  0  0  0
  -34.8238    7.8729   15.5066 H   0  0  0  0  0  0  0  0  0  0  0  0
 22 21  1  0
 22 23  1  0
 23 24  1  0
 24 20  1  0
 20  1  1  0
  1  2  1  0
  2  3  2  0
  2  5  1  0
  5  6  2  0
  6  7  1  0
  7  8  2  0
  8  9  1  0
  9 10  2  0
 10 11  1  0
 11 12  2  0
 11 13  1  0
 13 14  2  0
 14 15  1  0
 15 16  1  0
 15 17  2  0
 17 18  1  0
 18 19  2  0
 24 25  1  0
 25 26  1  0
 25 27  1  0
 27 28  1  0
 27 29  1  0
 29 30  1  0
 29 22  1  0
 10  5  1  0
 19 13  1  0
 19  9  1  0
 23 31  1  0
  1  4  1  0
 26 32  1  0
 28 33  1  0
 30 34  1  0
M  END
> <minimizedAffinity>
-7.99054

> <CNNscore>
0.2442964464

> <CNNaffinity>
4.3762545586

> <CNN_VS>
1.0691034794

> <CNNaffinity_variance>
0.9625670314

$$$$



 34 37  0  0  0  0  0  0  0  0999 V2000
  -32.5805    5.3071   23.3318 N   0  0  0  0  0  0  0  0  0  0  0  0
  -33.6189    6.0839   23.7845 C   0  0  0  0  0  0  0  0  0  0  0  0
  -34.2292    5.8259   24.8193 O   0  0  0  0  0  0  0  0  0  0  0  0
  -32.0211    5.6338   22.5905 H   0  0  0  0  0  0  0  0  0  0  0  0
  -33.9951    7.2974   23.0083 C   0  0  0  0  0  0  0  0  0  0  0  0
  -33.6269    8.5412   23.5574 C   0  0  0  0  0  0  0  0  0  0  0  0
  -33.9490    9.7552   22.9243 C   0  0  0  0  0  0  0  0  0  0  0  0
  -34.6612    9.7654   21.7251 C   0  0  0  0  0  0  0  0  0  0  0  0
  -35.0415    8.5508   21.1765 C   0  0  0  0  0  0  0  0  0  0  0  0
  -34.7036    7.3335   21.8159 C   0  0  0  0  0  0  0  0  0  0  0  0
  -35.2782    6.2554   20.9722 C   0  0  0  0  0  0  0  0  0  0  0  0
  -35.1978    5.0580   21.1501 O   0  0  0  0  0  0  0  0  0  0  0  0
  -35.9578    6.8959   19.8324 C   0  0  0  0  0  0  0  0  0  0  0  0
  -36.6371    6.3049   18.7847 C   0  0  0  0  0  0  0  0  0  0  0  0
  -37.1830    7.1634   17.8342 C   0  0  0  0  0  0  0  0  0  0  0  0
  -38.1313    6.4430   16.3650 Br  0  0  0  0  0  0  0  0  0  0  0  0
  -37.0418    8.5599   17.9464 C   0  0  0  0  0  0  0  0  0  0  0  0
  -36.3447    9.1277   19.0229 C   0  0  0  0  0  0  0  0  0  0  0  0
  -35.7989    8.2802   19.9721 C   0  0  0  0  0  0  0  0  0  0  0  0
  -32.2907    4.0113   23.9259 C   0  0  0  0  0  0  0  0  0  0  0  0
  -29.2728    2.4289   26.7985 C   0  0  0  0  0  0  0  0  0  0  0  0
  -29.6657    2.2038   25.3352 C   0  0  0  0  0  0  0  0  0  0  0  0
  -29.9107    3.5134   24.6990 N   0  0  0  0  0  0  0  0  0  0  0  0
  -30.8694    3.5088   23.5642 C   0  0  0  0  0  0  0  0  0  0  0  0
  -30.9007    2.1567   22.8240 C   0  0  0  0  0  0  0  0  0  0  0  0
  -29.6107    1.9208   22.2237 O   0  0  0  0  0  0  0  0  0  0  0  0
  -31.2267    0.9651   23.7426 C   0  0  0  0  0  0  0  0  0  0  0  0
  -32.6280    0.6375   23.6994 O   0  0  0  0  0  0  0  0  0  0  0  0
  -30.8244    1.1945   25.2130 C   0  0  0  0  0  0  0  0  0  0  0  0
  -31.9594    1.6138   25.9836 O   0  0  0  0  0  0  0  0  0  0  0  0
  -29.0180    3.8660   24.3537 H   0  0  0  0  0  0  0  0  0  0  0  0
  -28.9358    1.8668   22.9183 H   0  0  0  0  0  0  0  0  0  0  0  0
  -33.1447    1.3808   24.0479 H   0  0  0  0  0  0  0  0  0  0  0  0
  -32.2901    2.4581   25.6391 H   0  0  0  0  0  0  0  0  0  0  0  0
 22 21  1  0
 22 23  1  0
 23 24  1  0
 24 20  1  0
 20  1  1  0
  1  2  1  0
  2  3  2  0
  2  5  1  0
  5  6  2  0
  6  7  1  0
  7  8  2  0
  8  9  1  0
  9 10  2  0
 10 11  1  0
 11 12  2  0
 11 13  1  0
 13 14  2  0
 14 15  1  0
 15 16  1  0
 15 17  2  0
 17 18  1  0
 18 19  2  0
 24 25  1  0
 25 26  1  0
 25 27  1  0
 27 28  1  0
 27 29  1  0
 29 30  1  0
 29 22  1  0
 10  5  1  0
 19 13  1  0
 19  9  1  0
 23 31  1  0
  1  4  1  0
 26 32  1  0
 28 33  1  0
 30 34  1  0
M  END
> <minimizedAffinity>
-7.92227

> <CNNscore>
0.2438548505

> <CNNaffinity>
4.4638004303

> <CNN_VS>
1.0885193348

> <CNNaffinity_variance>
0.8200783730

$$$$



 34 37  0  0  0  0  0  0  0  0999 V2000
  -34.6701    8.1735   18.5294 N   0  0  0  0  0  0  0  0  0  0  0  0
  -35.4755    7.7900   19.5740 C   0  0  0  0  0  0  0  0  0  0  0  0
  -36.6133    7.3591   19.4017 O   0  0  0  0  0  0  0  0  0  0  0  0
  -33.7186    8.3621   18.6979 H   0  0  0  0  0  0  0  0  0  0  0  0
  -34.9366    7.8711   20.9594 C   0  0  0  0  0  0  0  0  0  0  0  0
  -34.6878    9.1605   21.4690 C   0  0  0  0  0  0  0  0  0  0  0  0
  -34.1576    9.3588   22.7566 C   0  0  0  0  0  0  0  0  0  0  0  0
  -33.8475    8.2718   23.5737 C   0  0  0  0  0  0  0  0  0  0  0  0
  -34.0752    6.9955   23.0838 C   0  0  0  0  0  0  0  0  0  0  0  0
  -34.6190    6.8062   21.7902 C   0  0  0  0  0  0  0  0  0  0  0  0
  -34.7073    5.3371   21.5949 C   0  0  0  0  0  0  0  0  0  0  0  0
  -35.1411    4.7465   20.6280 O   0  0  0  0  0  0  0  0  0  0  0  0
  -34.1936    4.6934   22.8169 C   0  0  0  0  0  0  0  0  0  0  0  0
  -34.0773    3.3471   23.1042 C   0  0  0  0  0  0  0  0  0  0  0  0
  -33.5563    3.0205   24.3533 C   0  0  0  0  0  0  0  0  0  0  0  0
  -33.3599    1.2016   24.8330 Br  0  0  0  0  0  0  0  0  0  0  0  0
  -33.1726    4.0203   25.2675 C   0  0  0  0  0  0  0  0  0  0  0  0
  -33.3048    5.3787   24.9443 C   0  0  0  0  0  0  0  0  0  0  0  0
  -33.8223    5.7114   23.7039 C   0  0  0  0  0  0  0  0  0  0  0  0
  -35.1950    8.3067   17.1793 C   0  0  0  0  0  0  0  0  0  0  0  0
  -36.7376    4.1295   17.3640 C   0  0  0  0  0  0  0  0  0  0  0  0
  -36.2068    5.0911   16.2963 C   0  0  0  0  0  0  0  0  0  0  0  0
  -35.0173    5.7859   16.8276 N   0  0  0  0  0  0  0  0  0  0  0  0
  -34.7545    7.1353   16.2644 C   0  0  0  0  0  0  0  0  0  0  0  0
  -35.2875    7.2879   14.8257 C   0  0  0  0  0  0  0  0  0  0  0  0
  -34.5750    6.3781   13.9627 O   0  0  0  0  0  0  0  0  0  0  0  0
  -36.7925    6.9905   14.6973 C   0  0  0  0  0  0  0  0  0  0  0  0
  -37.5728    8.1991   14.7540 O   0  0  0  0  0  0  0  0  0  0  0  0
  -37.3206    6.0180   15.7707 C   0  0  0  0  0  0  0  0  0  0  0  0
  -37.9396    6.7430   16.8427 O   0  0  0  0  0  0  0  0  0  0  0  0
  -34.2025    5.2027   16.6370 H   0  0  0  0  0  0  0  0  0  0  0  0
  -34.7396    5.4658   14.2482 H   0  0  0  0  0  0  0  0  0  0  0  0
  -37.4650    8.6130   15.6246 H   0  0  0  0  0  0  0  0  0  0  0  0
  -37.2818    7.3145   17.2687 H   0  0  0  0  0  0  0  0  0  0  0  0
 22 21  1  0
 22 23  1  0
 23 24  1  0
 24 20  1  0
 20  1  1  0
  1  2  1  0
  2  3  2  0
  2  5  1  0
  5  6  2  0
  6  7  1  0
  7  8  2  0
  8  9  1  0
  9 10  2  0
 10 11  1  0
 11 12  2  0
 11 13  1  0
 13 14  2  0
 14 15  1  0
 15 16  1  0
 15 17  2  0
 17 18  1  0
 18 19  2  0
 24 25  1  0
 25 26  1  0
 25 27  1  0
 27 28  1  0
 27 29  1  0
 29 30  1  0
 29 22  1  0
 10  5  1  0
 19 13  1  0
 19  9  1  0
 23 31  1  0
  1  4  1  0
 26 32  1  0
 28 33  1  0
 30 34  1  0
M  END
> <minimizedAffinity>
-7.18375

> <CNNscore>
0.2297265232

> <CNNaffinity>
4.1133933067

> <CNN_VS>
0.9449555278

> <CNNaffinity_variance>
1.1012419462

$$$$



 34 37  0  0  0  0  0  0  0  0999 V2000
  -32.0720    3.4661   22.9872 N   0  0  0  0  0  0  0  0  0  0  0  0
  -31.7527    3.6968   24.3031 C   0  0  0  0  0  0  0  0  0  0  0  0
  -31.8108    4.8165   24.8061 O   0  0  0  0  0  0  0  0  0  0  0  0
  -32.1636    2.5392   22.6684 H   0  0  0  0  0  0  0  0  0  0  0  0
  -31.3529    2.5430   25.1546 C   0  0  0  0  0  0  0  0  0  0  0  0
  -29.9718    2.3485   25.3520 C   0  0  0  0  0  0  0  0  0  0  0  0
  -29.4763    1.2785   26.1187 C   0  0  0  0  0  0  0  0  0  0  0  0
  -30.3469    0.3596   26.7046 C   0  0  0  0  0  0  0  0  0  0  0  0
  -31.7087    0.5293   26.5111 C   0  0  0  0  0  0  0  0  0  0  0  0
  -32.1985    1.6155   25.7462 C   0  0  0  0  0  0  0  0  0  0  0  0
  -33.6764    1.4741   25.7349 C   0  0  0  0  0  0  0  0  0  0  0  0
  -34.4837    2.2118   25.2096 O   0  0  0  0  0  0  0  0  0  0  0  0
  -34.0148    0.2705   26.5149 C   0  0  0  0  0  0  0  0  0  0  0  0
  -35.2589   -0.2664   26.7843 C   0  0  0  0  0  0  0  0  0  0  0  0
  -35.2827   -1.4218   27.5607 C   0  0  0  0  0  0  0  0  0  0  0  0
  -36.9418   -2.2276   27.9793 Br  0  0  0  0  0  0  0  0  0  0  0  0
  -34.0932   -2.0023   28.0410 C   0  0  0  0  0  0  0  0  0  0  0  0
  -32.8459   -1.4308   27.7497 C   0  0  0  0  0  0  0  0  0  0  0  0
  -32.8141   -0.2815   26.9781 C   0  0  0  0  0  0  0  0  0  0  0  0
  -32.2775    4.5640   22.0552 C   0  0  0  0  0  0  0  0  0  0  0  0
  -35.5580    1.5605   21.7719 C   0  0  0  0  0  0  0  0  0  0  0  0
  -35.1107    2.8185   21.0211 C   0  0  0  0  0  0  0  0  0  0  0  0
  -33.6447    2.7779   20.8509 N   0  0  0  0  0  0  0  0  0  0  0  0
  -32.9713    4.0982   20.7495 C   0  0  0  0  0  0  0  0  0  0  0  0
  -33.8911    5.1856   20.1590 C   0  0  0  0  0  0  0  0  0  0  0  0
  -34.2243    4.8313   18.8012 O   0  0  0  0  0  0  0  0  0  0  0  0
  -35.2038    5.3666   20.9428 C   0  0  0  0  0  0  0  0  0  0  0  0
  -35.1035    6.4441   21.8922 O   0  0  0  0  0  0  0  0  0  0  0  0
  -35.6524    4.0961   21.6921 C   0  0  0  0  0  0  0  0  0  0  0  0
  -35.2608    4.1628   23.0705 O   0  0  0  0  0  0  0  0  0  0  0  0
  -33.4425    2.2566   19.9978 H   0  0  0  0  0  0  0  0  0  0  0  0
  -34.7106    3.9920   18.7961 H   0  0  0  0  0  0  0  0  0  0  0  0
  -34.4330    6.2265   22.5586 H   0  0  0  0  0  0  0  0  0  0  0  0
  -34.2936    4.2074   23.1301 H   0  0  0  0  0  0  0  0  0  0  0  0
 22 21  1  0
 22 23  1  0
 23 24  1  0
 24 20  1  0
 20  1  1  0
  1  2  1  0
  2  3  2  0
  2  5  1  0
  5  6  2  0
  6  7  1  0
  7  8  2  0
  8  9  1  0
  9 10  2  0
 10 11  1  0
 11 12  2  0
 11 13  1  0
 13 14  2  0
 14 15  1  0
 15 16  1  0
 15 17  2  0
 17 18  1  0
 18 19  2  0
 24 25  1  0
 25 26  1  0
 25 27  1  0
 27 28  1  0
 27 29  1  0
 29 30  1  0
 29 22  1  0
 10  5  1  0
 19 13  1  0
 19  9  1  0
 23 31  1  0
  1  4  1  0
 26 32  1  0
 28 33  1  0
 30 34  1  0
M  END
> <minimizedAffinity>
-6.86478

> <CNNscore>
0.2016831636

> <CNNaffinity>
3.5282614231

> <CNN_VS>
0.7115909457

> <CNNaffinity_variance>
1.2702215910

$$$$



 34 37  0  0  0  0  0  0  0  0999 V2000
  -33.9683    4.2376   23.3753 N   0  0  0  0  0  0  0  0  0  0  0  0
  -33.1841    5.1031   22.6523 C   0  0  0  0  0  0  0  0  0  0  0  0
  -32.0828    4.7801   22.2131 O   0  0  0  0  0  0  0  0  0  0  0  0
  -34.9017    4.4817   23.5715 H   0  0  0  0  0  0  0  0  0  0  0  0
  -33.7029    6.4689   22.3663 C   0  0  0  0  0  0  0  0  0  0  0  0
  -33.3857    7.4762   23.2983 C   0  0  0  0  0  0  0  0  0  0  0  0
  -33.8401    8.7984   23.1440 C   0  0  0  0  0  0  0  0  0  0  0  0
  -34.6377    9.1543   22.0565 C   0  0  0  0  0  0  0  0  0  0  0  0
  -34.9690    8.1730   21.1356 C   0  0  0  0  0  0  0  0  0  0  0  0
  -34.4981    6.8470   21.2941 C   0  0  0  0  0  0  0  0  0  0  0  0
  -35.0542    6.0767   20.1532 C   0  0  0  0  0  0  0  0  0  0  0  0
  -34.8750    4.9042   19.8979 O   0  0  0  0  0  0  0  0  0  0  0  0
  -35.8604    7.0041   19.3400 C   0  0  0  0  0  0  0  0  0  0  0  0
  -36.5709    6.7493   18.1829 C   0  0  0  0  0  0  0  0  0  0  0  0
  -37.2457    7.8277   17.6172 C   0  0  0  0  0  0  0  0  0  0  0  0
  -38.2455    7.5720   16.0322 Br  0  0  0  0  0  0  0  0  0  0  0  0
  -37.1975    9.1069   18.2037 C   0  0  0  0  0  0  0  0  0  0  0  0
  -36.4656    9.3318   19.3788 C   0  0  0  0  0  0  0  0  0  0  0  0
  -35.7917    8.2641   19.9472 C   0  0  0  0  0  0  0  0  0  0  0  0
  -33.4474    2.9676   23.8567 C   0  0  0  0  0  0  0  0  0  0  0  0
  -31.7080   -0.3754   26.2361 C   0  0  0  0  0  0  0  0  0  0  0  0
  -31.5599    1.1468   26.1515 C   0  0  0  0  0  0  0  0  0  0  0  0
  -32.9015    1.7518   26.0324 N   0  0  0  0  0  0  0  0  0  0  0  0
  -32.9590    3.0570   25.3254 C   0  0  0  0  0  0  0  0  0  0  0  0
  -31.6468    3.8562   25.4549 C   0  0  0  0  0  0  0  0  0  0  0  0
  -31.4374    4.1920   26.8418 O   0  0  0  0  0  0  0  0  0  0  0  0
  -30.4107    3.0857   24.9566 C   0  0  0  0  0  0  0  0  0  0  0  0
  -30.0910    3.4305   23.5959 O   0  0  0  0  0  0  0  0  0  0  0  0
  -30.5626    1.5543   25.0491 C   0  0  0  0  0  0  0  0  0  0  0  0
  -30.9458    1.0111   23.7778 O   0  0  0  0  0  0  0  0  0  0  0  0
  -33.2681    1.8892   26.9743 H   0  0  0  0  0  0  0  0  0  0  0  0
  -31.3452    3.3780   27.3612 H   0  0  0  0  0  0  0  0  0  0  0  0
  -30.8173    3.1572   23.0139 H   0  0  0  0  0  0  0  0  0  0  0  0
  -31.8080    1.3722   23.5186 H   0  0  0  0  0  0  0  0  0  0  0  0
 22 21  1  0
 22 23  1  0
 23 24  1  0
 24 20  1  0
 20  1  1  0
  1  2  1  0
  2  3  2  0
  2  5  1  0
  5  6  2  0
  6  7  1  0
  7  8  2  0
  8  9  1  0
  9 10  2  0
 10 11  1  0
 11 12  2  0
 11 13  1  0
 13 14  2  0
 14 15  1  0
 15 16  1  0
 15 17  2  0
 17 18  1  0
 18 19  2  0
 24 25  1  0
 25 26  1  0
 25 27  1  0
 27 28  1  0
 27 29  1  0
 29 30  1  0
 29 22  1  0
 10  5  1  0
 19 13  1  0
 19  9  1  0
 23 31  1  0
  1  4  1  0
 26 32  1  0
 28 33  1  0
 30 34  1  0
M  END
> <minimizedAffinity>
-7.32032

> <CNNscore>
0.2007962167

> <CNNaffinity>
4.1493892670

> <CNN_VS>
0.8331816792

> <CNNaffinity_variance>
0.5669534802

$$$$
