


 26 28  0  0  0  0  0  0  0  0999 V2000
   54.1563    1.5432    3.4668 N   0  0  0  0  0  0  0  0  0  0  0  0
   55.2923    1.1408    3.9260 C   0  0  0  0  0  0  0  0  0  0  0  0
   56.1819    1.9800    4.5375 O   0  0  0  0  0  0  0  0  0  0  0  0
   57.4661    1.3209    4.5435 C   0  0  0  0  0  0  0  0  0  0  0  0
   57.1537   -0.1604    4.4321 C   0  0  0  0  0  0  0  0  0  0  0  0
   58.0131   -0.9246    3.4099 C   0  0  0  0  0  0  0  0  0  0  0  0
   58.1518   -2.2856    3.8142 O   0  0  0  0  0  0  0  0  0  0  0  0
   57.1935   -0.8629    2.1235 C   0  0  0  0  0  0  0  0  0  0  0  0
   55.7519   -0.9013    2.6314 C   0  0  0  0  0  0  0  0  0  0  0  0
   55.8058   -0.1253    3.8621 N   0  0  0  0  0  0  0  0  0  0  0  0
   57.2732   -2.6839    3.9160 H   0  0  0  0  0  0  0  0  0  0  0  0
   51.4066    2.2607    4.0976 C   0  0  0  0  0  0  0  0  0  0  0  0
   52.4991    3.2901    3.9527 C   0  0  0  0  0  0  0  0  0  0  0  0
   53.8145    2.8924    3.6374 C   0  0  0  0  0  0  0  0  0  0  0  0
   54.8257    3.8505    3.5338 C   0  0  0  0  0  0  0  0  0  0  0  0
   54.5338    5.1971    3.7015 C   0  0  0  0  0  0  0  0  0  0  0  0
   55.5314    6.0860    3.5845 F   0  0  0  0  0  0  0  0  0  0  0  0
   53.2400    5.6245    3.9803 C   0  0  0  0  0  0  0  0  0  0  0  0
   52.2209    4.6688    4.1046 C   0  0  0  0  0  0  0  0  0  0  0  0
   50.5936    5.1836    4.4419 Cl  0  0  0  0  0  0  0  0  0  0  0  0
   52.9986    7.0267    4.1315 C   0  0  0  0  0  0  0  0  0  0  0  0
   52.8021    8.1646    4.2518 N   0  0  0  0  0  0  0  0  0  0  0  0
   58.2632    1.5996    5.7990 C   0  0  0  0  0  0  0  0  0  0  0  0
   57.4315    1.6997    6.8641 F   0  0  0  0  0  0  0  0  0  0  0  0
   58.9683    2.7464    5.7232 F   0  0  0  0  0  0  0  0  0  0  0  0
   59.1269    0.5944    6.0642 F   0  0  0  0  0  0  0  0  0  0  0  0
 12 13  1  0
 13 14  2  0
 14  1  1  0
  1  2  2  0
  2  3  1  0
  3  4  1  0
  4 23  1  0
 23 24  1  0
 23 25  1  0
 23 26  1  0
  4  5  1  0
  5  6  1  0
  6  7  1  0
  6  8  1  0
  8  9  1  0
  9 10  1  0
 14 15  1  0
 15 16  2  0
 16 17  1  0
 16 18  1  0
 18 21  1  0
 21 22  3  0
 18 19  2  0
 19 20  1  0
 19 13  1  0
 10  2  1  0
  5 10  1  0
  7 11  1  0
M  END
> <minimizedAffinity>
-9.92460

> <CNNscore>
0.9879595637

> <CNNaffinity>
8.3641443253

> <CNN_VS>
8.2634363174

> <CNNaffinity_variance>
0.3370866776

$$$$



 26 28  0  0  0  0  0  0  0  0999 V2000
   53.6569    1.6754    3.4510 N   0  0  0  0  0  0  0  0  0  0  0  0
   54.7396    1.2182    3.9820 C   0  0  0  0  0  0  0  0  0  0  0  0
   55.5418    1.9731    4.7922 O   0  0  0  0  0  0  0  0  0  0  0  0
   56.8268    1.3191    4.8611 C   0  0  0  0  0  0  0  0  0  0  0  0
   56.5510   -0.1361    4.5284 C   0  0  0  0  0  0  0  0  0  0  0  0
   57.5317   -0.7636    3.5224 C   0  0  0  0  0  0  0  0  0  0  0  0
   57.6442   -2.1649    3.7645 O   0  0  0  0  0  0  0  0  0  0  0  0
   56.8620   -0.5389    2.1692 C   0  0  0  0  0  0  0  0  0  0  0  0
   55.3729   -0.6422    2.5005 C   0  0  0  0  0  0  0  0  0  0  0  0
   55.2758   -0.0292    3.8175 N   0  0  0  0  0  0  0  0  0  0  0  0
   56.7657   -2.5732    3.7143 H   0  0  0  0  0  0  0  0  0  0  0  0
   55.5771    3.8367    3.1114 C   0  0  0  0  0  0  0  0  0  0  0  0
   54.1682    4.0738    3.5941 C   0  0  0  0  0  0  0  0  0  0  0  0
   53.2779    2.9918    3.7508 C   0  0  0  0  0  0  0  0  0  0  0  0
   51.9661    3.2244    4.1706 C   0  0  0  0  0  0  0  0  0  0  0  0
   51.5458    4.5125    4.4721 C   0  0  0  0  0  0  0  0  0  0  0  0
   50.2812    4.6922    4.8810 F   0  0  0  0  0  0  0  0  0  0  0  0
   52.4095    5.5969    4.3598 C   0  0  0  0  0  0  0  0  0  0  0  0
   53.7234    5.3763    3.9213 C   0  0  0  0  0  0  0  0  0  0  0  0
   54.8229    6.7177    3.7849 Cl  0  0  0  0  0  0  0  0  0  0  0  0
   51.9219    6.8996    4.6955 C   0  0  0  0  0  0  0  0  0  0  0  0
   51.5263    7.9572    4.9653 N   0  0  0  0  0  0  0  0  0  0  0  0
   57.4726    1.4360    6.2244 C   0  0  0  0  0  0  0  0  0  0  0  0
   57.0255    0.4473    7.0361 F   0  0  0  0  0  0  0  0  0  0  0  0
   57.2040    2.6115    6.8277 F   0  0  0  0  0  0  0  0  0  0  0  0
   58.8153    1.3048    6.1433 F   0  0  0  0  0  0  0  0  0  0  0  0
 12 13  1  0
 13 14  2  0
 14  1  1  0
  1  2  2  0
  2  3  1  0
  3  4  1  0
  4 23  1  0
 23 24  1  0
 23 25  1  0
 23 26  1  0
  4  5  1  0
  5  6  1  0
  6  7  1  0
  6  8  1  0
  8  9  1  0
  9 10  1  0
 14 15  1  0
 15 16  2  0
 16 17  1  0
 16 18  1  0
 18 21  1  0
 21 22  3  0
 18 19  2  0
 19 20  1  0
 19 13  1  0
 10  2  1  0
  5 10  1  0
  7 11  1  0
M  END
> <minimizedAffinity>
-8.76086

> <CNNscore>
0.9132283330

> <CNNaffinity>
8.3530626297

> <CNN_VS>
7.6282534599

> <CNNaffinity_variance>
0.8605487347

$$$$



 26 28  0  0  0  0  0  0  0  0999 V2000
   55.6905    3.4152    4.5164 N   0  0  0  0  0  0  0  0  0  0  0  0
   56.0265    2.1807    4.3533 C   0  0  0  0  0  0  0  0  0  0  0  0
   55.1114    1.1873    4.1399 O   0  0  0  0  0  0  0  0  0  0  0  0
   55.7645   -0.0702    4.4151 C   0  0  0  0  0  0  0  0  0  0  0  0
   57.2467    0.2031    4.2343 C   0  0  0  0  0  0  0  0  0  0  0  0
   58.1458   -0.3593    5.3491 C   0  0  0  0  0  0  0  0  0  0  0  0
   59.4378   -0.6601    4.8245 O   0  0  0  0  0  0  0  0  0  0  0  0
   58.2620    0.7939    6.3426 C   0  0  0  0  0  0  0  0  0  0  0  0
   58.2285    2.0291    5.4420 C   0  0  0  0  0  0  0  0  0  0  0  0
   57.2896    1.6578    4.3930 N   0  0  0  0  0  0  0  0  0  0  0  0
   59.8174    0.1372    4.4230 H   0  0  0  0  0  0  0  0  0  0  0  0
   54.9121    6.1333    3.8240 C   0  0  0  0  0  0  0  0  0  0  0  0
   53.9026    5.0462    4.0952 C   0  0  0  0  0  0  0  0  0  0  0  0
   54.3304    3.7466    4.4358 C   0  0  0  0  0  0  0  0  0  0  0  0
   53.3885    2.7390    4.6568 C   0  0  0  0  0  0  0  0  0  0  0  0
   52.0314    3.0207    4.5810 C   0  0  0  0  0  0  0  0  0  0  0  0
   51.1595    2.0275    4.8094 F   0  0  0  0  0  0  0  0  0  0  0  0
   51.5770    4.3003    4.2801 C   0  0  0  0  0  0  0  0  0  0  0  0
   52.5149    5.3148    4.0382 C   0  0  0  0  0  0  0  0  0  0  0  0
   51.9671    6.9248    3.6713 Cl  0  0  0  0  0  0  0  0  0  0  0  0
   50.1661    4.5321    4.2271 C   0  0  0  0  0  0  0  0  0  0  0  0
   49.0208    4.7181    4.1855 N   0  0  0  0  0  0  0  0  0  0  0  0
   55.3153   -1.1798    3.4897 C   0  0  0  0  0  0  0  0  0  0  0  0
   54.8460   -0.6566    2.3312 F   0  0  0  0  0  0  0  0  0  0  0  0
   54.3343   -1.9359    4.0225 F   0  0  0  0  0  0  0  0  0  0  0  0
   56.3438   -1.9955    3.1676 F   0  0  0  0  0  0  0  0  0  0  0  0
 12 13  1  0
 13 14  2  0
 14  1  1  0
  1  2  2  0
  2  3  1  0
  3  4  1  0
  4 23  1  0
 23 24  1  0
 23 25  1  0
 23 26  1  0
  4  5  1  0
  5  6  1  0
  6  7  1  0
  6  8  1  0
  8  9  1  0
  9 10  1  0
 14 15  1  0
 15 16  2  0
 16 17  1  0
 16 18  1  0
 18 21  1  0
 21 22  3  0
 18 19  2  0
 19 20  1  0
 19 13  1  0
 10  2  1  0
  5 10  1  0
  7 11  1  0
M  END
> <minimizedAffinity>
-6.66677

> <CNNscore>
0.7377194762

> <CNNaffinity>
7.9820761681

> <CNN_VS>
5.8885331154

> <CNNaffinity_variance>
0.4883092344

$$$$



 26 28  0  0  0  0  0  0  0  0999 V2000
   56.4805    3.5381    4.2855 N   0  0  0  0  0  0  0  0  0  0  0  0
   56.4348    2.2810    4.0009 C   0  0  0  0  0  0  0  0  0  0  0  0
   55.2705    1.6352    3.6895 O   0  0  0  0  0  0  0  0  0  0  0  0
   55.5068    0.2190    3.8390 C   0  0  0  0  0  0  0  0  0  0  0  0
   57.0075    0.0477    3.6870 C   0  0  0  0  0  0  0  0  0  0  0  0
   57.6616   -0.8625    4.7412 C   0  0  0  0  0  0  0  0  0  0  0  0
   58.8189   -1.4886    4.1901 O   0  0  0  0  0  0  0  0  0  0  0  0
   58.0885    0.1025    5.8442 C   0  0  0  0  0  0  0  0  0  0  0  0
   58.4552    1.3693    5.0706 C   0  0  0  0  0  0  0  0  0  0  0  0
   57.4806    1.3997    3.9893 N   0  0  0  0  0  0  0  0  0  0  0  0
   59.4325   -0.8090    3.8698 H   0  0  0  0  0  0  0  0  0  0  0  0
   53.9879    2.2795    5.1084 C   0  0  0  0  0  0  0  0  0  0  0  0
   54.0548    3.7094    4.6338 C   0  0  0  0  0  0  0  0  0  0  0  0
   55.2859    4.2709    4.2373 C   0  0  0  0  0  0  0  0  0  0  0  0
   55.3428    5.6048    3.8267 C   0  0  0  0  0  0  0  0  0  0  0  0
   54.1859    6.3696    3.7699 C   0  0  0  0  0  0  0  0  0  0  0  0
   54.2820    7.6434    3.3612 F   0  0  0  0  0  0  0  0  0  0  0  0
   52.9511    5.8353    4.1224 C   0  0  0  0  0  0  0  0  0  0  0  0
   52.8859    4.5022    4.5538 C   0  0  0  0  0  0  0  0  0  0  0  0
   51.3495    3.8115    4.9885 Cl  0  0  0  0  0  0  0  0  0  0  0  0
   51.7920    6.6695    4.0327 C   0  0  0  0  0  0  0  0  0  0  0  0
   50.8520    7.3472    3.9622 N   0  0  0  0  0  0  0  0  0  0  0  0
   54.7735   -0.6105    2.8078 C   0  0  0  0  0  0  0  0  0  0  0  0
   53.7807   -1.3168    3.4009 F   0  0  0  0  0  0  0  0  0  0  0  0
   55.5796   -1.4896    2.1790 F   0  0  0  0  0  0  0  0  0  0  0  0
   54.1962    0.1726    1.8696 F   0  0  0  0  0  0  0  0  0  0  0  0
 12 13  1  0
 13 14  2  0
 14  1  1  0
  1  2  2  0
  2  3  1  0
  3  4  1  0
  4 23  1  0
 23 24  1  0
 23 25  1  0
 23 26  1  0
  4  5  1  0
  5  6  1  0
  6  7  1  0
  6  8  1  0
  8  9  1  0
  9 10  1  0
 14 15  1  0
 15 16  2  0
 16 17  1  0
 16 18  1  0
 18 21  1  0
 21 22  3  0
 18 19  2  0
 19 20  1  0
 19 13  1  0
 10  2  1  0
  5 10  1  0
  7 11  1  0
M  END
> <minimizedAffinity>
-4.23461

> <CNNscore>
0.6996040344

> <CNNaffinity>
7.9518947601

> <CNN_VS>
5.5631775856

> <CNNaffinity_variance>
0.6661741138

$$$$



 26 28  0  0  0  0  0  0  0  0999 V2000
   55.4156    3.5012    3.7992 N   0  0  0  0  0  0  0  0  0  0  0  0
   54.9668    2.4253    3.2475 C   0  0  0  0  0  0  0  0  0  0  0  0
   53.6496    2.2550    2.9224 O   0  0  0  0  0  0  0  0  0  0  0  0
   53.4305    0.8418    2.7266 C   0  0  0  0  0  0  0  0  0  0  0  0
   54.7951    0.2710    2.3852 C   0  0  0  0  0  0  0  0  0  0  0  0
   55.1580   -1.0223    3.1358 C   0  0  0  0  0  0  0  0  0  0  0  0
   56.0418   -1.8119    2.3417 O   0  0  0  0  0  0  0  0  0  0  0  0
   55.8997   -0.5301    4.3759 C   0  0  0  0  0  0  0  0  0  0  0  0
   56.6255    0.7172    3.8708 C   0  0  0  0  0  0  0  0  0  0  0  0
   55.6797    1.3018    2.9309 N   0  0  0  0  0  0  0  0  0  0  0  0
   56.8293   -1.2910    2.1193 H   0  0  0  0  0  0  0  0  0  0  0  0
   52.6633    2.8866    4.5208 C   0  0  0  0  0  0  0  0  0  0  0  0
   53.1725    4.3011    4.4014 C   0  0  0  0  0  0  0  0  0  0  0  0
   54.5130    4.5469    4.0401 C   0  0  0  0  0  0  0  0  0  0  0  0
   54.9832    5.8598    3.9603 C   0  0  0  0  0  0  0  0  0  0  0  0
   54.1263    6.9257    4.1972 C   0  0  0  0  0  0  0  0  0  0  0  0
   54.6147    8.1711    4.1011 F   0  0  0  0  0  0  0  0  0  0  0  0
   52.7902    6.7174    4.5229 C   0  0  0  0  0  0  0  0  0  0  0  0
   52.3128    5.4024    4.6237 C   0  0  0  0  0  0  0  0  0  0  0  0
   50.6422    5.1204    5.0190 Cl  0  0  0  0  0  0  0  0  0  0  0  0
   51.9529    7.8561    4.7449 C   0  0  0  0  0  0  0  0  0  0  0  0
   51.2754    8.7817    4.9246 N   0  0  0  0  0  0  0  0  0  0  0  0
   52.4432    0.5489    1.6181 C   0  0  0  0  0  0  0  0  0  0  0  0
   51.3099    1.2681    1.8039 F   0  0  0  0  0  0  0  0  0  0  0  0
   52.0954   -0.7526    1.5623 F   0  0  0  0  0  0  0  0  0  0  0  0
   52.9420    0.9005    0.4122 F   0  0  0  0  0  0  0  0  0  0  0  0
 12 13  1  0
 13 14  2  0
 14  1  1  0
  1  2  2  0
  2  3  1  0
  3  4  1  0
  4 23  1  0
 23 24  1  0
 23 25  1  0
 23 26  1  0
  4  5  1  0
  5  6  1  0
  6  7  1  0
  6  8  1  0
  8  9  1  0
  9 10  1  0
 14 15  1  0
 15 16  2  0
 16 17  1  0
 16 18  1  0
 18 21  1  0
 21 22  3  0
 18 19  2  0
 19 20  1  0
 19 13  1  0
 10  2  1  0
  5 10  1  0
  7 11  1  0
M  END
> <minimizedAffinity>
-4.74492

> <CNNscore>
0.6098665595

> <CNNaffinity>
7.8218598366

> <CNN_VS>
4.7702908516

> <CNNaffinity_variance>
0.5231857896

$$$$



 26 28  0  0  0  0  0  0  0  0999 V2000
   55.5896    3.9808    4.3414 N   0  0  0  0  0  0  0  0  0  0  0  0
   54.3332    4.2604    4.4231 C   0  0  0  0  0  0  0  0  0  0  0  0
   53.3550    3.3142    4.2915 O   0  0  0  0  0  0  0  0  0  0  0  0
   52.1168    4.0052    4.0216 C   0  0  0  0  0  0  0  0  0  0  0  0
   52.3130    5.4047    4.5758 C   0  0  0  0  0  0  0  0  0  0  0  0
   51.8561    6.5377    3.6403 C   0  0  0  0  0  0  0  0  0  0  0  0
   51.4484    7.6674    4.4101 O   0  0  0  0  0  0  0  0  0  0  0  0
   53.1149    6.8928    2.8532 C   0  0  0  0  0  0  0  0  0  0  0  0
   54.2339    6.6561    3.8680 C   0  0  0  0  0  0  0  0  0  0  0  0
   53.7737    5.4937    4.6142 N   0  0  0  0  0  0  0  0  0  0  0  0
   52.1777    7.9469    4.9854 H   0  0  0  0  0  0  0  0  0  0  0  0
   57.6212    2.7812    6.0465 C   0  0  0  0  0  0  0  0  0  0  0  0
   56.9294    2.0133    4.9483 C   0  0  0  0  0  0  0  0  0  0  0  0
   55.9577    2.6423    4.1432 C   0  0  0  0  0  0  0  0  0  0  0  0
   55.3015    1.9150    3.1474 C   0  0  0  0  0  0  0  0  0  0  0  0
   55.6294    0.5854    2.9207 C   0  0  0  0  0  0  0  0  0  0  0  0
   54.9827   -0.0749    1.9488 F   0  0  0  0  0  0  0  0  0  0  0  0
   56.6069   -0.0543    3.6755 C   0  0  0  0  0  0  0  0  0  0  0  0
   57.2587    0.6620    4.6901 C   0  0  0  0  0  0  0  0  0  0  0  0
   58.4924   -0.1165    5.6381 Cl  0  0  0  0  0  0  0  0  0  0  0  0
   56.9092   -1.4229    3.3877 C   0  0  0  0  0  0  0  0  0  0  0  0
   57.1553   -2.5337    3.1565 N   0  0  0  0  0  0  0  0  0  0  0  0
   50.9213    3.3429    4.6708 C   0  0  0  0  0  0  0  0  0  0  0  0
   51.0439    3.3834    6.0196 F   0  0  0  0  0  0  0  0  0  0  0  0
   50.7850    2.0502    4.3125 F   0  0  0  0  0  0  0  0  0  0  0  0
   49.7747    3.9866    4.3579 F   0  0  0  0  0  0  0  0  0  0  0  0
 12 13  1  0
 13 14  2  0
 14  1  1  0
  1  2  2  0
  2  3  1  0
  3  4  1  0
  4 23  1  0
 23 24  1  0
 23 25  1  0
 23 26  1  0
  4  5  1  0
  5  6  1  0
  6  7  1  0
  6  8  1  0
  8  9  1  0
  9 10  1  0
 14 15  1  0
 15 16  2  0
 16 17  1  0
 16 18  1  0
 18 21  1  0
 21 22  3  0
 18 19  2  0
 19 20  1  0
 19 13  1  0
 10  2  1  0
  5 10  1  0
  7 11  1  0
M  END
> <minimizedAffinity>
-7.96072

> <CNNscore>
0.5695376396

> <CNNaffinity>
7.7641963959

> <CNN_VS>
4.4220023155

> <CNNaffinity_variance>
0.2577028275

$$$$



 26 28  0  0  0  0  0  0  0  0999 V2000
   51.5566    9.2215    5.1167 N   0  0  0  0  0  0  0  0  0  0  0  0
   51.7398    9.6387    6.3232 C   0  0  0  0  0  0  0  0  0  0  0  0
   52.2050    8.8298    7.3227 O   0  0  0  0  0  0  0  0  0  0  0  0
   51.8981    9.4720    8.5785 C   0  0  0  0  0  0  0  0  0  0  0  0
   51.7575   10.9468    8.2474 C   0  0  0  0  0  0  0  0  0  0  0  0
   50.5297   11.6326    8.8717 C   0  0  0  0  0  0  0  0  0  0  0  0
   50.8054   13.0151    9.0903 O   0  0  0  0  0  0  0  0  0  0  0  0
   49.4507   11.4979    7.8002 C   0  0  0  0  0  0  0  0  0  0  0  0
   50.2460   11.5870    6.4974 C   0  0  0  0  0  0  0  0  0  0  0  0
   51.4864   10.8915    6.8099 N   0  0  0  0  0  0  0  0  0  0  0  0
   51.0628   13.4299    8.2521 H   0  0  0  0  0  0  0  0  0  0  0  0
   54.2876    8.5442    4.3703 C   0  0  0  0  0  0  0  0  0  0  0  0
   53.1934    7.5104    4.4629 C   0  0  0  0  0  0  0  0  0  0  0  0
   51.8835    7.8905    4.8203 C   0  0  0  0  0  0  0  0  0  0  0  0
   50.8833    6.9218    4.9318 C   0  0  0  0  0  0  0  0  0  0  0  0
   51.1638    5.5910    4.6542 C   0  0  0  0  0  0  0  0  0  0  0  0
   50.1733    4.6935    4.7638 F   0  0  0  0  0  0  0  0  0  0  0  0
   52.4377    5.1889    4.2668 C   0  0  0  0  0  0  0  0  0  0  0  0
   53.4536    6.1511    4.1698 C   0  0  0  0  0  0  0  0  0  0  0  0
   55.0510    5.6706    3.6760 Cl  0  0  0  0  0  0  0  0  0  0  0  0
   52.6632    3.8047    3.9831 C   0  0  0  0  0  0  0  0  0  0  0  0
   52.8444    2.6817    3.7510 N   0  0  0  0  0  0  0  0  0  0  0  0
   52.9741    9.2652    9.6219 C   0  0  0  0  0  0  0  0  0  0  0  0
   53.3998   10.4622   10.0932 F   0  0  0  0  0  0  0  0  0  0  0  0
   54.0495    8.6121    9.1372 F   0  0  0  0  0  0  0  0  0  0  0  0
   52.5032    8.5680   10.6797 F   0  0  0  0  0  0  0  0  0  0  0  0
 12 13  1  0
 13 14  2  0
 14  1  1  0
  1  2  2  0
  2  3  1  0
  3  4  1  0
  4 23  1  0
 23 24  1  0
 23 25  1  0
 23 26  1  0
  4  5  1  0
  5  6  1  0
  6  7  1  0
  6  8  1  0
  8  9  1  0
  9 10  1  0
 14 15  1  0
 15 16  2  0
 16 17  1  0
 16 18  1  0
 18 21  1  0
 21 22  3  0
 18 19  2  0
 19 20  1  0
 19 13  1  0
 10  2  1  0
  5 10  1  0
  7 11  1  0
M  END
> <minimizedAffinity>
11.58460

> <CNNscore>
0.4187076986

> <CNNaffinity>
6.3975796700

> <CNN_VS>
2.6787159443

> <CNNaffinity_variance>
0.4616376460

$$$$



 26 28  0  0  0  0  0  0  0  0999 V2000
   57.7246   -0.0085    5.9495 N   0  0  0  0  0  0  0  0  0  0  0  0
   56.9098    0.0189    4.9502 C   0  0  0  0  0  0  0  0  0  0  0  0
   55.5548    0.1200    5.1033 O   0  0  0  0  0  0  0  0  0  0  0  0
   54.9462   -0.2901    3.8603 C   0  0  0  0  0  0  0  0  0  0  0  0
   56.0155   -0.0771    2.8042 C   0  0  0  0  0  0  0  0  0  0  0  0
   56.1872   -1.2450    1.8172 C   0  0  0  0  0  0  0  0  0  0  0  0
   56.6513   -0.7537    0.5609 O   0  0  0  0  0  0  0  0  0  0  0  0
   57.2754   -2.1056    2.4540 C   0  0  0  0  0  0  0  0  0  0  0  0
   58.1712   -1.0751    3.1419 C   0  0  0  0  0  0  0  0  0  0  0  0
   57.2287   -0.0752    3.6235 N   0  0  0  0  0  0  0  0  0  0  0  0
   57.4799   -0.2663    0.6903 H   0  0  0  0  0  0  0  0  0  0  0  0
   55.9475    2.2091    6.5806 C   0  0  0  0  0  0  0  0  0  0  0  0
   56.3185    1.1553    7.5936 C   0  0  0  0  0  0  0  0  0  0  0  0
   57.1908    0.1051    7.2412 C   0  0  0  0  0  0  0  0  0  0  0  0
   57.5058   -0.8824    8.1776 C   0  0  0  0  0  0  0  0  0  0  0  0
   56.9948   -0.8134    9.4663 C   0  0  0  0  0  0  0  0  0  0  0  0
   57.3290   -1.7762   10.3381 F   0  0  0  0  0  0  0  0  0  0  0  0
   56.1585    0.2278    9.8549 C   0  0  0  0  0  0  0  0  0  0  0  0
   55.8212    1.2144    8.9166 C   0  0  0  0  0  0  0  0  0  0  0  0
   54.7856    2.5313    9.3857 Cl  0  0  0  0  0  0  0  0  0  0  0  0
   55.6719    0.2510   11.2002 C   0  0  0  0  0  0  0  0  0  0  0  0
   55.2783    0.2676   12.2923 N   0  0  0  0  0  0  0  0  0  0  0  0
   53.7050    0.5070    3.5235 C   0  0  0  0  0  0  0  0  0  0  0  0
   53.1444    0.9942    4.6568 F   0  0  0  0  0  0  0  0  0  0  0  0
   52.7700   -0.2298    2.8903 F   0  0  0  0  0  0  0  0  0  0  0  0
   54.0017    1.5682    2.7408 F   0  0  0  0  0  0  0  0  0  0  0  0
 12 13  1  0
 13 14  2  0
 14  1  1  0
  1  2  2  0
  2  3  1  0
  3  4  1  0
  4 23  1  0
 23 24  1  0
 23 25  1  0
 23 26  1  0
  4  5  1  0
  5  6  1  0
  6  7  1  0
  6  8  1  0
  8  9  1  0
  9 10  1  0
 14 15  1  0
 15 16  2  0
 16 17  1  0
 16 18  1  0
 18 21  1  0
 21 22  3  0
 18 19  2  0
 19 20  1  0
 19 13  1  0
 10  2  1  0
  5 10  1  0
  7 11  1  0
M  END
> <minimizedAffinity>
18.44349

> <CNNscore>
0.4108985066

> <CNNaffinity>
6.6649708748

> <CNN_VS>
2.7386264801

> <CNNaffinity_variance>
1.0271610022

$$$$



 26 28  0  0  0  0  0  0  0  0999 V2000
   53.2301   -0.0523   10.0431 N   0  0  0  0  0  0  0  0  0  0  0  0
   54.5117   -0.1726    9.9633 C   0  0  0  0  0  0  0  0  0  0  0  0
   55.2940   -0.4817   11.0412 O   0  0  0  0  0  0  0  0  0  0  0  0
   56.6534   -0.1314   10.7051 C   0  0  0  0  0  0  0  0  0  0  0  0
   56.7055   -0.1489    9.1881 C   0  0  0  0  0  0  0  0  0  0  0  0
   57.4150    1.0604    8.5543 C   0  0  0  0  0  0  0  0  0  0  0  0
   57.9970    0.6825    7.3079 O   0  0  0  0  0  0  0  0  0  0  0  0
   56.2860    2.0562    8.3011 C   0  0  0  0  0  0  0  0  0  0  0  0
   55.0968    1.1526    7.9736 C   0  0  0  0  0  0  0  0  0  0  0  0
   55.2892    0.0080    8.8526 N   0  0  0  0  0  0  0  0  0  0  0  0
   57.3096    0.3221    6.7261 H   0  0  0  0  0  0  0  0  0  0  0  0
   54.2097    1.3361   12.4068 C   0  0  0  0  0  0  0  0  0  0  0  0
   53.0519    0.3711   12.4563 C   0  0  0  0  0  0  0  0  0  0  0  0
   52.6203   -0.2835   11.2845 C   0  0  0  0  0  0  0  0  0  0  0  0
   51.5286   -1.1535   11.3347 C   0  0  0  0  0  0  0  0  0  0  0  0
   50.8905   -1.4069   12.5411 C   0  0  0  0  0  0  0  0  0  0  0  0
   49.8522   -2.2559   12.5482 F   0  0  0  0  0  0  0  0  0  0  0  0
   51.3132   -0.8028   13.7204 C   0  0  0  0  0  0  0  0  0  0  0  0
   52.3968    0.0867   13.6775 C   0  0  0  0  0  0  0  0  0  0  0  0
   52.9482    0.8442   15.1434 Cl  0  0  0  0  0  0  0  0  0  0  0  0
   50.6227   -1.1119   14.9350 C   0  0  0  0  0  0  0  0  0  0  0  0
   50.0642   -1.3613   15.9217 N   0  0  0  0  0  0  0  0  0  0  0  0
   57.6674   -1.0963   11.2795 C   0  0  0  0  0  0  0  0  0  0  0  0
   58.5450   -0.4317   12.0696 F   0  0  0  0  0  0  0  0  0  0  0  0
   58.3779   -1.7323   10.3262 F   0  0  0  0  0  0  0  0  0  0  0  0
   57.0708   -2.0324   12.0507 F   0  0  0  0  0  0  0  0  0  0  0  0
 12 13  1  0
 13 14  2  0
 14  1  1  0
  1  2  2  0
  2  3  1  0
  3  4  1  0
  4 23  1  0
 23 24  1  0
 23 25  1  0
 23 26  1  0
  4  5  1  0
  5  6  1  0
  6  7  1  0
  6  8  1  0
  8  9  1  0
  9 10  1  0
 14 15  1  0
 15 16  2  0
 16 17  1  0
 16 18  1  0
 18 21  1  0
 21 22  3  0
 18 19  2  0
 19 20  1  0
 19 13  1  0
 10  2  1  0
  5 10  1  0
  7 11  1  0
M  END
> <minimizedAffinity>
99.00420

> <CNNscore>
0.3735788763

> <CNNaffinity>
5.4765467644

> <CNN_VS>
2.0459222794

> <CNNaffinity_variance>
1.4154430628

$$$$
