


 39 41  0  0  0  0  0  0  0  0999 V2000
   13.2146   10.3885    1.7940 C   0  0  0  0  0  0  0  0  0  0  0  0
   13.0813   10.6601    0.3745 O   0  0  0  0  0  0  0  0  0  0  0  0
   13.4891    9.4915   -0.3644 C   0  0  0  0  0  0  0  0  0  0  0  0
   14.2252    8.5666    0.6153 C   0  0  0  0  0  0  0  0  0  0  0  0
   14.0786    7.1712    0.3355 O   0  0  0  0  0  0  0  0  0  0  0  0
   13.5415    8.9040    1.9301 C   0  0  0  0  0  0  0  0  0  0  0  0
   12.3220    8.1515    2.0196 O   0  0  0  0  0  0  0  0  0  0  0  0
   13.1374    6.9369    0.3442 H   0  0  0  0  0  0  0  0  0  0  0  0
   11.7695    8.3377    1.2444 H   0  0  0  0  0  0  0  0  0  0  0  0
   14.3064    9.9036   -1.4952 N   0  0  0  0  0  0  0  0  0  0  0  0
   15.5583   10.4571   -1.4561 C   0  0  0  0  0  0  0  0  0  0  0  0
   16.0099   10.7401   -2.6614 N   0  0  0  0  0  0  0  0  0  0  0  0
   15.0016   10.3496   -3.5150 C   0  0  0  0  0  0  0  0  0  0  0  0
   14.8766   10.3759   -4.9105 C   0  0  0  0  0  0  0  0  0  0  0  0
   15.8885   10.8187   -5.7466 N   0  0  0  0  0  0  0  0  0  0  0  0
   13.7213    9.9610   -5.4689 N   0  0  0  0  0  0  0  0  0  0  0  0
   12.7426    9.5158   -4.6584 C   0  0  0  0  0  0  0  0  0  0  0  0
   11.6049    9.1287   -5.2569 F   0  0  0  0  0  0  0  0  0  0  0  0
   12.7539    9.4084   -3.3063 N   0  0  0  0  0  0  0  0  0  0  0  0
   13.9226    9.8542   -2.8082 C   0  0  0  0  0  0  0  0  0  0  0  0
   16.7422   11.1272   -5.3656 H   0  0  0  0  0  0  0  0  0  0  0  0
   15.7538   10.8249   -6.7218 H   0  0  0  0  0  0  0  0  0  0  0  0
   14.2878   11.3239    2.3568 C   0  0  0  0  0  0  0  0  0  0  0  0
   15.5142   10.6240    2.5148 O   0  0  0  0  0  0  0  0  0  0  0  0
   16.6041   11.1723    3.5816 S   0  0  0  0  0  0  0  0  0  0  0  0
   16.2257   12.4818    4.0568 O   0  0  0  0  0  0  0  0  0  0  0  0
   17.9125   10.9424    3.0136 O   0  0  0  0  0  0  0  0  0  0  0  0
   15.5152   10.2412    5.8477 C   0  0  0  0  0  0  0  0  0  0  0  0
   14.4697   10.8533    5.6634 O   0  0  0  0  0  0  0  0  0  0  0  0
   16.4997   10.1290    4.8592 N   0  0  0  0  0  0  0  0  0  0  0  0
   17.1567    9.3990    4.9276 H   0  0  0  0  0  0  0  0  0  0  0  0
   15.8227    9.4958    7.1749 C   0  0  0  0  0  0  0  0  0  0  0  0
   16.8720    8.4770    6.9262 N   0  0  0  0  0  0  0  0  0  0  0  0
   16.5309    7.7962    6.2476 H   0  0  0  0  0  0  0  0  0  0  0  0
   17.0986    8.0019    7.7999 H   0  0  0  0  0  0  0  0  0  0  0  0
   13.7334    8.1040    6.7645 C   0  0  0  0  0  0  0  0  0  0  0  0
   14.5448    8.8772    7.8296 C   0  0  0  0  0  0  0  0  0  0  0  0
   13.6269    9.9415    8.4588 C   0  0  0  0  0  0  0  0  0  0  0  0
   14.9369    7.8686    8.9275 C   0  0  0  0  0  0  0  0  0  0  0  0
 36 37  1  0
 37 38  1  0
 37 39  1  0
 37 32  1  0
 32 33  1  0
 32 28  1  0
 28 29  2  0
 28 30  1  0
 30 25  1  0
 25 26  2  0
 25 27  2  0
 25 24  1  0
 24 23  1  0
  1 23  1  0
  1  2  1  0
  2  3  1  0
  3 10  1  0
 10 11  1  0
 11 12  2  0
 12 13  1  0
 13 14  2  0
 14 15  1  0
 14 16  1  0
 16 17  2  0
 17 18  1  0
 17 19  1  0
 19 20  2  0
  3  4  1  0
  4  5  1  0
  4  6  1  0
  6  7  1  0
  6  1  1  0
 20 10  1  0
 20 13  1  0
 33 34  1  0
 33 35  1  0
 30 31  1  0
 15 21  1  0
 15 22  1  0
  5  8  1  0
  7  9  1  0
M  END
> <minimizedAffinity>
-11.25865

> <CNNscore>
0.9805292487

> <CNNaffinity>
6.7020897865

> <CNN_VS>
6.5715951920

> <CNNaffinity_variance>
0.8288309574

$$$$



 39 41  0  0  0  0  0  0  0  0999 V2000
   13.1888   10.4063    1.8536 C   0  0  0  0  0  0  0  0  0  0  0  0
   13.1079   10.6844    0.4314 O   0  0  0  0  0  0  0  0  0  0  0  0
   13.4828    9.4989   -0.2978 C   0  0  0  0  0  0  0  0  0  0  0  0
   14.1483    8.5409    0.7005 C   0  0  0  0  0  0  0  0  0  0  0  0
   13.9464    7.1538    0.4143 O   0  0  0  0  0  0  0  0  0  0  0  0
   13.4439    8.9084    1.9962 C   0  0  0  0  0  0  0  0  0  0  0  0
   12.1895    8.2121    2.0501 O   0  0  0  0  0  0  0  0  0  0  0  0
   12.9956    6.9625    0.3961 H   0  0  0  0  0  0  0  0  0  0  0  0
   11.6680    8.4236    1.2600 H   0  0  0  0  0  0  0  0  0  0  0  0
   14.3494    9.8739   -1.4045 N   0  0  0  0  0  0  0  0  0  0  0  0
   15.6381   10.3313   -1.3310 C   0  0  0  0  0  0  0  0  0  0  0  0
   16.1319   10.6066   -2.5214 N   0  0  0  0  0  0  0  0  0  0  0  0
   15.1135   10.3117   -3.4011 C   0  0  0  0  0  0  0  0  0  0  0  0
   15.0169   10.3785   -4.7974 C   0  0  0  0  0  0  0  0  0  0  0  0
   16.0744   10.7630   -5.6056 N   0  0  0  0  0  0  0  0  0  0  0  0
   13.8447   10.0636   -5.3851 N   0  0  0  0  0  0  0  0  0  0  0  0
   12.8206    9.6748   -4.6020 C   0  0  0  0  0  0  0  0  0  0  0  0
   11.6686    9.3872   -5.2288 F   0  0  0  0  0  0  0  0  0  0  0  0
   12.7986    9.5366   -3.2529 N   0  0  0  0  0  0  0  0  0  0  0  0
   13.9877    9.8826   -2.7246 C   0  0  0  0  0  0  0  0  0  0  0  0
   16.9414   10.9983   -5.2029 H   0  0  0  0  0  0  0  0  0  0  0  0
   15.9588   10.8011   -6.5825 H   0  0  0  0  0  0  0  0  0  0  0  0
   14.2872   11.2916    2.4480 C   0  0  0  0  0  0  0  0  0  0  0  0
   14.3707   11.0929    3.8523 O   0  0  0  0  0  0  0  0  0  0  0  0
   15.7370   10.4928    4.4846 S   0  0  0  0  0  0  0  0  0  0  0  0
   16.8416   11.3868    4.2314 O   0  0  0  0  0  0  0  0  0  0  0  0
   15.8105    9.1013    4.1026 O   0  0  0  0  0  0  0  0  0  0  0  0
   15.9868    9.4848    6.9563 C   0  0  0  0  0  0  0  0  0  0  0  0
   16.9441    8.7895    6.6370 O   0  0  0  0  0  0  0  0  0  0  0  0
   15.4713   10.4782    6.1158 N   0  0  0  0  0  0  0  0  0  0  0  0
   14.9285   11.1974    6.5123 H   0  0  0  0  0  0  0  0  0  0  0  0
   15.2893    9.3602    8.3382 C   0  0  0  0  0  0  0  0  0  0  0  0
   15.6038    8.0330    8.9215 N   0  0  0  0  0  0  0  0  0  0  0  0
   15.2418    7.2994    8.3123 H   0  0  0  0  0  0  0  0  0  0  0  0
   15.1711    7.9549    9.8419 H   0  0  0  0  0  0  0  0  0  0  0  0
   13.0262    8.8005    9.3560 C   0  0  0  0  0  0  0  0  0  0  0  0
   13.7494    9.6203    8.2625 C   0  0  0  0  0  0  0  0  0  0  0  0
   13.1505    9.2389    6.8961 C   0  0  0  0  0  0  0  0  0  0  0  0
   13.4411   11.1075    8.5261 C   0  0  0  0  0  0  0  0  0  0  0  0
 36 37  1  0
 37 38  1  0
 37 39  1  0
 37 32  1  0
 32 33  1  0
 32 28  1  0
 28 29  2  0
 28 30  1  0
 30 25  1  0
 25 26  2  0
 25 27  2  0
 25 24  1  0
 24 23  1  0
  1 23  1  0
  1  2  1  0
  2  3  1  0
  3 10  1  0
 10 11  1  0
 11 12  2  0
 12 13  1  0
 13 14  2  0
 14 15  1  0
 14 16  1  0
 16 17  2  0
 17 18  1  0
 17 19  1  0
 19 20  2  0
  3  4  1  0
  4  5  1  0
  4  6  1  0
  6  7  1  0
  6  1  1  0
 20 10  1  0
 20 13  1  0
 33 34  1  0
 33 35  1  0
 30 31  1  0
 15 21  1  0
 15 22  1  0
  5  8  1  0
  7  9  1  0
M  END
> <minimizedAffinity>
-10.56785

> <CNNscore>
0.8415059447

> <CNNaffinity>
6.0478253365

> <CNN_VS>
5.0892810822

> <CNNaffinity_variance>
0.5888119340

$$$$



 39 41  0  0  0  0  0  0  0  0999 V2000
   13.6230   10.5027    2.1102 C   0  0  0  0  0  0  0  0  0  0  0  0
   13.4102   10.8727    0.7229 O   0  0  0  0  0  0  0  0  0  0  0  0
   13.6351    9.7164   -0.1080 C   0  0  0  0  0  0  0  0  0  0  0  0
   14.3434    8.6641    0.7571 C   0  0  0  0  0  0  0  0  0  0  0  0
   14.0302    7.3103    0.4170 O   0  0  0  0  0  0  0  0  0  0  0  0
   13.8019    8.9874    2.1400 C   0  0  0  0  0  0  0  0  0  0  0  0
   12.5207    8.3570    2.2902 O   0  0  0  0  0  0  0  0  0  0  0  0
   13.0731    7.1714    0.4911 H   0  0  0  0  0  0  0  0  0  0  0  0
   11.9329    8.6447    1.5743 H   0  0  0  0  0  0  0  0  0  0  0  0
   14.4018   10.1128   -1.2791 N   0  0  0  0  0  0  0  0  0  0  0  0
   15.6017   10.7724   -1.3011 C   0  0  0  0  0  0  0  0  0  0  0  0
   16.0144   11.0039   -2.5310 N   0  0  0  0  0  0  0  0  0  0  0  0
   15.0345   10.4675   -3.3372 C   0  0  0  0  0  0  0  0  0  0  0  0
   14.8929   10.3809   -4.7286 C   0  0  0  0  0  0  0  0  0  0  0  0
   15.8538   10.8459   -5.6114 N   0  0  0  0  0  0  0  0  0  0  0  0
   13.7718    9.8293   -5.2362 N   0  0  0  0  0  0  0  0  0  0  0  0
   12.8437    9.3628   -4.3793 C   0  0  0  0  0  0  0  0  0  0  0  0
   11.7373    8.8373   -4.9292 F   0  0  0  0  0  0  0  0  0  0  0  0
   12.8787    9.3559   -3.0234 N   0  0  0  0  0  0  0  0  0  0  0  0
   14.0098    9.9349   -2.5785 C   0  0  0  0  0  0  0  0  0  0  0  0
   16.6818   11.2531   -5.2681 H   0  0  0  0  0  0  0  0  0  0  0  0
   15.7088   10.7693   -6.5822 H   0  0  0  0  0  0  0  0  0  0  0  0
   14.8285   11.2896    2.6309 C   0  0  0  0  0  0  0  0  0  0  0  0
   15.9741   11.0134    1.8372 O   0  0  0  0  0  0  0  0  0  0  0  0
   17.4131   11.6003    2.2972 S   0  0  0  0  0  0  0  0  0  0  0  0
   17.2357   12.7463    3.1567 O   0  0  0  0  0  0  0  0  0  0  0  0
   18.2389   11.6849    1.1146 O   0  0  0  0  0  0  0  0  0  0  0  0
   18.7341    9.2924    2.6382 C   0  0  0  0  0  0  0  0  0  0  0  0
   19.1751    9.3106    1.4949 O   0  0  0  0  0  0  0  0  0  0  0  0
   18.0849   10.3946    3.2063 N   0  0  0  0  0  0  0  0  0  0  0  0
   18.0259   10.4540    4.1872 H   0  0  0  0  0  0  0  0  0  0  0  0
   18.8965    8.0650    3.5756 C   0  0  0  0  0  0  0  0  0  0  0  0
   17.7157    7.9788    4.4694 N   0  0  0  0  0  0  0  0  0  0  0  0
   17.6639    8.8184    5.0464 H   0  0  0  0  0  0  0  0  0  0  0  0
   17.8027    7.1587    5.0696 H   0  0  0  0  0  0  0  0  0  0  0  0
   20.9529    6.7245    4.2426 C   0  0  0  0  0  0  0  0  0  0  0  0
   20.2398    8.0899    4.3753 C   0  0  0  0  0  0  0  0  0  0  0  0
   20.0328    8.3844    5.8725 C   0  0  0  0  0  0  0  0  0  0  0  0
   21.1889    9.1599    3.8001 C   0  0  0  0  0  0  0  0  0  0  0  0
 36 37  1  0
 37 38  1  0
 37 39  1  0
 37 32  1  0
 32 33  1  0
 32 28  1  0
 28 29  2  0
 28 30  1  0
 30 25  1  0
 25 26  2  0
 25 27  2  0
 25 24  1  0
 24 23  1  0
  1 23  1  0
  1  2  1  0
  2  3  1  0
  3 10  1  0
 10 11  1  0
 11 12  2  0
 12 13  1  0
 13 14  2  0
 14 15  1  0
 14 16  1  0
 16 17  2  0
 17 18  1  0
 17 19  1  0
 19 20  2  0
  3  4  1  0
  4  5  1  0
  4  6  1  0
  6  7  1  0
  6  1  1  0
 20 10  1  0
 20 13  1  0
 33 34  1  0
 33 35  1  0
 30 31  1  0
 15 21  1  0
 15 22  1  0
  5  8  1  0
  7  9  1  0
M  END
> <minimizedAffinity>
-9.99999

> <CNNscore>
0.7808157802

> <CNNaffinity>
6.1632828712

> <CNN_VS>
4.8123884201

> <CNNaffinity_variance>
0.1804194003

$$$$



 39 41  0  0  0  0  0  0  0  0999 V2000
   13.0303   10.4958    1.7795 C   0  0  0  0  0  0  0  0  0  0  0  0
   12.9198   10.7200    0.3497 O   0  0  0  0  0  0  0  0  0  0  0  0
   13.4042    9.5531   -0.3443 C   0  0  0  0  0  0  0  0  0  0  0  0
   14.1605    8.6948    0.6798 C   0  0  0  0  0  0  0  0  0  0  0  0
   14.0911    7.2865    0.4380 O   0  0  0  0  0  0  0  0  0  0  0  0
   13.4275    9.0343    1.9672 C   0  0  0  0  0  0  0  0  0  0  0  0
   12.2452    8.2237    2.0497 O   0  0  0  0  0  0  0  0  0  0  0  0
   13.1629    7.0050    0.4310 H   0  0  0  0  0  0  0  0  0  0  0  0
   11.7041    8.3595    1.2562 H   0  0  0  0  0  0  0  0  0  0  0  0
   14.2285    9.9739   -1.4668 N   0  0  0  0  0  0  0  0  0  0  0  0
   15.4546   10.5814   -1.4141 C   0  0  0  0  0  0  0  0  0  0  0  0
   15.9207   10.8559   -2.6158 N   0  0  0  0  0  0  0  0  0  0  0  0
   14.9492   10.4029   -3.4813 C   0  0  0  0  0  0  0  0  0  0  0  0
   14.8546   10.3918   -4.8793 C   0  0  0  0  0  0  0  0  0  0  0  0
   15.8653   10.8584   -5.7039 N   0  0  0  0  0  0  0  0  0  0  0  0
   13.7308    9.9150   -5.4523 N   0  0  0  0  0  0  0  0  0  0  0  0
   12.7539    9.4468   -4.6526 C   0  0  0  0  0  0  0  0  0  0  0  0
   11.6474    8.9975   -5.2660 F   0  0  0  0  0  0  0  0  0  0  0  0
   12.7394    9.3710   -3.2984 N   0  0  0  0  0  0  0  0  0  0  0  0
   13.8767    9.8779   -2.7862 C   0  0  0  0  0  0  0  0  0  0  0  0
   16.6964   11.2120   -5.3121 H   0  0  0  0  0  0  0  0  0  0  0  0
   15.7524   10.8365   -6.6817 H   0  0  0  0  0  0  0  0  0  0  0  0
   14.0407   11.5000    2.3399 C   0  0  0  0  0  0  0  0  0  0  0  0
   15.3590   10.9815    2.2312 O   0  0  0  0  0  0  0  0  0  0  0  0
   16.5163   11.5561    3.2095 S   0  0  0  0  0  0  0  0  0  0  0  0
   17.2031   10.4694    3.8660 O   0  0  0  0  0  0  0  0  0  0  0  0
   15.9328   12.6320    3.9773 O   0  0  0  0  0  0  0  0  0  0  0  0
   18.3906   11.5704    1.2926 C   0  0  0  0  0  0  0  0  0  0  0  0
   18.1014   10.4385    0.9227 O   0  0  0  0  0  0  0  0  0  0  0  0
   17.5963   12.2877    2.1946 N   0  0  0  0  0  0  0  0  0  0  0  0
   17.6844   13.2677    2.2258 H   0  0  0  0  0  0  0  0  0  0  0  0
   19.6363   12.3294    0.7599 C   0  0  0  0  0  0  0  0  0  0  0  0
   19.6172   12.3105   -0.7234 N   0  0  0  0  0  0  0  0  0  0  0  0
   19.6646   11.3460   -1.0518 H   0  0  0  0  0  0  0  0  0  0  0  0
   20.4184   12.8311   -1.0804 H   0  0  0  0  0  0  0  0  0  0  0  0
   21.4081   10.5171    0.5423 C   0  0  0  0  0  0  0  0  0  0  0  0
   20.9768   11.7703    1.3387 C   0  0  0  0  0  0  0  0  0  0  0  0
   20.8652   11.3842    2.8252 C   0  0  0  0  0  0  0  0  0  0  0  0
   22.1021   12.8139    1.1947 C   0  0  0  0  0  0  0  0  0  0  0  0
 36 37  1  0
 37 38  1  0
 37 39  1  0
 37 32  1  0
 32 33  1  0
 32 28  1  0
 28 29  2  0
 28 30  1  0
 30 25  1  0
 25 26  2  0
 25 27  2  0
 25 24  1  0
 24 23  1  0
  1 23  1  0
  1  2  1  0
  2  3  1  0
  3 10  1  0
 10 11  1  0
 11 12  2  0
 12 13  1  0
 13 14  2  0
 14 15  1  0
 14 16  1  0
 16 17  2  0
 17 18  1  0
 17 19  1  0
 19 20  2  0
  3  4  1  0
  4  5  1  0
  4  6  1  0
  6  7  1  0
  6  1  1  0
 20 10  1  0
 20 13  1  0
 33 34  1  0
 33 35  1  0
 30 31  1  0
 15 21  1  0
 15 22  1  0
  5  8  1  0
  7  9  1  0
M  END
> <minimizedAffinity>
-10.86861

> <CNNscore>
0.7252877355

> <CNNaffinity>
5.8853507042

> <CNN_VS>
4.2685728073

> <CNNaffinity_variance>
0.4934030473

$$$$



 39 41  0  0  0  0  0  0  0  0999 V2000
   13.6759   10.2660    1.8773 C   0  0  0  0  0  0  0  0  0  0  0  0
   13.4756   10.6923    0.5045 O   0  0  0  0  0  0  0  0  0  0  0  0
   13.6619    9.5598   -0.3676 C   0  0  0  0  0  0  0  0  0  0  0  0
   14.3347    8.4541    0.4584 C   0  0  0  0  0  0  0  0  0  0  0  0
   13.9766    7.1245    0.0703 O   0  0  0  0  0  0  0  0  0  0  0  0
   13.8043    8.7454    1.8526 C   0  0  0  0  0  0  0  0  0  0  0  0
   12.5028    8.1530    1.9816 O   0  0  0  0  0  0  0  0  0  0  0  0
   13.0154    7.0150    0.1406 H   0  0  0  0  0  0  0  0  0  0  0  0
   11.9249    8.4856    1.2772 H   0  0  0  0  0  0  0  0  0  0  0  0
   14.4413    9.9722   -1.5247 N   0  0  0  0  0  0  0  0  0  0  0  0
   15.6823   10.5513   -1.5256 C   0  0  0  0  0  0  0  0  0  0  0  0
   16.0970   10.8262   -2.7459 N   0  0  0  0  0  0  0  0  0  0  0  0
   15.0753   10.4034   -3.5677 C   0  0  0  0  0  0  0  0  0  0  0  0
   14.9141   10.4075   -4.9597 C   0  0  0  0  0  0  0  0  0  0  0  0
   15.8949   10.8587   -5.8277 N   0  0  0  0  0  0  0  0  0  0  0  0
   13.7536    9.9616   -5.4823 N   0  0  0  0  0  0  0  0  0  0  0  0
   12.8052    9.5083   -4.6407 C   0  0  0  0  0  0  0  0  0  0  0  0
   11.6607    9.0899   -5.2043 F   0  0  0  0  0  0  0  0  0  0  0  0
   12.8534    9.4202   -3.2880 N   0  0  0  0  0  0  0  0  0  0  0  0
   14.0251    9.8964   -2.8265 C   0  0  0  0  0  0  0  0  0  0  0  0
   16.7516   11.1897   -5.4732 H   0  0  0  0  0  0  0  0  0  0  0  0
   15.7352   10.8484   -6.7992 H   0  0  0  0  0  0  0  0  0  0  0  0
   14.9070   10.9931    2.4245 C   0  0  0  0  0  0  0  0  0  0  0  0
   14.6986   11.3562    3.7822 O   0  0  0  0  0  0  0  0  0  0  0  0
   15.2400   10.3755    4.9535 S   0  0  0  0  0  0  0  0  0  0  0  0
   14.6089    9.0810    4.8550 O   0  0  0  0  0  0  0  0  0  0  0  0
   15.2027   11.1231    6.1892 O   0  0  0  0  0  0  0  0  0  0  0  0
   17.3458    9.0411    3.9672 C   0  0  0  0  0  0  0  0  0  0  0  0
   16.6360    8.3153    3.2808 O   0  0  0  0  0  0  0  0  0  0  0  0
   16.8462   10.1737    4.6204 N   0  0  0  0  0  0  0  0  0  0  0  0
   17.4771   10.8788    4.8924 H   0  0  0  0  0  0  0  0  0  0  0  0
   18.8703    8.7987    4.1365 C   0  0  0  0  0  0  0  0  0  0  0  0
   19.2294    8.9541    5.5675 N   0  0  0  0  0  0  0  0  0  0  0  0
   19.0205    9.9059    5.8691 H   0  0  0  0  0  0  0  0  0  0  0  0
   20.2250    8.7693    5.6903 H   0  0  0  0  0  0  0  0  0  0  0  0
   20.0335    8.9829    1.8817 C   0  0  0  0  0  0  0  0  0  0  0  0
   19.7337    9.7155    3.2099 C   0  0  0  0  0  0  0  0  0  0  0  0
   21.0734   10.1161    3.8547 C   0  0  0  0  0  0  0  0  0  0  0  0
   18.9634   11.0037    2.8584 C   0  0  0  0  0  0  0  0  0  0  0  0
 36 37  1  0
 37 38  1  0
 37 39  1  0
 37 32  1  0
 32 33  1  0
 32 28  1  0
 28 29  2  0
 28 30  1  0
 30 25  1  0
 25 26  2  0
 25 27  2  0
 25 24  1  0
 24 23  1  0
  1 23  1  0
  1  2  1  0
  2  3  1  0
  3 10  1  0
 10 11  1  0
 11 12  2  0
 12 13  1  0
 13 14  2  0
 14 15  1  0
 14 16  1  0
 16 17  2  0
 17 18  1  0
 17 19  1  0
 19 20  2  0
  3  4  1  0
  4  5  1  0
  4  6  1  0
  6  7  1  0
  6  1  1  0
 20 10  1  0
 20 13  1  0
 33 34  1  0
 33 35  1  0
 30 31  1  0
 15 21  1  0
 15 22  1  0
  5  8  1  0
  7  9  1  0
M  END
> <minimizedAffinity>
-9.73858

> <CNNscore>
0.6665371656

> <CNNaffinity>
5.6052155495

> <CNN_VS>
3.7360844612

> <CNNaffinity_variance>
0.5884122849

$$$$



 39 41  0  0  0  0  0  0  0  0999 V2000
   17.9592   10.8866    2.2017 C   0  0  0  0  0  0  0  0  0  0  0  0
   17.3299   10.8631    0.8940 O   0  0  0  0  0  0  0  0  0  0  0  0
   15.9673   11.3151    1.0240 C   0  0  0  0  0  0  0  0  0  0  0  0
   15.6236   11.3030    2.5203 C   0  0  0  0  0  0  0  0  0  0  0  0
   14.6920   12.3118    2.9218 O   0  0  0  0  0  0  0  0  0  0  0  0
   16.9803   11.5732    3.1500 C   0  0  0  0  0  0  0  0  0  0  0  0
   17.2172   12.9893    3.1397 O   0  0  0  0  0  0  0  0  0  0  0  0
   15.0462   13.1866    2.6977 H   0  0  0  0  0  0  0  0  0  0  0  0
   17.1457   13.3225    2.2315 H   0  0  0  0  0  0  0  0  0  0  0  0
   15.1030   10.4596    0.2255 N   0  0  0  0  0  0  0  0  0  0  0  0
   14.2806    9.4607    0.6741 C   0  0  0  0  0  0  0  0  0  0  0  0
   13.6513    8.8589   -0.3150 N   0  0  0  0  0  0  0  0  0  0  0  0
   14.0889    9.5014   -1.4524 C   0  0  0  0  0  0  0  0  0  0  0  0
   13.7856    9.3377   -2.8106 C   0  0  0  0  0  0  0  0  0  0  0  0
   12.8571    8.4163   -3.2668 N   0  0  0  0  0  0  0  0  0  0  0  0
   14.4274   10.1016   -3.7180 N   0  0  0  0  0  0  0  0  0  0  0  0
   15.3189   11.0083   -3.2750 C   0  0  0  0  0  0  0  0  0  0  0  0
   15.9454   11.7345   -4.2146 F   0  0  0  0  0  0  0  0  0  0  0  0
   15.6717   11.2852   -1.9949 N   0  0  0  0  0  0  0  0  0  0  0  0
   15.0133   10.4798   -1.1403 C   0  0  0  0  0  0  0  0  0  0  0  0
   12.3741    7.8459   -2.6262 H   0  0  0  0  0  0  0  0  0  0  0  0
   12.6804    8.3320   -4.2316 H   0  0  0  0  0  0  0  0  0  0  0  0
   18.3043    9.4459    2.5875 C   0  0  0  0  0  0  0  0  0  0  0  0
   18.6999    9.3848    3.9507 O   0  0  0  0  0  0  0  0  0  0  0  0
   18.8194    7.9394    4.6739 S   0  0  0  0  0  0  0  0  0  0  0  0
   20.1669    7.7243    5.1449 O   0  0  0  0  0  0  0  0  0  0  0  0
   18.1756    6.9749    3.8121 O   0  0  0  0  0  0  0  0  0  0  0  0
   16.5684    8.6363    5.9524 C   0  0  0  0  0  0  0  0  0  0  0  0
   15.9453    8.7623    4.9047 O   0  0  0  0  0  0  0  0  0  0  0  0
   17.8400    8.0534    6.0002 N   0  0  0  0  0  0  0  0  0  0  0  0
   18.1641    7.6969    6.8587 H   0  0  0  0  0  0  0  0  0  0  0  0
   15.9864    9.0674    7.3261 C   0  0  0  0  0  0  0  0  0  0  0  0
   15.9308    7.8853    8.2209 N   0  0  0  0  0  0  0  0  0  0  0  0
   15.3122    7.1820    7.8170 H   0  0  0  0  0  0  0  0  0  0  0  0
   15.5749    8.1669    9.1344 H   0  0  0  0  0  0  0  0  0  0  0  0
   14.2861   10.5535    8.4971 C   0  0  0  0  0  0  0  0  0  0  0  0
   14.5981    9.7749    7.1982 C   0  0  0  0  0  0  0  0  0  0  0  0
   13.4489    8.7828    6.9408 C   0  0  0  0  0  0  0  0  0  0  0  0
   14.6194   10.7979    6.0452 C   0  0  0  0  0  0  0  0  0  0  0  0
 36 37  1  0
 37 38  1  0
 37 39  1  0
 37 32  1  0
 32 33  1  0
 32 28  1  0
 28 29  2  0
 28 30  1  0
 30 25  1  0
 25 26  2  0
 25 27  2  0
 25 24  1  0
 24 23  1  0
  1 23  1  0
  1  2  1  0
  2  3  1  0
  3 10  1  0
 10 11  1  0
 11 12  2  0
 12 13  1  0
 13 14  2  0
 14 15  1  0
 14 16  1  0
 16 17  2  0
 17 18  1  0
 17 19  1  0
 19 20  2  0
  3  4  1  0
  4  5  1  0
  4  6  1  0
  6  7  1  0
  6  1  1  0
 20 10  1  0
 20 13  1  0
 33 34  1  0
 33 35  1  0
 30 31  1  0
 15 21  1  0
 15 22  1  0
  5  8  1  0
  7  9  1  0
M  END
> <minimizedAffinity>
-8.54839

> <CNNscore>
0.2013758868

> <CNNaffinity>
5.6839900017

> <CNN_VS>
1.1446185112

> <CNNaffinity_variance>
0.3120626211

$$$$



 39 41  0  0  0  0  0  0  0  0999 V2000
   18.1037   11.1311    2.0249 C   0  0  0  0  0  0  0  0  0  0  0  0
   17.7201   10.2662    0.9241 O   0  0  0  0  0  0  0  0  0  0  0  0
   18.1047   10.8917   -0.3164 C   0  0  0  0  0  0  0  0  0  0  0  0
   18.4397   12.3570   -0.0035 C   0  0  0  0  0  0  0  0  0  0  0  0
   19.4564   12.9224   -0.8362 O   0  0  0  0  0  0  0  0  0  0  0  0
   18.9403   12.2594    1.4282 C   0  0  0  0  0  0  0  0  0  0  0  0
   20.3222   11.8705    1.4058 O   0  0  0  0  0  0  0  0  0  0  0  0
   20.2694   12.3998   -0.7539 H   0  0  0  0  0  0  0  0  0  0  0  0
   20.4166   11.0409    0.9120 H   0  0  0  0  0  0  0  0  0  0  0  0
   17.0270   10.7386   -1.2816 N   0  0  0  0  0  0  0  0  0  0  0  0
   17.0825   10.9678   -2.6305 C   0  0  0  0  0  0  0  0  0  0  0  0
   15.9196   10.7588   -3.2142 N   0  0  0  0  0  0  0  0  0  0  0  0
   15.0776   10.3767   -2.1930 C   0  0  0  0  0  0  0  0  0  0  0  0
   13.7258   10.0084   -2.1656 C   0  0  0  0  0  0  0  0  0  0  0  0
   12.9465    9.9272   -3.3080 N   0  0  0  0  0  0  0  0  0  0  0  0
   13.1512    9.7276   -0.9783 N   0  0  0  0  0  0  0  0  0  0  0  0
   13.9113    9.7912    0.1314 C   0  0  0  0  0  0  0  0  0  0  0  0
   13.2932    9.5197    1.2919 F   0  0  0  0  0  0  0  0  0  0  0  0
   15.2286   10.0980    0.2321 N   0  0  0  0  0  0  0  0  0  0  0  0
   15.7391   10.3860   -0.9800 C   0  0  0  0  0  0  0  0  0  0  0  0
   13.3405   10.1269   -4.1879 H   0  0  0  0  0  0  0  0  0  0  0  0
   11.9988    9.6696   -3.2401 H   0  0  0  0  0  0  0  0  0  0  0  0
   16.8265   11.5980    2.7280 C   0  0  0  0  0  0  0  0  0  0  0  0
   16.4564   10.6706    3.7388 O   0  0  0  0  0  0  0  0  0  0  0  0
   14.8895   10.4956    4.1140 S   0  0  0  0  0  0  0  0  0  0  0  0
   14.4789    9.1247    3.9252 O   0  0  0  0  0  0  0  0  0  0  0  0
   14.1731   11.5756    3.4755 O   0  0  0  0  0  0  0  0  0  0  0  0
   15.4465   10.0319    6.6951 C   0  0  0  0  0  0  0  0  0  0  0  0
   16.3844    9.2933    6.4185 O   0  0  0  0  0  0  0  0  0  0  0  0
   14.8082   10.8220    5.7321 N   0  0  0  0  0  0  0  0  0  0  0  0
   14.2899   11.6039    6.0307 H   0  0  0  0  0  0  0  0  0  0  0  0
   14.9120   10.1947    8.1441 C   0  0  0  0  0  0  0  0  0  0  0  0
   16.0619   10.2895    9.0766 N   0  0  0  0  0  0  0  0  0  0  0  0
   16.6084    9.4294    9.0311 H   0  0  0  0  0  0  0  0  0  0  0  0
   15.7183   10.4241   10.0275 H   0  0  0  0  0  0  0  0  0  0  0  0
   13.2113    8.5063    7.2911 C   0  0  0  0  0  0  0  0  0  0  0  0
   13.9159    9.0604    8.5509 C   0  0  0  0  0  0  0  0  0  0  0  0
   12.8359    9.5452    9.5356 C   0  0  0  0  0  0  0  0  0  0  0  0
   14.6733    7.8878    9.2049 C   0  0  0  0  0  0  0  0  0  0  0  0
 36 37  1  0
 37 38  1  0
 37 39  1  0
 37 32  1  0
 32 33  1  0
 32 28  1  0
 28 29  2  0
 28 30  1  0
 30 25  1  0
 25 26  2  0
 25 27  2  0
 25 24  1  0
 24 23  1  0
  1 23  1  0
  1  2  1  0
  2  3  1  0
  3 10  1  0
 10 11  1  0
 11 12  2  0
 12 13  1  0
 13 14  2  0
 14 15  1  0
 14 16  1  0
 16 17  2  0
 17 18  1  0
 17 19  1  0
 19 20  2  0
  3  4  1  0
  4  5  1  0
  4  6  1  0
  6  7  1  0
  6  1  1  0
 20 10  1  0
 20 13  1  0
 33 34  1  0
 33 35  1  0
 30 31  1  0
 15 21  1  0
 15 22  1  0
  5  8  1  0
  7  9  1  0
M  END
> <minimizedAffinity>
-9.82223

> <CNNscore>
0.1586903483

> <CNNaffinity>
5.9276809692

> <CNN_VS>
0.9406657815

> <CNNaffinity_variance>
0.1145848110

$$$$



 39 41  0  0  0  0  0  0  0  0999 V2000
   15.3587   10.4068    2.6996 C   0  0  0  0  0  0  0  0  0  0  0  0
   14.8413   11.1210    1.5469 O   0  0  0  0  0  0  0  0  0  0  0  0
   13.7751   10.3488    0.9597 C   0  0  0  0  0  0  0  0  0  0  0  0
   13.8474    8.9389    1.5633 C   0  0  0  0  0  0  0  0  0  0  0  0
   12.5814    8.2855    1.6941 O   0  0  0  0  0  0  0  0  0  0  0  0
   14.4265    9.2225    2.9396 C   0  0  0  0  0  0  0  0  0  0  0  0
   13.3595    9.6226    3.8130 O   0  0  0  0  0  0  0  0  0  0  0  0
   11.9952    8.8243    2.2481 H   0  0  0  0  0  0  0  0  0  0  0  0
   12.8966   10.3843    3.4302 H   0  0  0  0  0  0  0  0  0  0  0  0
   13.9158   10.3655   -0.4882 N   0  0  0  0  0  0  0  0  0  0  0  0
   12.9434   10.1149   -1.4193 C   0  0  0  0  0  0  0  0  0  0  0  0
   13.4093   10.1862   -2.6499 N   0  0  0  0  0  0  0  0  0  0  0  0
   14.7432   10.4979   -2.5030 C   0  0  0  0  0  0  0  0  0  0  0  0
   15.7728   10.7205   -3.4272 C   0  0  0  0  0  0  0  0  0  0  0  0
   15.5704   10.6939   -4.7974 N   0  0  0  0  0  0  0  0  0  0  0  0
   17.0177   10.9636   -2.9693 N   0  0  0  0  0  0  0  0  0  0  0  0
   17.2129   11.0051   -1.6376 C   0  0  0  0  0  0  0  0  0  0  0  0
   18.4708   11.2337   -1.2278 F   0  0  0  0  0  0  0  0  0  0  0  0
   16.2995   10.8426   -0.6482 N   0  0  0  0  0  0  0  0  0  0  0  0
   15.0841   10.5850   -1.1668 C   0  0  0  0  0  0  0  0  0  0  0  0
   14.6716   10.5186   -5.1589 H   0  0  0  0  0  0  0  0  0  0  0  0
   16.3254   10.8502   -5.4096 H   0  0  0  0  0  0  0  0  0  0  0  0
   16.8091   10.0167    2.4035 C   0  0  0  0  0  0  0  0  0  0  0  0
   17.6242   10.2593    3.5417 O   0  0  0  0  0  0  0  0  0  0  0  0
   17.6175    9.1901    4.7597 S   0  0  0  0  0  0  0  0  0  0  0  0
   18.8354    9.2968    5.5271 O   0  0  0  0  0  0  0  0  0  0  0  0
   17.1983    7.9204    4.2125 O   0  0  0  0  0  0  0  0  0  0  0  0
   15.8256    8.8499    6.7246 C   0  0  0  0  0  0  0  0  0  0  0  0
   16.4366    7.8967    7.1935 O   0  0  0  0  0  0  0  0  0  0  0  0
   16.3715    9.6724    5.7324 N   0  0  0  0  0  0  0  0  0  0  0  0
   15.9980   10.5750    5.6089 H   0  0  0  0  0  0  0  0  0  0  0  0
   14.4123    9.2603    7.2202 C   0  0  0  0  0  0  0  0  0  0  0  0
   14.0076   10.5167    6.5431 N   0  0  0  0  0  0  0  0  0  0  0  0
   14.6616   11.2604    6.7872 H   0  0  0  0  0  0  0  0  0  0  0  0
   13.0684   10.7776    6.8436 H   0  0  0  0  0  0  0  0  0  0  0  0
   14.6863    8.0190    9.4236 C   0  0  0  0  0  0  0  0  0  0  0  0
   14.3292    9.3774    8.7771 C   0  0  0  0  0  0  0  0  0  0  0  0
   12.9295    9.7930    9.2662 C   0  0  0  0  0  0  0  0  0  0  0  0
   15.3478   10.4124    9.2943 C   0  0  0  0  0  0  0  0  0  0  0  0
 36 37  1  0
 37 38  1  0
 37 39  1  0
 37 32  1  0
 32 33  1  0
 32 28  1  0
 28 29  2  0
 28 30  1  0
 30 25  1  0
 25 26  2  0
 25 27  2  0
 25 24  1  0
 24 23  1  0
  1 23  1  0
  1  2  1  0
  2  3  1  0
  3 10  1  0
 10 11  1  0
 11 12  2  0
 12 13  1  0
 13 14  2  0
 14 15  1  0
 14 16  1  0
 16 17  2  0
 17 18  1  0
 17 19  1  0
 19 20  2  0
  3  4  1  0
  4  5  1  0
  4  6  1  0
  6  7  1  0
  6  1  1  0
 20 10  1  0
 20 13  1  0
 33 34  1  0
 33 35  1  0
 30 31  1  0
 15 21  1  0
 15 22  1  0
  5  8  1  0
  7  9  1  0
M  END
> <minimizedAffinity>
-8.52691

> <CNNscore>
0.0844320431

> <CNNaffinity>
5.1151118279

> <CNN_VS>
0.4318793416

> <CNNaffinity_variance>
0.6753485203

$$$$



 39 41  0  0  0  0  0  0  0  0999 V2000
   19.3230   11.6239    1.7563 C   0  0  0  0  0  0  0  0  0  0  0  0
   20.5028   11.4924    2.5914 O   0  0  0  0  0  0  0  0  0  0  0  0
   21.1403   10.2321    2.3031 C   0  0  0  0  0  0  0  0  0  0  0  0
   20.1403    9.3887    1.4994 C   0  0  0  0  0  0  0  0  0  0  0  0
   20.7418    8.4987    0.5544 O   0  0  0  0  0  0  0  0  0  0  0  0
   19.3508   10.4618    0.7676 C   0  0  0  0  0  0  0  0  0  0  0  0
   20.0815   10.8491   -0.4061 O   0  0  0  0  0  0  0  0  0  0  0  0
   21.2824    9.0073   -0.0700 H   0  0  0  0  0  0  0  0  0  0  0  0
   20.9719   11.1382   -0.1519 H   0  0  0  0  0  0  0  0  0  0  0  0
   21.5499    9.6084    3.5519 N   0  0  0  0  0  0  0  0  0  0  0  0
   20.8119    8.7657    4.3397 C   0  0  0  0  0  0  0  0  0  0  0  0
   21.4707    8.3979    5.4202 N   0  0  0  0  0  0  0  0  0  0  0  0
   22.6892    9.0331    5.3220 C   0  0  0  0  0  0  0  0  0  0  0  0
   23.8254    9.0380    6.1422 C   0  0  0  0  0  0  0  0  0  0  0  0
   23.9193    8.2819    7.2991 N   0  0  0  0  0  0  0  0  0  0  0  0
   24.8723    9.8162    5.8001 N   0  0  0  0  0  0  0  0  0  0  0  0
   24.7885   10.5399    4.6677 C   0  0  0  0  0  0  0  0  0  0  0  0
   25.8473   11.3121    4.3758 F   0  0  0  0  0  0  0  0  0  0  0  0
   23.7666   10.5938    3.7776 N   0  0  0  0  0  0  0  0  0  0  0  0
   22.7473    9.8131    4.1829 C   0  0  0  0  0  0  0  0  0  0  0  0
   23.1698    7.7050    7.5724 H   0  0  0  0  0  0  0  0  0  0  0  0
   24.7356    8.3213    7.8481 H   0  0  0  0  0  0  0  0  0  0  0  0
   18.0952   11.6438    2.6705 C   0  0  0  0  0  0  0  0  0  0  0  0
   17.9634   10.3984    3.3414 O   0  0  0  0  0  0  0  0  0  0  0  0
   16.4889    9.8937    3.7863 S   0  0  0  0  0  0  0  0  0  0  0  0
   16.1270    8.7003    3.0592 O   0  0  0  0  0  0  0  0  0  0  0  0
   15.6224   11.0498    3.7861 O   0  0  0  0  0  0  0  0  0  0  0  0
   15.5730    9.0545    6.1620 C   0  0  0  0  0  0  0  0  0  0  0  0
   14.5412    8.6115    5.6712 O   0  0  0  0  0  0  0  0  0  0  0  0
   16.6520    9.4779    5.3775 N   0  0  0  0  0  0  0  0  0  0  0  0
   17.5443    9.5301    5.7902 H   0  0  0  0  0  0  0  0  0  0  0  0
   15.7962    9.1425    7.6963 C   0  0  0  0  0  0  0  0  0  0  0  0
   15.8995    7.7702    8.2502 N   0  0  0  0  0  0  0  0  0  0  0  0
   15.0274    7.2688    8.0812 H   0  0  0  0  0  0  0  0  0  0  0  0
   16.0736    7.8208    9.2539 H   0  0  0  0  0  0  0  0  0  0  0  0
   13.5784    9.0560    8.9392 C   0  0  0  0  0  0  0  0  0  0  0  0
   14.6970    9.9879    8.4186 C   0  0  0  0  0  0  0  0  0  0  0  0
   14.0582   11.0420    7.4955 C   0  0  0  0  0  0  0  0  0  0  0  0
   15.2930   10.7146    9.6405 C   0  0  0  0  0  0  0  0  0  0  0  0
 36 37  1  0
 37 38  1  0
 37 39  1  0
 37 32  1  0
 32 33  1  0
 32 28  1  0
 28 29  2  0
 28 30  1  0
 30 25  1  0
 25 26  2  0
 25 27  2  0
 25 24  1  0
 24 23  1  0
  1 23  1  0
  1  2  1  0
  2  3  1  0
  3 10  1  0
 10 11  1  0
 11 12  2  0
 12 13  1  0
 13 14  2  0
 14 15  1  0
 14 16  1  0
 16 17  2  0
 17 18  1  0
 17 19  1  0
 19 20  2  0
  3  4  1  0
  4  5  1  0
  4  6  1  0
  6  7  1  0
  6  1  1  0
 20 10  1  0
 20 13  1  0
 33 34  1  0
 33 35  1  0
 30 31  1  0
 15 21  1  0
 15 22  1  0
  5  8  1  0
  7  9  1  0
M  END
> <minimizedAffinity>
-8.90920

> <CNNscore>
0.0796857849

> <CNNaffinity>
5.0275301933

> <CNN_VS>
0.4006226957

> <CNNaffinity_variance>
0.4656597674

$$$$
