


 42 46  0  0  0  0  0  0  0  0999 V2000
   12.0760   47.3286   60.9923 C   0  0  0  0  0  0  0  0  0  0  0  0
   11.2684   46.6008   61.8991 C   0  0  0  0  0  0  0  0  0  0  0  0
   11.6223   46.5403   63.2656 C   0  0  0  0  0  0  0  0  0  0  0  0
   12.7557   47.1926   63.7505 C   0  0  0  0  0  0  0  0  0  0  0  0
   13.0168   47.1025   65.0819 O   0  0  0  0  0  0  0  0  0  0  0  0
   13.5564   47.8877   62.8736 C   0  0  0  0  0  0  0  0  0  0  0  0
   13.2041   47.9573   61.5142 C   0  0  0  0  0  0  0  0  0  0  0  0
   14.1088   48.7310   60.8063 O   0  0  0  0  0  0  0  0  0  0  0  0
   14.9726   49.2893   61.7385 C   0  0  0  0  0  0  0  0  0  0  0  0
   15.5836   50.4659   61.5615 C   0  0  0  0  0  0  0  0  0  0  0  0
   16.1426   51.1471   62.7108 C   0  0  0  0  0  0  0  0  0  0  0  0
   16.9935   52.1903   62.4273 O   0  0  0  0  0  0  0  0  0  0  0  0
   15.7961   50.8202   63.9721 C   0  0  0  0  0  0  0  0  0  0  0  0
   14.9491   49.6043   64.1918 C   0  0  0  0  0  0  0  0  0  0  0  0
   14.4242   49.3930   65.2886 O   0  0  0  0  0  0  0  0  0  0  0  0
   14.8739   48.5806   63.0647 C   0  0  0  0  0  0  0  0  0  0  0  0
   16.0039   47.5572   63.2402 C   0  0  0  0  0  0  0  0  0  0  0  0
   12.4417   46.6173   65.6403 H   0  0  0  0  0  0  0  0  0  0  0  0
   17.2119   52.3883   61.5379 H   0  0  0  0  0  0  0  0  0  0  0  0
   10.4815   47.2853   59.1324 N   0  0  0  0  0  0  0  0  0  0  0  0
   11.7843   47.4717   59.5296 C   0  0  0  0  0  0  0  0  0  0  0  0
   12.6706   47.7393   58.7249 O   0  0  0  0  0  0  0  0  0  0  0  0
    9.8197   46.9700   59.7896 H   0  0  0  0  0  0  0  0  0  0  0  0
   10.0596   47.5406   57.7757 C   0  0  0  0  0  0  0  0  0  0  0  0
    7.6421   46.8214   58.1663 C   0  0  0  0  0  0  0  0  0  0  0  0
    6.2677   47.0796   58.0635 C   0  0  0  0  0  0  0  0  0  0  0  0
    5.7982   48.2758   57.5306 C   0  0  0  0  0  0  0  0  0  0  0  0
    6.6851   49.2518   57.0716 C   0  0  0  0  0  0  0  0  0  0  0  0
    6.1795   50.4460   56.5302 C   0  0  0  0  0  0  0  0  0  0  0  0
    7.0411   51.4296   56.0555 C   0  0  0  0  0  0  0  0  0  0  0  0
    6.3396   53.0269   55.3289 Br  0  0  0  0  0  0  0  0  0  0  0  0
    8.4130   51.2398   56.1107 C   0  0  0  0  0  0  0  0  0  0  0  0
    8.9238   50.0550   56.6495 C   0  0  0  0  0  0  0  0  0  0  0  0
    8.0837   49.0287   57.1492 C   0  0  0  0  0  0  0  0  0  0  0  0
    8.5657   47.7990   57.7122 C   0  0  0  0  0  0  0  0  0  0  0  0
    6.9121   44.4730   58.7395 C   0  0  0  0  0  0  0  0  0  0  0  0
    8.0502   45.4829   58.7477 C   0  0  0  0  0  0  0  0  0  0  0  0
   16.2788   51.6234   65.1251 C   0  0  0  0  0  0  0  0  0  0  0  0
   15.3060   52.5827   65.7595 C   0  0  0  0  0  0  0  0  0  0  0  0
   17.4376   51.5338   65.5274 O   0  0  0  0  0  0  0  0  0  0  0  0
   10.1479   45.9849   61.3935 O   0  0  0  0  0  0  0  0  0  0  0  0
   10.0413   44.5706   61.5200 C   0  0  0  0  0  0  0  0  0  0  0  0
 36 37  1  0
 37 25  1  0
 25 26  2  0
 26 27  1  0
 27 28  2  0
 28 29  1  0
 29 30  2  0
 30 31  1  0
 30 32  1  0
 32 33  2  0
 33 34  1  0
 34 35  2  0
 35 24  1  0
 24 20  1  0
 20 21  1  0
 21 22  2  0
 21  1  1  0
  1  2  2  0
  2 41  1  0
 41 42  1  0
  2  3  1  0
  3  4  2  0
  4  5  1  0
  4  6  1  0
  6  7  2  0
  7  8  1  0
  8  9  1  0
  9 10  2  0
 10 11  1  0
 11 12  1  0
 11 13  2  0
 13 38  1  0
 38 39  1  0
 38 40  2  0
 13 14  1  0
 14 15  2  0
 14 16  1  0
 16 17  1  0
 35 25  1  0
  7  1  1  0
 16  9  1  0
 34 28  1  0
 16  6  1  0
 20 23  1  0
  5 18  1  0
 12 19  1  0
M  END
> <minimizedAffinity>
-10.97077

> <CNNscore>
0.8459342122

> <CNNaffinity>
7.5306458473

> <CNN_VS>
6.3704309464

> <CNNaffinity_variance>
0.2470777780

$$$$



 42 46  0  0  0  0  0  0  0  0999 V2000
   12.6702   47.6428   61.3096 C   0  0  0  0  0  0  0  0  0  0  0  0
   11.7468   46.8442   62.0264 C   0  0  0  0  0  0  0  0  0  0  0  0
   11.8571   46.7276   63.4300 C   0  0  0  0  0  0  0  0  0  0  0  0
   12.8595   47.3923   64.1362 C   0  0  0  0  0  0  0  0  0  0  0  0
   12.8861   47.2447   65.4876 O   0  0  0  0  0  0  0  0  0  0  0  0
   13.7724   48.1565   63.4461 C   0  0  0  0  0  0  0  0  0  0  0  0
   13.6619   48.2819   62.0500 C   0  0  0  0  0  0  0  0  0  0  0  0
   14.6440   49.1195   61.5481 O   0  0  0  0  0  0  0  0  0  0  0  0
   15.3065   49.6592   62.6420 C   0  0  0  0  0  0  0  0  0  0  0  0
   15.8897   50.8628   62.6272 C   0  0  0  0  0  0  0  0  0  0  0  0
   16.2092   51.5042   63.8857 C   0  0  0  0  0  0  0  0  0  0  0  0
   17.0526   52.5879   63.8031 O   0  0  0  0  0  0  0  0  0  0  0  0
   15.6603   51.1035   65.0502 C   0  0  0  0  0  0  0  0  0  0  0  0
   14.8391   49.8507   65.0634 C   0  0  0  0  0  0  0  0  0  0  0  0
   14.1388   49.5676   66.0395 O   0  0  0  0  0  0  0  0  0  0  0  0
   15.0059   48.8824   63.8978 C   0  0  0  0  0  0  0  0  0  0  0  0
   16.1289   47.8897   64.2268 C   0  0  0  0  0  0  0  0  0  0  0  0
   12.2425   46.7134   65.9136 H   0  0  0  0  0  0  0  0  0  0  0  0
   17.4155   52.8371   62.9760 H   0  0  0  0  0  0  0  0  0  0  0  0
   11.4269   48.2068   59.2749 N   0  0  0  0  0  0  0  0  0  0  0  0
   12.6344   47.8488   59.8258 C   0  0  0  0  0  0  0  0  0  0  0  0
   13.6379   47.7003   59.1362 O   0  0  0  0  0  0  0  0  0  0  0  0
   10.6233   48.2143   59.8435 H   0  0  0  0  0  0  0  0  0  0  0  0
   11.3081   48.5720   57.8834 C   0  0  0  0  0  0  0  0  0  0  0  0
    9.4562   50.0250   56.8966 C   0  0  0  0  0  0  0  0  0  0  0  0
    8.1021   50.2229   56.5911 C   0  0  0  0  0  0  0  0  0  0  0  0
    7.1512   49.2469   56.8710 C   0  0  0  0  0  0  0  0  0  0  0  0
    7.5179   48.0430   57.4761 C   0  0  0  0  0  0  0  0  0  0  0  0
    6.5324   47.0806   57.7543 C   0  0  0  0  0  0  0  0  0  0  0  0
    6.8694   45.8778   58.3666 C   0  0  0  0  0  0  0  0  0  0  0  0
    5.5277   44.5986   58.7341 Br  0  0  0  0  0  0  0  0  0  0  0  0
    8.1862   45.6164   58.7113 C   0  0  0  0  0  0  0  0  0  0  0  0
    9.1727   46.5682   58.4363 C   0  0  0  0  0  0  0  0  0  0  0  0
    8.8757   47.8043   57.8095 C   0  0  0  0  0  0  0  0  0  0  0  0
    9.8571   48.8077   57.5070 C   0  0  0  0  0  0  0  0  0  0  0  0
   10.8639   51.1265   55.1130 C   0  0  0  0  0  0  0  0  0  0  0  0
   10.4098   51.1549   56.5649 C   0  0  0  0  0  0  0  0  0  0  0  0
   15.8990   51.8638   66.3042 C   0  0  0  0  0  0  0  0  0  0  0  0
   15.1405   53.1518   66.4910 C   0  0  0  0  0  0  0  0  0  0  0  0
   16.7088   51.4751   67.1444 O   0  0  0  0  0  0  0  0  0  0  0  0
   10.7592   46.2174   61.3038 O   0  0  0  0  0  0  0  0  0  0  0  0
   10.1076   45.0935   61.8868 C   0  0  0  0  0  0  0  0  0  0  0  0
 36 37  1  0
 37 25  1  0
 25 26  2  0
 26 27  1  0
 27 28  2  0
 28 29  1  0
 29 30  2  0
 30 31  1  0
 30 32  1  0
 32 33  2  0
 33 34  1  0
 34 35  2  0
 35 24  1  0
 24 20  1  0
 20 21  1  0
 21 22  2  0
 21  1  1  0
  1  2  2  0
  2 41  1  0
 41 42  1  0
  2  3  1  0
  3  4  2  0
  4  5  1  0
  4  6  1  0
  6  7  2  0
  7  8  1  0
  8  9  1  0
  9 10  2  0
 10 11  1  0
 11 12  1  0
 11 13  2  0
 13 38  1  0
 38 39  1  0
 38 40  2  0
 13 14  1  0
 14 15  2  0
 14 16  1  0
 16 17  1  0
 35 25  1  0
  7  1  1  0
 16  9  1  0
 34 28  1  0
 16  6  1  0
 20 23  1  0
  5 18  1  0
 12 19  1  0
M  END
> <minimizedAffinity>
-10.30541

> <CNNscore>
0.7876077890

> <CNNaffinity>
7.5297875404

> <CNN_VS>
5.9305191040

> <CNNaffinity_variance>
0.1245368421

$$$$



 42 46  0  0  0  0  0  0  0  0999 V2000
   16.7455   51.3503   63.0905 C   0  0  0  0  0  0  0  0  0  0  0  0
   16.3682   51.6173   64.4287 C   0  0  0  0  0  0  0  0  0  0  0  0
   17.0421   52.6177   65.1644 C   0  0  0  0  0  0  0  0  0  0  0  0
   18.0763   53.3620   64.5972 C   0  0  0  0  0  0  0  0  0  0  0  0
   18.6612   54.3201   65.3646 O   0  0  0  0  0  0  0  0  0  0  0  0
   18.4618   53.0975   63.3030 C   0  0  0  0  0  0  0  0  0  0  0  0
   17.7889   52.1083   62.5643 C   0  0  0  0  0  0  0  0  0  0  0  0
   18.2947   52.0199   61.2780 O   0  0  0  0  0  0  0  0  0  0  0  0
   19.2030   53.0596   61.1334 C   0  0  0  0  0  0  0  0  0  0  0  0
   19.4654   53.6480   59.9613 C   0  0  0  0  0  0  0  0  0  0  0  0
   20.1097   54.9450   59.9550 C   0  0  0  0  0  0  0  0  0  0  0  0
   20.6038   55.3572   58.7391 O   0  0  0  0  0  0  0  0  0  0  0  0
   20.1594   55.7222   61.0556 C   0  0  0  0  0  0  0  0  0  0  0  0
   19.6936   55.1509   62.3597 C   0  0  0  0  0  0  0  0  0  0  0  0
   19.5091   55.8819   63.3369 O   0  0  0  0  0  0  0  0  0  0  0  0
   19.5902   53.6340   62.4716 C   0  0  0  0  0  0  0  0  0  0  0  0
   20.9342   53.0737   62.9559 C   0  0  0  0  0  0  0  0  0  0  0  0
   18.3641   54.4640   66.2415 H   0  0  0  0  0  0  0  0  0  0  0  0
   20.5518   54.7895   57.9954 H   0  0  0  0  0  0  0  0  0  0  0  0
   16.2685   49.0066   62.5582 N   0  0  0  0  0  0  0  0  0  0  0  0
   16.0882   50.3259   62.2166 C   0  0  0  0  0  0  0  0  0  0  0  0
   15.4229   50.6526   61.2392 O   0  0  0  0  0  0  0  0  0  0  0  0
   16.8926   48.7800   63.2851 H   0  0  0  0  0  0  0  0  0  0  0  0
   15.5657   47.9453   61.8775 C   0  0  0  0  0  0  0  0  0  0  0  0
   13.0517   47.9192   61.4373 C   0  0  0  0  0  0  0  0  0  0  0  0
   11.7361   47.8609   61.9190 C   0  0  0  0  0  0  0  0  0  0  0  0
   11.4729   47.7323   63.2790 C   0  0  0  0  0  0  0  0  0  0  0  0
   12.5146   47.6685   64.2068 C   0  0  0  0  0  0  0  0  0  0  0  0
   12.2159   47.5477   65.5746 C   0  0  0  0  0  0  0  0  0  0  0  0
   13.2345   47.4934   66.5203 C   0  0  0  0  0  0  0  0  0  0  0  0
   12.8102   47.3337   68.3550 Br  0  0  0  0  0  0  0  0  0  0  0  0
   14.5602   47.5597   66.1210 C   0  0  0  0  0  0  0  0  0  0  0  0
   14.8655   47.6781   64.7618 C   0  0  0  0  0  0  0  0  0  0  0  0
   13.8605   47.7319   63.7638 C   0  0  0  0  0  0  0  0  0  0  0  0
   14.1295   47.8508   62.3585 C   0  0  0  0  0  0  0  0  0  0  0  0
   11.9745   47.7131   59.1629 C   0  0  0  0  0  0  0  0  0  0  0  0
   13.2313   48.0741   59.9407 C   0  0  0  0  0  0  0  0  0  0  0  0
   20.7044   57.1027   60.9870 C   0  0  0  0  0  0  0  0  0  0  0  0
   21.8715   57.4343   61.8797 C   0  0  0  0  0  0  0  0  0  0  0  0
   20.2028   57.9533   60.2538 O   0  0  0  0  0  0  0  0  0  0  0  0
   15.3329   50.8797   64.9525 O   0  0  0  0  0  0  0  0  0  0  0  0
   14.9353   51.1354   66.2957 C   0  0  0  0  0  0  0  0  0  0  0  0
 36 37  1  0
 37 25  1  0
 25 26  2  0
 26 27  1  0
 27 28  2  0
 28 29  1  0
 29 30  2  0
 30 31  1  0
 30 32  1  0
 32 33  2  0
 33 34  1  0
 34 35  2  0
 35 24  1  0
 24 20  1  0
 20 21  1  0
 21 22  2  0
 21  1  1  0
  1  2  2  0
  2 41  1  0
 41 42  1  0
  2  3  1  0
  3  4  2  0
  4  5  1  0
  4  6  1  0
  6  7  2  0
  7  8  1  0
  8  9  1  0
  9 10  2  0
 10 11  1  0
 11 12  1  0
 11 13  2  0
 13 38  1  0
 38 39  1  0
 38 40  2  0
 13 14  1  0
 14 15  2  0
 14 16  1  0
 16 17  1  0
 35 25  1  0
  7  1  1  0
 16  9  1  0
 34 28  1  0
 16  6  1  0
 20 23  1  0
  5 18  1  0
 12 19  1  0
M  END
> <minimizedAffinity>
-8.07624

> <CNNscore>
0.4890964627

> <CNNaffinity>
6.3855857849

> <CNN_VS>
3.1231675148

> <CNNaffinity_variance>
0.2975187302

$$$$



 42 46  0  0  0  0  0  0  0  0999 V2000
   12.7961   47.4725   59.8744 C   0  0  0  0  0  0  0  0  0  0  0  0
   11.6170   47.3771   60.6523 C   0  0  0  0  0  0  0  0  0  0  0  0
   11.6687   47.6218   62.0427 C   0  0  0  0  0  0  0  0  0  0  0  0
   12.8637   47.9657   62.6744 C   0  0  0  0  0  0  0  0  0  0  0  0
   12.8263   48.2047   64.0125 O   0  0  0  0  0  0  0  0  0  0  0  0
   14.0181   48.0434   61.9296 C   0  0  0  0  0  0  0  0  0  0  0  0
   13.9703   47.8085   60.5442 C   0  0  0  0  0  0  0  0  0  0  0  0
   15.2198   47.9725   59.9698 O   0  0  0  0  0  0  0  0  0  0  0  0
   16.0557   48.4614   60.9644 C   0  0  0  0  0  0  0  0  0  0  0  0
   17.1103   49.2461   60.7175 C   0  0  0  0  0  0  0  0  0  0  0  0
   17.6839   50.0142   61.8030 C   0  0  0  0  0  0  0  0  0  0  0  0
   18.9189   50.5662   61.5526 O   0  0  0  0  0  0  0  0  0  0  0  0
   17.0180   50.2275   62.9558 C   0  0  0  0  0  0  0  0  0  0  0  0
   15.7281   49.5010   63.1847 C   0  0  0  0  0  0  0  0  0  0  0  0
   14.9776   49.8272   64.1087 O   0  0  0  0  0  0  0  0  0  0  0  0
   15.4467   48.2708   62.3295 C   0  0  0  0  0  0  0  0  0  0  0  0
   16.0170   47.0308   63.0310 C   0  0  0  0  0  0  0  0  0  0  0  0
   12.0155   48.1395   64.4776 H   0  0  0  0  0  0  0  0  0  0  0  0
   19.3522   50.3957   60.7395 H   0  0  0  0  0  0  0  0  0  0  0  0
   11.7007   47.5009   57.6828 N   0  0  0  0  0  0  0  0  0  0  0  0
   12.8505   47.2507   58.3935 C   0  0  0  0  0  0  0  0  0  0  0  0
   13.8750   46.8598   57.8436 O   0  0  0  0  0  0  0  0  0  0  0  0
   10.8716   47.7118   58.1699 H   0  0  0  0  0  0  0  0  0  0  0  0
   11.6789   47.4621   56.2400 C   0  0  0  0  0  0  0  0  0  0  0  0
   10.5315   49.7386   56.3655 C   0  0  0  0  0  0  0  0  0  0  0  0
   10.2412   50.9843   55.7910 C   0  0  0  0  0  0  0  0  0  0  0  0
   10.7648   51.3457   54.5538 C   0  0  0  0  0  0  0  0  0  0  0  0
   11.5882   50.4709   53.8420 C   0  0  0  0  0  0  0  0  0  0  0  0
   12.0943   50.8617   52.5905 C   0  0  0  0  0  0  0  0  0  0  0  0
   12.9074   50.0049   51.8560 C   0  0  0  0  0  0  0  0  0  0  0  0
   13.5748   50.5497   50.1739 Br  0  0  0  0  0  0  0  0  0  0  0  0
   13.2266   48.7509   52.3527 C   0  0  0  0  0  0  0  0  0  0  0  0
   12.7285   48.3554   53.5978 C   0  0  0  0  0  0  0  0  0  0  0  0
   11.9012   49.1974   54.3824 C   0  0  0  0  0  0  0  0  0  0  0  0
   11.3705   48.8324   55.6656 C   0  0  0  0  0  0  0  0  0  0  0  0
    8.3880   49.2910   57.6230 C   0  0  0  0  0  0  0  0  0  0  0  0
    9.9002   49.4356   57.7093 C   0  0  0  0  0  0  0  0  0  0  0  0
   17.5716   51.1311   63.9971 C   0  0  0  0  0  0  0  0  0  0  0  0
   16.9511   52.4970   64.1333 C   0  0  0  0  0  0  0  0  0  0  0  0
   18.5215   50.7912   64.7006 O   0  0  0  0  0  0  0  0  0  0  0  0
   10.4520   47.0550   59.9970 O   0  0  0  0  0  0  0  0  0  0  0  0
    9.7920   45.8442   60.3517 C   0  0  0  0  0  0  0  0  0  0  0  0
 36 37  1  0
 37 25  1  0
 25 26  2  0
 26 27  1  0
 27 28  2  0
 28 29  1  0
 29 30  2  0
 30 31  1  0
 30 32  1  0
 32 33  2  0
 33 34  1  0
 34 35  2  0
 35 24  1  0
 24 20  1  0
 20 21  1  0
 21 22  2  0
 21  1  1  0
  1  2  2  0
  2 41  1  0
 41 42  1  0
  2  3  1  0
  3  4  2  0
  4  5  1  0
  4  6  1  0
  6  7  2  0
  7  8  1  0
  8  9  1  0
  9 10  2  0
 10 11  1  0
 11 12  1  0
 11 13  2  0
 13 38  1  0
 38 39  1  0
 38 40  2  0
 13 14  1  0
 14 15  2  0
 14 16  1  0
 16 17  1  0
 35 25  1  0
  7  1  1  0
 16  9  1  0
 34 28  1  0
 16  6  1  0
 20 23  1  0
  5 18  1  0
 12 19  1  0
M  END
> <minimizedAffinity>
-9.28301

> <CNNscore>
0.4828265607

> <CNNaffinity>
6.7566323280

> <CNN_VS>
3.2622816563

> <CNNaffinity_variance>
0.4591557980

$$$$



 42 46  0  0  0  0  0  0  0  0999 V2000
   16.2058   50.8474   63.4451 C   0  0  0  0  0  0  0  0  0  0  0  0
   16.9905   52.0013   63.2062 C   0  0  0  0  0  0  0  0  0  0  0  0
   17.2456   52.9099   64.2575 C   0  0  0  0  0  0  0  0  0  0  0  0
   16.7444   52.6929   65.5409 C   0  0  0  0  0  0  0  0  0  0  0  0
   17.0511   53.6040   66.5026 O   0  0  0  0  0  0  0  0  0  0  0  0
   15.9659   51.5834   65.7784 C   0  0  0  0  0  0  0  0  0  0  0  0
   15.7158   50.6722   64.7372 C   0  0  0  0  0  0  0  0  0  0  0  0
   14.9503   49.6076   65.1829 O   0  0  0  0  0  0  0  0  0  0  0  0
   14.8260   49.7528   66.5579 C   0  0  0  0  0  0  0  0  0  0  0  0
   14.6740   48.7206   67.3947 C   0  0  0  0  0  0  0  0  0  0  0  0
   14.9388   48.9148   68.8052 C   0  0  0  0  0  0  0  0  0  0  0  0
   14.4940   47.9132   69.6368 O   0  0  0  0  0  0  0  0  0  0  0  0
   15.6349   49.9758   69.2609 C   0  0  0  0  0  0  0  0  0  0  0  0
   15.9866   51.0700   68.3002 C   0  0  0  0  0  0  0  0  0  0  0  0
   16.8045   51.9407   68.6104 O   0  0  0  0  0  0  0  0  0  0  0  0
   15.2035   51.1448   66.9944 C   0  0  0  0  0  0  0  0  0  0  0  0
   13.9632   52.0240   67.2028 C   0  0  0  0  0  0  0  0  0  0  0  0
   17.5855   54.3446   66.2930 H   0  0  0  0  0  0  0  0  0  0  0  0
   14.0128   47.1906   69.2841 H   0  0  0  0  0  0  0  0  0  0  0  0
   14.5606   49.5313   62.1941 N   0  0  0  0  0  0  0  0  0  0  0  0
   15.8890   49.8126   62.4088 C   0  0  0  0  0  0  0  0  0  0  0  0
   16.7770   49.2414   61.7844 O   0  0  0  0  0  0  0  0  0  0  0  0
   13.8834   49.9324   62.7855 H   0  0  0  0  0  0  0  0  0  0  0  0
   14.1341   48.6625   61.1231 C   0  0  0  0  0  0  0  0  0  0  0  0
   13.0839   47.1490   62.8898 C   0  0  0  0  0  0  0  0  0  0  0  0
   12.0731   46.2587   63.2790 C   0  0  0  0  0  0  0  0  0  0  0  0
   11.0295   45.9340   62.4182 C   0  0  0  0  0  0  0  0  0  0  0  0
   10.9650   46.4790   61.1341 C   0  0  0  0  0  0  0  0  0  0  0  0
    9.9029   46.1243   60.2850 C   0  0  0  0  0  0  0  0  0  0  0  0
    9.8212   46.6441   58.9973 C   0  0  0  0  0  0  0  0  0  0  0  0
    8.3858   46.1515   57.8710 Br  0  0  0  0  0  0  0  0  0  0  0  0
   10.7918   47.5198   58.5365 C   0  0  0  0  0  0  0  0  0  0  0  0
   11.8507   47.8788   59.3760 C   0  0  0  0  0  0  0  0  0  0  0  0
   11.9710   47.3779   60.6965 C   0  0  0  0  0  0  0  0  0  0  0  0
   13.0394   47.7218   61.5917 C   0  0  0  0  0  0  0  0  0  0  0  0
   15.3483   46.4554   63.7660 C   0  0  0  0  0  0  0  0  0  0  0  0
   14.1833   47.4255   63.8952 C   0  0  0  0  0  0  0  0  0  0  0  0
   16.0093   50.0798   70.6949 C   0  0  0  0  0  0  0  0  0  0  0  0
   17.4195   49.7095   71.0737 C   0  0  0  0  0  0  0  0  0  0  0  0
   15.1916   50.4238   71.5469 O   0  0  0  0  0  0  0  0  0  0  0  0
   17.4857   52.1767   61.9355 O   0  0  0  0  0  0  0  0  0  0  0  0
   18.5923   53.0552   61.7588 C   0  0  0  0  0  0  0  0  0  0  0  0
 36 37  1  0
 37 25  1  0
 25 26  2  0
 26 27  1  0
 27 28  2  0
 28 29  1  0
 29 30  2  0
 30 31  1  0
 30 32  1  0
 32 33  2  0
 33 34  1  0
 34 35  2  0
 35 24  1  0
 24 20  1  0
 20 21  1  0
 21 22  2  0
 21  1  1  0
  1  2  2  0
  2 41  1  0
 41 42  1  0
  2  3  1  0
  3  4  2  0
  4  5  1  0
  4  6  1  0
  6  7  2  0
  7  8  1  0
  8  9  1  0
  9 10  2  0
 10 11  1  0
 11 12  1  0
 11 13  2  0
 13 38  1  0
 38 39  1  0
 38 40  2  0
 13 14  1  0
 14 15  2  0
 14 16  1  0
 16 17  1  0
 35 25  1  0
  7  1  1  0
 16  9  1  0
 34 28  1  0
 16  6  1  0
 20 23  1  0
  5 18  1  0
 12 19  1  0
M  END
> <minimizedAffinity>
-9.35766

> <CNNscore>
0.4637722373

> <CNNaffinity>
7.2176575661

> <CNN_VS>
3.3473491669

> <CNNaffinity_variance>
0.0095341057

$$$$



 42 46  0  0  0  0  0  0  0  0999 V2000
   16.9764   50.8735   63.2912 C   0  0  0  0  0  0  0  0  0  0  0  0
   18.3554   50.5635   63.2087 C   0  0  0  0  0  0  0  0  0  0  0  0
   19.1903   50.7615   64.3311 C   0  0  0  0  0  0  0  0  0  0  0  0
   18.6836   51.2533   65.5339 C   0  0  0  0  0  0  0  0  0  0  0  0
   19.5483   51.3969   66.5734 O   0  0  0  0  0  0  0  0  0  0  0  0
   17.3482   51.5741   65.6181 C   0  0  0  0  0  0  0  0  0  0  0  0
   16.5117   51.3714   64.5062 C   0  0  0  0  0  0  0  0  0  0  0  0
   15.2029   51.7152   64.8010 O   0  0  0  0  0  0  0  0  0  0  0  0
   15.1614   52.0037   66.1582 C   0  0  0  0  0  0  0  0  0  0  0  0
   14.0717   51.8278   66.9136 C   0  0  0  0  0  0  0  0  0  0  0  0
   14.2157   51.7789   68.3538 C   0  0  0  0  0  0  0  0  0  0  0  0
   13.0469   51.8841   69.0717 O   0  0  0  0  0  0  0  0  0  0  0  0
   15.4104   51.5760   68.9449 C   0  0  0  0  0  0  0  0  0  0  0  0
   16.6428   51.5803   68.0932 C   0  0  0  0  0  0  0  0  0  0  0  0
   17.7202   51.1807   68.5435 O   0  0  0  0  0  0  0  0  0  0  0  0
   16.5466   52.2175   66.7116 C   0  0  0  0  0  0  0  0  0  0  0  0
   16.8827   53.7107   66.8232 C   0  0  0  0  0  0  0  0  0  0  0  0
   20.4500   51.1647   66.4683 H   0  0  0  0  0  0  0  0  0  0  0  0
   12.2346   52.0252   68.6264 H   0  0  0  0  0  0  0  0  0  0  0  0
   15.4221   49.4452   62.0471 N   0  0  0  0  0  0  0  0  0  0  0  0
   16.0006   50.6862   62.1696 C   0  0  0  0  0  0  0  0  0  0  0  0
   15.7349   51.5996   61.3952 O   0  0  0  0  0  0  0  0  0  0  0  0
   15.7373   48.7099   62.6208 H   0  0  0  0  0  0  0  0  0  0  0  0
   14.3638   49.1935   61.0982 C   0  0  0  0  0  0  0  0  0  0  0  0
   12.3500   47.6450   60.8506 C   0  0  0  0  0  0  0  0  0  0  0  0
   11.3819   46.8117   61.4289 C   0  0  0  0  0  0  0  0  0  0  0  0
   11.3630   46.5741   62.7995 C   0  0  0  0  0  0  0  0  0  0  0  0
   12.3041   47.1694   63.6421 C   0  0  0  0  0  0  0  0  0  0  0  0
   12.2530   46.9167   65.0236 C   0  0  0  0  0  0  0  0  0  0  0  0
   13.1715   47.5060   65.8862 C   0  0  0  0  0  0  0  0  0  0  0  0
   13.0829   47.1546   67.7410 Br  0  0  0  0  0  0  0  0  0  0  0  0
   14.1496   48.3533   65.3895 C   0  0  0  0  0  0  0  0  0  0  0  0
   14.2080   48.6083   64.0161 C   0  0  0  0  0  0  0  0  0  0  0  0
   13.2963   48.0258   63.1003 C   0  0  0  0  0  0  0  0  0  0  0  0
   13.3219   48.2584   61.6837 C   0  0  0  0  0  0  0  0  0  0  0  0
   10.9311   48.4072   58.9058 C   0  0  0  0  0  0  0  0  0  0  0  0
   12.2754   47.8506   59.3512 C   0  0  0  0  0  0  0  0  0  0  0  0
   15.5092   51.3941   70.4161 C   0  0  0  0  0  0  0  0  0  0  0  0
   16.1213   52.5146   71.2154 C   0  0  0  0  0  0  0  0  0  0  0  0
   15.1357   50.3557   70.9594 O   0  0  0  0  0  0  0  0  0  0  0  0
   18.8202   50.0627   62.0156 O   0  0  0  0  0  0  0  0  0  0  0  0
   19.9628   49.2134   62.0406 C   0  0  0  0  0  0  0  0  0  0  0  0
 36 37  1  0
 37 25  1  0
 25 26  2  0
 26 27  1  0
 27 28  2  0
 28 29  1  0
 29 30  2  0
 30 31  1  0
 30 32  1  0
 32 33  2  0
 33 34  1  0
 34 35  2  0
 35 24  1  0
 24 20  1  0
 20 21  1  0
 21 22  2  0
 21  1  1  0
  1  2  2  0
  2 41  1  0
 41 42  1  0
  2  3  1  0
  3  4  2  0
  4  5  1  0
  4  6  1  0
  6  7  2  0
  7  8  1  0
  8  9  1  0
  9 10  2  0
 10 11  1  0
 11 12  1  0
 11 13  2  0
 13 38  1  0
 38 39  1  0
 38 40  2  0
 13 14  1  0
 14 15  2  0
 14 16  1  0
 16 17  1  0
 35 25  1  0
  7  1  1  0
 16  9  1  0
 34 28  1  0
 16  6  1  0
 20 23  1  0
  5 18  1  0
 12 19  1  0
M  END
> <minimizedAffinity>
-8.69834

> <CNNscore>
0.4578260183

> <CNNaffinity>
6.7584557533

> <CNN_VS>
3.0941967964

> <CNNaffinity_variance>
0.0853944719

$$$$



 42 46  0  0  0  0  0  0  0  0999 V2000
   16.9090   50.5049   62.6378 C   0  0  0  0  0  0  0  0  0  0  0  0
   17.2681   51.6711   61.9199 C   0  0  0  0  0  0  0  0  0  0  0  0
   17.7647   52.7988   62.6111 C   0  0  0  0  0  0  0  0  0  0  0  0
   17.9185   52.7897   63.9972 C   0  0  0  0  0  0  0  0  0  0  0  0
   18.4215   53.9077   64.5856 O   0  0  0  0  0  0  0  0  0  0  0  0
   17.5555   51.6671   64.7053 C   0  0  0  0  0  0  0  0  0  0  0  0
   17.0682   50.5395   64.0211 C   0  0  0  0  0  0  0  0  0  0  0  0
   16.7973   49.5045   64.9005 O   0  0  0  0  0  0  0  0  0  0  0  0
   17.2506   49.9110   66.1480 C   0  0  0  0  0  0  0  0  0  0  0  0
   17.6818   49.0605   67.0859 C   0  0  0  0  0  0  0  0  0  0  0  0
   18.4833   49.5684   68.1799 C   0  0  0  0  0  0  0  0  0  0  0  0
   18.6483   48.7116   69.2435 O   0  0  0  0  0  0  0  0  0  0  0  0
   19.0817   50.7755   68.1255 C   0  0  0  0  0  0  0  0  0  0  0  0
   18.7607   51.6849   66.9792 C   0  0  0  0  0  0  0  0  0  0  0  0
   19.4415   52.6919   66.7653 O   0  0  0  0  0  0  0  0  0  0  0  0
   17.4945   51.3977   66.1804 C   0  0  0  0  0  0  0  0  0  0  0  0
   16.3173   52.1463   66.8198 C   0  0  0  0  0  0  0  0  0  0  0  0
   18.6548   54.6485   64.0614 H   0  0  0  0  0  0  0  0  0  0  0  0
   18.2164   47.8801   69.2466 H   0  0  0  0  0  0  0  0  0  0  0  0
   15.0459   49.2066   61.7173 N   0  0  0  0  0  0  0  0  0  0  0  0
   16.3896   49.2502   62.0043 C   0  0  0  0  0  0  0  0  0  0  0  0
   17.1315   48.3050   61.7575 O   0  0  0  0  0  0  0  0  0  0  0  0
   14.4655   49.9402   62.0242 H   0  0  0  0  0  0  0  0  0  0  0  0
   14.4649   48.1119   60.9772 C   0  0  0  0  0  0  0  0  0  0  0  0
   12.0283   47.3608   60.8611 C   0  0  0  0  0  0  0  0  0  0  0  0
   10.8540   46.9475   61.5064 C   0  0  0  0  0  0  0  0  0  0  0  0
   10.8085   46.7931   62.8882 C   0  0  0  0  0  0  0  0  0  0  0  0
   11.9315   47.0565   63.6752 C   0  0  0  0  0  0  0  0  0  0  0  0
   11.8511   46.8998   65.0694 C   0  0  0  0  0  0  0  0  0  0  0  0
   12.9517   47.1664   65.8772 C   0  0  0  0  0  0  0  0  0  0  0  0
   12.8207   46.9516   67.7502 Br  0  0  0  0  0  0  0  0  0  0  0  0
   14.1435   47.5927   65.3124 C   0  0  0  0  0  0  0  0  0  0  0  0
   14.2320   47.7494   63.9259 C   0  0  0  0  0  0  0  0  0  0  0  0
   13.1380   47.4844   63.0645 C   0  0  0  0  0  0  0  0  0  0  0  0
   13.1862   47.6298   61.6370 C   0  0  0  0  0  0  0  0  0  0  0  0
   10.8048   46.7529   58.7375 C   0  0  0  0  0  0  0  0  0  0  0  0
   11.9699   47.5124   59.3546 C   0  0  0  0  0  0  0  0  0  0  0  0
   20.0077   51.2137   69.2015 C   0  0  0  0  0  0  0  0  0  0  0  0
   19.5173   52.2755   70.1509 C   0  0  0  0  0  0  0  0  0  0  0  0
   21.1438   50.7519   69.2959 O   0  0  0  0  0  0  0  0  0  0  0  0
   17.1226   51.6417   60.5530 O   0  0  0  0  0  0  0  0  0  0  0  0
   17.3472   52.8448   59.8253 C   0  0  0  0  0  0  0  0  0  0  0  0
 36 37  1  0
 37 25  1  0
 25 26  2  0
 26 27  1  0
 27 28  2  0
 28 29  1  0
 29 30  2  0
 30 31  1  0
 30 32  1  0
 32 33  2  0
 33 34  1  0
 34 35  2  0
 35 24  1  0
 24 20  1  0
 20 21  1  0
 21 22  2  0
 21  1  1  0
  1  2  2  0
  2 41  1  0
 41 42  1  0
  2  3  1  0
  3  4  2  0
  4  5  1  0
  4  6  1  0
  6  7  2  0
  7  8  1  0
  8  9  1  0
  9 10  2  0
 10 11  1  0
 11 12  1  0
 11 13  2  0
 13 38  1  0
 38 39  1  0
 38 40  2  0
 13 14  1  0
 14 15  2  0
 14 16  1  0
 16 17  1  0
 35 25  1  0
  7  1  1  0
 16  9  1  0
 34 28  1  0
 16  6  1  0
 20 23  1  0
  5 18  1  0
 12 19  1  0
M  END
> <minimizedAffinity>
-8.42892

> <CNNscore>
0.4114774466

> <CNNaffinity>
6.7290759087

> <CNN_VS>
2.7688629627

> <CNNaffinity_variance>
0.1087880954

$$$$



 42 46  0  0  0  0  0  0  0  0999 V2000
   13.5916   47.9304   64.0825 C   0  0  0  0  0  0  0  0  0  0  0  0
   12.7848   47.2785   63.1190 C   0  0  0  0  0  0  0  0  0  0  0  0
   13.0941   47.3956   61.7455 C   0  0  0  0  0  0  0  0  0  0  0  0
   14.1905   48.1397   61.3102 C   0  0  0  0  0  0  0  0  0  0  0  0
   14.4326   48.1872   59.9730 O   0  0  0  0  0  0  0  0  0  0  0  0
   14.9700   48.7915   62.2381 C   0  0  0  0  0  0  0  0  0  0  0  0
   14.6708   48.6714   63.6067 C   0  0  0  0  0  0  0  0  0  0  0  0
   15.5894   49.3640   64.3778 O   0  0  0  0  0  0  0  0  0  0  0  0
   16.5774   49.8153   63.5134 C   0  0  0  0  0  0  0  0  0  0  0  0
   17.8471   50.0093   63.8864 C   0  0  0  0  0  0  0  0  0  0  0  0
   18.8725   50.1001   62.8678 C   0  0  0  0  0  0  0  0  0  0  0  0
   20.0904   50.5795   63.2917 O   0  0  0  0  0  0  0  0  0  0  0  0
   18.6626   49.6782   61.6046 C   0  0  0  0  0  0  0  0  0  0  0  0
   17.2774   49.2720   61.2041 C   0  0  0  0  0  0  0  0  0  0  0  0
   17.0792   48.6734   60.1431 O   0  0  0  0  0  0  0  0  0  0  0  0
   16.1208   49.7417   62.0793 C   0  0  0  0  0  0  0  0  0  0  0  0
   15.6316   51.1059   61.5748 C   0  0  0  0  0  0  0  0  0  0  0  0
   13.8733   47.7264   59.3790 H   0  0  0  0  0  0  0  0  0  0  0  0
   20.1992   50.8642   64.1777 H   0  0  0  0  0  0  0  0  0  0  0  0
   13.5248   49.0232   66.2745 N   0  0  0  0  0  0  0  0  0  0  0  0
   13.3641   47.8588   65.5618 C   0  0  0  0  0  0  0  0  0  0  0  0
   13.0523   46.8065   66.1096 O   0  0  0  0  0  0  0  0  0  0  0  0
   13.8761   49.8212   65.8174 H   0  0  0  0  0  0  0  0  0  0  0  0
   13.1911   49.1049   67.6766 C   0  0  0  0  0  0  0  0  0  0  0  0
   15.3337   48.9062   69.0492 C   0  0  0  0  0  0  0  0  0  0  0  0
   16.3523   49.5073   69.8023 C   0  0  0  0  0  0  0  0  0  0  0  0
   16.3946   50.8859   69.9844 C   0  0  0  0  0  0  0  0  0  0  0  0
   15.4147   51.7115   69.4294 C   0  0  0  0  0  0  0  0  0  0  0  0
   15.4802   53.0996   69.6388 C   0  0  0  0  0  0  0  0  0  0  0  0
   14.5105   53.9431   69.1066 C   0  0  0  0  0  0  0  0  0  0  0  0
   14.6165   55.8066   69.4029 Br  0  0  0  0  0  0  0  0  0  0  0  0
   13.4646   53.4202   68.3624 C   0  0  0  0  0  0  0  0  0  0  0  0
   13.3934   52.0404   68.1481 C   0  0  0  0  0  0  0  0  0  0  0  0
   14.3616   51.1446   68.6669 C   0  0  0  0  0  0  0  0  0  0  0  0
   14.3280   49.7229   68.4692 C   0  0  0  0  0  0  0  0  0  0  0  0
   14.2440   46.7209   69.6922 C   0  0  0  0  0  0  0  0  0  0  0  0
   15.3695   47.3966   68.9228 C   0  0  0  0  0  0  0  0  0  0  0  0
   19.7719   49.6562   60.6165 C   0  0  0  0  0  0  0  0  0  0  0  0
   19.7328   50.6721   59.5050 C   0  0  0  0  0  0  0  0  0  0  0  0
   20.6719   48.8206   60.6829 O   0  0  0  0  0  0  0  0  0  0  0  0
   11.7229   46.5374   63.5812 O   0  0  0  0  0  0  0  0  0  0  0  0
   10.6172   46.3272   62.7089 C   0  0  0  0  0  0  0  0  0  0  0  0
 36 37  1  0
 37 25  1  0
 25 26  2  0
 26 27  1  0
 27 28  2  0
 28 29  1  0
 29 30  2  0
 30 31  1  0
 30 32  1  0
 32 33  2  0
 33 34  1  0
 34 35  2  0
 35 24  1  0
 24 20  1  0
 20 21  1  0
 21 22  2  0
 21  1  1  0
  1  2  2  0
  2 41  1  0
 41 42  1  0
  2  3  1  0
  3  4  2  0
  4  5  1  0
  4  6  1  0
  6  7  2  0
  7  8  1  0
  8  9  1  0
  9 10  2  0
 10 11  1  0
 11 12  1  0
 11 13  2  0
 13 38  1  0
 38 39  1  0
 38 40  2  0
 13 14  1  0
 14 15  2  0
 14 16  1  0
 16 17  1  0
 35 25  1  0
  7  1  1  0
 16  9  1  0
 34 28  1  0
 16  6  1  0
 20 23  1  0
  5 18  1  0
 12 19  1  0
M  END
> <minimizedAffinity>
-8.86022

> <CNNscore>
0.3980025053

> <CNNaffinity>
6.6936726570

> <CNN_VS>
2.6640985012

> <CNNaffinity_variance>
0.2619366348

$$$$



 42 46  0  0  0  0  0  0  0  0999 V2000
   13.7511   48.3169   60.9491 C   0  0  0  0  0  0  0  0  0  0  0  0
   13.1056   48.0400   62.1783 C   0  0  0  0  0  0  0  0  0  0  0  0
   13.6474   48.5349   63.3856 C   0  0  0  0  0  0  0  0  0  0  0  0
   14.8110   49.3038   63.3967 C   0  0  0  0  0  0  0  0  0  0  0  0
   15.2574   49.7592   64.5976 O   0  0  0  0  0  0  0  0  0  0  0  0
   15.4551   49.5631   62.2087 C   0  0  0  0  0  0  0  0  0  0  0  0
   14.9155   49.0794   61.0038 C   0  0  0  0  0  0  0  0  0  0  0  0
   15.6828   49.4772   59.9216 O   0  0  0  0  0  0  0  0  0  0  0  0
   16.6452   50.3487   60.4129 C   0  0  0  0  0  0  0  0  0  0  0  0
   17.1798   51.3372   59.6876 C   0  0  0  0  0  0  0  0  0  0  0  0
   17.8659   52.4159   60.3680 C   0  0  0  0  0  0  0  0  0  0  0  0
   18.6284   53.2340   59.5669 O   0  0  0  0  0  0  0  0  0  0  0  0
   17.7104   52.6397   61.6885 C   0  0  0  0  0  0  0  0  0  0  0  0
   16.9496   51.6378   62.5018 C   0  0  0  0  0  0  0  0  0  0  0  0
   16.5902   51.9038   63.6522 O   0  0  0  0  0  0  0  0  0  0  0  0
   16.7586   50.2451   61.9119 C   0  0  0  0  0  0  0  0  0  0  0  0
   17.9407   49.3585   62.3259 C   0  0  0  0  0  0  0  0  0  0  0  0
   14.7844   49.5566   65.3807 H   0  0  0  0  0  0  0  0  0  0  0  0
   18.7137   53.0471   58.6526 H   0  0  0  0  0  0  0  0  0  0  0  0
   11.9283   48.0829   59.3284 N   0  0  0  0  0  0  0  0  0  0  0  0
   13.2542   47.8568   59.6124 C   0  0  0  0  0  0  0  0  0  0  0  0
   13.9984   47.3006   58.8114 O   0  0  0  0  0  0  0  0  0  0  0  0
   11.3397   48.4361   60.0341 H   0  0  0  0  0  0  0  0  0  0  0  0
   11.3776   47.8151   58.0212 C   0  0  0  0  0  0  0  0  0  0  0  0
    9.3177   46.4915   58.7417 C   0  0  0  0  0  0  0  0  0  0  0  0
    7.9249   46.3315   58.7636 C   0  0  0  0  0  0  0  0  0  0  0  0
    7.0838   47.2662   58.1685 C   0  0  0  0  0  0  0  0  0  0  0  0
    7.6051   48.3882   57.5210 C   0  0  0  0  0  0  0  0  0  0  0  0
    6.7295   49.3097   56.9215 C   0  0  0  0  0  0  0  0  0  0  0  0
    7.2233   50.4296   56.2606 C   0  0  0  0  0  0  0  0  0  0  0  0
    6.0280   51.6546   55.4590 Br  0  0  0  0  0  0  0  0  0  0  0  0
    8.5900   50.6479   56.1850 C   0  0  0  0  0  0  0  0  0  0  0  0
    9.4675   49.7366   56.7803 C   0  0  0  0  0  0  0  0  0  0  0  0
    9.0086   48.5853   57.4681 C   0  0  0  0  0  0  0  0  0  0  0  0
    9.8738   47.6262   58.0950 C   0  0  0  0  0  0  0  0  0  0  0  0
    9.6690   45.0944   60.8156 C   0  0  0  0  0  0  0  0  0  0  0  0
   10.1461   45.4103   59.4057 C   0  0  0  0  0  0  0  0  0  0  0  0
   18.3167   53.8329   62.3335 C   0  0  0  0  0  0  0  0  0  0  0  0
   19.2263   53.5994   63.5113 C   0  0  0  0  0  0  0  0  0  0  0  0
   18.0616   54.9709   61.9429 O   0  0  0  0  0  0  0  0  0  0  0  0
   11.9506   47.2957   62.1319 O   0  0  0  0  0  0  0  0  0  0  0  0
   11.0628   47.3591   63.2434 C   0  0  0  0  0  0  0  0  0  0  0  0
 36 37  1  0
 37 25  1  0
 25 26  2  0
 26 27  1  0
 27 28  2  0
 28 29  1  0
 29 30  2  0
 30 31  1  0
 30 32  1  0
 32 33  2  0
 33 34  1  0
 34 35  2  0
 35 24  1  0
 24 20  1  0
 20 21  1  0
 21 22  2  0
 21  1  1  0
  1  2  2  0
  2 41  1  0
 41 42  1  0
  2  3  1  0
  3  4  2  0
  4  5  1  0
  4  6  1  0
  6  7  2  0
  7  8  1  0
  8  9  1  0
  9 10  2  0
 10 11  1  0
 11 12  1  0
 11 13  2  0
 13 38  1  0
 38 39  1  0
 38 40  2  0
 13 14  1  0
 14 15  2  0
 14 16  1  0
 16 17  1  0
 35 25  1  0
  7  1  1  0
 16  9  1  0
 34 28  1  0
 16  6  1  0
 20 23  1  0
  5 18  1  0
 12 19  1  0
M  END
> <minimizedAffinity>
-10.71503

> <CNNscore>
0.3800136149

> <CNNaffinity>
7.2865443230

> <CNN_VS>
2.7689859867

> <CNNaffinity_variance>
0.2738466561

$$$$
