


 37 38  0  0  0  0  0  0  0  0999 V2000
  -22.4339  -32.8031   16.5528 C   0  0  0  0  0  0  0  0  0  0  0  0
  -23.3967  -33.1669   15.4263 C   0  0  0  0  0  0  0  0  0  0  0  0
  -24.5919  -33.7510   16.1547 C   0  0  0  0  0  0  0  0  0  0  0  0
  -24.5603  -32.9625   17.4592 C   0  0  0  0  0  0  0  0  0  0  0  0
  -23.1646  -32.8194   17.7868 O   0  0  0  0  0  0  0  0  0  0  0  0
  -17.6998  -33.5277   15.3272 C   0  0  0  0  0  0  0  0  0  0  0  0
  -18.9251  -33.8819   16.1030 C   0  0  0  0  0  0  0  0  0  0  0  0
  -20.1085  -33.2699   15.9757 C   0  0  0  0  0  0  0  0  0  0  0  0
  -21.2267  -33.6187   16.7192 N   0  0  0  0  0  0  0  0  0  0  0  0
  -21.1485  -34.5945   17.7028 C   0  0  0  0  0  0  0  0  0  0  0  0
  -22.0696  -34.9344   18.4418 O   0  0  0  0  0  0  0  0  0  0  0  0
  -19.9380  -35.2263   17.8223 N   0  0  0  0  0  0  0  0  0  0  0  0
  -18.8129  -34.9725   17.0956 C   0  0  0  0  0  0  0  0  0  0  0  0
  -17.7750  -35.6059   17.2547 O   0  0  0  0  0  0  0  0  0  0  0  0
  -19.8746  -35.9356   18.5022 H   0  0  0  0  0  0  0  0  0  0  0  0
  -25.8198  -33.5506   15.4613 O   0  0  0  0  0  0  0  0  0  0  0  0
  -26.1227  -32.1691   15.2231 C   0  0  0  0  0  0  0  0  0  0  0  0
  -26.3770  -31.8989   13.7260 C   0  0  0  0  0  0  0  0  0  0  0  0
  -26.6361  -33.2528   13.0123 C   0  0  0  0  0  0  0  0  0  0  0  0
  -27.6712  -31.0719   13.5550 C   0  0  0  0  0  0  0  0  0  0  0  0
  -25.1614  -31.2385   12.9871 C   0  0  0  0  0  0  0  0  0  0  0  0
  -25.2293  -30.6511   11.5433 C   0  0  0  0  0  0  0  0  0  0  0  0
  -23.9622  -30.9896   10.7223 C   0  0  0  0  0  0  0  0  0  0  0  0
  -25.2047  -29.1035   11.6783 C   0  0  0  0  0  0  0  0  0  0  0  0
  -26.4628  -31.0982   10.6803 C   0  0  0  0  0  0  0  0  0  0  0  0
  -27.0556  -30.2977    9.4689 C   0  0  0  0  0  0  0  0  0  0  0  0
  -25.8497  -29.7366    8.6695 C   0  0  0  0  0  0  0  0  0  0  0  0
  -27.8378  -31.1978    8.4965 C   0  0  0  0  0  0  0  0  0  0  0  0
  -27.9391  -29.1077    9.8547 C   0  0  0  0  0  0  0  0  0  0  0  0
  -25.3139  -33.6613   18.5865 C   0  0  0  0  0  0  0  0  0  0  0  0
  -26.6635  -33.8776   18.1937 O   0  0  0  0  0  0  0  0  0  0  0  0
  -27.7726  -33.0366   18.9762 P   0  0  0  0  0  0  0  0  0  0  0  0
  -29.1492  -33.0465   18.4086 O   0  0  0  0  0  0  0  0  0  0  0  0
  -27.6752  -33.5281   20.4902 O   0  0  0  0  0  0  0  0  0  0  0  0
  -27.1281  -31.5792   19.0638 O   0  0  0  0  0  0  0  0  0  0  0  0
  -28.0445  -34.4220   20.5644 H   0  0  0  0  0  0  0  0  0  0  0  0
  -27.1318  -31.1706   18.1841 H   0  0  0  0  0  0  0  0  0  0  0  0
  6  7  1  0
  7  8  2  0
  8  9  1  0
  1  9  1  0
  1  2  1  0
  2  3  1  0
  3 16  1  0
 16 17  1  0
 17 18  1  0
 18 19  1  0
 18 20  1  0
 18 21  1  0
 21 22  1  0
 22 23  1  0
 22 24  1  0
 22 25  1  0
 25 26  1  0
 26 27  1  0
 26 28  1  0
 26 29  1  0
  3  4  1  0
  4 30  1  0
 30 31  1  0
 31 32  1  0
 32 33  2  0
 32 34  1  0
 32 35  1  0
  4  5  1  0
  9 10  1  0
 10 11  2  0
 10 12  1  0
 12 13  1  0
 13 14  2  0
 13  7  1  0
  5  1  1  0
 34 36  1  0
 35 37  1  0
 12 15  1  0
M  END
> <minimizedAffinity>
-7.21852

> <CNNscore>
0.7926423550

> <CNNaffinity>
6.5720782280

> <CNN_VS>
5.2093076706

> <CNNaffinity_variance>
0.3359853029

$$$$



 37 38  0  0  0  0  0  0  0  0999 V2000
  -22.4263  -32.6996   16.1951 C   0  0  0  0  0  0  0  0  0  0  0  0
  -23.1865  -32.9264   14.8917 C   0  0  0  0  0  0  0  0  0  0  0  0
  -24.4954  -33.5433   15.3459 C   0  0  0  0  0  0  0  0  0  0  0  0
  -24.6781  -32.8846   16.7087 C   0  0  0  0  0  0  0  0  0  0  0  0
  -23.3574  -32.8133   17.2801 O   0  0  0  0  0  0  0  0  0  0  0  0
  -17.6128  -33.5818   15.4950 C   0  0  0  0  0  0  0  0  0  0  0  0
  -18.9293  -33.9010   16.1223 C   0  0  0  0  0  0  0  0  0  0  0  0
  -20.0686  -33.2441   15.8740 C   0  0  0  0  0  0  0  0  0  0  0  0
  -21.2750  -33.5613   16.4814 N   0  0  0  0  0  0  0  0  0  0  0  0
  -21.3423  -34.5525   17.4504 C   0  0  0  0  0  0  0  0  0  0  0  0
  -22.3520  -34.8681   18.0755 O   0  0  0  0  0  0  0  0  0  0  0  0
  -20.1759  -35.2301   17.6936 N   0  0  0  0  0  0  0  0  0  0  0  0
  -18.9680  -35.0082   17.1020 C   0  0  0  0  0  0  0  0  0  0  0  0
  -17.9775  -35.6816   17.3653 O   0  0  0  0  0  0  0  0  0  0  0  0
  -20.2144  -35.9503   18.3638 H   0  0  0  0  0  0  0  0  0  0  0  0
  -25.5842  -33.2426   14.4784 O   0  0  0  0  0  0  0  0  0  0  0  0
  -25.5465  -31.9077   13.9556 C   0  0  0  0  0  0  0  0  0  0  0  0
  -26.3222  -31.8018   12.6266 C   0  0  0  0  0  0  0  0  0  0  0  0
  -27.3449  -32.9672   12.5525 C   0  0  0  0  0  0  0  0  0  0  0  0
  -27.1559  -30.5007   12.6085 C   0  0  0  0  0  0  0  0  0  0  0  0
  -25.4159  -31.9311   11.3532 C   0  0  0  0  0  0  0  0  0  0  0  0
  -24.2694  -30.9369   10.9906 C   0  0  0  0  0  0  0  0  0  0  0  0
  -23.6815  -30.2509   12.2468 C   0  0  0  0  0  0  0  0  0  0  0  0
  -24.9099  -29.7784   10.1773 C   0  0  0  0  0  0  0  0  0  0  0  0
  -23.0592  -31.5483   10.1982 C   0  0  0  0  0  0  0  0  0  0  0  0
  -22.0768  -32.6391   10.7501 C   0  0  0  0  0  0  0  0  0  0  0  0
  -22.9540  -33.7951   11.3000 C   0  0  0  0  0  0  0  0  0  0  0  0
  -21.1981  -33.2512    9.6451 C   0  0  0  0  0  0  0  0  0  0  0  0
  -21.1721  -32.1708   11.8936 C   0  0  0  0  0  0  0  0  0  0  0  0
  -25.6214  -33.6666   17.6175 C   0  0  0  0  0  0  0  0  0  0  0  0
  -25.9886  -32.8592   18.7292 O   0  0  0  0  0  0  0  0  0  0  0  0
  -26.9706  -31.6377   18.4241 P   0  0  0  0  0  0  0  0  0  0  0  0
  -27.6335  -31.6242   17.0908 O   0  0  0  0  0  0  0  0  0  0  0  0
  -27.9723  -31.5901   19.6641 O   0  0  0  0  0  0  0  0  0  0  0  0
  -26.0545  -30.3592   18.6950 O   0  0  0  0  0  0  0  0  0  0  0  0
  -28.5916  -32.3346   19.6082 H   0  0  0  0  0  0  0  0  0  0  0  0
  -25.3918  -30.2813   17.9909 H   0  0  0  0  0  0  0  0  0  0  0  0
  6  7  1  0
  7  8  2  0
  8  9  1  0
  1  9  1  0
  1  2  1  0
  2  3  1  0
  3 16  1  0
 16 17  1  0
 17 18  1  0
 18 19  1  0
 18 20  1  0
 18 21  1  0
 21 22  1  0
 22 23  1  0
 22 24  1  0
 22 25  1  0
 25 26  1  0
 26 27  1  0
 26 28  1  0
 26 29  1  0
  3  4  1  0
  4 30  1  0
 30 31  1  0
 31 32  1  0
 32 33  2  0
 32 34  1  0
 32 35  1  0
  4  5  1  0
  9 10  1  0
 10 11  2  0
 10 12  1  0
 12 13  1  0
 13 14  2  0
 13  7  1  0
  5  1  1  0
 34 36  1  0
 35 37  1  0
 12 15  1  0
M  END
> <minimizedAffinity>
-7.17704

> <CNNscore>
0.7279613018

> <CNNaffinity>
6.7993702888

> <CNN_VS>
4.9496784210

> <CNNaffinity_variance>
0.0961836278

$$$$



 37 38  0  0  0  0  0  0  0  0999 V2000
  -22.7079  -33.2317   16.5637 C   0  0  0  0  0  0  0  0  0  0  0  0
  -22.9586  -32.4724   15.2641 C   0  0  0  0  0  0  0  0  0  0  0  0
  -23.9714  -33.3362   14.5372 C   0  0  0  0  0  0  0  0  0  0  0  0
  -24.7397  -33.9422   15.7063 C   0  0  0  0  0  0  0  0  0  0  0  0
  -23.7506  -34.2039   16.7206 O   0  0  0  0  0  0  0  0  0  0  0  0
  -17.9706  -33.5514   15.1872 C   0  0  0  0  0  0  0  0  0  0  0  0
  -19.1238  -33.9754   16.0351 C   0  0  0  0  0  0  0  0  0  0  0  0
  -20.3685  -33.4971   15.9194 C   0  0  0  0  0  0  0  0  0  0  0  0
  -21.4170  -33.9070   16.7303 N   0  0  0  0  0  0  0  0  0  0  0  0
  -21.2023  -34.8010   17.7697 C   0  0  0  0  0  0  0  0  0  0  0  0
  -22.0560  -35.1824   18.5671 O   0  0  0  0  0  0  0  0  0  0  0  0
  -19.9290  -35.2968   17.8778 N   0  0  0  0  0  0  0  0  0  0  0  0
  -18.8632  -34.9793   17.0893 C   0  0  0  0  0  0  0  0  0  0  0  0
  -17.7598  -35.4915   17.2443 O   0  0  0  0  0  0  0  0  0  0  0  0
  -19.7677  -35.9483   18.5980 H   0  0  0  0  0  0  0  0  0  0  0  0
  -24.8342  -32.5875   13.6865 O   0  0  0  0  0  0  0  0  0  0  0  0
  -24.1365  -31.8329   12.6861 C   0  0  0  0  0  0  0  0  0  0  0  0
  -24.3249  -32.4479   11.2843 C   0  0  0  0  0  0  0  0  0  0  0  0
  -25.7020  -33.1625   11.2346 C   0  0  0  0  0  0  0  0  0  0  0  0
  -24.3881  -31.3257   10.2237 C   0  0  0  0  0  0  0  0  0  0  0  0
  -23.2533  -33.5338   10.9207 C   0  0  0  0  0  0  0  0  0  0  0  0
  -21.7632  -33.4809   11.3802 C   0  0  0  0  0  0  0  0  0  0  0  0
  -21.4979  -34.4131   12.5863 C   0  0  0  0  0  0  0  0  0  0  0  0
  -21.5050  -32.0504   11.9287 C   0  0  0  0  0  0  0  0  0  0  0  0
  -20.6966  -33.8399   10.2850 C   0  0  0  0  0  0  0  0  0  0  0  0
  -20.6448  -33.2310    8.8406 C   0  0  0  0  0  0  0  0  0  0  0  0
  -19.1476  -33.1539    8.4402 C   0  0  0  0  0  0  0  0  0  0  0  0
  -21.3254  -34.1345    7.7975 C   0  0  0  0  0  0  0  0  0  0  0  0
  -21.2222  -31.8178    8.7171 C   0  0  0  0  0  0  0  0  0  0  0  0
  -25.4775  -35.2217   15.3243 C   0  0  0  0  0  0  0  0  0  0  0  0
  -26.6109  -35.3868   16.1674 O   0  0  0  0  0  0  0  0  0  0  0  0
  -28.0331  -35.4282   15.4426 P   0  0  0  0  0  0  0  0  0  0  0  0
  -29.2335  -35.2510   16.3057 O   0  0  0  0  0  0  0  0  0  0  0  0
  -27.9183  -34.3844   14.2425 O   0  0  0  0  0  0  0  0  0  0  0  0
  -28.0044  -36.8226   14.6666 O   0  0  0  0  0  0  0  0  0  0  0  0
  -27.9256  -33.4816   14.5973 H   0  0  0  0  0  0  0  0  0  0  0  0
  -28.0693  -37.5495   15.3055 H   0  0  0  0  0  0  0  0  0  0  0  0
  6  7  1  0
  7  8  2  0
  8  9  1  0
  1  9  1  0
  1  2  1  0
  2  3  1  0
  3 16  1  0
 16 17  1  0
 17 18  1  0
 18 19  1  0
 18 20  1  0
 18 21  1  0
 21 22  1  0
 22 23  1  0
 22 24  1  0
 22 25  1  0
 25 26  1  0
 26 27  1  0
 26 28  1  0
 26 29  1  0
  3  4  1  0
  4 30  1  0
 30 31  1  0
 31 32  1  0
 32 33  2  0
 32 34  1  0
 32 35  1  0
  4  5  1  0
  9 10  1  0
 10 11  2  0
 10 12  1  0
 12 13  1  0
 13 14  2  0
 13  7  1  0
  5  1  1  0
 34 36  1  0
 35 37  1  0
 12 15  1  0
M  END
> <minimizedAffinity>
-6.07131

> <CNNscore>
0.6318008304

> <CNNaffinity>
6.5680813789

> <CNN_VS>
4.1497192383

> <CNNaffinity_variance>
0.2259315699

$$$$



 37 38  0  0  0  0  0  0  0  0999 V2000
  -21.7659  -33.0506   15.6963 C   0  0  0  0  0  0  0  0  0  0  0  0
  -22.5321  -33.2110   14.3865 C   0  0  0  0  0  0  0  0  0  0  0  0
  -23.9392  -33.5532   14.8372 C   0  0  0  0  0  0  0  0  0  0  0  0
  -24.0221  -32.7945   16.1570 C   0  0  0  0  0  0  0  0  0  0  0  0
  -22.7206  -32.9306   16.7598 O   0  0  0  0  0  0  0  0  0  0  0  0
  -18.1391  -36.0624   14.2083 C   0  0  0  0  0  0  0  0  0  0  0  0
  -19.0213  -35.4924   15.2692 C   0  0  0  0  0  0  0  0  0  0  0  0
  -19.9991  -34.6056   15.0490 C   0  0  0  0  0  0  0  0  0  0  0  0
  -20.7962  -34.0886   16.0601 N   0  0  0  0  0  0  0  0  0  0  0  0
  -20.5640  -34.4221   17.3870 C   0  0  0  0  0  0  0  0  0  0  0  0
  -21.1839  -33.9778   18.3506 O   0  0  0  0  0  0  0  0  0  0  0  0
  -19.5691  -35.3389   17.6072 N   0  0  0  0  0  0  0  0  0  0  0  0
  -18.7802  -35.9253   16.6627 C   0  0  0  0  0  0  0  0  0  0  0  0
  -17.9256  -36.7568   16.9491 O   0  0  0  0  0  0  0  0  0  0  0  0
  -19.4079  -35.6004   18.5425 H   0  0  0  0  0  0  0  0  0  0  0  0
  -24.9398  -33.1110   13.9251 O   0  0  0  0  0  0  0  0  0  0  0  0
  -24.4166  -32.7196   12.6484 C   0  0  0  0  0  0  0  0  0  0  0  0
  -24.9371  -31.3296   12.2291 C   0  0  0  0  0  0  0  0  0  0  0  0
  -26.2753  -31.0555   12.9664 C   0  0  0  0  0  0  0  0  0  0  0  0
  -23.9552  -30.2361   12.7067 C   0  0  0  0  0  0  0  0  0  0  0  0
  -25.2467  -31.2060   10.6967 C   0  0  0  0  0  0  0  0  0  0  0  0
  -26.2216  -32.1465    9.9223 C   0  0  0  0  0  0  0  0  0  0  0  0
  -26.4393  -33.4877   10.6626 C   0  0  0  0  0  0  0  0  0  0  0  0
  -25.5163  -32.5430    8.5960 C   0  0  0  0  0  0  0  0  0  0  0  0
  -27.6457  -31.5570    9.6213 C   0  0  0  0  0  0  0  0  0  0  0  0
  -27.9378  -30.0796    9.1838 C   0  0  0  0  0  0  0  0  0  0  0  0
  -29.3625  -30.0676    8.5688 C   0  0  0  0  0  0  0  0  0  0  0  0
  -27.9742  -29.1097   10.3778 C   0  0  0  0  0  0  0  0  0  0  0  0
  -26.9811  -29.5206    8.1265 C   0  0  0  0  0  0  0  0  0  0  0  0
  -25.1078  -33.3385   17.0803 C   0  0  0  0  0  0  0  0  0  0  0  0
  -25.2772  -32.4591   18.1851 O   0  0  0  0  0  0  0  0  0  0  0  0
  -26.5864  -31.5452   18.1690 P   0  0  0  0  0  0  0  0  0  0  0  0
  -27.2693  -31.3712   16.8572 O   0  0  0  0  0  0  0  0  0  0  0  0
  -27.5139  -32.1275   19.3282 O   0  0  0  0  0  0  0  0  0  0  0  0
  -26.0805  -30.1751   18.8125 O   0  0  0  0  0  0  0  0  0  0  0  0
  -27.8869  -32.9778   19.0475 H   0  0  0  0  0  0  0  0  0  0  0  0
  -25.4953  -29.7206   18.1866 H   0  0  0  0  0  0  0  0  0  0  0  0
  6  7  1  0
  7  8  2  0
  8  9  1  0
  1  9  1  0
  1  2  1  0
  2  3  1  0
  3 16  1  0
 16 17  1  0
 17 18  1  0
 18 19  1  0
 18 20  1  0
 18 21  1  0
 21 22  1  0
 22 23  1  0
 22 24  1  0
 22 25  1  0
 25 26  1  0
 26 27  1  0
 26 28  1  0
 26 29  1  0
  3  4  1  0
  4 30  1  0
 30 31  1  0
 31 32  1  0
 32 33  2  0
 32 34  1  0
 32 35  1  0
  4  5  1  0
  9 10  1  0
 10 11  2  0
 10 12  1  0
 12 13  1  0
 13 14  2  0
 13  7  1  0
  5  1  1  0
 34 36  1  0
 35 37  1  0
 12 15  1  0
M  END
> <minimizedAffinity>
-6.42654

> <CNNscore>
0.5753643513

> <CNNaffinity>
6.2847685814

> <CNN_VS>
3.6160318851

> <CNNaffinity_variance>
0.3122544289

$$$$



 37 38  0  0  0  0  0  0  0  0999 V2000
  -27.1095  -28.5579   11.6517 C   0  0  0  0  0  0  0  0  0  0  0  0
  -25.6135  -28.7310   11.4058 C   0  0  0  0  0  0  0  0  0  0  0  0
  -25.2899  -30.0444   12.0916 C   0  0  0  0  0  0  0  0  0  0  0  0
  -26.6008  -30.8028   11.9166 C   0  0  0  0  0  0  0  0  0  0  0  0
  -27.6388  -29.8182   12.0859 O   0  0  0  0  0  0  0  0  0  0  0  0
  -26.4548  -23.9774   13.3918 C   0  0  0  0  0  0  0  0  0  0  0  0
  -27.1817  -25.2810   13.3646 C   0  0  0  0  0  0  0  0  0  0  0  0
  -26.8347  -26.3289   12.6078 C   0  0  0  0  0  0  0  0  0  0  0  0
  -27.5380  -27.5248   12.6000 N   0  0  0  0  0  0  0  0  0  0  0  0
  -28.7023  -27.6680   13.3412 C   0  0  0  0  0  0  0  0  0  0  0  0
  -29.4157  -28.6683   13.3583 O   0  0  0  0  0  0  0  0  0  0  0  0
  -29.0480  -26.5966   14.1232 N   0  0  0  0  0  0  0  0  0  0  0  0
  -28.3810  -25.4117   14.2200 C   0  0  0  0  0  0  0  0  0  0  0  0
  -28.7513  -24.5120   14.9666 O   0  0  0  0  0  0  0  0  0  0  0  0
  -29.8607  -26.6926   14.6706 H   0  0  0  0  0  0  0  0  0  0  0  0
  -24.2070  -30.7399   11.4816 O   0  0  0  0  0  0  0  0  0  0  0  0
  -23.0711  -30.8973   12.3429 C   0  0  0  0  0  0  0  0  0  0  0  0
  -22.6716  -32.3805   12.4820 C   0  0  0  0  0  0  0  0  0  0  0  0
  -23.1834  -32.9082   13.8492 C   0  0  0  0  0  0  0  0  0  0  0  0
  -23.3921  -33.2208   11.4037 C   0  0  0  0  0  0  0  0  0  0  0  0
  -21.1221  -32.6220   12.4702 C   0  0  0  0  0  0  0  0  0  0  0  0
  -20.3800  -33.5899   13.4434 C   0  0  0  0  0  0  0  0  0  0  0  0
  -18.8499  -33.5781   13.2135 C   0  0  0  0  0  0  0  0  0  0  0  0
  -20.8188  -35.0337   13.0743 C   0  0  0  0  0  0  0  0  0  0  0  0
  -20.6114  -33.3300   14.9748 C   0  0  0  0  0  0  0  0  0  0  0  0
  -20.1358  -34.2741   16.1332 C   0  0  0  0  0  0  0  0  0  0  0  0
  -18.9304  -33.5743   16.8154 C   0  0  0  0  0  0  0  0  0  0  0  0
  -21.2067  -34.4512   17.2238 C   0  0  0  0  0  0  0  0  0  0  0  0
  -19.6620  -35.6586   15.6813 C   0  0  0  0  0  0  0  0  0  0  0  0
  -26.7609  -31.9391   12.9218 C   0  0  0  0  0  0  0  0  0  0  0  0
  -26.5597  -31.4410   14.2386 O   0  0  0  0  0  0  0  0  0  0  0  0
  -27.5748  -31.9617   15.3558 P   0  0  0  0  0  0  0  0  0  0  0  0
  -28.2913  -30.9252   16.1493 O   0  0  0  0  0  0  0  0  0  0  0  0
  -28.5261  -32.9967   14.6029 O   0  0  0  0  0  0  0  0  0  0  0  0
  -26.6713  -32.9336   16.2424 O   0  0  0  0  0  0  0  0  0  0  0  0
  -29.1338  -32.5135   14.0215 H   0  0  0  0  0  0  0  0  0  0  0  0
  -26.0392  -32.4077   16.7569 H   0  0  0  0  0  0  0  0  0  0  0  0
  6  7  1  0
  7  8  2  0
  8  9  1  0
  1  9  1  0
  1  2  1  0
  2  3  1  0
  3 16  1  0
 16 17  1  0
 17 18  1  0
 18 19  1  0
 18 20  1  0
 18 21  1  0
 21 22  1  0
 22 23  1  0
 22 24  1  0
 22 25  1  0
 25 26  1  0
 26 27  1  0
 26 28  1  0
 26 29  1  0
  3  4  1  0
  4 30  1  0
 30 31  1  0
 31 32  1  0
 32 33  2  0
 32 34  1  0
 32 35  1  0
  4  5  1  0
  9 10  1  0
 10 11  2  0
 10 12  1  0
 12 13  1  0
 13 14  2  0
 13  7  1  0
  5  1  1  0
 34 36  1  0
 35 37  1  0
 12 15  1  0
M  END
> <minimizedAffinity>
-5.59531

> <CNNscore>
0.5147634745

> <CNNaffinity>
6.0050377846

> <CNN_VS>
3.0911741257

> <CNNaffinity_variance>
0.0255941059

$$$$



 37 38  0  0  0  0  0  0  0  0999 V2000
  -25.4997  -32.2479   15.7974 C   0  0  0  0  0  0  0  0  0  0  0  0
  -26.3990  -32.9754   14.8023 C   0  0  0  0  0  0  0  0  0  0  0  0
  -27.7574  -32.9647   15.4766 C   0  0  0  0  0  0  0  0  0  0  0  0
  -27.6923  -31.6566   16.2570 C   0  0  0  0  0  0  0  0  0  0  0  0
  -26.3380  -31.5654   16.7400 O   0  0  0  0  0  0  0  0  0  0  0  0
  -20.7268  -33.2163   16.6463 C   0  0  0  0  0  0  0  0  0  0  0  0
  -22.1790  -33.4241   16.9232 C   0  0  0  0  0  0  0  0  0  0  0  0
  -23.1731  -32.8288   16.2534 C   0  0  0  0  0  0  0  0  0  0  0  0
  -24.5139  -33.0377   16.5422 N   0  0  0  0  0  0  0  0  0  0  0  0
  -24.8932  -33.8382   17.6104 C   0  0  0  0  0  0  0  0  0  0  0  0
  -26.0502  -34.0413   17.9709 O   0  0  0  0  0  0  0  0  0  0  0  0
  -23.8726  -34.4546   18.2867 N   0  0  0  0  0  0  0  0  0  0  0  0
  -22.5390  -34.3366   18.0299 C   0  0  0  0  0  0  0  0  0  0  0  0
  -21.6926  -34.9462   18.6747 O   0  0  0  0  0  0  0  0  0  0  0  0
  -24.1288  -35.0423   19.0338 H   0  0  0  0  0  0  0  0  0  0  0  0
  -28.8395  -32.9587   14.5505 O   0  0  0  0  0  0  0  0  0  0  0  0
  -28.4384  -33.2327   13.2011 C   0  0  0  0  0  0  0  0  0  0  0  0
  -29.1810  -32.3261   12.1983 C   0  0  0  0  0  0  0  0  0  0  0  0
  -30.5124  -33.0149   11.7953 C   0  0  0  0  0  0  0  0  0  0  0  0
  -29.5776  -30.9997   12.8848 C   0  0  0  0  0  0  0  0  0  0  0  0
  -28.3930  -32.0795   10.8649 C   0  0  0  0  0  0  0  0  0  0  0  0
  -27.3027  -30.9782   10.6838 C   0  0  0  0  0  0  0  0  0  0  0  0
  -27.9227  -29.5646   10.5758 C   0  0  0  0  0  0  0  0  0  0  0  0
  -26.6362  -31.2185    9.3012 C   0  0  0  0  0  0  0  0  0  0  0  0
  -26.2071  -30.9093   11.8068 C   0  0  0  0  0  0  0  0  0  0  0  0
  -24.7989  -30.2358   11.6548 C   0  0  0  0  0  0  0  0  0  0  0  0
  -24.0249  -31.0518   10.5855 C   0  0  0  0  0  0  0  0  0  0  0  0
  -24.8910  -28.7969   11.1175 C   0  0  0  0  0  0  0  0  0  0  0  0
  -23.9474  -30.2308   12.9277 C   0  0  0  0  0  0  0  0  0  0  0  0
  -28.6856  -31.6127   17.4141 C   0  0  0  0  0  0  0  0  0  0  0  0
  -28.7603  -30.2882   17.9266 O   0  0  0  0  0  0  0  0  0  0  0  0
  -28.3264  -30.0929   19.4509 P   0  0  0  0  0  0  0  0  0  0  0  0
  -29.0908  -29.0916   20.2449 O   0  0  0  0  0  0  0  0  0  0  0  0
  -28.3138  -31.5622   20.0708 O   0  0  0  0  0  0  0  0  0  0  0  0
  -26.7671  -29.7693   19.3457 O   0  0  0  0  0  0  0  0  0  0  0  0
  -29.2255  -31.8733   20.1837 H   0  0  0  0  0  0  0  0  0  0  0  0
  -26.6455  -28.8817   18.9738 H   0  0  0  0  0  0  0  0  0  0  0  0
  6  7  1  0
  7  8  2  0
  8  9  1  0
  1  9  1  0
  1  2  1  0
  2  3  1  0
  3 16  1  0
 16 17  1  0
 17 18  1  0
 18 19  1  0
 18 20  1  0
 18 21  1  0
 21 22  1  0
 22 23  1  0
 22 24  1  0
 22 25  1  0
 25 26  1  0
 26 27  1  0
 26 28  1  0
 26 29  1  0
  3  4  1  0
  4 30  1  0
 30 31  1  0
 31 32  1  0
 32 33  2  0
 32 34  1  0
 32 35  1  0
  4  5  1  0
  9 10  1  0
 10 11  2  0
 10 12  1  0
 12 13  1  0
 13 14  2  0
 13  7  1  0
  5  1  1  0
 34 36  1  0
 35 37  1  0
 12 15  1  0
M  END
> <minimizedAffinity>
-6.86165

> <CNNscore>
0.4437862635

> <CNNaffinity>
5.8892807961

> <CNN_VS>
2.6135818958

> <CNNaffinity_variance>
0.1476660520

$$$$



 37 38  0  0  0  0  0  0  0  0999 V2000
  -22.9155  -32.7407   15.5013 C   0  0  0  0  0  0  0  0  0  0  0  0
  -23.5002  -33.1560   14.1544 C   0  0  0  0  0  0  0  0  0  0  0  0
  -24.9146  -33.5829   14.4970 C   0  0  0  0  0  0  0  0  0  0  0  0
  -25.2248  -32.6674   15.6760 C   0  0  0  0  0  0  0  0  0  0  0  0
  -23.9987  -32.5819   16.4278 O   0  0  0  0  0  0  0  0  0  0  0  0
  -18.3930  -34.7155   15.2091 C   0  0  0  0  0  0  0  0  0  0  0  0
  -19.6892  -34.5001   15.9176 C   0  0  0  0  0  0  0  0  0  0  0  0
  -20.7176  -33.7996   15.4245 C   0  0  0  0  0  0  0  0  0  0  0  0
  -21.9069  -33.6112   16.1136 N   0  0  0  0  0  0  0  0  0  0  0  0
  -22.0618  -34.0923   17.4060 C   0  0  0  0  0  0  0  0  0  0  0  0
  -23.0563  -33.9320   18.1098 O   0  0  0  0  0  0  0  0  0  0  0  0
  -21.0107  -34.8183   17.9030 N   0  0  0  0  0  0  0  0  0  0  0  0
  -19.8347  -35.0860   17.2677 C   0  0  0  0  0  0  0  0  0  0  0  0
  -18.9541  -35.7672   17.7818 O   0  0  0  0  0  0  0  0  0  0  0  0
  -21.1158  -35.1836   18.8112 H   0  0  0  0  0  0  0  0  0  0  0  0
  -25.8335  -33.3762   13.4286 O   0  0  0  0  0  0  0  0  0  0  0  0
  -25.7611  -32.0621   12.8587 C   0  0  0  0  0  0  0  0  0  0  0  0
  -25.7484  -32.1171   11.3173 C   0  0  0  0  0  0  0  0  0  0  0  0
  -24.2995  -31.8628   10.8217 C   0  0  0  0  0  0  0  0  0  0  0  0
  -26.1189  -33.5396   10.8405 C   0  0  0  0  0  0  0  0  0  0  0  0
  -26.6434  -31.0231   10.6379 C   0  0  0  0  0  0  0  0  0  0  0  0
  -26.3528  -30.4013    9.2367 C   0  0  0  0  0  0  0  0  0  0  0  0
  -25.1294  -29.4544    9.2680 C   0  0  0  0  0  0  0  0  0  0  0  0
  -27.5525  -29.4773    8.8894 C   0  0  0  0  0  0  0  0  0  0  0  0
  -26.1052  -31.4254    8.0721 C   0  0  0  0  0  0  0  0  0  0  0  0
  -27.2277  -32.1877    7.2857 C   0  0  0  0  0  0  0  0  0  0  0  0
  -27.6950  -31.2449    6.1451 C   0  0  0  0  0  0  0  0  0  0  0  0
  -26.7040  -33.4641    6.6042 C   0  0  0  0  0  0  0  0  0  0  0  0
  -28.4642  -32.5462    8.1151 C   0  0  0  0  0  0  0  0  0  0  0  0
  -26.3603  -33.1956   16.5471 C   0  0  0  0  0  0  0  0  0  0  0  0
  -26.2139  -32.6991   17.8717 O   0  0  0  0  0  0  0  0  0  0  0  0
  -27.0993  -31.4263   18.2532 P   0  0  0  0  0  0  0  0  0  0  0  0
  -28.0382  -30.9236   17.2125 O   0  0  0  0  0  0  0  0  0  0  0  0
  -27.7868  -31.7998   19.6429 O   0  0  0  0  0  0  0  0  0  0  0  0
  -26.0114  -30.3499   18.7058 O   0  0  0  0  0  0  0  0  0  0  0  0
  -28.4806  -32.4609   19.4930 H   0  0  0  0  0  0  0  0  0  0  0  0
  -25.5186  -30.0420   17.9291 H   0  0  0  0  0  0  0  0  0  0  0  0
  6  7  1  0
  7  8  2  0
  8  9  1  0
  1  9  1  0
  1  2  1  0
  2  3  1  0
  3 16  1  0
 16 17  1  0
 17 18  1  0
 18 19  1  0
 18 20  1  0
 18 21  1  0
 21 22  1  0
 22 23  1  0
 22 24  1  0
 22 25  1  0
 25 26  1  0
 26 27  1  0
 26 28  1  0
 26 29  1  0
  3  4  1  0
  4 30  1  0
 30 31  1  0
 31 32  1  0
 32 33  2  0
 32 34  1  0
 32 35  1  0
  4  5  1  0
  9 10  1  0
 10 11  2  0
 10 12  1  0
 12 13  1  0
 13 14  2  0
 13  7  1  0
  5  1  1  0
 34 36  1  0
 35 37  1  0
 12 15  1  0
M  END
> <minimizedAffinity>
-6.71131

> <CNNscore>
0.3973742425

> <CNNaffinity>
5.8585186005

> <CNN_VS>
2.3280243874

> <CNNaffinity_variance>
0.2478842288

$$$$



 37 38  0  0  0  0  0  0  0  0999 V2000
  -22.9262  -32.6576   16.3016 C   0  0  0  0  0  0  0  0  0  0  0  0
  -23.4473  -32.6779   14.8676 C   0  0  0  0  0  0  0  0  0  0  0  0
  -24.7576  -33.4338   14.9759 C   0  0  0  0  0  0  0  0  0  0  0  0
  -25.2086  -33.0485   16.3804 C   0  0  0  0  0  0  0  0  0  0  0  0
  -24.0065  -33.0171   17.1738 O   0  0  0  0  0  0  0  0  0  0  0  0
  -18.1123  -33.5553   15.6241 C   0  0  0  0  0  0  0  0  0  0  0  0
  -19.4241  -33.8462   16.2745 C   0  0  0  0  0  0  0  0  0  0  0  0
  -20.5677  -33.2084   15.9976 C   0  0  0  0  0  0  0  0  0  0  0  0
  -21.7695  -33.4979   16.6274 N   0  0  0  0  0  0  0  0  0  0  0  0
  -21.8274  -34.4362   17.6482 C   0  0  0  0  0  0  0  0  0  0  0  0
  -22.8325  -34.7223   18.2946 O   0  0  0  0  0  0  0  0  0  0  0  0
  -20.6567  -35.0948   17.9212 N   0  0  0  0  0  0  0  0  0  0  0  0
  -19.4528  -34.8996   17.3122 C   0  0  0  0  0  0  0  0  0  0  0  0
  -18.4579  -35.5537   17.6057 O   0  0  0  0  0  0  0  0  0  0  0  0
  -20.6885  -35.7784   18.6290 H   0  0  0  0  0  0  0  0  0  0  0  0
  -25.7145  -33.0336   13.9997 O   0  0  0  0  0  0  0  0  0  0  0  0
  -25.2597  -31.9649   13.1582 C   0  0  0  0  0  0  0  0  0  0  0  0
  -25.1096  -32.4265   11.6942 C   0  0  0  0  0  0  0  0  0  0  0  0
  -25.5702  -33.9051   11.5883 C   0  0  0  0  0  0  0  0  0  0  0  0
  -26.0643  -31.6164   10.7886 C   0  0  0  0  0  0  0  0  0  0  0  0
  -23.6330  -32.3877   11.1670 C   0  0  0  0  0  0  0  0  0  0  0  0
  -23.1911  -32.9071    9.7637 C   0  0  0  0  0  0  0  0  0  0  0  0
  -22.6750  -34.3646    9.8240 C   0  0  0  0  0  0  0  0  0  0  0  0
  -21.9524  -32.0721    9.3370 C   0  0  0  0  0  0  0  0  0  0  0  0
  -24.2875  -32.8594    8.6404 C   0  0  0  0  0  0  0  0  0  0  0  0
  -24.4997  -33.9547    7.5381 C   0  0  0  0  0  0  0  0  0  0  0  0
  -25.6172  -33.4324    6.5966 C   0  0  0  0  0  0  0  0  0  0  0  0
  -23.2521  -34.1533    6.6596 C   0  0  0  0  0  0  0  0  0  0  0  0
  -24.9505  -35.3198    8.0660 C   0  0  0  0  0  0  0  0  0  0  0  0
  -26.2187  -34.0318   16.9636 C   0  0  0  0  0  0  0  0  0  0  0  0
  -26.2937  -33.8566   18.3730 O   0  0  0  0  0  0  0  0  0  0  0  0
  -27.5082  -32.9720   18.9133 P   0  0  0  0  0  0  0  0  0  0  0  0
  -27.3512  -31.4934   18.8335 O   0  0  0  0  0  0  0  0  0  0  0  0
  -28.8000  -33.5435   18.1731 O   0  0  0  0  0  0  0  0  0  0  0  0
  -27.7176  -33.5129   20.4002 O   0  0  0  0  0  0  0  0  0  0  0  0
  -28.7844  -33.2742   17.2414 H   0  0  0  0  0  0  0  0  0  0  0  0
  -26.9782  -33.2229   20.9569 H   0  0  0  0  0  0  0  0  0  0  0  0
  6  7  1  0
  7  8  2  0
  8  9  1  0
  1  9  1  0
  1  2  1  0
  2  3  1  0
  3 16  1  0
 16 17  1  0
 17 18  1  0
 18 19  1  0
 18 20  1  0
 18 21  1  0
 21 22  1  0
 22 23  1  0
 22 24  1  0
 22 25  1  0
 25 26  1  0
 26 27  1  0
 26 28  1  0
 26 29  1  0
  3  4  1  0
  4 30  1  0
 30 31  1  0
 31 32  1  0
 32 33  2  0
 32 34  1  0
 32 35  1  0
  4  5  1  0
  9 10  1  0
 10 11  2  0
 10 12  1  0
 12 13  1  0
 13 14  2  0
 13  7  1  0
  5  1  1  0
 34 36  1  0
 35 37  1  0
 12 15  1  0
M  END
> <minimizedAffinity>
-7.10744

> <CNNscore>
0.3729179800

> <CNNaffinity>
5.8544220924

> <CNN_VS>
2.1832191944

> <CNNaffinity_variance>
0.3053908646

$$$$



 37 38  0  0  0  0  0  0  0  0999 V2000
  -28.0714  -34.5006   16.0205 C   0  0  0  0  0  0  0  0  0  0  0  0
  -26.8411  -34.1147   15.2046 C   0  0  0  0  0  0  0  0  0  0  0  0
  -26.0962  -33.1575   16.1151 C   0  0  0  0  0  0  0  0  0  0  0  0
  -26.4654  -33.7052   17.4891 C   0  0  0  0  0  0  0  0  0  0  0  0
  -27.8434  -34.1118   17.3821 O   0  0  0  0  0  0  0  0  0  0  0  0
  -30.5418  -30.9533   13.6223 C   0  0  0  0  0  0  0  0  0  0  0  0
  -30.4952  -32.2336   14.3885 C   0  0  0  0  0  0  0  0  0  0  0  0
  -29.3821  -32.7735   14.8992 C   0  0  0  0  0  0  0  0  0  0  0  0
  -29.3724  -33.9710   15.5999 N   0  0  0  0  0  0  0  0  0  0  0  0
  -30.5334  -34.7170   15.7457 C   0  0  0  0  0  0  0  0  0  0  0  0
  -30.6115  -35.8084   16.3050 O   0  0  0  0  0  0  0  0  0  0  0  0
  -31.6729  -34.1554   15.2310 N   0  0  0  0  0  0  0  0  0  0  0  0
  -31.7677  -32.9637   14.5758 C   0  0  0  0  0  0  0  0  0  0  0  0
  -32.8377  -32.5255   14.1673 O   0  0  0  0  0  0  0  0  0  0  0  0
  -32.5077  -34.6644   15.3461 H   0  0  0  0  0  0  0  0  0  0  0  0
  -24.6864  -33.1795   15.9136 O   0  0  0  0  0  0  0  0  0  0  0  0
  -24.0335  -34.2796   16.5621 C   0  0  0  0  0  0  0  0  0  0  0  0
  -22.6925  -33.8473   17.1896 C   0  0  0  0  0  0  0  0  0  0  0  0
  -22.3398  -32.4241   16.6799 C   0  0  0  0  0  0  0  0  0  0  0  0
  -22.8460  -33.7256   18.7224 C   0  0  0  0  0  0  0  0  0  0  0  0
  -21.4845  -34.7667   16.7959 C   0  0  0  0  0  0  0  0  0  0  0  0
  -20.6940  -34.6469   15.4561 C   0  0  0  0  0  0  0  0  0  0  0  0
  -19.9415  -33.2992   15.3485 C   0  0  0  0  0  0  0  0  0  0  0  0
  -21.7420  -34.6010   14.3101 C   0  0  0  0  0  0  0  0  0  0  0  0
  -19.6410  -35.7787   15.1798 C   0  0  0  0  0  0  0  0  0  0  0  0
  -18.2701  -35.9385   15.9247 C   0  0  0  0  0  0  0  0  0  0  0  0
  -17.1834  -35.3301   14.9989 C   0  0  0  0  0  0  0  0  0  0  0  0
  -18.2179  -35.1370   17.2372 C   0  0  0  0  0  0  0  0  0  0  0  0
  -17.8613  -37.3853   16.2166 C   0  0  0  0  0  0  0  0  0  0  0  0
  -26.2880  -32.6744   18.5996 C   0  0  0  0  0  0  0  0  0  0  0  0
  -27.5619  -32.1929   19.0094 O   0  0  0  0  0  0  0  0  0  0  0  0
  -27.7845  -30.6142   18.9209 P   0  0  0  0  0  0  0  0  0  0  0  0
  -28.6325  -30.1161   17.8028 O   0  0  0  0  0  0  0  0  0  0  0  0
  -28.2806  -30.1825   20.3737 O   0  0  0  0  0  0  0  0  0  0  0  0
  -26.2962  -30.0385   18.8994 O   0  0  0  0  0  0  0  0  0  0  0  0
  -29.1930  -30.4838   20.5066 H   0  0  0  0  0  0  0  0  0  0  0  0
  -25.8824  -30.2437   18.0465 H   0  0  0  0  0  0  0  0  0  0  0  0
  6  7  1  0
  7  8  2  0
  8  9  1  0
  1  9  1  0
  1  2  1  0
  2  3  1  0
  3 16  1  0
 16 17  1  0
 17 18  1  0
 18 19  1  0
 18 20  1  0
 18 21  1  0
 21 22  1  0
 22 23  1  0
 22 24  1  0
 22 25  1  0
 25 26  1  0
 26 27  1  0
 26 28  1  0
 26 29  1  0
  3  4  1  0
  4 30  1  0
 30 31  1  0
 31 32  1  0
 32 33  2  0
 32 34  1  0
 32 35  1  0
  4  5  1  0
  9 10  1  0
 10 11  2  0
 10 12  1  0
 12 13  1  0
 13 14  2  0
 13  7  1  0
  5  1  1  0
 34 36  1  0
 35 37  1  0
 12 15  1  0
M  END
> <minimizedAffinity>
-6.60531

> <CNNscore>
0.3550217748

> <CNNaffinity>
6.0870494843

> <CNN_VS>
2.1610350609

> <CNNaffinity_variance>
0.0096097356

$$$$
