


 27 30  0  0  0  0  0  0  0  0999 V2000
   -6.2270    7.2648   25.0117 C   0  0  0  0  0  0  0  0  0  0  0  0
   -6.0938    8.4003   25.8240 C   0  0  0  0  0  0  0  0  0  0  0  0
   -6.7343    8.4587   27.0552 C   0  0  0  0  0  0  0  0  0  0  0  0
   -6.5754    9.5910   27.7977 O   0  0  0  0  0  0  0  0  0  0  0  0
   -7.5068    7.3955   27.5101 C   0  0  0  0  0  0  0  0  0  0  0  0
   -7.6438    6.2411   26.7227 C   0  0  0  0  0  0  0  0  0  0  0  0
   -7.0187    6.1974   25.4662 C   0  0  0  0  0  0  0  0  0  0  0  0
   -7.1169    5.0996   24.6504 O   0  0  0  0  0  0  0  0  0  0  0  0
   -8.3589    4.4032   24.7970 C   0  0  0  0  0  0  0  0  0  0  0  0
   -8.5406    3.9089   26.2334 C   0  0  0  0  0  0  0  0  0  0  0  0
   -7.4801    2.9208   26.7312 C   0  0  0  0  0  0  0  0  0  0  0  0
   -7.6539    2.9825   28.2376 C   0  0  0  0  0  0  0  0  0  0  0  0
   -7.8600    4.4651   28.5230 C   0  0  0  0  0  0  0  0  0  0  0  0
   -8.4569    5.0742   27.2363 C   0  0  0  0  0  0  0  0  0  0  0  0
   -6.0502   10.2952   27.4717 H   0  0  0  0  0  0  0  0  0  0  0  0
   -8.4408    3.2644   23.7904 C   0  0  0  0  0  0  0  0  0  0  0  0
   -9.6183    2.5041   23.6931 C   0  0  0  0  0  0  0  0  0  0  0  0
   -9.7134    1.4409   22.7906 C   0  0  0  0  0  0  0  0  0  0  0  0
   -8.6269    1.1238   21.9770 C   0  0  0  0  0  0  0  0  0  0  0  0
   -8.7194    0.0808   21.0966 O   0  0  0  0  0  0  0  0  0  0  0  0
   -7.4467    1.8662   22.0621 C   0  0  0  0  0  0  0  0  0  0  0  0
   -6.0785    1.4977   21.0764 Cl  0  0  0  0  0  0  0  0  0  0  0  0
   -7.3555    2.9299   22.9632 C   0  0  0  0  0  0  0  0  0  0  0  0
   -9.5117   -0.4163   21.0406 H   0  0  0  0  0  0  0  0  0  0  0  0
   -5.5538    7.2275   23.6615 C   0  0  0  0  0  0  0  0  0  0  0  0
   -6.3198    7.9378   21.5250 C   0  0  0  0  0  0  0  0  0  0  0  0
   -5.9407    8.3281   22.8367 O   0  0  0  0  0  0  0  0  0  0  0  0
 26 27  1  0
 27 25  1  0
 25  1  1  0
  1  2  2  0
  2  3  1  0
  3  4  1  0
  3  5  2  0
  5  6  1  0
  6  7  2  0
  7  8  1  0
  8  9  1  0
  9 16  1  0
 16 17  2  0
 17 18  1  0
 18 19  2  0
 19 20  1  0
 19 21  1  0
 21 22  1  0
 21 23  2  0
  9 10  1  0
 10 11  1  0
 11 12  1  0
 12 13  1  0
 14 13  1  0
  7  1  1  0
 23 16  1  0
 14 10  1  0
 14  6  1  0
  4 15  1  0
 20 24  1  0
M  END
> <minimizedAffinity>
-9.70659

> <CNNscore>
0.9536950588

> <CNNaffinity>
8.0584440231

> <CNN_VS>
7.6852984428

> <CNNaffinity_variance>
0.3093155921

$$$$



 27 30  0  0  0  0  0  0  0  0999 V2000
   -7.9274    6.3658   26.5227 C   0  0  0  0  0  0  0  0  0  0  0  0
   -7.6587    7.4552   27.3643 C   0  0  0  0  0  0  0  0  0  0  0  0
   -6.6709    8.3720   27.0279 C   0  0  0  0  0  0  0  0  0  0  0  0
   -6.4483    9.4059   27.8883 O   0  0  0  0  0  0  0  0  0  0  0  0
   -5.9400    8.2361   25.8526 C   0  0  0  0  0  0  0  0  0  0  0  0
   -6.1999    7.1629   24.9854 C   0  0  0  0  0  0  0  0  0  0  0  0
   -7.1791    6.2221   25.3429 C   0  0  0  0  0  0  0  0  0  0  0  0
   -7.4769    5.1515   24.5395 O   0  0  0  0  0  0  0  0  0  0  0  0
   -6.3500    4.6831   23.7915 C   0  0  0  0  0  0  0  0  0  0  0  0
   -5.8035    5.7849   22.8815 C   0  0  0  0  0  0  0  0  0  0  0  0
   -6.7793    6.3131   21.8243 C   0  0  0  0  0  0  0  0  0  0  0  0
   -6.1473    7.6333   21.4232 C   0  0  0  0  0  0  0  0  0  0  0  0
   -5.6748    8.2301   22.7433 C   0  0  0  0  0  0  0  0  0  0  0  0
   -5.4261    7.0383   23.6923 C   0  0  0  0  0  0  0  0  0  0  0  0
   -6.9526    9.4779   28.6747 H   0  0  0  0  0  0  0  0  0  0  0  0
   -6.7268    3.4342   23.0071 C   0  0  0  0  0  0  0  0  0  0  0  0
   -5.7890    2.8457   22.1419 C   0  0  0  0  0  0  0  0  0  0  0  0
   -6.1154    1.7097   21.3957 C   0  0  0  0  0  0  0  0  0  0  0  0
   -7.3882    1.1518   21.5043 C   0  0  0  0  0  0  0  0  0  0  0  0
   -7.7081    0.0422   20.7708 O   0  0  0  0  0  0  0  0  0  0  0  0
   -8.3349    1.7251   22.3566 C   0  0  0  0  0  0  0  0  0  0  0  0
   -9.9229    1.0666   22.5108 Cl  0  0  0  0  0  0  0  0  0  0  0  0
   -8.0050    2.8589   23.1032 C   0  0  0  0  0  0  0  0  0  0  0  0
   -7.0720   -0.3412   20.1995 H   0  0  0  0  0  0  0  0  0  0  0  0
   -8.9797    5.3581   26.9162 C   0  0  0  0  0  0  0  0  0  0  0  0
   -8.0327    3.9911   28.6163 C   0  0  0  0  0  0  0  0  0  0  0  0
   -8.4123    4.0905   27.2516 O   0  0  0  0  0  0  0  0  0  0  0  0
 26 27  1  0
 27 25  1  0
 25  1  1  0
  1  2  2  0
  2  3  1  0
  3  4  1  0
  3  5  2  0
  5  6  1  0
  6  7  2  0
  7  8  1  0
  8  9  1  0
  9 16  1  0
 16 17  2  0
 17 18  1  0
 18 19  2  0
 19 20  1  0
 19 21  1  0
 21 22  1  0
 21 23  2  0
  9 10  1  0
 10 11  1  0
 11 12  1  0
 12 13  1  0
 14 13  1  0
  7  1  1  0
 23 16  1  0
 14 10  1  0
 14  6  1  0
  4 15  1  0
 20 24  1  0
M  END
> <minimizedAffinity>
-9.92535

> <CNNscore>
0.8670414090

> <CNNaffinity>
7.9044566154

> <CNN_VS>
6.8534913063

> <CNNaffinity_variance>
0.2776164711

$$$$



 27 30  0  0  0  0  0  0  0  0999 V2000
   -4.0925   -0.1875   33.9362 C   0  0  0  0  0  0  0  0  0  0  0  0
   -2.8247    0.3493   34.2040 C   0  0  0  0  0  0  0  0  0  0  0  0
   -1.7388   -0.4914   34.4122 C   0  0  0  0  0  0  0  0  0  0  0  0
   -0.5328    0.0869   34.6767 O   0  0  0  0  0  0  0  0  0  0  0  0
   -1.8824   -1.8732   34.3494 C   0  0  0  0  0  0  0  0  0  0  0  0
   -3.1377   -2.4356   34.0679 C   0  0  0  0  0  0  0  0  0  0  0  0
   -4.2389   -1.5835   33.8867 C   0  0  0  0  0  0  0  0  0  0  0  0
   -5.4904   -2.0720   33.6117 O   0  0  0  0  0  0  0  0  0  0  0  0
   -5.7337   -3.3520   34.2043 C   0  0  0  0  0  0  0  0  0  0  0  0
   -4.7292   -4.3880   33.6962 C   0  0  0  0  0  0  0  0  0  0  0  0
   -4.7549   -4.6479   32.1860 C   0  0  0  0  0  0  0  0  0  0  0  0
   -3.4165   -5.3216   31.9450 C   0  0  0  0  0  0  0  0  0  0  0  0
   -2.4457   -4.5304   32.8130 C   0  0  0  0  0  0  0  0  0  0  0  0
   -3.2820   -3.9375   33.9670 C   0  0  0  0  0  0  0  0  0  0  0  0
   -0.4590    1.0202   34.7143 H   0  0  0  0  0  0  0  0  0  0  0  0
   -7.1712   -3.7815   33.9469 C   0  0  0  0  0  0  0  0  0  0  0  0
   -8.2112   -2.8453   34.0735 C   0  0  0  0  0  0  0  0  0  0  0  0
   -9.5417   -3.2178   33.8614 C   0  0  0  0  0  0  0  0  0  0  0  0
   -9.8466   -4.5354   33.5238 C   0  0  0  0  0  0  0  0  0  0  0  0
  -11.1493   -4.9002   33.3200 O   0  0  0  0  0  0  0  0  0  0  0  0
   -8.8263   -5.4810   33.3969 C   0  0  0  0  0  0  0  0  0  0  0  0
   -9.1666   -7.1230   32.9881 Cl  0  0  0  0  0  0  0  0  0  0  0  0
   -7.4972   -5.1052   33.6069 C   0  0  0  0  0  0  0  0  0  0  0  0
  -11.8326   -4.2647   33.4055 H   0  0  0  0  0  0  0  0  0  0  0  0
   -5.2709    0.7358   33.7453 C   0  0  0  0  0  0  0  0  0  0  0  0
   -5.6936    3.0745   33.8317 C   0  0  0  0  0  0  0  0  0  0  0  0
   -5.1305    1.9482   34.4880 O   0  0  0  0  0  0  0  0  0  0  0  0
 26 27  1  0
 27 25  1  0
 25  1  1  0
  1  2  2  0
  2  3  1  0
  3  4  1  0
  3  5  2  0
  5  6  1  0
  6  7  2  0
  7  8  1  0
  8  9  1  0
  9 16  1  0
 16 17  2  0
 17 18  1  0
 18 19  2  0
 19 20  1  0
 19 21  1  0
 21 22  1  0
 21 23  2  0
  9 10  1  0
 10 11  1  0
 11 12  1  0
 12 13  1  0
 14 13  1  0
  7  1  1  0
 23 16  1  0
 14 10  1  0
 14  6  1  0
  4 15  1  0
 20 24  1  0
M  END
> <minimizedAffinity>
-6.11998

> <CNNscore>
0.7349244356

> <CNNaffinity>
5.6375699043

> <CNN_VS>
4.1431879997

> <CNNaffinity_variance>
0.0031181604

$$$$



 27 30  0  0  0  0  0  0  0  0999 V2000
   -5.4655    7.2168   25.1184 C   0  0  0  0  0  0  0  0  0  0  0  0
   -5.4836    8.3432   25.9539 C   0  0  0  0  0  0  0  0  0  0  0  0
   -6.3423    8.3913   27.0447 C   0  0  0  0  0  0  0  0  0  0  0  0
   -6.3221    9.5151   27.8164 O   0  0  0  0  0  0  0  0  0  0  0  0
   -7.1885    7.3267   27.3356 C   0  0  0  0  0  0  0  0  0  0  0  0
   -7.1788    6.1813   26.5237 C   0  0  0  0  0  0  0  0  0  0  0  0
   -6.3304    6.1482   25.4053 C   0  0  0  0  0  0  0  0  0  0  0  0
   -6.2772    5.0594   24.5733 O   0  0  0  0  0  0  0  0  0  0  0  0
   -7.5263    4.3669   24.4780 C   0  0  0  0  0  0  0  0  0  0  0  0
   -7.9739    3.8583   25.8497 C   0  0  0  0  0  0  0  0  0  0  0  0
   -7.0270    2.8604   26.5255 C   0  0  0  0  0  0  0  0  0  0  0  0
   -7.4786    2.9069   27.9736 C   0  0  0  0  0  0  0  0  0  0  0  0
   -7.7310    4.3873   28.2321 C   0  0  0  0  0  0  0  0  0  0  0  0
   -8.0761    5.0125   26.8636 C   0  0  0  0  0  0  0  0  0  0  0  0
   -5.7438   10.2204   27.6018 H   0  0  0  0  0  0  0  0  0  0  0  0
   -7.4216    3.2391   23.4610 C   0  0  0  0  0  0  0  0  0  0  0  0
   -6.1709    2.9109   22.9114 C   0  0  0  0  0  0  0  0  0  0  0  0
   -6.0496    1.8924   21.9616 C   0  0  0  0  0  0  0  0  0  0  0  0
   -7.1821    1.1930   21.5477 C   0  0  0  0  0  0  0  0  0  0  0  0
   -7.0632    0.1988   20.6154 O   0  0  0  0  0  0  0  0  0  0  0  0
   -8.4344    1.5076   22.0804 C   0  0  0  0  0  0  0  0  0  0  0  0
   -9.8595    0.6686   21.5860 Cl  0  0  0  0  0  0  0  0  0  0  0  0
   -8.5522    2.5243   23.0314 C   0  0  0  0  0  0  0  0  0  0  0  0
   -6.2224   -0.0111   20.2590 H   0  0  0  0  0  0  0  0  0  0  0  0
   -4.5523    7.1910   23.9171 C   0  0  0  0  0  0  0  0  0  0  0  0
   -6.0166    8.0265   22.2397 C   0  0  0  0  0  0  0  0  0  0  0  0
   -5.2620    6.9183   22.7074 O   0  0  0  0  0  0  0  0  0  0  0  0
 26 27  1  0
 27 25  1  0
 25  1  1  0
  1  2  2  0
  2  3  1  0
  3  4  1  0
  3  5  2  0
  5  6  1  0
  6  7  2  0
  7  8  1  0
  8  9  1  0
  9 16  1  0
 16 17  2  0
 17 18  1  0
 18 19  2  0
 19 20  1  0
 19 21  1  0
 21 22  1  0
 21 23  2  0
  9 10  1  0
 10 11  1  0
 11 12  1  0
 12 13  1  0
 14 13  1  0
  7  1  1  0
 23 16  1  0
 14 10  1  0
 14  6  1  0
  4 15  1  0
 20 24  1  0
M  END
> <minimizedAffinity>
-9.36242

> <CNNscore>
0.7031597495

> <CNNaffinity>
7.4794354439

> <CNN_VS>
5.2592377663

> <CNNaffinity_variance>
0.0953304395

$$$$



 27 30  0  0  0  0  0  0  0  0999 V2000
   -6.9426    6.4169   26.6140 C   0  0  0  0  0  0  0  0  0  0  0  0
   -6.1917    7.4217   27.2414 C   0  0  0  0  0  0  0  0  0  0  0  0
   -5.2687    8.1624   26.5142 C   0  0  0  0  0  0  0  0  0  0  0  0
   -4.5618    9.1201   27.1790 O   0  0  0  0  0  0  0  0  0  0  0  0
   -5.0786    7.9323   25.1559 C   0  0  0  0  0  0  0  0  0  0  0  0
   -5.8285    6.9425   24.5008 C   0  0  0  0  0  0  0  0  0  0  0  0
   -6.7397    6.1762   25.2452 C   0  0  0  0  0  0  0  0  0  0  0  0
   -7.4993    5.1939   24.6634 O   0  0  0  0  0  0  0  0  0  0  0  0
   -6.8421    4.5571   23.5627 C   0  0  0  0  0  0  0  0  0  0  0  0
   -6.5083    5.5707   22.4664 C   0  0  0  0  0  0  0  0  0  0  0  0
   -7.7102    6.2862   21.8401 C   0  0  0  0  0  0  0  0  0  0  0  0
   -7.0667    7.4872   21.1716 C   0  0  0  0  0  0  0  0  0  0  0  0
   -6.0307    7.9596   22.1842 C   0  0  0  0  0  0  0  0  0  0  0  0
   -5.6428    6.7190   23.0169 C   0  0  0  0  0  0  0  0  0  0  0  0
   -4.7061    9.2582   28.0944 H   0  0  0  0  0  0  0  0  0  0  0  0
   -7.6962    3.4124   23.0362 C   0  0  0  0  0  0  0  0  0  0  0  0
   -9.0249    3.2769   23.4726 C   0  0  0  0  0  0  0  0  0  0  0  0
   -9.8250    2.2240   23.0195 C   0  0  0  0  0  0  0  0  0  0  0  0
   -9.3013    1.2909   22.1262 C   0  0  0  0  0  0  0  0  0  0  0  0
  -10.0838    0.2586   21.6861 O   0  0  0  0  0  0  0  0  0  0  0  0
   -7.9814    1.4072   21.6841 C   0  0  0  0  0  0  0  0  0  0  0  0
   -7.2965    0.2664   20.5847 Cl  0  0  0  0  0  0  0  0  0  0  0  0
   -7.1848    2.4621   22.1366 C   0  0  0  0  0  0  0  0  0  0  0  0
  -10.9690    0.1819   21.9836 H   0  0  0  0  0  0  0  0  0  0  0  0
   -7.9177    5.5964   27.4224 C   0  0  0  0  0  0  0  0  0  0  0  0
   -8.1374    3.7487   28.9035 C   0  0  0  0  0  0  0  0  0  0  0  0
   -7.3135    4.4191   27.9611 O   0  0  0  0  0  0  0  0  0  0  0  0
 26 27  1  0
 27 25  1  0
 25  1  1  0
  1  2  2  0
  2  3  1  0
  3  4  1  0
  3  5  2  0
  5  6  1  0
  6  7  2  0
  7  8  1  0
  8  9  1  0
  9 16  1  0
 16 17  2  0
 17 18  1  0
 18 19  2  0
 19 20  1  0
 19 21  1  0
 21 22  1  0
 21 23  2  0
  9 10  1  0
 10 11  1  0
 11 12  1  0
 12 13  1  0
 14 13  1  0
  7  1  1  0
 23 16  1  0
 14 10  1  0
 14  6  1  0
  4 15  1  0
 20 24  1  0
M  END
> <minimizedAffinity>
-7.91866

> <CNNscore>
0.6206713915

> <CNNaffinity>
7.4926199913

> <CNN_VS>
4.6504549980

> <CNNaffinity_variance>
0.2188916951

$$$$



 27 30  0  0  0  0  0  0  0  0999 V2000
   -4.1929   -0.9933   33.9061 C   0  0  0  0  0  0  0  0  0  0  0  0
   -2.8926   -0.5160   34.1266 C   0  0  0  0  0  0  0  0  0  0  0  0
   -1.8271   -1.4029   34.2126 C   0  0  0  0  0  0  0  0  0  0  0  0
   -0.5872   -0.8820   34.4364 O   0  0  0  0  0  0  0  0  0  0  0  0
   -2.0240   -2.7724   34.0720 C   0  0  0  0  0  0  0  0  0  0  0  0
   -3.3136   -3.2746   33.8354 C   0  0  0  0  0  0  0  0  0  0  0  0
   -4.3923   -2.3776   33.7780 C   0  0  0  0  0  0  0  0  0  0  0  0
   -5.6750   -2.8067   33.5522 O   0  0  0  0  0  0  0  0  0  0  0  0
   -5.9278   -4.1142   34.0772 C   0  0  0  0  0  0  0  0  0  0  0  0
   -4.9941   -5.1466   33.4424 C   0  0  0  0  0  0  0  0  0  0  0  0
   -5.1211   -5.3066   31.9235 C   0  0  0  0  0  0  0  0  0  0  0  0
   -3.8250   -6.0057   31.5566 C   0  0  0  0  0  0  0  0  0  0  0  0
   -2.7752   -5.3043   32.4098 C   0  0  0  0  0  0  0  0  0  0  0  0
   -3.5178   -4.7613   33.6494 C   0  0  0  0  0  0  0  0  0  0  0  0
   -0.4776    0.0440   34.5280 H   0  0  0  0  0  0  0  0  0  0  0  0
   -7.3928   -4.4797   33.8844 C   0  0  0  0  0  0  0  0  0  0  0  0
   -7.7381   -5.7761   33.4669 C   0  0  0  0  0  0  0  0  0  0  0  0
   -9.0745   -6.1325   33.2640 C   0  0  0  0  0  0  0  0  0  0  0  0
  -10.0815   -5.1916   33.4730 C   0  0  0  0  0  0  0  0  0  0  0  0
  -11.3889   -5.5400   33.2707 O   0  0  0  0  0  0  0  0  0  0  0  0
   -9.7572   -3.8968   33.8848 C   0  0  0  0  0  0  0  0  0  0  0  0
  -10.9765   -2.7034   34.1457 Cl  0  0  0  0  0  0  0  0  0  0  0  0
   -8.4209   -3.5443   34.0893 C   0  0  0  0  0  0  0  0  0  0  0  0
  -11.6049   -6.4089   32.9945 H   0  0  0  0  0  0  0  0  0  0  0  0
   -5.3467   -0.0221   33.8485 C   0  0  0  0  0  0  0  0  0  0  0  0
   -7.0649    0.8083   32.4294 C   0  0  0  0  0  0  0  0  0  0  0  0
   -5.7691    0.2328   32.5077 O   0  0  0  0  0  0  0  0  0  0  0  0
 26 27  1  0
 27 25  1  0
 25  1  1  0
  1  2  2  0
  2  3  1  0
  3  4  1  0
  3  5  2  0
  5  6  1  0
  6  7  2  0
  7  8  1  0
  8  9  1  0
  9 16  1  0
 16 17  2  0
 17 18  1  0
 18 19  2  0
 19 20  1  0
 19 21  1  0
 21 22  1  0
 21 23  2  0
  9 10  1  0
 10 11  1  0
 11 12  1  0
 12 13  1  0
 14 13  1  0
  7  1  1  0
 23 16  1  0
 14 10  1  0
 14  6  1  0
  4 15  1  0
 20 24  1  0
M  END
> <minimizedAffinity>
-6.40468

> <CNNscore>
0.5686736107

> <CNNaffinity>
5.3384957314

> <CNN_VS>
3.0358617306

> <CNNaffinity_variance>
0.0470105521

$$$$



 27 30  0  0  0  0  0  0  0  0999 V2000
   -9.9437   -3.2879   34.1055 C   0  0  0  0  0  0  0  0  0  0  0  0
  -10.9645   -2.3764   34.4124 C   0  0  0  0  0  0  0  0  0  0  0  0
  -10.6510   -1.1060   34.8786 C   0  0  0  0  0  0  0  0  0  0  0  0
  -11.6848   -0.2658   35.1684 O   0  0  0  0  0  0  0  0  0  0  0  0
   -9.3276   -0.7102   35.0395 C   0  0  0  0  0  0  0  0  0  0  0  0
   -8.2868   -1.5986   34.7250 C   0  0  0  0  0  0  0  0  0  0  0  0
   -8.6078   -2.8917   34.2816 C   0  0  0  0  0  0  0  0  0  0  0  0
   -7.6367   -3.8052   33.9611 O   0  0  0  0  0  0  0  0  0  0  0  0
   -6.4432   -3.6476   34.7355 C   0  0  0  0  0  0  0  0  0  0  0  0
   -5.8361   -2.2592   34.5251 C   0  0  0  0  0  0  0  0  0  0  0  0
   -5.4128   -1.9340   33.0884 C   0  0  0  0  0  0  0  0  0  0  0  0
   -5.2987   -0.4208   33.1133 C   0  0  0  0  0  0  0  0  0  0  0  0
   -6.5042    0.0248   33.9320 C   0  0  0  0  0  0  0  0  0  0  0  0
   -6.8493   -1.1522   34.8693 C   0  0  0  0  0  0  0  0  0  0  0  0
  -12.5690   -0.5534   35.0525 H   0  0  0  0  0  0  0  0  0  0  0  0
   -5.4545   -4.7558   34.4019 C   0  0  0  0  0  0  0  0  0  0  0  0
   -4.9810   -5.5973   35.4227 C   0  0  0  0  0  0  0  0  0  0  0  0
   -4.0582   -6.6105   35.1471 C   0  0  0  0  0  0  0  0  0  0  0  0
   -3.5952   -6.7899   33.8446 C   0  0  0  0  0  0  0  0  0  0  0  0
   -2.6893   -7.7793   33.5763 O   0  0  0  0  0  0  0  0  0  0  0  0
   -4.0519   -5.9608   32.8174 C   0  0  0  0  0  0  0  0  0  0  0  0
   -3.4949   -6.1483   31.1945 Cl  0  0  0  0  0  0  0  0  0  0  0  0
   -4.9761   -4.9507   33.0954 C   0  0  0  0  0  0  0  0  0  0  0  0
   -2.3838   -8.3347   34.2664 H   0  0  0  0  0  0  0  0  0  0  0  0
  -10.2979   -4.6765   33.6321 C   0  0  0  0  0  0  0  0  0  0  0  0
  -11.7024   -6.0338   34.9889 C   0  0  0  0  0  0  0  0  0  0  0  0
  -10.3760   -5.6094   34.7114 O   0  0  0  0  0  0  0  0  0  0  0  0
 26 27  1  0
 27 25  1  0
 25  1  1  0
  1  2  2  0
  2  3  1  0
  3  4  1  0
  3  5  2  0
  5  6  1  0
  6  7  2  0
  7  8  1  0
  8  9  1  0
  9 16  1  0
 16 17  2  0
 17 18  1  0
 18 19  2  0
 19 20  1  0
 19 21  1  0
 21 22  1  0
 21 23  2  0
  9 10  1  0
 10 11  1  0
 11 12  1  0
 12 13  1  0
 14 13  1  0
  7  1  1  0
 23 16  1  0
 14 10  1  0
 14  6  1  0
  4 15  1  0
 20 24  1  0
M  END
> <minimizedAffinity>
-5.16352

> <CNNscore>
0.4873977304

> <CNNaffinity>
5.4090862274

> <CNN_VS>
2.6363763809

> <CNNaffinity_variance>
0.0404080823

$$$$



 27 30  0  0  0  0  0  0  0  0999 V2000
  -14.9504   -1.4934   34.3845 C   0  0  0  0  0  0  0  0  0  0  0  0
  -16.0245   -0.7793   33.8335 C   0  0  0  0  0  0  0  0  0  0  0  0
  -16.7494   -1.3124   32.7754 C   0  0  0  0  0  0  0  0  0  0  0  0
  -17.7774   -0.5694   32.2752 O   0  0  0  0  0  0  0  0  0  0  0  0
  -16.4347   -2.5612   32.2507 C   0  0  0  0  0  0  0  0  0  0  0  0
  -15.3737   -3.3030   32.7943 C   0  0  0  0  0  0  0  0  0  0  0  0
  -14.6249   -2.7484   33.8447 C   0  0  0  0  0  0  0  0  0  0  0  0
  -13.5760   -3.4223   34.4158 O   0  0  0  0  0  0  0  0  0  0  0  0
  -12.8918   -4.2769   33.4936 C   0  0  0  0  0  0  0  0  0  0  0  0
  -13.8404   -5.3317   32.9209 C   0  0  0  0  0  0  0  0  0  0  0  0
  -14.4637   -6.2858   33.9457 C   0  0  0  0  0  0  0  0  0  0  0  0
  -15.6406   -6.8655   33.1827 C   0  0  0  0  0  0  0  0  0  0  0  0
  -16.2214   -5.6688   32.4393 C   0  0  0  0  0  0  0  0  0  0  0  0
  -15.0568   -4.6749   32.2429 C   0  0  0  0  0  0  0  0  0  0  0  0
  -17.9719    0.2696   32.6442 H   0  0  0  0  0  0  0  0  0  0  0  0
  -11.6811   -4.9080   34.1666 C   0  0  0  0  0  0  0  0  0  0  0  0
  -11.7142   -5.1823   35.5442 C   0  0  0  0  0  0  0  0  0  0  0  0
  -10.6094   -5.7440   36.1907 C   0  0  0  0  0  0  0  0  0  0  0  0
   -9.4554   -6.0338   35.4644 C   0  0  0  0  0  0  0  0  0  0  0  0
   -8.3732   -6.5801   36.0984 O   0  0  0  0  0  0  0  0  0  0  0  0
   -9.4027   -5.7648   34.0947 C   0  0  0  0  0  0  0  0  0  0  0  0
   -7.9885   -6.1029   33.1647 Cl  0  0  0  0  0  0  0  0  0  0  0  0
  -10.5094   -5.2058   33.4507 C   0  0  0  0  0  0  0  0  0  0  0  0
   -8.4101   -6.7599   37.0173 H   0  0  0  0  0  0  0  0  0  0  0  0
  -14.1493   -0.8885   35.5116 C   0  0  0  0  0  0  0  0  0  0  0  0
  -13.0001    1.1872   35.6740 C   0  0  0  0  0  0  0  0  0  0  0  0
  -13.0746   -0.0778   35.0332 O   0  0  0  0  0  0  0  0  0  0  0  0
 26 27  1  0
 27 25  1  0
 25  1  1  0
  1  2  2  0
  2  3  1  0
  3  4  1  0
  3  5  2  0
  5  6  1  0
  6  7  2  0
  7  8  1  0
  8  9  1  0
  9 16  1  0
 16 17  2  0
 17 18  1  0
 18 19  2  0
 19 20  1  0
 19 21  1  0
 21 22  1  0
 21 23  2  0
  9 10  1  0
 10 11  1  0
 11 12  1  0
 12 13  1  0
 14 13  1  0
  7  1  1  0
 23 16  1  0
 14 10  1  0
 14  6  1  0
  4 15  1  0
 20 24  1  0
M  END
> <minimizedAffinity>
-4.40253

> <CNNscore>
0.3771502376

> <CNNaffinity>
4.9210195541

> <CNN_VS>
1.8559637070

> <CNNaffinity_variance>
0.1017100736

$$$$



 27 30  0  0  0  0  0  0  0  0999 V2000
   -6.5971    6.7790   36.1762 C   0  0  0  0  0  0  0  0  0  0  0  0
   -6.5440    8.1774   36.2693 C   0  0  0  0  0  0  0  0  0  0  0  0
   -5.3433    8.8466   36.0698 C   0  0  0  0  0  0  0  0  0  0  0  0
   -5.3505   10.2054   36.1813 O   0  0  0  0  0  0  0  0  0  0  0  0
   -4.1788    8.1500   35.7651 C   0  0  0  0  0  0  0  0  0  0  0  0
   -4.2083    6.7509   35.6512 C   0  0  0  0  0  0  0  0  0  0  0  0
   -5.4176    6.0756   35.8820 C   0  0  0  0  0  0  0  0  0  0  0  0
   -5.5099    4.7107   35.7881 O   0  0  0  0  0  0  0  0  0  0  0  0
   -4.2977    4.0419   36.1518 C   0  0  0  0  0  0  0  0  0  0  0  0
   -3.1434    4.4740   35.2456 C   0  0  0  0  0  0  0  0  0  0  0  0
   -3.3236    4.1679   33.7547 C   0  0  0  0  0  0  0  0  0  0  0  0
   -2.3001    5.0809   33.1050 C   0  0  0  0  0  0  0  0  0  0  0  0
   -2.4218    6.3835   33.8862 C   0  0  0  0  0  0  0  0  0  0  0  0
   -2.9472    6.0006   35.2863 C   0  0  0  0  0  0  0  0  0  0  0  0
   -6.1467   10.6544   36.3874 H   0  0  0  0  0  0  0  0  0  0  0  0
   -4.5055    2.5342   36.1261 C   0  0  0  0  0  0  0  0  0  0  0  0
   -3.3918    1.6775   36.1239 C   0  0  0  0  0  0  0  0  0  0  0  0
   -3.5542    0.2898   36.0814 C   0  0  0  0  0  0  0  0  0  0  0  0
   -4.8358   -0.2565   36.0362 C   0  0  0  0  0  0  0  0  0  0  0  0
   -4.9939   -1.6147   35.9909 O   0  0  0  0  0  0  0  0  0  0  0  0
   -5.9549    0.5794   36.0342 C   0  0  0  0  0  0  0  0  0  0  0  0
   -7.5566   -0.0608   35.9709 Cl  0  0  0  0  0  0  0  0  0  0  0  0
   -5.7896    1.9660   36.0793 C   0  0  0  0  0  0  0  0  0  0  0  0
   -4.2422   -2.1741   35.9923 H   0  0  0  0  0  0  0  0  0  0  0  0
   -7.9006    6.0613   36.4284 C   0  0  0  0  0  0  0  0  0  0  0  0
   -8.4613    5.9058   34.1225 C   0  0  0  0  0  0  0  0  0  0  0  0
   -8.8693    6.3325   35.4140 O   0  0  0  0  0  0  0  0  0  0  0  0
 26 27  1  0
 27 25  1  0
 25  1  1  0
  1  2  2  0
  2  3  1  0
  3  4  1  0
  3  5  2  0
  5  6  1  0
  6  7  2  0
  7  8  1  0
  8  9  1  0
  9 16  1  0
 16 17  2  0
 17 18  1  0
 18 19  2  0
 19 20  1  0
 19 21  1  0
 21 22  1  0
 21 23  2  0
  9 10  1  0
 10 11  1  0
 11 12  1  0
 12 13  1  0
 14 13  1  0
  7  1  1  0
 23 16  1  0
 14 10  1  0
 14  6  1  0
  4 15  1  0
 20 24  1  0
M  END
> <minimizedAffinity>
-3.92548

> <CNNscore>
0.3240428269

> <CNNaffinity>
4.8684954643

> <CNN_VS>
1.5776010752

> <CNNaffinity_variance>
0.2491759062

$$$$
