


 40 41  0  0  0  0  0  0  0  0999 V2000
  -18.3122   51.8671   19.7250 N   0  0  0  0  0  0  0  0  0  0  0  0
  -18.3298   53.2410   19.6330 C   0  0  0  0  0  0  0  0  0  0  0  0
  -17.7311   53.9706   20.4159 O   0  0  0  0  0  0  0  0  0  0  0  0
  -18.7985   51.3370   19.0529 H   0  0  0  0  0  0  0  0  0  0  0  0
  -19.0526   53.8110   18.4653 C   0  0  0  0  0  0  0  0  0  0  0  0
  -19.9695   53.0547   17.7296 C   0  0  0  0  0  0  0  0  0  0  0  0
  -20.6277   53.6281   16.6380 C   0  0  0  0  0  0  0  0  0  0  0  0
  -20.3810   54.9606   16.2684 C   0  0  0  0  0  0  0  0  0  0  0  0
  -21.0332   55.5485   15.1714 C   0  0  0  0  0  0  0  0  0  0  0  0
  -20.7808   56.8791   14.8020 C   0  0  0  0  0  0  0  0  0  0  0  0
  -19.8661   57.6277   15.5520 C   0  0  0  0  0  0  0  0  0  0  0  0
  -19.2160   57.0590   16.6489 C   0  0  0  0  0  0  0  0  0  0  0  0
  -19.4617   55.7283   17.0184 C   0  0  0  0  0  0  0  0  0  0  0  0
  -18.8117   55.1454   18.1174 C   0  0  0  0  0  0  0  0  0  0  0  0
  -21.4965   57.5012   13.6381 C   0  0  0  0  0  0  0  0  0  0  0  0
  -22.3481   58.5133   13.9724 F   0  0  0  0  0  0  0  0  0  0  0  0
  -22.2525   56.6210   12.9131 F   0  0  0  0  0  0  0  0  0  0  0  0
  -20.5284   58.2690   12.3150 P   0  0  0  0  0  0  0  0  0  0  0  0
  -19.2048   58.8808   12.6601 O   0  0  0  0  0  0  0  0  0  0  0  0
  -20.3728   57.1793   11.1333 O   0  0  0  0  0  0  0  0  0  0  0  0
  -21.5133   59.3012   11.5553 O   0  0  0  0  0  0  0  0  0  0  0  0
  -19.7914   56.4617   11.4296 H   0  0  0  0  0  0  0  0  0  0  0  0
  -21.7173   60.0454   12.1430 H   0  0  0  0  0  0  0  0  0  0  0  0
  -17.5904   51.1705   20.7945 C   0  0  0  0  0  0  0  0  0  0  0  0
  -16.0817   51.0768   20.4616 C   0  0  0  0  0  0  0  0  0  0  0  0
  -15.2957   52.0340   21.0408 N   0  0  0  0  0  0  0  0  0  0  0  0
  -15.5720   50.1775   19.7995 O   0  0  0  0  0  0  0  0  0  0  0  0
  -15.7072   52.7540   21.5713 H   0  0  0  0  0  0  0  0  0  0  0  0
  -14.3183   52.0032   20.9272 H   0  0  0  0  0  0  0  0  0  0  0  0
  -18.1857   49.7726   21.0282 C   0  0  0  0  0  0  0  0  0  0  0  0
  -18.5307   49.5253   22.4982 C   0  0  0  0  0  0  0  0  0  0  0  0
  -19.5477   48.3991   22.7505 C   0  0  0  0  0  0  0  0  0  0  0  0
  -19.5814   47.1693   21.8041 C   0  0  0  0  0  0  0  0  0  0  0  0
  -19.1346   45.8780   22.5187 C   0  0  0  0  0  0  0  0  0  0  0  0
  -18.6171   47.3889   20.6109 C   0  0  0  0  0  0  0  0  0  0  0  0
  -21.0097   46.9753   21.1735 C   0  0  0  0  0  0  0  0  0  0  0  0
  -22.6243   48.1667   22.6630 C   0  0  0  0  0  0  0  0  0  0  0  0
  -22.1261   48.0693   21.1989 C   0  0  0  0  0  0  0  0  0  0  0  0
  -23.3442   47.6799   20.3406 C   0  0  0  0  0  0  0  0  0  0  0  0
  -21.6410   49.4618   20.7814 C   0  0  0  0  0  0  0  0  0  0  0  0
 37 38  1  0
 38 39  1  0
 38 40  1  0
 38 36  1  0
 36 33  1  0
 33 34  1  0
 33 35  1  0
 33 32  1  0
 32 31  1  0
 31 30  1  0
 24 30  1  0
 24  1  1  0
  1  2  1  0
  2  3  2  0
  2  5  1  0
  5  6  2  0
  6  7  1  0
  7  8  2  0
  8  9  1  0
  9 10  2  0
 10 15  1  0
 15 16  1  0
 15 17  1  0
 15 18  1  0
 18 19  2  0
 18 20  1  0
 18 21  1  0
 10 11  1  0
 11 12  2  0
 12 13  1  0
 13 14  2  0
 24 25  1  0
 25 26  1  0
 25 27  2  0
 14  5  1  0
 13  8  1  0
  1  4  1  0
 20 22  1  0
 21 23  1  0
 26 28  1  0
 26 29  1  0
M  END
> <minimizedAffinity>
-8.35488

> <CNNscore>
0.9065775275

> <CNNaffinity>
6.3704032898

> <CNN_VS>
5.7752642632

> <CNNaffinity_variance>
0.1702257246

$$$$



 40 41  0  0  0  0  0  0  0  0999 V2000
  -18.3202   51.7011   19.4333 N   0  0  0  0  0  0  0  0  0  0  0  0
  -18.4167   53.0746   19.4585 C   0  0  0  0  0  0  0  0  0  0  0  0
  -17.8907   53.7653   20.3245 O   0  0  0  0  0  0  0  0  0  0  0  0
  -18.7500   51.2054   18.6992 H   0  0  0  0  0  0  0  0  0  0  0  0
  -19.1306   53.7031   18.3157 C   0  0  0  0  0  0  0  0  0  0  0  0
  -20.0782   52.9997   17.5664 C   0  0  0  0  0  0  0  0  0  0  0  0
  -20.7267   53.6272   16.4991 C   0  0  0  0  0  0  0  0  0  0  0  0
  -20.4399   54.9616   16.1675 C   0  0  0  0  0  0  0  0  0  0  0  0
  -21.0821   55.6036   15.0952 C   0  0  0  0  0  0  0  0  0  0  0  0
  -20.7896   56.9359   14.7637 C   0  0  0  0  0  0  0  0  0  0  0  0
  -19.8443   57.6313   15.5270 C   0  0  0  0  0  0  0  0  0  0  0  0
  -19.2037   57.0086   16.5999 C   0  0  0  0  0  0  0  0  0  0  0  0
  -19.4895   55.6759   16.9314 C   0  0  0  0  0  0  0  0  0  0  0  0
  -18.8493   55.0389   18.0059 C   0  0  0  0  0  0  0  0  0  0  0  0
  -21.4946   57.6161   13.6261 C   0  0  0  0  0  0  0  0  0  0  0  0
  -22.2379   58.7013   13.9885 F   0  0  0  0  0  0  0  0  0  0  0  0
  -22.3557   56.8049   12.9387 F   0  0  0  0  0  0  0  0  0  0  0  0
  -20.5177   58.2904   12.2593 P   0  0  0  0  0  0  0  0  0  0  0  0
  -19.1795   58.8912   12.5650 O   0  0  0  0  0  0  0  0  0  0  0  0
  -20.3920   57.1355   11.1374 O   0  0  0  0  0  0  0  0  0  0  0  0
  -21.4847   59.3012   11.4492 O   0  0  0  0  0  0  0  0  0  0  0  0
  -19.8244   56.4225   11.4696 H   0  0  0  0  0  0  0  0  0  0  0  0
  -21.6695   60.0803   11.9968 H   0  0  0  0  0  0  0  0  0  0  0  0
  -17.5963   50.9553   20.4676 C   0  0  0  0  0  0  0  0  0  0  0  0
  -16.0755   51.2269   20.3708 C   0  0  0  0  0  0  0  0  0  0  0  0
  -15.5788   52.1014   21.2970 N   0  0  0  0  0  0  0  0  0  0  0  0
  -15.3176   50.6583   19.5903 O   0  0  0  0  0  0  0  0  0  0  0  0
  -16.1890   52.5560   21.9216 H   0  0  0  0  0  0  0  0  0  0  0  0
  -14.6109   52.2764   21.3393 H   0  0  0  0  0  0  0  0  0  0  0  0
  -17.8902   49.4505   20.3559 C   0  0  0  0  0  0  0  0  0  0  0  0
  -18.5265   48.8859   21.6277 C   0  0  0  0  0  0  0  0  0  0  0  0
  -19.4713   47.6915   21.4112 C   0  0  0  0  0  0  0  0  0  0  0  0
  -20.9874   47.8491   21.7043 C   0  0  0  0  0  0  0  0  0  0  0  0
  -21.8393   47.7213   20.4253 C   0  0  0  0  0  0  0  0  0  0  0  0
  -21.2710   49.2494   22.3047 C   0  0  0  0  0  0  0  0  0  0  0  0
  -21.4692   46.8116   22.7844 C   0  0  0  0  0  0  0  0  0  0  0  0
  -19.4947   45.3304   23.1746 C   0  0  0  0  0  0  0  0  0  0  0  0
  -20.5411   46.2187   23.8939 C   0  0  0  0  0  0  0  0  0  0  0  0
  -21.3068   45.3030   24.8671 C   0  0  0  0  0  0  0  0  0  0  0  0
  -19.7765   47.2777   24.6955 C   0  0  0  0  0  0  0  0  0  0  0  0
 37 38  1  0
 38 39  1  0
 38 40  1  0
 38 36  1  0
 36 33  1  0
 33 34  1  0
 33 35  1  0
 33 32  1  0
 32 31  1  0
 31 30  1  0
 24 30  1  0
 24  1  1  0
  1  2  1  0
  2  3  2  0
  2  5  1  0
  5  6  2  0
  6  7  1  0
  7  8  2  0
  8  9  1  0
  9 10  2  0
 10 15  1  0
 15 16  1  0
 15 17  1  0
 15 18  1  0
 18 19  2  0
 18 20  1  0
 18 21  1  0
 10 11  1  0
 11 12  2  0
 12 13  1  0
 13 14  2  0
 24 25  1  0
 25 26  1  0
 25 27  2  0
 14  5  1  0
 13  8  1  0
  1  4  1  0
 20 22  1  0
 21 23  1  0
 26 28  1  0
 26 29  1  0
M  END
> <minimizedAffinity>
-8.27911

> <CNNscore>
0.8925201297

> <CNNaffinity>
6.4079613686

> <CNN_VS>
5.7192344666

> <CNNaffinity_variance>
0.1377154440

$$$$



 40 41  0  0  0  0  0  0  0  0999 V2000
  -18.8949   51.7117   19.7722 N   0  0  0  0  0  0  0  0  0  0  0  0
  -18.5989   53.0254   19.4843 C   0  0  0  0  0  0  0  0  0  0  0  0
  -17.7590   53.6716   20.1013 O   0  0  0  0  0  0  0  0  0  0  0  0
  -19.5666   51.2426   19.2263 H   0  0  0  0  0  0  0  0  0  0  0  0
  -19.2968   53.6129   18.3102 C   0  0  0  0  0  0  0  0  0  0  0  0
  -20.2919   52.9125   17.6223 C   0  0  0  0  0  0  0  0  0  0  0  0
  -20.9235   53.5006   16.5228 C   0  0  0  0  0  0  0  0  0  0  0  0
  -20.5722   54.7923   16.0977 C   0  0  0  0  0  0  0  0  0  0  0  0
  -21.1967   55.3942   14.9922 C   0  0  0  0  0  0  0  0  0  0  0  0
  -20.8398   56.6836   14.5672 C   0  0  0  0  0  0  0  0  0  0  0  0
  -19.8472   57.3771   15.2697 C   0  0  0  0  0  0  0  0  0  0  0  0
  -19.2232   56.7946   16.3745 C   0  0  0  0  0  0  0  0  0  0  0  0
  -19.5734   55.5045   16.7994 C   0  0  0  0  0  0  0  0  0  0  0  0
  -18.9506   54.9079   17.9068 C   0  0  0  0  0  0  0  0  0  0  0  0
  -21.5261   57.3225   13.3947 C   0  0  0  0  0  0  0  0  0  0  0  0
  -22.8271   57.6666   13.6189 F   0  0  0  0  0  0  0  0  0  0  0  0
  -21.5497   56.5436   12.2700 F   0  0  0  0  0  0  0  0  0  0  0  0
  -20.8599   58.8618   12.7137 P   0  0  0  0  0  0  0  0  0  0  0  0
  -19.3961   58.9310   12.4012 O   0  0  0  0  0  0  0  0  0  0  0  0
  -21.7476   59.2435   11.4196 O   0  0  0  0  0  0  0  0  0  0  0  0
  -21.3456   60.0533   13.6921 O   0  0  0  0  0  0  0  0  0  0  0  0
  -21.5735   58.6067   10.7089 H   0  0  0  0  0  0  0  0  0  0  0  0
  -20.8942   59.9739   14.5470 H   0  0  0  0  0  0  0  0  0  0  0  0
  -18.2390   50.9910   20.8679 C   0  0  0  0  0  0  0  0  0  0  0  0
  -17.0199   50.1946   20.3429 C   0  0  0  0  0  0  0  0  0  0  0  0
  -15.7987   50.6898   20.7069 N   0  0  0  0  0  0  0  0  0  0  0  0
  -17.0969   49.1435   19.7135 O   0  0  0  0  0  0  0  0  0  0  0  0
  -15.7399   51.5330   21.2117 H   0  0  0  0  0  0  0  0  0  0  0  0
  -14.9780   50.2031   20.4643 H   0  0  0  0  0  0  0  0  0  0  0  0
  -19.2356   50.0593   21.5764 C   0  0  0  0  0  0  0  0  0  0  0  0
  -19.5301   50.5046   23.0104 C   0  0  0  0  0  0  0  0  0  0  0  0
  -19.0831   49.5207   24.1050 C   0  0  0  0  0  0  0  0  0  0  0  0
  -19.5230   49.7563   25.5749 C   0  0  0  0  0  0  0  0  0  0  0  0
  -21.0453   49.5906   25.7559 C   0  0  0  0  0  0  0  0  0  0  0  0
  -19.1646   51.1989   26.0133 C   0  0  0  0  0  0  0  0  0  0  0  0
  -18.7514   48.8025   26.5598 C   0  0  0  0  0  0  0  0  0  0  0  0
  -19.5290   46.7679   27.7847 C   0  0  0  0  0  0  0  0  0  0  0  0
  -18.8210   47.2423   26.4906 C   0  0  0  0  0  0  0  0  0  0  0  0
  -17.4232   46.5955   26.4868 C   0  0  0  0  0  0  0  0  0  0  0  0
  -19.6256   46.7085   25.3004 C   0  0  0  0  0  0  0  0  0  0  0  0
 37 38  1  0
 38 39  1  0
 38 40  1  0
 38 36  1  0
 36 33  1  0
 33 34  1  0
 33 35  1  0
 33 32  1  0
 32 31  1  0
 31 30  1  0
 24 30  1  0
 24  1  1  0
  1  2  1  0
  2  3  2  0
  2  5  1  0
  5  6  2  0
  6  7  1  0
  7  8  2  0
  8  9  1  0
  9 10  2  0
 10 15  1  0
 15 16  1  0
 15 17  1  0
 15 18  1  0
 18 19  2  0
 18 20  1  0
 18 21  1  0
 10 11  1  0
 11 12  2  0
 12 13  1  0
 13 14  2  0
 24 25  1  0
 25 26  1  0
 25 27  2  0
 14  5  1  0
 13  8  1  0
  1  4  1  0
 20 22  1  0
 21 23  1  0
 26 28  1  0
 26 29  1  0
M  END
> <minimizedAffinity>
-7.35026

> <CNNscore>
0.8768776059

> <CNNaffinity>
6.3787693977

> <CNN_VS>
5.5934000015

> <CNNaffinity_variance>
0.0730002299

$$$$



 40 41  0  0  0  0  0  0  0  0999 V2000
  -19.0335   51.9886   19.7258 N   0  0  0  0  0  0  0  0  0  0  0  0
  -18.4394   53.2308   19.7455 C   0  0  0  0  0  0  0  0  0  0  0  0
  -17.5579   53.5371   20.5411 O   0  0  0  0  0  0  0  0  0  0  0  0
  -19.7226   51.7992   19.0487 H   0  0  0  0  0  0  0  0  0  0  0  0
  -18.8630   54.1774   18.6801 C   0  0  0  0  0  0  0  0  0  0  0  0
  -18.4702   55.5189   18.6920 C   0  0  0  0  0  0  0  0  0  0  0  0
  -18.8907   56.3764   17.6715 C   0  0  0  0  0  0  0  0  0  0  0  0
  -19.7052   55.9071   16.6279 C   0  0  0  0  0  0  0  0  0  0  0  0
  -20.1377   56.7589   15.5974 C   0  0  0  0  0  0  0  0  0  0  0  0
  -20.9556   56.2876   14.5584 C   0  0  0  0  0  0  0  0  0  0  0  0
  -21.3353   54.9402   14.5543 C   0  0  0  0  0  0  0  0  0  0  0  0
  -20.9071   54.0805   15.5676 C   0  0  0  0  0  0  0  0  0  0  0  0
  -20.0939   54.5486   16.6102 C   0  0  0  0  0  0  0  0  0  0  0  0
  -19.6600   53.6940   17.6357 C   0  0  0  0  0  0  0  0  0  0  0  0
  -21.3975   57.2036   13.4541 C   0  0  0  0  0  0  0  0  0  0  0  0
  -22.7466   57.3943   13.3824 F   0  0  0  0  0  0  0  0  0  0  0  0
  -21.0269   56.7892   12.2039 F   0  0  0  0  0  0  0  0  0  0  0  0
  -20.7920   58.9094   13.4270 P   0  0  0  0  0  0  0  0  0  0  0  0
  -21.7780   60.0147   13.2007 O   0  0  0  0  0  0  0  0  0  0  0  0
  -19.9554   59.1484   14.7876 O   0  0  0  0  0  0  0  0  0  0  0  0
  -19.5591   58.9500   12.3824 O   0  0  0  0  0  0  0  0  0  0  0  0
  -20.5627   59.1531   15.5440 H   0  0  0  0  0  0  0  0  0  0  0  0
  -19.8940   58.8180   11.4817 H   0  0  0  0  0  0  0  0  0  0  0  0
  -18.6698   50.9396   20.6837 C   0  0  0  0  0  0  0  0  0  0  0  0
  -17.6575   49.9532   20.0525 C   0  0  0  0  0  0  0  0  0  0  0  0
  -18.0713   48.6516   19.9918 N   0  0  0  0  0  0  0  0  0  0  0  0
  -16.5856   50.2838   19.5539 O   0  0  0  0  0  0  0  0  0  0  0  0
  -18.9315   48.3893   20.3925 H   0  0  0  0  0  0  0  0  0  0  0  0
  -17.5091   47.9765   19.5473 H   0  0  0  0  0  0  0  0  0  0  0  0
  -19.9228   50.1963   21.1743 C   0  0  0  0  0  0  0  0  0  0  0  0
  -19.7261   49.5755   22.5590 C   0  0  0  0  0  0  0  0  0  0  0  0
  -20.9310   48.7860   23.0984 C   0  0  0  0  0  0  0  0  0  0  0  0
  -20.7852   47.9606   24.4049 C   0  0  0  0  0  0  0  0  0  0  0  0
  -19.3262   47.5289   24.6556 C   0  0  0  0  0  0  0  0  0  0  0  0
  -21.6358   46.6681   24.3160 C   0  0  0  0  0  0  0  0  0  0  0  0
  -21.3377   48.7555   25.6450 C   0  0  0  0  0  0  0  0  0  0  0  0
  -23.7739   48.5975   25.1115 C   0  0  0  0  0  0  0  0  0  0  0  0
  -22.7497   48.5156   26.2715 C   0  0  0  0  0  0  0  0  0  0  0  0
  -23.1341   49.6131   27.2813 C   0  0  0  0  0  0  0  0  0  0  0  0
  -22.9101   47.1433   26.9345 C   0  0  0  0  0  0  0  0  0  0  0  0
 37 38  1  0
 38 39  1  0
 38 40  1  0
 38 36  1  0
 36 33  1  0
 33 34  1  0
 33 35  1  0
 33 32  1  0
 32 31  1  0
 31 30  1  0
 24 30  1  0
 24  1  1  0
  1  2  1  0
  2  3  2  0
  2  5  1  0
  5  6  2  0
  6  7  1  0
  7  8  2  0
  8  9  1  0
  9 10  2  0
 10 15  1  0
 15 16  1  0
 15 17  1  0
 15 18  1  0
 18 19  2  0
 18 20  1  0
 18 21  1  0
 10 11  1  0
 11 12  2  0
 12 13  1  0
 13 14  2  0
 24 25  1  0
 25 26  1  0
 25 27  2  0
 14  5  1  0
 13  8  1  0
  1  4  1  0
 20 22  1  0
 21 23  1  0
 26 28  1  0
 26 29  1  0
M  END
> <minimizedAffinity>
-7.50921

> <CNNscore>
0.8574155569

> <CNNaffinity>
6.3678870201

> <CNN_VS>
5.4599251747

> <CNNaffinity_variance>
0.0990562961

$$$$



 40 41  0  0  0  0  0  0  0  0999 V2000
  -17.8106   51.8183   19.1232 N   0  0  0  0  0  0  0  0  0  0  0  0
  -18.4520   53.0004   19.4195 C   0  0  0  0  0  0  0  0  0  0  0  0
  -18.3852   53.5391   20.5191 O   0  0  0  0  0  0  0  0  0  0  0  0
  -17.8887   51.4471   18.2147 H   0  0  0  0  0  0  0  0  0  0  0  0
  -19.1751   53.6537   18.2966 C   0  0  0  0  0  0  0  0  0  0  0  0
  -20.1729   52.9869   17.5798 C   0  0  0  0  0  0  0  0  0  0  0  0
  -20.8284   53.6368   16.5304 C   0  0  0  0  0  0  0  0  0  0  0  0
  -20.4986   54.9576   16.1845 C   0  0  0  0  0  0  0  0  0  0  0  0
  -21.1474   55.6217   15.1298 C   0  0  0  0  0  0  0  0  0  0  0  0
  -20.8119   56.9402   14.7838 C   0  0  0  0  0  0  0  0  0  0  0  0
  -19.8163   57.5992   15.5148 C   0  0  0  0  0  0  0  0  0  0  0  0
  -19.1683   56.9543   16.5700 C   0  0  0  0  0  0  0  0  0  0  0  0
  -19.4971   55.6353   16.9157 C   0  0  0  0  0  0  0  0  0  0  0  0
  -18.8500   54.9762   17.9727 C   0  0  0  0  0  0  0  0  0  0  0  0
  -21.5239   57.6449   13.6656 C   0  0  0  0  0  0  0  0  0  0  0  0
  -22.1416   58.8055   14.0302 F   0  0  0  0  0  0  0  0  0  0  0  0
  -22.4969   56.8946   13.0636 F   0  0  0  0  0  0  0  0  0  0  0  0
  -20.5795   58.1805   12.2171 P   0  0  0  0  0  0  0  0  0  0  0  0
  -20.3136   57.1853   11.1288 O   0  0  0  0  0  0  0  0  0  0  0  0
  -21.2992   59.5021   11.6308 O   0  0  0  0  0  0  0  0  0  0  0  0
  -19.2288   58.8742   12.7714 O   0  0  0  0  0  0  0  0  0  0  0  0
  -22.1557   59.2598   11.2453 H   0  0  0  0  0  0  0  0  0  0  0  0
  -18.6593   58.1987   13.1716 H   0  0  0  0  0  0  0  0  0  0  0  0
  -17.0149   51.0962   20.1210 C   0  0  0  0  0  0  0  0  0  0  0  0
  -17.9269   50.5190   21.2305 C   0  0  0  0  0  0  0  0  0  0  0  0
  -19.2076   50.2356   20.8446 N   0  0  0  0  0  0  0  0  0  0  0  0
  -17.5485   50.2410   22.3647 O   0  0  0  0  0  0  0  0  0  0  0  0
  -19.5084   50.4597   19.9343 H   0  0  0  0  0  0  0  0  0  0  0  0
  -19.8290   49.8076   21.4770 H   0  0  0  0  0  0  0  0  0  0  0  0
  -15.9380   52.0139   20.7221 C   0  0  0  0  0  0  0  0  0  0  0  0
  -14.5276   51.6297   20.2698 C   0  0  0  0  0  0  0  0  0  0  0  0
  -13.3971   52.0565   21.2215 C   0  0  0  0  0  0  0  0  0  0  0  0
  -11.9332   51.6478   20.9063 C   0  0  0  0  0  0  0  0  0  0  0  0
  -11.1125   51.4044   22.1889 C   0  0  0  0  0  0  0  0  0  0  0  0
  -11.2233   52.7767   20.1165 C   0  0  0  0  0  0  0  0  0  0  0  0
  -11.8838   50.3772   19.9798 C   0  0  0  0  0  0  0  0  0  0  0  0
  -10.7743   48.7843   18.4061 C   0  0  0  0  0  0  0  0  0  0  0  0
  -10.6022   49.5080   19.7655 C   0  0  0  0  0  0  0  0  0  0  0  0
  -10.4553   48.4112   20.8367 C   0  0  0  0  0  0  0  0  0  0  0  0
   -9.3048   50.3207   19.6963 C   0  0  0  0  0  0  0  0  0  0  0  0
 37 38  1  0
 38 39  1  0
 38 40  1  0
 38 36  1  0
 36 33  1  0
 33 34  1  0
 33 35  1  0
 33 32  1  0
 32 31  1  0
 31 30  1  0
 24 30  1  0
 24  1  1  0
  1  2  1  0
  2  3  2  0
  2  5  1  0
  5  6  2  0
  6  7  1  0
  7  8  2  0
  8  9  1  0
  9 10  2  0
 10 15  1  0
 15 16  1  0
 15 17  1  0
 15 18  1  0
 18 19  2  0
 18 20  1  0
 18 21  1  0
 10 11  1  0
 11 12  2  0
 12 13  1  0
 13 14  2  0
 24 25  1  0
 25 26  1  0
 25 27  2  0
 14  5  1  0
 13  8  1  0
  1  4  1  0
 20 22  1  0
 21 23  1  0
 26 28  1  0
 26 29  1  0
M  END
> <minimizedAffinity>
-9.07717

> <CNNscore>
0.8201336265

> <CNNaffinity>
6.3189659119

> <CNN_VS>
5.1823964119

> <CNNaffinity_variance>
0.2195884436

$$$$



 40 41  0  0  0  0  0  0  0  0999 V2000
  -17.9531   51.8144   19.1592 N   0  0  0  0  0  0  0  0  0  0  0  0
  -18.3090   53.1361   19.3100 C   0  0  0  0  0  0  0  0  0  0  0  0
  -17.9747   53.8117   20.2772 O   0  0  0  0  0  0  0  0  0  0  0  0
  -18.2376   51.3324   18.3492 H   0  0  0  0  0  0  0  0  0  0  0  0
  -19.0610   53.7458   18.1815 C   0  0  0  0  0  0  0  0  0  0  0  0
  -19.9870   53.0112   17.4352 C   0  0  0  0  0  0  0  0  0  0  0  0
  -20.6728   53.6218   16.3815 C   0  0  0  0  0  0  0  0  0  0  0  0
  -20.4451   54.9702   16.0607 C   0  0  0  0  0  0  0  0  0  0  0  0
  -21.1252   55.5956   15.0020 C   0  0  0  0  0  0  0  0  0  0  0  0
  -20.8918   56.9421   14.6813 C   0  0  0  0  0  0  0  0  0  0  0  0
  -19.9676   57.6685   15.4416 C   0  0  0  0  0  0  0  0  0  0  0  0
  -19.2899   57.0622   16.5010 C   0  0  0  0  0  0  0  0  0  0  0  0
  -19.5166   55.7157   16.8217 C   0  0  0  0  0  0  0  0  0  0  0  0
  -18.8386   55.0951   17.8826 C   0  0  0  0  0  0  0  0  0  0  0  0
  -21.6370   57.6038   13.5585 C   0  0  0  0  0  0  0  0  0  0  0  0
  -22.4542   58.6253   13.9458 F   0  0  0  0  0  0  0  0  0  0  0  0
  -22.4378   56.7550   12.8441 F   0  0  0  0  0  0  0  0  0  0  0  0
  -20.7029   58.3805   12.2163 P   0  0  0  0  0  0  0  0  0  0  0  0
  -21.3148   59.5460   11.5005 O   0  0  0  0  0  0  0  0  0  0  0  0
  -19.2436   58.7576   12.7964 O   0  0  0  0  0  0  0  0  0  0  0  0
  -20.2577   57.1954   11.2113 O   0  0  0  0  0  0  0  0  0  0  0  0
  -19.3277   59.4794   13.4389 H   0  0  0  0  0  0  0  0  0  0  0  0
  -21.0409   56.8412   10.7620 H   0  0  0  0  0  0  0  0  0  0  0  0
  -17.1627   51.1038   20.1694 C   0  0  0  0  0  0  0  0  0  0  0  0
  -18.0894   50.3605   21.1618 C   0  0  0  0  0  0  0  0  0  0  0  0
  -19.2808   49.9366   20.6420 N   0  0  0  0  0  0  0  0  0  0  0  0
  -17.7838   50.0764   22.3162 O   0  0  0  0  0  0  0  0  0  0  0  0
  -19.5232   50.1660   19.7158 H   0  0  0  0  0  0  0  0  0  0  0  0
  -19.8962   49.4020   21.1939 H   0  0  0  0  0  0  0  0  0  0  0  0
  -16.2344   52.0771   20.9138 C   0  0  0  0  0  0  0  0  0  0  0  0
  -14.7751   51.9404   20.4743 C   0  0  0  0  0  0  0  0  0  0  0  0
  -13.7805   52.8469   21.2194 C   0  0  0  0  0  0  0  0  0  0  0  0
  -12.2570   52.5734   21.1031 C   0  0  0  0  0  0  0  0  0  0  0  0
  -11.9611   51.1145   20.7004 C   0  0  0  0  0  0  0  0  0  0  0  0
  -11.5659   52.8202   22.4681 C   0  0  0  0  0  0  0  0  0  0  0  0
  -11.5762   53.5658   20.0898 C   0  0  0  0  0  0  0  0  0  0  0  0
  -10.7493   55.7782   20.9062 C   0  0  0  0  0  0  0  0  0  0  0  0
  -11.8572   55.1033   20.0586 C   0  0  0  0  0  0  0  0  0  0  0  0
  -13.2018   55.4642   20.7172 C   0  0  0  0  0  0  0  0  0  0  0  0
  -11.8039   55.7162   18.6549 C   0  0  0  0  0  0  0  0  0  0  0  0
 37 38  1  0
 38 39  1  0
 38 40  1  0
 38 36  1  0
 36 33  1  0
 33 34  1  0
 33 35  1  0
 33 32  1  0
 32 31  1  0
 31 30  1  0
 24 30  1  0
 24  1  1  0
  1  2  1  0
  2  3  2  0
  2  5  1  0
  5  6  2  0
  6  7  1  0
  7  8  2  0
  8  9  1  0
  9 10  2  0
 10 15  1  0
 15 16  1  0
 15 17  1  0
 15 18  1  0
 18 19  2  0
 18 20  1  0
 18 21  1  0
 10 11  1  0
 11 12  2  0
 12 13  1  0
 13 14  2  0
 24 25  1  0
 25 26  1  0
 25 27  2  0
 14  5  1  0
 13  8  1  0
  1  4  1  0
 20 22  1  0
 21 23  1  0
 26 28  1  0
 26 29  1  0
M  END
> <minimizedAffinity>
-9.12839

> <CNNscore>
0.8162292838

> <CNNaffinity>
6.2283630371

> <CNN_VS>
5.0837721825

> <CNNaffinity_variance>
0.3600492477

$$$$



 40 41  0  0  0  0  0  0  0  0999 V2000
  -18.8767   51.7730   19.8444 N   0  0  0  0  0  0  0  0  0  0  0  0
  -18.5631   53.0711   19.5085 C   0  0  0  0  0  0  0  0  0  0  0  0
  -17.7097   53.7259   20.0973 O   0  0  0  0  0  0  0  0  0  0  0  0
  -19.5588   51.2950   19.3195 H   0  0  0  0  0  0  0  0  0  0  0  0
  -19.2597   53.6273   18.3185 C   0  0  0  0  0  0  0  0  0  0  0  0
  -20.2483   52.9055   17.6433 C   0  0  0  0  0  0  0  0  0  0  0  0
  -20.8788   53.4643   16.5282 C   0  0  0  0  0  0  0  0  0  0  0  0
  -20.5330   54.7478   16.0744 C   0  0  0  0  0  0  0  0  0  0  0  0
  -21.1566   55.3203   14.9529 C   0  0  0  0  0  0  0  0  0  0  0  0
  -20.8051   56.6015   14.4993 C   0  0  0  0  0  0  0  0  0  0  0  0
  -19.8191   57.3167   15.1893 C   0  0  0  0  0  0  0  0  0  0  0  0
  -19.1961   56.7635   16.3096 C   0  0  0  0  0  0  0  0  0  0  0  0
  -19.5409   55.4817   16.7631 C   0  0  0  0  0  0  0  0  0  0  0  0
  -18.9191   54.9144   17.8864 C   0  0  0  0  0  0  0  0  0  0  0  0
  -21.4904   57.2091   13.3098 C   0  0  0  0  0  0  0  0  0  0  0  0
  -22.8467   57.3022   13.4242 F   0  0  0  0  0  0  0  0  0  0  0  0
  -21.2746   56.5365   12.1380 F   0  0  0  0  0  0  0  0  0  0  0  0
  -21.0563   58.8929   12.8061 P   0  0  0  0  0  0  0  0  0  0  0  0
  -21.9415   59.5957   11.8224 O   0  0  0  0  0  0  0  0  0  0  0  0
  -20.8733   59.7690   14.1504 O   0  0  0  0  0  0  0  0  0  0  0  0
  -19.5098   58.8553   12.3373 O   0  0  0  0  0  0  0  0  0  0  0  0
  -21.7363   59.8929   14.5756 H   0  0  0  0  0  0  0  0  0  0  0  0
  -19.4340   58.3494   11.5131 H   0  0  0  0  0  0  0  0  0  0  0  0
  -18.2247   51.0816   20.9611 C   0  0  0  0  0  0  0  0  0  0  0  0
  -17.3890   49.8844   20.4468 C   0  0  0  0  0  0  0  0  0  0  0  0
  -18.1101   48.7765   20.0978 N   0  0  0  0  0  0  0  0  0  0  0  0
  -16.1747   49.9114   20.2693 O   0  0  0  0  0  0  0  0  0  0  0  0
  -19.0839   48.7576   20.2412 H   0  0  0  0  0  0  0  0  0  0  0  0
  -17.6555   47.9975   19.7030 H   0  0  0  0  0  0  0  0  0  0  0  0
  -19.2656   50.6175   21.9927 C   0  0  0  0  0  0  0  0  0  0  0  0
  -20.6991   50.9113   21.5455 C   0  0  0  0  0  0  0  0  0  0  0  0
  -21.7851   50.0697   22.2372 C   0  0  0  0  0  0  0  0  0  0  0  0
  -22.6063   49.0456   21.4089 C   0  0  0  0  0  0  0  0  0  0  0  0
  -21.6988   48.0593   20.6463 C   0  0  0  0  0  0  0  0  0  0  0  0
  -23.4685   49.7834   20.3535 C   0  0  0  0  0  0  0  0  0  0  0  0
  -23.6197   48.2590   22.3196 C   0  0  0  0  0  0  0  0  0  0  0  0
  -24.3843   46.6994   24.1162 C   0  0  0  0  0  0  0  0  0  0  0  0
  -23.2651   46.9345   23.0706 C   0  0  0  0  0  0  0  0  0  0  0  0
  -21.9428   47.0434   23.8525 C   0  0  0  0  0  0  0  0  0  0  0  0
  -23.2129   45.7007   22.1630 C   0  0  0  0  0  0  0  0  0  0  0  0
 37 38  1  0
 38 39  1  0
 38 40  1  0
 38 36  1  0
 36 33  1  0
 33 34  1  0
 33 35  1  0
 33 32  1  0
 32 31  1  0
 31 30  1  0
 24 30  1  0
 24  1  1  0
  1  2  1  0
  2  3  2  0
  2  5  1  0
  5  6  2  0
  6  7  1  0
  7  8  2  0
  8  9  1  0
  9 10  2  0
 10 15  1  0
 15 16  1  0
 15 17  1  0
 15 18  1  0
 18 19  2  0
 18 20  1  0
 18 21  1  0
 10 11  1  0
 11 12  2  0
 12 13  1  0
 13 14  2  0
 24 25  1  0
 25 26  1  0
 25 27  2  0
 14  5  1  0
 13  8  1  0
  1  4  1  0
 20 22  1  0
 21 23  1  0
 26 28  1  0
 26 29  1  0
M  END
> <minimizedAffinity>
-7.81759

> <CNNscore>
0.7821254134

> <CNNaffinity>
6.4908714294

> <CNN_VS>
5.0766754150

> <CNNaffinity_variance>
0.0374872983

$$$$



 40 41  0  0  0  0  0  0  0  0999 V2000
  -18.9197   51.7126   19.7984 N   0  0  0  0  0  0  0  0  0  0  0  0
  -18.6082   53.0204   19.4999 C   0  0  0  0  0  0  0  0  0  0  0  0
  -17.7550   53.6589   20.1065 O   0  0  0  0  0  0  0  0  0  0  0  0
  -19.6019   51.2492   19.2606 H   0  0  0  0  0  0  0  0  0  0  0  0
  -19.3071   53.6099   18.3274 C   0  0  0  0  0  0  0  0  0  0  0  0
  -20.3047   52.9118   17.6408 C   0  0  0  0  0  0  0  0  0  0  0  0
  -20.9371   53.5018   16.5429 C   0  0  0  0  0  0  0  0  0  0  0  0
  -20.5840   54.7931   16.1178 C   0  0  0  0  0  0  0  0  0  0  0  0
  -21.2093   55.3968   15.0138 C   0  0  0  0  0  0  0  0  0  0  0  0
  -20.8507   56.6858   14.5889 C   0  0  0  0  0  0  0  0  0  0  0  0
  -19.8555   57.3770   15.2901 C   0  0  0  0  0  0  0  0  0  0  0  0
  -19.2307   56.7926   16.3935 C   0  0  0  0  0  0  0  0  0  0  0  0
  -19.5827   55.5029   16.8182 C   0  0  0  0  0  0  0  0  0  0  0  0
  -18.9591   54.9045   17.9242 C   0  0  0  0  0  0  0  0  0  0  0  0
  -21.5378   57.3267   13.4180 C   0  0  0  0  0  0  0  0  0  0  0  0
  -22.8374   57.6744   13.6451 F   0  0  0  0  0  0  0  0  0  0  0  0
  -21.5661   56.5480   12.2934 F   0  0  0  0  0  0  0  0  0  0  0  0
  -20.8688   58.8642   12.7356 P   0  0  0  0  0  0  0  0  0  0  0  0
  -19.4073   58.9261   12.4110 O   0  0  0  0  0  0  0  0  0  0  0  0
  -21.7652   59.2544   11.4502 O   0  0  0  0  0  0  0  0  0  0  0  0
  -21.3396   60.0556   13.7214 O   0  0  0  0  0  0  0  0  0  0  0  0
  -21.6008   58.6187   10.7363 H   0  0  0  0  0  0  0  0  0  0  0  0
  -20.8815   59.9714   14.5722 H   0  0  0  0  0  0  0  0  0  0  0  0
  -18.2653   50.9900   20.8937 C   0  0  0  0  0  0  0  0  0  0  0  0
  -17.0245   50.2233   20.3754 C   0  0  0  0  0  0  0  0  0  0  0  0
  -15.8184   50.7209   20.7841 N   0  0  0  0  0  0  0  0  0  0  0  0
  -17.0737   49.1909   19.7132 O   0  0  0  0  0  0  0  0  0  0  0  0
  -15.7820   51.5491   21.3151 H   0  0  0  0  0  0  0  0  0  0  0  0
  -14.9863   50.2509   20.5474 H   0  0  0  0  0  0  0  0  0  0  0  0
  -19.2538   50.0307   21.5764 C   0  0  0  0  0  0  0  0  0  0  0  0
  -19.6679   50.5149   22.9675 C   0  0  0  0  0  0  0  0  0  0  0  0
  -19.3289   49.5556   24.1212 C   0  0  0  0  0  0  0  0  0  0  0  0
  -19.8652   49.8508   25.5476 C   0  0  0  0  0  0  0  0  0  0  0  0
  -19.2164   48.9393   26.6088 C   0  0  0  0  0  0  0  0  0  0  0  0
  -21.3939   49.6020   25.6040 C   0  0  0  0  0  0  0  0  0  0  0  0
  -19.6604   51.3628   25.9311 C   0  0  0  0  0  0  0  0  0  0  0  0
  -17.4381   50.9323   26.9898 C   0  0  0  0  0  0  0  0  0  0  0  0
  -18.2655   52.0012   26.2321 C   0  0  0  0  0  0  0  0  0  0  0  0
  -18.3718   53.2229   27.1638 C   0  0  0  0  0  0  0  0  0  0  0  0
  -17.4776   52.3925   24.9771 C   0  0  0  0  0  0  0  0  0  0  0  0
 37 38  1  0
 38 39  1  0
 38 40  1  0
 38 36  1  0
 36 33  1  0
 33 34  1  0
 33 35  1  0
 33 32  1  0
 32 31  1  0
 31 30  1  0
 24 30  1  0
 24  1  1  0
  1  2  1  0
  2  3  2  0
  2  5  1  0
  5  6  2  0
  6  7  1  0
  7  8  2  0
  8  9  1  0
  9 10  2  0
 10 15  1  0
 15 16  1  0
 15 17  1  0
 15 18  1  0
 18 19  2  0
 18 20  1  0
 18 21  1  0
 10 11  1  0
 11 12  2  0
 12 13  1  0
 13 14  2  0
 24 25  1  0
 25 26  1  0
 25 27  2  0
 14  5  1  0
 13  8  1  0
  1  4  1  0
 20 22  1  0
 21 23  1  0
 26 28  1  0
 26 29  1  0
M  END
> <minimizedAffinity>
-7.31927

> <CNNscore>
0.7402690053

> <CNNaffinity>
6.2762436867

> <CNN_VS>
4.6461086273

> <CNNaffinity_variance>
0.0913378224

$$$$



 40 41  0  0  0  0  0  0  0  0999 V2000
  -19.0178   52.0327   19.7553 N   0  0  0  0  0  0  0  0  0  0  0  0
  -18.4480   53.2860   19.7851 C   0  0  0  0  0  0  0  0  0  0  0  0
  -17.5880   53.6096   20.5971 O   0  0  0  0  0  0  0  0  0  0  0  0
  -19.6901   51.8297   19.0653 H   0  0  0  0  0  0  0  0  0  0  0  0
  -18.8689   54.2236   18.7106 C   0  0  0  0  0  0  0  0  0  0  0  0
  -18.4495   55.5569   18.6947 C   0  0  0  0  0  0  0  0  0  0  0  0
  -18.8683   56.4061   17.6666 C   0  0  0  0  0  0  0  0  0  0  0  0
  -19.7078   55.9365   16.6430 C   0  0  0  0  0  0  0  0  0  0  0  0
  -20.1390   56.7800   15.6053 C   0  0  0  0  0  0  0  0  0  0  0  0
  -20.9817   56.3085   14.5864 C   0  0  0  0  0  0  0  0  0  0  0  0
  -21.3880   54.9690   14.6101 C   0  0  0  0  0  0  0  0  0  0  0  0
  -20.9616   54.1174   15.6309 C   0  0  0  0  0  0  0  0  0  0  0  0
  -20.1235   54.5858   16.6535 C   0  0  0  0  0  0  0  0  0  0  0  0
  -19.6911   53.7394   17.6864 C   0  0  0  0  0  0  0  0  0  0  0  0
  -21.4221   57.2152   13.4739 C   0  0  0  0  0  0  0  0  0  0  0  0
  -22.7709   57.4070   13.4001 F   0  0  0  0  0  0  0  0  0  0  0  0
  -21.0517   56.7892   12.2276 F   0  0  0  0  0  0  0  0  0  0  0  0
  -20.8143   58.9199   13.4318 P   0  0  0  0  0  0  0  0  0  0  0  0
  -21.7945   60.0222   13.1681 O   0  0  0  0  0  0  0  0  0  0  0  0
  -20.0050   59.1799   14.8050 O   0  0  0  0  0  0  0  0  0  0  0  0
  -19.5607   58.9429   12.4117 O   0  0  0  0  0  0  0  0  0  0  0  0
  -20.6274   59.1972   15.5488 H   0  0  0  0  0  0  0  0  0  0  0  0
  -19.8776   58.7968   11.5066 H   0  0  0  0  0  0  0  0  0  0  0  0
  -18.6528   50.9915   20.7212 C   0  0  0  0  0  0  0  0  0  0  0  0
  -17.6122   50.0224   20.1097 C   0  0  0  0  0  0  0  0  0  0  0  0
  -18.0013   48.7133   20.0450 N   0  0  0  0  0  0  0  0  0  0  0  0
  -16.5381   50.3713   19.6285 O   0  0  0  0  0  0  0  0  0  0  0  0
  -18.8632   48.4362   20.4318 H   0  0  0  0  0  0  0  0  0  0  0  0
  -17.4195   48.0476   19.6118 H   0  0  0  0  0  0  0  0  0  0  0  0
  -19.9010   50.2268   21.1907 C   0  0  0  0  0  0  0  0  0  0  0  0
  -19.8267   49.8445   22.6705 C   0  0  0  0  0  0  0  0  0  0  0  0
  -19.5348   51.0087   23.6325 C   0  0  0  0  0  0  0  0  0  0  0  0
  -18.2983   50.9395   24.5682 C   0  0  0  0  0  0  0  0  0  0  0  0
  -18.2091   49.5899   25.3088 C   0  0  0  0  0  0  0  0  0  0  0  0
  -18.3844   52.0485   25.6474 C   0  0  0  0  0  0  0  0  0  0  0  0
  -16.9678   51.2131   23.7745 C   0  0  0  0  0  0  0  0  0  0  0  0
  -16.8439   53.6947   24.0416 C   0  0  0  0  0  0  0  0  0  0  0  0
  -15.9972   52.3977   24.0885 C   0  0  0  0  0  0  0  0  0  0  0  0
  -14.8958   52.5478   23.0224 C   0  0  0  0  0  0  0  0  0  0  0  0
  -15.3483   52.3184   25.4746 C   0  0  0  0  0  0  0  0  0  0  0  0
 37 38  1  0
 38 39  1  0
 38 40  1  0
 38 36  1  0
 36 33  1  0
 33 34  1  0
 33 35  1  0
 33 32  1  0
 32 31  1  0
 31 30  1  0
 24 30  1  0
 24  1  1  0
  1  2  1  0
  2  3  2  0
  2  5  1  0
  5  6  2  0
  6  7  1  0
  7  8  2  0
  8  9  1  0
  9 10  2  0
 10 15  1  0
 15 16  1  0
 15 17  1  0
 15 18  1  0
 18 19  2  0
 18 20  1  0
 18 21  1  0
 10 11  1  0
 11 12  2  0
 12 13  1  0
 13 14  2  0
 24 25  1  0
 25 26  1  0
 25 27  2  0
 14  5  1  0
 13  8  1  0
  1  4  1  0
 20 22  1  0
 21 23  1  0
 26 28  1  0
 26 29  1  0
M  END
> <minimizedAffinity>
-7.75646

> <CNNscore>
0.6843107939

> <CNNaffinity>
6.0015559196

> <CNN_VS>
4.1069293022

> <CNNaffinity_variance>
0.2500647604

$$$$
