


 18 17  0  0  0  0  0  0  0  0999 V2000
    5.6901   -2.2416   20.1639 C   0  0  0  0  0  0  0  0  0  0  0  0
    6.9066   -2.4449   19.2519 C   0  0  0  0  0  0  0  0  0  0  0  0
    8.2431   -2.1606   19.9447 C   0  0  0  0  0  0  0  0  0  0  0  0
    9.4784   -2.7903   19.2927 C   0  0  0  0  0  0  0  0  0  0  0  0
   10.2585   -1.8816   18.3375 C   0  0  0  0  0  0  0  0  0  0  0  0
   10.3874   -2.3921   16.8988 C   0  0  0  0  0  0  0  0  0  0  0  0
   11.7081   -2.0624   16.1955 C   0  0  0  0  0  0  0  0  0  0  0  0
   13.0171   -0.5049   14.6546 C   0  0  0  0  0  0  0  0  0  0  0  0
   11.6526   -0.9090   15.1908 C   0  0  0  0  0  0  0  0  0  0  0  0
    5.6054   -0.7798   20.6142 C   0  0  0  0  0  0  0  0  0  0  0  0
    4.1512   -0.1515   20.5955 N   0  0  0  0  0  0  0  0  0  0  0  0
    3.9843    0.6073   19.2770 C   0  0  0  0  0  0  0  0  0  0  0  0
    3.1462   -1.2844   20.6661 C   0  0  0  0  0  0  0  0  0  0  0  0
    4.1371    0.7929   21.7953 C   0  0  0  0  0  0  0  0  0  0  0  0
    2.9496    1.6780   22.1206 N   0  0  0  0  0  0  0  0  0  0  0  0
    1.6152    0.9283   22.1459 C   0  0  0  0  0  0  0  0  0  0  0  0
    2.8131    2.9437   21.2953 C   0  0  0  0  0  0  0  0  0  0  0  0
    3.1744    2.1543   23.5912 C   0  0  0  0  0  0  0  0  0  0  0  0
  8  9  1  0
  9  7  1  0
  7  6  1  0
  6  5  1  0
  5  4  1  0
  4  3  1  0
  3  2  1  0
  2  1  1  0
  1 10  1  0
 10 11  1  0
 11 12  1  0
 11 13  1  0
 11 14  1  0
 14 15  1  0
 15 16  1  0
 15 17  1  0
 15 18  1  0
M  CHG 1  11   1
M  CHG 1  15   1
M  END
> <minimizedAffinity>
-5.58881

> <CNNscore>
0.7370200157

> <CNNaffinity>
5.3357238770

> <CNN_VS>
3.9325354099

> <CNNaffinity_variance>
0.2935084403

$$$$



 18 17  0  0  0  0  0  0  0  0999 V2000
    3.8596    0.3858   20.1105 C   0  0  0  0  0  0  0  0  0  0  0  0
    4.2975   -1.0104   19.6501 C   0  0  0  0  0  0  0  0  0  0  0  0
    5.6053   -1.4827   20.2930 C   0  0  0  0  0  0  0  0  0  0  0  0
    6.7794   -1.6990   19.3327 C   0  0  0  0  0  0  0  0  0  0  0  0
    8.1697   -1.4237   19.9142 C   0  0  0  0  0  0  0  0  0  0  0  0
    9.3380   -1.5873   18.9369 C   0  0  0  0  0  0  0  0  0  0  0  0
   10.0224   -2.9581   18.9473 C   0  0  0  0  0  0  0  0  0  0  0  0
   10.6741   -2.2813   16.5744 C   0  0  0  0  0  0  0  0  0  0  0  0
   10.7970   -3.3204   17.6779 C   0  0  0  0  0  0  0  0  0  0  0  0
    3.9768    0.5012   21.6336 C   0  0  0  0  0  0  0  0  0  0  0  0
    2.7158    1.1251   22.3617 N   0  0  0  0  0  0  0  0  0  0  0  0
    1.6119    0.0652   22.3801 C   0  0  0  0  0  0  0  0  0  0  0  0
    3.1151    1.4744   23.7820 C   0  0  0  0  0  0  0  0  0  0  0  0
    2.3354    2.3205   21.4911 C   0  0  0  0  0  0  0  0  0  0  0  0
    3.0113    3.6715   21.6231 N   0  0  0  0  0  0  0  0  0  0  0  0
    4.4204    3.5964   22.2164 C   0  0  0  0  0  0  0  0  0  0  0  0
    2.2132    4.7523   22.3277 C   0  0  0  0  0  0  0  0  0  0  0  0
    3.2143    4.1813   20.1605 C   0  0  0  0  0  0  0  0  0  0  0  0
  8  9  1  0
  9  7  1  0
  7  6  1  0
  6  5  1  0
  5  4  1  0
  4  3  1  0
  3  2  1  0
  2  1  1  0
  1 10  1  0
 10 11  1  0
 11 12  1  0
 11 13  1  0
 11 14  1  0
 14 15  1  0
 15 16  1  0
 15 17  1  0
 15 18  1  0
M  CHG 1  11   1
M  CHG 1  15   1
M  END
> <minimizedAffinity>
-4.95508

> <CNNscore>
0.5525431037

> <CNNaffinity>
5.2867927551

> <CNN_VS>
2.9211809635

> <CNNaffinity_variance>
0.3107853830

$$$$



 18 17  0  0  0  0  0  0  0  0999 V2000
    3.6724    0.4551   20.0839 C   0  0  0  0  0  0  0  0  0  0  0  0
    3.8451   -0.9991   19.6274 C   0  0  0  0  0  0  0  0  0  0  0  0
    5.0964   -1.6736   20.1986 C   0  0  0  0  0  0  0  0  0  0  0  0
    6.1923   -2.0130   19.1831 C   0  0  0  0  0  0  0  0  0  0  0  0
    7.6312   -1.8283   19.6754 C   0  0  0  0  0  0  0  0  0  0  0  0
    8.2511   -3.0434   20.3728 C   0  0  0  0  0  0  0  0  0  0  0  0
    7.9991   -3.1407   21.8809 C   0  0  0  0  0  0  0  0  0  0  0  0
    9.2960   -5.3231   21.6181 C   0  0  0  0  0  0  0  0  0  0  0  0
    8.5599   -4.3892   22.5661 C   0  0  0  0  0  0  0  0  0  0  0  0
    3.8241    0.5532   21.6052 C   0  0  0  0  0  0  0  0  0  0  0  0
    2.5884    1.1876   22.3668 N   0  0  0  0  0  0  0  0  0  0  0  0
    1.4493    0.1658   22.3468 C   0  0  0  0  0  0  0  0  0  0  0  0
    3.0059    1.4623   23.7982 C   0  0  0  0  0  0  0  0  0  0  0  0
    2.2449    2.4312   21.5500 C   0  0  0  0  0  0  0  0  0  0  0  0
    3.0374    3.7196   21.6565 N   0  0  0  0  0  0  0  0  0  0  0  0
    4.4589    3.5224   22.1892 C   0  0  0  0  0  0  0  0  0  0  0  0
    2.3639    4.8596   22.3972 C   0  0  0  0  0  0  0  0  0  0  0  0
    3.2209    4.2193   20.1879 C   0  0  0  0  0  0  0  0  0  0  0  0
  8  9  1  0
  9  7  1  0
  7  6  1  0
  6  5  1  0
  5  4  1  0
  4  3  1  0
  3  2  1  0
  2  1  1  0
  1 10  1  0
 10 11  1  0
 11 12  1  0
 11 13  1  0
 11 14  1  0
 14 15  1  0
 15 16  1  0
 15 17  1  0
 15 18  1  0
M  CHG 1  11   1
M  CHG 1  15   1
M  END
> <minimizedAffinity>
-4.79797

> <CNNscore>
0.5156414509

> <CNNaffinity>
5.8981337547

> <CNN_VS>
3.0413222313

> <CNNaffinity_variance>
0.0525694154

$$$$



 18 17  0  0  0  0  0  0  0  0999 V2000
    8.9952   -1.3023   19.5552 C   0  0  0  0  0  0  0  0  0  0  0  0
   10.1064   -1.6290   18.5493 C   0  0  0  0  0  0  0  0  0  0  0  0
   10.2434   -3.1264   18.2563 C   0  0  0  0  0  0  0  0  0  0  0  0
   11.3527   -3.5139   17.2730 C   0  0  0  0  0  0  0  0  0  0  0  0
   11.7068   -2.4553   16.2239 C   0  0  0  0  0  0  0  0  0  0  0  0
   13.0803   -2.6137   15.5641 C   0  0  0  0  0  0  0  0  0  0  0  0
   13.8996   -1.3265   15.4241 C   0  0  0  0  0  0  0  0  0  0  0  0
   11.9580   -0.2183   14.1931 C   0  0  0  0  0  0  0  0  0  0  0  0
   13.4659   -0.3855   14.2976 C   0  0  0  0  0  0  0  0  0  0  0  0
    7.7573   -2.1591   19.2721 C   0  0  0  0  0  0  0  0  0  0  0  0
    6.4688   -1.7810   20.1126 N   0  0  0  0  0  0  0  0  0  0  0  0
    5.6596   -3.0611   20.3334 C   0  0  0  0  0  0  0  0  0  0  0  0
    6.9223   -1.2242   21.4479 C   0  0  0  0  0  0  0  0  0  0  0  0
    5.7222   -0.7879   19.2250 C   0  0  0  0  0  0  0  0  0  0  0  0
    4.3209   -0.3044   19.5442 N   0  0  0  0  0  0  0  0  0  0  0  0
    3.2335   -1.3419   19.2532 C   0  0  0  0  0  0  0  0  0  0  0  0
    3.9249    1.0355   18.9530 C   0  0  0  0  0  0  0  0  0  0  0  0
    4.2896   -0.1088   21.0937 C   0  0  0  0  0  0  0  0  0  0  0  0
  8  9  1  0
  9  7  1  0
  7  6  1  0
  6  5  1  0
  5  4  1  0
  4  3  1  0
  3  2  1  0
  2  1  1  0
  1 10  1  0
 10 11  1  0
 11 12  1  0
 11 13  1  0
 11 14  1  0
 14 15  1  0
 15 16  1  0
 15 17  1  0
 15 18  1  0
M  CHG 1  11   1
M  CHG 1  15   1
M  END
> <minimizedAffinity>
-5.21360

> <CNNscore>
0.4613289237

> <CNNaffinity>
4.6074519157

> <CNN_VS>
2.1255507469

> <CNNaffinity_variance>
0.9694736600

$$$$



 18 17  0  0  0  0  0  0  0  0999 V2000
    6.3087   -1.3904   20.5758 C   0  0  0  0  0  0  0  0  0  0  0  0
    7.4732   -1.7319   21.5141 C   0  0  0  0  0  0  0  0  0  0  0  0
    7.3507   -3.1155   22.1603 C   0  0  0  0  0  0  0  0  0  0  0  0
    8.6211   -3.6543   22.8262 C   0  0  0  0  0  0  0  0  0  0  0  0
    8.4475   -4.1813   24.2541 C   0  0  0  0  0  0  0  0  0  0  0  0
    9.3611   -3.5466   25.3074 C   0  0  0  0  0  0  0  0  0  0  0  0
    9.0839   -3.9567   26.7574 C   0  0  0  0  0  0  0  0  0  0  0  0
    7.5646   -5.1687   28.4116 C   0  0  0  0  0  0  0  0  0  0  0  0
    7.9490   -4.9646   26.9544 C   0  0  0  0  0  0  0  0  0  0  0  0
    4.9714   -1.6524   21.2758 C   0  0  0  0  0  0  0  0  0  0  0  0
    3.8300   -0.5986   20.9657 N   0  0  0  0  0  0  0  0  0  0  0  0
    3.7022   -0.4783   19.4454 C   0  0  0  0  0  0  0  0  0  0  0  0
    2.5324   -1.1220   21.5497 C   0  0  0  0  0  0  0  0  0  0  0  0
    4.3379    0.6975   21.5933 C   0  0  0  0  0  0  0  0  0  0  0  0
    3.5362    1.9843   21.5652 N   0  0  0  0  0  0  0  0  0  0  0  0
    4.1887    3.1299   22.3431 C   0  0  0  0  0  0  0  0  0  0  0  0
    2.0731    1.8691   21.9496 C   0  0  0  0  0  0  0  0  0  0  0  0
    3.5464    2.4499   20.0741 C   0  0  0  0  0  0  0  0  0  0  0  0
  8  9  1  0
  9  7  1  0
  7  6  1  0
  6  5  1  0
  5  4  1  0
  4  3  1  0
  3  2  1  0
  2  1  1  0
  1 10  1  0
 10 11  1  0
 11 12  1  0
 11 13  1  0
 11 14  1  0
 14 15  1  0
 15 16  1  0
 15 17  1  0
 15 18  1  0
M  CHG 1  11   1
M  CHG 1  15   1
M  END
> <minimizedAffinity>
-4.78434

> <CNNscore>
0.3584853709

> <CNNaffinity>
5.5994296074

> <CNN_VS>
2.0073134899

> <CNNaffinity_variance>
0.1256061047

$$$$



 18 17  0  0  0  0  0  0  0  0999 V2000
    9.3581   -4.4884   27.2829 C   0  0  0  0  0  0  0  0  0  0  0  0
    8.3903   -4.3252   26.1040 C   0  0  0  0  0  0  0  0  0  0  0  0
    8.9492   -3.4583   24.9712 C   0  0  0  0  0  0  0  0  0  0  0  0
    8.8775   -4.0690   23.5679 C   0  0  0  0  0  0  0  0  0  0  0  0
    7.9138   -3.3818   22.5953 C   0  0  0  0  0  0  0  0  0  0  0  0
    8.4062   -3.2669   21.1492 C   0  0  0  0  0  0  0  0  0  0  0  0
    7.3577   -2.8161   20.1269 C   0  0  0  0  0  0  0  0  0  0  0  0
    5.1091   -1.7716   20.7325 C   0  0  0  0  0  0  0  0  0  0  0  0
    5.8994   -3.0544   20.5261 C   0  0  0  0  0  0  0  0  0  0  0  0
    9.1606   -3.3513   28.2903 C   0  0  0  0  0  0  0  0  0  0  0  0
   10.1296   -3.3843   29.5432 N   0  0  0  0  0  0  0  0  0  0  0  0
   11.5116   -2.9172   29.0806 C   0  0  0  0  0  0  0  0  0  0  0  0
    9.5869   -2.4265   30.5856 C   0  0  0  0  0  0  0  0  0  0  0  0
   10.1426   -4.8513   29.9665 C   0  0  0  0  0  0  0  0  0  0  0  0
    9.3189   -5.3705   31.1289 N   0  0  0  0  0  0  0  0  0  0  0  0
    7.8132   -5.3884   30.8533 C   0  0  0  0  0  0  0  0  0  0  0  0
    9.5873   -4.7297   32.4777 C   0  0  0  0  0  0  0  0  0  0  0  0
    9.7195   -6.8720   31.2868 C   0  0  0  0  0  0  0  0  0  0  0  0
  8  9  1  0
  9  7  1  0
  7  6  1  0
  6  5  1  0
  5  4  1  0
  4  3  1  0
  3  2  1  0
  2  1  1  0
  1 10  1  0
 10 11  1  0
 11 12  1  0
 11 13  1  0
 11 14  1  0
 14 15  1  0
 15 16  1  0
 15 17  1  0
 15 18  1  0
M  CHG 1  11   1
M  CHG 1  15   1
M  END
> <minimizedAffinity>
-4.58856

> <CNNscore>
0.3314327598

> <CNNaffinity>
4.5610151291

> <CNN_VS>
1.5116698742

> <CNNaffinity_variance>
0.6098585725

$$$$



 18 17  0  0  0  0  0  0  0  0999 V2000
    3.7084    0.9336   21.9656 C   0  0  0  0  0  0  0  0  0  0  0  0
    2.3724    1.4542   22.5109 C   0  0  0  0  0  0  0  0  0  0  0  0
    1.1984    0.5025   22.2599 C   0  0  0  0  0  0  0  0  0  0  0  0
    1.4437   -0.9667   22.6188 C   0  0  0  0  0  0  0  0  0  0  0  0
    1.5690   -1.2707   24.1150 C   0  0  0  0  0  0  0  0  0  0  0  0
    0.3053   -1.8193   24.7850 C   0  0  0  0  0  0  0  0  0  0  0  0
    0.2295   -3.3449   24.9058 C   0  0  0  0  0  0  0  0  0  0  0  0
    0.0577   -2.9936   27.4278 C   0  0  0  0  0  0  0  0  0  0  0  0
    0.5028   -3.9124   26.3008 C   0  0  0  0  0  0  0  0  0  0  0  0
    3.6786    0.9035   20.4342 C   0  0  0  0  0  0  0  0  0  0  0  0
    4.2549   -0.4164   19.7743 N   0  0  0  0  0  0  0  0  0  0  0  0
    3.0709   -1.2464   19.2728 C   0  0  0  0  0  0  0  0  0  0  0  0
    5.1323   -0.0156   18.6047 C   0  0  0  0  0  0  0  0  0  0  0  0
    4.9896   -1.1147   20.9163 C   0  0  0  0  0  0  0  0  0  0  0  0
    6.2828   -1.8782   20.7059 N   0  0  0  0  0  0  0  0  0  0  0  0
    7.5284   -1.1082   21.1517 C   0  0  0  0  0  0  0  0  0  0  0  0
    6.5020   -2.4527   19.3190 C   0  0  0  0  0  0  0  0  0  0  0  0
    6.2022   -3.1082   21.6654 C   0  0  0  0  0  0  0  0  0  0  0  0
  8  9  1  0
  9  7  1  0
  7  6  1  0
  6  5  1  0
  5  4  1  0
  4  3  1  0
  3  2  1  0
  2  1  1  0
  1 10  1  0
 10 11  1  0
 11 12  1  0
 11 13  1  0
 11 14  1  0
 14 15  1  0
 15 16  1  0
 15 17  1  0
 15 18  1  0
M  CHG 1  11   1
M  CHG 1  15   1
M  END
> <minimizedAffinity>
-5.69832

> <CNNscore>
0.2880969644

> <CNNaffinity>
5.2889776230

> <CNN_VS>
1.5237383842

> <CNNaffinity_variance>
0.8749286532

$$$$



 18 17  0  0  0  0  0  0  0  0999 V2000
   10.3885   -4.1349   27.1084 C   0  0  0  0  0  0  0  0  0  0  0  0
   10.2984   -3.9254   25.5914 C   0  0  0  0  0  0  0  0  0  0  0  0
    8.8601   -3.8814   25.0658 C   0  0  0  0  0  0  0  0  0  0  0  0
    8.6816   -4.2284   23.5841 C   0  0  0  0  0  0  0  0  0  0  0  0
    9.9733   -4.5087   22.8096 C   0  0  0  0  0  0  0  0  0  0  0  0
    9.7880   -5.1105   21.4130 C   0  0  0  0  0  0  0  0  0  0  0  0
   10.3396   -4.2743   20.2537 C   0  0  0  0  0  0  0  0  0  0  0  0
   10.0654   -2.2506   18.7231 C   0  0  0  0  0  0  0  0  0  0  0  0
    9.3980   -3.1984   19.7073 C   0  0  0  0  0  0  0  0  0  0  0  0
    9.0515   -3.7869   27.7704 C   0  0  0  0  0  0  0  0  0  0  0  0
    9.1233   -3.5047   29.3276 N   0  0  0  0  0  0  0  0  0  0  0  0
   10.2140   -2.4579   29.5655 C   0  0  0  0  0  0  0  0  0  0  0  0
    7.7810   -2.9566   29.7708 C   0  0  0  0  0  0  0  0  0  0  0  0
    9.4956   -4.8552   29.9350 C   0  0  0  0  0  0  0  0  0  0  0  0
    9.0028   -5.2981   31.2990 N   0  0  0  0  0  0  0  0  0  0  0  0
    7.5041   -5.6077   31.3382 C   0  0  0  0  0  0  0  0  0  0  0  0
    9.3741   -4.4037   32.4669 C   0  0  0  0  0  0  0  0  0  0  0  0
    9.7061   -6.6656   31.5732 C   0  0  0  0  0  0  0  0  0  0  0  0
  8  9  1  0
  9  7  1  0
  7  6  1  0
  6  5  1  0
  5  4  1  0
  4  3  1  0
  3  2  1  0
  2  1  1  0
  1 10  1  0
 10 11  1  0
 11 12  1  0
 11 13  1  0
 11 14  1  0
 14 15  1  0
 15 16  1  0
 15 17  1  0
 15 18  1  0
M  CHG 1  11   1
M  CHG 1  15   1
M  END
> <minimizedAffinity>
-4.73627

> <CNNscore>
0.2162546068

> <CNNaffinity>
3.7753612995

> <CNN_VS>
0.8164392710

> <CNNaffinity_variance>
1.4701924324

$$$$



 18 17  0  0  0  0  0  0  0  0999 V2000
    8.8349   -3.9571   24.5741 C   0  0  0  0  0  0  0  0  0  0  0  0
    8.2617   -3.1381   23.4105 C   0  0  0  0  0  0  0  0  0  0  0  0
    8.6484   -3.6831   22.0320 C   0  0  0  0  0  0  0  0  0  0  0  0
    7.5756   -3.5650   20.9443 C   0  0  0  0  0  0  0  0  0  0  0  0
    7.9596   -2.7212   19.7247 C   0  0  0  0  0  0  0  0  0  0  0  0
    9.4623   -2.5082   19.5163 C   0  0  0  0  0  0  0  0  0  0  0  0
   10.2312   -3.7131   18.9646 C   0  0  0  0  0  0  0  0  0  0  0  0
   10.5251   -2.1780   16.9471 C   0  0  0  0  0  0  0  0  0  0  0  0
   10.8073   -3.5422   17.5570 C   0  0  0  0  0  0  0  0  0  0  0  0
    8.5351   -3.2636   25.9068 C   0  0  0  0  0  0  0  0  0  0  0  0
    8.0843   -4.2262   27.0815 N   0  0  0  0  0  0  0  0  0  0  0  0
    7.2041   -3.4190   28.0385 C   0  0  0  0  0  0  0  0  0  0  0  0
    7.2803   -5.3618   26.4795 C   0  0  0  0  0  0  0  0  0  0  0  0
    9.3948   -4.6489   27.7415 C   0  0  0  0  0  0  0  0  0  0  0  0
    9.8625   -4.0739   29.0644 N   0  0  0  0  0  0  0  0  0  0  0  0
   10.5653   -5.0953   29.9623 C   0  0  0  0  0  0  0  0  0  0  0  0
    8.8245   -3.3118   29.8667 C   0  0  0  0  0  0  0  0  0  0  0  0
   10.9651   -3.0294   28.6991 C   0  0  0  0  0  0  0  0  0  0  0  0
  8  9  1  0
  9  7  1  0
  7  6  1  0
  6  5  1  0
  5  4  1  0
  4  3  1  0
  3  2  1  0
  2  1  1  0
  1 10  1  0
 10 11  1  0
 11 12  1  0
 11 13  1  0
 11 14  1  0
 14 15  1  0
 15 16  1  0
 15 17  1  0
 15 18  1  0
M  CHG 1  11   1
M  CHG 1  15   1
M  END
> <minimizedAffinity>
-4.64570

> <CNNscore>
0.1985647082

> <CNNaffinity>
3.8555576801

> <CNN_VS>
0.7655776739

> <CNNaffinity_variance>
1.2570253611

$$$$
