


 20 20  0  0  0  0  0  0  0  0999 V2000
    2.8199   12.4337   22.2107 C   0  0  0  0  0  0  0  0  0  0  0  0
    2.0182   11.8013   23.3467 C   0  0  0  0  0  0  0  0  0  0  0  0
    2.6983   12.0272   24.6957 C   0  0  0  0  0  0  0  0  0  0  0  0
    3.9202   11.2802   24.7190 O   0  0  0  0  0  0  0  0  0  0  0  0
    3.0973   13.4626   24.9067 C   0  0  0  0  0  0  0  0  0  0  0  0
    3.2238   14.3644   23.9123 C   0  0  0  0  0  0  0  0  0  0  0  0
    3.0496   13.9528   22.4599 C   0  0  0  0  0  0  0  0  0  0  0  0
    4.2327   14.3548   21.7549 O   0  0  0  0  0  0  0  0  0  0  0  0
    3.7264   10.3390   24.5869 H   0  0  0  0  0  0  0  0  0  0  0  0
    5.0000   13.8839   22.1160 H   0  0  0  0  0  0  0  0  0  0  0  0
    1.7776   11.5645   25.8487 C   0  0  0  0  0  0  0  0  0  0  0  0
    0.7455   10.9233   25.6914 O   0  0  0  0  0  0  0  0  0  0  0  0
    2.2126   11.8654   27.0862 O   0  0  0  0  0  0  0  0  0  0  0  0
    3.0028   12.3561   27.1987 H   0  0  0  0  0  0  0  0  0  0  0  0
    1.1390   11.1137   21.1275 C   0  0  0  0  0  0  0  0  0  0  0  0
    2.0667   12.1846   21.0061 O   0  0  0  0  0  0  0  0  0  0  0  0
    3.5163   15.8454   24.1251 C   0  0  0  0  0  0  0  0  0  0  0  0
    3.4391   16.4072   25.5490 C   0  0  0  0  0  0  0  0  0  0  0  0
    2.8798   17.7159   25.5471 O   0  0  0  0  0  0  0  0  0  0  0  0
    3.4388   18.3057   25.0174 H   0  0  0  0  0  0  0  0  0  0  0  0
 15 16  1  0
  1 16  1  0
  1  2  1  0
  2  3  1  0
  3  4  1  0
  3 11  1  0
 11 12  2  0
 11 13  1  0
  3  5  1  0
  5  6  2  0
  6 17  1  0
 17 18  1  0
 18 19  1  0
  6  7  1  0
  7  8  1  0
  7  1  1  0
  4  9  1  0
 13 14  1  0
 19 20  1  0
  8 10  1  0
M  END
> <minimizedAffinity>
-7.47753

> <CNNscore>
0.8242785931

> <CNNaffinity>
4.7610912323

> <CNN_VS>
3.9244656563

> <CNNaffinity_variance>
0.3404237330

$$$$



 20 20  0  0  0  0  0  0  0  0999 V2000
    3.4583   13.7573   22.5847 C   0  0  0  0  0  0  0  0  0  0  0  0
    2.4343   12.7430   23.0902 C   0  0  0  0  0  0  0  0  0  0  0  0
    2.7095   12.3566   24.5423 C   0  0  0  0  0  0  0  0  0  0  0  0
    3.9354   11.6174   24.5910 O   0  0  0  0  0  0  0  0  0  0  0  0
    2.9240   13.5549   25.4267 C   0  0  0  0  0  0  0  0  0  0  0  0
    3.2405   14.7831   24.9693 C   0  0  0  0  0  0  0  0  0  0  0  0
    3.4934   15.0227   23.4900 C   0  0  0  0  0  0  0  0  0  0  0  0
    4.7866   15.6322   23.3689 O   0  0  0  0  0  0  0  0  0  0  0  0
    3.8582   10.8262   24.0352 H   0  0  0  0  0  0  0  0  0  0  0  0
    5.4640   15.0217   23.6996 H   0  0  0  0  0  0  0  0  0  0  0  0
    1.5535   11.4941   25.0999 C   0  0  0  0  0  0  0  0  0  0  0  0
    1.1731   11.5213   26.2642 O   0  0  0  0  0  0  0  0  0  0  0  0
    0.9250   10.7222   24.1941 O   0  0  0  0  0  0  0  0  0  0  0  0
    1.2217   10.7066   23.3055 H   0  0  0  0  0  0  0  0  0  0  0  0
    3.7224   15.2187   20.7042 C   0  0  0  0  0  0  0  0  0  0  0  0
    3.0762   14.0654   21.2283 O   0  0  0  0  0  0  0  0  0  0  0  0
    3.3486   16.0265   25.8447 C   0  0  0  0  0  0  0  0  0  0  0  0
    2.7515   17.3389   25.3252 C   0  0  0  0  0  0  0  0  0  0  0  0
    2.4815   18.2325   26.3996 O   0  0  0  0  0  0  0  0  0  0  0  0
    1.8419   17.8261   27.0051 H   0  0  0  0  0  0  0  0  0  0  0  0
 15 16  1  0
  1 16  1  0
  1  2  1  0
  2  3  1  0
  3  4  1  0
  3 11  1  0
 11 12  2  0
 11 13  1  0
  3  5  1  0
  5  6  2  0
  6 17  1  0
 17 18  1  0
 18 19  1  0
  6  7  1  0
  7  8  1  0
  7  1  1  0
  4  9  1  0
 13 14  1  0
 19 20  1  0
  8 10  1  0
M  END
> <minimizedAffinity>
-7.59360

> <CNNscore>
0.8003084660

> <CNNaffinity>
4.6092944145

> <CNN_VS>
3.6888573170

> <CNNaffinity_variance>
0.0358391814

$$$$



 20 20  0  0  0  0  0  0  0  0999 V2000
    3.5664   19.5552   18.9587 C   0  0  0  0  0  0  0  0  0  0  0  0
    2.4956   19.1762   19.9799 C   0  0  0  0  0  0  0  0  0  0  0  0
    1.6104   18.0456   19.4589 C   0  0  0  0  0  0  0  0  0  0  0  0
    0.8365   18.5437   18.3614 O   0  0  0  0  0  0  0  0  0  0  0  0
    2.4091   16.8978   18.9031 C   0  0  0  0  0  0  0  0  0  0  0  0
    3.7009   16.9896   18.5278 C   0  0  0  0  0  0  0  0  0  0  0  0
    4.4301   18.3224   18.5631 C   0  0  0  0  0  0  0  0  0  0  0  0
    4.9731   18.5494   17.2547 O   0  0  0  0  0  0  0  0  0  0  0  0
    0.2958   19.2915   18.6601 H   0  0  0  0  0  0  0  0  0  0  0  0
    4.2501   18.6137   16.6112 H   0  0  0  0  0  0  0  0  0  0  0  0
    0.6704   17.5370   20.5765 C   0  0  0  0  0  0  0  0  0  0  0  0
    0.3521   18.1933   21.5609 O   0  0  0  0  0  0  0  0  0  0  0  0
    0.1552   16.3096   20.3785 O   0  0  0  0  0  0  0  0  0  0  0  0
    0.4033   15.8136   19.6233 H   0  0  0  0  0  0  0  0  0  0  0  0
    4.4202   21.7883   18.7986 C   0  0  0  0  0  0  0  0  0  0  0  0
    4.3506   20.5980   19.5736 O   0  0  0  0  0  0  0  0  0  0  0  0
    4.5506   15.8092   18.0708 C   0  0  0  0  0  0  0  0  0  0  0  0
    3.9881   14.8806   16.9890 C   0  0  0  0  0  0  0  0  0  0  0  0
    2.7394   15.3637   16.5065 O   0  0  0  0  0  0  0  0  0  0  0  0
    2.1025   15.4000   17.2372 H   0  0  0  0  0  0  0  0  0  0  0  0
 15 16  1  0
  1 16  1  0
  1  2  1  0
  2  3  1  0
  3  4  1  0
  3 11  1  0
 11 12  2  0
 11 13  1  0
  3  5  1  0
  5  6  2  0
  6 17  1  0
 17 18  1  0
 18 19  1  0
  6  7  1  0
  7  8  1  0
  7  1  1  0
  4  9  1  0
 13 14  1  0
 19 20  1  0
  8 10  1  0
M  END
> <minimizedAffinity>
-3.67512

> <CNNscore>
0.6124691963

> <CNNaffinity>
3.4480693340

> <CNN_VS>
2.1118361950

> <CNNaffinity_variance>
0.0360902101

$$$$



 20 20  0  0  0  0  0  0  0  0999 V2000
   -6.4319   16.3837   16.5351 C   0  0  0  0  0  0  0  0  0  0  0  0
   -6.7597   16.1765   18.0124 C   0  0  0  0  0  0  0  0  0  0  0  0
   -5.4888   15.9957   18.8405 C   0  0  0  0  0  0  0  0  0  0  0  0
   -4.8819   14.7508   18.4750 O   0  0  0  0  0  0  0  0  0  0  0  0
   -4.4560   17.0504   18.5488 C   0  0  0  0  0  0  0  0  0  0  0  0
   -4.4511   17.8145   17.4379 C   0  0  0  0  0  0  0  0  0  0  0  0
   -5.4718   17.5921   16.3343 C   0  0  0  0  0  0  0  0  0  0  0  0
   -4.7466   17.3977   15.1117 O   0  0  0  0  0  0  0  0  0  0  0  0
   -5.5049   14.0262   18.6417 H   0  0  0  0  0  0  0  0  0  0  0  0
   -4.1972   16.6016   15.1847 H   0  0  0  0  0  0  0  0  0  0  0  0
   -5.8237   15.9937   20.3501 C   0  0  0  0  0  0  0  0  0  0  0  0
   -5.6188   15.0468   21.1002 O   0  0  0  0  0  0  0  0  0  0  0  0
   -6.3201   17.1492   20.8292 O   0  0  0  0  0  0  0  0  0  0  0  0
   -6.4742   17.8690   20.2495 H   0  0  0  0  0  0  0  0  0  0  0  0
   -7.9882   15.5721   14.9039 C   0  0  0  0  0  0  0  0  0  0  0  0
   -7.6976   16.5743   15.8701 O   0  0  0  0  0  0  0  0  0  0  0  0
   -3.4779   18.9606   17.1856 C   0  0  0  0  0  0  0  0  0  0  0  0
   -2.0549   18.6222   16.7279 C   0  0  0  0  0  0  0  0  0  0  0  0
   -1.9432   17.2416   16.4008 O   0  0  0  0  0  0  0  0  0  0  0  0
   -2.1461   16.7063   17.1838 H   0  0  0  0  0  0  0  0  0  0  0  0
 15 16  1  0
  1 16  1  0
  1  2  1  0
  2  3  1  0
  3  4  1  0
  3 11  1  0
 11 12  2  0
 11 13  1  0
  3  5  1  0
  5  6  2  0
  6 17  1  0
 17 18  1  0
 18 19  1  0
  6  7  1  0
  7  8  1  0
  7  1  1  0
  4  9  1  0
 13 14  1  0
 19 20  1  0
  8 10  1  0
M  END
> <minimizedAffinity>
-3.78986

> <CNNscore>
0.4558688998

> <CNNaffinity>
3.3688557148

> <CNN_VS>
1.5357565880

> <CNNaffinity_variance>
0.1306744814

$$$$



 20 20  0  0  0  0  0  0  0  0999 V2000
    8.7531   15.2357   15.9809 C   0  0  0  0  0  0  0  0  0  0  0  0
    8.8265   15.7699   17.4100 C   0  0  0  0  0  0  0  0  0  0  0  0
    7.6753   16.7311   17.7005 C   0  0  0  0  0  0  0  0  0  0  0  0
    7.8606   17.9129   16.9127 O   0  0  0  0  0  0  0  0  0  0  0  0
    6.3405   16.1736   17.2862 C   0  0  0  0  0  0  0  0  0  0  0  0
    6.1855   15.1575   16.4137 C   0  0  0  0  0  0  0  0  0  0  0  0
    7.3841   14.5486   15.7051 C   0  0  0  0  0  0  0  0  0  0  0  0
    7.1236   14.6050   14.2953 O   0  0  0  0  0  0  0  0  0  0  0  0
    8.7117   18.3208   17.1368 H   0  0  0  0  0  0  0  0  0  0  0  0
    7.0428   15.5310   14.0182 H   0  0  0  0  0  0  0  0  0  0  0  0
    7.6458   17.0999   19.2020 C   0  0  0  0  0  0  0  0  0  0  0  0
    7.1513   16.3965   20.0747 O   0  0  0  0  0  0  0  0  0  0  0  0
    8.2636   18.2519   19.5221 O   0  0  0  0  0  0  0  0  0  0  0  0
    8.6394   18.7847   18.8491 H   0  0  0  0  0  0  0  0  0  0  0  0
   11.0436   14.9377   15.3434 C   0  0  0  0  0  0  0  0  0  0  0  0
    9.8614   14.3232   15.8404 O   0  0  0  0  0  0  0  0  0  0  0  0
    4.8472   14.5111   16.0737 C   0  0  0  0  0  0  0  0  0  0  0  0
    4.7494   12.9818   16.0940 C   0  0  0  0  0  0  0  0  0  0  0  0
    4.8618   12.4499   14.7787 O   0  0  0  0  0  0  0  0  0  0  0  0
    4.1407   12.7934   14.2283 H   0  0  0  0  0  0  0  0  0  0  0  0
 15 16  1  0
  1 16  1  0
  1  2  1  0
  2  3  1  0
  3  4  1  0
  3 11  1  0
 11 12  2  0
 11 13  1  0
  3  5  1  0
  5  6  2  0
  6 17  1  0
 17 18  1  0
 18 19  1  0
  6  7  1  0
  7  8  1  0
  7  1  1  0
  4  9  1  0
 13 14  1  0
 19 20  1  0
  8 10  1  0
M  END
> <minimizedAffinity>
-3.76255

> <CNNscore>
0.3666349649

> <CNNaffinity>
2.7553815842

> <CNN_VS>
1.0102192163

> <CNNaffinity_variance>
0.6621559262

$$$$



 20 20  0  0  0  0  0  0  0  0999 V2000
    3.0188   14.9255   24.2588 C   0  0  0  0  0  0  0  0  0  0  0  0
    3.3390   13.4332   24.3170 C   0  0  0  0  0  0  0  0  0  0  0  0
    2.7732   12.6988   23.1029 C   0  0  0  0  0  0  0  0  0  0  0  0
    1.3434   12.7175   23.1863 O   0  0  0  0  0  0  0  0  0  0  0  0
    3.1120   13.3829   21.8062 C   0  0  0  0  0  0  0  0  0  0  0  0
    3.5027   14.6699   21.7120 C   0  0  0  0  0  0  0  0  0  0  0  0
    3.5436   15.5641   22.9401 C   0  0  0  0  0  0  0  0  0  0  0  0
    2.7524   16.7258   22.6518 O   0  0  0  0  0  0  0  0  0  0  0  0
    1.0619   12.2867   24.0085 H   0  0  0  0  0  0  0  0  0  0  0  0
    1.8323   16.4602   22.4977 H   0  0  0  0  0  0  0  0  0  0  0  0
    3.2785   11.2376   23.0719 C   0  0  0  0  0  0  0  0  0  0  0  0
    2.8545   10.3779   22.3090 O   0  0  0  0  0  0  0  0  0  0  0  0
    4.2856   10.9607   23.9206 O   0  0  0  0  0  0  0  0  0  0  0  0
    4.6047   11.6234   24.5012 H   0  0  0  0  0  0  0  0  0  0  0  0
    2.8974   16.6056   25.9630 C   0  0  0  0  0  0  0  0  0  0  0  0
    3.6280   15.5085   25.4292 O   0  0  0  0  0  0  0  0  0  0  0  0
    3.9564   15.3396   20.4197 C   0  0  0  0  0  0  0  0  0  0  0  0
    5.1437   16.3070   20.4770 C   0  0  0  0  0  0  0  0  0  0  0  0
    6.0437   15.9428   21.5176 O   0  0  0  0  0  0  0  0  0  0  0  0
    5.5826   15.9765   22.3704 H   0  0  0  0  0  0  0  0  0  0  0  0
 15 16  1  0
  1 16  1  0
  1  2  1  0
  2  3  1  0
  3  4  1  0
  3 11  1  0
 11 12  2  0
 11 13  1  0
  3  5  1  0
  5  6  2  0
  6 17  1  0
 17 18  1  0
 18 19  1  0
  6  7  1  0
  7  8  1  0
  7  1  1  0
  4  9  1  0
 13 14  1  0
 19 20  1  0
  8 10  1  0
M  END
> <minimizedAffinity>
-6.47470

> <CNNscore>
0.3662177622

> <CNNaffinity>
3.9189436436

> <CNN_VS>
1.4351867437

> <CNNaffinity_variance>
0.1111662462

$$$$



 20 20  0  0  0  0  0  0  0  0999 V2000
    3.1581   17.4488   24.7367 C   0  0  0  0  0  0  0  0  0  0  0  0
    2.1709   18.4670   25.3039 C   0  0  0  0  0  0  0  0  0  0  0  0
    2.1072   19.7199   24.4323 C   0  0  0  0  0  0  0  0  0  0  0  0
    3.3601   20.4069   24.5322 O   0  0  0  0  0  0  0  0  0  0  0  0
    1.9373   19.3982   22.9722 C   0  0  0  0  0  0  0  0  0  0  0  0
    2.2079   18.1944   22.4286 C   0  0  0  0  0  0  0  0  0  0  0  0
    2.8027   17.0759   23.2681 C   0  0  0  0  0  0  0  0  0  0  0  0
    3.9984   16.6342   22.6096 O   0  0  0  0  0  0  0  0  0  0  0  0
    3.5267   20.6424   25.4583 H   0  0  0  0  0  0  0  0  0  0  0  0
    4.6371   17.3635   22.5757 H   0  0  0  0  0  0  0  0  0  0  0  0
    0.9613   20.6463   24.9014 C   0  0  0  0  0  0  0  0  0  0  0  0
    0.0727   20.3064   25.6733 O   0  0  0  0  0  0  0  0  0  0  0  0
    1.0223   21.9107   24.4446 O   0  0  0  0  0  0  0  0  0  0  0  0
    1.7048   22.1633   23.8544 H   0  0  0  0  0  0  0  0  0  0  0  0
    2.4953   16.5897   26.8731 C   0  0  0  0  0  0  0  0  0  0  0  0
    3.1042   16.3090   25.6190 O   0  0  0  0  0  0  0  0  0  0  0  0
    1.9329   17.8244   20.9754 C   0  0  0  0  0  0  0  0  0  0  0  0
    0.4952   17.9298   20.4551 C   0  0  0  0  0  0  0  0  0  0  0  0
   -0.0705   16.6378   20.2653 O   0  0  0  0  0  0  0  0  0  0  0  0
    0.4539   16.1479   19.6127 H   0  0  0  0  0  0  0  0  0  0  0  0
 15 16  1  0
  1 16  1  0
  1  2  1  0
  2  3  1  0
  3  4  1  0
  3 11  1  0
 11 12  2  0
 11 13  1  0
  3  5  1  0
  5  6  2  0
  6 17  1  0
 17 18  1  0
 18 19  1  0
  6  7  1  0
  7  8  1  0
  7  1  1  0
  4  9  1  0
 13 14  1  0
 19 20  1  0
  8 10  1  0
M  END
> <minimizedAffinity>
-4.67664

> <CNNscore>
0.3164894283

> <CNNaffinity>
3.0728442669

> <CNN_VS>
0.9725227356

> <CNNaffinity_variance>
0.5201120377

$$$$



 20 20  0  0  0  0  0  0  0  0999 V2000
    3.4994   15.0786   24.9735 C   0  0  0  0  0  0  0  0  0  0  0  0
    3.1433   15.9981   23.8070 C   0  0  0  0  0  0  0  0  0  0  0  0
    3.7466   15.4902   22.4987 C   0  0  0  0  0  0  0  0  0  0  0  0
    5.1712   15.6171   22.5761 O   0  0  0  0  0  0  0  0  0  0  0  0
    3.4823   14.0263   22.2723 C   0  0  0  0  0  0  0  0  0  0  0  0
    3.1255   13.1648   23.2461 C   0  0  0  0  0  0  0  0  0  0  0  0
    3.0494   13.6148   24.6957 C   0  0  0  0  0  0  0  0  0  0  0  0
    3.8788   12.7312   25.4636 O   0  0  0  0  0  0  0  0  0  0  0  0
    5.4055   16.5469   22.7226 H   0  0  0  0  0  0  0  0  0  0  0  0
    4.7987   12.8117   25.1667 H   0  0  0  0  0  0  0  0  0  0  0  0
    3.2103   16.3105   21.3026 C   0  0  0  0  0  0  0  0  0  0  0  0
    2.2038   16.0231   20.6659 O   0  0  0  0  0  0  0  0  0  0  0  0
    3.9006   17.4306   21.0195 O   0  0  0  0  0  0  0  0  0  0  0  0
    4.6694   17.6439   21.5107 H   0  0  0  0  0  0  0  0  0  0  0  0
    2.7427   17.0567   26.0941 C   0  0  0  0  0  0  0  0  0  0  0  0
    2.8513   15.6394   26.1337 O   0  0  0  0  0  0  0  0  0  0  0  0
    2.7460   11.7073   23.0097 C   0  0  0  0  0  0  0  0  0  0  0  0
    1.7335   11.3869   21.9048 C   0  0  0  0  0  0  0  0  0  0  0  0
    0.9664   12.5385   21.5716 O   0  0  0  0  0  0  0  0  0  0  0  0
    0.4778   12.8389   22.3539 H   0  0  0  0  0  0  0  0  0  0  0  0
 15 16  1  0
  1 16  1  0
  1  2  1  0
  2  3  1  0
  3  4  1  0
  3 11  1  0
 11 12  2  0
 11 13  1  0
  3  5  1  0
  5  6  2  0
  6 17  1  0
 17 18  1  0
 18 19  1  0
  6  7  1  0
  7  8  1  0
  7  1  1  0
  4  9  1  0
 13 14  1  0
 19 20  1  0
  8 10  1  0
M  END
> <minimizedAffinity>
-6.96268

> <CNNscore>
0.3062036633

> <CNNaffinity>
3.4820613861

> <CNN_VS>
1.0662199259

> <CNNaffinity_variance>
0.4041720629

$$$$



 20 20  0  0  0  0  0  0  0  0999 V2000
    4.6300   15.8039   16.9653 C   0  0  0  0  0  0  0  0  0  0  0  0
    4.1429   15.6584   18.4056 C   0  0  0  0  0  0  0  0  0  0  0  0
    3.6302   16.9893   18.9528 C   0  0  0  0  0  0  0  0  0  0  0  0
    4.7408   17.8841   19.0850 O   0  0  0  0  0  0  0  0  0  0  0  0
    2.6727   17.6688   18.0118 C   0  0  0  0  0  0  0  0  0  0  0  0
    2.5733   17.3802   16.6985 C   0  0  0  0  0  0  0  0  0  0  0  0
    3.5125   16.3786   16.0471 C   0  0  0  0  0  0  0  0  0  0  0  0
    4.1332   17.0344   14.9322 O   0  0  0  0  0  0  0  0  0  0  0  0
    5.3977   17.4977   19.6851 H   0  0  0  0  0  0  0  0  0  0  0  0
    4.6595   17.7845   15.2504 H   0  0  0  0  0  0  0  0  0  0  0  0
    2.9550   16.7832   20.3286 C   0  0  0  0  0  0  0  0  0  0  0  0
    1.9573   16.0957   20.5105 O   0  0  0  0  0  0  0  0  0  0  0  0
    3.5746   17.3754   21.3663 O   0  0  0  0  0  0  0  0  0  0  0  0
    4.3371   17.8997   21.2194 H   0  0  0  0  0  0  0  0  0  0  0  0
    6.3778   14.4522   16.0382 C   0  0  0  0  0  0  0  0  0  0  0  0
    5.0531   14.4877   16.5540 O   0  0  0  0  0  0  0  0  0  0  0  0
    1.5312   17.9805   15.7615 C   0  0  0  0  0  0  0  0  0  0  0  0
    0.7203   17.0340   14.8696 C   0  0  0  0  0  0  0  0  0  0  0  0
   -0.5592   16.7759   15.4370 O   0  0  0  0  0  0  0  0  0  0  0  0
   -0.4494   16.3565   16.3047 H   0  0  0  0  0  0  0  0  0  0  0  0
 15 16  1  0
  1 16  1  0
  1  2  1  0
  2  3  1  0
  3  4  1  0
  3 11  1  0
 11 12  2  0
 11 13  1  0
  3  5  1  0
  5  6  2  0
  6 17  1  0
 17 18  1  0
 18 19  1  0
  6  7  1  0
  7  8  1  0
  7  1  1  0
  4  9  1  0
 13 14  1  0
 19 20  1  0
  8 10  1  0
M  END
> <minimizedAffinity>
-3.40875

> <CNNscore>
0.2950504124

> <CNNaffinity>
3.1205556393

> <CNN_VS>
0.9207212329

> <CNNaffinity_variance>
0.3530209064

$$$$
