


 12 12  0  0  0  0  0  0  0  0999 V2000
   45.5372   18.8787   51.1039 C   0  0  0  0  0  0  0  0  0  0  0  0
   45.8649   20.2970   50.7240 C   0  0  0  0  0  0  0  0  0  0  0  0
   46.6896   21.0797   51.5443 C   0  0  0  0  0  0  0  0  0  0  0  0
   46.9658   22.4054   51.2070 C   0  0  0  0  0  0  0  0  0  0  0  0
   46.4210   22.9606   50.0515 C   0  0  0  0  0  0  0  0  0  0  0  0
   45.6013   22.1909   49.2293 C   0  0  0  0  0  0  0  0  0  0  0  0
   45.3223   20.8648   49.5625 C   0  0  0  0  0  0  0  0  0  0  0  0
   45.7429   17.2851   52.9778 N   0  0  0  0  0  0  0  0  0  0  0  0
   45.5332   18.7132   52.6210 C   0  0  0  0  0  0  0  0  0  0  0  0
   45.7388   17.1841   53.9928 H   0  0  0  0  0  0  0  0  0  0  0  0
   46.6401   16.9706   52.6084 H   0  0  0  0  0  0  0  0  0  0  0  0
   44.9936   16.7210   52.5769 H   0  0  0  0  0  0  0  0  0  0  0  0
  8  9  1  0
  9  1  1  0
  1  2  1  0
  2  3  2  0
  3  4  1  0
  4  5  2  0
  5  6  1  0
  6  7  2  0
  7  2  1  0
  8 10  1  0
  8 11  1  0
  8 12  1  0
M  CHG 1   8   1
M  END
> <minimizedAffinity>
-4.67098

> <CNNscore>
0.9301807880

> <CNNaffinity>
3.7461223602

> <CNN_VS>
3.4845709801

> <CNNaffinity_variance>
0.3237974644

$$$$



 12 12  0  0  0  0  0  0  0  0999 V2000
   45.5502   18.8509   51.3079 C   0  0  0  0  0  0  0  0  0  0  0  0
   45.8377   20.2633   50.8764 C   0  0  0  0  0  0  0  0  0  0  0  0
   45.3239   20.7556   49.6684 C   0  0  0  0  0  0  0  0  0  0  0  0
   45.6188   22.0552   49.2542 C   0  0  0  0  0  0  0  0  0  0  0  0
   46.4288   22.8721   50.0395 C   0  0  0  0  0  0  0  0  0  0  0  0
   46.9432   22.3927   51.2420 C   0  0  0  0  0  0  0  0  0  0  0  0
   46.6510   21.0939   51.6603 C   0  0  0  0  0  0  0  0  0  0  0  0
   45.9230   17.3165   53.2052 N   0  0  0  0  0  0  0  0  0  0  0  0
   45.6281   18.7238   52.8266 C   0  0  0  0  0  0  0  0  0  0  0  0
   45.9731   17.2411   54.2211 H   0  0  0  0  0  0  0  0  0  0  0  0
   46.8152   17.0350   52.7989 H   0  0  0  0  0  0  0  0  0  0  0  0
   45.1829   16.7081   52.8552 H   0  0  0  0  0  0  0  0  0  0  0  0
  8  9  1  0
  9  1  1  0
  1  2  1  0
  2  3  2  0
  3  4  1  0
  4  5  2  0
  5  6  1  0
  6  7  2  0
  7  2  1  0
  8 10  1  0
  8 11  1  0
  8 12  1  0
M  CHG 1   8   1
M  END
> <minimizedAffinity>
-4.62520

> <CNNscore>
0.9013184905

> <CNNaffinity>
3.7436923981

> <CNN_VS>
3.3742592335

> <CNNaffinity_variance>
0.3846835792

$$$$



 12 12  0  0  0  0  0  0  0  0999 V2000
   36.9672   29.0512   43.1721 C   0  0  0  0  0  0  0  0  0  0  0  0
   35.4850   29.0873   42.9168 C   0  0  0  0  0  0  0  0  0  0  0  0
   34.7136   27.9235   43.0445 C   0  0  0  0  0  0  0  0  0  0  0  0
   33.3446   27.9519   42.7754 C   0  0  0  0  0  0  0  0  0  0  0  0
   32.7354   29.1390   42.3758 C   0  0  0  0  0  0  0  0  0  0  0  0
   33.4928   30.3009   42.2471 C   0  0  0  0  0  0  0  0  0  0  0  0
   34.8621   30.2774   42.5151 C   0  0  0  0  0  0  0  0  0  0  0  0
   38.9830   29.7060   41.9068 N   0  0  0  0  0  0  0  0  0  0  0  0
   37.6717   30.1792   42.4236 C   0  0  0  0  0  0  0  0  0  0  0  0
   39.4463   30.4658   41.4085 H   0  0  0  0  0  0  0  0  0  0  0  0
   38.8351   28.9225   41.2707 H   0  0  0  0  0  0  0  0  0  0  0  0
   39.5673   29.4049   42.6869 H   0  0  0  0  0  0  0  0  0  0  0  0
  8  9  1  0
  9  1  1  0
  1  2  1  0
  2  3  2  0
  3  4  1  0
  4  5  2  0
  5  6  1  0
  6  7  2  0
  7  2  1  0
  8 10  1  0
  8 11  1  0
  8 12  1  0
M  CHG 1   8   1
M  END
> <minimizedAffinity>
-3.11790

> <CNNscore>
0.8147966862

> <CNNaffinity>
3.3732881546

> <CNN_VS>
2.7485439777

> <CNNaffinity_variance>
0.1604491919

$$$$



 12 12  0  0  0  0  0  0  0  0999 V2000
   38.6428   24.8627   55.3036 C   0  0  0  0  0  0  0  0  0  0  0  0
   39.1099   25.5060   54.0264 C   0  0  0  0  0  0  0  0  0  0  0  0
   40.3412   25.1479   53.4595 C   0  0  0  0  0  0  0  0  0  0  0  0
   40.7876   25.7694   52.2925 C   0  0  0  0  0  0  0  0  0  0  0  0
   40.0115   26.7528   51.6836 C   0  0  0  0  0  0  0  0  0  0  0  0
   38.7862   27.1149   52.2383 C   0  0  0  0  0  0  0  0  0  0  0  0
   38.3356   26.4961   53.4052 C   0  0  0  0  0  0  0  0  0  0  0  0
   36.6080   23.9261   56.3407 N   0  0  0  0  0  0  0  0  0  0  0  0
   37.3660   24.0604   55.0687 C   0  0  0  0  0  0  0  0  0  0  0  0
   35.7570   23.3890   56.1743 H   0  0  0  0  0  0  0  0  0  0  0  0
   36.3625   24.8526   56.6897 H   0  0  0  0  0  0  0  0  0  0  0  0
   37.1844   23.4446   57.0308 H   0  0  0  0  0  0  0  0  0  0  0  0
  8  9  1  0
  9  1  1  0
  1  2  1  0
  2  3  2  0
  3  4  1  0
  4  5  2  0
  5  6  1  0
  6  7  2  0
  7  2  1  0
  8 10  1  0
  8 11  1  0
  8 12  1  0
M  CHG 1   8   1
M  END
> <minimizedAffinity>
-3.91523

> <CNNscore>
0.7546300292

> <CNNaffinity>
2.9602708817

> <CNN_VS>
2.2339093685

> <CNNaffinity_variance>
0.5872872472

$$$$



 12 12  0  0  0  0  0  0  0  0999 V2000
   36.3459   29.4985   45.3364 C   0  0  0  0  0  0  0  0  0  0  0  0
   35.1073   29.1668   44.5496 C   0  0  0  0  0  0  0  0  0  0  0  0
   33.8941   29.8115   44.8293 C   0  0  0  0  0  0  0  0  0  0  0  0
   32.7389   29.4789   44.1205 C   0  0  0  0  0  0  0  0  0  0  0  0
   32.7842   28.5007   43.1299 C   0  0  0  0  0  0  0  0  0  0  0  0
   33.9848   27.8551   42.8437 C   0  0  0  0  0  0  0  0  0  0  0  0
   35.1426   28.1844   43.5498 C   0  0  0  0  0  0  0  0  0  0  0  0
   38.5267   28.4044   44.9618 N   0  0  0  0  0  0  0  0  0  0  0  0
   37.1833   28.2459   45.5788 C   0  0  0  0  0  0  0  0  0  0  0  0
   39.0789   27.5632   45.1287 H   0  0  0  0  0  0  0  0  0  0  0  0
   38.9983   29.2085   45.3759 H   0  0  0  0  0  0  0  0  0  0  0  0
   38.4245   28.5504   43.9575 H   0  0  0  0  0  0  0  0  0  0  0  0
  8  9  1  0
  9  1  1  0
  1  2  1  0
  2  3  2  0
  3  4  1  0
  4  5  2  0
  5  6  1  0
  6  7  2  0
  7  2  1  0
  8 10  1  0
  8 11  1  0
  8 12  1  0
M  CHG 1   8   1
M  END
> <minimizedAffinity>
-3.24365

> <CNNscore>
0.7206318974

> <CNNaffinity>
3.1365330219

> <CNN_VS>
2.2602858543

> <CNNaffinity_variance>
0.3764071465

$$$$



 12 12  0  0  0  0  0  0  0  0999 V2000
   52.2481   24.1565   41.5990 C   0  0  0  0  0  0  0  0  0  0  0  0
   50.8617   24.5898   41.9909 C   0  0  0  0  0  0  0  0  0  0  0  0
   50.1529   25.5043   41.1990 C   0  0  0  0  0  0  0  0  0  0  0  0
   48.8801   25.9300   41.5814 C   0  0  0  0  0  0  0  0  0  0  0  0
   48.3059   25.4492   42.7559 C   0  0  0  0  0  0  0  0  0  0  0  0
   49.0015   24.5396   43.5489 C   0  0  0  0  0  0  0  0  0  0  0  0
   50.2745   24.1109   43.1705 C   0  0  0  0  0  0  0  0  0  0  0  0
   52.1741   23.0564   39.3906 N   0  0  0  0  0  0  0  0  0  0  0  0
   52.2079   22.8227   40.8585 C   0  0  0  0  0  0  0  0  0  0  0  0
   52.1473   22.1602   38.9042 H   0  0  0  0  0  0  0  0  0  0  0  0
   53.0083   23.5713   39.1089 H   0  0  0  0  0  0  0  0  0  0  0  0
   51.3434   23.5979   39.1515 H   0  0  0  0  0  0  0  0  0  0  0  0
  8  9  1  0
  9  1  1  0
  1  2  1  0
  2  3  2  0
  3  4  1  0
  4  5  2  0
  5  6  1  0
  6  7  2  0
  7  2  1  0
  8 10  1  0
  8 11  1  0
  8 12  1  0
M  CHG 1   8   1
M  END
> <minimizedAffinity>
-3.58124

> <CNNscore>
0.7096367478

> <CNNaffinity>
3.6324825287

> <CNN_VS>
2.5777430534

> <CNNaffinity_variance>
0.1566756666

$$$$



 12 12  0  0  0  0  0  0  0  0999 V2000
   39.2897   28.0398   54.7992 C   0  0  0  0  0  0  0  0  0  0  0  0
   38.5953   26.7347   55.0782 C   0  0  0  0  0  0  0  0  0  0  0  0
   37.6512   26.6387   56.1102 C   0  0  0  0  0  0  0  0  0  0  0  0
   37.0323   25.4193   56.3886 C   0  0  0  0  0  0  0  0  0  0  0  0
   37.3511   24.2873   55.6422 C   0  0  0  0  0  0  0  0  0  0  0  0
   38.2870   24.3725   54.6140 C   0  0  0  0  0  0  0  0  0  0  0  0
   38.9084   25.5897   54.3319 C   0  0  0  0  0  0  0  0  0  0  0  0
   37.5607   28.7082   53.1692 N   0  0  0  0  0  0  0  0  0  0  0  0
   38.2808   29.1148   54.4048 C   0  0  0  0  0  0  0  0  0  0  0  0
   36.8891   29.4319   52.9133 H   0  0  0  0  0  0  0  0  0  0  0  0
   37.0680   27.8308   53.3359 H   0  0  0  0  0  0  0  0  0  0  0  0
   38.2310   28.5828   52.4107 H   0  0  0  0  0  0  0  0  0  0  0  0
  8  9  1  0
  9  1  1  0
  1  2  1  0
  2  3  2  0
  3  4  1  0
  4  5  2  0
  5  6  1  0
  6  7  2  0
  7  2  1  0
  8 10  1  0
  8 11  1  0
  8 12  1  0
M  CHG 1   8   1
M  END
> <minimizedAffinity>
-3.17481

> <CNNscore>
0.6742953062

> <CNNaffinity>
2.7422235012

> <CNN_VS>
1.8490684032

> <CNNaffinity_variance>
0.7363725305

$$$$



 12 12  0  0  0  0  0  0  0  0999 V2000
   51.4362   25.4096   40.7710 C   0  0  0  0  0  0  0  0  0  0  0  0
   50.0435   25.7841   41.1996 C   0  0  0  0  0  0  0  0  0  0  0  0
   49.3553   25.0034   42.1391 C   0  0  0  0  0  0  0  0  0  0  0  0
   48.0514   25.3338   42.5107 C   0  0  0  0  0  0  0  0  0  0  0  0
   47.4239   26.4427   41.9479 C   0  0  0  0  0  0  0  0  0  0  0  0
   48.0995   27.2253   41.0145 C   0  0  0  0  0  0  0  0  0  0  0  0
   49.4035   26.8989   40.6397 C   0  0  0  0  0  0  0  0  0  0  0  0
   53.5443   24.7483   41.8717 N   0  0  0  0  0  0  0  0  0  0  0  0
   52.0840   24.4798   41.7931 C   0  0  0  0  0  0  0  0  0  0  0  0
   53.9686   24.1228   42.5567 H   0  0  0  0  0  0  0  0  0  0  0  0
   53.6973   25.7163   42.1546 H   0  0  0  0  0  0  0  0  0  0  0  0
   53.9688   24.5900   40.9579 H   0  0  0  0  0  0  0  0  0  0  0  0
  8  9  1  0
  9  1  1  0
  1  2  1  0
  2  3  2  0
  3  4  1  0
  4  5  2  0
  5  6  1  0
  6  7  2  0
  7  2  1  0
  8 10  1  0
  8 11  1  0
  8 12  1  0
M  CHG 1   8   1
M  END
> <minimizedAffinity>
-2.98559

> <CNNscore>
0.6693036556

> <CNNaffinity>
3.7580423355

> <CNN_VS>
2.5152714252

> <CNNaffinity_variance>
0.3182346225

$$$$



 12 12  0  0  0  0  0  0  0  0999 V2000
   39.7408   27.3864   52.5303 C   0  0  0  0  0  0  0  0  0  0  0  0
   40.3064   26.3956   51.5495 C   0  0  0  0  0  0  0  0  0  0  0  0
   39.9861   26.4826   50.1873 C   0  0  0  0  0  0  0  0  0  0  0  0
   40.4854   25.5432   49.2842 C   0  0  0  0  0  0  0  0  0  0  0  0
   41.3054   24.5102   49.7321 C   0  0  0  0  0  0  0  0  0  0  0  0
   41.6304   24.4157   51.0833 C   0  0  0  0  0  0  0  0  0  0  0  0
   41.1334   25.3528   51.9902 C   0  0  0  0  0  0  0  0  0  0  0  0
   37.4982   28.3742   52.8275 N   0  0  0  0  0  0  0  0  0  0  0  0
   38.2653   27.1010   52.7960 C   0  0  0  0  0  0  0  0  0  0  0  0
   36.5141   28.1739   53.0055 H   0  0  0  0  0  0  0  0  0  0  0  0
   37.5915   28.8497   51.9299 H   0  0  0  0  0  0  0  0  0  0  0  0
   37.8629   28.9726   53.5687 H   0  0  0  0  0  0  0  0  0  0  0  0
  8  9  1  0
  9  1  1  0
  1  2  1  0
  2  3  2  0
  3  4  1  0
  4  5  2  0
  5  6  1  0
  6  7  2  0
  7  2  1  0
  8 10  1  0
  8 11  1  0
  8 12  1  0
M  CHG 1   8   1
M  END
> <minimizedAffinity>
-3.34646

> <CNNscore>
0.6100685596

> <CNNaffinity>
2.9456112385

> <CNN_VS>
1.7970248461

> <CNNaffinity_variance>
0.6445100307

$$$$
