


 16 16  0  0  0  0  0  0  0  0999 V2000
   25.7984   32.2228   19.0887 N   0  0  0  0  0  0  0  0  0  0  0  0
   27.1837   31.6806   19.1017 C   0  0  0  0  0  0  0  0  0  0  0  0
   25.7875   33.1386   19.5377 H   0  0  0  0  0  0  0  0  0  0  0  0
   25.1804   31.5886   19.5949 H   0  0  0  0  0  0  0  0  0  0  0  0
   27.1979   30.3057   18.4271 C   0  0  0  0  0  0  0  0  0  0  0  0
   28.0783   29.4630   18.5179 O   0  0  0  0  0  0  0  0  0  0  0  0
   26.0950   30.0623   17.6919 O   0  0  0  0  0  0  0  0  0  0  0  0
   25.4232   30.7121   17.6258 H   0  0  0  0  0  0  0  0  0  0  0  0
   27.7262   31.5506   20.5349 C   0  0  0  0  0  0  0  0  0  0  0  0
   28.0458   32.8839   21.1740 C   0  0  0  0  0  0  0  0  0  0  0  0
   27.5294   33.2112   22.4368 C   0  0  0  0  0  0  0  0  0  0  0  0
   27.8180   34.4458   23.0195 C   0  0  0  0  0  0  0  0  0  0  0  0
   28.6200   35.3534   22.3392 C   0  0  0  0  0  0  0  0  0  0  0  0
   28.8968   36.5388   22.8985 F   0  0  0  0  0  0  0  0  0  0  0  0
   29.1371   35.0514   21.0853 C   0  0  0  0  0  0  0  0  0  0  0  0
   28.8488   33.8176   20.5001 C   0  0  0  0  0  0  0  0  0  0  0  0
  2  1  1  0
  2  9  1  0
  9 10  1  0
 10 11  2  0
 11 12  1  0
 12 13  2  0
 13 14  1  0
 13 15  1  0
 15 16  2  0
  2  5  1  0
  5  6  2  0
  5  7  1  0
 16 10  1  0
  1  3  1  0
  1  4  1  0
  7  8  1  0
M  END
> <minimizedAffinity>
-7.94079

> <CNNscore>
0.9840986729

> <CNNaffinity>
5.4147753716

> <CNN_VS>
5.3286733627

> <CNNaffinity_variance>
0.1569855064

$$$$



 16 16  0  0  0  0  0  0  0  0999 V2000
   25.9684   32.1741   19.2685 N   0  0  0  0  0  0  0  0  0  0  0  0
   27.2766   31.4850   19.4329 C   0  0  0  0  0  0  0  0  0  0  0  0
   25.9035   32.9439   19.9346 H   0  0  0  0  0  0  0  0  0  0  0  0
   25.2115   31.5120   19.4392 H   0  0  0  0  0  0  0  0  0  0  0  0
   27.3720   30.3298   18.4319 C   0  0  0  0  0  0  0  0  0  0  0  0
   28.2049   29.4355   18.4345 O   0  0  0  0  0  0  0  0  0  0  0  0
   26.4028   30.3553   17.4958 O   0  0  0  0  0  0  0  0  0  0  0  0
   25.7668   31.0434   17.4986 H   0  0  0  0  0  0  0  0  0  0  0  0
   27.4520   30.9386   20.8598 C   0  0  0  0  0  0  0  0  0  0  0  0
   27.9121   31.9883   21.8471 C   0  0  0  0  0  0  0  0  0  0  0  0
   28.8551   31.6717   22.8364 C   0  0  0  0  0  0  0  0  0  0  0  0
   29.2704   32.6395   23.7518 C   0  0  0  0  0  0  0  0  0  0  0  0
   28.7414   33.9219   23.6799 C   0  0  0  0  0  0  0  0  0  0  0  0
   29.1399   34.8510   24.5589 F   0  0  0  0  0  0  0  0  0  0  0  0
   27.8024   34.2550   22.7113 C   0  0  0  0  0  0  0  0  0  0  0  0
   27.3847   33.2883   21.7953 C   0  0  0  0  0  0  0  0  0  0  0  0
  2  1  1  0
  2  9  1  0
  9 10  1  0
 10 11  2  0
 11 12  1  0
 12 13  2  0
 13 14  1  0
 13 15  1  0
 15 16  2  0
  2  5  1  0
  5  6  2  0
  5  7  1  0
 16 10  1  0
  1  3  1  0
  1  4  1  0
  7  8  1  0
M  END
> <minimizedAffinity>
-8.56255

> <CNNscore>
0.9767775536

> <CNNaffinity>
5.8623352051

> <CNN_VS>
5.7261972427

> <CNNaffinity_variance>
0.1321993023

$$$$



 16 16  0  0  0  0  0  0  0  0999 V2000
   25.9866   32.1814   19.2407 N   0  0  0  0  0  0  0  0  0  0  0  0
   27.2805   31.4766   19.4457 C   0  0  0  0  0  0  0  0  0  0  0  0
   25.9127   32.9554   19.9009 H   0  0  0  0  0  0  0  0  0  0  0  0
   25.2167   31.5299   19.3930 H   0  0  0  0  0  0  0  0  0  0  0  0
   27.3895   30.3150   18.4535 C   0  0  0  0  0  0  0  0  0  0  0  0
   28.2343   29.4320   18.4613 O   0  0  0  0  0  0  0  0  0  0  0  0
   26.4183   30.3203   17.5192 O   0  0  0  0  0  0  0  0  0  0  0  0
   25.7731   30.9998   17.5179 H   0  0  0  0  0  0  0  0  0  0  0  0
   27.4083   30.9355   20.8796 C   0  0  0  0  0  0  0  0  0  0  0  0
   27.8692   31.9805   21.8716 C   0  0  0  0  0  0  0  0  0  0  0  0
   27.2985   33.2621   21.8739 C   0  0  0  0  0  0  0  0  0  0  0  0
   27.7325   34.2268   22.7837 C   0  0  0  0  0  0  0  0  0  0  0  0
   28.7382   33.9115   23.6887 C   0  0  0  0  0  0  0  0  0  0  0  0
   29.1551   34.8378   24.5620 F   0  0  0  0  0  0  0  0  0  0  0  0
   29.3206   32.6499   23.6997 C   0  0  0  0  0  0  0  0  0  0  0  0
   28.8888   31.6837   22.7899 C   0  0  0  0  0  0  0  0  0  0  0  0
  2  1  1  0
  2  9  1  0
  9 10  1  0
 10 11  2  0
 11 12  1  0
 12 13  2  0
 13 14  1  0
 13 15  1  0
 15 16  2  0
  2  5  1  0
  5  6  2  0
  5  7  1  0
 16 10  1  0
  1  3  1  0
  1  4  1  0
  7  8  1  0
M  END
> <minimizedAffinity>
-8.58606

> <CNNscore>
0.9739164114

> <CNNaffinity>
5.8833060265

> <CNN_VS>
5.7298483849

> <CNNaffinity_variance>
0.0980782807

$$$$



 16 16  0  0  0  0  0  0  0  0999 V2000
   28.5180   20.7762   24.2626 N   0  0  0  0  0  0  0  0  0  0  0  0
   27.7429   21.8769   23.6295 C   0  0  0  0  0  0  0  0  0  0  0  0
   29.5156   20.9451   24.1338 H   0  0  0  0  0  0  0  0  0  0  0  0
   28.2646   19.8886   23.8285 H   0  0  0  0  0  0  0  0  0  0  0  0
   26.2454   21.6215   23.8240 C   0  0  0  0  0  0  0  0  0  0  0  0
   25.5440   20.8779   23.1542 O   0  0  0  0  0  0  0  0  0  0  0  0
   25.7199   22.3020   24.8617 O   0  0  0  0  0  0  0  0  0  0  0  0
   26.2623   22.8708   25.3719 H   0  0  0  0  0  0  0  0  0  0  0  0
   28.0492   21.9919   22.1267 C   0  0  0  0  0  0  0  0  0  0  0  0
   29.1322   23.0010   21.8152 C   0  0  0  0  0  0  0  0  0  0  0  0
   29.2883   24.1473   22.6090 C   0  0  0  0  0  0  0  0  0  0  0  0
   30.2820   25.0811   22.3133 C   0  0  0  0  0  0  0  0  0  0  0  0
   31.1172   24.8707   21.2234 C   0  0  0  0  0  0  0  0  0  0  0  0
   32.0710   25.7674   20.9393 F   0  0  0  0  0  0  0  0  0  0  0  0
   30.9761   23.7449   20.4211 C   0  0  0  0  0  0  0  0  0  0  0  0
   29.9822   22.8100   20.7143 C   0  0  0  0  0  0  0  0  0  0  0  0
  2  1  1  0
  2  9  1  0
  9 10  1  0
 10 11  2  0
 11 12  1  0
 12 13  2  0
 13 14  1  0
 13 15  1  0
 15 16  2  0
  2  5  1  0
  5  6  2  0
  5  7  1  0
 16 10  1  0
  1  3  1  0
  1  4  1  0
  7  8  1  0
M  END
> <minimizedAffinity>
-6.37723

> <CNNscore>
0.8922996521

> <CNNaffinity>
4.7607045174

> <CNN_VS>
4.2479748726

> <CNNaffinity_variance>
0.1825707406

$$$$



 16 16  0  0  0  0  0  0  0  0999 V2000
   25.7028   32.4954   19.0493 N   0  0  0  0  0  0  0  0  0  0  0  0
   26.8368   31.6141   19.4373 C   0  0  0  0  0  0  0  0  0  0  0  0
   25.7193   33.3413   19.6191 H   0  0  0  0  0  0  0  0  0  0  0  0
   24.8225   32.0023   19.1983 H   0  0  0  0  0  0  0  0  0  0  0  0
   26.8103   30.3447   18.5808 C   0  0  0  0  0  0  0  0  0  0  0  0
   25.8300   29.8568   18.0383 O   0  0  0  0  0  0  0  0  0  0  0  0
   28.0222   29.7721   18.4405 O   0  0  0  0  0  0  0  0  0  0  0  0
   28.7704   30.1505   18.8588 H   0  0  0  0  0  0  0  0  0  0  0  0
   26.7684   31.2270   20.9242 C   0  0  0  0  0  0  0  0  0  0  0  0
   28.0789   31.4273   21.6527 C   0  0  0  0  0  0  0  0  0  0  0  0
   29.1313   32.1296   21.0466 C   0  0  0  0  0  0  0  0  0  0  0  0
   30.3423   32.3045   21.7173 C   0  0  0  0  0  0  0  0  0  0  0  0
   30.5021   31.7753   22.9917 C   0  0  0  0  0  0  0  0  0  0  0  0
   31.6648   31.9429   23.6355 F   0  0  0  0  0  0  0  0  0  0  0  0
   29.4744   31.0718   23.6079 C   0  0  0  0  0  0  0  0  0  0  0  0
   28.2626   30.8948   22.9386 C   0  0  0  0  0  0  0  0  0  0  0  0
  2  1  1  0
  2  9  1  0
  9 10  1  0
 10 11  2  0
 11 12  1  0
 12 13  2  0
 13 14  1  0
 13 15  1  0
 15 16  2  0
  2  5  1  0
  5  6  2  0
  5  7  1  0
 16 10  1  0
  1  3  1  0
  1  4  1  0
  7  8  1  0
M  END
> <minimizedAffinity>
-5.08299

> <CNNscore>
0.8576718569

> <CNNaffinity>
5.6818695068

> <CNN_VS>
4.8731794357

> <CNNaffinity_variance>
0.2008416653

$$$$



 16 16  0  0  0  0  0  0  0  0999 V2000
   25.7543   32.3835   19.1897 N   0  0  0  0  0  0  0  0  0  0  0  0
   26.9719   31.9077   18.4795 C   0  0  0  0  0  0  0  0  0  0  0  0
   25.7461   33.4033   19.2048 H   0  0  0  0  0  0  0  0  0  0  0  0
   25.7584   32.0294   20.1463 H   0  0  0  0  0  0  0  0  0  0  0  0
   26.9822   30.3764   18.4580 C   0  0  0  0  0  0  0  0  0  0  0  0
   27.9677   29.6595   18.3671 O   0  0  0  0  0  0  0  0  0  0  0  0
   25.7536   29.8343   18.5709 O   0  0  0  0  0  0  0  0  0  0  0  0
   25.0014   30.3888   18.6403 H   0  0  0  0  0  0  0  0  0  0  0  0
   28.2558   32.4165   19.1564 C   0  0  0  0  0  0  0  0  0  0  0  0
   28.3825   31.9782   20.5987 C   0  0  0  0  0  0  0  0  0  0  0  0
   27.2660   31.4952   21.2977 C   0  0  0  0  0  0  0  0  0  0  0  0
   27.3839   31.1008   22.6309 C   0  0  0  0  0  0  0  0  0  0  0  0
   28.6162   31.1917   23.2657 C   0  0  0  0  0  0  0  0  0  0  0  0
   28.7293   30.8134   24.5458 F   0  0  0  0  0  0  0  0  0  0  0  0
   29.7333   31.6724   22.5933 C   0  0  0  0  0  0  0  0  0  0  0  0
   29.6175   32.0684   21.2601 C   0  0  0  0  0  0  0  0  0  0  0  0
  2  1  1  0
  2  9  1  0
  9 10  1  0
 10 11  2  0
 11 12  1  0
 12 13  2  0
 13 14  1  0
 13 15  1  0
 15 16  2  0
  2  5  1  0
  5  6  2  0
  5  7  1  0
 16 10  1  0
  1  3  1  0
  1  4  1  0
  7  8  1  0
M  END
> <minimizedAffinity>
-5.99245

> <CNNscore>
0.8511415720

> <CNNaffinity>
5.4351730347

> <CNN_VS>
4.6261014938

> <CNNaffinity_variance>
0.0633073077

$$$$



 16 16  0  0  0  0  0  0  0  0999 V2000
   29.5531   32.2672   20.4350 N   0  0  0  0  0  0  0  0  0  0  0  0
   28.3283   31.4233   20.4063 C   0  0  0  0  0  0  0  0  0  0  0  0
   30.0484   32.1177   21.3141 H   0  0  0  0  0  0  0  0  0  0  0  0
   29.2911   33.2497   20.3553 H   0  0  0  0  0  0  0  0  0  0  0  0
   27.5861   31.6492   19.0858 C   0  0  0  0  0  0  0  0  0  0  0  0
   27.9908   31.3628   17.9688 O   0  0  0  0  0  0  0  0  0  0  0  0
   26.3694   32.2056   19.2476 O   0  0  0  0  0  0  0  0  0  0  0  0
   26.0642   32.4232   20.1064 H   0  0  0  0  0  0  0  0  0  0  0  0
   27.3898   31.7494   21.5804 C   0  0  0  0  0  0  0  0  0  0  0  0
   27.9531   32.7914   22.5213 C   0  0  0  0  0  0  0  0  0  0  0  0
   27.5884   34.1400   22.3924 C   0  0  0  0  0  0  0  0  0  0  0  0
   28.1170   35.1002   23.2557 C   0  0  0  0  0  0  0  0  0  0  0  0
   29.0117   34.7131   24.2453 C   0  0  0  0  0  0  0  0  0  0  0  0
   29.5196   35.6350   25.0740 F   0  0  0  0  0  0  0  0  0  0  0  0
   29.3904   33.3836   24.3868 C   0  0  0  0  0  0  0  0  0  0  0  0
   28.8637   32.4216   23.5238 C   0  0  0  0  0  0  0  0  0  0  0  0
  2  1  1  0
  2  9  1  0
  9 10  1  0
 10 11  2  0
 11 12  1  0
 12 13  2  0
 13 14  1  0
 13 15  1  0
 15 16  2  0
  2  5  1  0
  5  6  2  0
  5  7  1  0
 16 10  1  0
  1  3  1  0
  1  4  1  0
  7  8  1  0
M  END
> <minimizedAffinity>
-7.26137

> <CNNscore>
0.8209008574

> <CNNaffinity>
4.9941182137

> <CNN_VS>
4.0996761322

> <CNNaffinity_variance>
0.0107273245

$$$$



 16 16  0  0  0  0  0  0  0  0999 V2000
   27.8684   20.5260   25.1223 N   0  0  0  0  0  0  0  0  0  0  0  0
   27.2629   21.4334   24.1108 C   0  0  0  0  0  0  0  0  0  0  0  0
   28.8675   20.4318   24.9398 H   0  0  0  0  0  0  0  0  0  0  0  0
   27.4245   19.6094   25.0658 H   0  0  0  0  0  0  0  0  0  0  0  0
   25.7629   21.5735   24.3866 C   0  0  0  0  0  0  0  0  0  0  0  0
   25.2513   22.0133   25.4056 O   0  0  0  0  0  0  0  0  0  0  0  0
   24.9926   21.1696   23.3572 O   0  0  0  0  0  0  0  0  0  0  0  0
   25.3903   20.8332   22.5783 H   0  0  0  0  0  0  0  0  0  0  0  0
   27.4710   20.9052   22.6814 C   0  0  0  0  0  0  0  0  0  0  0  0
   28.5574   21.6397   21.9274 C   0  0  0  0  0  0  0  0  0  0  0  0
   28.6332   21.5599   20.5288 C   0  0  0  0  0  0  0  0  0  0  0  0
   29.6422   22.2306   19.8368 C   0  0  0  0  0  0  0  0  0  0  0  0
   30.5764   22.9782   20.5426 C   0  0  0  0  0  0  0  0  0  0  0  0
   31.5454   23.6218   19.8783 F   0  0  0  0  0  0  0  0  0  0  0  0
   30.5227   23.0659   21.9283 C   0  0  0  0  0  0  0  0  0  0  0  0
   29.5149   22.3951   22.6227 C   0  0  0  0  0  0  0  0  0  0  0  0
  2  1  1  0
  2  9  1  0
  9 10  1  0
 10 11  2  0
 11 12  1  0
 12 13  2  0
 13 14  1  0
 13 15  1  0
 15 16  2  0
  2  5  1  0
  5  6  2  0
  5  7  1  0
 16 10  1  0
  1  3  1  0
  1  4  1  0
  7  8  1  0
M  END
> <minimizedAffinity>
-6.12205

> <CNNscore>
0.8103056550

> <CNNaffinity>
4.7061238289

> <CNN_VS>
3.8133988380

> <CNNaffinity_variance>
0.0765881240

$$$$



 16 16  0  0  0  0  0  0  0  0999 V2000
   28.2344   31.7669   18.1551 N   0  0  0  0  0  0  0  0  0  0  0  0
   27.7081   30.5339   18.8001 C   0  0  0  0  0  0  0  0  0  0  0  0
   29.2401   31.8303   18.3128 H   0  0  0  0  0  0  0  0  0  0  0  0
   27.7750   32.5837   18.5576 H   0  0  0  0  0  0  0  0  0  0  0  0
   26.1980   30.4406   18.5622 C   0  0  0  0  0  0  0  0  0  0  0  0
   25.5822   29.4515   18.1935 O   0  0  0  0  0  0  0  0  0  0  0  0
   25.5466   31.5919   18.8198 O   0  0  0  0  0  0  0  0  0  0  0  0
   26.0239   32.3471   19.1022 H   0  0  0  0  0  0  0  0  0  0  0  0
   27.9872   30.5242   20.3125 C   0  0  0  0  0  0  0  0  0  0  0  0
   28.0643   31.9105   20.9128 C   0  0  0  0  0  0  0  0  0  0  0  0
   27.3155   32.2360   22.0537 C   0  0  0  0  0  0  0  0  0  0  0  0
   27.3813   33.5185   22.5995 C   0  0  0  0  0  0  0  0  0  0  0  0
   28.1928   34.4756   22.0036 C   0  0  0  0  0  0  0  0  0  0  0  0
   28.2558   35.7070   22.5273 F   0  0  0  0  0  0  0  0  0  0  0  0
   28.9384   34.1757   20.8700 C   0  0  0  0  0  0  0  0  0  0  0  0
   28.8734   32.8939   20.3217 C   0  0  0  0  0  0  0  0  0  0  0  0
  2  1  1  0
  2  9  1  0
  9 10  1  0
 10 11  2  0
 11 12  1  0
 12 13  2  0
 13 14  1  0
 13 15  1  0
 15 16  2  0
  2  5  1  0
  5  6  2  0
  5  7  1  0
 16 10  1  0
  1  3  1  0
  1  4  1  0
  7  8  1  0
M  END
> <minimizedAffinity>
-7.16872

> <CNNscore>
0.7940021753

> <CNNaffinity>
5.2213749886

> <CNN_VS>
4.1457829475

> <CNNaffinity_variance>
0.0131643014

$$$$
