


 21 22  0  0  0  0  0  0  0  0999 V2000
   -4.4765   -4.1413   22.6732 C   0  0  0  0  0  0  0  0  0  0  0  0
    0.6727   -2.6817   20.6984 O   0  0  0  0  0  0  0  0  0  0  0  0
   -0.5516   -3.0165   21.1950 C   0  0  0  0  0  0  0  0  0  0  0  0
   -1.3338   -3.8911   20.4538 C   0  0  0  0  0  0  0  0  0  0  0  0
   -2.5963   -4.2616   20.9215 C   0  0  0  0  0  0  0  0  0  0  0  0
   -3.0883   -3.7557   22.1365 C   0  0  0  0  0  0  0  0  0  0  0  0
   -2.2720   -2.8767   22.8727 C   0  0  0  0  0  0  0  0  0  0  0  0
   -1.0091   -2.5057   22.4032 C   0  0  0  0  0  0  0  0  0  0  0  0
    0.9604   -3.0387   19.8812 H   0  0  0  0  0  0  0  0  0  0  0  0
   -5.1590   -5.1682   21.7498 C   0  0  0  0  0  0  0  0  0  0  0  0
   -5.9066   -4.8269   20.6116 C   0  0  0  0  0  0  0  0  0  0  0  0
   -6.4890   -5.8155   19.8095 C   0  0  0  0  0  0  0  0  0  0  0  0
   -6.3201   -7.1553   20.1337 C   0  0  0  0  0  0  0  0  0  0  0  0
   -6.8707   -8.1467   19.3782 O   0  0  0  0  0  0  0  0  0  0  0  0
   -5.5751   -7.5238   21.2429 C   0  0  0  0  0  0  0  0  0  0  0  0
   -4.9951   -6.5381   22.0433 C   0  0  0  0  0  0  0  0  0  0  0  0
   -7.3800   -7.9313   18.6217 H   0  0  0  0  0  0  0  0  0  0  0  0
   -5.3174   -2.9237   23.2065 C   0  0  0  0  0  0  0  0  0  0  0  0
   -6.7709   -3.4831   24.1288 Cl  0  0  0  0  0  0  0  0  0  0  0  0
   -4.3433   -1.9472   24.3923 Cl  0  0  0  0  0  0  0  0  0  0  0  0
   -5.8752   -1.7762   21.9384 Cl  0  0  0  0  0  0  0  0  0  0  0  0
  2  3  1  0
  3  4  2  0
  4  5  1  0
  5  6  2  0
  6  1  1  0
  1 10  1  0
 10 11  2  0
 11 12  1  0
 12 13  2  0
 13 14  1  0
 13 15  1  0
 15 16  2  0
  1 18  1  0
 18 19  1  0
 18 20  1  0
 18 21  1  0
  6  7  1  0
  7  8  2  0
  8  3  1  0
 16 10  1  0
  2  9  1  0
 14 17  1  0
M  END
> <minimizedAffinity>
-9.07562

> <CNNscore>
0.9832900167

> <CNNaffinity>
7.9855360985

> <CNN_VS>
7.8520979881

> <CNNaffinity_variance>
0.6364741325

$$$$



 21 22  0  0  0  0  0  0  0  0999 V2000
   -4.4413   -4.2440   22.6977 C   0  0  0  0  0  0  0  0  0  0  0  0
    0.6480   -2.6342   20.6844 O   0  0  0  0  0  0  0  0  0  0  0  0
   -0.5737   -3.0314   21.1399 C   0  0  0  0  0  0  0  0  0  0  0  0
   -0.9836   -2.5678   22.3821 C   0  0  0  0  0  0  0  0  0  0  0  0
   -2.2267   -2.9493   22.8911 C   0  0  0  0  0  0  0  0  0  0  0  0
   -3.0701   -3.8026   22.1599 C   0  0  0  0  0  0  0  0  0  0  0  0
   -2.6342   -4.2522   20.8995 C   0  0  0  0  0  0  0  0  0  0  0  0
   -1.3895   -3.8707   20.3915 C   0  0  0  0  0  0  0  0  0  0  0  0
    1.1811   -2.0676   21.2066 H   0  0  0  0  0  0  0  0  0  0  0  0
   -5.0378   -5.3685   21.8301 C   0  0  0  0  0  0  0  0  0  0  0  0
   -4.7545   -6.7321   22.0071 C   0  0  0  0  0  0  0  0  0  0  0  0
   -5.3441   -7.7024   21.1881 C   0  0  0  0  0  0  0  0  0  0  0  0
   -6.2306   -7.3175   20.1908 C   0  0  0  0  0  0  0  0  0  0  0  0
   -6.8251   -8.2315   19.3735 O   0  0  0  0  0  0  0  0  0  0  0  0
   -6.5413   -5.9801   20.0015 C   0  0  0  0  0  0  0  0  0  0  0  0
   -5.9527   -5.0124   20.8174 C   0  0  0  0  0  0  0  0  0  0  0  0
   -6.6364   -9.1437   19.4753 H   0  0  0  0  0  0  0  0  0  0  0  0
   -5.3690   -3.0533   23.1396 C   0  0  0  0  0  0  0  0  0  0  0  0
   -4.5161   -1.9493   24.2929 Cl  0  0  0  0  0  0  0  0  0  0  0  0
   -5.7977   -2.0147   21.7093 Cl  0  0  0  0  0  0  0  0  0  0  0  0
   -6.9251   -3.5470   23.8954 Cl  0  0  0  0  0  0  0  0  0  0  0  0
  2  3  1  0
  3  4  2  0
  4  5  1  0
  5  6  2  0
  6  1  1  0
  1 10  1  0
 10 11  2  0
 11 12  1  0
 12 13  2  0
 13 14  1  0
 13 15  1  0
 15 16  2  0
  1 18  1  0
 18 19  1  0
 18 20  1  0
 18 21  1  0
  6  7  1  0
  7  8  2  0
  8  3  1  0
 16 10  1  0
  2  9  1  0
 14 17  1  0
M  END
> <minimizedAffinity>
-9.00536

> <CNNscore>
0.9810476899

> <CNNaffinity>
7.8862423897

> <CNN_VS>
7.7367796898

> <CNNaffinity_variance>
0.5291193128

$$$$



 21 22  0  0  0  0  0  0  0  0999 V2000
   -4.5039   -4.2532   22.6545 C   0  0  0  0  0  0  0  0  0  0  0  0
    0.6205   -2.6700   20.7103 O   0  0  0  0  0  0  0  0  0  0  0  0
   -0.6091   -3.0612   21.1494 C   0  0  0  0  0  0  0  0  0  0  0  0
   -1.0425   -2.5779   22.3760 C   0  0  0  0  0  0  0  0  0  0  0  0
   -2.2946   -2.9526   22.8679 C   0  0  0  0  0  0  0  0  0  0  0  0
   -3.1234   -3.8188   22.1352 C   0  0  0  0  0  0  0  0  0  0  0  0
   -2.6636   -4.2884   20.8906 C   0  0  0  0  0  0  0  0  0  0  0  0
   -1.4100   -3.9137   20.3998 C   0  0  0  0  0  0  0  0  0  0  0  0
    1.1432   -2.0942   21.2330 H   0  0  0  0  0  0  0  0  0  0  0  0
   -5.0833   -5.3921   21.7941 C   0  0  0  0  0  0  0  0  0  0  0  0
   -4.8018   -6.7523   21.9979 C   0  0  0  0  0  0  0  0  0  0  0  0
   -5.3753   -7.7362   21.1838 C   0  0  0  0  0  0  0  0  0  0  0  0
   -6.2439   -7.3684   20.1645 C   0  0  0  0  0  0  0  0  0  0  0  0
   -6.8224   -8.2961   19.3511 O   0  0  0  0  0  0  0  0  0  0  0  0
   -6.5526   -6.0346   19.9483 C   0  0  0  0  0  0  0  0  0  0  0  0
   -5.9800   -5.0533   20.7594 C   0  0  0  0  0  0  0  0  0  0  0  0
   -6.6346   -9.2062   19.4708 H   0  0  0  0  0  0  0  0  0  0  0  0
   -5.4407   -3.0566   23.0600 C   0  0  0  0  0  0  0  0  0  0  0  0
   -6.9690   -3.6498   23.8272 Cl  0  0  0  0  0  0  0  0  0  0  0  0
   -4.6406   -2.0207   24.3230 Cl  0  0  0  0  0  0  0  0  0  0  0  0
   -5.8907   -1.9568   21.7095 Cl  0  0  0  0  0  0  0  0  0  0  0  0
  2  3  1  0
  3  4  2  0
  4  5  1  0
  5  6  2  0
  6  1  1  0
  1 10  1  0
 10 11  2  0
 11 12  1  0
 12 13  2  0
 13 14  1  0
 13 15  1  0
 15 16  2  0
  1 18  1  0
 18 19  1  0
 18 20  1  0
 18 21  1  0
  6  7  1  0
  7  8  2  0
  8  3  1  0
 16 10  1  0
  2  9  1  0
 14 17  1  0
M  END
> <minimizedAffinity>
-8.99625

> <CNNscore>
0.9799529314

> <CNNaffinity>
7.8792805672

> <CNN_VS>
7.7213239670

> <CNNaffinity_variance>
0.5148437023

$$$$



 21 22  0  0  0  0  0  0  0  0999 V2000
   -4.7031   -3.2495   21.0914 C   0  0  0  0  0  0  0  0  0  0  0  0
   -6.0343   -8.7965   21.0280 O   0  0  0  0  0  0  0  0  0  0  0  0
   -5.6966   -7.4765   21.0638 C   0  0  0  0  0  0  0  0  0  0  0  0
   -6.4615   -6.5920   20.3164 C   0  0  0  0  0  0  0  0  0  0  0  0
   -6.1524   -5.2303   20.3206 C   0  0  0  0  0  0  0  0  0  0  0  0
   -5.0704   -4.7424   21.0725 C   0  0  0  0  0  0  0  0  0  0  0  0
   -4.3156   -5.6592   21.8280 C   0  0  0  0  0  0  0  0  0  0  0  0
   -4.6251   -7.0219   21.8222 C   0  0  0  0  0  0  0  0  0  0  0  0
   -6.7612   -9.0802   20.5092 H   0  0  0  0  0  0  0  0  0  0  0  0
   -3.1800   -3.0549   20.9677 C   0  0  0  0  0  0  0  0  0  0  0  0
   -2.4918   -2.9964   19.7454 C   0  0  0  0  0  0  0  0  0  0  0  0
   -1.1056   -2.8040   19.7080 C   0  0  0  0  0  0  0  0  0  0  0  0
   -0.3969   -2.6581   20.8934 C   0  0  0  0  0  0  0  0  0  0  0  0
    0.9525   -2.4688   20.8987 O   0  0  0  0  0  0  0  0  0  0  0  0
   -1.0507   -2.6964   22.1149 C   0  0  0  0  0  0  0  0  0  0  0  0
   -2.4327   -2.8893   22.1524 C   0  0  0  0  0  0  0  0  0  0  0  0
    1.4245   -2.4380   20.0898 H   0  0  0  0  0  0  0  0  0  0  0  0
   -5.4909   -2.4101   22.1631 C   0  0  0  0  0  0  0  0  0  0  0  0
   -6.9692   -1.6510   21.4457 Cl  0  0  0  0  0  0  0  0  0  0  0  0
   -6.1029   -3.4889   23.4935 Cl  0  0  0  0  0  0  0  0  0  0  0  0
   -4.5339   -1.1117   22.9597 Cl  0  0  0  0  0  0  0  0  0  0  0  0
  2  3  1  0
  3  4  2  0
  4  5  1  0
  5  6  2  0
  6  1  1  0
  1 10  1  0
 10 11  2  0
 11 12  1  0
 12 13  2  0
 13 14  1  0
 13 15  1  0
 15 16  2  0
  1 18  1  0
 18 19  1  0
 18 20  1  0
 18 21  1  0
  6  7  1  0
  7  8  2  0
  8  3  1  0
 16 10  1  0
  2  9  1  0
 14 17  1  0
M  END
> <minimizedAffinity>
-8.96014

> <CNNscore>
0.9769331813

> <CNNaffinity>
7.8446140289

> <CNN_VS>
7.6636638641

> <CNNaffinity_variance>
0.4938157499

$$$$



 21 22  0  0  0  0  0  0  0  0999 V2000
   -4.7289   -3.2584   21.1581 C   0  0  0  0  0  0  0  0  0  0  0  0
   -5.9949   -8.8188   21.0030 O   0  0  0  0  0  0  0  0  0  0  0  0
   -5.7122   -7.4856   21.0193 C   0  0  0  0  0  0  0  0  0  0  0  0
   -4.6430   -7.0600   21.7950 C   0  0  0  0  0  0  0  0  0  0  0  0
   -4.3164   -5.7032   21.8444 C   0  0  0  0  0  0  0  0  0  0  0  0
   -5.0615   -4.7590   21.1182 C   0  0  0  0  0  0  0  0  0  0  0  0
   -6.1359   -5.2177   20.3331 C   0  0  0  0  0  0  0  0  0  0  0  0
   -6.4625   -6.5756   20.2853 C   0  0  0  0  0  0  0  0  0  0  0  0
   -5.4750   -9.4142   21.5061 H   0  0  0  0  0  0  0  0  0  0  0  0
   -3.2053   -3.0310   21.1512 C   0  0  0  0  0  0  0  0  0  0  0  0
   -2.4280   -2.8795   22.3103 C   0  0  0  0  0  0  0  0  0  0  0  0
   -1.0435   -2.6885   22.2291 C   0  0  0  0  0  0  0  0  0  0  0  0
   -0.4229   -2.6574   20.9871 C   0  0  0  0  0  0  0  0  0  0  0  0
    0.9220   -2.4740   20.8664 O   0  0  0  0  0  0  0  0  0  0  0  0
   -1.1617   -2.8188   19.8256 C   0  0  0  0  0  0  0  0  0  0  0  0
   -2.5424   -3.0083   19.9064 C   0  0  0  0  0  0  0  0  0  0  0  0
    1.4501   -2.3618   21.6322 H   0  0  0  0  0  0  0  0  0  0  0  0
   -5.6148   -2.4330   22.1619 C   0  0  0  0  0  0  0  0  0  0  0  0
   -6.1533   -3.4546   23.5558 Cl  0  0  0  0  0  0  0  0  0  0  0  0
   -4.6482   -1.0819   22.9025 Cl  0  0  0  0  0  0  0  0  0  0  0  0
   -7.0755   -1.6753   21.4350 Cl  0  0  0  0  0  0  0  0  0  0  0  0
  2  3  1  0
  3  4  2  0
  4  5  1  0
  5  6  2  0
  6  1  1  0
  1 10  1  0
 10 11  2  0
 11 12  1  0
 12 13  2  0
 13 14  1  0
 13 15  1  0
 15 16  2  0
  1 18  1  0
 18 19  1  0
 18 20  1  0
 18 21  1  0
  6  7  1  0
  7  8  2  0
  8  3  1  0
 16 10  1  0
  2  9  1  0
 14 17  1  0
M  END
> <minimizedAffinity>
-8.92282

> <CNNscore>
0.9760417938

> <CNNaffinity>
7.8062720299

> <CNN_VS>
7.6192479134

> <CNNaffinity_variance>
0.4598143995

$$$$



 21 22  0  0  0  0  0  0  0  0999 V2000
   -5.0242   -3.6057   22.1290 C   0  0  0  0  0  0  0  0  0  0  0  0
    0.1658   -2.0556   20.3385 O   0  0  0  0  0  0  0  0  0  0  0  0
   -1.0827   -2.4280   20.7386 C   0  0  0  0  0  0  0  0  0  0  0  0
   -1.3701   -2.3765   22.0954 C   0  0  0  0  0  0  0  0  0  0  0  0
   -2.6354   -2.7501   22.5529 C   0  0  0  0  0  0  0  0  0  0  0  0
   -3.6246   -3.1825   21.6536 C   0  0  0  0  0  0  0  0  0  0  0  0
   -3.3101   -3.2181   20.2822 C   0  0  0  0  0  0  0  0  0  0  0  0
   -2.0432   -2.8450   19.8256 C   0  0  0  0  0  0  0  0  0  0  0  0
    0.7975   -1.7778   20.9723 H   0  0  0  0  0  0  0  0  0  0  0  0
   -5.5014   -4.8670   21.3845 C   0  0  0  0  0  0  0  0  0  0  0  0
   -6.3791   -5.8171   21.9304 C   0  0  0  0  0  0  0  0  0  0  0  0
   -6.7814   -6.9350   21.1900 C   0  0  0  0  0  0  0  0  0  0  0  0
   -6.3169   -7.1071   19.8926 C   0  0  0  0  0  0  0  0  0  0  0  0
   -6.6855   -8.1814   19.1398 O   0  0  0  0  0  0  0  0  0  0  0  0
   -5.4612   -6.1785   19.3212 C   0  0  0  0  0  0  0  0  0  0  0  0
   -5.0591   -5.0642   20.0598 C   0  0  0  0  0  0  0  0  0  0  0  0
   -7.2629   -8.8275   19.4965 H   0  0  0  0  0  0  0  0  0  0  0  0
   -6.0270   -2.4080   22.3129 C   0  0  0  0  0  0  0  0  0  0  0  0
   -5.8359   -1.1831   20.9941 Cl  0  0  0  0  0  0  0  0  0  0  0  0
   -7.7453   -2.9898   22.1821 Cl  0  0  0  0  0  0  0  0  0  0  0  0
   -5.8985   -1.5489   23.8883 Cl  0  0  0  0  0  0  0  0  0  0  0  0
  2  3  1  0
  3  4  2  0
  4  5  1  0
  5  6  2  0
  6  1  1  0
  1 10  1  0
 10 11  2  0
 11 12  1  0
 12 13  2  0
 13 14  1  0
 13 15  1  0
 15 16  2  0
  1 18  1  0
 18 19  1  0
 18 20  1  0
 18 21  1  0
  6  7  1  0
  7  8  2  0
  8  3  1  0
 16 10  1  0
  2  9  1  0
 14 17  1  0
M  END
> <minimizedAffinity>
-5.89241

> <CNNscore>
0.8936316371

> <CNNaffinity>
7.8527541161

> <CNN_VS>
7.0174694061

> <CNNaffinity_variance>
0.9408652186

$$$$



 21 22  0  0  0  0  0  0  0  0999 V2000
   -4.4324   -3.7122   20.9672 C   0  0  0  0  0  0  0  0  0  0  0  0
    1.1495   -2.5725   20.6703 O   0  0  0  0  0  0  0  0  0  0  0  0
   -0.1817   -2.8475   20.7701 C   0  0  0  0  0  0  0  0  0  0  0  0
   -0.8983   -3.0142   19.5933 C   0  0  0  0  0  0  0  0  0  0  0  0
   -2.2651   -3.2955   19.6455 C   0  0  0  0  0  0  0  0  0  0  0  0
   -2.9276   -3.4092   20.8792 C   0  0  0  0  0  0  0  0  0  0  0  0
   -2.1763   -3.2435   22.0579 C   0  0  0  0  0  0  0  0  0  0  0  0
   -0.8088   -2.9610   22.0045 C   0  0  0  0  0  0  0  0  0  0  0  0
    1.5511   -2.5005   19.8268 H   0  0  0  0  0  0  0  0  0  0  0  0
   -5.1490   -2.6894   21.8692 C   0  0  0  0  0  0  0  0  0  0  0  0
   -6.1665   -1.8289   21.4274 C   0  0  0  0  0  0  0  0  0  0  0  0
   -6.7835   -0.9319   22.3074 C   0  0  0  0  0  0  0  0  0  0  0  0
   -6.3948   -0.8950   23.6401 C   0  0  0  0  0  0  0  0  0  0  0  0
   -6.9713   -0.0365   24.5275 O   0  0  0  0  0  0  0  0  0  0  0  0
   -5.4035   -1.7426   24.1091 C   0  0  0  0  0  0  0  0  0  0  0  0
   -4.7874   -2.6364   23.2315 C   0  0  0  0  0  0  0  0  0  0  0  0
   -7.6445    0.5497   24.2425 H   0  0  0  0  0  0  0  0  0  0  0  0
   -4.7691   -5.2394   21.1354 C   0  0  0  0  0  0  0  0  0  0  0  0
   -3.3123   -6.1797   21.6549 Cl  0  0  0  0  0  0  0  0  0  0  0  0
   -5.9928   -5.4801   22.4594 Cl  0  0  0  0  0  0  0  0  0  0  0  0
   -5.4439   -6.0313   19.6679 Cl  0  0  0  0  0  0  0  0  0  0  0  0
  2  3  1  0
  3  4  2  0
  4  5  1  0
  5  6  2  0
  6  1  1  0
  1 10  1  0
 10 11  2  0
 11 12  1  0
 12 13  2  0
 13 14  1  0
 13 15  1  0
 15 16  2  0
  1 18  1  0
 18 19  1  0
 18 20  1  0
 18 21  1  0
  6  7  1  0
  7  8  2  0
  8  3  1  0
 16 10  1  0
  2  9  1  0
 14 17  1  0
M  END
> <minimizedAffinity>
-6.52365

> <CNNscore>
0.7381376028

> <CNNaffinity>
7.4671092033

> <CNN_VS>
5.5117540359

> <CNNaffinity_variance>
0.4985896051

$$$$



 21 22  0  0  0  0  0  0  0  0999 V2000
   -3.7573   -4.1779   21.8524 C   0  0  0  0  0  0  0  0  0  0  0  0
   -6.9360   -0.1231   24.3019 O   0  0  0  0  0  0  0  0  0  0  0  0
   -6.1915   -1.0883   23.6920 C   0  0  0  0  0  0  0  0  0  0  0  0
   -5.3007   -1.8098   24.4743 C   0  0  0  0  0  0  0  0  0  0  0  0
   -4.5154   -2.8075   23.8934 C   0  0  0  0  0  0  0  0  0  0  0  0
   -4.6135   -3.0894   22.5204 C   0  0  0  0  0  0  0  0  0  0  0  0
   -5.5302   -2.3487   21.7510 C   0  0  0  0  0  0  0  0  0  0  0  0
   -6.3149   -1.3497   22.3332 C   0  0  0  0  0  0  0  0  0  0  0  0
   -6.8358    0.0357   25.2199 H   0  0  0  0  0  0  0  0  0  0  0  0
   -2.7669   -3.5606   20.8469 C   0  0  0  0  0  0  0  0  0  0  0  0
   -2.8972   -3.6610   19.4527 C   0  0  0  0  0  0  0  0  0  0  0  0
   -1.9644   -3.0627   18.5973 C   0  0  0  0  0  0  0  0  0  0  0  0
   -0.8979   -2.3499   19.1295 C   0  0  0  0  0  0  0  0  0  0  0  0
    0.0306   -1.7531   18.3303 O   0  0  0  0  0  0  0  0  0  0  0  0
   -0.7508   -2.2208   20.5016 C   0  0  0  0  0  0  0  0  0  0  0  0
   -1.6804   -2.8181   21.3547 C   0  0  0  0  0  0  0  0  0  0  0  0
   -0.0401   -1.8214   17.3984 H   0  0  0  0  0  0  0  0  0  0  0  0
   -4.5658   -5.4597   21.4316 C   0  0  0  0  0  0  0  0  0  0  0  0
   -3.5252   -6.9397   21.4859 Cl  0  0  0  0  0  0  0  0  0  0  0  0
   -5.9144   -5.7778   22.6099 Cl  0  0  0  0  0  0  0  0  0  0  0  0
   -5.3227   -5.3756   19.8018 Cl  0  0  0  0  0  0  0  0  0  0  0  0
  2  3  1  0
  3  4  2  0
  4  5  1  0
  5  6  2  0
  6  1  1  0
  1 10  1  0
 10 11  2  0
 11 12  1  0
 12 13  2  0
 13 14  1  0
 13 15  1  0
 15 16  2  0
  1 18  1  0
 18 19  1  0
 18 20  1  0
 18 21  1  0
  6  7  1  0
  7  8  2  0
  8  3  1  0
 16 10  1  0
  2  9  1  0
 14 17  1  0
M  END
> <minimizedAffinity>
-6.93919

> <CNNscore>
0.7085568905

> <CNNaffinity>
7.5990557671

> <CNN_VS>
5.3843631744

> <CNNaffinity_variance>
0.4554115236

$$$$



 21 22  0  0  0  0  0  0  0  0999 V2000
   -5.4326   -4.9555   21.0840 C   0  0  0  0  0  0  0  0  0  0  0  0
   -0.4410   -2.6021   19.6380 O   0  0  0  0  0  0  0  0  0  0  0  0
   -1.6207   -3.1771   20.0061 C   0  0  0  0  0  0  0  0  0  0  0  0
   -2.7033   -3.0396   19.1488 C   0  0  0  0  0  0  0  0  0  0  0  0
   -3.9329   -3.6101   19.4844 C   0  0  0  0  0  0  0  0  0  0  0  0
   -4.0895   -4.3220   20.6855 C   0  0  0  0  0  0  0  0  0  0  0  0
   -2.9739   -4.4536   21.5336 C   0  0  0  0  0  0  0  0  0  0  0  0
   -1.7442   -3.8813   21.1972 C   0  0  0  0  0  0  0  0  0  0  0  0
   -0.3812   -2.1318   18.8298 H   0  0  0  0  0  0  0  0  0  0  0  0
   -5.9102   -4.4233   22.4484 C   0  0  0  0  0  0  0  0  0  0  0  0
   -6.2942   -3.0934   22.6825 C   0  0  0  0  0  0  0  0  0  0  0  0
   -6.7310   -2.6820   23.9474 C   0  0  0  0  0  0  0  0  0  0  0  0
   -6.7970   -3.6004   24.9871 C   0  0  0  0  0  0  0  0  0  0  0  0
   -7.2170   -3.2391   26.2320 O   0  0  0  0  0  0  0  0  0  0  0  0
   -6.4387   -4.9236   24.7827 C   0  0  0  0  0  0  0  0  0  0  0  0
   -6.0022   -5.3337   23.5218 C   0  0  0  0  0  0  0  0  0  0  0  0
   -7.4665   -2.3523   26.4033 H   0  0  0  0  0  0  0  0  0  0  0  0
   -5.5216   -6.4997   20.7984 C   0  0  0  0  0  0  0  0  0  0  0  0
   -7.2178   -7.1046   20.9805 Cl  0  0  0  0  0  0  0  0  0  0  0  0
   -5.0676   -6.8560   19.0735 Cl  0  0  0  0  0  0  0  0  0  0  0  0
   -4.4568   -7.5218   21.8270 Cl  0  0  0  0  0  0  0  0  0  0  0  0
  2  3  1  0
  3  4  2  0
  4  5  1  0
  5  6  2  0
  6  1  1  0
  1 10  1  0
 10 11  2  0
 11 12  1  0
 12 13  2  0
 13 14  1  0
 13 15  1  0
 15 16  2  0
  1 18  1  0
 18 19  1  0
 18 20  1  0
 18 21  1  0
  6  7  1  0
  7  8  2  0
  8  3  1  0
 16 10  1  0
  2  9  1  0
 14 17  1  0
M  END
> <minimizedAffinity>
-6.14248

> <CNNscore>
0.4474868178

> <CNNaffinity>
7.0433769226

> <CNN_VS>
3.1518182755

> <CNNaffinity_variance>
0.3497819602

$$$$
