


 28 31  0  0  0  0  0  0  0  0999 V2000
   14.7009    7.7052  -34.9218 C   0  0  0  0  0  0  0  0  0  0  0  0
   14.9050    8.7844  -35.7643 C   0  0  0  0  0  0  0  0  0  0  0  0
   16.2621    8.9835  -35.8663 N   0  0  0  0  0  0  0  0  0  0  0  0
   16.9420    8.0927  -35.1100 N   0  0  0  0  0  0  0  0  0  0  0  0
   16.0172    7.2955  -34.5627 C   0  0  0  0  0  0  0  0  0  0  0  0
   10.3678    8.6924  -35.1656 O   0  0  0  0  0  0  0  0  0  0  0  0
   11.3359    7.9570  -35.1145 C   0  0  0  0  0  0  0  0  0  0  0  0
   11.5288    6.8378  -35.8487 N   0  0  0  0  0  0  0  0  0  0  0  0
   12.7300    6.2679  -35.5538 C   0  0  0  0  0  0  0  0  0  0  0  0
   13.1670    5.2534  -36.0770 O   0  0  0  0  0  0  0  0  0  0  0  0
   13.4148    7.1103  -34.4727 C   0  0  0  0  0  0  0  0  0  0  0  0
   12.4218    8.1393  -34.2965 N   0  0  0  0  0  0  0  0  0  0  0  0
   10.8882    6.4832  -36.5068 H   0  0  0  0  0  0  0  0  0  0  0  0
   12.5122    8.8868  -33.6622 H   0  0  0  0  0  0  0  0  0  0  0  0
   16.9523    9.9722  -36.6245 C   0  0  0  0  0  0  0  0  0  0  0  0
   18.2708   10.3117  -36.2744 C   0  0  0  0  0  0  0  0  0  0  0  0
   18.9706   11.2766  -37.0050 C   0  0  0  0  0  0  0  0  0  0  0  0
   18.3567   11.9066  -38.0842 C   0  0  0  0  0  0  0  0  0  0  0  0
   19.2158   13.0955  -38.9834 Cl  0  0  0  0  0  0  0  0  0  0  0  0
   17.0486   11.5799  -38.4403 C   0  0  0  0  0  0  0  0  0  0  0  0
   16.3437   10.6123  -37.7144 C   0  0  0  0  0  0  0  0  0  0  0  0
   16.4221    6.1976  -33.6900 C   0  0  0  0  0  0  0  0  0  0  0  0
   17.4329    6.4015  -32.7381 C   0  0  0  0  0  0  0  0  0  0  0  0
   17.8260    5.3614  -31.8935 C   0  0  0  0  0  0  0  0  0  0  0  0
   17.2137    4.1188  -32.0074 C   0  0  0  0  0  0  0  0  0  0  0  0
   17.5913    3.1197  -31.1994 F   0  0  0  0  0  0  0  0  0  0  0  0
   16.2211    3.8948  -32.9536 C   0  0  0  0  0  0  0  0  0  0  0  0
   15.8253    4.9336  -33.7999 C   0  0  0  0  0  0  0  0  0  0  0  0
  6  7  2  0
  7  8  1  0
  8  9  1  0
  9 10  2  0
  9 11  1  0
 11  1  1  0
  1  2  2  0
  2  3  1  0
  3 15  1  0
 15 16  2  0
 16 17  1  0
 17 18  2  0
 18 19  1  0
 18 20  1  0
 20 21  2  0
  3  4  1  0
  4  5  2  0
  5 22  1  0
 22 23  2  0
 23 24  1  0
 24 25  2  0
 25 26  1  0
 25 27  1  0
 27 28  2  0
 11 12  1  0
 12  7  1  0
  5  1  1  0
 28 22  1  0
 21 15  1  0
  8 13  1  0
 12 14  1  0
M  END
> <minimizedAffinity>
-9.11995

> <CNNscore>
0.8744909167

> <CNNaffinity>
6.9044661522

> <CNN_VS>
6.0378928185

> <CNNaffinity_variance>
0.0114399185

$$$$



 28 31  0  0  0  0  0  0  0  0999 V2000
   11.3865   10.0494  -34.9551 C   0  0  0  0  0  0  0  0  0  0  0  0
   12.7010    9.8090  -34.5939 C   0  0  0  0  0  0  0  0  0  0  0  0
   12.9212    8.4552  -34.6967 N   0  0  0  0  0  0  0  0  0  0  0  0
   11.8002    7.8091  -35.0887 N   0  0  0  0  0  0  0  0  0  0  0  0
   10.8779    8.7593  -35.2811 C   0  0  0  0  0  0  0  0  0  0  0  0
    7.8573   11.8710  -32.9459 O   0  0  0  0  0  0  0  0  0  0  0  0
    8.9510   11.8699  -33.4792 C   0  0  0  0  0  0  0  0  0  0  0  0
   10.0393   12.5621  -33.0722 N   0  0  0  0  0  0  0  0  0  0  0  0
   11.1019   12.3139  -33.8869 C   0  0  0  0  0  0  0  0  0  0  0  0
   12.2158   12.7968  -33.7456 O   0  0  0  0  0  0  0  0  0  0  0  0
   10.6556   11.3434  -34.9852 C   0  0  0  0  0  0  0  0  0  0  0  0
    9.2807   11.1509  -34.5999 N   0  0  0  0  0  0  0  0  0  0  0  0
   10.0604   13.1635  -32.2931 H   0  0  0  0  0  0  0  0  0  0  0  0
    8.6506   10.5703  -35.0849 H   0  0  0  0  0  0  0  0  0  0  0  0
   14.1223    7.7362  -34.4342 C   0  0  0  0  0  0  0  0  0  0  0  0
   15.3061    8.4469  -34.1698 C   0  0  0  0  0  0  0  0  0  0  0  0
   16.4972    7.7642  -33.9059 C   0  0  0  0  0  0  0  0  0  0  0  0
   16.5112    6.3719  -33.9074 C   0  0  0  0  0  0  0  0  0  0  0  0
   17.9764    5.5301  -33.5844 Cl  0  0  0  0  0  0  0  0  0  0  0  0
   15.3439    5.6556  -34.1700 C   0  0  0  0  0  0  0  0  0  0  0  0
   14.1474    6.3335  -34.4321 C   0  0  0  0  0  0  0  0  0  0  0  0
    9.5379    8.3969  -35.7325 C   0  0  0  0  0  0  0  0  0  0  0  0
    8.7111    7.6205  -34.9060 C   0  0  0  0  0  0  0  0  0  0  0  0
    7.4252    7.2714  -35.3234 C   0  0  0  0  0  0  0  0  0  0  0  0
    6.9718    7.6924  -36.5680 C   0  0  0  0  0  0  0  0  0  0  0  0
    5.7394    7.3564  -36.9705 F   0  0  0  0  0  0  0  0  0  0  0  0
    7.7817    8.4497  -37.4055 C   0  0  0  0  0  0  0  0  0  0  0  0
    9.0687    8.8009  -36.9905 C   0  0  0  0  0  0  0  0  0  0  0  0
  6  7  2  0
  7  8  1  0
  8  9  1  0
  9 10  2  0
  9 11  1  0
 11  1  1  0
  1  2  2  0
  2  3  1  0
  3 15  1  0
 15 16  2  0
 16 17  1  0
 17 18  2  0
 18 19  1  0
 18 20  1  0
 20 21  2  0
  3  4  1  0
  4  5  2  0
  5 22  1  0
 22 23  2  0
 23 24  1  0
 24 25  2  0
 25 26  1  0
 25 27  1  0
 27 28  2  0
 11 12  1  0
 12  7  1  0
  5  1  1  0
 28 22  1  0
 21 15  1  0
  8 13  1  0
 12 14  1  0
M  END
> <minimizedAffinity>
-8.30902

> <CNNscore>
0.7259333730

> <CNNaffinity>
6.1146016121

> <CNN_VS>
4.4387931824

> <CNNaffinity_variance>
0.0241559986

$$$$



 28 31  0  0  0  0  0  0  0  0999 V2000
   13.8198    9.2222  -35.5300 C   0  0  0  0  0  0  0  0  0  0  0  0
   13.9834    8.2236  -34.5855 C   0  0  0  0  0  0  0  0  0  0  0  0
   15.2789    7.7703  -34.6775 N   0  0  0  0  0  0  0  0  0  0  0  0
   15.9522    8.4188  -35.6541 N   0  0  0  0  0  0  0  0  0  0  0  0
   15.0972    9.3191  -36.1529 C   0  0  0  0  0  0  0  0  0  0  0  0
    9.5029    8.4235  -36.2627 O   0  0  0  0  0  0  0  0  0  0  0  0
   10.4616    9.0681  -35.8806 C   0  0  0  0  0  0  0  0  0  0  0  0
   10.5442    9.7705  -34.7278 N   0  0  0  0  0  0  0  0  0  0  0  0
   11.7678   10.3554  -34.6054 C   0  0  0  0  0  0  0  0  0  0  0  0
   12.1213   11.0392  -33.6559 O   0  0  0  0  0  0  0  0  0  0  0  0
   12.5983   10.0084  -35.8452 C   0  0  0  0  0  0  0  0  0  0  0  0
   11.6480    9.1928  -36.5578 N   0  0  0  0  0  0  0  0  0  0  0  0
    9.8185    9.8483  -34.0671 H   0  0  0  0  0  0  0  0  0  0  0  0
   11.8292    8.7735  -37.4299 H   0  0  0  0  0  0  0  0  0  0  0  0
   15.9125    6.7536  -33.9072 C   0  0  0  0  0  0  0  0  0  0  0  0
   17.1885    6.9931  -33.3680 C   0  0  0  0  0  0  0  0  0  0  0  0
   17.8299    6.0124  -32.6057 C   0  0  0  0  0  0  0  0  0  0  0  0
   17.2018    4.7901  -32.3815 C   0  0  0  0  0  0  0  0  0  0  0  0
   17.9904    3.5814  -31.4450 Cl  0  0  0  0  0  0  0  0  0  0  0  0
   15.9369    4.5398  -32.9125 C   0  0  0  0  0  0  0  0  0  0  0  0
   15.2882    5.5190  -33.6742 C   0  0  0  0  0  0  0  0  0  0  0  0
   15.5198   10.2113  -37.2283 C   0  0  0  0  0  0  0  0  0  0  0  0
   16.8851   10.4739  -37.4189 C   0  0  0  0  0  0  0  0  0  0  0  0
   17.3033   11.3211  -38.4470 C   0  0  0  0  0  0  0  0  0  0  0  0
   16.3561   11.9093  -39.2769 C   0  0  0  0  0  0  0  0  0  0  0  0
   16.7556   12.7239  -40.2621 F   0  0  0  0  0  0  0  0  0  0  0  0
   14.9992   11.6720  -39.0941 C   0  0  0  0  0  0  0  0  0  0  0  0
   14.5778   10.8245  -38.0664 C   0  0  0  0  0  0  0  0  0  0  0  0
  6  7  2  0
  7  8  1  0
  8  9  1  0
  9 10  2  0
  9 11  1  0
 11  1  1  0
  1  2  2  0
  2  3  1  0
  3 15  1  0
 15 16  2  0
 16 17  1  0
 17 18  2  0
 18 19  1  0
 18 20  1  0
 20 21  2  0
  3  4  1  0
  4  5  2  0
  5 22  1  0
 22 23  2  0
 23 24  1  0
 24 25  2  0
 25 26  1  0
 25 27  1  0
 27 28  2  0
 11 12  1  0
 12  7  1  0
  5  1  1  0
 28 22  1  0
 21 15  1  0
  8 13  1  0
 12 14  1  0
M  END
> <minimizedAffinity>
-7.93174

> <CNNscore>
0.5909463167

> <CNNaffinity>
6.1261553764

> <CNN_VS>
3.6202290058

> <CNNaffinity_variance>
0.0206556004

$$$$



 28 31  0  0  0  0  0  0  0  0999 V2000
   12.5166    8.8228  -35.7854 C   0  0  0  0  0  0  0  0  0  0  0  0
   13.0030    7.8336  -34.9482 C   0  0  0  0  0  0  0  0  0  0  0  0
   14.3751    7.9300  -34.9414 N   0  0  0  0  0  0  0  0  0  0  0  0
   14.7962    8.9252  -35.7539 N   0  0  0  0  0  0  0  0  0  0  0  0
   13.6875    9.4934  -36.2421 C   0  0  0  0  0  0  0  0  0  0  0  0
    8.5184    6.9565  -35.2011 O   0  0  0  0  0  0  0  0  0  0  0  0
    9.3029    7.8766  -35.3374 C   0  0  0  0  0  0  0  0  0  0  0  0
    9.3048    9.0351  -34.6396 N   0  0  0  0  0  0  0  0  0  0  0  0
   10.3345    9.8343  -35.0335 C   0  0  0  0  0  0  0  0  0  0  0  0
   10.5820   10.9347  -34.5625 O   0  0  0  0  0  0  0  0  0  0  0  0
   11.1057    9.1192  -36.1476 C   0  0  0  0  0  0  0  0  0  0  0  0
   10.3434    7.8994  -36.2309 N   0  0  0  0  0  0  0  0  0  0  0  0
    8.6507    9.2688  -33.9419 H   0  0  0  0  0  0  0  0  0  0  0  0
   10.5459    7.1670  -36.8568 H   0  0  0  0  0  0  0  0  0  0  0  0
   15.3103    7.1303  -34.2241 C   0  0  0  0  0  0  0  0  0  0  0  0
   16.5058    7.7121  -33.7673 C   0  0  0  0  0  0  0  0  0  0  0  0
   17.4380    6.9491  -33.0581 C   0  0  0  0  0  0  0  0  0  0  0  0
   17.1817    5.6041  -32.8050 C   0  0  0  0  0  0  0  0  0  0  0  0
   18.3286    4.6631  -31.9337 Cl  0  0  0  0  0  0  0  0  0  0  0  0
   16.0003    5.0150  -33.2543 C   0  0  0  0  0  0  0  0  0  0  0  0
   15.0615    5.7746  -33.9624 C   0  0  0  0  0  0  0  0  0  0  0  0
   13.7885   10.6295  -37.1531 C   0  0  0  0  0  0  0  0  0  0  0  0
   12.7216   11.5352  -37.2573 C   0  0  0  0  0  0  0  0  0  0  0  0
   12.8073   12.6291  -38.1208 C   0  0  0  0  0  0  0  0  0  0  0  0
   13.9552   12.8109  -38.8832 C   0  0  0  0  0  0  0  0  0  0  0  0
   14.0378   13.8585  -39.7135 F   0  0  0  0  0  0  0  0  0  0  0  0
   15.0156   11.9164  -38.8035 C   0  0  0  0  0  0  0  0  0  0  0  0
   14.9329   10.8211  -37.9401 C   0  0  0  0  0  0  0  0  0  0  0  0
  6  7  2  0
  7  8  1  0
  8  9  1  0
  9 10  2  0
  9 11  1  0
 11  1  1  0
  1  2  2  0
  2  3  1  0
  3 15  1  0
 15 16  2  0
 16 17  1  0
 17 18  2  0
 18 19  1  0
 18 20  1  0
 20 21  2  0
  3  4  1  0
  4  5  2  0
  5 22  1  0
 22 23  2  0
 23 24  1  0
 24 25  2  0
 25 26  1  0
 25 27  1  0
 27 28  2  0
 11 12  1  0
 12  7  1  0
  5  1  1  0
 28 22  1  0
 21 15  1  0
  8 13  1  0
 12 14  1  0
M  END
> <minimizedAffinity>
-7.68141

> <CNNscore>
0.5269515514

> <CNNaffinity>
5.9174423218

> <CNN_VS>
3.1182053089

> <CNNaffinity_variance>
0.0566924326

$$$$



 28 31  0  0  0  0  0  0  0  0999 V2000
   11.6112    8.5399  -35.7631 C   0  0  0  0  0  0  0  0  0  0  0  0
   12.3599    7.6045  -35.0698 C   0  0  0  0  0  0  0  0  0  0  0  0
   13.6518    8.0715  -35.0014 N   0  0  0  0  0  0  0  0  0  0  0  0
   13.7738    9.2578  -35.6383 N   0  0  0  0  0  0  0  0  0  0  0  0
   12.5468    9.5687  -36.0721 C   0  0  0  0  0  0  0  0  0  0  0  0
    7.9506    6.4279  -34.3667 O   0  0  0  0  0  0  0  0  0  0  0  0
    8.5834    7.3501  -34.8460 C   0  0  0  0  0  0  0  0  0  0  0  0
    8.4095    8.6639  -34.5765 N   0  0  0  0  0  0  0  0  0  0  0  0
    9.3023    9.4217  -35.2716 C   0  0  0  0  0  0  0  0  0  0  0  0
    9.3791   10.6400  -35.2096 O   0  0  0  0  0  0  0  0  0  0  0  0
   10.1701    8.4902  -36.1240 C   0  0  0  0  0  0  0  0  0  0  0  0
    9.6045    7.2182  -35.7525 N   0  0  0  0  0  0  0  0  0  0  0  0
    7.7300    9.0235  -33.9615 H   0  0  0  0  0  0  0  0  0  0  0  0
    9.9149    6.3543  -36.1081 H   0  0  0  0  0  0  0  0  0  0  0  0
   14.7782    7.4577  -34.3825 C   0  0  0  0  0  0  0  0  0  0  0  0
   14.7151    6.0976  -34.0327 C   0  0  0  0  0  0  0  0  0  0  0  0
   15.8086    5.4714  -33.4273 C   0  0  0  0  0  0  0  0  0  0  0  0
   16.9660    6.2002  -33.1671 C   0  0  0  0  0  0  0  0  0  0  0  0
   18.3121    5.4316  -32.4205 Cl  0  0  0  0  0  0  0  0  0  0  0  0
   17.0403    7.5505  -33.5077 C   0  0  0  0  0  0  0  0  0  0  0  0
   15.9498    8.1824  -34.1169 C   0  0  0  0  0  0  0  0  0  0  0  0
   12.3213   10.8162  -36.7958 C   0  0  0  0  0  0  0  0  0  0  0  0
   12.0082   10.7808  -38.1633 C   0  0  0  0  0  0  0  0  0  0  0  0
   11.7849   11.9664  -38.8663 C   0  0  0  0  0  0  0  0  0  0  0  0
   11.8824   13.1840  -38.2030 C   0  0  0  0  0  0  0  0  0  0  0  0
   11.6706   14.3221  -38.8765 F   0  0  0  0  0  0  0  0  0  0  0  0
   12.2053   13.2388  -36.8526 C   0  0  0  0  0  0  0  0  0  0  0  0
   12.4290   12.0542  -36.1465 C   0  0  0  0  0  0  0  0  0  0  0  0
  6  7  2  0
  7  8  1  0
  8  9  1  0
  9 10  2  0
  9 11  1  0
 11  1  1  0
  1  2  2  0
  2  3  1  0
  3 15  1  0
 15 16  2  0
 16 17  1  0
 17 18  2  0
 18 19  1  0
 18 20  1  0
 20 21  2  0
  3  4  1  0
  4  5  2  0
  5 22  1  0
 22 23  2  0
 23 24  1  0
 24 25  2  0
 25 26  1  0
 25 27  1  0
 27 28  2  0
 11 12  1  0
 12  7  1  0
  5  1  1  0
 28 22  1  0
 21 15  1  0
  8 13  1  0
 12 14  1  0
M  END
> <minimizedAffinity>
-7.85552

> <CNNscore>
0.4516739547

> <CNNaffinity>
5.8907814026

> <CNN_VS>
2.6607124805

> <CNNaffinity_variance>
0.0560670085

$$$$



 28 31  0  0  0  0  0  0  0  0999 V2000
   16.9739   10.8876  -37.2289 C   0  0  0  0  0  0  0  0  0  0  0  0
   17.3483    9.9664  -36.2659 C   0  0  0  0  0  0  0  0  0  0  0  0
   16.2820    9.1227  -36.0583 N   0  0  0  0  0  0  0  0  0  0  0  0
   15.2286    9.4722  -36.8305 N   0  0  0  0  0  0  0  0  0  0  0  0
   15.6417   10.5114  -37.5651 C   0  0  0  0  0  0  0  0  0  0  0  0
   18.0981   15.0126  -35.9920 O   0  0  0  0  0  0  0  0  0  0  0  0
   18.2518   13.9420  -36.5493 C   0  0  0  0  0  0  0  0  0  0  0  0
   19.3910   13.2139  -36.5811 N   0  0  0  0  0  0  0  0  0  0  0  0
   19.2055   12.0571  -37.2752 C   0  0  0  0  0  0  0  0  0  0  0  0
   20.0639   11.2050  -37.4513 O   0  0  0  0  0  0  0  0  0  0  0  0
   17.7602   12.0213  -37.7822 C   0  0  0  0  0  0  0  0  0  0  0  0
   17.2809   13.2707  -37.2482 N   0  0  0  0  0  0  0  0  0  0  0  0
   20.2390   13.4835  -36.1599 H   0  0  0  0  0  0  0  0  0  0  0  0
   16.3627   13.6041  -37.3708 H   0  0  0  0  0  0  0  0  0  0  0  0
   16.1955    8.0164  -35.1656 C   0  0  0  0  0  0  0  0  0  0  0  0
   17.3690    7.5134  -34.5771 C   0  0  0  0  0  0  0  0  0  0  0  0
   17.3101    6.4306  -33.6950 C   0  0  0  0  0  0  0  0  0  0  0  0
   16.0817    5.8453  -33.3996 C   0  0  0  0  0  0  0  0  0  0  0  0
   16.0075    4.5114  -32.3155 Cl  0  0  0  0  0  0  0  0  0  0  0  0
   14.9108    6.3338  -33.9783 C   0  0  0  0  0  0  0  0  0  0  0  0
   14.9630    7.4199  -34.8601 C   0  0  0  0  0  0  0  0  0  0  0  0
   14.7387   11.1282  -38.5322 C   0  0  0  0  0  0  0  0  0  0  0  0
   14.8716   10.8302  -39.8970 C   0  0  0  0  0  0  0  0  0  0  0  0
   14.0110   11.4091  -40.8320 C   0  0  0  0  0  0  0  0  0  0  0  0
   13.0253   12.2895  -40.4017 C   0  0  0  0  0  0  0  0  0  0  0  0
   12.2007   12.8471  -41.2976 F   0  0  0  0  0  0  0  0  0  0  0  0
   12.8882   12.6071  -39.0559 C   0  0  0  0  0  0  0  0  0  0  0  0
   13.7476   12.0292  -38.1180 C   0  0  0  0  0  0  0  0  0  0  0  0
  6  7  2  0
  7  8  1  0
  8  9  1  0
  9 10  2  0
  9 11  1  0
 11  1  1  0
  1  2  2  0
  2  3  1  0
  3 15  1  0
 15 16  2  0
 16 17  1  0
 17 18  2  0
 18 19  1  0
 18 20  1  0
 20 21  2  0
  3  4  1  0
  4  5  2  0
  5 22  1  0
 22 23  2  0
 23 24  1  0
 24 25  2  0
 25 26  1  0
 25 27  1  0
 27 28  2  0
 11 12  1  0
 12  7  1  0
  5  1  1  0
 28 22  1  0
 21 15  1  0
  8 13  1  0
 12 14  1  0
M  END
> <minimizedAffinity>
-5.86988

> <CNNscore>
0.4365716577

> <CNNaffinity>
5.6983742714

> <CNN_VS>
2.4877486229

> <CNNaffinity_variance>
0.0060626403

$$$$



 28 31  0  0  0  0  0  0  0  0999 V2000
   10.8998   11.2026  -35.2200 C   0  0  0  0  0  0  0  0  0  0  0  0
   12.1481   10.6123  -35.1227 C   0  0  0  0  0  0  0  0  0  0  0  0
   11.9677    9.2489  -35.1418 N   0  0  0  0  0  0  0  0  0  0  0  0
   10.6558    8.9336  -35.2264 N   0  0  0  0  0  0  0  0  0  0  0  0
   10.0035   10.0990  -35.3087 C   0  0  0  0  0  0  0  0  0  0  0  0
    8.1236   13.9098  -33.0352 O   0  0  0  0  0  0  0  0  0  0  0  0
    9.1448   13.6113  -33.6255 C   0  0  0  0  0  0  0  0  0  0  0  0
   10.4019   13.9705  -33.2797 N   0  0  0  0  0  0  0  0  0  0  0  0
   11.3102   13.4460  -34.1482 C   0  0  0  0  0  0  0  0  0  0  0  0
   12.5201   13.5998  -34.0681 O   0  0  0  0  0  0  0  0  0  0  0  0
   10.5558   12.6487  -35.2171 C   0  0  0  0  0  0  0  0  0  0  0  0
    9.2034   12.8407  -34.7589 N   0  0  0  0  0  0  0  0  0  0  0  0
   10.6295   14.5344  -32.5054 H   0  0  0  0  0  0  0  0  0  0  0  0
    8.4128   12.4626  -35.2074 H   0  0  0  0  0  0  0  0  0  0  0  0
   12.9591    8.2286  -35.0716 C   0  0  0  0  0  0  0  0  0  0  0  0
   14.2381    8.5443  -34.5810 C   0  0  0  0  0  0  0  0  0  0  0  0
   15.2273    7.5599  -34.4990 C   0  0  0  0  0  0  0  0  0  0  0  0
   14.9442    6.2595  -34.9083 C   0  0  0  0  0  0  0  0  0  0  0  0
   16.1608    5.0469  -34.8097 Cl  0  0  0  0  0  0  0  0  0  0  0  0
   13.6799    5.9341  -35.3984 C   0  0  0  0  0  0  0  0  0  0  0  0
   12.6843    6.9149  -35.4801 C   0  0  0  0  0  0  0  0  0  0  0  0
    8.5490   10.1158  -35.4318 C   0  0  0  0  0  0  0  0  0  0  0  0
    7.9589   10.2135  -36.7013 C   0  0  0  0  0  0  0  0  0  0  0  0
    6.5689   10.2252  -36.8335 C   0  0  0  0  0  0  0  0  0  0  0  0
    5.7727   10.1468  -35.6970 C   0  0  0  0  0  0  0  0  0  0  0  0
    4.4393   10.1601  -35.8222 F   0  0  0  0  0  0  0  0  0  0  0  0
    6.3396   10.0638  -34.4311 C   0  0  0  0  0  0  0  0  0  0  0  0
    7.7301   10.0516  -34.2955 C   0  0  0  0  0  0  0  0  0  0  0  0
  6  7  2  0
  7  8  1  0
  8  9  1  0
  9 10  2  0
  9 11  1  0
 11  1  1  0
  1  2  2  0
  2  3  1  0
  3 15  1  0
 15 16  2  0
 16 17  1  0
 17 18  2  0
 18 19  1  0
 18 20  1  0
 20 21  2  0
  3  4  1  0
  4  5  2  0
  5 22  1  0
 22 23  2  0
 23 24  1  0
 24 25  2  0
 25 26  1  0
 25 27  1  0
 27 28  2  0
 11 12  1  0
 12  7  1  0
  5  1  1  0
 28 22  1  0
 21 15  1  0
  8 13  1  0
 12 14  1  0
M  END
> <minimizedAffinity>
-7.26891

> <CNNscore>
0.4301240444

> <CNNaffinity>
5.6152157784

> <CNN_VS>
2.4152393341

> <CNNaffinity_variance>
0.0934863985

$$$$



 28 31  0  0  0  0  0  0  0  0999 V2000
   13.3772    9.7622  -36.1923 C   0  0  0  0  0  0  0  0  0  0  0  0
   14.5790    9.1658  -35.8514 C   0  0  0  0  0  0  0  0  0  0  0  0
   14.3119    8.1933  -34.9161 N   0  0  0  0  0  0  0  0  0  0  0  0
   12.9927    8.1501  -34.6234 N   0  0  0  0  0  0  0  0  0  0  0  0
   12.4130    9.0653  -35.4088 C   0  0  0  0  0  0  0  0  0  0  0  0
   10.1751   11.0391  -39.0075 O   0  0  0  0  0  0  0  0  0  0  0  0
   11.0903   11.2019  -38.2225 C   0  0  0  0  0  0  0  0  0  0  0  0
   11.1431   12.1267  -37.2371 N   0  0  0  0  0  0  0  0  0  0  0  0
   12.3034   12.0163  -36.5328 C   0  0  0  0  0  0  0  0  0  0  0  0
   12.6091   12.7174  -35.5795 O   0  0  0  0  0  0  0  0  0  0  0  0
   13.1340   10.8811  -37.1401 C   0  0  0  0  0  0  0  0  0  0  0  0
   12.2444   10.4610  -38.1928 N   0  0  0  0  0  0  0  0  0  0  0  0
   10.4386   12.7896  -37.0539 H   0  0  0  0  0  0  0  0  0  0  0  0
   12.4421    9.7271  -38.8186 H   0  0  0  0  0  0  0  0  0  0  0  0
   15.2297    7.3132  -34.2744 C   0  0  0  0  0  0  0  0  0  0  0  0
   16.4518    7.8202  -33.7994 C   0  0  0  0  0  0  0  0  0  0  0  0
   17.3679    6.9775  -33.1631 C   0  0  0  0  0  0  0  0  0  0  0  0
   17.0687    5.6273  -33.0013 C   0  0  0  0  0  0  0  0  0  0  0  0
   18.1956    4.5883  -32.2199 Cl  0  0  0  0  0  0  0  0  0  0  0  0
   15.8605    5.1120  -33.4697 C   0  0  0  0  0  0  0  0  0  0  0  0
   14.9378    5.9515  -34.1050 C   0  0  0  0  0  0  0  0  0  0  0  0
   10.9679    9.2650  -35.3552 C   0  0  0  0  0  0  0  0  0  0  0  0
   10.4308   10.2359  -34.4960 C   0  0  0  0  0  0  0  0  0  0  0  0
    9.0508   10.4408  -34.4389 C   0  0  0  0  0  0  0  0  0  0  0  0
    8.2111    9.6704  -35.2346 C   0  0  0  0  0  0  0  0  0  0  0  0
    6.8870    9.8644  -35.1793 F   0  0  0  0  0  0  0  0  0  0  0  0
    8.7242    8.6949  -36.0807 C   0  0  0  0  0  0  0  0  0  0  0  0
   10.1046    8.4877  -36.1403 C   0  0  0  0  0  0  0  0  0  0  0  0
  6  7  2  0
  7  8  1  0
  8  9  1  0
  9 10  2  0
  9 11  1  0
 11  1  1  0
  1  2  2  0
  2  3  1  0
  3 15  1  0
 15 16  2  0
 16 17  1  0
 17 18  2  0
 18 19  1  0
 18 20  1  0
 20 21  2  0
  3  4  1  0
  4  5  2  0
  5 22  1  0
 22 23  2  0
 23 24  1  0
 24 25  2  0
 25 26  1  0
 25 27  1  0
 27 28  2  0
 11 12  1  0
 12  7  1  0
  5  1  1  0
 28 22  1  0
 21 15  1  0
  8 13  1  0
 12 14  1  0
M  END
> <minimizedAffinity>
-7.61362

> <CNNscore>
0.3922297955

> <CNNaffinity>
5.5107159615

> <CNN_VS>
2.1614670753

> <CNNaffinity_variance>
0.1638265103

$$$$



 28 31  0  0  0  0  0  0  0  0999 V2000
   17.4660   10.9880  -37.2284 C   0  0  0  0  0  0  0  0  0  0  0  0
   17.7286   10.0806  -36.2166 C   0  0  0  0  0  0  0  0  0  0  0  0
   16.6117    9.2928  -36.0623 N   0  0  0  0  0  0  0  0  0  0  0  0
   15.6324    9.6658  -36.9164 N   0  0  0  0  0  0  0  0  0  0  0  0
   16.1442   10.6624  -37.6479 C   0  0  0  0  0  0  0  0  0  0  0  0
   18.0518   13.1543  -41.0722 O   0  0  0  0  0  0  0  0  0  0  0  0
   18.0403   13.0272  -39.8621 C   0  0  0  0  0  0  0  0  0  0  0  0
   17.5693   13.9266  -38.9685 N   0  0  0  0  0  0  0  0  0  0  0  0
   17.6913   13.4536  -37.6974 C   0  0  0  0  0  0  0  0  0  0  0  0
   17.3347   14.0532  -36.6938 O   0  0  0  0  0  0  0  0  0  0  0  0
   18.3416   12.0676  -37.7552 C   0  0  0  0  0  0  0  0  0  0  0  0
   18.5032   11.9306  -39.1803 N   0  0  0  0  0  0  0  0  0  0  0  0
   17.1900   14.8038  -39.2049 H   0  0  0  0  0  0  0  0  0  0  0  0
   18.8999   11.1412  -39.6146 H   0  0  0  0  0  0  0  0  0  0  0  0
   16.4112    8.2191  -35.1481 C   0  0  0  0  0  0  0  0  0  0  0  0
   15.1351    7.6400  -35.0359 C   0  0  0  0  0  0  0  0  0  0  0  0
   14.9136    6.5828  -34.1484 C   0  0  0  0  0  0  0  0  0  0  0  0
   15.9629    6.1027  -33.3692 C   0  0  0  0  0  0  0  0  0  0  0  0
   15.6917    4.8028  -32.2751 Cl  0  0  0  0  0  0  0  0  0  0  0  0
   17.2328    6.6700  -33.4700 C   0  0  0  0  0  0  0  0  0  0  0  0
   17.4616    7.7268  -34.3592 C   0  0  0  0  0  0  0  0  0  0  0  0
   15.3408   11.2896  -38.6930 C   0  0  0  0  0  0  0  0  0  0  0  0
   15.3961   10.7945  -40.0049 C   0  0  0  0  0  0  0  0  0  0  0  0
   14.6287   11.3817  -41.0129 C   0  0  0  0  0  0  0  0  0  0  0  0
   13.8144   12.4663  -40.7091 C   0  0  0  0  0  0  0  0  0  0  0  0
   13.0795   13.0319  -41.6754 F   0  0  0  0  0  0  0  0  0  0  0  0
   13.7580   12.9788  -39.4188 C   0  0  0  0  0  0  0  0  0  0  0  0
   14.5243   12.3932  -38.4080 C   0  0  0  0  0  0  0  0  0  0  0  0
  6  7  2  0
  7  8  1  0
  8  9  1  0
  9 10  2  0
  9 11  1  0
 11  1  1  0
  1  2  2  0
  2  3  1  0
  3 15  1  0
 15 16  2  0
 16 17  1  0
 17 18  2  0
 18 19  1  0
 18 20  1  0
 20 21  2  0
  3  4  1  0
  4  5  2  0
  5 22  1  0
 22 23  2  0
 23 24  1  0
 24 25  2  0
 25 26  1  0
 25 27  1  0
 27 28  2  0
 11 12  1  0
 12  7  1  0
  5  1  1  0
 28 22  1  0
 21 15  1  0
  8 13  1  0
 12 14  1  0
M  END
> <minimizedAffinity>
-5.05834

> <CNNscore>
0.3164275587

> <CNNaffinity>
4.8497920036

> <CNN_VS>
1.5346078873

> <CNNaffinity_variance>
0.3608978689

$$$$
