


 23 25  0  0  0  0  0  0  0  0999 V2000
  -12.3599    5.6034   14.3329 C   0  0  0  0  0  0  0  0  0  0  0  0
  -12.2664    4.1812   13.8655 C   0  0  0  0  0  0  0  0  0  0  0  0
  -12.3680    3.1576   14.7314 C   0  0  0  0  0  0  0  0  0  0  0  0
  -12.2817    1.7434   14.3021 C   0  0  0  0  0  0  0  0  0  0  0  0
  -12.3767    0.8324   15.1169 O   0  0  0  0  0  0  0  0  0  0  0  0
  -12.0918    1.5188   12.9696 N   0  0  0  0  0  0  0  0  0  0  0  0
  -11.9789    2.5427   12.0208 C   0  0  0  0  0  0  0  0  0  0  0  0
  -11.7853    2.2020   10.6789 C   0  0  0  0  0  0  0  0  0  0  0  0
  -11.6700    3.2016    9.7033 C   0  0  0  0  0  0  0  0  0  0  0  0
  -11.7477    4.5417   10.1077 C   0  0  0  0  0  0  0  0  0  0  0  0
  -11.9415    4.8794   11.4530 C   0  0  0  0  0  0  0  0  0  0  0  0
  -12.0601    3.8841   12.4301 C   0  0  0  0  0  0  0  0  0  0  0  0
  -12.0309    0.5867   12.6584 H   0  0  0  0  0  0  0  0  0  0  0  0
  -11.4579    2.8561    8.2912 C   0  0  0  0  0  0  0  0  0  0  0  0
  -10.2440    3.2064    7.6773 C   0  0  0  0  0  0  0  0  0  0  0  0
   -9.9967    2.8942    6.3361 C   0  0  0  0  0  0  0  0  0  0  0  0
  -10.9682    2.2638    5.5590 C   0  0  0  0  0  0  0  0  0  0  0  0
  -10.6685    1.8480    4.2580 N   0  0  0  0  0  0  0  0  0  0  0  0
  -12.1544    1.8601    6.1731 C   0  0  0  0  0  0  0  0  0  0  0  0
  -12.4086    2.1689    7.5160 C   0  0  0  0  0  0  0  0  0  0  0  0
  -13.9323    1.6724    8.1730 Cl  0  0  0  0  0  0  0  0  0  0  0  0
   -9.8300    2.1362    3.8300 H   0  0  0  0  0  0  0  0  0  0  0  0
  -11.2959    1.2672    3.7700 H   0  0  0  0  0  0  0  0  0  0  0  0
  1  2  1  0
  2  3  2  0
  3  4  1  0
  4  5  2  0
  4  6  1  0
  6  7  1  0
  7  8  2  0
  8  9  1  0
  9 14  1  0
 14 15  2  0
 15 16  1  0
 16 17  2  0
 17 18  1  0
 17 19  1  0
 19 20  2  0
 20 21  1  0
  9 10  2  0
 10 11  1  0
 11 12  2  0
 12  2  1  0
 12  7  1  0
 20 14  1  0
  6 13  1  0
 18 22  1  0
 18 23  1  0
M  END
> <minimizedAffinity>
-12.33012

> <CNNscore>
0.9827031493

> <CNNaffinity>
7.1319470406

> <CNN_VS>
7.0085868835

> <CNNaffinity_variance>
0.0425911136

$$$$



 23 25  0  0  0  0  0  0  0  0999 V2000
  -17.9638   -3.0643    0.9400 C   0  0  0  0  0  0  0  0  0  0  0  0
  -17.0567   -4.1378    1.4641 C   0  0  0  0  0  0  0  0  0  0  0  0
  -15.8872   -4.4143    0.8610 C   0  0  0  0  0  0  0  0  0  0  0  0
  -14.9692   -5.4658    1.3540 C   0  0  0  0  0  0  0  0  0  0  0  0
  -13.9101   -5.6948    0.7805 O   0  0  0  0  0  0  0  0  0  0  0  0
  -15.3659   -6.1536    2.4638 N   0  0  0  0  0  0  0  0  0  0  0  0
  -16.5710   -5.9109    3.1346 C   0  0  0  0  0  0  0  0  0  0  0  0
  -16.8815   -6.6745    4.2637 C   0  0  0  0  0  0  0  0  0  0  0  0
  -18.0783   -6.4566    4.9596 C   0  0  0  0  0  0  0  0  0  0  0  0
  -18.9513   -5.4638    4.4926 C   0  0  0  0  0  0  0  0  0  0  0  0
  -18.6372   -4.7008    3.3611 C   0  0  0  0  0  0  0  0  0  0  0  0
  -17.4415   -4.9133    2.6648 C   0  0  0  0  0  0  0  0  0  0  0  0
  -14.7730   -6.8583    2.8117 H   0  0  0  0  0  0  0  0  0  0  0  0
  -18.4195   -7.2583    6.1425 C   0  0  0  0  0  0  0  0  0  0  0  0
  -18.1609   -6.7350    7.4201 C   0  0  0  0  0  0  0  0  0  0  0  0
  -18.4727   -7.4611    8.5746 C   0  0  0  0  0  0  0  0  0  0  0  0
  -19.0101   -8.7451    8.4869 C   0  0  0  0  0  0  0  0  0  0  0  0
  -19.4302   -9.4129    9.6414 N   0  0  0  0  0  0  0  0  0  0  0  0
  -19.3243   -9.2515    7.2251 C   0  0  0  0  0  0  0  0  0  0  0  0
  -19.0152   -8.5295    6.0646 C   0  0  0  0  0  0  0  0  0  0  0  0
  -19.3948   -9.2658    4.5436 Cl  0  0  0  0  0  0  0  0  0  0  0  0
  -19.2054   -9.0508   10.5289 H   0  0  0  0  0  0  0  0  0  0  0  0
  -19.9506  -10.2453    9.5668 H   0  0  0  0  0  0  0  0  0  0  0  0
  1  2  1  0
  2  3  2  0
  3  4  1  0
  4  5  2  0
  4  6  1  0
  6  7  1  0
  7  8  2  0
  8  9  1  0
  9 14  1  0
 14 15  2  0
 15 16  1  0
 16 17  2  0
 17 18  1  0
 17 19  1  0
 19 20  2  0
 20 21  1  0
  9 10  2  0
 10 11  1  0
 11 12  2  0
 12  2  1  0
 12  7  1  0
 20 14  1  0
  6 13  1  0
 18 22  1  0
 18 23  1  0
M  END
> <minimizedAffinity>
-5.54825

> <CNNscore>
0.5617793798

> <CNNaffinity>
5.6817898750

> <CNN_VS>
3.1919124126

> <CNNaffinity_variance>
1.1124415398

$$$$



 23 25  0  0  0  0  0  0  0  0999 V2000
  -18.3282   -0.0078    1.6113 C   0  0  0  0  0  0  0  0  0  0  0  0
  -17.8116    1.3180    2.0859 C   0  0  0  0  0  0  0  0  0  0  0  0
  -18.6448    2.3513    2.3007 C   0  0  0  0  0  0  0  0  0  0  0  0
  -18.1671    3.6714    2.7705 C   0  0  0  0  0  0  0  0  0  0  0  0
  -18.9524    4.5944    2.9555 O   0  0  0  0  0  0  0  0  0  0  0  0
  -16.8246    3.7975    2.9799 N   0  0  0  0  0  0  0  0  0  0  0  0
  -15.9086    2.7584    2.7740 C   0  0  0  0  0  0  0  0  0  0  0  0
  -14.5526    2.9947    3.0190 C   0  0  0  0  0  0  0  0  0  0  0  0
  -13.6094    1.9764    2.8249 C   0  0  0  0  0  0  0  0  0  0  0  0
  -14.0586    0.7264    2.3765 C   0  0  0  0  0  0  0  0  0  0  0  0
  -15.4177    0.4932    2.1320 C   0  0  0  0  0  0  0  0  0  0  0  0
  -16.3635    1.5066    2.3273 C   0  0  0  0  0  0  0  0  0  0  0  0
  -16.4815    4.6658    3.2924 H   0  0  0  0  0  0  0  0  0  0  0  0
  -12.1807    2.2152    3.0708 C   0  0  0  0  0  0  0  0  0  0  0  0
  -11.3530    2.5742    1.9941 C   0  0  0  0  0  0  0  0  0  0  0  0
   -9.9877    2.8150    2.1820 C   0  0  0  0  0  0  0  0  0  0  0  0
   -9.4022    2.6624    3.4386 C   0  0  0  0  0  0  0  0  0  0  0  0
   -8.0660    3.0217    3.6410 N   0  0  0  0  0  0  0  0  0  0  0  0
  -10.2246    2.3625    4.5252 C   0  0  0  0  0  0  0  0  0  0  0  0
  -11.5929    2.1206    4.3446 C   0  0  0  0  0  0  0  0  0  0  0  0
  -12.5199    1.7025    5.7466 Cl  0  0  0  0  0  0  0  0  0  0  0  0
   -7.4907    3.2322    2.8703 H   0  0  0  0  0  0  0  0  0  0  0  0
   -7.7006    3.0642    4.5542 H   0  0  0  0  0  0  0  0  0  0  0  0
  1  2  1  0
  2  3  2  0
  3  4  1  0
  4  5  2  0
  4  6  1  0
  6  7  1  0
  7  8  2  0
  8  9  1  0
  9 14  1  0
 14 15  2  0
 15 16  1  0
 16 17  2  0
 17 18  1  0
 17 19  1  0
 19 20  2  0
 20 21  1  0
  9 10  2  0
 10 11  1  0
 11 12  2  0
 12  2  1  0
 12  7  1  0
 20 14  1  0
  6 13  1  0
 18 22  1  0
 18 23  1  0
M  END
> <minimizedAffinity>
-5.10086

> <CNNscore>
0.4157462120

> <CNNaffinity>
4.7341084480

> <CNN_VS>
1.9681876898

> <CNNaffinity_variance>
0.0697768256

$$$$



 23 25  0  0  0  0  0  0  0  0999 V2000
  -12.3571    2.8780   15.2281 C   0  0  0  0  0  0  0  0  0  0  0  0
  -12.3060    3.9730   14.2042 C   0  0  0  0  0  0  0  0  0  0  0  0
  -12.4657    5.2608   14.5563 C   0  0  0  0  0  0  0  0  0  0  0  0
  -12.4190    6.3645   13.5708 C   0  0  0  0  0  0  0  0  0  0  0  0
  -12.5699    7.5289   13.9236 O   0  0  0  0  0  0  0  0  0  0  0  0
  -12.2035    6.0145   12.2695 N   0  0  0  0  0  0  0  0  0  0  0  0
  -12.0299    4.6921   11.8427 C   0  0  0  0  0  0  0  0  0  0  0  0
  -11.8151    4.4434   10.4839 C   0  0  0  0  0  0  0  0  0  0  0  0
  -11.6358    3.1320   10.0230 C   0  0  0  0  0  0  0  0  0  0  0  0
  -11.6833    2.0846   10.9537 C   0  0  0  0  0  0  0  0  0  0  0  0
  -11.8988    2.3373   12.3142 C   0  0  0  0  0  0  0  0  0  0  0  0
  -12.0755    3.6459   12.7791 C   0  0  0  0  0  0  0  0  0  0  0  0
  -12.1682    6.7303   11.5945 H   0  0  0  0  0  0  0  0  0  0  0  0
  -11.4178    2.8574    8.5963 C   0  0  0  0  0  0  0  0  0  0  0  0
  -10.2321    3.3026    7.9885 C   0  0  0  0  0  0  0  0  0  0  0  0
   -9.9802    3.0604    6.6338 C   0  0  0  0  0  0  0  0  0  0  0  0
  -10.9211    2.4067    5.8385 C   0  0  0  0  0  0  0  0  0  0  0  0
  -10.6104    2.0625    4.5192 N   0  0  0  0  0  0  0  0  0  0  0  0
  -12.0759    1.9099    6.4440 C   0  0  0  0  0  0  0  0  0  0  0  0
  -12.3345    2.1483    7.8004 C   0  0  0  0  0  0  0  0  0  0  0  0
  -13.8205    1.5375    8.4474 Cl  0  0  0  0  0  0  0  0  0  0  0  0
   -9.7942    2.4162    4.0974 H   0  0  0  0  0  0  0  0  0  0  0  0
  -11.2079    1.4665    4.0123 H   0  0  0  0  0  0  0  0  0  0  0  0
  1  2  1  0
  2  3  2  0
  3  4  1  0
  4  5  2  0
  4  6  1  0
  6  7  1  0
  7  8  2  0
  8  9  1  0
  9 14  1  0
 14 15  2  0
 15 16  1  0
 16 17  2  0
 17 18  1  0
 17 19  1  0
 19 20  2  0
 20 21  1  0
  9 10  2  0
 10 11  1  0
 11 12  2  0
 12  2  1  0
 12  7  1  0
 20 14  1  0
  6 13  1  0
 18 22  1  0
 18 23  1  0
M  END
> <minimizedAffinity>
-10.95080

> <CNNscore>
0.3340447545

> <CNNaffinity>
5.6715254784

> <CNN_VS>
1.8945432901

> <CNNaffinity_variance>
0.5545918941

$$$$



 23 25  0  0  0  0  0  0  0  0999 V2000
  -19.4742   -0.5667    2.0582 C   0  0  0  0  0  0  0  0  0  0  0  0
  -18.0399   -1.0019    1.9984 C   0  0  0  0  0  0  0  0  0  0  0  0
  -17.7076   -2.2473    1.6157 C   0  0  0  0  0  0  0  0  0  0  0  0
  -16.3023   -2.7072    1.5444 C   0  0  0  0  0  0  0  0  0  0  0  0
  -16.0321   -3.8501    1.1929 O   0  0  0  0  0  0  0  0  0  0  0  0
  -15.3431   -1.7997    1.8888 N   0  0  0  0  0  0  0  0  0  0  0  0
  -15.6275   -0.4899    2.2946 C   0  0  0  0  0  0  0  0  0  0  0  0
  -14.5680    0.3598    2.6262 C   0  0  0  0  0  0  0  0  0  0  0  0
  -14.8170    1.6772    3.0345 C   0  0  0  0  0  0  0  0  0  0  0  0
  -16.1472    2.1141    3.1064 C   0  0  0  0  0  0  0  0  0  0  0  0
  -17.2062    1.2602    2.7737 C   0  0  0  0  0  0  0  0  0  0  0  0
  -16.9617   -0.0555    2.3626 C   0  0  0  0  0  0  0  0  0  0  0  0
  -14.4004   -2.0809    1.8499 H   0  0  0  0  0  0  0  0  0  0  0  0
  -13.7123    2.5768    3.3936 C   0  0  0  0  0  0  0  0  0  0  0  0
  -13.4573    3.7000    2.5895 C   0  0  0  0  0  0  0  0  0  0  0  0
  -12.4187    4.5861    2.8952 C   0  0  0  0  0  0  0  0  0  0  0  0
  -11.5795    4.3536    3.9846 C   0  0  0  0  0  0  0  0  0  0  0  0
  -10.6237    5.3056    4.3528 N   0  0  0  0  0  0  0  0  0  0  0  0
  -11.8589    3.2736    4.8229 C   0  0  0  0  0  0  0  0  0  0  0  0
  -12.8978    2.3824    4.5231 C   0  0  0  0  0  0  0  0  0  0  0  0
  -13.1317    1.0420    5.5947 Cl  0  0  0  0  0  0  0  0  0  0  0  0
  -10.4309    6.0654    3.7572 H   0  0  0  0  0  0  0  0  0  0  0  0
  -10.1436    5.2160    5.2076 H   0  0  0  0  0  0  0  0  0  0  0  0
  1  2  1  0
  2  3  2  0
  3  4  1  0
  4  5  2  0
  4  6  1  0
  6  7  1  0
  7  8  2  0
  8  9  1  0
  9 14  1  0
 14 15  2  0
 15 16  1  0
 16 17  2  0
 17 18  1  0
 17 19  1  0
 19 20  2  0
 20 21  1  0
  9 10  2  0
 10 11  1  0
 11 12  2  0
 12  2  1  0
 12  7  1  0
 20 14  1  0
  6 13  1  0
 18 22  1  0
 18 23  1  0
M  END
> <minimizedAffinity>
-5.14424

> <CNNscore>
0.2922440469

> <CNNaffinity>
4.6866221428

> <CNN_VS>
1.3696373701

> <CNNaffinity_variance>
0.1403873116

$$$$



 23 25  0  0  0  0  0  0  0  0999 V2000
   -9.2830    2.7109    4.1939 C   0  0  0  0  0  0  0  0  0  0  0  0
  -10.3700    2.0567    4.9940 C   0  0  0  0  0  0  0  0  0  0  0  0
  -10.1177    1.5226    6.2019 C   0  0  0  0  0  0  0  0  0  0  0  0
  -11.1681    0.8718    7.0170 C   0  0  0  0  0  0  0  0  0  0  0  0
  -10.9054    0.3927    8.1145 O   0  0  0  0  0  0  0  0  0  0  0  0
  -12.4233    0.8361    6.4826 N   0  0  0  0  0  0  0  0  0  0  0  0
  -12.7468    1.3749    5.2311 C   0  0  0  0  0  0  0  0  0  0  0  0
  -14.0659    1.2842    4.7770 C   0  0  0  0  0  0  0  0  0  0  0  0
  -14.4243    1.8144    3.5302 C   0  0  0  0  0  0  0  0  0  0  0  0
  -13.4306    2.4281    2.7547 C   0  0  0  0  0  0  0  0  0  0  0  0
  -12.1101    2.5171    3.2126 C   0  0  0  0  0  0  0  0  0  0  0  0
  -11.7485    1.9913    4.4586 C   0  0  0  0  0  0  0  0  0  0  0  0
  -13.1399    0.4085    7.0049 H   0  0  0  0  0  0  0  0  0  0  0  0
  -15.8054    1.7177    3.0386 C   0  0  0  0  0  0  0  0  0  0  0  0
  -16.6552    2.8289    3.1661 C   0  0  0  0  0  0  0  0  0  0  0  0
  -17.9766    2.7837    2.7087 C   0  0  0  0  0  0  0  0  0  0  0  0
  -18.4996    1.6169    2.1518 C   0  0  0  0  0  0  0  0  0  0  0  0
  -19.7795    1.6180    1.5884 N   0  0  0  0  0  0  0  0  0  0  0  0
  -17.6487    0.5264    1.9678 C   0  0  0  0  0  0  0  0  0  0  0  0
  -16.3240    0.5649    2.4230 C   0  0  0  0  0  0  0  0  0  0  0  0
  -15.3624   -0.8578    2.1970 Cl  0  0  0  0  0  0  0  0  0  0  0  0
  -20.3754    2.3903    1.7217 H   0  0  0  0  0  0  0  0  0  0  0  0
  -20.0847    0.8465    1.0584 H   0  0  0  0  0  0  0  0  0  0  0  0
  1  2  1  0
  2  3  2  0
  3  4  1  0
  4  5  2  0
  4  6  1  0
  6  7  1  0
  7  8  2  0
  8  9  1  0
  9 14  1  0
 14 15  2  0
 15 16  1  0
 16 17  2  0
 17 18  1  0
 17 19  1  0
 19 20  2  0
 20 21  1  0
  9 10  2  0
 10 11  1  0
 11 12  2  0
 12  2  1  0
 12  7  1  0
 20 14  1  0
  6 13  1  0
 18 22  1  0
 18 23  1  0
M  END
> <minimizedAffinity>
-6.29709

> <CNNscore>
0.2852563262

> <CNNaffinity>
4.4112858772

> <CNN_VS>
1.2583471537

> <CNNaffinity_variance>
0.1789975166

$$$$



 23 25  0  0  0  0  0  0  0  0999 V2000
  -10.6035    4.0393    6.1221 C   0  0  0  0  0  0  0  0  0  0  0  0
  -10.5204    2.8421    7.0219 C   0  0  0  0  0  0  0  0  0  0  0  0
  -10.0866    1.6558    6.5610 C   0  0  0  0  0  0  0  0  0  0  0  0
   -9.9912    0.4562    7.4232 C   0  0  0  0  0  0  0  0  0  0  0  0
   -9.5930   -0.6119    6.9721 O   0  0  0  0  0  0  0  0  0  0  0  0
  -10.3680    0.6073    8.7261 N   0  0  0  0  0  0  0  0  0  0  0  0
  -10.8272    1.8163    9.2633 C   0  0  0  0  0  0  0  0  0  0  0  0
  -11.1884    1.8619   10.6130 C   0  0  0  0  0  0  0  0  0  0  0  0
  -11.6503    3.0560   11.1832 C   0  0  0  0  0  0  0  0  0  0  0  0
  -11.7451    4.1926   10.3679 C   0  0  0  0  0  0  0  0  0  0  0  0
  -11.3826    4.1433    9.0161 C   0  0  0  0  0  0  0  0  0  0  0  0
  -10.9180    2.9534    8.4434 C   0  0  0  0  0  0  0  0  0  0  0  0
  -10.3140   -0.1757    9.3203 H   0  0  0  0  0  0  0  0  0  0  0  0
  -12.0408    3.1142   12.5983 C   0  0  0  0  0  0  0  0  0  0  0  0
  -12.2459    1.9148   13.3001 C   0  0  0  0  0  0  0  0  0  0  0  0
  -12.6147    1.9219   14.6497 C   0  0  0  0  0  0  0  0  0  0  0  0
  -12.8311    3.1232   15.3243 C   0  0  0  0  0  0  0  0  0  0  0  0
  -13.0800    3.1231   16.7003 N   0  0  0  0  0  0  0  0  0  0  0  0
  -12.5746    4.3198   14.6538 C   0  0  0  0  0  0  0  0  0  0  0  0
  -12.2045    4.3202   13.3023 C   0  0  0  0  0  0  0  0  0  0  0  0
  -11.9610    5.8579   12.5435 Cl  0  0  0  0  0  0  0  0  0  0  0  0
  -13.2603    2.2756   17.1679 H   0  0  0  0  0  0  0  0  0  0  0  0
  -13.0750    3.9704   17.2016 H   0  0  0  0  0  0  0  0  0  0  0  0
  1  2  1  0
  2  3  2  0
  3  4  1  0
  4  5  2  0
  4  6  1  0
  6  7  1  0
  7  8  2  0
  8  9  1  0
  9 14  1  0
 14 15  2  0
 15 16  1  0
 16 17  2  0
 17 18  1  0
 17 19  1  0
 19 20  2  0
 20 21  1  0
  9 10  2  0
 10 11  1  0
 11 12  2  0
 12  2  1  0
 12  7  1  0
 20 14  1  0
  6 13  1  0
 18 22  1  0
 18 23  1  0
M  END
> <minimizedAffinity>
-11.63322

> <CNNscore>
0.2583128214

> <CNNaffinity>
5.4198155403

> <CNN_VS>
1.4000078440

> <CNNaffinity_variance>
0.8136436343

$$$$



 23 25  0  0  0  0  0  0  0  0999 V2000
  -10.5348    3.3123    6.9919 C   0  0  0  0  0  0  0  0  0  0  0  0
  -11.0059    3.7096    5.6243 C   0  0  0  0  0  0  0  0  0  0  0  0
  -10.4370    4.7337    4.9643 C   0  0  0  0  0  0  0  0  0  0  0  0
  -10.8773    5.1495    3.6135 C   0  0  0  0  0  0  0  0  0  0  0  0
  -10.3389    6.0890    3.0385 O   0  0  0  0  0  0  0  0  0  0  0  0
  -11.9007    4.4386    3.0574 N   0  0  0  0  0  0  0  0  0  0  0  0
  -12.5318    3.3633    3.6952 C   0  0  0  0  0  0  0  0  0  0  0  0
  -13.5721    2.7025    3.0353 C   0  0  0  0  0  0  0  0  0  0  0  0
  -14.2240    1.6215    3.6440 C   0  0  0  0  0  0  0  0  0  0  0  0
  -13.8115    1.2280    4.9248 C   0  0  0  0  0  0  0  0  0  0  0  0
  -12.7691    1.8923    5.5831 C   0  0  0  0  0  0  0  0  0  0  0  0
  -12.1133    2.9707    4.9774 C   0  0  0  0  0  0  0  0  0  0  0  0
  -12.2122    4.6954    2.1594 H   0  0  0  0  0  0  0  0  0  0  0  0
  -15.3242    0.9245    2.9640 C   0  0  0  0  0  0  0  0  0  0  0  0
  -15.1265   -0.3931    2.5191 C   0  0  0  0  0  0  0  0  0  0  0  0
  -16.1469   -1.0969    1.8703 C   0  0  0  0  0  0  0  0  0  0  0  0
  -17.3764   -0.4925    1.6090 C   0  0  0  0  0  0  0  0  0  0  0  0
  -18.4282   -1.2403    1.0706 N   0  0  0  0  0  0  0  0  0  0  0  0
  -17.6034    0.7950    2.0970 C   0  0  0  0  0  0  0  0  0  0  0  0
  -16.5862    1.5055    2.7480 C   0  0  0  0  0  0  0  0  0  0  0  0
  -16.9481    3.1170    3.2692 Cl  0  0  0  0  0  0  0  0  0  0  0  0
  -18.2618   -2.1481    0.7279 H   0  0  0  0  0  0  0  0  0  0  0  0
  -19.3351   -0.8589    1.0343 H   0  0  0  0  0  0  0  0  0  0  0  0
  1  2  1  0
  2  3  2  0
  3  4  1  0
  4  5  2  0
  4  6  1  0
  6  7  1  0
  7  8  2  0
  8  9  1  0
  9 14  1  0
 14 15  2  0
 15 16  1  0
 16 17  2  0
 17 18  1  0
 17 19  1  0
 19 20  2  0
 20 21  1  0
  9 10  2  0
 10 11  1  0
 11 12  2  0
 12  2  1  0
 12  7  1  0
 20 14  1  0
  6 13  1  0
 18 22  1  0
 18 23  1  0
M  END
> <minimizedAffinity>
-6.16448

> <CNNscore>
0.2548784614

> <CNNaffinity>
4.5619997978

> <CNN_VS>
1.1627554893

> <CNNaffinity_variance>
0.0647065789

$$$$



 23 25  0  0  0  0  0  0  0  0999 V2000
  -13.0356    4.6475    2.5049 C   0  0  0  0  0  0  0  0  0  0  0  0
  -13.3217    3.3873    3.2664 C   0  0  0  0  0  0  0  0  0  0  0  0
  -12.5051    2.9693    4.2494 C   0  0  0  0  0  0  0  0  0  0  0  0
  -12.7601    1.7317    5.0205 C   0  0  0  0  0  0  0  0  0  0  0  0
  -11.9951    1.3766    5.9103 O   0  0  0  0  0  0  0  0  0  0  0  0
  -13.8766    1.0216    4.6867 N   0  0  0  0  0  0  0  0  0  0  0  0
  -14.7639    1.4063    3.6738 C   0  0  0  0  0  0  0  0  0  0  0  0
  -15.8792    0.6050    3.4123 C   0  0  0  0  0  0  0  0  0  0  0  0
  -16.7882    0.9616    2.4069 C   0  0  0  0  0  0  0  0  0  0  0  0
  -16.5469    2.1313    1.6726 C   0  0  0  0  0  0  0  0  0  0  0  0
  -15.4285    2.9316    1.9371 C   0  0  0  0  0  0  0  0  0  0  0  0
  -14.5197    2.5806    2.9424 C   0  0  0  0  0  0  0  0  0  0  0  0
  -14.0687    0.1944    5.1847 H   0  0  0  0  0  0  0  0  0  0  0  0
  -17.9593    0.1232    2.1173 C   0  0  0  0  0  0  0  0  0  0  0  0
  -19.2360    0.7090    2.1194 C   0  0  0  0  0  0  0  0  0  0  0  0
  -20.3791   -0.0497    1.8453 C   0  0  0  0  0  0  0  0  0  0  0  0
  -20.2853   -1.4202    1.6046 C   0  0  0  0  0  0  0  0  0  0  0  0
  -21.4152   -2.1452    1.2130 N   0  0  0  0  0  0  0  0  0  0  0  0
  -19.0181   -2.0012    1.5432 C   0  0  0  0  0  0  0  0  0  0  0  0
  -17.8689   -1.2472    1.8162 C   0  0  0  0  0  0  0  0  0  0  0  0
  -16.3459   -2.0706    1.7680 Cl  0  0  0  0  0  0  0  0  0  0  0  0
  -22.3067   -1.7299    1.2586 H   0  0  0  0  0  0  0  0  0  0  0  0
  -21.3192   -3.0709    0.8918 H   0  0  0  0  0  0  0  0  0  0  0  0
  1  2  1  0
  2  3  2  0
  3  4  1  0
  4  5  2  0
  4  6  1  0
  6  7  1  0
  7  8  2  0
  8  9  1  0
  9 14  1  0
 14 15  2  0
 15 16  1  0
 16 17  2  0
 17 18  1  0
 17 19  1  0
 19 20  2  0
 20 21  1  0
  9 10  2  0
 10 11  1  0
 11 12  2  0
 12  2  1  0
 12  7  1  0
 20 14  1  0
  6 13  1  0
 18 22  1  0
 18 23  1  0
M  END
> <minimizedAffinity>
-5.02203

> <CNNscore>
0.2393265367

> <CNNaffinity>
4.4576263428

> <CNN_VS>
1.0668282509

> <CNNaffinity_variance>
0.0376448333

$$$$
