


 50 52  0  0  0  0  0  0  0  0999 V2000
    8.1509   28.5083    3.4217 C   0  0  0  0  0  0  0  0  0  0  0  0
    8.5084   27.0666    1.4728 N   0  0  0  0  0  0  0  0  0  0  0  0
    8.4106   28.3669    1.9057 C   0  0  0  0  0  0  0  0  0  0  0  0
    8.4223   29.3169    1.1297 O   0  0  0  0  0  0  0  0  0  0  0  0
    8.5018   26.3482    2.1459 H   0  0  0  0  0  0  0  0  0  0  0  0
    8.6213   26.6976    0.0697 C   0  0  0  0  0  0  0  0  0  0  0  0
    8.7098   25.1659   -0.0209 C   0  0  0  0  0  0  0  0  0  0  0  0
    9.2183   24.5262    1.0727 N   0  0  0  0  0  0  0  0  0  0  0  0
    8.3451   24.5279   -1.0065 O   0  0  0  0  0  0  0  0  0  0  0  0
    9.5075   25.0464    1.8569 H   0  0  0  0  0  0  0  0  0  0  0  0
    9.2958   23.5448    1.0771 H   0  0  0  0  0  0  0  0  0  0  0  0
    9.7712   27.4178   -0.6587 C   0  0  0  0  0  0  0  0  0  0  0  0
   10.7401   26.5195   -1.4472 C   0  0  0  0  0  0  0  0  0  0  0  0
   12.1405   26.3609   -0.8321 C   0  0  0  0  0  0  0  0  0  0  0  0
   13.3007   27.1756   -1.4729 C   0  0  0  0  0  0  0  0  0  0  0  0
   12.8230   28.5751   -1.9187 C   0  0  0  0  0  0  0  0  0  0  0  0
   14.4405   27.3667   -0.4525 C   0  0  0  0  0  0  0  0  0  0  0  0
   13.8381   26.4625   -2.7555 C   0  0  0  0  0  0  0  0  0  0  0  0
   13.8240   24.2419   -4.0660 C   0  0  0  0  0  0  0  0  0  0  0  0
   13.0115   25.3361   -3.3916 C   0  0  0  0  0  0  0  0  0  0  0  0
    7.9401   27.1834    4.0158 N   0  0  0  0  0  0  0  0  0  0  0  0
    8.9762   26.3119    4.2653 C   0  0  0  0  0  0  0  0  0  0  0  0
   10.1530   26.6091    4.1082 O   0  0  0  0  0  0  0  0  0  0  0  0
    7.0232   26.9072    4.2446 H   0  0  0  0  0  0  0  0  0  0  0  0
    8.5088   24.9620    4.7660 C   0  0  0  0  0  0  0  0  0  0  0  0
    7.3985   24.3990    3.8823 C   0  0  0  0  0  0  0  0  0  0  0  0
    6.2294   23.8920    4.6902 C   0  0  0  0  0  0  0  0  0  0  0  0
    4.9602   24.4583    4.5302 C   0  0  0  0  0  0  0  0  0  0  0  0
    3.8750   23.9941    5.2800 C   0  0  0  0  0  0  0  0  0  0  0  0
    4.0272   22.9514    6.2054 C   0  0  0  0  0  0  0  0  0  0  0  0
    5.3016   22.3843    6.3569 C   0  0  0  0  0  0  0  0  0  0  0  0
    6.3907   22.8527    5.6115 C   0  0  0  0  0  0  0  0  0  0  0  0
    2.8605   22.4741    6.9662 C   0  0  0  0  0  0  0  0  0  0  0  0
    1.5162   22.6711    6.6962 C   0  0  0  0  0  0  0  0  0  0  0  0
    0.6458   22.0963    7.6789 C   0  0  0  0  0  0  0  0  0  0  0  0
    1.3712   21.4717    8.6721 C   0  0  0  0  0  0  0  0  0  0  0  0
    3.0576   21.5797    8.4186 S   0  0  0  0  0  0  0  0  0  0  0  0
   -0.8118   22.1652    7.7089 C   0  0  0  0  0  0  0  0  0  0  0  0
   -1.4686   23.3074    7.2284 C   0  0  0  0  0  0  0  0  0  0  0  0
   -2.8637   23.3869    7.2547 C   0  0  0  0  0  0  0  0  0  0  0  0
   -3.6137   22.3260    7.7574 C   0  0  0  0  0  0  0  0  0  0  0  0
   -2.9709   21.1829    8.2299 C   0  0  0  0  0  0  0  0  0  0  0  0
   -1.5756   21.1011    8.2060 C   0  0  0  0  0  0  0  0  0  0  0  0
    9.2992   29.2180    4.1466 C   0  0  0  0  0  0  0  0  0  0  0  0
    9.0343   30.7089    4.3587 C   0  0  0  0  0  0  0  0  0  0  0  0
    8.8151   31.0351    5.8198 C   0  0  0  0  0  0  0  0  0  0  0  0
    9.4678   32.1545    6.2443 N   0  0  0  0  0  0  0  0  0  0  0  0
    8.1126   30.3876    6.5844 O   0  0  0  0  0  0  0  0  0  0  0  0
   10.0293   32.6647    5.6169 H   0  0  0  0  0  0  0  0  0  0  0  0
    9.3774   32.4527    7.1782 H   0  0  0  0  0  0  0  0  0  0  0  0
 19 20  1  0
 20 18  1  0
 18 15  1  0
 15 16  1  0
 15 17  1  0
 15 14  1  0
 14 13  1  0
 13 12  1  0
  6 12  1  0
  6  2  1  0
  2  3  1  0
  3  4  2  0
  3  1  1  0
  1 44  1  0
 44 45  1  0
 45 46  1  0
 46 47  1  0
 46 48  2  0
  1 21  1  0
 21 22  1  0
 22 23  2  0
 22 25  1  0
 25 26  1  0
 26 27  1  0
 27 28  2  0
 28 29  1  0
 29 30  2  0
 30 33  1  0
 33 34  2  0
 34 35  1  0
 35 38  1  0
 38 39  2  0
 39 40  1  0
 40 41  2  0
 41 42  1  0
 42 43  2  0
 35 36  2  0
 36 37  1  0
 30 31  1  0
 31 32  2  0
  6  7  1  0
  7  8  1  0
  7  9  2  0
 32 27  1  0
 37 33  1  0
 43 38  1  0
  2  5  1  0
 47 49  1  0
 47 50  1  0
 21 24  1  0
  8 10  1  0
  8 11  1  0
M  END
> <minimizedAffinity>
-9.36160

> <CNNscore>
0.8903124332

> <CNNaffinity>
8.3724241257

> <CNN_VS>
7.4540734291

> <CNNaffinity_variance>
0.6642180085

$$$$



 50 52  0  0  0  0  0  0  0  0999 V2000
    8.6230   27.7254    2.4785 C   0  0  0  0  0  0  0  0  0  0  0  0
    7.6408   29.4824    3.8758 N   0  0  0  0  0  0  0  0  0  0  0  0
    8.3603   29.2259    2.7338 C   0  0  0  0  0  0  0  0  0  0  0  0
    8.8373   30.1229    2.0464 O   0  0  0  0  0  0  0  0  0  0  0  0
    7.2762   28.7193    4.3798 H   0  0  0  0  0  0  0  0  0  0  0  0
    7.3903   30.8250    4.3782 C   0  0  0  0  0  0  0  0  0  0  0  0
    6.6428   31.6150    3.2922 C   0  0  0  0  0  0  0  0  0  0  0  0
    5.6729   30.9355    2.6131 N   0  0  0  0  0  0  0  0  0  0  0  0
    6.8801   32.7933    3.0337 O   0  0  0  0  0  0  0  0  0  0  0  0
    5.4906   29.9922    2.8277 H   0  0  0  0  0  0  0  0  0  0  0  0
    5.1556   31.3889    1.9087 H   0  0  0  0  0  0  0  0  0  0  0  0
    8.6616   31.5343    4.8805 C   0  0  0  0  0  0  0  0  0  0  0  0
    8.8699   31.5497    6.4049 C   0  0  0  0  0  0  0  0  0  0  0  0
    7.6404   31.1597    7.2421 C   0  0  0  0  0  0  0  0  0  0  0  0
    7.8616   30.1691    8.4211 C   0  0  0  0  0  0  0  0  0  0  0  0
    8.0649   28.7260    7.9097 C   0  0  0  0  0  0  0  0  0  0  0  0
    9.1171   30.5695    9.2212 C   0  0  0  0  0  0  0  0  0  0  0  0
    6.6121   30.1338    9.3591 C   0  0  0  0  0  0  0  0  0  0  0  0
    6.5288   28.7751   11.5491 C   0  0  0  0  0  0  0  0  0  0  0  0
    6.2337   28.8204   10.0580 C   0  0  0  0  0  0  0  0  0  0  0  0
    8.0269   26.9260    3.5548 N   0  0  0  0  0  0  0  0  0  0  0  0
    8.7368   25.9696    4.2452 C   0  0  0  0  0  0  0  0  0  0  0  0
    9.9362   25.7830    4.0878 O   0  0  0  0  0  0  0  0  0  0  0  0
    7.0838   27.0793    3.7922 H   0  0  0  0  0  0  0  0  0  0  0  0
    7.8852   25.1898    5.2240 C   0  0  0  0  0  0  0  0  0  0  0  0
    7.2762   23.9548    4.5648 C   0  0  0  0  0  0  0  0  0  0  0  0
    5.9952   23.5243    5.2358 C   0  0  0  0  0  0  0  0  0  0  0  0
    6.0058   22.5028    6.1916 C   0  0  0  0  0  0  0  0  0  0  0  0
    4.8202   22.0982    6.8127 C   0  0  0  0  0  0  0  0  0  0  0  0
    3.5949   22.7042    6.4992 C   0  0  0  0  0  0  0  0  0  0  0  0
    3.5923   23.7316    5.5438 C   0  0  0  0  0  0  0  0  0  0  0  0
    4.7779   24.1334    4.9161 C   0  0  0  0  0  0  0  0  0  0  0  0
    2.3673   22.2666    7.1844 C   0  0  0  0  0  0  0  0  0  0  0  0
    1.0574   22.6347    6.9246 C   0  0  0  0  0  0  0  0  0  0  0  0
    0.1091   22.0435    7.8216 C   0  0  0  0  0  0  0  0  0  0  0  0
    0.7421   21.2334    8.7413 C   0  0  0  0  0  0  0  0  0  0  0  0
    2.4362   21.1918    8.5216 S   0  0  0  0  0  0  0  0  0  0  0  0
   -1.3339   22.2619    7.8431 C   0  0  0  0  0  0  0  0  0  0  0  0
   -2.2082   21.1658    7.8139 C   0  0  0  0  0  0  0  0  0  0  0  0
   -3.5919   21.3617    7.8308 C   0  0  0  0  0  0  0  0  0  0  0  0
   -4.1133   22.6527    7.8803 C   0  0  0  0  0  0  0  0  0  0  0  0
   -3.2527   23.7486    7.9178 C   0  0  0  0  0  0  0  0  0  0  0  0
   -1.8684   23.5557    7.8998 C   0  0  0  0  0  0  0  0  0  0  0  0
    8.0716   27.2581    1.1276 C   0  0  0  0  0  0  0  0  0  0  0  0
    7.4481   25.8635    1.1926 C   0  0  0  0  0  0  0  0  0  0  0  0
    8.4187   24.7958    0.7377 C   0  0  0  0  0  0  0  0  0  0  0  0
    9.7273   25.1759    0.7858 N   0  0  0  0  0  0  0  0  0  0  0  0
    8.1021   23.6739    0.3651 O   0  0  0  0  0  0  0  0  0  0  0  0
    9.9659   26.0821    1.0879 H   0  0  0  0  0  0  0  0  0  0  0  0
   10.4336   24.5443    0.5185 H   0  0  0  0  0  0  0  0  0  0  0  0
 19 20  1  0
 20 18  1  0
 18 15  1  0
 15 16  1  0
 15 17  1  0
 15 14  1  0
 14 13  1  0
 13 12  1  0
  6 12  1  0
  6  2  1  0
  2  3  1  0
  3  4  2  0
  3  1  1  0
  1 44  1  0
 44 45  1  0
 45 46  1  0
 46 47  1  0
 46 48  2  0
  1 21  1  0
 21 22  1  0
 22 23  2  0
 22 25  1  0
 25 26  1  0
 26 27  1  0
 27 28  2  0
 28 29  1  0
 29 30  2  0
 30 33  1  0
 33 34  2  0
 34 35  1  0
 35 38  1  0
 38 39  2  0
 39 40  1  0
 40 41  2  0
 41 42  1  0
 42 43  2  0
 35 36  2  0
 36 37  1  0
 30 31  1  0
 31 32  2  0
  6  7  1  0
  7  8  1  0
  7  9  2  0
 32 27  1  0
 37 33  1  0
 43 38  1  0
  2  5  1  0
 47 49  1  0
 47 50  1  0
 21 24  1  0
  8 10  1  0
  8 11  1  0
M  END
> <minimizedAffinity>
-9.03702

> <CNNscore>
0.7332398295

> <CNNaffinity>
8.3250541687

> <CNN_VS>
6.1042613983

> <CNNaffinity_variance>
0.5569831729

$$$$



 50 52  0  0  0  0  0  0  0  0999 V2000
    7.9279   25.9498    3.4669 C   0  0  0  0  0  0  0  0  0  0  0  0
    9.3331   25.9530    1.4593 N   0  0  0  0  0  0  0  0  0  0  0  0
    8.0570   26.1273    1.9380 C   0  0  0  0  0  0  0  0  0  0  0  0
    7.0976   26.3008    1.1935 O   0  0  0  0  0  0  0  0  0  0  0  0
   10.0625   25.8268    2.1083 H   0  0  0  0  0  0  0  0  0  0  0  0
    9.6610   25.9455    0.0416 C   0  0  0  0  0  0  0  0  0  0  0  0
    9.1441   24.6320   -0.5665 C   0  0  0  0  0  0  0  0  0  0  0  0
    9.3894   23.4978    0.1527 N   0  0  0  0  0  0  0  0  0  0  0  0
    8.5365   24.5778   -1.6339 O   0  0  0  0  0  0  0  0  0  0  0  0
    9.8768   23.5520    1.0064 H   0  0  0  0  0  0  0  0  0  0  0  0
    9.0789   22.6257   -0.1823 H   0  0  0  0  0  0  0  0  0  0  0  0
   11.1535   26.2005   -0.2396 C   0  0  0  0  0  0  0  0  0  0  0  0
   11.4894   26.8012   -1.6157 C   0  0  0  0  0  0  0  0  0  0  0  0
   12.2942   25.8876   -2.5551 C   0  0  0  0  0  0  0  0  0  0  0  0
   12.0053   25.9955   -4.0799 C   0  0  0  0  0  0  0  0  0  0  0  0
   10.5819   25.4996   -4.4170 C   0  0  0  0  0  0  0  0  0  0  0  0
   12.1164   27.4635   -4.5377 C   0  0  0  0  0  0  0  0  0  0  0  0
   12.9909   25.0992   -4.8970 C   0  0  0  0  0  0  0  0  0  0  0  0
   13.6743   22.6328   -4.5829 C   0  0  0  0  0  0  0  0  0  0  0  0
   13.8687   24.0798   -4.1576 C   0  0  0  0  0  0  0  0  0  0  0  0
    7.4430   24.5989    3.7715 N   0  0  0  0  0  0  0  0  0  0  0  0
    6.6900   24.3186    4.8894 C   0  0  0  0  0  0  0  0  0  0  0  0
    6.2831   25.1817    5.6558 O   0  0  0  0  0  0  0  0  0  0  0  0
    7.6643   23.8655    3.1532 H   0  0  0  0  0  0  0  0  0  0  0  0
    6.4077   22.8412    5.0596 C   0  0  0  0  0  0  0  0  0  0  0  0
    5.9521   22.5259    6.4821 C   0  0  0  0  0  0  0  0  0  0  0  0
    4.4541   22.6216    6.6347 C   0  0  0  0  0  0  0  0  0  0  0  0
    3.6972   23.3727    5.7292 C   0  0  0  0  0  0  0  0  0  0  0  0
    2.3091   23.4671    5.8695 C   0  0  0  0  0  0  0  0  0  0  0  0
    1.6406   22.8123    6.9141 C   0  0  0  0  0  0  0  0  0  0  0  0
    2.4051   22.0563    7.8154 C   0  0  0  0  0  0  0  0  0  0  0  0
    3.7961   21.9662    7.6799 C   0  0  0  0  0  0  0  0  0  0  0  0
    0.1760   22.9177    7.0233 C   0  0  0  0  0  0  0  0  0  0  0  0
   -0.7329   21.9411    7.3959 C   0  0  0  0  0  0  0  0  0  0  0  0
   -2.0956   22.3822    7.3520 C   0  0  0  0  0  0  0  0  0  0  0  0
   -2.1730   23.6979    6.9449 C   0  0  0  0  0  0  0  0  0  0  0  0
   -0.6375   24.3767    6.6264 S   0  0  0  0  0  0  0  0  0  0  0  0
   -3.2857   21.5880    7.6407 C   0  0  0  0  0  0  0  0  0  0  0  0
   -3.5166   20.3939    6.9424 C   0  0  0  0  0  0  0  0  0  0  0  0
   -4.6540   19.6261    7.2073 C   0  0  0  0  0  0  0  0  0  0  0  0
   -5.5674   20.0424    8.1734 C   0  0  0  0  0  0  0  0  0  0  0  0
   -5.3429   21.2235    8.8788 C   0  0  0  0  0  0  0  0  0  0  0  0
   -4.2069   21.9941    8.6150 C   0  0  0  0  0  0  0  0  0  0  0  0
    9.2526   26.1953    4.1967 C   0  0  0  0  0  0  0  0  0  0  0  0
    9.5677   27.6816    4.3685 C   0  0  0  0  0  0  0  0  0  0  0  0
    8.7275   28.3084    5.4595 C   0  0  0  0  0  0  0  0  0  0  0  0
    8.7417   29.6719    5.4591 N   0  0  0  0  0  0  0  0  0  0  0  0
    8.0679   27.6857    6.2808 O   0  0  0  0  0  0  0  0  0  0  0  0
    9.2776   30.1584    4.7917 H   0  0  0  0  0  0  0  0  0  0  0  0
    8.2162   30.1698    6.1263 H   0  0  0  0  0  0  0  0  0  0  0  0
 19 20  1  0
 20 18  1  0
 18 15  1  0
 15 16  1  0
 15 17  1  0
 15 14  1  0
 14 13  1  0
 13 12  1  0
  6 12  1  0
  6  2  1  0
  2  3  1  0
  3  4  2  0
  3  1  1  0
  1 44  1  0
 44 45  1  0
 45 46  1  0
 46 47  1  0
 46 48  2  0
  1 21  1  0
 21 22  1  0
 22 23  2  0
 22 25  1  0
 25 26  1  0
 26 27  1  0
 27 28  2  0
 28 29  1  0
 29 30  2  0
 30 33  1  0
 33 34  2  0
 34 35  1  0
 35 38  1  0
 38 39  2  0
 39 40  1  0
 40 41  2  0
 41 42  1  0
 42 43  2  0
 35 36  2  0
 36 37  1  0
 30 31  1  0
 31 32  2  0
  6  7  1  0
  7  8  1  0
  7  9  2  0
 32 27  1  0
 37 33  1  0
 43 38  1  0
  2  5  1  0
 47 49  1  0
 47 50  1  0
 21 24  1  0
  8 10  1  0
  8 11  1  0
M  END
> <minimizedAffinity>
-9.71564

> <CNNscore>
0.7150096297

> <CNNaffinity>
8.3000726700

> <CNN_VS>
5.9346318245

> <CNNaffinity_variance>
0.7782751918

$$$$



 50 52  0  0  0  0  0  0  0  0999 V2000
    8.2354   26.1225    4.7763 C   0  0  0  0  0  0  0  0  0  0  0  0
    8.5858   28.4132    5.5729 N   0  0  0  0  0  0  0  0  0  0  0  0
    7.7655   27.3132    5.6407 C   0  0  0  0  0  0  0  0  0  0  0  0
    6.7018   27.3277    6.2516 O   0  0  0  0  0  0  0  0  0  0  0  0
    9.4311   28.3358    5.0741 H   0  0  0  0  0  0  0  0  0  0  0  0
    8.2686   29.6870    6.2010 C   0  0  0  0  0  0  0  0  0  0  0  0
    7.8051   29.4132    7.6405 C   0  0  0  0  0  0  0  0  0  0  0  0
    6.4975   29.6926    7.9156 N   0  0  0  0  0  0  0  0  0  0  0  0
    8.5463   28.9629    8.5120 O   0  0  0  0  0  0  0  0  0  0  0  0
    5.9122   30.0529    7.2107 H   0  0  0  0  0  0  0  0  0  0  0  0
    6.1396   29.5338    8.8190 H   0  0  0  0  0  0  0  0  0  0  0  0
    7.2694   30.5334    5.3905 C   0  0  0  0  0  0  0  0  0  0  0  0
    7.1768   30.2157    3.8878 C   0  0  0  0  0  0  0  0  0  0  0  0
    6.4874   31.2886    3.0285 C   0  0  0  0  0  0  0  0  0  0  0  0
    7.2014   31.7231    1.7165 C   0  0  0  0  0  0  0  0  0  0  0  0
    8.7077   31.3840    1.7596 C   0  0  0  0  0  0  0  0  0  0  0  0
    6.5848   30.9885    0.5094 C   0  0  0  0  0  0  0  0  0  0  0  0
    7.1020   33.2697    1.5156 C   0  0  0  0  0  0  0  0  0  0  0  0
    4.5638   32.9484    1.1949 C   0  0  0  0  0  0  0  0  0  0  0  0
    5.7199   33.9211    1.3667 C   0  0  0  0  0  0  0  0  0  0  0  0
    7.3602   24.9670    5.0037 N   0  0  0  0  0  0  0  0  0  0  0  0
    7.7888   23.6701    4.8316 C   0  0  0  0  0  0  0  0  0  0  0  0
    8.9496   23.3771    4.5773 O   0  0  0  0  0  0  0  0  0  0  0  0
    6.4317   25.1250    5.2902 H   0  0  0  0  0  0  0  0  0  0  0  0
    6.6825   22.6515    5.0048 C   0  0  0  0  0  0  0  0  0  0  0  0
    6.2192   22.5806    6.4577 C   0  0  0  0  0  0  0  0  0  0  0  0
    4.7166   22.6429    6.5800 C   0  0  0  0  0  0  0  0  0  0  0  0
    3.9687   23.4444    5.7110 C   0  0  0  0  0  0  0  0  0  0  0  0
    2.5763   23.5080    5.8237 C   0  0  0  0  0  0  0  0  0  0  0  0
    1.8946   22.7714    6.8033 C   0  0  0  0  0  0  0  0  0  0  0  0
    2.6504   21.9654    7.6679 C   0  0  0  0  0  0  0  0  0  0  0  0
    4.0454   21.9059    7.5605 C   0  0  0  0  0  0  0  0  0  0  0  0
    0.4263   22.8470    6.8838 C   0  0  0  0  0  0  0  0  0  0  0  0
   -0.4630   21.8839    7.3313 C   0  0  0  0  0  0  0  0  0  0  0  0
   -1.8356   22.2827    7.2304 C   0  0  0  0  0  0  0  0  0  0  0  0
   -1.9403   23.5540    6.7055 C   0  0  0  0  0  0  0  0  0  0  0  0
   -0.4180   24.2423    6.3468 S   0  0  0  0  0  0  0  0  0  0  0  0
   -3.0093   21.4860    7.5743 C   0  0  0  0  0  0  0  0  0  0  0  0
   -3.7864   21.8300    8.6898 C   0  0  0  0  0  0  0  0  0  0  0  0
   -4.9107   21.0732    9.0315 C   0  0  0  0  0  0  0  0  0  0  0  0
   -5.2696   19.9697    8.2605 C   0  0  0  0  0  0  0  0  0  0  0  0
   -4.5084   19.6242    7.1450 C   0  0  0  0  0  0  0  0  0  0  0  0
   -3.3828   20.3785    6.8017 C   0  0  0  0  0  0  0  0  0  0  0  0
    8.2601   26.4602    3.2820 C   0  0  0  0  0  0  0  0  0  0  0  0
    9.6549   26.3320    2.6687 C   0  0  0  0  0  0  0  0  0  0  0  0
    9.6159   25.6142    1.3374 C   0  0  0  0  0  0  0  0  0  0  0  0
    8.9221   24.4406    1.3577 N   0  0  0  0  0  0  0  0  0  0  0  0
   10.1351   26.0212    0.3066 O   0  0  0  0  0  0  0  0  0  0  0  0
    8.5102   24.1267    2.1950 H   0  0  0  0  0  0  0  0  0  0  0  0
    8.8330   23.9071    0.5351 H   0  0  0  0  0  0  0  0  0  0  0  0
 19 20  1  0
 20 18  1  0
 18 15  1  0
 15 16  1  0
 15 17  1  0
 15 14  1  0
 14 13  1  0
 13 12  1  0
  6 12  1  0
  6  2  1  0
  2  3  1  0
  3  4  2  0
  3  1  1  0
  1 44  1  0
 44 45  1  0
 45 46  1  0
 46 47  1  0
 46 48  2  0
  1 21  1  0
 21 22  1  0
 22 23  2  0
 22 25  1  0
 25 26  1  0
 26 27  1  0
 27 28  2  0
 28 29  1  0
 29 30  2  0
 30 33  1  0
 33 34  2  0
 34 35  1  0
 35 38  1  0
 38 39  2  0
 39 40  1  0
 40 41  2  0
 41 42  1  0
 42 43  2  0
 35 36  2  0
 36 37  1  0
 30 31  1  0
 31 32  2  0
  6  7  1  0
  7  8  1  0
  7  9  2  0
 32 27  1  0
 37 33  1  0
 43 38  1  0
  2  5  1  0
 47 49  1  0
 47 50  1  0
 21 24  1  0
  8 10  1  0
  8 11  1  0
M  END
> <minimizedAffinity>
-8.63016

> <CNNscore>
0.6632124782

> <CNNaffinity>
7.9781022072

> <CNN_VS>
5.2911767960

> <CNNaffinity_variance>
0.5046483874

$$$$



 50 52  0  0  0  0  0  0  0  0999 V2000
    7.0718   28.7097    6.2179 C   0  0  0  0  0  0  0  0  0  0  0  0
    8.1775   29.8308    4.3402 N   0  0  0  0  0  0  0  0  0  0  0  0
    7.4963   30.0198    5.5184 C   0  0  0  0  0  0  0  0  0  0  0  0
    7.1676   31.1342    5.9119 O   0  0  0  0  0  0  0  0  0  0  0  0
    8.4207   28.9120    4.0833 H   0  0  0  0  0  0  0  0  0  0  0  0
    8.5575   30.9197    3.4530 C   0  0  0  0  0  0  0  0  0  0  0  0
    9.7056   31.7008    4.1118 C   0  0  0  0  0  0  0  0  0  0  0  0
    9.3583   32.8535    4.7555 N   0  0  0  0  0  0  0  0  0  0  0  0
   10.8770   31.3286    4.0816 O   0  0  0  0  0  0  0  0  0  0  0  0
    8.4174   33.1428    4.7738 H   0  0  0  0  0  0  0  0  0  0  0  0
   10.0487   33.3956    5.2013 H   0  0  0  0  0  0  0  0  0  0  0  0
    7.3717   31.8122    3.0416 C   0  0  0  0  0  0  0  0  0  0  0  0
    7.3675   32.3010    1.5827 C   0  0  0  0  0  0  0  0  0  0  0  0
    6.3714   31.5894    0.6520 C   0  0  0  0  0  0  0  0  0  0  0  0
    5.8386   32.3883   -0.5720 C   0  0  0  0  0  0  0  0  0  0  0  0
    4.3643   32.0380   -0.8709 C   0  0  0  0  0  0  0  0  0  0  0  0
    5.9185   33.9022   -0.2921 C   0  0  0  0  0  0  0  0  0  0  0  0
    6.6474   32.0341   -1.8615 C   0  0  0  0  0  0  0  0  0  0  0  0
    6.3639   33.1682   -4.1598 C   0  0  0  0  0  0  0  0  0  0  0  0
    5.9370   32.0497   -3.2223 C   0  0  0  0  0  0  0  0  0  0  0  0
    7.0575   27.6097    5.2470 N   0  0  0  0  0  0  0  0  0  0  0  0
    8.2032   26.9543    4.8558 C   0  0  0  0  0  0  0  0  0  0  0  0
    9.2995   27.1658    5.3573 O   0  0  0  0  0  0  0  0  0  0  0  0
    6.1962   27.3299    4.8608 H   0  0  0  0  0  0  0  0  0  0  0  0
    7.9615   25.9402    3.7583 C   0  0  0  0  0  0  0  0  0  0  0  0
    8.1120   24.5138    4.2810 C   0  0  0  0  0  0  0  0  0  0  0  0
    6.8526   24.0148    4.9455 C   0  0  0  0  0  0  0  0  0  0  0  0
    5.6023   24.4986    4.5455 C   0  0  0  0  0  0  0  0  0  0  0  0
    4.4331   24.0417    5.1616 C   0  0  0  0  0  0  0  0  0  0  0  0
    4.4808   23.0886    6.1893 C   0  0  0  0  0  0  0  0  0  0  0  0
    5.7375   22.6037    6.5818 C   0  0  0  0  0  0  0  0  0  0  0  0
    6.9098   23.0653    5.9702 C   0  0  0  0  0  0  0  0  0  0  0  0
    3.2299   22.6155    6.8052 C   0  0  0  0  0  0  0  0  0  0  0  0
    1.9295   22.9945    6.5154 C   0  0  0  0  0  0  0  0  0  0  0  0
    0.9503   22.3576    7.3454 C   0  0  0  0  0  0  0  0  0  0  0  0
    1.5511   21.5031    8.2463 C   0  0  0  0  0  0  0  0  0  0  0  0
    3.2523   21.4749    8.0884 S   0  0  0  0  0  0  0  0  0  0  0  0
   -0.4932   22.5726    7.3238 C   0  0  0  0  0  0  0  0  0  0  0  0
   -1.3649   21.4915    7.5186 C   0  0  0  0  0  0  0  0  0  0  0  0
   -2.7491   21.6838    7.4970 C   0  0  0  0  0  0  0  0  0  0  0  0
   -3.2735   22.9568    7.2842 C   0  0  0  0  0  0  0  0  0  0  0  0
   -2.4155   24.0395    7.0976 C   0  0  0  0  0  0  0  0  0  0  0  0
   -1.0307   23.8499    7.1175 C   0  0  0  0  0  0  0  0  0  0  0  0
    7.9923   28.3483    7.3881 C   0  0  0  0  0  0  0  0  0  0  0  0
    7.3873   28.6986    8.7479 C   0  0  0  0  0  0  0  0  0  0  0  0
    8.1000   29.8674    9.3921 C   0  0  0  0  0  0  0  0  0  0  0  0
    9.3812   30.0448    8.9605 N   0  0  0  0  0  0  0  0  0  0  0  0
    7.6045   30.6200   10.2202 O   0  0  0  0  0  0  0  0  0  0  0  0
    9.7655   29.4307    8.2938 H   0  0  0  0  0  0  0  0  0  0  0  0
    9.9220   30.7869    9.3156 H   0  0  0  0  0  0  0  0  0  0  0  0
 19 20  1  0
 20 18  1  0
 18 15  1  0
 15 16  1  0
 15 17  1  0
 15 14  1  0
 14 13  1  0
 13 12  1  0
  6 12  1  0
  6  2  1  0
  2  3  1  0
  3  4  2  0
  3  1  1  0
  1 44  1  0
 44 45  1  0
 45 46  1  0
 46 47  1  0
 46 48  2  0
  1 21  1  0
 21 22  1  0
 22 23  2  0
 22 25  1  0
 25 26  1  0
 26 27  1  0
 27 28  2  0
 28 29  1  0
 29 30  2  0
 30 33  1  0
 33 34  2  0
 34 35  1  0
 35 38  1  0
 38 39  2  0
 39 40  1  0
 40 41  2  0
 41 42  1  0
 42 43  2  0
 35 36  2  0
 36 37  1  0
 30 31  1  0
 31 32  2  0
  6  7  1  0
  7  8  1  0
  7  9  2  0
 32 27  1  0
 37 33  1  0
 43 38  1  0
  2  5  1  0
 47 49  1  0
 47 50  1  0
 21 24  1  0
  8 10  1  0
  8 11  1  0
M  END
> <minimizedAffinity>
-7.90255

> <CNNscore>
0.4980062842

> <CNNaffinity>
7.8918685913

> <CNN_VS>
3.9302000999

> <CNNaffinity_variance>
0.1190758348

$$$$



 50 52  0  0  0  0  0  0  0  0999 V2000
    7.0604   28.7347    6.2440 C   0  0  0  0  0  0  0  0  0  0  0  0
    8.7747   30.4310    5.8095 N   0  0  0  0  0  0  0  0  0  0  0  0
    7.5053   30.0100    5.4946 C   0  0  0  0  0  0  0  0  0  0  0  0
    6.8380   30.5460    4.6158 O   0  0  0  0  0  0  0  0  0  0  0  0
    9.2560   29.9652    6.5311 H   0  0  0  0  0  0  0  0  0  0  0  0
    9.4437   31.5305    5.1306 C   0  0  0  0  0  0  0  0  0  0  0  0
    8.4825   32.7290    5.0897 C   0  0  0  0  0  0  0  0  0  0  0  0
    7.9867   33.0617    3.8620 N   0  0  0  0  0  0  0  0  0  0  0  0
    8.1570   33.3651    6.0902 O   0  0  0  0  0  0  0  0  0  0  0  0
    8.2536   32.5460    3.0670 H   0  0  0  0  0  0  0  0  0  0  0  0
    7.3621   33.8174    3.7716 H   0  0  0  0  0  0  0  0  0  0  0  0
    9.9955   31.1453    3.7453 C   0  0  0  0  0  0  0  0  0  0  0  0
    8.9504   30.9337    2.6360 C   0  0  0  0  0  0  0  0  0  0  0  0
    8.8788   29.5094    2.0608 C   0  0  0  0  0  0  0  0  0  0  0  0
    8.1115   29.3156    0.7214 C   0  0  0  0  0  0  0  0  0  0  0  0
    9.0809   29.2894   -0.4808 C   0  0  0  0  0  0  0  0  0  0  0  0
    7.3430   27.9793    0.7396 C   0  0  0  0  0  0  0  0  0  0  0  0
    7.1260   30.5019    0.4689 C   0  0  0  0  0  0  0  0  0  0  0  0
    6.5048   31.7033   -1.7265 C   0  0  0  0  0  0  0  0  0  0  0  0
    6.2747   30.5130   -0.8085 C   0  0  0  0  0  0  0  0  0  0  0  0
    7.0691   27.5901    5.3260 N   0  0  0  0  0  0  0  0  0  0  0  0
    8.2340   27.0492    4.8302 C   0  0  0  0  0  0  0  0  0  0  0  0
    9.3462   27.4103    5.1915 O   0  0  0  0  0  0  0  0  0  0  0  0
    6.2097   27.1941    5.0544 H   0  0  0  0  0  0  0  0  0  0  0  0
    7.9940   25.9572    3.8097 C   0  0  0  0  0  0  0  0  0  0  0  0
    8.1788   24.5734    4.4273 C   0  0  0  0  0  0  0  0  0  0  0  0
    6.9068   24.0532    5.0501 C   0  0  0  0  0  0  0  0  0  0  0  0
    5.6628   24.5254    4.6179 C   0  0  0  0  0  0  0  0  0  0  0  0
    4.4818   24.0488    5.1953 C   0  0  0  0  0  0  0  0  0  0  0  0
    4.5112   23.0869    6.2154 C   0  0  0  0  0  0  0  0  0  0  0  0
    5.7619   22.6136    6.6403 C   0  0  0  0  0  0  0  0  0  0  0  0
    6.9457   23.0949    6.0675 C   0  0  0  0  0  0  0  0  0  0  0  0
    3.2488   22.5929    6.7901 C   0  0  0  0  0  0  0  0  0  0  0  0
    1.9546   22.9898    6.4962 C   0  0  0  0  0  0  0  0  0  0  0  0
    0.9598   22.3218    7.2821 C   0  0  0  0  0  0  0  0  0  0  0  0
    1.5428   21.4265    8.1545 C   0  0  0  0  0  0  0  0  0  0  0  0
    3.2462   21.3977    8.0227 S   0  0  0  0  0  0  0  0  0  0  0  0
   -0.4824   22.5439    7.2467 C   0  0  0  0  0  0  0  0  0  0  0  0
   -1.3606   21.4835    7.5131 C   0  0  0  0  0  0  0  0  0  0  0  0
   -2.7436   21.6825    7.4792 C   0  0  0  0  0  0  0  0  0  0  0  0
   -3.2603   22.9419    7.1826 C   0  0  0  0  0  0  0  0  0  0  0  0
   -2.3957   24.0045    6.9243 C   0  0  0  0  0  0  0  0  0  0  0  0
   -1.0121   23.8080    6.9563 C   0  0  0  0  0  0  0  0  0  0  0  0
    7.9498   28.4284    7.4533 C   0  0  0  0  0  0  0  0  0  0  0  0
    7.5046   29.1640    8.7176 C   0  0  0  0  0  0  0  0  0  0  0  0
    8.1962   28.6249    9.9506 C   0  0  0  0  0  0  0  0  0  0  0  0
    9.3603   29.2639   10.2602 N   0  0  0  0  0  0  0  0  0  0  0  0
    7.7769   27.7085   10.6447 O   0  0  0  0  0  0  0  0  0  0  0  0
    9.6844   29.9994    9.6917 H   0  0  0  0  0  0  0  0  0  0  0  0
    9.8767   28.9897   11.0523 H   0  0  0  0  0  0  0  0  0  0  0  0
 19 20  1  0
 20 18  1  0
 18 15  1  0
 15 16  1  0
 15 17  1  0
 15 14  1  0
 14 13  1  0
 13 12  1  0
  6 12  1  0
  6  2  1  0
  2  3  1  0
  3  4  2  0
  3  1  1  0
  1 44  1  0
 44 45  1  0
 45 46  1  0
 46 47  1  0
 46 48  2  0
  1 21  1  0
 21 22  1  0
 22 23  2  0
 22 25  1  0
 25 26  1  0
 26 27  1  0
 27 28  2  0
 28 29  1  0
 29 30  2  0
 30 33  1  0
 33 34  2  0
 34 35  1  0
 35 38  1  0
 38 39  2  0
 39 40  1  0
 40 41  2  0
 41 42  1  0
 42 43  2  0
 35 36  2  0
 36 37  1  0
 30 31  1  0
 31 32  2  0
  6  7  1  0
  7  8  1  0
  7  9  2  0
 32 27  1  0
 37 33  1  0
 43 38  1  0
  2  5  1  0
 47 49  1  0
 47 50  1  0
 21 24  1  0
  8 10  1  0
  8 11  1  0
M  END
> <minimizedAffinity>
-8.12861

> <CNNscore>
0.4536527693

> <CNNaffinity>
7.9765496254

> <CNN_VS>
3.6185839176

> <CNNaffinity_variance>
0.2135805637

$$$$



 50 52  0  0  0  0  0  0  0  0999 V2000
    7.9631   28.5568    5.3305 C   0  0  0  0  0  0  0  0  0  0  0  0
    6.9813   26.3117    5.3513 N   0  0  0  0  0  0  0  0  0  0  0  0
    8.1559   27.0244    5.3469 C   0  0  0  0  0  0  0  0  0  0  0  0
    9.2510   26.4791    5.2550 O   0  0  0  0  0  0  0  0  0  0  0  0
    6.1346   26.8068    5.4365 H   0  0  0  0  0  0  0  0  0  0  0  0
    6.9253   24.8622    5.2362 C   0  0  0  0  0  0  0  0  0  0  0  0
    7.6455   24.4525    3.9417 C   0  0  0  0  0  0  0  0  0  0  0  0
    8.7896   23.7235    4.0939 N   0  0  0  0  0  0  0  0  0  0  0  0
    7.2337   24.7454    2.8209 O   0  0  0  0  0  0  0  0  0  0  0  0
    9.1108   23.4941    4.9959 H   0  0  0  0  0  0  0  0  0  0  0  0
    9.2935   23.4271    3.3018 H   0  0  0  0  0  0  0  0  0  0  0  0
    5.4963   24.2976    5.3425 C   0  0  0  0  0  0  0  0  0  0  0  0
    5.3823   22.8175    5.7470 C   0  0  0  0  0  0  0  0  0  0  0  0
    4.5684   22.5436    7.0227 C   0  0  0  0  0  0  0  0  0  0  0  0
    3.0537   22.2325    6.8528 C   0  0  0  0  0  0  0  0  0  0  0  0
    2.3348   23.3560    6.0739 C   0  0  0  0  0  0  0  0  0  0  0  0
    2.8674   20.9183    6.0686 C   0  0  0  0  0  0  0  0  0  0  0  0
    2.3468   22.1363    8.2433 C   0  0  0  0  0  0  0  0  0  0  0  0
   -0.1866   21.6593    8.2981 C   0  0  0  0  0  0  0  0  0  0  0  0
    1.2235   21.1098    8.4461 C   0  0  0  0  0  0  0  0  0  0  0  0
    8.3254   29.1175    6.6371 N   0  0  0  0  0  0  0  0  0  0  0  0
    7.4358   29.1823    7.6858 C   0  0  0  0  0  0  0  0  0  0  0  0
    6.3161   28.6899    7.6449 O   0  0  0  0  0  0  0  0  0  0  0  0
    9.2388   29.4603    6.7688 H   0  0  0  0  0  0  0  0  0  0  0  0
    7.9922   29.9085    8.8919 C   0  0  0  0  0  0  0  0  0  0  0  0
    8.7766   28.9598    9.7948 C   0  0  0  0  0  0  0  0  0  0  0  0
    8.0065   28.5901   11.0384 C   0  0  0  0  0  0  0  0  0  0  0  0
    8.5869   27.7707   12.0126 C   0  0  0  0  0  0  0  0  0  0  0  0
    7.8749   27.4224   13.1646 C   0  0  0  0  0  0  0  0  0  0  0  0
    6.5680   27.8852   13.3760 C   0  0  0  0  0  0  0  0  0  0  0  0
    5.9941   28.7110   12.3977 C   0  0  0  0  0  0  0  0  0  0  0  0
    6.7034   29.0551   11.2403 C   0  0  0  0  0  0  0  0  0  0  0  0
    5.8523   27.5143   14.6082 C   0  0  0  0  0  0  0  0  0  0  0  0
    4.5309   27.1251   14.7533 C   0  0  0  0  0  0  0  0  0  0  0  0
    4.1546   26.8765   16.1135 C   0  0  0  0  0  0  0  0  0  0  0  0
    5.2202   27.0858   16.9639 C   0  0  0  0  0  0  0  0  0  0  0  0
    6.6347   27.5689   16.1356 S   0  0  0  0  0  0  0  0  0  0  0  0
    2.8333   26.4970   16.6039 C   0  0  0  0  0  0  0  0  0  0  0  0
    1.6900   26.8265   15.8616 C   0  0  0  0  0  0  0  0  0  0  0  0
    0.4189   26.4715   16.3219 C   0  0  0  0  0  0  0  0  0  0  0  0
    0.2797   25.7823   17.5246 C   0  0  0  0  0  0  0  0  0  0  0  0
    1.4105   25.4429   18.2659 C   0  0  0  0  0  0  0  0  0  0  0  0
    2.6828   25.7977   17.8085 C   0  0  0  0  0  0  0  0  0  0  0  0
    8.7893   29.2371    4.2341 C   0  0  0  0  0  0  0  0  0  0  0  0
    7.9257   29.9980    3.2276 C   0  0  0  0  0  0  0  0  0  0  0  0
    8.0686   29.4349    1.8306 C   0  0  0  0  0  0  0  0  0  0  0  0
    7.2481   28.3775    1.5699 N   0  0  0  0  0  0  0  0  0  0  0  0
    8.8296   29.8674    0.9754 O   0  0  0  0  0  0  0  0  0  0  0  0
    6.6415   28.0411    2.2685 H   0  0  0  0  0  0  0  0  0  0  0  0
    7.2623   27.9503    0.6830 H   0  0  0  0  0  0  0  0  0  0  0  0
 19 20  1  0
 20 18  1  0
 18 15  1  0
 15 16  1  0
 15 17  1  0
 15 14  1  0
 14 13  1  0
 13 12  1  0
  6 12  1  0
  6  2  1  0
  2  3  1  0
  3  4  2  0
  3  1  1  0
  1 44  1  0
 44 45  1  0
 45 46  1  0
 46 47  1  0
 46 48  2  0
  1 21  1  0
 21 22  1  0
 22 23  2  0
 22 25  1  0
 25 26  1  0
 26 27  1  0
 27 28  2  0
 28 29  1  0
 29 30  2  0
 30 33  1  0
 33 34  2  0
 34 35  1  0
 35 38  1  0
 38 39  2  0
 39 40  1  0
 40 41  2  0
 41 42  1  0
 42 43  2  0
 35 36  2  0
 36 37  1  0
 30 31  1  0
 31 32  2  0
  6  7  1  0
  7  8  1  0
  7  9  2  0
 32 27  1  0
 37 33  1  0
 43 38  1  0
  2  5  1  0
 47 49  1  0
 47 50  1  0
 21 24  1  0
  8 10  1  0
  8 11  1  0
M  END
> <minimizedAffinity>
-8.54974

> <CNNscore>
0.4448874891

> <CNNaffinity>
7.7543959618

> <CNN_VS>
3.4498336315

> <CNNaffinity_variance>
0.4382363260

$$$$



 50 52  0  0  0  0  0  0  0  0999 V2000
    7.2364   28.6021    5.7730 C   0  0  0  0  0  0  0  0  0  0  0  0
    7.7361   29.5329    3.5620 N   0  0  0  0  0  0  0  0  0  0  0  0
    7.8509   29.7312    4.9167 C   0  0  0  0  0  0  0  0  0  0  0  0
    8.3062   30.7676    5.3893 O   0  0  0  0  0  0  0  0  0  0  0  0
    7.3707   28.6756    3.2445 H   0  0  0  0  0  0  0  0  0  0  0  0
    8.1273   30.5258    2.5727 C   0  0  0  0  0  0  0  0  0  0  0  0
    6.9724   31.5270    2.4109 C   0  0  0  0  0  0  0  0  0  0  0  0
    7.1547   32.7539    2.9812 N   0  0  0  0  0  0  0  0  0  0  0  0
    5.9362   31.2665    1.8028 O   0  0  0  0  0  0  0  0  0  0  0  0
    7.9882   32.9524    3.4660 H   0  0  0  0  0  0  0  0  0  0  0  0
    6.4526   33.4401    2.9076 H   0  0  0  0  0  0  0  0  0  0  0  0
    8.5886   29.9082    1.2394 C   0  0  0  0  0  0  0  0  0  0  0  0
    8.0659   28.4939    0.9326 C   0  0  0  0  0  0  0  0  0  0  0  0
    9.1158   27.3728    1.0063 C   0  0  0  0  0  0  0  0  0  0  0  0
    9.8206   26.9633   -0.3188 C   0  0  0  0  0  0  0  0  0  0  0  0
   10.1932   28.2029   -1.1615 C   0  0  0  0  0  0  0  0  0  0  0  0
   11.1193   26.1915   -0.0115 C   0  0  0  0  0  0  0  0  0  0  0  0
    8.8729   26.0937   -1.2066 C   0  0  0  0  0  0  0  0  0  0  0  0
    8.1610   24.0561    0.2041 C   0  0  0  0  0  0  0  0  0  0  0  0
    8.8747   24.5680   -1.0373 C   0  0  0  0  0  0  0  0  0  0  0  0
    7.1333   27.3741    4.9767 N   0  0  0  0  0  0  0  0  0  0  0  0
    8.2363   26.6370    4.6088 C   0  0  0  0  0  0  0  0  0  0  0  0
    9.3691   26.8879    4.9985 O   0  0  0  0  0  0  0  0  0  0  0  0
    6.2419   27.0656    4.6948 H   0  0  0  0  0  0  0  0  0  0  0  0
    7.8989   25.4820    3.6904 C   0  0  0  0  0  0  0  0  0  0  0  0
    8.0406   24.1435    4.4108 C   0  0  0  0  0  0  0  0  0  0  0  0
    6.7554   23.7154    5.0752 C   0  0  0  0  0  0  0  0  0  0  0  0
    5.5368   24.2857    4.6920 C   0  0  0  0  0  0  0  0  0  0  0  0
    4.3440   23.8947    5.3081 C   0  0  0  0  0  0  0  0  0  0  0  0
    4.3358   22.9228    6.3192 C   0  0  0  0  0  0  0  0  0  0  0  0
    5.5607   22.3510    6.6948 C   0  0  0  0  0  0  0  0  0  0  0  0
    6.7569   22.7465    6.0833 C   0  0  0  0  0  0  0  0  0  0  0  0
    3.0604   22.5207    6.9354 C   0  0  0  0  0  0  0  0  0  0  0  0
    1.7787   22.9350    6.6122 C   0  0  0  0  0  0  0  0  0  0  0  0
    0.7660   22.3681    7.4528 C   0  0  0  0  0  0  0  0  0  0  0  0
    1.3231   21.5292    8.3954 C   0  0  0  0  0  0  0  0  0  0  0  0
    3.0241   21.4326    8.2631 S   0  0  0  0  0  0  0  0  0  0  0  0
   -0.6681   22.6346    7.4020 C   0  0  0  0  0  0  0  0  0  0  0  0
   -1.1322   23.9558    7.3250 C   0  0  0  0  0  0  0  0  0  0  0  0
   -2.5030   24.2244    7.2790 C   0  0  0  0  0  0  0  0  0  0  0  0
   -3.4207   23.1764    7.3063 C   0  0  0  0  0  0  0  0  0  0  0  0
   -2.9694   21.8593    7.3746 C   0  0  0  0  0  0  0  0  0  0  0  0
   -1.5990   21.5878    7.4219 C   0  0  0  0  0  0  0  0  0  0  0  0
    8.0494   28.3235    7.0414 C   0  0  0  0  0  0  0  0  0  0  0  0
    7.3950   28.8914    8.3012 C   0  0  0  0  0  0  0  0  0  0  0  0
    8.3500   28.8930    9.4747 C   0  0  0  0  0  0  0  0  0  0  0  0
    9.4779   29.6324    9.2737 N   0  0  0  0  0  0  0  0  0  0  0  0
    8.1605   28.3083   10.5329 O   0  0  0  0  0  0  0  0  0  0  0  0
    9.6157   30.0969    8.4167 H   0  0  0  0  0  0  0  0  0  0  0  0
   10.1544   29.7017    9.9855 H   0  0  0  0  0  0  0  0  0  0  0  0
 19 20  1  0
 20 18  1  0
 18 15  1  0
 15 16  1  0
 15 17  1  0
 15 14  1  0
 14 13  1  0
 13 12  1  0
  6 12  1  0
  6  2  1  0
  2  3  1  0
  3  4  2  0
  3  1  1  0
  1 44  1  0
 44 45  1  0
 45 46  1  0
 46 47  1  0
 46 48  2  0
  1 21  1  0
 21 22  1  0
 22 23  2  0
 22 25  1  0
 25 26  1  0
 26 27  1  0
 27 28  2  0
 28 29  1  0
 29 30  2  0
 30 33  1  0
 33 34  2  0
 34 35  1  0
 35 38  1  0
 38 39  2  0
 39 40  1  0
 40 41  2  0
 41 42  1  0
 42 43  2  0
 35 36  2  0
 36 37  1  0
 30 31  1  0
 31 32  2  0
  6  7  1  0
  7  8  1  0
  7  9  2  0
 32 27  1  0
 37 33  1  0
 43 38  1  0
  2  5  1  0
 47 49  1  0
 47 50  1  0
 21 24  1  0
  8 10  1  0
  8 11  1  0
M  END
> <minimizedAffinity>
-8.76420

> <CNNscore>
0.4173454940

> <CNNaffinity>
7.7193045616

> <CNN_VS>
3.2216169834

> <CNNaffinity_variance>
0.7274653912

$$$$



 50 52  0  0  0  0  0  0  0  0999 V2000
    8.3468   25.0160    5.0983 C   0  0  0  0  0  0  0  0  0  0  0  0
    7.6609   27.2159    5.9318 N   0  0  0  0  0  0  0  0  0  0  0  0
    8.6324   26.5266    5.2472 C   0  0  0  0  0  0  0  0  0  0  0  0
    9.6787   27.0561    4.8869 O   0  0  0  0  0  0  0  0  0  0  0  0
    6.8392   26.7368    6.1859 H   0  0  0  0  0  0  0  0  0  0  0  0
    7.7849   28.6181    6.3003 C   0  0  0  0  0  0  0  0  0  0  0  0
    7.4723   28.7528    7.7990 C   0  0  0  0  0  0  0  0  0  0  0  0
    8.5402   28.9787    8.6190 N   0  0  0  0  0  0  0  0  0  0  0  0
    6.3350   28.6724    8.2591 O   0  0  0  0  0  0  0  0  0  0  0  0
    9.4468   29.0414    8.2406 H   0  0  0  0  0  0  0  0  0  0  0  0
    8.4035   29.0788    9.5889 H   0  0  0  0  0  0  0  0  0  0  0  0
    6.9429   29.5569    5.4162 C   0  0  0  0  0  0  0  0  0  0  0  0
    7.3550   29.6421    3.9362 C   0  0  0  0  0  0  0  0  0  0  0  0
    6.7094   30.7863    3.1370 C   0  0  0  0  0  0  0  0  0  0  0  0
    7.5182   32.1078    2.9974 C   0  0  0  0  0  0  0  0  0  0  0  0
    7.4727   32.6422    1.5489 C   0  0  0  0  0  0  0  0  0  0  0  0
    6.9265   33.1913    3.9209 C   0  0  0  0  0  0  0  0  0  0  0  0
    9.0261   31.8748    3.3354 C   0  0  0  0  0  0  0  0  0  0  0  0
   11.2945   32.8770    2.6293 C   0  0  0  0  0  0  0  0  0  0  0  0
   10.0797   32.0525    2.2332 C   0  0  0  0  0  0  0  0  0  0  0  0
    6.9041   24.7700    5.2034 N   0  0  0  0  0  0  0  0  0  0  0  0
    6.3796   23.7787    6.0018 C   0  0  0  0  0  0  0  0  0  0  0  0
    7.0603   23.0980    6.7576 O   0  0  0  0  0  0  0  0  0  0  0  0
    6.2880   25.3352    4.6835 H   0  0  0  0  0  0  0  0  0  0  0  0
    4.8798   23.6321    5.8579 C   0  0  0  0  0  0  0  0  0  0  0  0
    4.3801   22.3640    6.5456 C   0  0  0  0  0  0  0  0  0  0  0  0
    2.9008   22.4196    6.8374 C   0  0  0  0  0  0  0  0  0  0  0  0
    2.0661   23.2683    6.1024 C   0  0  0  0  0  0  0  0  0  0  0  0
    0.6953   23.3257    6.3726 C   0  0  0  0  0  0  0  0  0  0  0  0
    0.1219   22.5359    7.3797 C   0  0  0  0  0  0  0  0  0  0  0  0
    0.9638   21.6830    8.1092 C   0  0  0  0  0  0  0  0  0  0  0  0
    2.3379   21.6294    7.8442 C   0  0  0  0  0  0  0  0  0  0  0  0
   -1.3279   22.6071    7.6270 C   0  0  0  0  0  0  0  0  0  0  0  0
   -2.1542   21.6484    8.1898 C   0  0  0  0  0  0  0  0  0  0  0  0
   -3.5318   22.0399    8.2404 C   0  0  0  0  0  0  0  0  0  0  0  0
   -3.7036   23.3014    7.7096 C   0  0  0  0  0  0  0  0  0  0  0  0
   -2.2365   23.9894    7.1668 S   0  0  0  0  0  0  0  0  0  0  0  0
   -4.6535   21.2447    8.7302 C   0  0  0  0  0  0  0  0  0  0  0  0
   -5.8846   21.8610    8.9971 C   0  0  0  0  0  0  0  0  0  0  0  0
   -6.9653   21.1111    9.4696 C   0  0  0  0  0  0  0  0  0  0  0  0
   -6.8264   19.7404    9.6759 C   0  0  0  0  0  0  0  0  0  0  0  0
   -5.6092   19.1169    9.4059 C   0  0  0  0  0  0  0  0  0  0  0  0
   -4.5263   19.8645    8.9345 C   0  0  0  0  0  0  0  0  0  0  0  0
    8.8674   24.4516    3.7724 C   0  0  0  0  0  0  0  0  0  0  0  0
    8.6986   25.4264    2.6066 C   0  0  0  0  0  0  0  0  0  0  0  0
    7.7676   24.8760    1.5485 C   0  0  0  0  0  0  0  0  0  0  0  0
    6.5299   25.4482    1.5438 N   0  0  0  0  0  0  0  0  0  0  0  0
    8.0621   24.0056    0.7404 O   0  0  0  0  0  0  0  0  0  0  0  0
    6.3084   26.1474    2.2005 H   0  0  0  0  0  0  0  0  0  0  0  0
    5.8579   25.1622    0.8837 H   0  0  0  0  0  0  0  0  0  0  0  0
 19 20  1  0
 20 18  1  0
 18 15  1  0
 15 16  1  0
 15 17  1  0
 15 14  1  0
 14 13  1  0
 13 12  1  0
  6 12  1  0
  6  2  1  0
  2  3  1  0
  3  4  2  0
  3  1  1  0
  1 44  1  0
 44 45  1  0
 45 46  1  0
 46 47  1  0
 46 48  2  0
  1 21  1  0
 21 22  1  0
 22 23  2  0
 22 25  1  0
 25 26  1  0
 26 27  1  0
 27 28  2  0
 28 29  1  0
 29 30  2  0
 30 33  1  0
 33 34  2  0
 34 35  1  0
 35 38  1  0
 38 39  2  0
 39 40  1  0
 40 41  2  0
 41 42  1  0
 42 43  2  0
 35 36  2  0
 36 37  1  0
 30 31  1  0
 31 32  2  0
  6  7  1  0
  7  8  1  0
  7  9  2  0
 32 27  1  0
 37 33  1  0
 43 38  1  0
  2  5  1  0
 47 49  1  0
 47 50  1  0
 21 24  1  0
  8 10  1  0
  8 11  1  0
M  END
> <minimizedAffinity>
-9.32770

> <CNNscore>
0.4165360332

> <CNNaffinity>
7.5750827789

> <CNN_VS>
3.1552948952

> <CNNaffinity_variance>
0.5255775452

$$$$
