


 28 28  0  0  0  0  0  0  0  0999 V2000
   -1.2843   -2.4606   -4.6140 C   0  0  0  0  0  0  0  0  0  0  0  0
   -2.6012   -2.9965   -4.0565 C   0  0  0  0  0  0  0  0  0  0  0  0
   -0.8986   -3.2621   -5.8167 N   0  0  0  0  0  0  0  0  0  0  0  0
   -1.5443   -3.0243   -6.5696 H   0  0  0  0  0  0  0  0  0  0  0  0
   -0.9196   -4.9609   -5.6282 S   0  0  0  0  0  0  0  0  0  0  0  0
    0.3668   -5.3929   -6.1287 O   0  0  0  0  0  0  0  0  0  0  0  0
   -1.2421   -5.1616   -4.2277 O   0  0  0  0  0  0  0  0  0  0  0  0
   -4.3007   -6.4283   -8.2902 C   0  0  0  0  0  0  0  0  0  0  0  0
   -3.0338   -6.1943   -8.8338 C   0  0  0  0  0  0  0  0  0  0  0  0
   -1.9868   -5.7432   -8.0199 C   0  0  0  0  0  0  0  0  0  0  0  0
   -2.2271   -5.5129   -6.6588 C   0  0  0  0  0  0  0  0  0  0  0  0
   -3.4889   -5.7405   -6.1099 C   0  0  0  0  0  0  0  0  0  0  0  0
   -4.5241   -6.1883   -6.9310 C   0  0  0  0  0  0  0  0  0  0  0  0
   -6.5967   -7.0452   -8.2134 C   0  0  0  0  0  0  0  0  0  0  0  0
   -5.3912   -6.8911   -8.9617 O   0  0  0  0  0  0  0  0  0  0  0  0
   -1.3048   -0.9211   -4.8771 C   0  0  0  0  0  0  0  0  0  0  0  0
   -0.7348    0.1211   -3.7529 N   0  0  0  0  0  0  0  0  0  0  0  0
   -0.3911    1.4610   -4.3865 C   0  0  0  0  0  0  0  0  0  0  0  0
   -1.9662    0.3440   -2.8418 C   0  0  0  0  0  0  0  0  0  0  0  0
    0.4308   -0.5879   -3.0506 C   0  0  0  0  0  0  0  0  0  0  0  0
    1.0037   -0.1388   -1.7116 N   0  0  0  0  0  0  0  0  0  0  0  0
    2.3506   -0.7816   -1.3783 C   0  0  0  0  0  0  0  0  0  0  0  0
    1.2248    1.3943   -1.6374 C   0  0  0  0  0  0  0  0  0  0  0  0
   -0.0213   -0.3839   -0.5555 C   0  0  0  0  0  0  0  0  0  0  0  0
   -0.4922   -1.7528   -0.1277 N   0  0  0  0  0  0  0  0  0  0  0  0
   -0.2292   -2.9170   -1.0741 C   0  0  0  0  0  0  0  0  0  0  0  0
   -1.9606   -1.7704    0.3230 C   0  0  0  0  0  0  0  0  0  0  0  0
    0.3090   -2.1109    1.1818 C   0  0  0  0  0  0  0  0  0  0  0  0
 14 15  1  0
 15  8  1  0
  8  9  2  0
  9 10  1  0
 10 11  2  0
 11  5  1  0
  5  6  2  0
  5  7  2  0
  5  3  1  0
  3  1  1  0
  1  2  1  0
  1 16  1  0
 16 17  1  0
 17 18  1  0
 17 19  1  0
 17 20  1  0
 20 21  1  0
 21 22  1  0
 21 23  1  0
 21 24  1  0
 24 25  1  0
 25 26  1  0
 25 27  1  0
 25 28  1  0
 11 12  1  0
 12 13  2  0
 13  8  1  0
  3  4  1  0
M  CHG 1  17   1
M  CHG 1  21   1
M  CHG 1  25   1
M  END
> <minimizedAffinity>
-7.09227

> <CNNscore>
0.8645058870

> <CNNaffinity>
5.9279961586

> <CNN_VS>
5.1247878075

> <CNNaffinity_variance>
0.6269745231

$$$$



 28 28  0  0  0  0  0  0  0  0999 V2000
   -1.0025   -3.8148   -4.3263 C   0  0  0  0  0  0  0  0  0  0  0  0
   -2.2431   -3.0887   -3.8105 C   0  0  0  0  0  0  0  0  0  0  0  0
   -0.9738   -3.7360   -5.8198 N   0  0  0  0  0  0  0  0  0  0  0  0
   -1.8226   -3.2584   -6.1229 H   0  0  0  0  0  0  0  0  0  0  0  0
   -0.8887   -5.2271   -6.6512 S   0  0  0  0  0  0  0  0  0  0  0  0
   -0.1863   -4.9147   -7.8764 O   0  0  0  0  0  0  0  0  0  0  0  0
   -0.2827   -6.1356   -5.6957 O   0  0  0  0  0  0  0  0  0  0  0  0
   -5.2077   -6.4008   -7.4514 C   0  0  0  0  0  0  0  0  0  0  0  0
   -4.2978   -6.3181   -8.5100 C   0  0  0  0  0  0  0  0  0  0  0  0
   -2.9653   -5.9582   -8.2713 C   0  0  0  0  0  0  0  0  0  0  0  0
   -2.5581   -5.6657   -6.9629 C   0  0  0  0  0  0  0  0  0  0  0  0
   -3.4605   -5.7425   -5.9022 C   0  0  0  0  0  0  0  0  0  0  0  0
   -4.7855   -6.1005   -6.1528 C   0  0  0  0  0  0  0  0  0  0  0  0
   -6.9271   -7.4163   -8.7439 C   0  0  0  0  0  0  0  0  0  0  0  0
   -6.5169   -6.7637   -7.5426 O   0  0  0  0  0  0  0  0  0  0  0  0
    0.3220   -3.3295   -3.6557 C   0  0  0  0  0  0  0  0  0  0  0  0
    0.3978   -1.8654   -2.9307 N   0  0  0  0  0  0  0  0  0  0  0  0
   -0.3603   -1.8782   -1.6115 C   0  0  0  0  0  0  0  0  0  0  0  0
    1.9031   -1.7300   -2.5964 C   0  0  0  0  0  0  0  0  0  0  0  0
   -0.0991   -0.8417   -3.9600 C   0  0  0  0  0  0  0  0  0  0  0  0
   -0.4730    0.5928   -3.6059 N   0  0  0  0  0  0  0  0  0  0  0  0
    0.6066    1.3250   -2.8080 C   0  0  0  0  0  0  0  0  0  0  0  0
   -0.7548    1.4655   -4.8564 C   0  0  0  0  0  0  0  0  0  0  0  0
   -1.8416    0.6426   -2.8497 C   0  0  0  0  0  0  0  0  0  0  0  0
   -2.3904    1.8837   -2.1886 N   0  0  0  0  0  0  0  0  0  0  0  0
   -3.7544    1.7816   -1.5184 C   0  0  0  0  0  0  0  0  0  0  0  0
   -2.3501    3.1191   -3.1006 C   0  0  0  0  0  0  0  0  0  0  0  0
   -1.3950    2.2439   -1.0205 C   0  0  0  0  0  0  0  0  0  0  0  0
 14 15  1  0
 15  8  1  0
  8  9  2  0
  9 10  1  0
 10 11  2  0
 11  5  1  0
  5  6  2  0
  5  7  2  0
  5  3  1  0
  3  1  1  0
  1  2  1  0
  1 16  1  0
 16 17  1  0
 17 18  1  0
 17 19  1  0
 17 20  1  0
 20 21  1  0
 21 22  1  0
 21 23  1  0
 21 24  1  0
 24 25  1  0
 25 26  1  0
 25 27  1  0
 25 28  1  0
 11 12  1  0
 12 13  2  0
 13  8  1  0
  3  4  1  0
M  CHG 1  17   1
M  CHG 1  21   1
M  CHG 1  25   1
M  END
> <minimizedAffinity>
-7.63212

> <CNNscore>
0.7912585139

> <CNNaffinity>
6.0038185120

> <CNN_VS>
4.7505726814

> <CNNaffinity_variance>
0.4024296701

$$$$



 28 28  0  0  0  0  0  0  0  0999 V2000
   -0.8183   -3.7574   -4.8042 C   0  0  0  0  0  0  0  0  0  0  0  0
    0.1078   -4.9466   -4.5591 C   0  0  0  0  0  0  0  0  0  0  0  0
   -1.8682   -4.1495   -5.7950 N   0  0  0  0  0  0  0  0  0  0  0  0
   -2.7194   -4.3675   -5.2769 H   0  0  0  0  0  0  0  0  0  0  0  0
   -1.5031   -5.4922   -6.7878 S   0  0  0  0  0  0  0  0  0  0  0  0
   -0.5546   -4.9780   -7.7511 O   0  0  0  0  0  0  0  0  0  0  0  0
   -1.0833   -6.5225   -5.8562 O   0  0  0  0  0  0  0  0  0  0  0  0
   -5.4398   -6.6305   -8.7570 C   0  0  0  0  0  0  0  0  0  0  0  0
   -4.2999   -6.4242   -9.5402 C   0  0  0  0  0  0  0  0  0  0  0  0
   -3.0832   -6.0743   -8.9408 C   0  0  0  0  0  0  0  0  0  0  0  0
   -3.0247   -5.9169   -7.5497 C   0  0  0  0  0  0  0  0  0  0  0  0
   -4.1581   -6.1174   -6.7620 C   0  0  0  0  0  0  0  0  0  0  0  0
   -5.3646   -6.4641   -7.3708 C   0  0  0  0  0  0  0  0  0  0  0  0
   -6.7159   -7.7856  -10.3987 C   0  0  0  0  0  0  0  0  0  0  0  0
   -6.6704   -6.9986   -9.2089 O   0  0  0  0  0  0  0  0  0  0  0  0
   -1.4041   -3.1483   -3.4906 C   0  0  0  0  0  0  0  0  0  0  0  0
   -0.7696   -1.7819   -2.8539 N   0  0  0  0  0  0  0  0  0  0  0  0
   -0.7627   -1.8493   -1.3339 C   0  0  0  0  0  0  0  0  0  0  0  0
    0.7037   -1.8406   -3.3250 C   0  0  0  0  0  0  0  0  0  0  0  0
   -1.5616   -0.6119   -3.4526 C   0  0  0  0  0  0  0  0  0  0  0  0
   -1.2700    0.8501   -3.1357 N   0  0  0  0  0  0  0  0  0  0  0  0
   -0.1127    1.0423   -2.1548 C   0  0  0  0  0  0  0  0  0  0  0  0
   -0.9110    1.6774   -4.3973 C   0  0  0  0  0  0  0  0  0  0  0  0
   -2.5549    1.5756   -2.6161 C   0  0  0  0  0  0  0  0  0  0  0  0
   -2.6222    3.0546   -2.3214 N   0  0  0  0  0  0  0  0  0  0  0  0
   -1.6235    3.6207   -1.3203 C   0  0  0  0  0  0  0  0  0  0  0  0
   -4.0388    3.5343   -1.9710 C   0  0  0  0  0  0  0  0  0  0  0  0
   -2.2971    3.7942   -3.6750 C   0  0  0  0  0  0  0  0  0  0  0  0
 14 15  1  0
 15  8  1  0
  8  9  2  0
  9 10  1  0
 10 11  2  0
 11  5  1  0
  5  6  2  0
  5  7  2  0
  5  3  1  0
  3  1  1  0
  1  2  1  0
  1 16  1  0
 16 17  1  0
 17 18  1  0
 17 19  1  0
 17 20  1  0
 20 21  1  0
 21 22  1  0
 21 23  1  0
 21 24  1  0
 24 25  1  0
 25 26  1  0
 25 27  1  0
 25 28  1  0
 11 12  1  0
 12 13  2  0
 13  8  1  0
  3  4  1  0
M  CHG 1  17   1
M  CHG 1  21   1
M  CHG 1  25   1
M  END
> <minimizedAffinity>
-7.70447

> <CNNscore>
0.7517346740

> <CNNaffinity>
5.5217018127

> <CNN_VS>
4.1508545876

> <CNNaffinity_variance>
0.6230750084

$$$$



 28 28  0  0  0  0  0  0  0  0999 V2000
   -1.4956   -4.1211   -4.5334 C   0  0  0  0  0  0  0  0  0  0  0  0
   -2.7059   -3.4400   -3.8981 C   0  0  0  0  0  0  0  0  0  0  0  0
   -1.5818   -3.9865   -6.0207 N   0  0  0  0  0  0  0  0  0  0  0  0
   -2.5136   -3.6396   -6.2486 H   0  0  0  0  0  0  0  0  0  0  0  0
   -1.3217   -5.4151   -6.9226 S   0  0  0  0  0  0  0  0  0  0  0  0
   -0.4561   -5.0026   -8.0054 O   0  0  0  0  0  0  0  0  0  0  0  0
   -0.8334   -6.3709   -5.9461 O   0  0  0  0  0  0  0  0  0  0  0  0
   -5.4460   -6.5657   -8.4515 C   0  0  0  0  0  0  0  0  0  0  0  0
   -5.2386   -6.3633   -7.0836 C   0  0  0  0  0  0  0  0  0  0  0  0
   -3.9711   -6.0076   -6.6050 C   0  0  0  0  0  0  0  0  0  0  0  0
   -2.9097   -5.8732   -7.5098 C   0  0  0  0  0  0  0  0  0  0  0  0
   -3.1077   -6.0768   -8.8753 C   0  0  0  0  0  0  0  0  0  0  0  0
   -4.3744   -6.4323   -9.3396 C   0  0  0  0  0  0  0  0  0  0  0  0
   -6.7528   -8.2069   -9.5727 C   0  0  0  0  0  0  0  0  0  0  0  0
   -6.6279   -6.8857   -9.0472 O   0  0  0  0  0  0  0  0  0  0  0  0
   -0.1327   -3.6341   -3.9462 C   0  0  0  0  0  0  0  0  0  0  0  0
    0.0434   -2.0947   -3.4225 N   0  0  0  0  0  0  0  0  0  0  0  0
    1.5142   -1.7574   -3.2277 C   0  0  0  0  0  0  0  0  0  0  0  0
   -0.4641   -1.2664   -4.6277 C   0  0  0  0  0  0  0  0  0  0  0  0
   -0.8303   -1.9568   -2.1687 C   0  0  0  0  0  0  0  0  0  0  0  0
   -1.0264   -0.6433   -1.4210 N   0  0  0  0  0  0  0  0  0  0  0  0
   -1.9214   -0.7714   -0.1878 C   0  0  0  0  0  0  0  0  0  0  0  0
    0.3089   -0.0297   -0.9258 C   0  0  0  0  0  0  0  0  0  0  0  0
   -1.5690    0.4684   -2.3786 C   0  0  0  0  0  0  0  0  0  0  0  0
   -2.1127    1.7938   -1.9027 N   0  0  0  0  0  0  0  0  0  0  0  0
   -1.2420    2.6167   -0.9620 C   0  0  0  0  0  0  0  0  0  0  0  0
   -3.5372    1.6916   -1.3372 C   0  0  0  0  0  0  0  0  0  0  0  0
   -2.2796    2.6940   -3.1860 C   0  0  0  0  0  0  0  0  0  0  0  0
 14 15  1  0
 15  8  1  0
  8  9  2  0
  9 10  1  0
 10 11  2  0
 11  5  1  0
  5  6  2  0
  5  7  2  0
  5  3  1  0
  3  1  1  0
  1  2  1  0
  1 16  1  0
 16 17  1  0
 17 18  1  0
 17 19  1  0
 17 20  1  0
 20 21  1  0
 21 22  1  0
 21 23  1  0
 21 24  1  0
 24 25  1  0
 25 26  1  0
 25 27  1  0
 25 28  1  0
 11 12  1  0
 12 13  2  0
 13  8  1  0
  3  4  1  0
M  CHG 1  17   1
M  CHG 1  21   1
M  CHG 1  25   1
M  END
> <minimizedAffinity>
-7.32858

> <CNNscore>
0.7135707140

> <CNNaffinity>
5.7445845604

> <CNN_VS>
4.0991673470

> <CNNaffinity_variance>
0.4528417289

$$$$



 28 28  0  0  0  0  0  0  0  0999 V2000
   -0.7728   -4.1150   -4.1897 C   0  0  0  0  0  0  0  0  0  0  0  0
   -1.9988   -4.3943   -3.3230 C   0  0  0  0  0  0  0  0  0  0  0  0
   -1.2072   -3.9318   -5.6093 N   0  0  0  0  0  0  0  0  0  0  0  0
   -2.2028   -3.7103   -5.6042 H   0  0  0  0  0  0  0  0  0  0  0  0
   -0.9756   -5.2705   -6.6466 S   0  0  0  0  0  0  0  0  0  0  0  0
   -0.1998   -4.7414   -7.7467 O   0  0  0  0  0  0  0  0  0  0  0  0
   -0.3950   -6.2894   -5.7919 O   0  0  0  0  0  0  0  0  0  0  0  0
   -5.1502   -6.4910   -7.9711 C   0  0  0  0  0  0  0  0  0  0  0  0
   -4.1196   -6.3912   -8.9108 C   0  0  0  0  0  0  0  0  0  0  0  0
   -2.8306   -6.0168   -8.5103 C   0  0  0  0  0  0  0  0  0  0  0  0
   -2.5891   -5.7272   -7.1608 C   0  0  0  0  0  0  0  0  0  0  0  0
   -3.6127   -5.8210   -6.2181 C   0  0  0  0  0  0  0  0  0  0  0  0
   -4.8927   -6.1934   -6.6294 C   0  0  0  0  0  0  0  0  0  0  0  0
   -6.7776   -7.1357   -9.5817 C   0  0  0  0  0  0  0  0  0  0  0  0
   -6.4340   -6.8690   -8.2223 O   0  0  0  0  0  0  0  0  0  0  0  0
    0.1078   -2.9407   -3.6557 C   0  0  0  0  0  0  0  0  0  0  0  0
   -0.5742   -1.5126   -3.2427 N   0  0  0  0  0  0  0  0  0  0  0  0
   -1.7293   -1.1783   -4.1748 C   0  0  0  0  0  0  0  0  0  0  0  0
   -1.1780   -1.8155   -1.8499 C   0  0  0  0  0  0  0  0  0  0  0  0
    0.5599   -0.4796   -3.2109 C   0  0  0  0  0  0  0  0  0  0  0  0
    1.4078   -0.1999   -1.9757 N   0  0  0  0  0  0  0  0  0  0  0  0
    1.0367   -1.0672   -0.7722 C   0  0  0  0  0  0  0  0  0  0  0  0
    2.9218   -0.4268   -2.2232 C   0  0  0  0  0  0  0  0  0  0  0  0
    1.3561    1.3165   -1.5948 C   0  0  0  0  0  0  0  0  0  0  0  0
    0.3122    2.2765   -2.1120 N   0  0  0  0  0  0  0  0  0  0  0  0
    0.4753    3.7505   -1.7642 C   0  0  0  0  0  0  0  0  0  0  0  0
   -1.1240    1.8256   -1.8061 C   0  0  0  0  0  0  0  0  0  0  0  0
    0.3978    2.2232   -3.6851 C   0  0  0  0  0  0  0  0  0  0  0  0
 14 15  1  0
 15  8  1  0
  8  9  2  0
  9 10  1  0
 10 11  2  0
 11  5  1  0
  5  6  2  0
  5  7  2  0
  5  3  1  0
  3  1  1  0
  1  2  1  0
  1 16  1  0
 16 17  1  0
 17 18  1  0
 17 19  1  0
 17 20  1  0
 20 21  1  0
 21 22  1  0
 21 23  1  0
 21 24  1  0
 24 25  1  0
 25 26  1  0
 25 27  1  0
 25 28  1  0
 11 12  1  0
 12 13  2  0
 13  8  1  0
  3  4  1  0
M  CHG 1  17   1
M  CHG 1  21   1
M  CHG 1  25   1
M  END
> <minimizedAffinity>
-7.09094

> <CNNscore>
0.6132644415

> <CNNaffinity>
5.8380770683

> <CNN_VS>
3.5802850723

> <CNNaffinity_variance>
0.4123343527

$$$$



 28 28  0  0  0  0  0  0  0  0999 V2000
   -0.9967   -4.0100   -3.5145 C   0  0  0  0  0  0  0  0  0  0  0  0
   -2.2369   -3.4628   -2.8112 C   0  0  0  0  0  0  0  0  0  0  0  0
   -1.2121   -3.9649   -4.9941 N   0  0  0  0  0  0  0  0  0  0  0  0
   -2.1862   -3.7116   -5.1595 H   0  0  0  0  0  0  0  0  0  0  0  0
   -0.8977   -5.4133   -5.8457 S   0  0  0  0  0  0  0  0  0  0  0  0
    0.1425   -5.0577   -6.7857 O   0  0  0  0  0  0  0  0  0  0  0  0
   -0.6151   -6.3855   -4.8061 O   0  0  0  0  0  0  0  0  0  0  0  0
   -4.7914   -6.4273   -7.9627 C   0  0  0  0  0  0  0  0  0  0  0  0
   -3.6014   -6.3387   -8.6917 C   0  0  0  0  0  0  0  0  0  0  0  0
   -2.3977   -6.0278   -8.0464 C   0  0  0  0  0  0  0  0  0  0  0  0
   -2.4016   -5.7901   -6.6655 C   0  0  0  0  0  0  0  0  0  0  0  0
   -3.5850   -5.8731   -5.9320 C   0  0  0  0  0  0  0  0  0  0  0  0
   -4.7779   -6.1820   -6.5863 C   0  0  0  0  0  0  0  0  0  0  0  0
   -6.1387   -6.8359   -9.8799 C   0  0  0  0  0  0  0  0  0  0  0  0
   -6.0179   -6.7467   -8.4606 O   0  0  0  0  0  0  0  0  0  0  0  0
    0.3279   -3.3179   -3.0608 C   0  0  0  0  0  0  0  0  0  0  0  0
    0.4188   -1.6884   -2.9531 N   0  0  0  0  0  0  0  0  0  0  0  0
   -0.2335   -1.0321   -4.1609 C   0  0  0  0  0  0  0  0  0  0  0  0
   -0.4703   -1.3798   -1.7241 C   0  0  0  0  0  0  0  0  0  0  0  0
    1.8997   -1.3461   -2.7436 C   0  0  0  0  0  0  0  0  0  0  0  0
    2.4649   -0.8298   -1.4257 N   0  0  0  0  0  0  0  0  0  0  0  0
    2.1748   -1.7469   -0.2369 C   0  0  0  0  0  0  0  0  0  0  0  0
    4.0040   -0.6440   -1.4646 C   0  0  0  0  0  0  0  0  0  0  0  0
    1.9614    0.6222   -1.1331 C   0  0  0  0  0  0  0  0  0  0  0  0
    1.8779    1.2184    0.2512 N   0  0  0  0  0  0  0  0  0  0  0  0
    1.2081    2.5789    0.3942 C   0  0  0  0  0  0  0  0  0  0  0  0
    3.2264    1.2226    0.9868 C   0  0  0  0  0  0  0  0  0  0  0  0
    0.9850    0.2394    1.1053 C   0  0  0  0  0  0  0  0  0  0  0  0
 14 15  1  0
 15  8  1  0
  8  9  2  0
  9 10  1  0
 10 11  2  0
 11  5  1  0
  5  6  2  0
  5  7  2  0
  5  3  1  0
  3  1  1  0
  1  2  1  0
  1 16  1  0
 16 17  1  0
 17 18  1  0
 17 19  1  0
 17 20  1  0
 20 21  1  0
 21 22  1  0
 21 23  1  0
 21 24  1  0
 24 25  1  0
 25 26  1  0
 25 27  1  0
 25 28  1  0
 11 12  1  0
 12 13  2  0
 13  8  1  0
  3  4  1  0
M  CHG 1  17   1
M  CHG 1  21   1
M  CHG 1  25   1
M  END
> <minimizedAffinity>
-6.41631

> <CNNscore>
0.6052463651

> <CNNaffinity>
5.9577994347

> <CNN_VS>
3.6059365273

> <CNNaffinity_variance>
0.1381704062

$$$$



 28 28  0  0  0  0  0  0  0  0999 V2000
   -0.6251   -5.8507   -3.3624 C   0  0  0  0  0  0  0  0  0  0  0  0
   -0.3772   -7.3571   -3.3250 C   0  0  0  0  0  0  0  0  0  0  0  0
   -1.8337   -5.5731   -4.1989 N   0  0  0  0  0  0  0  0  0  0  0  0
   -2.3710   -6.4375   -4.2663 H   0  0  0  0  0  0  0  0  0  0  0  0
   -1.5384   -5.0169   -5.7881 S   0  0  0  0  0  0  0  0  0  0  0  0
   -1.5556   -3.5753   -5.6721 O   0  0  0  0  0  0  0  0  0  0  0  0
   -0.3107   -5.6847   -6.1786 O   0  0  0  0  0  0  0  0  0  0  0  0
   -5.0521   -6.5668   -8.2218 C   0  0  0  0  0  0  0  0  0  0  0  0
   -3.8332   -6.2926   -8.8497 C   0  0  0  0  0  0  0  0  0  0  0  0
   -2.7457   -5.8158   -8.1065 C   0  0  0  0  0  0  0  0  0  0  0  0
   -2.8976   -5.6009   -6.7303 C   0  0  0  0  0  0  0  0  0  0  0  0
   -4.1113   -5.8687   -6.0973 C   0  0  0  0  0  0  0  0  0  0  0  0
   -5.1875   -6.3417   -6.8486 C   0  0  0  0  0  0  0  0  0  0  0  0
   -6.1049   -7.2995  -10.2250 C   0  0  0  0  0  0  0  0  0  0  0  0
   -6.1726   -7.0574   -8.8201 O   0  0  0  0  0  0  0  0  0  0  0  0
   -0.6913   -5.1991   -1.9445 C   0  0  0  0  0  0  0  0  0  0  0  0
   -0.6626   -6.1306   -0.6004 N   0  0  0  0  0  0  0  0  0  0  0  0
   -2.0219   -6.7705   -0.3601 C   0  0  0  0  0  0  0  0  0  0  0  0
    0.3172   -7.2627   -0.9932 C   0  0  0  0  0  0  0  0  0  0  0  0
   -0.1494   -5.2393    0.5383 C   0  0  0  0  0  0  0  0  0  0  0  0
    0.3710   -5.7843    1.8631 N   0  0  0  0  0  0  0  0  0  0  0  0
   -0.4930   -6.9050    2.4429 C   0  0  0  0  0  0  0  0  0  0  0  0
    1.8078   -6.3572    1.7533 C   0  0  0  0  0  0  0  0  0  0  0  0
    0.5499   -4.6341    2.9082 C   0  0  0  0  0  0  0  0  0  0  0  0
    1.4307   -3.4283    2.6864 N   0  0  0  0  0  0  0  0  0  0  0  0
    2.9383   -3.6453    2.6923 C   0  0  0  0  0  0  0  0  0  0  0  0
    1.0718   -2.2452    3.5980 C   0  0  0  0  0  0  0  0  0  0  0  0
    1.1066   -2.9001    1.2369 C   0  0  0  0  0  0  0  0  0  0  0  0
 14 15  1  0
 15  8  1  0
  8  9  2  0
  9 10  1  0
 10 11  2  0
 11  5  1  0
  5  6  2  0
  5  7  2  0
  5  3  1  0
  3  1  1  0
  1  2  1  0
  1 16  1  0
 16 17  1  0
 17 18  1  0
 17 19  1  0
 17 20  1  0
 20 21  1  0
 21 22  1  0
 21 23  1  0
 21 24  1  0
 24 25  1  0
 25 26  1  0
 25 27  1  0
 25 28  1  0
 11 12  1  0
 12 13  2  0
 13  8  1  0
  3  4  1  0
M  CHG 1  17   1
M  CHG 1  21   1
M  CHG 1  25   1
M  END
> <minimizedAffinity>
-5.69700

> <CNNscore>
0.4706185460

> <CNNaffinity>
4.9726963043

> <CNN_VS>
2.3402431011

> <CNNaffinity_variance>
0.4947296679

$$$$



 28 28  0  0  0  0  0  0  0  0999 V2000
   -1.0992   -4.3035   -6.4619 C   0  0  0  0  0  0  0  0  0  0  0  0
   -0.3541   -5.3157   -7.3294 C   0  0  0  0  0  0  0  0  0  0  0  0
   -2.5615   -4.3776   -6.7681 N   0  0  0  0  0  0  0  0  0  0  0  0
   -2.9896   -3.5058   -6.4563 H   0  0  0  0  0  0  0  0  0  0  0  0
   -3.4182   -5.6677   -6.0445 S   0  0  0  0  0  0  0  0  0  0  0  0
   -2.4066   -6.6682   -5.7843 O   0  0  0  0  0  0  0  0  0  0  0  0
   -4.1149   -5.0538   -4.9294 O   0  0  0  0  0  0  0  0  0  0  0  0
   -6.3607   -7.0202   -9.2357 C   0  0  0  0  0  0  0  0  0  0  0  0
   -6.7459   -7.0023   -7.8916 C   0  0  0  0  0  0  0  0  0  0  0  0
   -5.8454   -6.5859   -6.9028 C   0  0  0  0  0  0  0  0  0  0  0  0
   -4.5492   -6.2035   -7.2732 C   0  0  0  0  0  0  0  0  0  0  0  0
   -4.1563   -6.2220   -8.6113 C   0  0  0  0  0  0  0  0  0  0  0  0
   -5.0618   -6.6402   -9.5869 C   0  0  0  0  0  0  0  0  0  0  0  0
   -7.0383   -8.7212  -10.7541 C   0  0  0  0  0  0  0  0  0  0  0  0
   -7.1432   -7.3748  -10.2921 O   0  0  0  0  0  0  0  0  0  0  0  0
   -0.7784   -4.4389   -4.9393 C   0  0  0  0  0  0  0  0  0  0  0  0
   -1.0295   -3.1824   -3.9228 N   0  0  0  0  0  0  0  0  0  0  0  0
   -2.0077   -2.1871   -4.5290 C   0  0  0  0  0  0  0  0  0  0  0  0
   -1.7392   -3.8541   -2.7223 C   0  0  0  0  0  0  0  0  0  0  0  0
    0.3539   -2.6135   -3.5809 C   0  0  0  0  0  0  0  0  0  0  0  0
    0.5656   -1.4029   -2.6795 N   0  0  0  0  0  0  0  0  0  0  0  0
   -0.0259   -1.5740   -1.2798 C   0  0  0  0  0  0  0  0  0  0  0  0
    2.0645   -1.0598   -2.4778 C   0  0  0  0  0  0  0  0  0  0  0  0
    0.0139   -0.1028   -3.3522 C   0  0  0  0  0  0  0  0  0  0  0  0
   -0.7478    0.9680   -2.6094 N   0  0  0  0  0  0  0  0  0  0  0  0
   -1.4080    2.0653   -3.4343 C   0  0  0  0  0  0  0  0  0  0  0  0
    0.0590    1.5941   -1.4619 C   0  0  0  0  0  0  0  0  0  0  0  0
   -1.9412    0.2414   -1.8794 C   0  0  0  0  0  0  0  0  0  0  0  0
 14 15  1  0
 15  8  1  0
  8  9  2  0
  9 10  1  0
 10 11  2  0
 11  5  1  0
  5  6  2  0
  5  7  2  0
  5  3  1  0
  3  1  1  0
  1  2  1  0
  1 16  1  0
 16 17  1  0
 17 18  1  0
 17 19  1  0
 17 20  1  0
 20 21  1  0
 21 22  1  0
 21 23  1  0
 21 24  1  0
 24 25  1  0
 25 26  1  0
 25 27  1  0
 25 28  1  0
 11 12  1  0
 12 13  2  0
 13  8  1  0
  3  4  1  0
M  CHG 1  17   1
M  CHG 1  21   1
M  CHG 1  25   1
M  END
> <minimizedAffinity>
-6.30881

> <CNNscore>
0.4508043826

> <CNNaffinity>
5.7057948112

> <CNN_VS>
2.5721971989

> <CNNaffinity_variance>
0.7508864403

$$$$



 28 28  0  0  0  0  0  0  0  0999 V2000
   -1.2525   -8.0778   -3.5265 C   0  0  0  0  0  0  0  0  0  0  0  0
   -1.3181   -9.1193   -4.6415 C   0  0  0  0  0  0  0  0  0  0  0  0
   -2.1321   -6.9216   -3.8831 N   0  0  0  0  0  0  0  0  0  0  0  0
   -3.0067   -7.2971   -4.2498 H   0  0  0  0  0  0  0  0  0  0  0  0
   -1.5077   -5.8288   -5.0397 S   0  0  0  0  0  0  0  0  0  0  0  0
   -1.6660   -4.5286   -4.4262 O   0  0  0  0  0  0  0  0  0  0  0  0
   -0.1734   -6.3263   -5.3184 O   0  0  0  0  0  0  0  0  0  0  0  0
   -4.2050   -6.3338   -8.6648 C   0  0  0  0  0  0  0  0  0  0  0  0
   -2.8349   -6.1139   -8.8376 C   0  0  0  0  0  0  0  0  0  0  0  0
   -1.9973   -5.9584   -7.7257 C   0  0  0  0  0  0  0  0  0  0  0  0
   -2.5497   -6.0089   -6.4390 C   0  0  0  0  0  0  0  0  0  0  0  0
   -3.9158   -6.2242   -6.2584 C   0  0  0  0  0  0  0  0  0  0  0  0
   -4.7401   -6.3761   -7.3738 C   0  0  0  0  0  0  0  0  0  0  0  0
   -6.2686   -7.3106   -9.3322 C   0  0  0  0  0  0  0  0  0  0  0  0
   -5.1197   -6.5274   -9.6547 O   0  0  0  0  0  0  0  0  0  0  0  0
   -1.5493   -8.6674   -2.1110 C   0  0  0  0  0  0  0  0  0  0  0  0
   -0.3318   -8.9432   -1.0542 N   0  0  0  0  0  0  0  0  0  0  0  0
    0.3186  -10.2922   -1.3228 C   0  0  0  0  0  0  0  0  0  0  0  0
    0.6983   -7.8511   -1.4313 C   0  0  0  0  0  0  0  0  0  0  0  0
   -0.9250   -8.7718    0.3504 C   0  0  0  0  0  0  0  0  0  0  0  0
   -1.3152   -7.4212    0.9390 N   0  0  0  0  0  0  0  0  0  0  0  0
   -0.1290   -6.6330    1.4958 C   0  0  0  0  0  0  0  0  0  0  0  0
   -2.0057   -6.4934   -0.0941 C   0  0  0  0  0  0  0  0  0  0  0  0
   -2.4235   -7.5872    2.0306 C   0  0  0  0  0  0  0  0  0  0  0  0
   -3.0529   -6.4314    2.7700 N   0  0  0  0  0  0  0  0  0  0  0  0
   -4.1826   -6.7469    3.7418 C   0  0  0  0  0  0  0  0  0  0  0  0
   -3.4705   -5.2800    1.8430 C   0  0  0  0  0  0  0  0  0  0  0  0
   -1.9172   -5.8030    3.6646 C   0  0  0  0  0  0  0  0  0  0  0  0
 14 15  1  0
 15  8  1  0
  8  9  2  0
  9 10  1  0
 10 11  2  0
 11  5  1  0
  5  6  2  0
  5  7  2  0
  5  3  1  0
  3  1  1  0
  1  2  1  0
  1 16  1  0
 16 17  1  0
 17 18  1  0
 17 19  1  0
 17 20  1  0
 20 21  1  0
 21 22  1  0
 21 23  1  0
 21 24  1  0
 24 25  1  0
 25 26  1  0
 25 27  1  0
 25 28  1  0
 11 12  1  0
 12 13  2  0
 13  8  1  0
  3  4  1  0
M  CHG 1  17   1
M  CHG 1  21   1
M  CHG 1  25   1
M  END
> <minimizedAffinity>
-5.84249

> <CNNscore>
0.4507166147

> <CNNaffinity>
4.8174510002

> <CNN_VS>
2.1713051796

> <CNNaffinity_variance>
0.8558695912

$$$$
