


 32 35  0  0  0  0  0  0  0  0999 V2000
   -0.9879   -9.1055   40.5394 C   0  0  0  0  0  0  0  0  0  0  0  0
   -0.1379  -10.0796   41.0574 C   0  0  0  0  0  0  0  0  0  0  0  0
    0.6220  -10.9021   40.2137 C   0  0  0  0  0  0  0  0  0  0  0  0
    0.5089  -10.7215   38.8255 C   0  0  0  0  0  0  0  0  0  0  0  0
   -0.3266   -9.7439   38.2850 C   0  0  0  0  0  0  0  0  0  0  0  0
   -1.0840   -8.9334   39.1534 C   0  0  0  0  0  0  0  0  0  0  0  0
   -0.1932   -9.8076   36.8750 C   0  0  0  0  0  0  0  0  0  0  0  0
    0.7048  -10.8118   36.5658 C   0  0  0  0  0  0  0  0  0  0  0  0
    1.1200  -11.3694   37.7638 N   0  0  0  0  0  0  0  0  0  0  0  0
   -1.9235   -6.9300   40.7741 C   0  0  0  0  0  0  0  0  0  0  0  0
   -1.7737   -8.2543   41.2698 O   0  0  0  0  0  0  0  0  0  0  0  0
    1.1776  -11.2570   35.2212 C   0  0  0  0  0  0  0  0  0  0  0  0
    0.4658  -10.4346   34.2439 N   0  0  0  0  0  0  0  0  0  0  0  0
   -0.3154   -9.9856   34.7219 H   0  0  0  0  0  0  0  0  0  0  0  0
    1.3791   -9.2296   33.4995 S   0  0  0  0  0  0  0  0  0  0  0  0
    0.6396   -7.9905   33.5794 O   0  0  0  0  0  0  0  0  0  0  0  0
    2.7256   -9.3518   34.0131 O   0  0  0  0  0  0  0  0  0  0  0  0
    1.4921   -9.6188   31.7578 C   0  0  0  0  0  0  0  0  0  0  0  0
    1.3040  -10.8189   31.0796 C   0  0  0  0  0  0  0  0  0  0  0  0
    1.4922  -10.5749   29.6979 C   0  0  0  0  0  0  0  0  0  0  0  0
    1.4423  -11.3445   28.5236 C   0  0  0  0  0  0  0  0  0  0  0  0
    1.7028  -10.7053   27.3080 C   0  0  0  0  0  0  0  0  0  0  0  0
    1.6617  -11.4213   26.1760 F   0  0  0  0  0  0  0  0  0  0  0  0
    2.0062   -9.3457   27.2370 C   0  0  0  0  0  0  0  0  0  0  0  0
    2.0612   -8.5655   28.3966 C   0  0  0  0  0  0  0  0  0  0  0  0
    1.7942   -9.2233   29.5973 C   0  0  0  0  0  0  0  0  0  0  0  0
    1.7912   -8.6436   30.8242 O   0  0  0  0  0  0  0  0  0  0  0  0
    2.0184  -12.5109   37.9020 C   0  0  0  0  0  0  0  0  0  0  0  0
    1.3451  -13.8429   37.7261 C   0  0  0  0  0  0  0  0  0  0  0  0
    0.8687  -14.2589   36.6790 O   0  0  0  0  0  0  0  0  0  0  0  0
    1.2012  -14.5603   38.8564 O   0  0  0  0  0  0  0  0  0  0  0  0
    1.5645  -14.2454   39.6606 H   0  0  0  0  0  0  0  0  0  0  0  0
 10 11  1  0
 11  1  1  0
  1  2  2  0
  2  3  1  0
  3  4  2  0
  4  5  1  0
  5  6  2  0
  5  7  1  0
  7  8  2  0
  8 12  1  0
 12 13  1  0
 13 15  1  0
 15 16  2  0
 15 17  2  0
 15 18  1  0
 18 19  2  0
 19 20  1  0
 20 21  2  0
 21 22  1  0
 22 23  1  0
 22 24  2  0
 24 25  1  0
 25 26  2  0
 26 27  1  0
  8  9  1  0
  9 28  1  0
 28 29  1  0
 29 30  2  0
 29 31  1  0
  6  1  1  0
 27 18  1  0
  9  4  1  0
 26 20  1  0
 13 14  1  0
 31 32  1  0
M  END
> <minimizedAffinity>
-10.20675

> <CNNscore>
0.8723493218

> <CNNaffinity>
6.5166511536

> <CNN_VS>
5.6847963333

> <CNNaffinity_variance>
0.1145290136

$$$$



 32 35  0  0  0  0  0  0  0  0999 V2000
   -0.8860   -9.0208   40.5053 C   0  0  0  0  0  0  0  0  0  0  0  0
   -1.5961   -8.4370   39.4590 C   0  0  0  0  0  0  0  0  0  0  0  0
   -1.3166   -8.7603   38.1236 C   0  0  0  0  0  0  0  0  0  0  0  0
   -0.2996   -9.6926   37.8606 C   0  0  0  0  0  0  0  0  0  0  0  0
    0.4158  -10.2990   38.8932 C   0  0  0  0  0  0  0  0  0  0  0  0
    0.1199   -9.9537   40.2266 C   0  0  0  0  0  0  0  0  0  0  0  0
    1.3398  -11.1939   38.2972 C   0  0  0  0  0  0  0  0  0  0  0  0
    1.1904  -11.1267   36.9248 C   0  0  0  0  0  0  0  0  0  0  0  0
    0.1932  -10.2000   36.6689 N   0  0  0  0  0  0  0  0  0  0  0  0
   -0.2670   -9.5102   42.7504 C   0  0  0  0  0  0  0  0  0  0  0  0
   -1.0745   -8.7754   41.8394 O   0  0  0  0  0  0  0  0  0  0  0  0
    1.9293  -11.8815   35.8694 C   0  0  0  0  0  0  0  0  0  0  0  0
    1.6361  -11.2097   34.6042 N   0  0  0  0  0  0  0  0  0  0  0  0
    0.9547  -10.4739   34.7906 H   0  0  0  0  0  0  0  0  0  0  0  0
    2.9563  -10.5079   33.8264 S   0  0  0  0  0  0  0  0  0  0  0  0
    3.0703   -9.1402   34.2790 O   0  0  0  0  0  0  0  0  0  0  0  0
    4.0517  -11.4455   33.9397 O   0  0  0  0  0  0  0  0  0  0  0  0
    2.5828  -10.4143   32.0801 C   0  0  0  0  0  0  0  0  0  0  0  0
    1.5630  -10.9981   31.3353 C   0  0  0  0  0  0  0  0  0  0  0  0
    1.7101  -10.5819   29.9902 C   0  0  0  0  0  0  0  0  0  0  0  0
    1.0253  -10.8100   28.7850 C   0  0  0  0  0  0  0  0  0  0  0  0
    1.5094  -10.1934   27.6276 C   0  0  0  0  0  0  0  0  0  0  0  0
    0.8717  -10.3989   26.4671 F   0  0  0  0  0  0  0  0  0  0  0  0
    2.6370   -9.3724   27.6430 C   0  0  0  0  0  0  0  0  0  0  0  0
    3.3311   -9.1359   28.8341 C   0  0  0  0  0  0  0  0  0  0  0  0
    2.8280   -9.7583   29.9766 C   0  0  0  0  0  0  0  0  0  0  0  0
    3.3525   -9.6491   31.2234 O   0  0  0  0  0  0  0  0  0  0  0  0
   -0.2417   -9.7652   35.3457 C   0  0  0  0  0  0  0  0  0  0  0  0
    0.2268   -8.3872   34.9710 C   0  0  0  0  0  0  0  0  0  0  0  0
    0.7086   -7.5719   35.7452 O   0  0  0  0  0  0  0  0  0  0  0  0
   -0.0036   -8.0375   33.6912 O   0  0  0  0  0  0  0  0  0  0  0  0
   -0.3725   -8.6589   33.0949 H   0  0  0  0  0  0  0  0  0  0  0  0
 10 11  1  0
 11  1  1  0
  1  2  2  0
  2  3  1  0
  3  4  2  0
  4  5  1  0
  5  6  2  0
  5  7  1  0
  7  8  2  0
  8 12  1  0
 12 13  1  0
 13 15  1  0
 15 16  2  0
 15 17  2  0
 15 18  1  0
 18 19  2  0
 19 20  1  0
 20 21  2  0
 21 22  1  0
 22 23  1  0
 22 24  2  0
 24 25  1  0
 25 26  2  0
 26 27  1  0
  8  9  1  0
  9 28  1  0
 28 29  1  0
 29 30  2  0
 29 31  1  0
  6  1  1  0
 27 18  1  0
  9  4  1  0
 26 20  1  0
 13 14  1  0
 31 32  1  0
M  END
> <minimizedAffinity>
-9.99618

> <CNNscore>
0.6543886065

> <CNNaffinity>
6.1112766266

> <CNN_VS>
3.9991497993

> <CNNaffinity_variance>
0.2627288103

$$$$



 32 35  0  0  0  0  0  0  0  0999 V2000
    2.2255   -9.5412   28.8633 C   0  0  0  0  0  0  0  0  0  0  0  0
    3.4752   -9.1948   29.3712 C   0  0  0  0  0  0  0  0  0  0  0  0
    3.8234   -9.4818   30.6987 C   0  0  0  0  0  0  0  0  0  0  0  0
    2.8801  -10.1317   31.5114 C   0  0  0  0  0  0  0  0  0  0  0  0
    1.6272  -10.4990   31.0202 C   0  0  0  0  0  0  0  0  0  0  0  0
    1.2990  -10.1949   29.6843 C   0  0  0  0  0  0  0  0  0  0  0  0
    0.9349  -11.1480   32.0734 C   0  0  0  0  0  0  0  0  0  0  0  0
    1.7534  -11.1686   33.1870 C   0  0  0  0  0  0  0  0  0  0  0  0
    2.9350  -10.5371   32.8354 N   0  0  0  0  0  0  0  0  0  0  0  0
    1.4687  -10.4436   26.7955 C   0  0  0  0  0  0  0  0  0  0  0  0
    1.7832   -9.3062   27.5886 O   0  0  0  0  0  0  0  0  0  0  0  0
    1.4761  -11.7454   34.5362 C   0  0  0  0  0  0  0  0  0  0  0  0
    1.8479  -10.7162   35.5059 N   0  0  0  0  0  0  0  0  0  0  0  0
    2.7239  -10.2954   35.1960 H   0  0  0  0  0  0  0  0  0  0  0  0
    0.7263   -9.4770   35.7223 S   0  0  0  0  0  0  0  0  0  0  0  0
    1.3908   -8.2192   35.4675 O   0  0  0  0  0  0  0  0  0  0  0  0
   -0.4691   -9.8694   35.0091 O   0  0  0  0  0  0  0  0  0  0  0  0
    0.2660   -9.4442   37.4500 C   0  0  0  0  0  0  0  0  0  0  0  0
    0.5954  -10.3007   38.4957 C   0  0  0  0  0  0  0  0  0  0  0  0
   -0.0159   -9.8083   39.6738 C   0  0  0  0  0  0  0  0  0  0  0  0
   -0.0676  -10.2018   41.0214 C   0  0  0  0  0  0  0  0  0  0  0  0
   -0.8122   -9.4171   41.9067 C   0  0  0  0  0  0  0  0  0  0  0  0
   -0.8757   -9.7755   43.1964 F   0  0  0  0  0  0  0  0  0  0  0  0
   -1.4929   -8.2735   41.4888 C   0  0  0  0  0  0  0  0  0  0  0  0
   -1.4529   -7.8685   40.1506 C   0  0  0  0  0  0  0  0  0  0  0  0
   -0.7010   -8.6643   39.2863 C   0  0  0  0  0  0  0  0  0  0  0  0
   -0.5332   -8.4371   37.9590 O   0  0  0  0  0  0  0  0  0  0  0  0
    4.0557  -10.2739   33.7320 C   0  0  0  0  0  0  0  0  0  0  0  0
    5.0642  -11.3864   33.7920 C   0  0  0  0  0  0  0  0  0  0  0  0
    5.2189  -12.1471   34.7374 O   0  0  0  0  0  0  0  0  0  0  0  0
    5.8975  -11.4552   32.7366 O   0  0  0  0  0  0  0  0  0  0  0  0
    5.7826  -10.8744   32.0103 H   0  0  0  0  0  0  0  0  0  0  0  0
 10 11  1  0
 11  1  1  0
  1  2  2  0
  2  3  1  0
  3  4  2  0
  4  5  1  0
  5  6  2  0
  5  7  1  0
  7  8  2  0
  8 12  1  0
 12 13  1  0
 13 15  1  0
 15 16  2  0
 15 17  2  0
 15 18  1  0
 18 19  2  0
 19 20  1  0
 20 21  2  0
 21 22  1  0
 22 23  1  0
 22 24  2  0
 24 25  1  0
 25 26  2  0
 26 27  1  0
  8  9  1  0
  9 28  1  0
 28 29  1  0
 29 30  2  0
 29 31  1  0
  6  1  1  0
 27 18  1  0
  9  4  1  0
 26 20  1  0
 13 14  1  0
 31 32  1  0
M  END
> <minimizedAffinity>
-9.09632

> <CNNscore>
0.5990152359

> <CNNaffinity>
6.2772307396

> <CNN_VS>
3.7601568699

> <CNNaffinity_variance>
0.0523038320

$$$$



 32 35  0  0  0  0  0  0  0  0999 V2000
    9.5287  -11.8561   36.1595 C   0  0  0  0  0  0  0  0  0  0  0  0
    9.4183  -12.5992   37.3322 C   0  0  0  0  0  0  0  0  0  0  0  0
    8.1969  -13.1705   37.7164 C   0  0  0  0  0  0  0  0  0  0  0  0
    7.0792  -12.9781   36.8880 C   0  0  0  0  0  0  0  0  0  0  0  0
    7.1696  -12.2481   35.7027 C   0  0  0  0  0  0  0  0  0  0  0  0
    8.4067  -11.6794   35.3410 C   0  0  0  0  0  0  0  0  0  0  0  0
    5.8869  -12.2633   35.0991 C   0  0  0  0  0  0  0  0  0  0  0  0
    5.0314  -12.9865   35.9088 C   0  0  0  0  0  0  0  0  0  0  0  0
    5.7676  -13.4103   37.0029 N   0  0  0  0  0  0  0  0  0  0  0  0
   11.8114  -12.0822   35.5259 C   0  0  0  0  0  0  0  0  0  0  0  0
   10.6675  -11.2545   35.6938 O   0  0  0  0  0  0  0  0  0  0  0  0
    3.5841  -13.2887   35.6995 C   0  0  0  0  0  0  0  0  0  0  0  0
    2.8751  -12.0184   35.8465 N   0  0  0  0  0  0  0  0  0  0  0  0
    3.5180  -11.2692   35.5902 H   0  0  0  0  0  0  0  0  0  0  0  0
    1.4819  -11.8471   34.9138 S   0  0  0  0  0  0  0  0  0  0  0  0
    0.9617  -13.1664   34.6356 O   0  0  0  0  0  0  0  0  0  0  0  0
    0.6790  -10.8262   35.5500 O   0  0  0  0  0  0  0  0  0  0  0  0
    1.9578  -11.1665   33.3300 C   0  0  0  0  0  0  0  0  0  0  0  0
    3.0122  -10.3294   32.9793 C   0  0  0  0  0  0  0  0  0  0  0  0
    2.9489  -10.1074   31.5826 C   0  0  0  0  0  0  0  0  0  0  0  0
    3.7000   -9.3813   30.6434 C   0  0  0  0  0  0  0  0  0  0  0  0
    3.2917   -9.4170   29.3069 C   0  0  0  0  0  0  0  0  0  0  0  0
    3.9935   -8.7303   28.3950 F   0  0  0  0  0  0  0  0  0  0  0  0
    2.1752  -10.1438   28.8935 C   0  0  0  0  0  0  0  0  0  0  0  0
    1.4156  -10.8709   29.8158 C   0  0  0  0  0  0  0  0  0  0  0  0
    1.8437  -10.8238   31.1426 C   0  0  0  0  0  0  0  0  0  0  0  0
    1.2487  -11.4639   32.1808 O   0  0  0  0  0  0  0  0  0  0  0  0
    5.2404  -14.1488   38.1456 C   0  0  0  0  0  0  0  0  0  0  0  0
    5.0762  -15.6220   37.8977 C   0  0  0  0  0  0  0  0  0  0  0  0
    4.3062  -16.3566   38.5009 O   0  0  0  0  0  0  0  0  0  0  0  0
    5.9265  -16.1440   36.9935 O   0  0  0  0  0  0  0  0  0  0  0  0
    6.5179  -15.5849   36.5292 H   0  0  0  0  0  0  0  0  0  0  0  0
 10 11  1  0
 11  1  1  0
  1  2  2  0
  2  3  1  0
  3  4  2  0
  4  5  1  0
  5  6  2  0
  5  7  1  0
  7  8  2  0
  8 12  1  0
 12 13  1  0
 13 15  1  0
 15 16  2  0
 15 17  2  0
 15 18  1  0
 18 19  2  0
 19 20  1  0
 20 21  2  0
 21 22  1  0
 22 23  1  0
 22 24  2  0
 24 25  1  0
 25 26  2  0
 26 27  1  0
  8  9  1  0
  9 28  1  0
 28 29  1  0
 29 30  2  0
 29 31  1  0
  6  1  1  0
 27 18  1  0
  9  4  1  0
 26 20  1  0
 13 14  1  0
 31 32  1  0
M  END
> <minimizedAffinity>
-8.45754

> <CNNscore>
0.4801668823

> <CNNaffinity>
5.5196013451

> <CNN_VS>
2.6503298283

> <CNNaffinity_variance>
0.2303119302

$$$$



 32 35  0  0  0  0  0  0  0  0999 V2000
    1.3366  -10.0643   28.5118 C   0  0  0  0  0  0  0  0  0  0  0  0
    1.0674   -8.7754   28.9656 C   0  0  0  0  0  0  0  0  0  0  0  0
    1.3731   -8.3902   30.2785 C   0  0  0  0  0  0  0  0  0  0  0  0
    1.9621   -9.3369   31.1327 C   0  0  0  0  0  0  0  0  0  0  0  0
    2.2520  -10.6296   30.6958 C   0  0  0  0  0  0  0  0  0  0  0  0
    1.9304  -10.9942   29.3736 C   0  0  0  0  0  0  0  0  0  0  0  0
    2.8551  -11.3158   31.7799 C   0  0  0  0  0  0  0  0  0  0  0  0
    2.9244  -10.4542   32.8584 C   0  0  0  0  0  0  0  0  0  0  0  0
    2.3678   -9.2517   32.4550 N   0  0  0  0  0  0  0  0  0  0  0  0
    2.0135  -11.4653   26.7112 C   0  0  0  0  0  0  0  0  0  0  0  0
    1.0770  -10.5444   27.2557 O   0  0  0  0  0  0  0  0  0  0  0  0
    3.4807  -10.7097   34.2204 C   0  0  0  0  0  0  0  0  0  0  0  0
    2.4729  -10.2388   35.1693 N   0  0  0  0  0  0  0  0  0  0  0  0
    1.8891   -9.5523   34.6915 H   0  0  0  0  0  0  0  0  0  0  0  0
    1.4601  -11.4249   35.8080 S   0  0  0  0  0  0  0  0  0  0  0  0
    0.3214  -11.5650   34.9293 O   0  0  0  0  0  0  0  0  0  0  0  0
    2.3027  -12.5482   36.1542 O   0  0  0  0  0  0  0  0  0  0  0  0
    0.8079  -10.8178   37.3586 C   0  0  0  0  0  0  0  0  0  0  0  0
    0.9696  -11.2853   38.6589 C   0  0  0  0  0  0  0  0  0  0  0  0
    0.2550  -10.4238   39.5257 C   0  0  0  0  0  0  0  0  0  0  0  0
    0.0288  -10.3498   40.9102 C   0  0  0  0  0  0  0  0  0  0  0  0
   -0.7690   -9.3073   41.3906 C   0  0  0  0  0  0  0  0  0  0  0  0
   -0.9984   -9.2192   42.7079 F   0  0  0  0  0  0  0  0  0  0  0  0
   -1.3355   -8.3571   40.5409 C   0  0  0  0  0  0  0  0  0  0  0  0
   -1.1214   -8.4171   39.1600 C   0  0  0  0  0  0  0  0  0  0  0  0
   -0.3193   -9.4632   38.7038 C   0  0  0  0  0  0  0  0  0  0  0  0
    0.0108   -9.6890   37.4070 O   0  0  0  0  0  0  0  0  0  0  0  0
    2.1729   -8.0802   33.3029 C   0  0  0  0  0  0  0  0  0  0  0  0
    0.8660   -8.0739   34.0449 C   0  0  0  0  0  0  0  0  0  0  0  0
    0.6148   -7.3847   35.0238 O   0  0  0  0  0  0  0  0  0  0  0  0
   -0.0354   -8.9772   33.6153 O   0  0  0  0  0  0  0  0  0  0  0  0
    0.1530   -9.5072   32.8659 H   0  0  0  0  0  0  0  0  0  0  0  0
 10 11  1  0
 11  1  1  0
  1  2  2  0
  2  3  1  0
  3  4  2  0
  4  5  1  0
  5  6  2  0
  5  7  1  0
  7  8  2  0
  8 12  1  0
 12 13  1  0
 13 15  1  0
 15 16  2  0
 15 17  2  0
 15 18  1  0
 18 19  2  0
 19 20  1  0
 20 21  2  0
 21 22  1  0
 22 23  1  0
 22 24  2  0
 24 25  1  0
 25 26  2  0
 26 27  1  0
  8  9  1  0
  9 28  1  0
 28 29  1  0
 29 30  2  0
 29 31  1  0
  6  1  1  0
 27 18  1  0
  9  4  1  0
 26 20  1  0
 13 14  1  0
 31 32  1  0
M  END
> <minimizedAffinity>
-7.17867

> <CNNscore>
0.4370758235

> <CNNaffinity>
5.7959399223

> <CNN_VS>
2.5332651138

> <CNNaffinity_variance>
0.3009709418

$$$$



 32 35  0  0  0  0  0  0  0  0999 V2000
    2.0474  -10.1172   29.4749 C   0  0  0  0  0  0  0  0  0  0  0  0
    2.0784   -8.7819   29.8698 C   0  0  0  0  0  0  0  0  0  0  0  0
    1.7645   -8.4069   31.1838 C   0  0  0  0  0  0  0  0  0  0  0  0
    1.4172   -9.4124   32.1008 C   0  0  0  0  0  0  0  0  0  0  0  0
    1.3918  -10.7571   31.7305 C   0  0  0  0  0  0  0  0  0  0  0  0
    1.7061  -11.1082   30.4029 C   0  0  0  0  0  0  0  0  0  0  0  0
    1.0306  -11.5043   32.8799 C   0  0  0  0  0  0  0  0  0  0  0  0
    0.8348  -10.6256   33.9287 C   0  0  0  0  0  0  0  0  0  0  0  0
    1.0643   -9.3503   33.4395 N   0  0  0  0  0  0  0  0  0  0  0  0
    1.2450  -11.1145   27.4687 C   0  0  0  0  0  0  0  0  0  0  0  0
    2.3316  -10.5911   28.2218 O   0  0  0  0  0  0  0  0  0  0  0  0
    0.4506  -10.9298   35.3393 C   0  0  0  0  0  0  0  0  0  0  0  0
    0.9913  -12.2560   35.6340 N   0  0  0  0  0  0  0  0  0  0  0  0
    1.8523  -12.3694   35.0991 H   0  0  0  0  0  0  0  0  0  0  0  0
    1.3445  -12.5575   37.2541 S   0  0  0  0  0  0  0  0  0  0  0  0
    0.7054  -13.7978   37.6307 O   0  0  0  0  0  0  0  0  0  0  0  0
    2.7667  -12.3497   37.4148 O   0  0  0  0  0  0  0  0  0  0  0  0
    0.5592  -11.2862   38.2365 C   0  0  0  0  0  0  0  0  0  0  0  0
   -0.2164  -10.1944   37.8597 C   0  0  0  0  0  0  0  0  0  0  0  0
   -0.6121   -9.5122   39.0353 C   0  0  0  0  0  0  0  0  0  0  0  0
   -1.3806   -8.3732   39.3281 C   0  0  0  0  0  0  0  0  0  0  0  0
   -1.5377   -8.0141   40.6700 C   0  0  0  0  0  0  0  0  0  0  0  0
   -2.2658   -6.9302   40.9711 F   0  0  0  0  0  0  0  0  0  0  0  0
   -0.9583   -8.7480   41.7050 C   0  0  0  0  0  0  0  0  0  0  0  0
   -0.1893   -9.8837   41.4308 C   0  0  0  0  0  0  0  0  0  0  0  0
   -0.0492  -10.2251   40.0856 C   0  0  0  0  0  0  0  0  0  0  0  0
    0.6485  -11.2902   39.6163 O   0  0  0  0  0  0  0  0  0  0  0  0
    0.9016   -8.1108   34.1921 C   0  0  0  0  0  0  0  0  0  0  0  0
    2.1178   -7.7097   34.9787 C   0  0  0  0  0  0  0  0  0  0  0  0
    2.2935   -6.6149   35.4951 O   0  0  0  0  0  0  0  0  0  0  0  0
    3.0997   -8.6303   35.0150 O   0  0  0  0  0  0  0  0  0  0  0  0
    2.9693   -9.4702   34.6206 H   0  0  0  0  0  0  0  0  0  0  0  0
 10 11  1  0
 11  1  1  0
  1  2  2  0
  2  3  1  0
  3  4  2  0
  4  5  1  0
  5  6  2  0
  5  7  1  0
  7  8  2  0
  8 12  1  0
 12 13  1  0
 13 15  1  0
 15 16  2  0
 15 17  2  0
 15 18  1  0
 18 19  2  0
 19 20  1  0
 20 21  2  0
 21 22  1  0
 22 23  1  0
 22 24  2  0
 24 25  1  0
 25 26  2  0
 26 27  1  0
  8  9  1  0
  9 28  1  0
 28 29  1  0
 29 30  2  0
 29 31  1  0
  6  1  1  0
 27 18  1  0
  9  4  1  0
 26 20  1  0
 13 14  1  0
 31 32  1  0
M  END
> <minimizedAffinity>
-9.95164

> <CNNscore>
0.3840493560

> <CNNaffinity>
5.7702975273

> <CNN_VS>
2.2160789967

> <CNNaffinity_variance>
0.5454078317

$$$$



 32 35  0  0  0  0  0  0  0  0999 V2000
    8.1832  -13.8704   38.8526 C   0  0  0  0  0  0  0  0  0  0  0  0
    7.1927  -14.0580   39.8136 C   0  0  0  0  0  0  0  0  0  0  0  0
    5.8406  -13.8400   39.5135 C   0  0  0  0  0  0  0  0  0  0  0  0
    5.5026  -13.4270   38.2143 C   0  0  0  0  0  0  0  0  0  0  0  0
    6.4767  -13.2449   37.2326 C   0  0  0  0  0  0  0  0  0  0  0  0
    7.8291  -13.4653   37.5602 C   0  0  0  0  0  0  0  0  0  0  0  0
    5.8098  -12.8550   36.0439 C   0  0  0  0  0  0  0  0  0  0  0  0
    4.4534  -12.7963   36.3029 C   0  0  0  0  0  0  0  0  0  0  0  0
    4.2780  -13.1383   37.6336 N   0  0  0  0  0  0  0  0  0  0  0  0
   10.3939  -13.5165   38.0461 C   0  0  0  0  0  0  0  0  0  0  0  0
    9.5279  -14.0510   39.0391 O   0  0  0  0  0  0  0  0  0  0  0  0
    3.3419  -12.4409   35.3712 C   0  0  0  0  0  0  0  0  0  0  0  0
    3.6111  -11.0786   34.9134 N   0  0  0  0  0  0  0  0  0  0  0  0
    4.2422  -11.1356   34.1140 H   0  0  0  0  0  0  0  0  0  0  0  0
    2.2611  -10.1851   34.4447 S   0  0  0  0  0  0  0  0  0  0  0  0
    1.0795  -10.8892   34.8882 O   0  0  0  0  0  0  0  0  0  0  0  0
    2.5204   -8.8127   34.8201 O   0  0  0  0  0  0  0  0  0  0  0  0
    2.1893  -10.1891   32.6578 C   0  0  0  0  0  0  0  0  0  0  0  0
    1.4082  -10.9343   31.7803 C   0  0  0  0  0  0  0  0  0  0  0  0
    1.7281  -10.5330   30.4610 C   0  0  0  0  0  0  0  0  0  0  0  0
    1.3038  -10.8881   29.1696 C   0  0  0  0  0  0  0  0  0  0  0  0
    1.8910  -10.2345   28.0824 C   0  0  0  0  0  0  0  0  0  0  0  0
    1.5015  -10.5592   26.8420 F   0  0  0  0  0  0  0  0  0  0  0  0
    2.8712   -9.2561   28.2487 C   0  0  0  0  0  0  0  0  0  0  0  0
    3.3059   -8.8918   29.5272 C   0  0  0  0  0  0  0  0  0  0  0  0
    2.7036   -9.5542   30.5969 C   0  0  0  0  0  0  0  0  0  0  0  0
    2.9813   -9.3393   31.9077 O   0  0  0  0  0  0  0  0  0  0  0  0
    3.0062  -13.1383   38.3490 C   0  0  0  0  0  0  0  0  0  0  0  0
    2.3879  -14.5001   38.4958 C   0  0  0  0  0  0  0  0  0  0  0  0
    3.0014  -15.5583   38.4775 O   0  0  0  0  0  0  0  0  0  0  0  0
    1.0431  -14.5092   38.5615 O   0  0  0  0  0  0  0  0  0  0  0  0
    0.5692  -13.7010   38.5757 H   0  0  0  0  0  0  0  0  0  0  0  0
 10 11  1  0
 11  1  1  0
  1  2  2  0
  2  3  1  0
  3  4  2  0
  4  5  1  0
  5  6  2  0
  5  7  1  0
  7  8  2  0
  8 12  1  0
 12 13  1  0
 13 15  1  0
 15 16  2  0
 15 17  2  0
 15 18  1  0
 18 19  2  0
 19 20  1  0
 20 21  2  0
 21 22  1  0
 22 23  1  0
 22 24  2  0
 24 25  1  0
 25 26  2  0
 26 27  1  0
  8  9  1  0
  9 28  1  0
 28 29  1  0
 29 30  2  0
 29 31  1  0
  6  1  1  0
 27 18  1  0
  9  4  1  0
 26 20  1  0
 13 14  1  0
 31 32  1  0
M  END
> <minimizedAffinity>
-9.63507

> <CNNscore>
0.3252327144

> <CNNaffinity>
4.6902689934

> <CNN_VS>
1.5254288912

> <CNNaffinity_variance>
1.1391402483

$$$$



 32 35  0  0  0  0  0  0  0  0999 V2000
    1.8488   -9.6486   29.3424 C   0  0  0  0  0  0  0  0  0  0  0  0
    3.0230   -9.1164   29.8694 C   0  0  0  0  0  0  0  0  0  0  0  0
    3.4467   -9.4381   31.1666 C   0  0  0  0  0  0  0  0  0  0  0  0
    2.6582  -10.3156   31.9288 C   0  0  0  0  0  0  0  0  0  0  0  0
    1.4852  -10.8703   31.4167 C   0  0  0  0  0  0  0  0  0  0  0  0
    1.0777  -10.5274   30.1125 C   0  0  0  0  0  0  0  0  0  0  0  0
    0.9482  -11.7191   32.4172 C   0  0  0  0  0  0  0  0  0  0  0  0
    1.7799  -11.6751   33.5203 C   0  0  0  0  0  0  0  0  0  0  0  0
    2.8158  -10.8078   33.2146 N   0  0  0  0  0  0  0  0  0  0  0  0
    2.0783   -8.5061   27.2675 C   0  0  0  0  0  0  0  0  0  0  0  0
    1.3434   -9.3997   28.0941 O   0  0  0  0  0  0  0  0  0  0  0  0
    1.6436  -12.3992   34.8190 C   0  0  0  0  0  0  0  0  0  0  0  0
    1.0062  -11.4637   35.7446 N   0  0  0  0  0  0  0  0  0  0  0  0
    0.0077  -11.4485   35.5367 H   0  0  0  0  0  0  0  0  0  0  0  0
    1.1889  -11.8175   37.3822 S   0  0  0  0  0  0  0  0  0  0  0  0
    0.5175  -13.0689   37.6498 O   0  0  0  0  0  0  0  0  0  0  0  0
    2.5859  -11.6157   37.6975 O   0  0  0  0  0  0  0  0  0  0  0  0
    0.3015  -10.5781   38.3173 C   0  0  0  0  0  0  0  0  0  0  0  0
   -0.5027   -9.5237   37.8965 C   0  0  0  0  0  0  0  0  0  0  0  0
   -0.9845   -8.8546   39.0472 C   0  0  0  0  0  0  0  0  0  0  0  0
   -1.8160   -7.7497   39.2954 C   0  0  0  0  0  0  0  0  0  0  0  0
   -2.0534   -7.3920   40.6257 C   0  0  0  0  0  0  0  0  0  0  0  0
   -2.8426   -6.3403   40.8844 F   0  0  0  0  0  0  0  0  0  0  0  0
   -1.4926   -8.0947   41.6922 C   0  0  0  0  0  0  0  0  0  0  0  0
   -0.6616   -9.1961   41.4627 C   0  0  0  0  0  0  0  0  0  0  0  0
   -0.4418   -9.5370   40.1280 C   0  0  0  0  0  0  0  0  0  0  0  0
    0.3243  -10.5720   39.6998 O   0  0  0  0  0  0  0  0  0  0  0  0
    3.8870  -10.4121   34.1229 C   0  0  0  0  0  0  0  0  0  0  0  0
    5.1942  -11.1075   33.8656 C   0  0  0  0  0  0  0  0  0  0  0  0
    5.4483  -11.7886   32.8818 O   0  0  0  0  0  0  0  0  0  0  0  0
    6.0921  -11.0168   34.8648 O   0  0  0  0  0  0  0  0  0  0  0  0
    5.9015  -10.4962   35.6202 H   0  0  0  0  0  0  0  0  0  0  0  0
 10 11  1  0
 11  1  1  0
  1  2  2  0
  2  3  1  0
  3  4  2  0
  4  5  1  0
  5  6  2  0
  5  7  1  0
  7  8  2  0
  8 12  1  0
 12 13  1  0
 13 15  1  0
 15 16  2  0
 15 17  2  0
 15 18  1  0
 18 19  2  0
 19 20  1  0
 20 21  2  0
 21 22  1  0
 22 23  1  0
 22 24  2  0
 24 25  1  0
 25 26  2  0
 26 27  1  0
  8  9  1  0
  9 28  1  0
 28 29  1  0
 29 30  2  0
 29 31  1  0
  6  1  1  0
 27 18  1  0
  9  4  1  0
 26 20  1  0
 13 14  1  0
 31 32  1  0
M  END
> <minimizedAffinity>
-8.07913

> <CNNscore>
0.3224352896

> <CNNaffinity>
5.4691066742

> <CNN_VS>
1.7634329796

> <CNNaffinity_variance>
0.5923776627

$$$$



 32 35  0  0  0  0  0  0  0  0999 V2000
   -0.8729   -9.0631   40.4087 C   0  0  0  0  0  0  0  0  0  0  0  0
   -1.2236   -8.3476   39.2665 C   0  0  0  0  0  0  0  0  0  0  0  0
   -0.7169   -8.6982   38.0071 C   0  0  0  0  0  0  0  0  0  0  0  0
    0.1568   -9.7944   37.9199 C   0  0  0  0  0  0  0  0  0  0  0  0
    0.5118  -10.5329   39.0488 C   0  0  0  0  0  0  0  0  0  0  0  0
   -0.0064  -10.1577   40.3039 C   0  0  0  0  0  0  0  0  0  0  0  0
    1.3761  -11.5713   38.6188 C   0  0  0  0  0  0  0  0  0  0  0  0
    1.5464  -11.4602   37.2517 C   0  0  0  0  0  0  0  0  0  0  0  0
    0.8050  -10.3663   36.8368 N   0  0  0  0  0  0  0  0  0  0  0  0
   -0.7930   -9.6350   42.7174 C   0  0  0  0  0  0  0  0  0  0  0  0
   -1.3054   -8.8055   41.6824 O   0  0  0  0  0  0  0  0  0  0  0  0
    2.3583  -12.3215   36.3413 C   0  0  0  0  0  0  0  0  0  0  0  0
    1.5982  -13.5575   36.1612 N   0  0  0  0  0  0  0  0  0  0  0  0
    1.5598  -13.7591   35.1620 H   0  0  0  0  0  0  0  0  0  0  0  0
    2.2189  -14.9170   36.9402 S   0  0  0  0  0  0  0  0  0  0  0  0
    1.5091  -15.0838   38.1880 O   0  0  0  0  0  0  0  0  0  0  0  0
    2.2844  -15.9694   35.9503 O   0  0  0  0  0  0  0  0  0  0  0  0
    3.9157  -14.5712   37.3867 C   0  0  0  0  0  0  0  0  0  0  0  0
    4.9929  -14.1522   36.6124 C   0  0  0  0  0  0  0  0  0  0  0  0
    6.1134  -14.0046   37.4648 C   0  0  0  0  0  0  0  0  0  0  0  0
    7.4555  -13.6206   37.3064 C   0  0  0  0  0  0  0  0  0  0  0  0
    8.2729  -13.6068   38.4403 C   0  0  0  0  0  0  0  0  0  0  0  0
    9.5566  -13.2449   38.3110 F   0  0  0  0  0  0  0  0  0  0  0  0
    7.7941  -13.9601   39.7019 C   0  0  0  0  0  0  0  0  0  0  0  0
    6.4612  -14.3461   39.8768 C   0  0  0  0  0  0  0  0  0  0  0  0
    5.6634  -14.3488   38.7325 C   0  0  0  0  0  0  0  0  0  0  0  0
    4.3489  -14.6840   38.6950 O   0  0  0  0  0  0  0  0  0  0  0  0
    0.7538   -9.8431   35.4756 C   0  0  0  0  0  0  0  0  0  0  0  0
    1.6341   -8.6465   35.2476 C   0  0  0  0  0  0  0  0  0  0  0  0
    1.2549   -7.4836   35.2421 O   0  0  0  0  0  0  0  0  0  0  0  0
    2.9140   -8.9329   34.9429 O   0  0  0  0  0  0  0  0  0  0  0  0
    3.2086   -9.8223   34.9459 H   0  0  0  0  0  0  0  0  0  0  0  0
 10 11  1  0
 11  1  1  0
  1  2  2  0
  2  3  1  0
  3  4  2  0
  4  5  1  0
  5  6  2  0
  5  7  1  0
  7  8  2  0
  8 12  1  0
 12 13  1  0
 13 15  1  0
 15 16  2  0
 15 17  2  0
 15 18  1  0
 18 19  2  0
 19 20  1  0
 20 21  2  0
 21 22  1  0
 22 23  1  0
 22 24  2  0
 24 25  1  0
 25 26  2  0
 26 27  1  0
  8  9  1  0
  9 28  1  0
 28 29  1  0
 29 30  2  0
 29 31  1  0
  6  1  1  0
 27 18  1  0
  9  4  1  0
 26 20  1  0
 13 14  1  0
 31 32  1  0
M  END
> <minimizedAffinity>
-9.57767

> <CNNscore>
0.2152367234

> <CNNaffinity>
5.3605418205

> <CNN_VS>
1.1537854671

> <CNNaffinity_variance>
0.2502096891

$$$$
