


 26 28  0  0  0  0  0  0  0  0999 V2000
   -0.4778    7.2410   25.0615 C   0  0  0  0  0  0  0  0  0  0  0  0
   -1.2211    6.1101   24.8408 C   0  0  0  0  0  0  0  0  0  0  0  0
   -0.9009    5.0488   25.6450 C   0  0  0  0  0  0  0  0  0  0  0  0
   -1.8607    3.4255   25.4322 Br  0  0  0  0  0  0  0  0  0  0  0  0
    0.0567    5.0793   26.5870 N   0  0  0  0  0  0  0  0  0  0  0  0
    0.7341    6.2241   26.7322 C   0  0  0  0  0  0  0  0  0  0  0  0
    0.4903    7.3114   25.9943 N   0  0  0  0  0  0  0  0  0  0  0  0
   -1.5909   10.1963   22.8300 C   0  0  0  0  0  0  0  0  0  0  0  0
   -0.5146   10.6307   23.4420 N   0  0  0  0  0  0  0  0  0  0  0  0
    0.0171    9.6527   24.2682 C   0  0  0  0  0  0  0  0  0  0  0  0
    1.2672    9.9764   25.0058 C   0  0  0  0  0  0  0  0  0  0  0  0
   -0.6970    8.4652   24.2988 C   0  0  0  0  0  0  0  0  0  0  0  0
   -2.0412    8.5873   23.2385 S   0  0  0  0  0  0  0  0  0  0  0  0
   -3.4846   10.5364   21.3333 C   0  0  0  0  0  0  0  0  0  0  0  0
   -2.2715   10.9953   21.9728 N   0  0  0  0  0  0  0  0  0  0  0  0
   -1.9354   11.9009   21.7828 H   0  0  0  0  0  0  0  0  0  0  0  0
    1.7169    6.2042   27.7167 N   0  0  0  0  0  0  0  0  0  0  0  0
    1.5573    5.5191   28.4055 H   0  0  0  0  0  0  0  0  0  0  0  0
    2.8824    6.9445   27.9423 C   0  0  0  0  0  0  0  0  0  0  0  0
    3.4116    7.8675   27.0338 C   0  0  0  0  0  0  0  0  0  0  0  0
    4.5812    8.5799   27.3225 C   0  0  0  0  0  0  0  0  0  0  0  0
    5.2346    8.3760   28.5286 C   0  0  0  0  0  0  0  0  0  0  0  0
    6.3697    9.0903   28.7691 O   0  0  0  0  0  0  0  0  0  0  0  0
    4.7367    7.4698   29.4538 C   0  0  0  0  0  0  0  0  0  0  0  0
    3.5667    6.7616   29.1576 C   0  0  0  0  0  0  0  0  0  0  0  0
    6.6863    9.6966   28.1286 H   0  0  0  0  0  0  0  0  0  0  0  0
 14 15  1  0
 15  8  1  0
  8  9  2  0
  9 10  1  0
 10 11  1  0
 10 12  2  0
 12  1  1  0
  1  2  2  0
  2  3  1  0
  3  4  1  0
  3  5  2  0
  5  6  1  0
  6 17  1  0
 17 19  1  0
 19 20  2  0
 20 21  1  0
 21 22  2  0
 22 23  1  0
 22 24  1  0
 24 25  2  0
  6  7  2  0
 12 13  1  0
 13  8  1  0
  7  1  1  0
 25 19  1  0
 15 16  1  0
 17 18  1  0
 23 26  1  0
M  END
> <minimizedAffinity>
-8.60636

> <CNNscore>
0.5077726841

> <CNNaffinity>
6.7167134285

> <CNN_VS>
3.4105637074

> <CNNaffinity_variance>
0.0439929552

$$$$



 26 28  0  0  0  0  0  0  0  0999 V2000
   -0.7508    9.3248   23.8214 C   0  0  0  0  0  0  0  0  0  0  0  0
   -1.7446    9.7492   22.9775 C   0  0  0  0  0  0  0  0  0  0  0  0
   -2.8160    8.9014   22.8829 C   0  0  0  0  0  0  0  0  0  0  0  0
   -4.2558    9.3803   21.7430 Br  0  0  0  0  0  0  0  0  0  0  0  0
   -2.9195    7.7405   23.5515 N   0  0  0  0  0  0  0  0  0  0  0  0
   -1.9011    7.4039   24.3517 C   0  0  0  0  0  0  0  0  0  0  0  0
   -0.8163    8.1687   24.5081 N   0  0  0  0  0  0  0  0  0  0  0  0
    2.1453   11.8737   24.0826 C   0  0  0  0  0  0  0  0  0  0  0  0
    2.5413   10.8482   24.7990 N   0  0  0  0  0  0  0  0  0  0  0  0
    1.6000    9.8308   24.7745 C   0  0  0  0  0  0  0  0  0  0  0  0
    1.9182    8.5776   25.5093 C   0  0  0  0  0  0  0  0  0  0  0  0
    0.4557   10.1138   24.0454 C   0  0  0  0  0  0  0  0  0  0  0  0
    0.5971   11.6804   23.3585 S   0  0  0  0  0  0  0  0  0  0  0  0
    3.4923   13.6076   25.1413 C   0  0  0  0  0  0  0  0  0  0  0  0
    2.9175   12.9817   23.9713 N   0  0  0  0  0  0  0  0  0  0  0  0
    3.0897   13.3659   23.0813 H   0  0  0  0  0  0  0  0  0  0  0  0
   -2.0537    6.1924   25.0184 N   0  0  0  0  0  0  0  0  0  0  0  0
   -2.9589    5.8157   24.9290 H   0  0  0  0  0  0  0  0  0  0  0  0
   -1.2025    5.3922   25.7880 C   0  0  0  0  0  0  0  0  0  0  0  0
   -0.1339    5.8869   26.5436 C   0  0  0  0  0  0  0  0  0  0  0  0
    0.6788    5.0317   27.2964 C   0  0  0  0  0  0  0  0  0  0  0  0
    0.4286    3.6676   27.3019 C   0  0  0  0  0  0  0  0  0  0  0  0
    1.2442    2.8713   28.0483 O   0  0  0  0  0  0  0  0  0  0  0  0
   -0.6239    3.1428   26.5657 C   0  0  0  0  0  0  0  0  0  0  0  0
   -1.4320    4.0046   25.8157 C   0  0  0  0  0  0  0  0  0  0  0  0
    1.9486    3.2494   28.5371 H   0  0  0  0  0  0  0  0  0  0  0  0
 14 15  1  0
 15  8  1  0
  8  9  2  0
  9 10  1  0
 10 11  1  0
 10 12  2  0
 12  1  1  0
  1  2  2  0
  2  3  1  0
  3  4  1  0
  3  5  2  0
  5  6  1  0
  6 17  1  0
 17 19  1  0
 19 20  2  0
 20 21  1  0
 21 22  2  0
 22 23  1  0
 22 24  1  0
 24 25  2  0
  6  7  2  0
 12 13  1  0
 13  8  1  0
  7  1  1  0
 25 19  1  0
 15 16  1  0
 17 18  1  0
 23 26  1  0
M  END
> <minimizedAffinity>
-9.23065

> <CNNscore>
0.4879178405

> <CNNaffinity>
6.3145871162

> <CNN_VS>
3.0809996128

> <CNNaffinity_variance>
0.2247394770

$$$$



 26 28  0  0  0  0  0  0  0  0999 V2000
    0.6208    6.8972   25.6470 C   0  0  0  0  0  0  0  0  0  0  0  0
   -0.2317    5.8581   25.9185 C   0  0  0  0  0  0  0  0  0  0  0  0
   -1.2816    5.7367   25.0476 C   0  0  0  0  0  0  0  0  0  0  0  0
   -2.5317    4.3352   25.3213 Br  0  0  0  0  0  0  0  0  0  0  0  0
   -1.4887    6.5508   23.9990 N   0  0  0  0  0  0  0  0  0  0  0  0
   -0.6076    7.5401   23.8108 C   0  0  0  0  0  0  0  0  0  0  0  0
    0.4476    7.7348   24.6075 N   0  0  0  0  0  0  0  0  0  0  0  0
    3.5927    7.0436   28.1165 C   0  0  0  0  0  0  0  0  0  0  0  0
    3.7522    8.0923   27.3442 N   0  0  0  0  0  0  0  0  0  0  0  0
    2.7294    8.1846   26.4129 C   0  0  0  0  0  0  0  0  0  0  0  0
    2.7436    9.3462   25.4844 C   0  0  0  0  0  0  0  0  0  0  0  0
    1.7961    7.1616   26.4699 C   0  0  0  0  0  0  0  0  0  0  0  0
    2.2105    6.0897   27.7448 S   0  0  0  0  0  0  0  0  0  0  0  0
    5.2898    7.8076   29.6907 C   0  0  0  0  0  0  0  0  0  0  0  0
    4.4837    6.7634   29.0984 N   0  0  0  0  0  0  0  0  0  0  0  0
    4.5835    5.8358   29.4129 H   0  0  0  0  0  0  0  0  0  0  0  0
   -0.8674    8.3573   22.7152 N   0  0  0  0  0  0  0  0  0  0  0  0
   -0.0512    8.6300   22.2369 H   0  0  0  0  0  0  0  0  0  0  0  0
   -2.0344    8.8765   22.1445 C   0  0  0  0  0  0  0  0  0  0  0  0
   -2.1173    9.3586   20.8337 C   0  0  0  0  0  0  0  0  0  0  0  0
   -3.3184    9.8623   20.3212 C   0  0  0  0  0  0  0  0  0  0  0  0
   -4.4532    9.8872   21.1179 C   0  0  0  0  0  0  0  0  0  0  0  0
   -5.6012   10.3858   20.5793 O   0  0  0  0  0  0  0  0  0  0  0  0
   -4.4075    9.4153   22.4219 C   0  0  0  0  0  0  0  0  0  0  0  0
   -3.2029    8.9133   22.9268 C   0  0  0  0  0  0  0  0  0  0  0  0
   -5.6070   10.6987   19.6961 H   0  0  0  0  0  0  0  0  0  0  0  0
 14 15  1  0
 15  8  1  0
  8  9  2  0
  9 10  1  0
 10 11  1  0
 10 12  2  0
 12  1  1  0
  1  2  2  0
  2  3  1  0
  3  4  1  0
  3  5  2  0
  5  6  1  0
  6 17  1  0
 17 19  1  0
 19 20  2  0
 20 21  1  0
 21 22  2  0
 22 23  1  0
 22 24  1  0
 24 25  2  0
  6  7  2  0
 12 13  1  0
 13  8  1  0
  7  1  1  0
 25 19  1  0
 15 16  1  0
 17 18  1  0
 23 26  1  0
M  END
> <minimizedAffinity>
-8.50153

> <CNNscore>
0.4589391053

> <CNNaffinity>
6.8486647606

> <CNN_VS>
3.1431200504

> <CNNaffinity_variance>
0.0476790182

$$$$



 26 28  0  0  0  0  0  0  0  0999 V2000
    1.2867    6.6588   26.5887 C   0  0  0  0  0  0  0  0  0  0  0  0
    0.9723    5.3734   26.9476 C   0  0  0  0  0  0  0  0  0  0  0  0
   -0.1887    4.8944   26.4016 C   0  0  0  0  0  0  0  0  0  0  0  0
   -0.7306    3.1258   26.8263 Br  0  0  0  0  0  0  0  0  0  0  0  0
   -0.9791    5.5989   25.5744 N   0  0  0  0  0  0  0  0  0  0  0  0
   -0.5962    6.8468   25.2798 C   0  0  0  0  0  0  0  0  0  0  0  0
    0.5211    7.3975   25.7637 N   0  0  0  0  0  0  0  0  0  0  0  0
    4.5267    7.9159   28.2840 C   0  0  0  0  0  0  0  0  0  0  0  0
    4.3091    8.7698   27.3118 N   0  0  0  0  0  0  0  0  0  0  0  0
    3.1477    8.4549   26.6235 C   0  0  0  0  0  0  0  0  0  0  0  0
    2.7384    9.3538   25.5117 C   0  0  0  0  0  0  0  0  0  0  0  0
    2.4948    7.3179   27.0729 C   0  0  0  0  0  0  0  0  0  0  0  0
    3.3541    6.6635   28.4068 S   0  0  0  0  0  0  0  0  0  0  0  0
    5.5340    7.7348   30.4964 C   0  0  0  0  0  0  0  0  0  0  0  0
    5.6130    8.0387   29.0848 N   0  0  0  0  0  0  0  0  0  0  0  0
    6.4681    8.3390   28.7001 H   0  0  0  0  0  0  0  0  0  0  0  0
   -1.4490    7.5359   24.4234 N   0  0  0  0  0  0  0  0  0  0  0  0
   -2.3563    7.1547   24.3954 H   0  0  0  0  0  0  0  0  0  0  0  0
   -1.2996    8.6521   23.5932 C   0  0  0  0  0  0  0  0  0  0  0  0
   -0.9853    9.9348   24.0551 C   0  0  0  0  0  0  0  0  0  0  0  0
   -0.8458   11.0100   23.1701 C   0  0  0  0  0  0  0  0  0  0  0  0
   -1.0186   10.8113   21.8085 C   0  0  0  0  0  0  0  0  0  0  0  0
   -0.8736   11.8852   20.9826 O   0  0  0  0  0  0  0  0  0  0  0  0
   -1.3288    9.5520   21.3154 C   0  0  0  0  0  0  0  0  0  0  0  0
   -1.4665    8.4822   22.2068 C   0  0  0  0  0  0  0  0  0  0  0  0
   -0.6639   12.7258   21.3395 H   0  0  0  0  0  0  0  0  0  0  0  0
 14 15  1  0
 15  8  1  0
  8  9  2  0
  9 10  1  0
 10 11  1  0
 10 12  2  0
 12  1  1  0
  1  2  2  0
  2  3  1  0
  3  4  1  0
  3  5  2  0
  5  6  1  0
  6 17  1  0
 17 19  1  0
 19 20  2  0
 20 21  1  0
 21 22  2  0
 22 23  1  0
 22 24  1  0
 24 25  2  0
  6  7  2  0
 12 13  1  0
 13  8  1  0
  7  1  1  0
 25 19  1  0
 15 16  1  0
 17 18  1  0
 23 26  1  0
M  END
> <minimizedAffinity>
-7.92509

> <CNNscore>
0.3969166875

> <CNNaffinity>
6.5714817047

> <CNN_VS>
2.6083307266

> <CNNaffinity_variance>
0.1922508925

$$$$



 26 28  0  0  0  0  0  0  0  0999 V2000
   -0.4480    7.6202   24.9939 C   0  0  0  0  0  0  0  0  0  0  0  0
   -1.3310    6.5988   24.7549 C   0  0  0  0  0  0  0  0  0  0  0  0
   -1.1182    5.4714   25.5028 C   0  0  0  0  0  0  0  0  0  0  0  0
   -2.2761    3.9876   25.2595 Br  0  0  0  0  0  0  0  0  0  0  0  0
   -0.1347    5.3432   26.4092 N   0  0  0  0  0  0  0  0  0  0  0  0
    0.6823    6.3898   26.5759 C   0  0  0  0  0  0  0  0  0  0  0  0
    0.5504    7.5307   25.8925 N   0  0  0  0  0  0  0  0  0  0  0  0
   -0.1403   11.1417   23.4265 C   0  0  0  0  0  0  0  0  0  0  0  0
   -1.2049   10.6206   22.8635 N   0  0  0  0  0  0  0  0  0  0  0  0
   -1.4568    9.3496   23.3562 C   0  0  0  0  0  0  0  0  0  0  0  0
   -2.6574    8.6361   22.8452 C   0  0  0  0  0  0  0  0  0  0  0  0
   -0.5394    8.8950   24.2905 C   0  0  0  0  0  0  0  0  0  0  0  0
    0.6370   10.1141   24.5660 S   0  0  0  0  0  0  0  0  0  0  0  0
    1.5180   12.9172   23.6248 C   0  0  0  0  0  0  0  0  0  0  0  0
    0.2864   12.3825   23.0878 N   0  0  0  0  0  0  0  0  0  0  0  0
   -0.2496   12.9275   22.4675 H   0  0  0  0  0  0  0  0  0  0  0  0
    1.6859    6.2066   27.5218 N   0  0  0  0  0  0  0  0  0  0  0  0
    1.5563    5.3980   28.0682 H   0  0  0  0  0  0  0  0  0  0  0  0
    2.8390    6.9199   27.8665 C   0  0  0  0  0  0  0  0  0  0  0  0
    3.5410    6.7420   29.0637 C   0  0  0  0  0  0  0  0  0  0  0  0
    4.6920    7.4863   29.3465 C   0  0  0  0  0  0  0  0  0  0  0  0
    5.1548    8.4185   28.4300 C   0  0  0  0  0  0  0  0  0  0  0  0
    6.2788    9.1211   28.7455 O   0  0  0  0  0  0  0  0  0  0  0  0
    4.4846    8.6194   27.2318 C   0  0  0  0  0  0  0  0  0  0  0  0
    3.3346    7.8712   26.9565 C   0  0  0  0  0  0  0  0  0  0  0  0
    6.7139    8.9675   29.5610 H   0  0  0  0  0  0  0  0  0  0  0  0
 14 15  1  0
 15  8  1  0
  8  9  2  0
  9 10  1  0
 10 11  1  0
 10 12  2  0
 12  1  1  0
  1  2  2  0
  2  3  1  0
  3  4  1  0
  3  5  2  0
  5  6  1  0
  6 17  1  0
 17 19  1  0
 19 20  2  0
 20 21  1  0
 21 22  2  0
 22 23  1  0
 22 24  1  0
 24 25  2  0
  6  7  2  0
 12 13  1  0
 13  8  1  0
  7  1  1  0
 25 19  1  0
 15 16  1  0
 17 18  1  0
 23 26  1  0
M  END
> <minimizedAffinity>
-8.59734

> <CNNscore>
0.3806129694

> <CNNaffinity>
6.5204696655

> <CNN_VS>
2.4817752838

> <CNNaffinity_variance>
0.0832436979

$$$$



 26 28  0  0  0  0  0  0  0  0999 V2000
    0.6848    6.9626   26.1494 C   0  0  0  0  0  0  0  0  0  0  0  0
   -0.0754    5.8217   26.1657 C   0  0  0  0  0  0  0  0  0  0  0  0
   -1.2110    5.8795   25.4023 C   0  0  0  0  0  0  0  0  0  0  0  0
   -2.3465    4.3600   25.3463 Br  0  0  0  0  0  0  0  0  0  0  0  0
   -1.5796    6.9510   24.6803 N   0  0  0  0  0  0  0  0  0  0  0  0
   -0.7787    8.0221   24.7247 C   0  0  0  0  0  0  0  0  0  0  0  0
    0.3496    8.0566   25.4400 N   0  0  0  0  0  0  0  0  0  0  0  0
    4.0910    7.7670   27.7936 C   0  0  0  0  0  0  0  0  0  0  0  0
    3.6522    6.7128   28.4400 N   0  0  0  0  0  0  0  0  0  0  0  0
    2.4333    6.2898   27.9328 C   0  0  0  0  0  0  0  0  0  0  0  0
    1.8184    5.0767   28.5345 C   0  0  0  0  0  0  0  0  0  0  0  0
    1.9318    7.0656   26.8996 C   0  0  0  0  0  0  0  0  0  0  0  0
    3.0419    8.3275   26.5510 S   0  0  0  0  0  0  0  0  0  0  0  0
    5.6180    9.6607   27.6392 C   0  0  0  0  0  0  0  0  0  0  0  0
    5.2694    8.3457   28.1295 N   0  0  0  0  0  0  0  0  0  0  0  0
    5.8970    7.8642   28.7155 H   0  0  0  0  0  0  0  0  0  0  0  0
   -1.2052    9.1062   23.9641 N   0  0  0  0  0  0  0  0  0  0  0  0
   -1.1205    9.9651   24.4377 H   0  0  0  0  0  0  0  0  0  0  0  0
   -1.7280    9.2430   22.6736 C   0  0  0  0  0  0  0  0  0  0  0  0
   -2.9690    8.7354   22.2739 C   0  0  0  0  0  0  0  0  0  0  0  0
   -3.4365    8.9104   20.9664 C   0  0  0  0  0  0  0  0  0  0  0  0
   -2.6646    9.5990   20.0427 C   0  0  0  0  0  0  0  0  0  0  0  0
   -3.1578    9.7463   18.7811 O   0  0  0  0  0  0  0  0  0  0  0  0
   -1.4298   10.1175   20.4053 C   0  0  0  0  0  0  0  0  0  0  0  0
   -0.9695    9.9384   21.7146 C   0  0  0  0  0  0  0  0  0  0  0  0
   -3.9945    9.3870   18.5602 H   0  0  0  0  0  0  0  0  0  0  0  0
 14 15  1  0
 15  8  1  0
  8  9  2  0
  9 10  1  0
 10 11  1  0
 10 12  2  0
 12  1  1  0
  1  2  2  0
  2  3  1  0
  3  4  1  0
  3  5  2  0
  5  6  1  0
  6 17  1  0
 17 19  1  0
 19 20  2  0
 20 21  1  0
 21 22  2  0
 22 23  1  0
 22 24  1  0
 24 25  2  0
  6  7  2  0
 12 13  1  0
 13  8  1  0
  7  1  1  0
 25 19  1  0
 15 16  1  0
 17 18  1  0
 23 26  1  0
M  END
> <minimizedAffinity>
-8.70084

> <CNNscore>
0.3788178265

> <CNNaffinity>
6.4826531410

> <CNN_VS>
2.4557445049

> <CNNaffinity_variance>
0.1285917163

$$$$



 26 28  0  0  0  0  0  0  0  0999 V2000
    1.1816    6.9012   26.3858 C   0  0  0  0  0  0  0  0  0  0  0  0
    1.3510    8.0525   25.6607 C   0  0  0  0  0  0  0  0  0  0  0  0
    2.4929    8.7500   25.9526 C   0  0  0  0  0  0  0  0  0  0  0  0
    2.8371   10.3633   25.0142 Br  0  0  0  0  0  0  0  0  0  0  0  0
    3.3979    8.3646   26.8678 N   0  0  0  0  0  0  0  0  0  0  0  0
    3.1506    7.2286   27.5303 C   0  0  0  0  0  0  0  0  0  0  0  0
    2.0643    6.4815   27.3116 N   0  0  0  0  0  0  0  0  0  0  0  0
   -2.1268    5.0911   25.5311 C   0  0  0  0  0  0  0  0  0  0  0  0
   -1.4211    4.1993   26.1858 N   0  0  0  0  0  0  0  0  0  0  0  0
   -0.2017    4.7246   26.5844 C   0  0  0  0  0  0  0  0  0  0  0  0
    0.7026    3.8480   27.3753 C   0  0  0  0  0  0  0  0  0  0  0  0
    0.0242    6.0345   26.1919 C   0  0  0  0  0  0  0  0  0  0  0  0
   -1.3461    6.6110   25.3338 S   0  0  0  0  0  0  0  0  0  0  0  0
   -4.4698    5.6899   25.2256 C   0  0  0  0  0  0  0  0  0  0  0  0
   -3.3557    4.7852   25.0488 N   0  0  0  0  0  0  0  0  0  0  0  0
   -3.4918    3.9350   24.5714 H   0  0  0  0  0  0  0  0  0  0  0  0
    4.1144    6.8745   28.4691 N   0  0  0  0  0  0  0  0  0  0  0  0
    4.2089    5.9002   28.5744 H   0  0  0  0  0  0  0  0  0  0  0  0
    4.9786    7.5998   29.2964 C   0  0  0  0  0  0  0  0  0  0  0  0
    5.1029    7.3904   30.6741 C   0  0  0  0  0  0  0  0  0  0  0  0
    5.9908    8.1490   31.4454 C   0  0  0  0  0  0  0  0  0  0  0  0
    6.7672    9.1276   30.8432 C   0  0  0  0  0  0  0  0  0  0  0  0
    7.6182    9.8428   31.6312 O   0  0  0  0  0  0  0  0  0  0  0  0
    6.6711    9.3609   29.4789 C   0  0  0  0  0  0  0  0  0  0  0  0
    5.7811    8.5980   28.7146 C   0  0  0  0  0  0  0  0  0  0  0  0
    7.6653    9.6668   32.5503 H   0  0  0  0  0  0  0  0  0  0  0  0
 14 15  1  0
 15  8  1  0
  8  9  2  0
  9 10  1  0
 10 11  1  0
 10 12  2  0
 12  1  1  0
  1  2  2  0
  2  3  1  0
  3  4  1  0
  3  5  2  0
  5  6  1  0
  6 17  1  0
 17 19  1  0
 19 20  2  0
 20 21  1  0
 21 22  2  0
 22 23  1  0
 22 24  1  0
 24 25  2  0
  6  7  2  0
 12 13  1  0
 13  8  1  0
  7  1  1  0
 25 19  1  0
 15 16  1  0
 17 18  1  0
 23 26  1  0
M  END
> <minimizedAffinity>
-7.05176

> <CNNscore>
0.2951551378

> <CNNaffinity>
6.4236025810

> <CNN_VS>
1.8959592581

> <CNNaffinity_variance>
0.3159840107

$$$$



 26 28  0  0  0  0  0  0  0  0999 V2000
   -0.3772    9.3795   24.1833 C   0  0  0  0  0  0  0  0  0  0  0  0
   -1.3578    9.7399   23.2953 C   0  0  0  0  0  0  0  0  0  0  0  0
   -2.4436    8.9056   23.2719 C   0  0  0  0  0  0  0  0  0  0  0  0
   -3.8672    9.3002   22.0806 Br  0  0  0  0  0  0  0  0  0  0  0  0
   -2.5721    7.8145   24.0454 N   0  0  0  0  0  0  0  0  0  0  0  0
   -1.5651    7.5369   24.8817 C   0  0  0  0  0  0  0  0  0  0  0  0
   -0.4678    8.2941   24.9746 N   0  0  0  0  0  0  0  0  0  0  0  0
    2.5079   11.9474   24.3683 C   0  0  0  0  0  0  0  0  0  0  0  0
    3.0013   10.8561   24.9044 N   0  0  0  0  0  0  0  0  0  0  0  0
    2.0728    9.8269   24.8817 C   0  0  0  0  0  0  0  0  0  0  0  0
    2.4932    8.5056   25.4193 C   0  0  0  0  0  0  0  0  0  0  0  0
    0.8418   10.1651   24.3421 C   0  0  0  0  0  0  0  0  0  0  0  0
    0.8808   11.8028   23.8296 S   0  0  0  0  0  0  0  0  0  0  0  0
    2.7372   14.2601   23.6328 C   0  0  0  0  0  0  0  0  0  0  0  0
    3.2505   13.0782   24.2892 N   0  0  0  0  0  0  0  0  0  0  0  0
    4.1521   13.0954   24.6842 H   0  0  0  0  0  0  0  0  0  0  0  0
   -1.7436    6.3960   25.6577 N   0  0  0  0  0  0  0  0  0  0  0  0
   -2.6917    6.1718   25.7992 H   0  0  0  0  0  0  0  0  0  0  0  0
   -0.8708    5.4977   26.2810 C   0  0  0  0  0  0  0  0  0  0  0  0
   -1.0547    4.1108   26.2966 C   0  0  0  0  0  0  0  0  0  0  0  0
   -0.1404    3.2656   26.9357 C   0  0  0  0  0  0  0  0  0  0  0  0
    0.9721    3.8017   27.5668 C   0  0  0  0  0  0  0  0  0  0  0  0
    1.8365    2.9429   28.1767 O   0  0  0  0  0  0  0  0  0  0  0  0
    1.1868    5.1724   27.5692 C   0  0  0  0  0  0  0  0  0  0  0  0
    0.2681    6.0108   26.9278 C   0  0  0  0  0  0  0  0  0  0  0  0
    1.6698    2.0210   28.1615 H   0  0  0  0  0  0  0  0  0  0  0  0
 14 15  1  0
 15  8  1  0
  8  9  2  0
  9 10  1  0
 10 11  1  0
 10 12  2  0
 12  1  1  0
  1  2  2  0
  2  3  1  0
  3  4  1  0
  3  5  2  0
  5  6  1  0
  6 17  1  0
 17 19  1  0
 19 20  2  0
 20 21  1  0
 21 22  2  0
 22 23  1  0
 22 24  1  0
 24 25  2  0
  6  7  2  0
 12 13  1  0
 13  8  1  0
  7  1  1  0
 25 19  1  0
 15 16  1  0
 17 18  1  0
 23 26  1  0
M  END
> <minimizedAffinity>
-7.78593

> <CNNscore>
0.2710414529

> <CNNaffinity>
6.1481060982

> <CNN_VS>
1.6663916111

> <CNNaffinity_variance>
0.2226950973

$$$$



 26 28  0  0  0  0  0  0  0  0999 V2000
   -2.3735    8.6938   22.9299 C   0  0  0  0  0  0  0  0  0  0  0  0
   -1.2887    9.4982   23.1667 C   0  0  0  0  0  0  0  0  0  0  0  0
   -0.4862    9.0879   24.1979 C   0  0  0  0  0  0  0  0  0  0  0  0
    1.0472   10.1222   24.6228 Br  0  0  0  0  0  0  0  0  0  0  0  0
   -0.7123    7.9890   24.9372 N   0  0  0  0  0  0  0  0  0  0  0  0
   -1.7962    7.2639   24.6375 C   0  0  0  0  0  0  0  0  0  0  0  0
   -2.6350    7.5856   23.6481 N   0  0  0  0  0  0  0  0  0  0  0  0
   -4.5145    9.0857   19.7338 C   0  0  0  0  0  0  0  0  0  0  0  0
   -5.1850    9.7266   20.6620 N   0  0  0  0  0  0  0  0  0  0  0  0
   -4.5135    9.6921   21.8743 C   0  0  0  0  0  0  0  0  0  0  0  0
   -5.1260   10.4101   23.0237 C   0  0  0  0  0  0  0  0  0  0  0  0
   -3.3239    8.9810   21.8610 C   0  0  0  0  0  0  0  0  0  0  0  0
   -3.0443    8.3783   20.2783 S   0  0  0  0  0  0  0  0  0  0  0  0
   -5.1705    7.7102   17.8313 C   0  0  0  0  0  0  0  0  0  0  0  0
   -4.9936    8.9958   18.4694 N   0  0  0  0  0  0  0  0  0  0  0  0
   -5.2243    9.8172   17.9782 H   0  0  0  0  0  0  0  0  0  0  0  0
   -1.9887    6.1390   25.4332 N   0  0  0  0  0  0  0  0  0  0  0  0
   -2.9395    5.9302   25.5804 H   0  0  0  0  0  0  0  0  0  0  0  0
   -1.1269    5.2394   26.0700 C   0  0  0  0  0  0  0  0  0  0  0  0
   -1.2944    3.8504   26.0545 C   0  0  0  0  0  0  0  0  0  0  0  0
   -0.3924    3.0043   26.7096 C   0  0  0  0  0  0  0  0  0  0  0  0
    0.6913    3.5414   27.3880 C   0  0  0  0  0  0  0  0  0  0  0  0
    1.5446    2.6817   28.0119 O   0  0  0  0  0  0  0  0  0  0  0  0
    0.8892    4.9143   27.4223 C   0  0  0  0  0  0  0  0  0  0  0  0
   -0.0171    5.7536   26.7648 C   0  0  0  0  0  0  0  0  0  0  0  0
    1.3897    1.7583   27.9745 H   0  0  0  0  0  0  0  0  0  0  0  0
 14 15  1  0
 15  8  1  0
  8  9  2  0
  9 10  1  0
 10 11  1  0
 10 12  2  0
 12  1  1  0
  1  2  2  0
  2  3  1  0
  3  4  1  0
  3  5  2  0
  5  6  1  0
  6 17  1  0
 17 19  1  0
 19 20  2  0
 20 21  1  0
 21 22  2  0
 22 23  1  0
 22 24  1  0
 24 25  2  0
  6  7  2  0
 12 13  1  0
 13  8  1  0
  7  1  1  0
 25 19  1  0
 15 16  1  0
 17 18  1  0
 23 26  1  0
M  END
> <minimizedAffinity>
-9.86673

> <CNNscore>
0.2574424744

> <CNNaffinity>
5.9932236671

> <CNN_VS>
1.5429103374

> <CNNaffinity_variance>
0.3348271847

$$$$
