


 32 35  0  0  0  0  0  0  0  0999 V2000
   20.0461    5.5197    9.9458 C   0  0  0  0  0  0  0  0  0  0  0  0
   18.6337    5.1227    9.8443 N   0  0  0  0  0  0  0  0  0  0  0  0
   18.1891    3.8311    9.9324 C   0  0  0  0  0  0  0  0  0  0  0  0
   18.8487    2.8357   10.1597 O   0  0  0  0  0  0  0  0  0  0  0  0
   16.7348    3.8721    9.7983 C   0  0  0  0  0  0  0  0  0  0  0  0
   15.8077    2.8507    9.7603 C   0  0  0  0  0  0  0  0  0  0  0  0
   14.4592    3.2166    9.6587 C   0  0  0  0  0  0  0  0  0  0  0  0
   14.0744    4.5800    9.6076 C   0  0  0  0  0  0  0  0  0  0  0  0
   15.0427    5.5956    9.6554 C   0  0  0  0  0  0  0  0  0  0  0  0
   16.3638    5.2044    9.7450 C   0  0  0  0  0  0  0  0  0  0  0  0
   17.5857    6.0013    9.8445 C   0  0  0  0  0  0  0  0  0  0  0  0
   17.6202    7.2069   10.0012 O   0  0  0  0  0  0  0  0  0  0  0  0
   12.6505    4.9867    9.5164 C   0  0  0  0  0  0  0  0  0  0  0  0
   11.7056    4.2232    9.4626 O   0  0  0  0  0  0  0  0  0  0  0  0
   12.4928    6.3199    9.4946 O   0  0  0  0  0  0  0  0  0  0  0  0
   13.2419    6.8811    9.5376 H   0  0  0  0  0  0  0  0  0  0  0  0
   20.4331    6.4743    8.7788 C   0  0  0  0  0  0  0  0  0  0  0  0
   22.9874    6.5459    8.5848 C   0  0  0  0  0  0  0  0  0  0  0  0
   21.6852    6.0444    7.9596 N   0  0  0  0  0  0  0  0  0  0  0  0
   21.7260    4.5109    7.9481 C   0  0  0  0  0  0  0  0  0  0  0  0
   21.5924    6.5289    6.5179 C   0  0  0  0  0  0  0  0  0  0  0  0
   20.3707    6.1957   11.3049 C   0  0  0  0  0  0  0  0  0  0  0  0
   21.6558    5.6963   11.9399 C   0  0  0  0  0  0  0  0  0  0  0  0
   22.0367    4.3668   11.6711 C   0  0  0  0  0  0  0  0  0  0  0  0
   23.2251    3.8491   12.1710 C   0  0  0  0  0  0  0  0  0  0  0  0
   24.0521    4.6499   12.9522 C   0  0  0  0  0  0  0  0  0  0  0  0
   23.6978    5.9714   13.2565 C   0  0  0  0  0  0  0  0  0  0  0  0
   24.5453    6.7506   14.0608 C   0  0  0  0  0  0  0  0  0  0  0  0
   24.2136    8.0610   14.3951 C   0  0  0  0  0  0  0  0  0  0  0  0
   23.0254    8.6082   13.9329 C   0  0  0  0  0  0  0  0  0  0  0  0
   22.1730    7.8458   13.1289 C   0  0  0  0  0  0  0  0  0  0  0  0
   22.4847    6.5154   12.7601 C   0  0  0  0  0  0  0  0  0  0  0  0
 18 19  1  0
 19 20  1  0
 19 21  1  0
 19 17  1  0
  1 17  1  0
  1 22  1  0
 22 23  1  0
 23 24  2  0
 24 25  1  0
 25 26  2  0
 26 27  1  0
 27 28  2  0
 28 29  1  0
 29 30  2  0
 30 31  1  0
 31 32  2  0
  1  2  1  0
  2  3  1  0
  3  4  2  0
  3  5  1  0
  5  6  2  0
  6  7  1  0
  7  8  2  0
  8 13  1  0
 13 14  2  0
 13 15  1  0
  8  9  1  0
  9 10  2  0
 10 11  1  0
 11 12  2  0
 32 23  1  0
 11  2  1  0
 32 27  1  0
 10  5  1  0
 15 16  1  0
M  CHG 1  19   1
M  END
> <minimizedAffinity>
-6.93581

> <CNNscore>
0.7412385941

> <CNNaffinity>
5.3420538902

> <CNN_VS>
3.9597365856

> <CNNaffinity_variance>
0.0554128885

$$$$



 32 35  0  0  0  0  0  0  0  0999 V2000
   23.4775    7.0970   16.4631 C   0  0  0  0  0  0  0  0  0  0  0  0
   23.1805    6.4801   15.1616 N   0  0  0  0  0  0  0  0  0  0  0  0
   24.1298    6.1464   14.2335 C   0  0  0  0  0  0  0  0  0  0  0  0
   25.3366    6.2426   14.3425 O   0  0  0  0  0  0  0  0  0  0  0  0
   23.4257    5.5504   13.1006 C   0  0  0  0  0  0  0  0  0  0  0  0
   23.9000    5.0978   11.8863 C   0  0  0  0  0  0  0  0  0  0  0  0
   22.9663    4.5351   11.0064 C   0  0  0  0  0  0  0  0  0  0  0  0
   21.5980    4.4314   11.3620 C   0  0  0  0  0  0  0  0  0  0  0  0
   21.1489    4.8955   12.6087 C   0  0  0  0  0  0  0  0  0  0  0  0
   22.0900    5.4545   13.4503 C   0  0  0  0  0  0  0  0  0  0  0  0
   21.9543    5.9916   14.8036 C   0  0  0  0  0  0  0  0  0  0  0  0
   20.9531    5.9081   15.4889 O   0  0  0  0  0  0  0  0  0  0  0  0
   20.5979    3.8239   10.4499 C   0  0  0  0  0  0  0  0  0  0  0  0
   19.6837    3.0999   10.7943 O   0  0  0  0  0  0  0  0  0  0  0  0
   20.8012    4.1541    9.1643 O   0  0  0  0  0  0  0  0  0  0  0  0
   21.5152    4.7145    8.9318 H   0  0  0  0  0  0  0  0  0  0  0  0
   24.7198    6.4257   17.1179 C   0  0  0  0  0  0  0  0  0  0  0  0
   23.2604    6.2877   19.2198 C   0  0  0  0  0  0  0  0  0  0  0  0
   24.6868    6.3464   18.6723 N   0  0  0  0  0  0  0  0  0  0  0  0
   25.4051    5.0550   19.0846 C   0  0  0  0  0  0  0  0  0  0  0  0
   25.4253    7.5227   19.2991 C   0  0  0  0  0  0  0  0  0  0  0  0
   23.7085    8.6278   16.3492 C   0  0  0  0  0  0  0  0  0  0  0  0
   22.4251    9.4382   16.3641 C   0  0  0  0  0  0  0  0  0  0  0  0
   21.9473    9.8713   17.6167 C   0  0  0  0  0  0  0  0  0  0  0  0
   20.8085   10.6614   17.7127 C   0  0  0  0  0  0  0  0  0  0  0  0
   20.1244   11.0292   16.5585 C   0  0  0  0  0  0  0  0  0  0  0  0
   20.5587   10.6021   15.2961 C   0  0  0  0  0  0  0  0  0  0  0  0
   19.8383   10.9763   14.1500 C   0  0  0  0  0  0  0  0  0  0  0  0
   20.2340   10.5544   12.8834 C   0  0  0  0  0  0  0  0  0  0  0  0
   21.3540    9.7471   12.7468 C   0  0  0  0  0  0  0  0  0  0  0  0
   22.0829    9.3688   13.8782 C   0  0  0  0  0  0  0  0  0  0  0  0
   21.7161    9.7893   15.1789 C   0  0  0  0  0  0  0  0  0  0  0  0
 18 19  1  0
 19 20  1  0
 19 21  1  0
 19 17  1  0
  1 17  1  0
  1 22  1  0
 22 23  1  0
 23 24  2  0
 24 25  1  0
 25 26  2  0
 26 27  1  0
 27 28  2  0
 28 29  1  0
 29 30  2  0
 30 31  1  0
 31 32  2  0
  1  2  1  0
  2  3  1  0
  3  4  2  0
  3  5  1  0
  5  6  2  0
  6  7  1  0
  7  8  2  0
  8 13  1  0
 13 14  2  0
 13 15  1  0
  8  9  1  0
  9 10  2  0
 10 11  1  0
 11 12  2  0
 32 23  1  0
 11  2  1  0
 32 27  1  0
 10  5  1  0
 15 16  1  0
M  CHG 1  19   1
M  END
> <minimizedAffinity>
-7.26981

> <CNNscore>
0.7049981356

> <CNNaffinity>
5.4202179909

> <CNN_VS>
3.8212435246

> <CNNaffinity_variance>
0.3401179016

$$$$



 32 35  0  0  0  0  0  0  0  0999 V2000
   23.5329    6.9657   16.5066 C   0  0  0  0  0  0  0  0  0  0  0  0
   23.2349    6.4029   15.1810 N   0  0  0  0  0  0  0  0  0  0  0  0
   24.1864    6.0645   14.2569 C   0  0  0  0  0  0  0  0  0  0  0  0
   25.3940    6.1120   14.3874 O   0  0  0  0  0  0  0  0  0  0  0  0
   23.4797    5.5321   13.0944 C   0  0  0  0  0  0  0  0  0  0  0  0
   23.9569    5.1018   11.8731 C   0  0  0  0  0  0  0  0  0  0  0  0
   23.0177    4.6032   10.9610 C   0  0  0  0  0  0  0  0  0  0  0  0
   21.6409    4.5390   11.2921 C   0  0  0  0  0  0  0  0  0  0  0  0
   21.1888    4.9788   12.5465 C   0  0  0  0  0  0  0  0  0  0  0  0
   22.1358    5.4747   13.4204 C   0  0  0  0  0  0  0  0  0  0  0  0
   21.9976    5.9723   14.7884 C   0  0  0  0  0  0  0  0  0  0  0  0
   20.9829    5.9039   15.4553 O   0  0  0  0  0  0  0  0  0  0  0  0
   20.6343    3.9991   10.3453 C   0  0  0  0  0  0  0  0  0  0  0  0
   20.6760    4.1167    9.1357 O   0  0  0  0  0  0  0  0  0  0  0  0
   19.6364    3.3488   10.9650 O   0  0  0  0  0  0  0  0  0  0  0  0
   19.6337    3.2759   11.8992 H   0  0  0  0  0  0  0  0  0  0  0  0
   24.5821    6.0899   17.2514 C   0  0  0  0  0  0  0  0  0  0  0  0
   23.1431    6.2910   19.3624 C   0  0  0  0  0  0  0  0  0  0  0  0
   24.5641    6.2120   18.8033 N   0  0  0  0  0  0  0  0  0  0  0  0
   25.2274    4.9519   19.3739 C   0  0  0  0  0  0  0  0  0  0  0  0
   25.3632    7.4230   19.2692 C   0  0  0  0  0  0  0  0  0  0  0  0
   24.0384    8.4311   16.4231 C   0  0  0  0  0  0  0  0  0  0  0  0
   23.1299    9.3418   15.6174 C   0  0  0  0  0  0  0  0  0  0  0  0
   23.3895    9.4593   14.2377 C   0  0  0  0  0  0  0  0  0  0  0  0
   22.5733   10.2313   13.4203 C   0  0  0  0  0  0  0  0  0  0  0  0
   21.4852   10.9031   13.9683 C   0  0  0  0  0  0  0  0  0  0  0  0
   21.2061   10.8253   15.3396 C   0  0  0  0  0  0  0  0  0  0  0  0
   20.1100   11.5275   15.8667 C   0  0  0  0  0  0  0  0  0  0  0  0
   19.8162   11.4843   17.2272 C   0  0  0  0  0  0  0  0  0  0  0  0
   20.6194   10.7414   18.0803 C   0  0  0  0  0  0  0  0  0  0  0  0
   21.7123   10.0348   17.5698 C   0  0  0  0  0  0  0  0  0  0  0  0
   22.0325   10.0469   16.1912 C   0  0  0  0  0  0  0  0  0  0  0  0
 18 19  1  0
 19 20  1  0
 19 21  1  0
 19 17  1  0
  1 17  1  0
  1 22  1  0
 22 23  1  0
 23 24  2  0
 24 25  1  0
 25 26  2  0
 26 27  1  0
 27 28  2  0
 28 29  1  0
 29 30  2  0
 30 31  1  0
 31 32  2  0
  1  2  1  0
  2  3  1  0
  3  4  2  0
  3  5  1  0
  5  6  2  0
  6  7  1  0
  7  8  2  0
  8 13  1  0
 13 14  2  0
 13 15  1  0
  8  9  1  0
  9 10  2  0
 10 11  1  0
 11 12  2  0
 32 23  1  0
 11  2  1  0
 32 27  1  0
 10  5  1  0
 15 16  1  0
M  CHG 1  19   1
M  END
> <minimizedAffinity>
-7.72324

> <CNNscore>
0.6641524434

> <CNNaffinity>
5.4467697144

> <CNN_VS>
3.6174855232

> <CNNaffinity_variance>
0.2785370648

$$$$



 32 35  0  0  0  0  0  0  0  0999 V2000
   21.6573    7.6257   13.8900 C   0  0  0  0  0  0  0  0  0  0  0  0
   22.5891    7.4058   15.0063 N   0  0  0  0  0  0  0  0  0  0  0  0
   23.5779    8.2808   15.3673 C   0  0  0  0  0  0  0  0  0  0  0  0
   23.8105    9.3729   14.8871 O   0  0  0  0  0  0  0  0  0  0  0  0
   24.2589    7.6999   16.5220 C   0  0  0  0  0  0  0  0  0  0  0  0
   25.3547    8.1428   17.2343 C   0  0  0  0  0  0  0  0  0  0  0  0
   25.7559    7.3711   18.3326 C   0  0  0  0  0  0  0  0  0  0  0  0
   25.0537    6.1938   18.6935 C   0  0  0  0  0  0  0  0  0  0  0  0
   23.9379    5.7743   17.9514 C   0  0  0  0  0  0  0  0  0  0  0  0
   23.5726    6.5490   16.8685 C   0  0  0  0  0  0  0  0  0  0  0  0
   22.4602    6.4059   15.9304 C   0  0  0  0  0  0  0  0  0  0  0  0
   21.5536    5.6029   16.0423 O   0  0  0  0  0  0  0  0  0  0  0  0
   25.4541    5.3731   19.8627 C   0  0  0  0  0  0  0  0  0  0  0  0
   24.7100    5.0146   20.7552 O   0  0  0  0  0  0  0  0  0  0  0  0
   26.7579    5.0526   19.8488 O   0  0  0  0  0  0  0  0  0  0  0  0
   27.3046    5.3446   19.1461 H   0  0  0  0  0  0  0  0  0  0  0  0
   21.6339    6.3906   12.9431 C   0  0  0  0  0  0  0  0  0  0  0  0
   23.5437    5.5866   11.4353 C   0  0  0  0  0  0  0  0  0  0  0  0
   22.3890    6.5762   11.5944 N   0  0  0  0  0  0  0  0  0  0  0  0
   21.3854    6.3176   10.4633 C   0  0  0  0  0  0  0  0  0  0  0  0
   22.9137    7.9994   11.4490 C   0  0  0  0  0  0  0  0  0  0  0  0
   20.2174    7.9382   14.3788 C   0  0  0  0  0  0  0  0  0  0  0  0
   20.1689    8.9161   15.5388 C   0  0  0  0  0  0  0  0  0  0  0  0
   19.7694    8.4136   16.7929 C   0  0  0  0  0  0  0  0  0  0  0  0
   19.7487    9.2308   17.9162 C   0  0  0  0  0  0  0  0  0  0  0  0
   20.1228   10.5662   17.8052 C   0  0  0  0  0  0  0  0  0  0  0  0
   20.5082   11.1066   16.5707 C   0  0  0  0  0  0  0  0  0  0  0  0
   20.8653   12.4623   16.4866 C   0  0  0  0  0  0  0  0  0  0  0  0
   21.2363   13.0333   15.2720 C   0  0  0  0  0  0  0  0  0  0  0  0
   21.2500   12.2559   14.1230 C   0  0  0  0  0  0  0  0  0  0  0  0
   20.8998   10.9042   14.1916 C   0  0  0  0  0  0  0  0  0  0  0  0
   20.5293   10.2888   15.4111 C   0  0  0  0  0  0  0  0  0  0  0  0
 18 19  1  0
 19 20  1  0
 19 21  1  0
 19 17  1  0
  1 17  1  0
  1 22  1  0
 22 23  1  0
 23 24  2  0
 24 25  1  0
 25 26  2  0
 26 27  1  0
 27 28  2  0
 28 29  1  0
 29 30  2  0
 30 31  1  0
 31 32  2  0
  1  2  1  0
  2  3  1  0
  3  4  2  0
  3  5  1  0
  5  6  2  0
  6  7  1  0
  7  8  2  0
  8 13  1  0
 13 14  2  0
 13 15  1  0
  8  9  1  0
  9 10  2  0
 10 11  1  0
 11 12  2  0
 32 23  1  0
 11  2  1  0
 32 27  1  0
 10  5  1  0
 15 16  1  0
M  CHG 1  19   1
M  END
> <minimizedAffinity>
-6.96155

> <CNNscore>
0.4823129475

> <CNNaffinity>
5.1087117195

> <CNN_VS>
2.4639978409

> <CNNaffinity_variance>
0.0977495536

$$$$



 32 35  0  0  0  0  0  0  0  0999 V2000
   21.8107    7.3341   13.6699 C   0  0  0  0  0  0  0  0  0  0  0  0
   22.6878    7.1786   14.8401 N   0  0  0  0  0  0  0  0  0  0  0  0
   23.6690    8.0666   15.1900 C   0  0  0  0  0  0  0  0  0  0  0  0
   23.9360    9.1235   14.6521 O   0  0  0  0  0  0  0  0  0  0  0  0
   24.2896    7.5556   16.4099 C   0  0  0  0  0  0  0  0  0  0  0  0
   25.3567    8.0341   17.1425 C   0  0  0  0  0  0  0  0  0  0  0  0
   25.6982    7.3315   18.3054 C   0  0  0  0  0  0  0  0  0  0  0  0
   24.9667    6.1859   18.7079 C   0  0  0  0  0  0  0  0  0  0  0  0
   23.8814    5.7290   17.9432 C   0  0  0  0  0  0  0  0  0  0  0  0
   23.5750    6.4354   16.7971 C   0  0  0  0  0  0  0  0  0  0  0  0
   22.5052    6.2415   15.8194 C   0  0  0  0  0  0  0  0  0  0  0  0
   21.5853    5.4552   15.9402 O   0  0  0  0  0  0  0  0  0  0  0  0
   25.3036    5.4389   19.9446 C   0  0  0  0  0  0  0  0  0  0  0  0
   24.5052    5.0936   20.7944 O   0  0  0  0  0  0  0  0  0  0  0  0
   26.6154    5.1712   20.0472 O   0  0  0  0  0  0  0  0  0  0  0  0
   27.2047    5.4513   19.3747 H   0  0  0  0  0  0  0  0  0  0  0  0
   22.6095    7.1137   12.3523 C   0  0  0  0  0  0  0  0  0  0  0  0
   23.2423    5.4348   10.5226 C   0  0  0  0  0  0  0  0  0  0  0  0
   22.9136    5.6273   12.0034 N   0  0  0  0  0  0  0  0  0  0  0  0
   24.1413    5.2028   12.8195 C   0  0  0  0  0  0  0  0  0  0  0  0
   21.7497    4.7224   12.3890 C   0  0  0  0  0  0  0  0  0  0  0  0
   20.5956    6.3690   13.7134 C   0  0  0  0  0  0  0  0  0  0  0  0
   19.2618    7.0785   13.8609 C   0  0  0  0  0  0  0  0  0  0  0  0
   19.0721    7.8678   15.0123 C   0  0  0  0  0  0  0  0  0  0  0  0
   17.9005    8.5910   15.1975 C   0  0  0  0  0  0  0  0  0  0  0  0
   16.8956    8.5349   14.2370 C   0  0  0  0  0  0  0  0  0  0  0  0
   17.0403    7.7460   13.0876 C   0  0  0  0  0  0  0  0  0  0  0  0
   16.0020    7.6967   12.1431 C   0  0  0  0  0  0  0  0  0  0  0  0
   16.1081    6.9096   10.9994 C   0  0  0  0  0  0  0  0  0  0  0  0
   17.2536    6.1561   10.7878 C   0  0  0  0  0  0  0  0  0  0  0  0
   18.2968    6.1972   11.7175 C   0  0  0  0  0  0  0  0  0  0  0  0
   18.2274    6.9953   12.8843 C   0  0  0  0  0  0  0  0  0  0  0  0
 18 19  1  0
 19 20  1  0
 19 21  1  0
 19 17  1  0
  1 17  1  0
  1 22  1  0
 22 23  1  0
 23 24  2  0
 24 25  1  0
 25 26  2  0
 26 27  1  0
 27 28  2  0
 28 29  1  0
 29 30  2  0
 30 31  1  0
 31 32  2  0
  1  2  1  0
  2  3  1  0
  3  4  2  0
  3  5  1  0
  5  6  2  0
  6  7  1  0
  7  8  2  0
  8 13  1  0
 13 14  2  0
 13 15  1  0
  8  9  1  0
  9 10  2  0
 10 11  1  0
 11 12  2  0
 32 23  1  0
 11  2  1  0
 32 27  1  0
 10  5  1  0
 15 16  1  0
M  CHG 1  19   1
M  END
> <minimizedAffinity>
-7.28451

> <CNNscore>
0.4120785892

> <CNNaffinity>
4.8115773201

> <CNN_VS>
1.9827480316

> <CNNaffinity_variance>
0.5859649777

$$$$



 32 35  0  0  0  0  0  0  0  0999 V2000
   22.9832    7.1504   13.8187 C   0  0  0  0  0  0  0  0  0  0  0  0
   23.4607    7.0249   15.2040 N   0  0  0  0  0  0  0  0  0  0  0  0
   22.6866    6.5983   16.2493 C   0  0  0  0  0  0  0  0  0  0  0  0
   21.5360    6.2085   16.2066 O   0  0  0  0  0  0  0  0  0  0  0  0
   23.5369    6.6020   17.4373 C   0  0  0  0  0  0  0  0  0  0  0  0
   23.2406    6.3153   18.7542 C   0  0  0  0  0  0  0  0  0  0  0  0
   24.2967    6.3730   19.6728 C   0  0  0  0  0  0  0  0  0  0  0  0
   25.6106    6.7031   19.2553 C   0  0  0  0  0  0  0  0  0  0  0  0
   25.8799    6.9829   17.9060 C   0  0  0  0  0  0  0  0  0  0  0  0
   24.8174    6.9285   17.0259 C   0  0  0  0  0  0  0  0  0  0  0  0
   24.7718    7.1310   15.5785 C   0  0  0  0  0  0  0  0  0  0  0  0
   25.7460    7.2624   14.8625 O   0  0  0  0  0  0  0  0  0  0  0  0
   26.7443    6.7532   20.2110 C   0  0  0  0  0  0  0  0  0  0  0  0
   27.1077    7.7434   20.8160 O   0  0  0  0  0  0  0  0  0  0  0  0
   27.3568    5.5665   20.3510 O   0  0  0  0  0  0  0  0  0  0  0  0
   27.0519    4.8223   19.8701 H   0  0  0  0  0  0  0  0  0  0  0  0
   22.3877    5.8019   13.3192 C   0  0  0  0  0  0  0  0  0  0  0  0
   22.6454    3.7116   11.8592 C   0  0  0  0  0  0  0  0  0  0  0  0
   23.3434    4.9408   12.4424 N   0  0  0  0  0  0  0  0  0  0  0  0
   23.8134    5.8166   11.2739 C   0  0  0  0  0  0  0  0  0  0  0  0
   24.5704    4.5030   13.2328 C   0  0  0  0  0  0  0  0  0  0  0  0
   21.9293    8.2791   13.6600 C   0  0  0  0  0  0  0  0  0  0  0  0
   21.0727    8.1391   12.4147 C   0  0  0  0  0  0  0  0  0  0  0  0
   21.6720    8.4504   11.1782 C   0  0  0  0  0  0  0  0  0  0  0  0
   20.9730    8.2986    9.9872 C   0  0  0  0  0  0  0  0  0  0  0  0
   19.6609    7.8369   10.0111 C   0  0  0  0  0  0  0  0  0  0  0  0
   19.0249    7.5348   11.2231 C   0  0  0  0  0  0  0  0  0  0  0  0
   17.6942    7.0859   11.2167 C   0  0  0  0  0  0  0  0  0  0  0  0
   17.0290    6.7937   12.4045 C   0  0  0  0  0  0  0  0  0  0  0  0
   17.6854    6.9520   13.6165 C   0  0  0  0  0  0  0  0  0  0  0  0
   19.0111    7.3953   13.6386 C   0  0  0  0  0  0  0  0  0  0  0  0
   19.7209    7.6898   12.4501 C   0  0  0  0  0  0  0  0  0  0  0  0
 18 19  1  0
 19 20  1  0
 19 21  1  0
 19 17  1  0
  1 17  1  0
  1 22  1  0
 22 23  1  0
 23 24  2  0
 24 25  1  0
 25 26  2  0
 26 27  1  0
 27 28  2  0
 28 29  1  0
 29 30  2  0
 30 31  1  0
 31 32  2  0
  1  2  1  0
  2  3  1  0
  3  4  2  0
  3  5  1  0
  5  6  2  0
  6  7  1  0
  7  8  2  0
  8 13  1  0
 13 14  2  0
 13 15  1  0
  8  9  1  0
  9 10  2  0
 10 11  1  0
 11 12  2  0
 32 23  1  0
 11  2  1  0
 32 27  1  0
 10  5  1  0
 15 16  1  0
M  CHG 1  19   1
M  END
> <minimizedAffinity>
-7.55531

> <CNNscore>
0.3991498053

> <CNNaffinity>
5.1144871712

> <CNN_VS>
2.0414464474

> <CNNaffinity_variance>
0.2208473235

$$$$



 32 35  0  0  0  0  0  0  0  0999 V2000
   21.8582    7.4960   13.7301 C   0  0  0  0  0  0  0  0  0  0  0  0
   22.7297    7.2911   14.8969 N   0  0  0  0  0  0  0  0  0  0  0  0
   23.7348    8.1438   15.2660 C   0  0  0  0  0  0  0  0  0  0  0  0
   24.0314    9.2042   14.7511 O   0  0  0  0  0  0  0  0  0  0  0  0
   24.3400    7.5896   16.4747 C   0  0  0  0  0  0  0  0  0  0  0  0
   25.4194    8.0224   17.2177 C   0  0  0  0  0  0  0  0  0  0  0  0
   25.7403    7.2857   18.3653 C   0  0  0  0  0  0  0  0  0  0  0  0
   24.9770    6.1524   18.7429 C   0  0  0  0  0  0  0  0  0  0  0  0
   23.8800    5.7424   17.9682 C   0  0  0  0  0  0  0  0  0  0  0  0
   23.5943    6.4815   16.8375 C   0  0  0  0  0  0  0  0  0  0  0  0
   22.5203    6.3385   15.8556 C   0  0  0  0  0  0  0  0  0  0  0  0
   21.5788    5.5757   15.9593 O   0  0  0  0  0  0  0  0  0  0  0  0
   25.2920    5.3699   19.9633 C   0  0  0  0  0  0  0  0  0  0  0  0
   24.4759    4.9808   20.7764 O   0  0  0  0  0  0  0  0  0  0  0  0
   26.6052    5.1236   20.0962 O   0  0  0  0  0  0  0  0  0  0  0  0
   27.2084    5.4376   19.4516 H   0  0  0  0  0  0  0  0  0  0  0  0
   21.7952    6.2075   12.8591 C   0  0  0  0  0  0  0  0  0  0  0  0
   21.4607    6.0302   10.3246 C   0  0  0  0  0  0  0  0  0  0  0  0
   22.4502    6.3272   11.4519 N   0  0  0  0  0  0  0  0  0  0  0  0
   22.9331    7.7741   11.2883 C   0  0  0  0  0  0  0  0  0  0  0  0
   23.6572    5.4056   11.3266 C   0  0  0  0  0  0  0  0  0  0  0  0
   20.4224    7.9241   14.1365 C   0  0  0  0  0  0  0  0  0  0  0  0
   20.3735    9.2328   14.9041 C   0  0  0  0  0  0  0  0  0  0  0  0
   20.7579   10.4011   14.2171 C   0  0  0  0  0  0  0  0  0  0  0  0
   20.6919   11.6455   14.8314 C   0  0  0  0  0  0  0  0  0  0  0  0
   20.2445   11.7438   16.1450 C   0  0  0  0  0  0  0  0  0  0  0  0
   19.8712   10.6017   16.8668 C   0  0  0  0  0  0  0  0  0  0  0  0
   19.4387   10.7306   18.1967 C   0  0  0  0  0  0  0  0  0  0  0  0
   19.0772    9.6140   18.9459 C   0  0  0  0  0  0  0  0  0  0  0  0
   19.1489    8.3513   18.3755 C   0  0  0  0  0  0  0  0  0  0  0  0
   19.5748    8.2074   17.0518 C   0  0  0  0  0  0  0  0  0  0  0  0
   19.9381    9.3215   16.2580 C   0  0  0  0  0  0  0  0  0  0  0  0
 18 19  1  0
 19 20  1  0
 19 21  1  0
 19 17  1  0
  1 17  1  0
  1 22  1  0
 22 23  1  0
 23 24  2  0
 24 25  1  0
 25 26  2  0
 26 27  1  0
 27 28  2  0
 28 29  1  0
 29 30  2  0
 30 31  1  0
 31 32  2  0
  1  2  1  0
  2  3  1  0
  3  4  2  0
  3  5  1  0
  5  6  2  0
  6  7  1  0
  7  8  2  0
  8 13  1  0
 13 14  2  0
 13 15  1  0
  8  9  1  0
  9 10  2  0
 10 11  1  0
 11 12  2  0
 32 23  1  0
 11  2  1  0
 32 27  1  0
 10  5  1  0
 15 16  1  0
M  CHG 1  19   1
M  END
> <minimizedAffinity>
-6.96150

> <CNNscore>
0.3943479061

> <CNNaffinity>
4.9241523743

> <CNN_VS>
1.9418292046

> <CNNaffinity_variance>
0.2790047228

$$$$



 32 35  0  0  0  0  0  0  0  0999 V2000
   22.4495    7.4513   14.0615 C   0  0  0  0  0  0  0  0  0  0  0  0
   23.0499    7.2599   15.3903 N   0  0  0  0  0  0  0  0  0  0  0  0
   22.3630    6.8184   16.4889 C   0  0  0  0  0  0  0  0  0  0  0  0
   21.2010    6.4656   16.5420 O   0  0  0  0  0  0  0  0  0  0  0  0
   23.3203    6.7522   17.5905 C   0  0  0  0  0  0  0  0  0  0  0  0
   23.1389    6.4258   18.9190 C   0  0  0  0  0  0  0  0  0  0  0  0
   24.2776    6.4173   19.7350 C   0  0  0  0  0  0  0  0  0  0  0  0
   25.5571    6.7226   19.2065 C   0  0  0  0  0  0  0  0  0  0  0  0
   25.7084    7.0441   17.8481 C   0  0  0  0  0  0  0  0  0  0  0  0
   24.5670    7.0547   17.0712 C   0  0  0  0  0  0  0  0  0  0  0  0
   24.3931    7.3122   15.6423 C   0  0  0  0  0  0  0  0  0  0  0  0
   25.2999    7.4404   14.8422 O   0  0  0  0  0  0  0  0  0  0  0  0
   26.7762    6.7027   20.0517 C   0  0  0  0  0  0  0  0  0  0  0  0
   27.3171    7.6836   20.5249 O   0  0  0  0  0  0  0  0  0  0  0  0
   27.2476    5.4615   20.2521 O   0  0  0  0  0  0  0  0  0  0  0  0
   26.8072    4.7263   19.8733 H   0  0  0  0  0  0  0  0  0  0  0  0
   22.0139    6.0858   13.4543 C   0  0  0  0  0  0  0  0  0  0  0  0
   23.9766    4.6054   12.7309 C   0  0  0  0  0  0  0  0  0  0  0  0
   22.8898    5.5779   12.2716 N   0  0  0  0  0  0  0  0  0  0  0  0
   21.9667    4.8311   11.3003 C   0  0  0  0  0  0  0  0  0  0  0  0
   23.5294    6.7402   11.5219 C   0  0  0  0  0  0  0  0  0  0  0  0
   21.2362    8.4189   14.0982 C   0  0  0  0  0  0  0  0  0  0  0  0
   20.0021    7.8718   13.4041 C   0  0  0  0  0  0  0  0  0  0  0  0
   19.0666    7.1789   14.1976 C   0  0  0  0  0  0  0  0  0  0  0  0
   17.8863    6.6924   13.6496 C   0  0  0  0  0  0  0  0  0  0  0  0
   17.6217    6.8862   12.2976 C   0  0  0  0  0  0  0  0  0  0  0  0
   18.5369    7.5543   11.4726 C   0  0  0  0  0  0  0  0  0  0  0  0
   18.2495    7.7208   10.1079 C   0  0  0  0  0  0  0  0  0  0  0  0
   19.1454    8.3649    9.2586 C   0  0  0  0  0  0  0  0  0  0  0  0
   20.3448    8.8470    9.7628 C   0  0  0  0  0  0  0  0  0  0  0  0
   20.6434    8.6912   11.1196 C   0  0  0  0  0  0  0  0  0  0  0  0
   19.7508    8.0526   12.0131 C   0  0  0  0  0  0  0  0  0  0  0  0
 18 19  1  0
 19 20  1  0
 19 21  1  0
 19 17  1  0
  1 17  1  0
  1 22  1  0
 22 23  1  0
 23 24  2  0
 24 25  1  0
 25 26  2  0
 26 27  1  0
 27 28  2  0
 28 29  1  0
 29 30  2  0
 30 31  1  0
 31 32  2  0
  1  2  1  0
  2  3  1  0
  3  4  2  0
  3  5  1  0
  5  6  2  0
  6  7  1  0
  7  8  2  0
  8 13  1  0
 13 14  2  0
 13 15  1  0
  8  9  1  0
  9 10  2  0
 10 11  1  0
 11 12  2  0
 32 23  1  0
 11  2  1  0
 32 27  1  0
 10  5  1  0
 15 16  1  0
M  CHG 1  19   1
M  END
> <minimizedAffinity>
-6.85099

> <CNNscore>
0.3913912773

> <CNNaffinity>
5.0712852478

> <CNN_VS>
1.9848568439

> <CNNaffinity_variance>
0.1347533315

$$$$



 32 35  0  0  0  0  0  0  0  0999 V2000
   22.1530    6.8726   13.1865 C   0  0  0  0  0  0  0  0  0  0  0  0
   22.8858    6.7332   14.4540 N   0  0  0  0  0  0  0  0  0  0  0  0
   24.1557    7.1989   14.6641 C   0  0  0  0  0  0  0  0  0  0  0  0
   24.8475    7.8343   13.8925 O   0  0  0  0  0  0  0  0  0  0  0  0
   24.5044    6.8745   16.0452 C   0  0  0  0  0  0  0  0  0  0  0  0
   25.6783    7.0691   16.7441 C   0  0  0  0  0  0  0  0  0  0  0  0
   25.6923    6.6776   18.0891 C   0  0  0  0  0  0  0  0  0  0  0  0
   24.5420    6.1160   18.6983 C   0  0  0  0  0  0  0  0  0  0  0  0
   23.3607    5.9377   17.9606 C   0  0  0  0  0  0  0  0  0  0  0  0
   23.3802    6.3232   16.6350 C   0  0  0  0  0  0  0  0  0  0  0  0
   22.3245    6.3000   15.6235 C   0  0  0  0  0  0  0  0  0  0  0  0
   21.1568    6.0393   15.8413 O   0  0  0  0  0  0  0  0  0  0  0  0
   24.5333    5.7106   20.1254 C   0  0  0  0  0  0  0  0  0  0  0  0
   24.3815    4.5741   20.5303 O   0  0  0  0  0  0  0  0  0  0  0  0
   24.7111    6.7475   20.9597 O   0  0  0  0  0  0  0  0  0  0  0  0
   24.8252    7.6115   20.6156 H   0  0  0  0  0  0  0  0  0  0  0  0
   21.5976    5.4956   12.7194 C   0  0  0  0  0  0  0  0  0  0  0  0
   23.4736    3.7644   12.4937 C   0  0  0  0  0  0  0  0  0  0  0  0
   22.5228    4.7031   11.7501 N   0  0  0  0  0  0  0  0  0  0  0  0
   21.6233    3.8480   10.8483 C   0  0  0  0  0  0  0  0  0  0  0  0
   23.3272    5.6459   10.8635 C   0  0  0  0  0  0  0  0  0  0  0  0
   20.9923    7.8983   13.2881 C   0  0  0  0  0  0  0  0  0  0  0  0
   20.1840    8.0290   12.0099 C   0  0  0  0  0  0  0  0  0  0  0  0
   20.8619    8.4737   10.8578 C   0  0  0  0  0  0  0  0  0  0  0  0
   20.2071    8.5704    9.6363 C   0  0  0  0  0  0  0  0  0  0  0  0
   18.8616    8.2284    9.5455 C   0  0  0  0  0  0  0  0  0  0  0  0
   18.1491    7.7997   10.6738 C   0  0  0  0  0  0  0  0  0  0  0  0
   16.7875    7.4765   10.5546 C   0  0  0  0  0  0  0  0  0  0  0  0
   16.0477    7.0639   11.6597 C   0  0  0  0  0  0  0  0  0  0  0  0
   16.6598    6.9741   12.9016 C   0  0  0  0  0  0  0  0  0  0  0  0
   18.0151    7.2898   13.0353 C   0  0  0  0  0  0  0  0  0  0  0  0
   18.7995    7.7008   11.9312 C   0  0  0  0  0  0  0  0  0  0  0  0
 18 19  1  0
 19 20  1  0
 19 21  1  0
 19 17  1  0
  1 17  1  0
  1 22  1  0
 22 23  1  0
 23 24  2  0
 24 25  1  0
 25 26  2  0
 26 27  1  0
 27 28  2  0
 28 29  1  0
 29 30  2  0
 30 31  1  0
 31 32  2  0
  1  2  1  0
  2  3  1  0
  3  4  2  0
  3  5  1  0
  5  6  2  0
  6  7  1  0
  7  8  2  0
  8 13  1  0
 13 14  2  0
 13 15  1  0
  8  9  1  0
  9 10  2  0
 10 11  1  0
 11 12  2  0
 32 23  1  0
 11  2  1  0
 32 27  1  0
 10  5  1  0
 15 16  1  0
M  CHG 1  19   1
M  END
> <minimizedAffinity>
-6.95855

> <CNNscore>
0.3849555850

> <CNNaffinity>
5.0637154579

> <CNN_VS>
1.9493055344

> <CNNaffinity_variance>
0.1717799455

$$$$
