


 42 46  0  0  0  0  0  0  0  0999 V2000
   13.2210    4.7808   12.4101 C   0  0  0  0  0  0  0  0  0  0  0  0
   13.9742    4.7966   11.2490 C   0  0  0  0  0  0  0  0  0  0  0  0
   13.5131    4.7148    9.8339 C   0  0  0  0  0  0  0  0  0  0  0  0
   15.3025    4.9148   11.6247 N   0  0  0  0  0  0  0  0  0  0  0  0
   15.4039    4.8777   13.0118 C   0  0  0  0  0  0  0  0  0  0  0  0
   16.5265    4.9003   13.8624 C   0  0  0  0  0  0  0  0  0  0  0  0
   16.3128    4.8868   15.2434 C   0  0  0  0  0  0  0  0  0  0  0  0
   15.0310    4.9058   15.7745 C   0  0  0  0  0  0  0  0  0  0  0  0
   13.9214    4.8757   14.9266 C   0  0  0  0  0  0  0  0  0  0  0  0
   14.1028    4.8414   13.5248 C   0  0  0  0  0  0  0  0  0  0  0  0
    8.9402    2.8819   15.0014 C   0  0  0  0  0  0  0  0  0  0  0  0
    8.6454    3.6943   13.8974 C   0  0  0  0  0  0  0  0  0  0  0  0
    9.7324    4.2048   13.1865 C   0  0  0  0  0  0  0  0  0  0  0  0
    9.6601    4.9986   12.0835 O   0  0  0  0  0  0  0  0  0  0  0  0
   10.9406    5.3020   11.6446 N   0  0  0  0  0  0  0  0  0  0  0  0
   11.7644    4.7005   12.5124 C   0  0  0  0  0  0  0  0  0  0  0  0
   11.0581    3.9715   13.5010 C   0  0  0  0  0  0  0  0  0  0  0  0
   11.3530    3.1481   14.6002 C   0  0  0  0  0  0  0  0  0  0  0  0
   10.2824    2.6146   15.3380 C   0  0  0  0  0  0  0  0  0  0  0  0
   10.7256    1.5080   16.8235 Br  0  0  0  0  0  0  0  0  0  0  0  0
    8.1180    2.4459   17.2059 C   0  0  0  0  0  0  0  0  0  0  0  0
    7.9837    2.3037   15.7976 O   0  0  0  0  0  0  0  0  0  0  0  0
   16.4528    4.9597   10.7138 C   0  0  0  0  0  0  0  0  0  0  0  0
   16.8740    6.3531   10.3078 C   0  0  0  0  0  0  0  0  0  0  0  0
   16.0627    7.4398   10.6928 C   0  0  0  0  0  0  0  0  0  0  0  0
   16.3799    8.7598   10.3531 C   0  0  0  0  0  0  0  0  0  0  0  0
   17.5313    9.0118    9.6167 C   0  0  0  0  0  0  0  0  0  0  0  0
   18.3363    7.9478    9.2013 C   0  0  0  0  0  0  0  0  0  0  0  0
   18.0081    6.6285    9.5327 C   0  0  0  0  0  0  0  0  0  0  0  0
   19.0304    5.3869    8.9102 Cl  0  0  0  0  0  0  0  0  0  0  0  0
   15.4940    9.6858   10.8198 O   0  0  0  0  0  0  0  0  0  0  0  0
   15.0650   10.7399    9.9546 C   0  0  0  0  0  0  0  0  0  0  0  0
   14.4202   11.8433   10.7852 C   0  0  0  0  0  0  0  0  0  0  0  0
   14.0382   10.1599    8.9840 C   0  0  0  0  0  0  0  0  0  0  0  0
   13.0748    9.4577    9.2451 O   0  0  0  0  0  0  0  0  0  0  0  0
   14.3080   10.4639    7.6939 O   0  0  0  0  0  0  0  0  0  0  0  0
   15.0456   11.0024    7.4839 H   0  0  0  0  0  0  0  0  0  0  0  0
   17.3645    4.9531   16.1159 O   0  0  0  0  0  0  0  0  0  0  0  0
   17.7015    3.6681   16.6248 C   0  0  0  0  0  0  0  0  0  0  0  0
   18.9321    3.2822   16.2203 F   0  0  0  0  0  0  0  0  0  0  0  0
   17.6439    3.6437   17.9747 F   0  0  0  0  0  0  0  0  0  0  0  0
   16.8056    2.7712   16.1538 F   0  0  0  0  0  0  0  0  0  0  0  0
 21 22  1  0
 22 11  1  0
 11 12  2  0
 12 13  1  0
 13 14  1  0
 14 15  1  0
 15 16  2  0
 16  1  1  0
  1  2  2  0
  2  3  1  0
  2  4  1  0
  4 23  1  0
 23 24  1  0
 24 25  2  0
 25 26  1  0
 26 31  1  0
 31 32  1  0
 32 33  1  0
 32 34  1  0
 34 35  2  0
 34 36  1  0
 26 27  2  0
 27 28  1  0
 28 29  2  0
 29 30  1  0
  4  5  1  0
  5  6  2  0
  6  7  1  0
  7 38  1  0
 38 39  1  0
 39 40  1  0
 39 41  1  0
 39 42  1  0
  7  8  2  0
  8  9  1  0
  9 10  2  0
 16 17  1  0
 17 18  1  0
 18 19  2  0
 19 20  1  0
 19 11  1  0
 17 13  2  0
 10  1  1  0
 29 24  1  0
 10  5  1  0
 36 37  1  0
M  END
> <minimizedAffinity>
-11.55953

> <CNNscore>
0.9887456894

> <CNNaffinity>
8.3038387299

> <CNN_VS>
8.2103843689

> <CNNaffinity_variance>
0.7182670236

$$$$



 42 46  0  0  0  0  0  0  0  0999 V2000
   13.9278    4.4916   12.9295 C   0  0  0  0  0  0  0  0  0  0  0  0
   14.2449    4.6387   11.5903 C   0  0  0  0  0  0  0  0  0  0  0  0
   13.3421    4.5940   10.4051 C   0  0  0  0  0  0  0  0  0  0  0  0
   15.6114    4.8544   11.5147 N   0  0  0  0  0  0  0  0  0  0  0  0
   16.1747    4.7502   12.7826 C   0  0  0  0  0  0  0  0  0  0  0  0
   17.5136    4.8262   13.2137 C   0  0  0  0  0  0  0  0  0  0  0  0
   17.7771    4.7176   14.5818 C   0  0  0  0  0  0  0  0  0  0  0  0
   16.7497    4.5926   15.5060 C   0  0  0  0  0  0  0  0  0  0  0  0
   15.4244    4.5101   15.0725 C   0  0  0  0  0  0  0  0  0  0  0  0
   15.1266    4.5694   13.6916 C   0  0  0  0  0  0  0  0  0  0  0  0
    8.6324    5.1381   12.4982 C   0  0  0  0  0  0  0  0  0  0  0  0
    9.0484    4.4538   13.6491 C   0  0  0  0  0  0  0  0  0  0  0  0
   10.4227    4.2699   13.8068 C   0  0  0  0  0  0  0  0  0  0  0  0
   11.0272    3.6461   14.8544 O   0  0  0  0  0  0  0  0  0  0  0  0
   12.4024    3.6606   14.6732 N   0  0  0  0  0  0  0  0  0  0  0  0
   12.5988    4.2759   13.5000 C   0  0  0  0  0  0  0  0  0  0  0  0
   11.3828    4.7044   12.9122 C   0  0  0  0  0  0  0  0  0  0  0  0
   10.9663    5.4000   11.7651 C   0  0  0  0  0  0  0  0  0  0  0  0
    9.5891    5.6055   11.5749 C   0  0  0  0  0  0  0  0  0  0  0  0
    9.0666    6.5482   10.0045 Br  0  0  0  0  0  0  0  0  0  0  0  0
    6.7803    6.6483   12.6201 C   0  0  0  0  0  0  0  0  0  0  0  0
    7.3183    5.4003   12.2021 O   0  0  0  0  0  0  0  0  0  0  0  0
   16.3836    5.0520   10.2820 C   0  0  0  0  0  0  0  0  0  0  0  0
   16.8203    6.4785   10.0405 C   0  0  0  0  0  0  0  0  0  0  0  0
   15.9612    7.5218   10.4416 C   0  0  0  0  0  0  0  0  0  0  0  0
   16.2892    8.8686   10.2498 C   0  0  0  0  0  0  0  0  0  0  0  0
   17.5000    9.1920    9.6490 C   0  0  0  0  0  0  0  0  0  0  0  0
   18.3554    8.1740    9.2192 C   0  0  0  0  0  0  0  0  0  0  0  0
   18.0171    6.8286    9.4019 C   0  0  0  0  0  0  0  0  0  0  0  0
   19.1106    5.6533    8.7715 Cl  0  0  0  0  0  0  0  0  0  0  0  0
   15.3507    9.7441   10.7109 O   0  0  0  0  0  0  0  0  0  0  0  0
   14.9870   10.8669    9.9040 C   0  0  0  0  0  0  0  0  0  0  0  0
   14.4441   11.9756   10.7980 C   0  0  0  0  0  0  0  0  0  0  0  0
   13.9006   10.4119    8.9315 C   0  0  0  0  0  0  0  0  0  0  0  0
   12.8335    9.8821    9.1960 O   0  0  0  0  0  0  0  0  0  0  0  0
   14.2404   10.6113    7.6375 O   0  0  0  0  0  0  0  0  0  0  0  0
   15.0576   11.0174    7.4249 H   0  0  0  0  0  0  0  0  0  0  0  0
   19.0539    4.8296   15.0605 O   0  0  0  0  0  0  0  0  0  0  0  0
   19.0795    4.8254   16.4829 C   0  0  0  0  0  0  0  0  0  0  0  0
   18.0958    4.0521   16.9938 F   0  0  0  0  0  0  0  0  0  0  0  0
   20.2740    4.4012   16.9514 F   0  0  0  0  0  0  0  0  0  0  0  0
   18.8870    6.0907   16.9196 F   0  0  0  0  0  0  0  0  0  0  0  0
 21 22  1  0
 22 11  1  0
 11 12  2  0
 12 13  1  0
 13 14  1  0
 14 15  1  0
 15 16  2  0
 16  1  1  0
  1  2  2  0
  2  3  1  0
  2  4  1  0
  4 23  1  0
 23 24  1  0
 24 25  2  0
 25 26  1  0
 26 31  1  0
 31 32  1  0
 32 33  1  0
 32 34  1  0
 34 35  2  0
 34 36  1  0
 26 27  2  0
 27 28  1  0
 28 29  2  0
 29 30  1  0
  4  5  1  0
  5  6  2  0
  6  7  1  0
  7 38  1  0
 38 39  1  0
 39 40  1  0
 39 41  1  0
 39 42  1  0
  7  8  2  0
  8  9  1  0
  9 10  2  0
 16 17  1  0
 17 18  1  0
 18 19  2  0
 19 20  1  0
 19 11  1  0
 17 13  2  0
 10  1  1  0
 29 24  1  0
 10  5  1  0
 36 37  1  0
M  END
> <minimizedAffinity>
-11.15893

> <CNNscore>
0.9201730490

> <CNNaffinity>
7.7546067238

> <CNN_VS>
7.1355800629

> <CNNaffinity_variance>
0.6709520221

$$$$



 42 46  0  0  0  0  0  0  0  0999 V2000
   13.5728    4.0458   13.7504 C   0  0  0  0  0  0  0  0  0  0  0  0
   14.2856    4.5782   14.8107 C   0  0  0  0  0  0  0  0  0  0  0  0
   14.0321    4.4371   16.2728 C   0  0  0  0  0  0  0  0  0  0  0  0
   15.3392    5.3001   14.2739 N   0  0  0  0  0  0  0  0  0  0  0  0
   15.2445    5.3086   12.8858 C   0  0  0  0  0  0  0  0  0  0  0  0
   16.0288    5.9463   11.9048 C   0  0  0  0  0  0  0  0  0  0  0  0
   15.7079    5.7384   10.5606 C   0  0  0  0  0  0  0  0  0  0  0  0
   14.6793    4.8844   10.1890 C   0  0  0  0  0  0  0  0  0  0  0  0
   13.8999    4.2606   11.1659 C   0  0  0  0  0  0  0  0  0  0  0  0
   14.1680    4.4864   12.5358 C   0  0  0  0  0  0  0  0  0  0  0  0
    8.3952    3.3095   12.6120 C   0  0  0  0  0  0  0  0  0  0  0  0
    9.0035    2.2456   13.2930 C   0  0  0  0  0  0  0  0  0  0  0  0
   10.3521    2.3982   13.6178 C   0  0  0  0  0  0  0  0  0  0  0  0
   11.1177    1.4923   14.2850 O   0  0  0  0  0  0  0  0  0  0  0  0
   12.4037    1.9905   14.4337 N   0  0  0  0  0  0  0  0  0  0  0  0
   12.3934    3.1847   13.8277 C   0  0  0  0  0  0  0  0  0  0  0  0
   11.1152    3.5087   13.3090 C   0  0  0  0  0  0  0  0  0  0  0  0
   10.5024    4.5792   12.6370 C   0  0  0  0  0  0  0  0  0  0  0  0
    9.1442    4.4608   12.2959 C   0  0  0  0  0  0  0  0  0  0  0  0
    8.3532    5.9321   11.3810 Br  0  0  0  0  0  0  0  0  0  0  0  0
    6.0921    3.1172   13.2322 C   0  0  0  0  0  0  0  0  0  0  0  0
    7.0781    3.3124   12.2266 O   0  0  0  0  0  0  0  0  0  0  0  0
   16.3481    6.0449   15.0371 C   0  0  0  0  0  0  0  0  0  0  0  0
   17.4532    5.1894   15.6122 C   0  0  0  0  0  0  0  0  0  0  0  0
   18.0175    5.5621   16.8491 C   0  0  0  0  0  0  0  0  0  0  0  0
   19.0471    4.8266   17.4469 C   0  0  0  0  0  0  0  0  0  0  0  0
   19.5285    3.6911   16.8064 C   0  0  0  0  0  0  0  0  0  0  0  0
   19.0026    3.3177   15.5668 C   0  0  0  0  0  0  0  0  0  0  0  0
   17.9818    4.0637   14.9671 C   0  0  0  0  0  0  0  0  0  0  0  0
   17.4543    3.5561   13.4055 Cl  0  0  0  0  0  0  0  0  0  0  0  0
   19.4631    5.3209   18.6480 O   0  0  0  0  0  0  0  0  0  0  0  0
   19.3901    6.7286   18.8868 C   0  0  0  0  0  0  0  0  0  0  0  0
   20.5799    7.4146   18.2256 C   0  0  0  0  0  0  0  0  0  0  0  0
   19.4426    6.9503   20.3971 C   0  0  0  0  0  0  0  0  0  0  0  0
   19.9334    7.8918   20.9988 O   0  0  0  0  0  0  0  0  0  0  0  0
   18.8994    5.9267   21.0950 O   0  0  0  0  0  0  0  0  0  0  0  0
   18.5202    5.1997   20.6416 H   0  0  0  0  0  0  0  0  0  0  0  0
   16.4631    6.2963    9.5655 O   0  0  0  0  0  0  0  0  0  0  0  0
   17.7362    5.6696    9.4636 C   0  0  0  0  0  0  0  0  0  0  0  0
   18.3953    6.0648    8.3518 F   0  0  0  0  0  0  0  0  0  0  0  0
   18.4970    5.9232   10.5513 F   0  0  0  0  0  0  0  0  0  0  0  0
   17.5515    4.3320    9.3878 F   0  0  0  0  0  0  0  0  0  0  0  0
 21 22  1  0
 22 11  1  0
 11 12  2  0
 12 13  1  0
 13 14  1  0
 14 15  1  0
 15 16  2  0
 16  1  1  0
  1  2  2  0
  2  3  1  0
  2  4  1  0
  4 23  1  0
 23 24  1  0
 24 25  2  0
 25 26  1  0
 26 31  1  0
 31 32  1  0
 32 33  1  0
 32 34  1  0
 34 35  2  0
 34 36  1  0
 26 27  2  0
 27 28  1  0
 28 29  2  0
 29 30  1  0
  4  5  1  0
  5  6  2  0
  6  7  1  0
  7 38  1  0
 38 39  1  0
 39 40  1  0
 39 41  1  0
 39 42  1  0
  7  8  2  0
  8  9  1  0
  9 10  2  0
 16 17  1  0
 17 18  1  0
 18 19  2  0
 19 20  1  0
 19 11  1  0
 17 13  2  0
 10  1  1  0
 29 24  1  0
 10  5  1  0
 36 37  1  0
M  END
> <minimizedAffinity>
-9.31533

> <CNNscore>
0.8971947432

> <CNNaffinity>
8.6831464767

> <CNN_VS>
7.7904734612

> <CNNaffinity_variance>
0.4425941408

$$$$



 42 46  0  0  0  0  0  0  0  0999 V2000
   14.5738    5.0431   13.2317 C   0  0  0  0  0  0  0  0  0  0  0  0
   15.5752    5.3256   12.3188 C   0  0  0  0  0  0  0  0  0  0  0  0
   17.0289    5.5460   12.5636 C   0  0  0  0  0  0  0  0  0  0  0  0
   14.9862    5.3673   11.0655 N   0  0  0  0  0  0  0  0  0  0  0  0
   13.6093    5.2090   11.1874 C   0  0  0  0  0  0  0  0  0  0  0  0
   12.5816    5.2386   10.2245 C   0  0  0  0  0  0  0  0  0  0  0  0
   11.2698    5.0075   10.6471 C   0  0  0  0  0  0  0  0  0  0  0  0
   10.9819    4.7017   11.9696 C   0  0  0  0  0  0  0  0  0  0  0  0
   12.0037    4.6810   12.9217 C   0  0  0  0  0  0  0  0  0  0  0  0
   13.3359    4.9568   12.5361 C   0  0  0  0  0  0  0  0  0  0  0  0
   17.7598    3.8574   17.3656 C   0  0  0  0  0  0  0  0  0  0  0  0
   16.4375    4.1678   17.7137 C   0  0  0  0  0  0  0  0  0  0  0  0
   15.5690    4.4753   16.6656 C   0  0  0  0  0  0  0  0  0  0  0  0
   14.2508    4.7898   16.7905 O   0  0  0  0  0  0  0  0  0  0  0  0
   13.7084    5.0257   15.5357 N   0  0  0  0  0  0  0  0  0  0  0  0
   14.7237    4.8711   14.6761 C   0  0  0  0  0  0  0  0  0  0  0  0
   15.9249    4.5011   15.3301 C   0  0  0  0  0  0  0  0  0  0  0  0
   17.2467    4.1787   14.9809 C   0  0  0  0  0  0  0  0  0  0  0  0
   18.1487    3.8616   16.0110 C   0  0  0  0  0  0  0  0  0  0  0  0
   19.9320    3.4357   15.4950 Br  0  0  0  0  0  0  0  0  0  0  0  0
   18.7824    4.2788   19.4875 C   0  0  0  0  0  0  0  0  0  0  0  0
   18.7305    3.5313   18.2791 O   0  0  0  0  0  0  0  0  0  0  0  0
   15.6761    5.6474    9.8004 C   0  0  0  0  0  0  0  0  0  0  0  0
   16.3613    6.9933    9.7473 C   0  0  0  0  0  0  0  0  0  0  0  0
   15.6154    8.1414   10.0833 C   0  0  0  0  0  0  0  0  0  0  0  0
   16.1742    9.4240   10.0550 C   0  0  0  0  0  0  0  0  0  0  0  0
   17.5062    9.5747    9.6884 C   0  0  0  0  0  0  0  0  0  0  0  0
   18.2574    8.4537    9.3255 C   0  0  0  0  0  0  0  0  0  0  0  0
   17.6905    7.1745    9.3433 C   0  0  0  0  0  0  0  0  0  0  0  0
   18.6843    5.8698    8.8098 Cl  0  0  0  0  0  0  0  0  0  0  0  0
   15.3147   10.4168   10.4237 O   0  0  0  0  0  0  0  0  0  0  0  0
   14.8905   11.3713    9.4475 C   0  0  0  0  0  0  0  0  0  0  0  0
   15.4832   12.7345    9.7844 C   0  0  0  0  0  0  0  0  0  0  0  0
   13.3658   11.4464    9.4984 C   0  0  0  0  0  0  0  0  0  0  0  0
   12.6752   12.3588    9.9226 O   0  0  0  0  0  0  0  0  0  0  0  0
   12.7713   10.3205    9.0415 O   0  0  0  0  0  0  0  0  0  0  0  0
   13.2935    9.6149    8.7140 H   0  0  0  0  0  0  0  0  0  0  0  0
   10.2387    4.9797    9.7483 O   0  0  0  0  0  0  0  0  0  0  0  0
    9.0716    5.6002   10.2744 C   0  0  0  0  0  0  0  0  0  0  0  0
    9.3844    6.6038   11.1240 F   0  0  0  0  0  0  0  0  0  0  0  0
    8.2812    6.0767    9.2874 F   0  0  0  0  0  0  0  0  0  0  0  0
    8.3658    4.6741   10.9621 F   0  0  0  0  0  0  0  0  0  0  0  0
 21 22  1  0
 22 11  1  0
 11 12  2  0
 12 13  1  0
 13 14  1  0
 14 15  1  0
 15 16  2  0
 16  1  1  0
  1  2  2  0
  2  3  1  0
  2  4  1  0
  4 23  1  0
 23 24  1  0
 24 25  2  0
 25 26  1  0
 26 31  1  0
 31 32  1  0
 32 33  1  0
 32 34  1  0
 34 35  2  0
 34 36  1  0
 26 27  2  0
 27 28  1  0
 28 29  2  0
 29 30  1  0
  4  5  1  0
  5  6  2  0
  6  7  1  0
  7 38  1  0
 38 39  1  0
 39 40  1  0
 39 41  1  0
 39 42  1  0
  7  8  2  0
  8  9  1  0
  9 10  2  0
 16 17  1  0
 17 18  1  0
 18 19  2  0
 19 20  1  0
 19 11  1  0
 17 13  2  0
 10  1  1  0
 29 24  1  0
 10  5  1  0
 36 37  1  0
M  END
> <minimizedAffinity>
-8.03549

> <CNNscore>
0.8792707920

> <CNNaffinity>
8.2166452408

> <CNN_VS>
7.2246561050

> <CNNaffinity_variance>
0.3290748298

$$$$



 42 46  0  0  0  0  0  0  0  0999 V2000
   13.0154    4.9524   12.3958 C   0  0  0  0  0  0  0  0  0  0  0  0
   13.2495    5.2946   13.7164 C   0  0  0  0  0  0  0  0  0  0  0  0
   12.2708    5.4489   14.8300 C   0  0  0  0  0  0  0  0  0  0  0  0
   14.6159    5.4754   13.8561 N   0  0  0  0  0  0  0  0  0  0  0  0
   15.2366    5.3449   12.6177 C   0  0  0  0  0  0  0  0  0  0  0  0
   16.5828    5.4977   12.2323 C   0  0  0  0  0  0  0  0  0  0  0  0
   16.9211    5.2634   10.8967 C   0  0  0  0  0  0  0  0  0  0  0  0
   15.9732    4.8377    9.9772 C   0  0  0  0  0  0  0  0  0  0  0  0
   14.6383    4.6951   10.3629 C   0  0  0  0  0  0  0  0  0  0  0  0
   14.2536    4.9696   11.6956 C   0  0  0  0  0  0  0  0  0  0  0  0
    8.1957    2.6738   12.8679 C   0  0  0  0  0  0  0  0  0  0  0  0
    8.4380    3.2831   11.6286 C   0  0  0  0  0  0  0  0  0  0  0  0
    9.6864    3.8830   11.4584 C   0  0  0  0  0  0  0  0  0  0  0  0
   10.1201    4.5127   10.3326 O   0  0  0  0  0  0  0  0  0  0  0  0
   11.4127    4.9764   10.5281 N   0  0  0  0  0  0  0  0  0  0  0  0
   11.7251    4.6356   11.7849 C   0  0  0  0  0  0  0  0  0  0  0  0
   10.6789    3.9213   12.4198 C   0  0  0  0  0  0  0  0  0  0  0  0
   10.4401    3.3006   13.6570 C   0  0  0  0  0  0  0  0  0  0  0  0
    9.1939    2.6844   13.8627 C   0  0  0  0  0  0  0  0  0  0  0  0
    8.9087    1.8592   15.5555 Br  0  0  0  0  0  0  0  0  0  0  0  0
    5.8395    2.8286   13.2559 C   0  0  0  0  0  0  0  0  0  0  0  0
    7.0209    2.0405   13.1876 O   0  0  0  0  0  0  0  0  0  0  0  0
   15.3105    5.8586   15.0913 C   0  0  0  0  0  0  0  0  0  0  0  0
   16.3554    4.8691   15.5528 C   0  0  0  0  0  0  0  0  0  0  0  0
   17.5417    5.3646   16.1314 C   0  0  0  0  0  0  0  0  0  0  0  0
   18.5596    4.5155   16.5798 C   0  0  0  0  0  0  0  0  0  0  0  0
   18.3986    3.1407   16.4562 C   0  0  0  0  0  0  0  0  0  0  0  0
   17.2427    2.6278   15.8616 C   0  0  0  0  0  0  0  0  0  0  0  0
   16.2331    3.4815   15.4033 C   0  0  0  0  0  0  0  0  0  0  0  0
   14.8817    2.7480   14.6223 Cl  0  0  0  0  0  0  0  0  0  0  0  0
   19.6285    5.1634   17.1255 O   0  0  0  0  0  0  0  0  0  0  0  0
   19.4035    6.3073   17.9532 C   0  0  0  0  0  0  0  0  0  0  0  0
   20.6779    7.1409   18.0185 C   0  0  0  0  0  0  0  0  0  0  0  0
   19.0422    5.8094   19.3512 C   0  0  0  0  0  0  0  0  0  0  0  0
   18.6956    6.4724   20.3154 O   0  0  0  0  0  0  0  0  0  0  0  0
   19.1822    4.4704   19.4818 O   0  0  0  0  0  0  0  0  0  0  0  0
   19.4480    3.9532   18.7470 H   0  0  0  0  0  0  0  0  0  0  0  0
   18.2201    5.3529   10.4768 O   0  0  0  0  0  0  0  0  0  0  0  0
   18.3585    6.2757    9.4030 C   0  0  0  0  0  0  0  0  0  0  0  0
   17.4551    7.2772    9.4911 F   0  0  0  0  0  0  0  0  0  0  0  0
   19.6046    6.7968    9.3607 F   0  0  0  0  0  0  0  0  0  0  0  0
   18.1428    5.6182    8.2412 F   0  0  0  0  0  0  0  0  0  0  0  0
 21 22  1  0
 22 11  1  0
 11 12  2  0
 12 13  1  0
 13 14  1  0
 14 15  1  0
 15 16  2  0
 16  1  1  0
  1  2  2  0
  2  3  1  0
  2  4  1  0
  4 23  1  0
 23 24  1  0
 24 25  2  0
 25 26  1  0
 26 31  1  0
 31 32  1  0
 32 33  1  0
 32 34  1  0
 34 35  2  0
 34 36  1  0
 26 27  2  0
 27 28  1  0
 28 29  2  0
 29 30  1  0
  4  5  1  0
  5  6  2  0
  6  7  1  0
  7 38  1  0
 38 39  1  0
 39 40  1  0
 39 41  1  0
 39 42  1  0
  7  8  2  0
  8  9  1  0
  9 10  2  0
 16 17  1  0
 17 18  1  0
 18 19  2  0
 19 20  1  0
 19 11  1  0
 17 13  2  0
 10  1  1  0
 29 24  1  0
 10  5  1  0
 36 37  1  0
M  END
> <minimizedAffinity>
-8.12023

> <CNNscore>
0.8200182915

> <CNNaffinity>
8.4651784897

> <CNN_VS>
6.9416012764

> <CNNaffinity_variance>
0.1976152658

$$$$



 42 46  0  0  0  0  0  0  0  0999 V2000
   13.5703    5.5276   11.4427 C   0  0  0  0  0  0  0  0  0  0  0  0
   14.5158    6.2523   10.7379 C   0  0  0  0  0  0  0  0  0  0  0  0
   14.4422    6.7809    9.3462 C   0  0  0  0  0  0  0  0  0  0  0  0
   15.6044    6.4289   11.5765 N   0  0  0  0  0  0  0  0  0  0  0  0
   15.3958    5.7426   12.7687 C   0  0  0  0  0  0  0  0  0  0  0  0
   16.2214    5.5668   13.8964 C   0  0  0  0  0  0  0  0  0  0  0  0
   15.7184    4.8422   14.9803 C   0  0  0  0  0  0  0  0  0  0  0  0
   14.4208    4.3507   14.9787 C   0  0  0  0  0  0  0  0  0  0  0  0
   13.6090    4.5213   13.8549 C   0  0  0  0  0  0  0  0  0  0  0  0
   14.1034    5.2089   12.7226 C   0  0  0  0  0  0  0  0  0  0  0  0
    8.3383    5.0578   12.4679 C   0  0  0  0  0  0  0  0  0  0  0  0
    8.7261    4.6349   11.1886 C   0  0  0  0  0  0  0  0  0  0  0  0
   10.0838    4.7318   10.8809 C   0  0  0  0  0  0  0  0  0  0  0  0
   10.6617    4.3642    9.7050 O   0  0  0  0  0  0  0  0  0  0  0  0
   12.0279    4.5967    9.7658 N   0  0  0  0  0  0  0  0  0  0  0  0
   12.2436    5.1260   10.9770 C   0  0  0  0  0  0  0  0  0  0  0  0
   11.0526    5.2175   11.7391 C   0  0  0  0  0  0  0  0  0  0  0  0
   10.6655    5.6302   13.0247 C   0  0  0  0  0  0  0  0  0  0  0  0
    9.3058    5.5445   13.3698 C   0  0  0  0  0  0  0  0  0  0  0  0
    8.8224    6.1191   15.1202 Br  0  0  0  0  0  0  0  0  0  0  0  0
    6.3633    3.7742   12.8894 C   0  0  0  0  0  0  0  0  0  0  0  0
    7.0435    5.0224   12.9210 O   0  0  0  0  0  0  0  0  0  0  0  0
   16.8462    7.1339   11.2362 C   0  0  0  0  0  0  0  0  0  0  0  0
   16.6489    8.3811   10.4059 C   0  0  0  0  0  0  0  0  0  0  0  0
   15.6465    9.2942   10.7918 C   0  0  0  0  0  0  0  0  0  0  0  0
   15.3972   10.4696   10.0745 C   0  0  0  0  0  0  0  0  0  0  0  0
   16.1617   10.7511    8.9485 C   0  0  0  0  0  0  0  0  0  0  0  0
   17.1428    9.8475    8.5319 C   0  0  0  0  0  0  0  0  0  0  0  0
   17.3797    8.6673    9.2454 C   0  0  0  0  0  0  0  0  0  0  0  0
   18.5639    7.5892    8.6053 Cl  0  0  0  0  0  0  0  0  0  0  0  0
   14.4031   11.2435   10.5968 O   0  0  0  0  0  0  0  0  0  0  0  0
   14.2961   12.6103   10.1914 C   0  0  0  0  0  0  0  0  0  0  0  0
   14.3135   13.5051   11.4251 C   0  0  0  0  0  0  0  0  0  0  0  0
   12.9691   12.7770    9.4536 C   0  0  0  0  0  0  0  0  0  0  0  0
   12.5094   13.7945    8.9610 O   0  0  0  0  0  0  0  0  0  0  0  0
   12.2475   11.6337    9.4108 O   0  0  0  0  0  0  0  0  0  0  0  0
   12.5924   10.8477    9.7865 H   0  0  0  0  0  0  0  0  0  0  0  0
   16.4594    4.6792   16.1188 O   0  0  0  0  0  0  0  0  0  0  0  0
   17.5120    3.7418   15.9259 C   0  0  0  0  0  0  0  0  0  0  0  0
   17.1588    2.5069   16.3469 F   0  0  0  0  0  0  0  0  0  0  0  0
   17.8871    3.6843   14.6289 F   0  0  0  0  0  0  0  0  0  0  0  0
   18.5812    4.1415   16.6509 F   0  0  0  0  0  0  0  0  0  0  0  0
 21 22  1  0
 22 11  1  0
 11 12  2  0
 12 13  1  0
 13 14  1  0
 14 15  1  0
 15 16  2  0
 16  1  1  0
  1  2  2  0
  2  3  1  0
  2  4  1  0
  4 23  1  0
 23 24  1  0
 24 25  2  0
 25 26  1  0
 26 31  1  0
 31 32  1  0
 32 33  1  0
 32 34  1  0
 34 35  2  0
 34 36  1  0
 26 27  2  0
 27 28  1  0
 28 29  2  0
 29 30  1  0
  4  5  1  0
  5  6  2  0
  6  7  1  0
  7 38  1  0
 38 39  1  0
 39 40  1  0
 39 41  1  0
 39 42  1  0
  7  8  2  0
  8  9  1  0
  9 10  2  0
 16 17  1  0
 17 18  1  0
 18 19  2  0
 19 20  1  0
 19 11  1  0
 17 13  2  0
 10  1  1  0
 29 24  1  0
 10  5  1  0
 36 37  1  0
M  END
> <minimizedAffinity>
-9.80149

> <CNNscore>
0.6670541167

> <CNNaffinity>
7.6736559868

> <CNN_VS>
5.1187438965

> <CNNaffinity_variance>
0.1182918921

$$$$



 42 46  0  0  0  0  0  0  0  0999 V2000
   13.2095    5.9855   10.2367 C   0  0  0  0  0  0  0  0  0  0  0  0
   13.8987    4.9204   10.7904 C   0  0  0  0  0  0  0  0  0  0  0  0
   13.4021    3.5534   11.1166 C   0  0  0  0  0  0  0  0  0  0  0  0
   15.2017    5.3414   11.0010 N   0  0  0  0  0  0  0  0  0  0  0  0
   15.3189    6.6891   10.6755 C   0  0  0  0  0  0  0  0  0  0  0  0
   16.4078    7.5773   10.7731 C   0  0  0  0  0  0  0  0  0  0  0  0
   16.2346    8.8905   10.3274 C   0  0  0  0  0  0  0  0  0  0  0  0
   15.0421    9.3048    9.7515 C   0  0  0  0  0  0  0  0  0  0  0  0
   13.9631    8.4220    9.6641 C   0  0  0  0  0  0  0  0  0  0  0  0
   14.0896    7.0997   10.1486 C   0  0  0  0  0  0  0  0  0  0  0  0
    8.0421    5.7799   11.6155 C   0  0  0  0  0  0  0  0  0  0  0  0
    8.2776    5.9208   10.2405 C   0  0  0  0  0  0  0  0  0  0  0  0
    9.6119    5.9704    9.8348 C   0  0  0  0  0  0  0  0  0  0  0  0
   10.0498    6.0906    8.5519 O   0  0  0  0  0  0  0  0  0  0  0  0
   11.4368    6.0965    8.5329 N   0  0  0  0  0  0  0  0  0  0  0  0
   11.8092    6.0034    9.8160 C   0  0  0  0  0  0  0  0  0  0  0  0
   10.6972    5.8990   10.6880 C   0  0  0  0  0  0  0  0  0  0  0  0
   10.4609    5.7461   12.0642 C   0  0  0  0  0  0  0  0  0  0  0  0
    9.1288    5.6903   12.5084 C   0  0  0  0  0  0  0  0  0  0  0  0
    8.8523    5.4879   14.3820 Br  0  0  0  0  0  0  0  0  0  0  0  0
    6.2701    4.4266   12.4842 C   0  0  0  0  0  0  0  0  0  0  0  0
    6.7885    5.7127   12.1698 O   0  0  0  0  0  0  0  0  0  0  0  0
   16.2816    4.5362   11.5844 C   0  0  0  0  0  0  0  0  0  0  0  0
   16.4152    4.6635   13.0843 C   0  0  0  0  0  0  0  0  0  0  0  0
   17.7068    4.7809   13.6369 C   0  0  0  0  0  0  0  0  0  0  0  0
   17.9165    4.8981   15.0155 C   0  0  0  0  0  0  0  0  0  0  0  0
   16.8201    4.9031   15.8694 C   0  0  0  0  0  0  0  0  0  0  0  0
   15.5321    4.7612   15.3464 C   0  0  0  0  0  0  0  0  0  0  0  0
   15.3285    4.6315   13.9680 C   0  0  0  0  0  0  0  0  0  0  0  0
   13.7059    4.3914   13.4351 Cl  0  0  0  0  0  0  0  0  0  0  0  0
   19.2271    5.0172   15.3737 O   0  0  0  0  0  0  0  0  0  0  0  0
   19.7444    4.1861   16.4157 C   0  0  0  0  0  0  0  0  0  0  0  0
   19.0760    2.8179   16.3481 C   0  0  0  0  0  0  0  0  0  0  0  0
   19.4186    4.8524   17.7509 C   0  0  0  0  0  0  0  0  0  0  0  0
   19.3445    6.0462   17.9931 O   0  0  0  0  0  0  0  0  0  0  0  0
   19.2417    3.9595   18.7514 O   0  0  0  0  0  0  0  0  0  0  0  0
   19.2968    3.0410   18.5749 H   0  0  0  0  0  0  0  0  0  0  0  0
   17.2713    9.7828   10.3566 O   0  0  0  0  0  0  0  0  0  0  0  0
   18.0807    9.6799    9.1912 C   0  0  0  0  0  0  0  0  0  0  0  0
   17.3291    9.6277    8.0691 F   0  0  0  0  0  0  0  0  0  0  0  0
   18.9488   10.7118    9.1033 F   0  0  0  0  0  0  0  0  0  0  0  0
   18.7995    8.5369    9.2673 F   0  0  0  0  0  0  0  0  0  0  0  0
 21 22  1  0
 22 11  1  0
 11 12  2  0
 12 13  1  0
 13 14  1  0
 14 15  1  0
 15 16  2  0
 16  1  1  0
  1  2  2  0
  2  3  1  0
  2  4  1  0
  4 23  1  0
 23 24  1  0
 24 25  2  0
 25 26  1  0
 26 31  1  0
 31 32  1  0
 32 33  1  0
 32 34  1  0
 34 35  2  0
 34 36  1  0
 26 27  2  0
 27 28  1  0
 28 29  2  0
 29 30  1  0
  4  5  1  0
  5  6  2  0
  6  7  1  0
  7 38  1  0
 38 39  1  0
 39 40  1  0
 39 41  1  0
 39 42  1  0
  7  8  2  0
  8  9  1  0
  9 10  2  0
 16 17  1  0
 17 18  1  0
 18 19  2  0
 19 20  1  0
 19 11  1  0
 17 13  2  0
 10  1  1  0
 29 24  1  0
 10  5  1  0
 36 37  1  0
M  END
> <minimizedAffinity>
-10.44793

> <CNNscore>
0.5677946806

> <CNNaffinity>
7.7046818733

> <CNN_VS>
4.3746771812

> <CNNaffinity_variance>
0.3284014165

$$$$



 42 46  0  0  0  0  0  0  0  0999 V2000
   13.9050    6.2715   11.0497 C   0  0  0  0  0  0  0  0  0  0  0  0
   12.9448    5.2912   10.8686 C   0  0  0  0  0  0  0  0  0  0  0  0
   11.8782    5.2072    9.8308 C   0  0  0  0  0  0  0  0  0  0  0  0
   13.1426    4.3378   11.8542 N   0  0  0  0  0  0  0  0  0  0  0  0
   14.1556    4.7525   12.7130 C   0  0  0  0  0  0  0  0  0  0  0  0
   14.6763    4.1704   13.8853 C   0  0  0  0  0  0  0  0  0  0  0  0
   15.7383    4.8113   14.5289 C   0  0  0  0  0  0  0  0  0  0  0  0
   16.3090    5.9627   14.0055 C   0  0  0  0  0  0  0  0  0  0  0  0
   15.7839    6.5399   12.8470 C   0  0  0  0  0  0  0  0  0  0  0  0
   14.6792    5.9428   12.1970 C   0  0  0  0  0  0  0  0  0  0  0  0
   17.2942    9.4063    8.3420 C   0  0  0  0  0  0  0  0  0  0  0  0
   15.9568    9.8265    8.3148 C   0  0  0  0  0  0  0  0  0  0  0  0
   15.0389    9.0428    9.0153 C   0  0  0  0  0  0  0  0  0  0  0  0
   13.7040    9.2846    9.1225 O   0  0  0  0  0  0  0  0  0  0  0  0
   13.1143    8.2997    9.9012 N   0  0  0  0  0  0  0  0  0  0  0  0
   14.1087    7.4650   10.2297 C   0  0  0  0  0  0  0  0  0  0  0  0
   15.3573    7.8940    9.7151 C   0  0  0  0  0  0  0  0  0  0  0  0
   16.6990    7.4798    9.7518 C   0  0  0  0  0  0  0  0  0  0  0  0
   17.6514    8.2468    9.0590 C   0  0  0  0  0  0  0  0  0  0  0  0
   19.4580    7.6478    9.1297 Br  0  0  0  0  0  0  0  0  0  0  0  0
   18.7663   11.2917    8.2760 C   0  0  0  0  0  0  0  0  0  0  0  0
   18.3133   10.0702    7.7065 O   0  0  0  0  0  0  0  0  0  0  0  0
   12.3417    3.1229   12.0481 C   0  0  0  0  0  0  0  0  0  0  0  0
   11.3030    3.2273   13.1407 C   0  0  0  0  0  0  0  0  0  0  0  0
   10.1288    3.9641   12.8841 C   0  0  0  0  0  0  0  0  0  0  0  0
    9.1211    4.1126   13.8437 C   0  0  0  0  0  0  0  0  0  0  0  0
    9.2772    3.5138   15.0881 C   0  0  0  0  0  0  0  0  0  0  0  0
   10.4446    2.8011   15.3740 C   0  0  0  0  0  0  0  0  0  0  0  0
   11.4550    2.6661   14.4153 C   0  0  0  0  0  0  0  0  0  0  0  0
   12.8833    1.8271   14.8954 Cl  0  0  0  0  0  0  0  0  0  0  0  0
    8.0499    4.8435   13.4215 O   0  0  0  0  0  0  0  0  0  0  0  0
    8.2058    6.2475   13.2009 C   0  0  0  0  0  0  0  0  0  0  0  0
    8.1734    6.9749   14.5399 C   0  0  0  0  0  0  0  0  0  0  0  0
    7.0405    6.7168   12.3321 C   0  0  0  0  0  0  0  0  0  0  0  0
    6.4370    6.0816   11.4827 O   0  0  0  0  0  0  0  0  0  0  0  0
    6.7136    8.0111   12.5506 O   0  0  0  0  0  0  0  0  0  0  0  0
    7.1715    8.5067   13.2007 H   0  0  0  0  0  0  0  0  0  0  0  0
   16.3124    4.2670   15.6452 O   0  0  0  0  0  0  0  0  0  0  0  0
   17.6806    3.9460   15.4240 C   0  0  0  0  0  0  0  0  0  0  0  0
   17.9340    3.7342   14.1133 F   0  0  0  0  0  0  0  0  0  0  0  0
   18.4948    4.9197   15.8876 F   0  0  0  0  0  0  0  0  0  0  0  0
   17.9686    2.8080   16.0954 F   0  0  0  0  0  0  0  0  0  0  0  0
 21 22  1  0
 22 11  1  0
 11 12  2  0
 12 13  1  0
 13 14  1  0
 14 15  1  0
 15 16  2  0
 16  1  1  0
  1  2  2  0
  2  3  1  0
  2  4  1  0
  4 23  1  0
 23 24  1  0
 24 25  2  0
 25 26  1  0
 26 31  1  0
 31 32  1  0
 32 33  1  0
 32 34  1  0
 34 35  2  0
 34 36  1  0
 26 27  2  0
 27 28  1  0
 28 29  2  0
 29 30  1  0
  4  5  1  0
  5  6  2  0
  6  7  1  0
  7 38  1  0
 38 39  1  0
 39 40  1  0
 39 41  1  0
 39 42  1  0
  7  8  2  0
  8  9  1  0
  9 10  2  0
 16 17  1  0
 17 18  1  0
 18 19  2  0
 19 20  1  0
 19 11  1  0
 17 13  2  0
 10  1  1  0
 29 24  1  0
 10  5  1  0
 36 37  1  0
M  END
> <minimizedAffinity>
-7.66165

> <CNNscore>
0.4617208242

> <CNNaffinity>
7.8113651276

> <CNN_VS>
3.6066699028

> <CNNaffinity_variance>
0.2259133309

$$$$



 42 46  0  0  0  0  0  0  0  0999 V2000
   16.6672   12.7795    7.6229 C   0  0  0  0  0  0  0  0  0  0  0  0
   17.8869   13.4336    7.6068 C   0  0  0  0  0  0  0  0  0  0  0  0
   18.9265   13.5005    8.6729 C   0  0  0  0  0  0  0  0  0  0  0  0
   18.0052   14.0480    6.3706 N   0  0  0  0  0  0  0  0  0  0  0  0
   16.8333   13.8689    5.6424 C   0  0  0  0  0  0  0  0  0  0  0  0
   16.4445   14.3460    4.3753 C   0  0  0  0  0  0  0  0  0  0  0  0
   15.1957   13.9644    3.8774 C   0  0  0  0  0  0  0  0  0  0  0  0
   14.3747   13.0943    4.5805 C   0  0  0  0  0  0  0  0  0  0  0  0
   14.7618   12.6302    5.8397 C   0  0  0  0  0  0  0  0  0  0  0  0
   15.9985   13.0344    6.3935 C   0  0  0  0  0  0  0  0  0  0  0  0
   16.7362    8.1660   10.3351 C   0  0  0  0  0  0  0  0  0  0  0  0
   15.8030    9.1048   10.7974 C   0  0  0  0  0  0  0  0  0  0  0  0
   15.7447   10.3199   10.1137 C   0  0  0  0  0  0  0  0  0  0  0  0
   14.9036   11.3521   10.3952 O   0  0  0  0  0  0  0  0  0  0  0  0
   15.1253   12.3893    9.5012 N   0  0  0  0  0  0  0  0  0  0  0  0
   16.1191   11.9677    8.7087 C   0  0  0  0  0  0  0  0  0  0  0  0
   16.5402   10.6544    9.0338 C   0  0  0  0  0  0  0  0  0  0  0  0
   17.4669    9.7093    8.5638 C   0  0  0  0  0  0  0  0  0  0  0  0
   17.5514    8.4732    9.2273 C   0  0  0  0  0  0  0  0  0  0  0  0
   18.8242    7.2223    8.5617 Br  0  0  0  0  0  0  0  0  0  0  0  0
   16.0414    6.5501   11.9575 C   0  0  0  0  0  0  0  0  0  0  0  0
   16.9117    6.9268   10.8981 O   0  0  0  0  0  0  0  0  0  0  0  0
   19.1397   14.8641    5.9213 C   0  0  0  0  0  0  0  0  0  0  0  0
   20.2953   14.0704    5.3572 C   0  0  0  0  0  0  0  0  0  0  0  0
   21.6031   14.5642    5.5398 C   0  0  0  0  0  0  0  0  0  0  0  0
   22.7261   13.8921    5.0446 C   0  0  0  0  0  0  0  0  0  0  0  0
   22.5516   12.6986    4.3542 C   0  0  0  0  0  0  0  0  0  0  0  0
   21.2627   12.2038    4.1380 C   0  0  0  0  0  0  0  0  0  0  0  0
   20.1420   12.8862    4.6243 C   0  0  0  0  0  0  0  0  0  0  0  0
   18.5955   12.2259    4.2410 Cl  0  0  0  0  0  0  0  0  0  0  0  0
   23.9126   14.5033    5.3252 O   0  0  0  0  0  0  0  0  0  0  0  0
   24.1470   15.0005    6.6449 C   0  0  0  0  0  0  0  0  0  0  0  0
   24.7179   16.4111    6.5584 C   0  0  0  0  0  0  0  0  0  0  0  0
   25.1587   14.0767    7.3201 C   0  0  0  0  0  0  0  0  0  0  0  0
   25.9639   13.3310    6.7864 O   0  0  0  0  0  0  0  0  0  0  0  0
   25.0733   14.1052    8.6698 O   0  0  0  0  0  0  0  0  0  0  0  0
   24.4580   14.6745    9.0884 H   0  0  0  0  0  0  0  0  0  0  0  0
   14.7861   14.3613    2.6338 O   0  0  0  0  0  0  0  0  0  0  0  0
   15.2961   13.5046    1.6190 C   0  0  0  0  0  0  0  0  0  0  0  0
   14.3721   13.2658    0.6618 F   0  0  0  0  0  0  0  0  0  0  0  0
   16.4076   14.0228    1.0514 F   0  0  0  0  0  0  0  0  0  0  0  0
   15.6299   12.3218    2.1832 F   0  0  0  0  0  0  0  0  0  0  0  0
 21 22  1  0
 22 11  1  0
 11 12  2  0
 12 13  1  0
 13 14  1  0
 14 15  1  0
 15 16  2  0
 16  1  1  0
  1  2  2  0
  2  3  1  0
  2  4  1  0
  4 23  1  0
 23 24  1  0
 24 25  2  0
 25 26  1  0
 26 31  1  0
 31 32  1  0
 32 33  1  0
 32 34  1  0
 34 35  2  0
 34 36  1  0
 26 27  2  0
 27 28  1  0
 28 29  2  0
 29 30  1  0
  4  5  1  0
  5  6  2  0
  6  7  1  0
  7 38  1  0
 38 39  1  0
 39 40  1  0
 39 41  1  0
 39 42  1  0
  7  8  2  0
  8  9  1  0
  9 10  2  0
 16 17  1  0
 17 18  1  0
 18 19  2  0
 19 20  1  0
 19 11  1  0
 17 13  2  0
 10  1  1  0
 29 24  1  0
 10  5  1  0
 36 37  1  0
M  END
> <minimizedAffinity>
-7.97493

> <CNNscore>
0.4417723119

> <CNNaffinity>
7.1518092155

> <CNN_VS>
3.1594712734

> <CNNaffinity_variance>
0.0306372344

$$$$
