


 23 23  0  0  0  0  0  0  0  0999 V2000
   -8.1195  -11.3652    9.5676 C   0  0  0  0  0  0  0  0  0  0  0  0
   -8.9724  -10.2735   10.2152 C   0  0  0  0  0  0  0  0  0  0  0  0
  -10.1080  -10.8430   10.8782 O   0  0  0  0  0  0  0  0  0  0  0  0
   -8.1457   -9.4890   11.2398 C   0  0  0  0  0  0  0  0  0  0  0  0
   -8.9845   -8.4293   11.7392 O   0  0  0  0  0  0  0  0  0  0  0  0
   -6.8401   -8.9667   10.6020 C   0  0  0  0  0  0  0  0  0  0  0  0
   -6.1158  -10.0267    9.9836 O   0  0  0  0  0  0  0  0  0  0  0  0
   -6.8617  -10.6985    8.9731 C   0  0  0  0  0  0  0  0  0  0  0  0
   -6.0124  -11.6301    8.3271 O   0  0  0  0  0  0  0  0  0  0  0  0
   -9.8065  -11.4389   11.5817 H   0  0  0  0  0  0  0  0  0  0  0  0
   -9.2633   -7.8632   11.0025 H   0  0  0  0  0  0  0  0  0  0  0  0
   -5.6871  -12.2745    8.9750 H   0  0  0  0  0  0  0  0  0  0  0  0
   -9.9962  -13.6984    6.4721 C   0  0  0  0  0  0  0  0  0  0  0  0
  -10.2425  -12.2754    6.6650 N   0  0  0  0  0  0  0  0  0  0  0  0
   -9.6445  -11.4766    7.6274 C   0  0  0  0  0  0  0  0  0  0  0  0
   -9.7487  -10.2493    7.6631 O   0  0  0  0  0  0  0  0  0  0  0  0
   -8.8756  -12.1326    8.5682 N   0  0  0  0  0  0  0  0  0  0  0  0
   -8.8338  -13.1162    8.5695 H   0  0  0  0  0  0  0  0  0  0  0  0
  -11.1540  -11.5773    5.6981 N   0  0  0  0  0  0  0  0  0  0  0  0
  -11.5161  -12.2952    4.7691 O   0  0  0  0  0  0  0  0  0  0  0  0
   -5.9258   -8.3302   11.6597 C   0  0  0  0  0  0  0  0  0  0  0  0
   -5.3267   -9.3207   12.4839 O   0  0  0  0  0  0  0  0  0  0  0  0
   -6.0190   -9.8177   12.9473 H   0  0  0  0  0  0  0  0  0  0  0  0
 13 14  1  0
 14 19  1  0
 19 20  2  0
 14 15  1  0
 15 16  2  0
 15 17  1  0
  1 17  1  0
  1  2  1  0
  2  3  1  0
  2  4  1  0
  4  5  1  0
  4  6  1  0
  6 21  1  0
 21 22  1  0
  6  7  1  0
  7  8  1  0
  8  9  1  0
  8  1  1  0
 17 18  1  0
  3 10  1  0
  5 11  1  0
 22 23  1  0
  9 12  1  0
M  END
> <minimizedAffinity>
-7.64993

> <CNNscore>
0.9147091508

> <CNNaffinity>
4.6533260345

> <CNN_VS>
4.2564396858

> <CNNaffinity_variance>
0.0953764096

$$$$



 23 23  0  0  0  0  0  0  0  0999 V2000
   -7.6711  -10.9691    9.4689 C   0  0  0  0  0  0  0  0  0  0  0  0
   -8.3128   -9.9414   10.4020 C   0  0  0  0  0  0  0  0  0  0  0  0
   -9.5314  -10.4513   10.9574 O   0  0  0  0  0  0  0  0  0  0  0  0
   -7.3570   -9.5921   11.5479 C   0  0  0  0  0  0  0  0  0  0  0  0
   -7.9908   -8.5604   12.3290 O   0  0  0  0  0  0  0  0  0  0  0  0
   -5.9797   -9.1630   10.9976 C   0  0  0  0  0  0  0  0  0  0  0  0
   -5.4587  -10.1454   10.1064 O   0  0  0  0  0  0  0  0  0  0  0  0
   -6.3147  -10.4049    8.9979 C   0  0  0  0  0  0  0  0  0  0  0  0
   -5.6478  -11.2798    8.1056 O   0  0  0  0  0  0  0  0  0  0  0  0
   -9.3409  -11.2463   11.4796 H   0  0  0  0  0  0  0  0  0  0  0  0
   -8.1643   -7.7895   11.7664 H   0  0  0  0  0  0  0  0  0  0  0  0
   -5.4428  -12.1114    8.5610 H   0  0  0  0  0  0  0  0  0  0  0  0
  -10.5529  -11.8584    6.3945 C   0  0  0  0  0  0  0  0  0  0  0  0
   -9.7583  -12.8771    7.0681 N   0  0  0  0  0  0  0  0  0  0  0  0
   -8.8394  -12.6447    8.0798 C   0  0  0  0  0  0  0  0  0  0  0  0
   -8.3037  -13.5370    8.7395 O   0  0  0  0  0  0  0  0  0  0  0  0
   -8.5543  -11.3206    8.3484 N   0  0  0  0  0  0  0  0  0  0  0  0
   -8.9435  -10.6108    7.7881 H   0  0  0  0  0  0  0  0  0  0  0  0
   -9.9997  -14.3147    6.7101 N   0  0  0  0  0  0  0  0  0  0  0  0
  -10.8720  -14.8443    7.3942 O   0  0  0  0  0  0  0  0  0  0  0  0
   -4.9643   -8.9782   12.1353 C   0  0  0  0  0  0  0  0  0  0  0  0
   -3.6309   -9.0186   11.6454 O   0  0  0  0  0  0  0  0  0  0  0  0
   -3.4640   -9.8805   11.2328 H   0  0  0  0  0  0  0  0  0  0  0  0
 13 14  1  0
 14 19  1  0
 19 20  2  0
 14 15  1  0
 15 16  2  0
 15 17  1  0
  1 17  1  0
  1  2  1  0
  2  3  1  0
  2  4  1  0
  4  5  1  0
  4  6  1  0
  6 21  1  0
 21 22  1  0
  6  7  1  0
  7  8  1  0
  8  9  1  0
  8  1  1  0
 17 18  1  0
  3 10  1  0
  5 11  1  0
 22 23  1  0
  9 12  1  0
M  END
> <minimizedAffinity>
-6.90656

> <CNNscore>
0.7784416676

> <CNNaffinity>
4.3700737953

> <CNN_VS>
3.4018476009

> <CNNaffinity_variance>
0.0891678929

$$$$



 23 23  0  0  0  0  0  0  0  0999 V2000
   -9.5898  -11.1903    9.5940 C   0  0  0  0  0  0  0  0  0  0  0  0
   -8.9111  -12.5115    9.9578 C   0  0  0  0  0  0  0  0  0  0  0  0
   -9.0628  -12.7923   11.3547 O   0  0  0  0  0  0  0  0  0  0  0  0
   -9.5230  -13.6640    9.1540 C   0  0  0  0  0  0  0  0  0  0  0  0
   -8.7780  -14.8526    9.4829 O   0  0  0  0  0  0  0  0  0  0  0  0
   -9.5033  -13.3460    7.6432 C   0  0  0  0  0  0  0  0  0  0  0  0
  -10.1147  -12.0859    7.3799 O   0  0  0  0  0  0  0  0  0  0  0  0
   -9.4880  -11.0062    8.0657 C   0  0  0  0  0  0  0  0  0  0  0  0
  -10.0726   -9.7921    7.6291 O   0  0  0  0  0  0  0  0  0  0  0  0
  -10.0055  -12.8760   11.5672 H   0  0  0  0  0  0  0  0  0  0  0  0
   -7.8438  -14.7215    9.2569 H   0  0  0  0  0  0  0  0  0  0  0  0
  -11.0214   -9.7993    7.8304 H   0  0  0  0  0  0  0  0  0  0  0  0
   -8.1286   -7.6376   11.5409 C   0  0  0  0  0  0  0  0  0  0  0  0
   -7.2673   -8.5783   10.8366 N   0  0  0  0  0  0  0  0  0  0  0  0
   -7.6918   -9.7192   10.1730 C   0  0  0  0  0  0  0  0  0  0  0  0
   -6.9650  -10.4053    9.4524 O   0  0  0  0  0  0  0  0  0  0  0  0
   -9.0205  -10.0574   10.3367 N   0  0  0  0  0  0  0  0  0  0  0  0
   -9.5874   -9.5386   10.9520 H   0  0  0  0  0  0  0  0  0  0  0  0
   -5.8036   -8.2606   10.7374 N   0  0  0  0  0  0  0  0  0  0  0  0
   -5.1719   -8.5684   11.7452 O   0  0  0  0  0  0  0  0  0  0  0  0
  -10.2679  -14.4127    6.8450 C   0  0  0  0  0  0  0  0  0  0  0  0
  -10.6930  -15.4767    7.6857 O   0  0  0  0  0  0  0  0  0  0  0  0
   -9.9185  -15.9013    8.0866 H   0  0  0  0  0  0  0  0  0  0  0  0
 13 14  1  0
 14 19  1  0
 19 20  2  0
 14 15  1  0
 15 16  2  0
 15 17  1  0
  1 17  1  0
  1  2  1  0
  2  3  1  0
  2  4  1  0
  4  5  1  0
  4  6  1  0
  6 21  1  0
 21 22  1  0
  6  7  1  0
  7  8  1  0
  8  9  1  0
  8  1  1  0
 17 18  1  0
  3 10  1  0
  5 11  1  0
 22 23  1  0
  9 12  1  0
M  END
> <minimizedAffinity>
-6.44602

> <CNNscore>
0.7474651933

> <CNNaffinity>
4.6164488792

> <CNN_VS>
3.4506349564

> <CNNaffinity_variance>
0.1769011468

$$$$



 23 23  0  0  0  0  0  0  0  0999 V2000
   -7.9992  -11.4539    9.5884 C   0  0  0  0  0  0  0  0  0  0  0  0
   -8.9724  -10.4174   10.1514 C   0  0  0  0  0  0  0  0  0  0  0  0
  -10.0515  -11.0576   10.8436 O   0  0  0  0  0  0  0  0  0  0  0  0
   -8.2489   -9.4807   11.1250 C   0  0  0  0  0  0  0  0  0  0  0  0
   -9.2026   -8.4845   11.5424 O   0  0  0  0  0  0  0  0  0  0  0  0
   -6.9963   -8.8675   10.4626 C   0  0  0  0  0  0  0  0  0  0  0  0
   -6.1547   -9.8843    9.9255 O   0  0  0  0  0  0  0  0  0  0  0  0
   -6.8099  -10.6996    8.9587 C   0  0  0  0  0  0  0  0  0  0  0  0
   -5.8572  -11.5777    8.3861 O   0  0  0  0  0  0  0  0  0  0  0  0
   -9.6994  -11.5682   11.5894 H   0  0  0  0  0  0  0  0  0  0  0  0
   -9.5284   -8.0033   10.7658 H   0  0  0  0  0  0  0  0  0  0  0  0
   -5.4756  -12.1377    9.0801 H   0  0  0  0  0  0  0  0  0  0  0  0
  -10.2084  -13.8645    6.7855 C   0  0  0  0  0  0  0  0  0  0  0  0
   -9.8816  -14.3016    8.1365 N   0  0  0  0  0  0  0  0  0  0  0  0
   -9.1977  -13.5539    9.0827 C   0  0  0  0  0  0  0  0  0  0  0  0
   -9.0782  -13.8841   10.2638 O   0  0  0  0  0  0  0  0  0  0  0  0
   -8.6546  -12.3643    8.6393 N   0  0  0  0  0  0  0  0  0  0  0  0
   -8.7067  -12.1256    7.6856 H   0  0  0  0  0  0  0  0  0  0  0  0
  -10.3918  -15.6381    8.5911 N   0  0  0  0  0  0  0  0  0  0  0  0
   -9.4954  -16.4167    8.9069 O   0  0  0  0  0  0  0  0  0  0  0  0
   -6.1706   -8.0660   11.4802 C   0  0  0  0  0  0  0  0  0  0  0  0
   -4.8010   -8.4432   11.4413 O   0  0  0  0  0  0  0  0  0  0  0  0
   -4.7183   -9.3838   11.6637 H   0  0  0  0  0  0  0  0  0  0  0  0
 13 14  1  0
 14 19  1  0
 19 20  2  0
 14 15  1  0
 15 16  2  0
 15 17  1  0
  1 17  1  0
  1  2  1  0
  2  3  1  0
  2  4  1  0
  4  5  1  0
  4  6  1  0
  6 21  1  0
 21 22  1  0
  6  7  1  0
  7  8  1  0
  8  9  1  0
  8  1  1  0
 17 18  1  0
  3 10  1  0
  5 11  1  0
 22 23  1  0
  9 12  1  0
M  END
> <minimizedAffinity>
-7.24143

> <CNNscore>
0.5462885499

> <CNNaffinity>
4.1372394562

> <CNN_VS>
2.2601265907

> <CNNaffinity_variance>
0.2699436247

$$$$



 23 23  0  0  0  0  0  0  0  0999 V2000
   -9.0096  -13.2942   10.0984 C   0  0  0  0  0  0  0  0  0  0  0  0
   -9.6725  -13.2648    8.7207 C   0  0  0  0  0  0  0  0  0  0  0  0
   -8.8371  -12.5935    7.7695 O   0  0  0  0  0  0  0  0  0  0  0  0
   -9.9358  -14.6911    8.2255 C   0  0  0  0  0  0  0  0  0  0  0  0
  -10.6371  -14.5817    6.9715 O   0  0  0  0  0  0  0  0  0  0  0  0
  -10.7222  -15.4983    9.2809 C   0  0  0  0  0  0  0  0  0  0  0  0
  -10.0711  -15.4508   10.5476 O   0  0  0  0  0  0  0  0  0  0  0  0
   -9.9043  -14.1252   11.0412 C   0  0  0  0  0  0  0  0  0  0  0  0
   -9.3835  -14.1938   12.3567 O   0  0  0  0  0  0  0  0  0  0  0  0
   -7.9971  -13.0710    7.6832 H   0  0  0  0  0  0  0  0  0  0  0  0
  -11.4659  -14.0960    7.1059 H   0  0  0  0  0  0  0  0  0  0  0  0
   -8.5257  -14.6464   12.3416 H   0  0  0  0  0  0  0  0  0  0  0  0
   -8.4882   -9.1996   11.3274 C   0  0  0  0  0  0  0  0  0  0  0  0
   -7.3952  -10.0425   10.8607 N   0  0  0  0  0  0  0  0  0  0  0  0
   -7.5160  -11.3548   10.4301 C   0  0  0  0  0  0  0  0  0  0  0  0
   -6.6065  -11.9872    9.8905 O   0  0  0  0  0  0  0  0  0  0  0  0
   -8.7522  -11.9422   10.6131 N   0  0  0  0  0  0  0  0  0  0  0  0
   -9.4624  -11.4543   11.0894 H   0  0  0  0  0  0  0  0  0  0  0  0
   -6.0283   -9.4323   10.7496 N   0  0  0  0  0  0  0  0  0  0  0  0
   -5.7775   -8.6384   11.6531 O   0  0  0  0  0  0  0  0  0  0  0  0
  -10.8406  -16.9740    8.8709 C   0  0  0  0  0  0  0  0  0  0  0  0
   -9.5950  -17.6453    9.0027 O   0  0  0  0  0  0  0  0  0  0  0  0
   -8.9389  -17.2260    8.4242 H   0  0  0  0  0  0  0  0  0  0  0  0
 13 14  1  0
 14 19  1  0
 19 20  2  0
 14 15  1  0
 15 16  2  0
 15 17  1  0
  1 17  1  0
  1  2  1  0
  2  3  1  0
  2  4  1  0
  4  5  1  0
  4  6  1  0
  6 21  1  0
 21 22  1  0
  6  7  1  0
  7  8  1  0
  8  9  1  0
  8  1  1  0
 17 18  1  0
  3 10  1  0
  5 11  1  0
 22 23  1  0
  9 12  1  0
M  END
> <minimizedAffinity>
-5.88884

> <CNNscore>
0.5349914432

> <CNNaffinity>
4.3832392693

> <CNN_VS>
2.3449954987

> <CNNaffinity_variance>
0.1723172516

$$$$



 23 23  0  0  0  0  0  0  0  0999 V2000
   -7.1315  -11.7744    9.0666 C   0  0  0  0  0  0  0  0  0  0  0  0
   -8.2908  -10.8005    8.8520 C   0  0  0  0  0  0  0  0  0  0  0  0
   -7.8021   -9.4781    8.5956 O   0  0  0  0  0  0  0  0  0  0  0  0
   -9.1494  -11.2477    7.6639 C   0  0  0  0  0  0  0  0  0  0  0  0
  -10.2635  -10.3379    7.5799 O   0  0  0  0  0  0  0  0  0  0  0  0
   -9.5906  -12.7177    7.8326 C   0  0  0  0  0  0  0  0  0  0  0  0
   -8.4675  -13.5627    8.0683 O   0  0  0  0  0  0  0  0  0  0  0  0
   -7.7210  -13.1914    9.2232 C   0  0  0  0  0  0  0  0  0  0  0  0
   -6.7213  -14.1689    9.4499 O   0  0  0  0  0  0  0  0  0  0  0  0
   -7.2662   -9.4826    7.7870 H   0  0  0  0  0  0  0  0  0  0  0  0
  -10.7664  -10.3649    8.4089 H   0  0  0  0  0  0  0  0  0  0  0  0
   -6.1318  -14.2129    8.6809 H   0  0  0  0  0  0  0  0  0  0  0  0
   -4.9012  -10.3276   12.4549 C   0  0  0  0  0  0  0  0  0  0  0  0
   -4.3325  -10.4679   11.1208 N   0  0  0  0  0  0  0  0  0  0  0  0
   -5.0148  -10.9026    9.9949 C   0  0  0  0  0  0  0  0  0  0  0  0
   -4.5549  -10.8569    8.8527 O   0  0  0  0  0  0  0  0  0  0  0  0
   -6.2910  -11.3851   10.2074 N   0  0  0  0  0  0  0  0  0  0  0  0
   -6.6385  -11.4684   11.1247 H   0  0  0  0  0  0  0  0  0  0  0  0
   -2.9125  -10.0311   10.9070 N   0  0  0  0  0  0  0  0  0  0  0  0
   -2.4368   -9.4402   11.8735 O   0  0  0  0  0  0  0  0  0  0  0  0
  -10.3032  -13.2280    6.5711 C   0  0  0  0  0  0  0  0  0  0  0  0
  -10.8564  -14.5201    6.7808 O   0  0  0  0  0  0  0  0  0  0  0  0
  -10.1463  -15.1447    6.9963 H   0  0  0  0  0  0  0  0  0  0  0  0
 13 14  1  0
 14 19  1  0
 19 20  2  0
 14 15  1  0
 15 16  2  0
 15 17  1  0
  1 17  1  0
  1  2  1  0
  2  3  1  0
  2  4  1  0
  4  5  1  0
  4  6  1  0
  6 21  1  0
 21 22  1  0
  6  7  1  0
  7  8  1  0
  8  9  1  0
  8  1  1  0
 17 18  1  0
  3 10  1  0
  5 11  1  0
 22 23  1  0
  9 12  1  0
M  END
> <minimizedAffinity>
-5.68293

> <CNNscore>
0.4582540989

> <CNNaffinity>
3.5508403778

> <CNN_VS>
1.6271871328

> <CNNaffinity_variance>
0.3309782445

$$$$



 23 23  0  0  0  0  0  0  0  0999 V2000
   -8.0758  -11.9881    9.8139 C   0  0  0  0  0  0  0  0  0  0  0  0
   -7.4385  -12.9836    8.8435 C   0  0  0  0  0  0  0  0  0  0  0  0
   -6.7551  -14.0214    9.5571 O   0  0  0  0  0  0  0  0  0  0  0  0
   -8.5109  -13.6211    7.9535 C   0  0  0  0  0  0  0  0  0  0  0  0
   -7.8292  -14.4740    7.0132 O   0  0  0  0  0  0  0  0  0  0  0  0
   -9.3639  -12.5344    7.2640 C   0  0  0  0  0  0  0  0  0  0  0  0
   -9.8933  -11.6197    8.2199 O   0  0  0  0  0  0  0  0  0  0  0  0
   -8.8859  -10.9679    8.9876 C   0  0  0  0  0  0  0  0  0  0  0  0
   -9.5011   -9.9838    9.7997 O   0  0  0  0  0  0  0  0  0  0  0  0
   -7.3897  -14.5084   10.1058 H   0  0  0  0  0  0  0  0  0  0  0  0
   -7.2051  -13.9459    6.4911 H   0  0  0  0  0  0  0  0  0  0  0  0
  -10.1402  -10.4079   10.3935 H   0  0  0  0  0  0  0  0  0  0  0  0
   -5.3890   -9.8071   12.3775 C   0  0  0  0  0  0  0  0  0  0  0  0
   -5.0641  -10.1808   11.0072 N   0  0  0  0  0  0  0  0  0  0  0  0
   -5.9030  -10.8578   10.1355 C   0  0  0  0  0  0  0  0  0  0  0  0
   -5.6647  -11.0166    8.9370 O   0  0  0  0  0  0  0  0  0  0  0  0
   -7.0755  -11.3457   10.6775 N   0  0  0  0  0  0  0  0  0  0  0  0
   -7.2416  -11.2629   11.6444 H   0  0  0  0  0  0  0  0  0  0  0  0
   -3.7472   -9.7316   10.4443 N   0  0  0  0  0  0  0  0  0  0  0  0
   -2.8112  -10.4625   10.7593 O   0  0  0  0  0  0  0  0  0  0  0  0
  -10.5471  -13.1586    6.5088 C   0  0  0  0  0  0  0  0  0  0  0  0
  -10.8540  -14.4512    7.0133 O   0  0  0  0  0  0  0  0  0  0  0  0
  -10.0863  -15.0332    6.8997 H   0  0  0  0  0  0  0  0  0  0  0  0
 13 14  1  0
 14 19  1  0
 19 20  2  0
 14 15  1  0
 15 16  2  0
 15 17  1  0
  1 17  1  0
  1  2  1  0
  2  3  1  0
  2  4  1  0
  4  5  1  0
  4  6  1  0
  6 21  1  0
 21 22  1  0
  6  7  1  0
  7  8  1  0
  8  9  1  0
  8  1  1  0
 17 18  1  0
  3 10  1  0
  5 11  1  0
 22 23  1  0
  9 12  1  0
M  END
> <minimizedAffinity>
-5.74325

> <CNNscore>
0.4349322915

> <CNNaffinity>
3.8499119282

> <CNN_VS>
1.6744509935

> <CNNaffinity_variance>
0.2731899619

$$$$



 23 23  0  0  0  0  0  0  0  0999 V2000
   -9.9660  -15.6665    9.7417 C   0  0  0  0  0  0  0  0  0  0  0  0
   -8.7862  -16.5769    9.3984 C   0  0  0  0  0  0  0  0  0  0  0  0
   -7.5724  -15.8212    9.3047 O   0  0  0  0  0  0  0  0  0  0  0  0
   -8.6140  -17.6546   10.4744 C   0  0  0  0  0  0  0  0  0  0  0  0
   -7.5478  -18.5209   10.0398 O   0  0  0  0  0  0  0  0  0  0  0  0
   -9.9403  -18.4103   10.7064 C   0  0  0  0  0  0  0  0  0  0  0  0
  -11.0030  -17.5016   10.9815 O   0  0  0  0  0  0  0  0  0  0  0  0
  -11.2123  -16.5541    9.9388 C   0  0  0  0  0  0  0  0  0  0  0  0
  -12.3708  -15.7969   10.2407 O   0  0  0  0  0  0  0  0  0  0  0  0
   -7.3845  -15.4037   10.1598 H   0  0  0  0  0  0  0  0  0  0  0  0
   -7.7779  -18.9117    9.1823 H   0  0  0  0  0  0  0  0  0  0  0  0
  -12.2431  -15.3323   11.0826 H   0  0  0  0  0  0  0  0  0  0  0  0
  -10.3154  -12.8091    6.5385 C   0  0  0  0  0  0  0  0  0  0  0  0
   -9.8170  -12.4702    7.8650 N   0  0  0  0  0  0  0  0  0  0  0  0
   -9.6610  -13.3575    8.9188 C   0  0  0  0  0  0  0  0  0  0  0  0
   -9.0877  -13.0778    9.9731 O   0  0  0  0  0  0  0  0  0  0  0  0
  -10.1710  -14.6259    8.7248 N   0  0  0  0  0  0  0  0  0  0  0  0
  -10.6728  -14.8334    7.9036 H   0  0  0  0  0  0  0  0  0  0  0  0
   -9.3484  -11.0650    8.1076 N   0  0  0  0  0  0  0  0  0  0  0  0
  -10.0719  -10.2172    7.5905 O   0  0  0  0  0  0  0  0  0  0  0  0
   -9.8261  -19.3713   11.8994 C   0  0  0  0  0  0  0  0  0  0  0  0
  -10.9538  -19.2614   12.7572 O   0  0  0  0  0  0  0  0  0  0  0  0
  -11.0082  -18.3577   13.1055 H   0  0  0  0  0  0  0  0  0  0  0  0
 13 14  1  0
 14 19  1  0
 19 20  2  0
 14 15  1  0
 15 16  2  0
 15 17  1  0
  1 17  1  0
  1  2  1  0
  2  3  1  0
  2  4  1  0
  4  5  1  0
  4  6  1  0
  6 21  1  0
 21 22  1  0
  6  7  1  0
  7  8  1  0
  8  9  1  0
  8  1  1  0
 17 18  1  0
  3 10  1  0
  5 11  1  0
 22 23  1  0
  9 12  1  0
M  END
> <minimizedAffinity>
-6.19509

> <CNNscore>
0.3255568445

> <CNNaffinity>
3.7205276489

> <CNN_VS>
1.2112432718

> <CNNaffinity_variance>
0.5909172893

$$$$



 23 23  0  0  0  0  0  0  0  0999 V2000
   -9.1106  -12.4353    9.4968 C   0  0  0  0  0  0  0  0  0  0  0  0
   -8.7538  -13.5232   10.5105 C   0  0  0  0  0  0  0  0  0  0  0  0
   -8.8618  -13.0244   11.8495 O   0  0  0  0  0  0  0  0  0  0  0  0
   -9.6921  -14.7249   10.3550 C   0  0  0  0  0  0  0  0  0  0  0  0
   -9.2412  -15.7368   11.2763 O   0  0  0  0  0  0  0  0  0  0  0  0
   -9.7112  -15.2160    8.8913 C   0  0  0  0  0  0  0  0  0  0  0  0
  -10.0103  -14.1460    7.9989 O   0  0  0  0  0  0  0  0  0  0  0  0
   -9.0849  -13.0671    8.0896 C   0  0  0  0  0  0  0  0  0  0  0  0
   -9.3829  -12.1280    7.0718 O   0  0  0  0  0  0  0  0  0  0  0  0
   -9.7766  -12.7504   12.0197 H   0  0  0  0  0  0  0  0  0  0  0  0
   -8.3240  -15.9760   11.0703 H   0  0  0  0  0  0  0  0  0  0  0  0
  -10.2855  -11.7945    7.1938 H   0  0  0  0  0  0  0  0  0  0  0  0
   -6.2776   -9.2372   10.0390 C   0  0  0  0  0  0  0  0  0  0  0  0
   -7.6604   -9.1695   10.4929 N   0  0  0  0  0  0  0  0  0  0  0  0
   -8.6012  -10.1799   10.3660 C   0  0  0  0  0  0  0  0  0  0  0  0
   -9.7109  -10.1564   10.9013 O   0  0  0  0  0  0  0  0  0  0  0  0
   -8.2230  -11.2694    9.6068 N   0  0  0  0  0  0  0  0  0  0  0  0
   -7.3571  -11.2652    9.1384 H   0  0  0  0  0  0  0  0  0  0  0  0
   -8.1017   -7.9435   11.2381 N   0  0  0  0  0  0  0  0  0  0  0  0
   -7.8089   -7.9702   12.4310 O   0  0  0  0  0  0  0  0  0  0  0  0
  -10.7753  -16.3053    8.6889 C   0  0  0  0  0  0  0  0  0  0  0  0
  -10.2290  -17.6012    8.8928 O   0  0  0  0  0  0  0  0  0  0  0  0
   -9.5169  -17.7563    8.2527 H   0  0  0  0  0  0  0  0  0  0  0  0
 13 14  1  0
 14 19  1  0
 19 20  2  0
 14 15  1  0
 15 16  2  0
 15 17  1  0
  1 17  1  0
  1  2  1  0
  2  3  1  0
  2  4  1  0
  4  5  1  0
  4  6  1  0
  6 21  1  0
 21 22  1  0
  6  7  1  0
  7  8  1  0
  8  9  1  0
  8  1  1  0
 17 18  1  0
  3 10  1  0
  5 11  1  0
 22 23  1  0
  9 12  1  0
M  END
> <minimizedAffinity>
-5.95565

> <CNNscore>
0.2904284894

> <CNNaffinity>
4.0096325874

> <CNN_VS>
1.1645115614

> <CNNaffinity_variance>
0.0666344389

$$$$
