


 31 31  0  0  0  0  0  0  0  0999 V2000
   37.9280    4.1565    6.7277 C   0  0  0  0  0  0  0  0  0  0  0  0
   37.0099    3.9175    7.7754 C   0  0  0  0  0  0  0  0  0  0  0  0
   35.8800    3.3504    7.3603 N   0  0  0  0  0  0  0  0  0  0  0  0
   36.0181    3.2424    5.9942 O   0  0  0  0  0  0  0  0  0  0  0  0
   37.2282    3.7443    5.5990 C   0  0  0  0  0  0  0  0  0  0  0  0
   37.4581    3.7853    4.1009 C   0  0  0  0  0  0  0  0  0  0  0  0
   37.4503    2.3494    3.5444 C   0  0  0  0  0  0  0  0  0  0  0  0
   38.8276    4.4181    3.7633 C   0  0  0  0  0  0  0  0  0  0  0  0
   36.3815    4.6167    3.3883 C   0  0  0  0  0  0  0  0  0  0  0  0
   39.2751    4.8043    6.8419 C   0  0  0  0  0  0  0  0  0  0  0  0
   39.4375    6.2326    6.2465 C   0  0  0  0  0  0  0  0  0  0  0  0
   40.8651    6.5193    6.0135 N   0  0  0  0  0  0  0  0  0  0  0  0
   41.3579    6.5397    6.9063 H   0  0  0  0  0  0  0  0  0  0  0  0
   40.9592    7.4243    5.5524 H   0  0  0  0  0  0  0  0  0  0  0  0
   38.8314    7.3957    7.0700 C   0  0  0  0  0  0  0  0  0  0  0  0
   39.5511    7.8540    8.3958 C   0  0  0  0  0  0  0  0  0  0  0  0
   40.8591    8.5920    8.1123 C   0  0  0  0  0  0  0  0  0  0  0  0
   39.8752    6.5847    9.2156 C   0  0  0  0  0  0  0  0  0  0  0  0
   38.5045    8.7484    9.1548 C   0  0  0  0  0  0  0  0  0  0  0  0
   36.1216    9.4620    9.8970 C   0  0  0  0  0  0  0  0  0  0  0  0
   37.0445    8.3085    9.4919 C   0  0  0  0  0  0  0  0  0  0  0  0
   37.1367    7.3416   10.7009 C   0  0  0  0  0  0  0  0  0  0  0  0
   36.4027    7.5123    8.3392 C   0  0  0  0  0  0  0  0  0  0  0  0
   37.1915    4.2239    9.0773 O   0  0  0  0  0  0  0  0  0  0  0  0
   37.7829    3.1954    9.8801 C   0  0  0  0  0  0  0  0  0  0  0  0
   36.5545    1.9722   10.3360 P   0  0  0  0  0  0  0  0  0  0  0  0
   36.5668    0.6791    9.5890 O   0  0  0  0  0  0  0  0  0  0  0  0
   35.1202    2.6924   10.3537 O   0  0  0  0  0  0  0  0  0  0  0  0
   36.7743    1.7799   11.9163 O   0  0  0  0  0  0  0  0  0  0  0  0
   34.8412    2.8798    9.4438 H   0  0  0  0  0  0  0  0  0  0  0  0
   37.6262    1.3435   12.0736 H   0  0  0  0  0  0  0  0  0  0  0  0
 20 21  1  0
 21 22  1  0
 21 23  1  0
 21 19  1  0
 19 16  1  0
 16 17  1  0
 16 18  1  0
 16 15  1  0
 15 11  1  0
 11 12  1  0
 11 10  1  0
 10  1  1  0
  1  2  1  0
  2 24  1  0
 24 25  1  0
 25 26  1  0
 26 27  2  0
 26 28  1  0
 26 29  1  0
  2  3  2  0
  3  4  1  0
  4  5  1  0
  5  6  1  0
  6  7  1  0
  6  8  1  0
  6  9  1  0
  5  1  2  0
 12 13  1  0
 12 14  1  0
 28 30  1  0
 29 31  1  0
M  END
> <minimizedAffinity>
-6.00676

> <CNNscore>
0.4693294764

> <CNNaffinity>
6.2602047920

> <CNN_VS>
2.9380986691

> <CNNaffinity_variance>
0.8410260081

$$$$



 31 31  0  0  0  0  0  0  0  0999 V2000
   39.5171    6.2125    8.0439 C   0  0  0  0  0  0  0  0  0  0  0  0
   38.9414    5.2565    8.9113 C   0  0  0  0  0  0  0  0  0  0  0  0
   38.8662    5.6741   10.1725 N   0  0  0  0  0  0  0  0  0  0  0  0
   39.4436    6.9245   10.1674 O   0  0  0  0  0  0  0  0  0  0  0  0
   39.8608    7.2488    8.9051 C   0  0  0  0  0  0  0  0  0  0  0  0
   40.6152    8.5584    8.7853 C   0  0  0  0  0  0  0  0  0  0  0  0
   39.9386    9.6197    9.6725 C   0  0  0  0  0  0  0  0  0  0  0  0
   40.6032    9.0785    7.3295 C   0  0  0  0  0  0  0  0  0  0  0  0
   42.0846    8.4024    9.2034 C   0  0  0  0  0  0  0  0  0  0  0  0
   39.7758    6.0553    6.5757 C   0  0  0  0  0  0  0  0  0  0  0  0
   39.4070    4.6915    5.9239 C   0  0  0  0  0  0  0  0  0  0  0  0
   40.6287    3.8979    5.6961 N   0  0  0  0  0  0  0  0  0  0  0  0
   41.2208    4.3731    5.0149 H   0  0  0  0  0  0  0  0  0  0  0  0
   40.3741    2.9762    5.3410 H   0  0  0  0  0  0  0  0  0  0  0  0
   38.6087    4.7546    4.5983 C   0  0  0  0  0  0  0  0  0  0  0  0
   37.0669    4.4251    4.6143 C   0  0  0  0  0  0  0  0  0  0  0  0
   36.4866    4.3292    3.2036 C   0  0  0  0  0  0  0  0  0  0  0  0
   36.3502    5.5737    5.3593 C   0  0  0  0  0  0  0  0  0  0  0  0
   36.9328    3.0794    5.4160 C   0  0  0  0  0  0  0  0  0  0  0  0
   35.1991    1.8354    6.8941 C   0  0  0  0  0  0  0  0  0  0  0  0
   35.6367    2.2104    5.4748 C   0  0  0  0  0  0  0  0  0  0  0  0
   35.9483    0.8911    4.7216 C   0  0  0  0  0  0  0  0  0  0  0  0
   34.4632    2.8760    4.7301 C   0  0  0  0  0  0  0  0  0  0  0  0
   38.5093    4.0259    8.5639 O   0  0  0  0  0  0  0  0  0  0  0  0
   37.4446    3.4942    9.3613 C   0  0  0  0  0  0  0  0  0  0  0  0
   37.9749    2.0014   10.1998 P   0  0  0  0  0  0  0  0  0  0  0  0
   39.4430    1.7340   10.2573 O   0  0  0  0  0  0  0  0  0  0  0  0
   37.1189    0.7747    9.6176 O   0  0  0  0  0  0  0  0  0  0  0  0
   37.3071    2.1231   11.6565 O   0  0  0  0  0  0  0  0  0  0  0  0
   37.4134    0.5744    8.7154 H   0  0  0  0  0  0  0  0  0  0  0  0
   37.7309    2.8446   12.1472 H   0  0  0  0  0  0  0  0  0  0  0  0
 20 21  1  0
 21 22  1  0
 21 23  1  0
 21 19  1  0
 19 16  1  0
 16 17  1  0
 16 18  1  0
 16 15  1  0
 15 11  1  0
 11 12  1  0
 11 10  1  0
 10  1  1  0
  1  2  1  0
  2 24  1  0
 24 25  1  0
 25 26  1  0
 26 27  2  0
 26 28  1  0
 26 29  1  0
  2  3  2  0
  3  4  1  0
  4  5  1  0
  5  6  1  0
  6  7  1  0
  6  8  1  0
  6  9  1  0
  5  1  2  0
 12 13  1  0
 12 14  1  0
 28 30  1  0
 29 31  1  0
M  END
> <minimizedAffinity>
-6.91847

> <CNNscore>
0.4136520028

> <CNNaffinity>
6.2712359428

> <CNN_VS>
2.5941092968

> <CNNaffinity_variance>
0.3122494221

$$$$



 31 31  0  0  0  0  0  0  0  0999 V2000
   39.4106    6.3395    7.8886 C   0  0  0  0  0  0  0  0  0  0  0  0
   38.9102    5.2778    8.6761 C   0  0  0  0  0  0  0  0  0  0  0  0
   38.9535    5.5306    9.9818 N   0  0  0  0  0  0  0  0  0  0  0  0
   39.5365    6.7743   10.0833 O   0  0  0  0  0  0  0  0  0  0  0  0
   39.8387    7.2591    8.8398 C   0  0  0  0  0  0  0  0  0  0  0  0
   40.5879    8.5770    8.8194 C   0  0  0  0  0  0  0  0  0  0  0  0
   42.0182    8.3587    9.3466 C   0  0  0  0  0  0  0  0  0  0  0  0
   39.9016    9.6236    9.7271 C   0  0  0  0  0  0  0  0  0  0  0  0
   40.6485    9.1687    7.4036 C   0  0  0  0  0  0  0  0  0  0  0  0
   39.5328    6.3721    6.3949 C   0  0  0  0  0  0  0  0  0  0  0  0
   39.5910    5.0077    5.6495 C   0  0  0  0  0  0  0  0  0  0  0  0
   40.9872    4.6854    5.3017 N   0  0  0  0  0  0  0  0  0  0  0  0
   41.3394    5.3735    4.6362 H   0  0  0  0  0  0  0  0  0  0  0  0
   41.0275    3.7561    4.8831 H   0  0  0  0  0  0  0  0  0  0  0  0
   38.7256    4.8833    4.3711 C   0  0  0  0  0  0  0  0  0  0  0  0
   37.2289    4.4050    4.5008 C   0  0  0  0  0  0  0  0  0  0  0  0
   36.4130    5.3171    5.4163 C   0  0  0  0  0  0  0  0  0  0  0  0
   37.2422    2.9859    5.1126 C   0  0  0  0  0  0  0  0  0  0  0  0
   36.6707    4.3670    3.0317 C   0  0  0  0  0  0  0  0  0  0  0  0
   34.3184    3.4191    3.5854 C   0  0  0  0  0  0  0  0  0  0  0  0
   35.1543    4.3119    2.6629 C   0  0  0  0  0  0  0  0  0  0  0  0
   35.0629    3.7167    1.2338 C   0  0  0  0  0  0  0  0  0  0  0  0
   34.5269    5.7177    2.5954 C   0  0  0  0  0  0  0  0  0  0  0  0
   38.4397    4.0994    8.2157 O   0  0  0  0  0  0  0  0  0  0  0  0
   37.4260    3.4806    9.0166 C   0  0  0  0  0  0  0  0  0  0  0  0
   37.9446    1.8429    9.5285 P   0  0  0  0  0  0  0  0  0  0  0  0
   36.9115    0.7646    9.5201 O   0  0  0  0  0  0  0  0  0  0  0  0
   38.7189    1.9826   10.9275 O   0  0  0  0  0  0  0  0  0  0  0  0
   39.1907    1.5183    8.5669 O   0  0  0  0  0  0  0  0  0  0  0  0
   38.0821    2.1847   11.6307 H   0  0  0  0  0  0  0  0  0  0  0  0
   38.8754    1.4032    7.6568 H   0  0  0  0  0  0  0  0  0  0  0  0
 20 21  1  0
 21 22  1  0
 21 23  1  0
 21 19  1  0
 19 16  1  0
 16 17  1  0
 16 18  1  0
 16 15  1  0
 15 11  1  0
 11 12  1  0
 11 10  1  0
 10  1  1  0
  1  2  1  0
  2 24  1  0
 24 25  1  0
 25 26  1  0
 26 27  2  0
 26 28  1  0
 26 29  1  0
  2  3  2  0
  3  4  1  0
  4  5  1  0
  5  6  1  0
  6  7  1  0
  6  8  1  0
  6  9  1  0
  5  1  2  0
 12 13  1  0
 12 14  1  0
 28 30  1  0
 29 31  1  0
M  END
> <minimizedAffinity>
-7.27750

> <CNNscore>
0.3439998329

> <CNNaffinity>
6.1788520813

> <CNN_VS>
2.1255240440

> <CNNaffinity_variance>
0.2066648751

$$$$



 31 31  0  0  0  0  0  0  0  0999 V2000
   34.9082    6.0164    9.5461 C   0  0  0  0  0  0  0  0  0  0  0  0
   34.5174    5.0438   10.4942 C   0  0  0  0  0  0  0  0  0  0  0  0
   33.4426    5.3988   11.1938 N   0  0  0  0  0  0  0  0  0  0  0  0
   33.1238    6.6594   10.7393 O   0  0  0  0  0  0  0  0  0  0  0  0
   34.0078    7.0518    9.7713 C   0  0  0  0  0  0  0  0  0  0  0  0
   33.8319    8.4703    9.2657 C   0  0  0  0  0  0  0  0  0  0  0  0
   33.5956    8.4437    7.7443 C   0  0  0  0  0  0  0  0  0  0  0  0
   35.0951    9.3198    9.5354 C   0  0  0  0  0  0  0  0  0  0  0  0
   32.6526    9.1720    9.9551 C   0  0  0  0  0  0  0  0  0  0  0  0
   36.0854    5.9488    8.6205 C   0  0  0  0  0  0  0  0  0  0  0  0
   37.4891    5.7403    9.2585 C   0  0  0  0  0  0  0  0  0  0  0  0
   37.7115    6.7402   10.3191 N   0  0  0  0  0  0  0  0  0  0  0  0
   37.7364    7.6730    9.9072 H   0  0  0  0  0  0  0  0  0  0  0  0
   38.5989    6.5504   10.7848 H   0  0  0  0  0  0  0  0  0  0  0  0
   38.6979    5.7742    8.2910 C   0  0  0  0  0  0  0  0  0  0  0  0
   38.7175    6.8340    7.1238 C   0  0  0  0  0  0  0  0  0  0  0  0
   37.5918    7.8587    7.2612 C   0  0  0  0  0  0  0  0  0  0  0  0
   38.5222    6.0704    5.7945 C   0  0  0  0  0  0  0  0  0  0  0  0
   40.1441    7.4923    7.1774 C   0  0  0  0  0  0  0  0  0  0  0  0
   39.8377    9.2285    9.0827 C   0  0  0  0  0  0  0  0  0  0  0  0
   40.7530    8.1822    8.4391 C   0  0  0  0  0  0  0  0  0  0  0  0
   42.0379    8.9141    7.9722 C   0  0  0  0  0  0  0  0  0  0  0  0
   41.1922    7.1554    9.5009 C   0  0  0  0  0  0  0  0  0  0  0  0
   35.1357    3.8668   10.7273 O   0  0  0  0  0  0  0  0  0  0  0  0
   34.6563    2.7526    9.9653 C   0  0  0  0  0  0  0  0  0  0  0  0
   35.4837    1.2451   10.4710 P   0  0  0  0  0  0  0  0  0  0  0  0
   36.3271    0.5527    9.4514 O   0  0  0  0  0  0  0  0  0  0  0  0
   34.3950    0.2899   11.1627 O   0  0  0  0  0  0  0  0  0  0  0  0
   36.3168    1.6844   11.7732 O   0  0  0  0  0  0  0  0  0  0  0  0
   33.7988   -0.0649   10.4848 H   0  0  0  0  0  0  0  0  0  0  0  0
   37.0340    2.2828   11.5115 H   0  0  0  0  0  0  0  0  0  0  0  0
 20 21  1  0
 21 22  1  0
 21 23  1  0
 21 19  1  0
 19 16  1  0
 16 17  1  0
 16 18  1  0
 16 15  1  0
 15 11  1  0
 11 12  1  0
 11 10  1  0
 10  1  1  0
  1  2  1  0
  2 24  1  0
 24 25  1  0
 25 26  1  0
 26 27  2  0
 26 28  1  0
 26 29  1  0
  2  3  2  0
  3  4  1  0
  4  5  1  0
  5  6  1  0
  6  7  1  0
  6  8  1  0
  6  9  1  0
  5  1  2  0
 12 13  1  0
 12 14  1  0
 28 30  1  0
 29 31  1  0
M  END
> <minimizedAffinity>
-6.23397

> <CNNscore>
0.2498962879

> <CNNaffinity>
5.8388113976

> <CNN_VS>
1.4590972662

> <CNNaffinity_variance>
0.2541006804

$$$$



 31 31  0  0  0  0  0  0  0  0999 V2000
   38.3075    4.2988    7.1080 C   0  0  0  0  0  0  0  0  0  0  0  0
   38.2282    3.3258    8.1301 C   0  0  0  0  0  0  0  0  0  0  0  0
   38.8114    2.1755    7.8023 N   0  0  0  0  0  0  0  0  0  0  0  0
   39.2580    2.3588    6.5123 O   0  0  0  0  0  0  0  0  0  0  0  0
   38.9406    3.6161    6.0751 C   0  0  0  0  0  0  0  0  0  0  0  0
   39.2807    3.9066    4.6265 C   0  0  0  0  0  0  0  0  0  0  0  0
   40.3781    4.9853    4.5668 C   0  0  0  0  0  0  0  0  0  0  0  0
   38.0486    4.4396    3.8598 C   0  0  0  0  0  0  0  0  0  0  0  0
   39.7629    2.6443    3.8969 C   0  0  0  0  0  0  0  0  0  0  0  0
   37.7327    5.6830    7.1366 C   0  0  0  0  0  0  0  0  0  0  0  0
   38.7259    6.8693    7.3009 C   0  0  0  0  0  0  0  0  0  0  0  0
   39.9843    6.3904    7.9020 N   0  0  0  0  0  0  0  0  0  0  0  0
   39.8031    6.0550    8.8481 H   0  0  0  0  0  0  0  0  0  0  0  0
   40.6578    7.1556    7.9357 H   0  0  0  0  0  0  0  0  0  0  0  0
   38.2210    8.0823    8.1208 C   0  0  0  0  0  0  0  0  0  0  0  0
   37.4784    7.8290    9.4883 C   0  0  0  0  0  0  0  0  0  0  0  0
   37.2817    9.1205   10.2816 C   0  0  0  0  0  0  0  0  0  0  0  0
   38.3544    6.8706   10.3264 C   0  0  0  0  0  0  0  0  0  0  0  0
   36.1175    7.1406    9.1066 C   0  0  0  0  0  0  0  0  0  0  0  0
   35.2868    9.2235    7.7989 C   0  0  0  0  0  0  0  0  0  0  0  0
   34.9225    7.8681    8.4127 C   0  0  0  0  0  0  0  0  0  0  0  0
   33.8583    8.1271    9.5107 C   0  0  0  0  0  0  0  0  0  0  0  0
   34.2493    6.9814    7.3473 C   0  0  0  0  0  0  0  0  0  0  0  0
   37.6244    3.4777    9.3276 O   0  0  0  0  0  0  0  0  0  0  0  0
   36.2202    3.1955    9.3547 C   0  0  0  0  0  0  0  0  0  0  0  0
   35.9006    1.6941   10.2802 P   0  0  0  0  0  0  0  0  0  0  0  0
   34.4724    1.3279   10.5175 O   0  0  0  0  0  0  0  0  0  0  0  0
   36.7851    1.7388   11.6188 O   0  0  0  0  0  0  0  0  0  0  0  0
   36.7057    0.5651    9.4678 O   0  0  0  0  0  0  0  0  0  0  0  0
   36.4145    2.3949   12.2295 H   0  0  0  0  0  0  0  0  0  0  0  0
   36.2800    0.4197    8.6084 H   0  0  0  0  0  0  0  0  0  0  0  0
 20 21  1  0
 21 22  1  0
 21 23  1  0
 21 19  1  0
 19 16  1  0
 16 17  1  0
 16 18  1  0
 16 15  1  0
 15 11  1  0
 11 12  1  0
 11 10  1  0
 10  1  1  0
  1  2  1  0
  2 24  1  0
 24 25  1  0
 25 26  1  0
 26 27  2  0
 26 28  1  0
 26 29  1  0
  2  3  2  0
  3  4  1  0
  4  5  1  0
  5  6  1  0
  6  7  1  0
  6  8  1  0
  6  9  1  0
  5  1  2  0
 12 13  1  0
 12 14  1  0
 28 30  1  0
 29 31  1  0
M  END
> <minimizedAffinity>
-5.96524

> <CNNscore>
0.2257397622

> <CNNaffinity>
5.5687994957

> <CNN_VS>
1.2570995092

> <CNNaffinity_variance>
0.7419857979

$$$$



 31 31  0  0  0  0  0  0  0  0999 V2000
   38.1287    3.6466    7.1844 C   0  0  0  0  0  0  0  0  0  0  0  0
   38.5212    2.4110    7.7475 C   0  0  0  0  0  0  0  0  0  0  0  0
   39.4903    1.8093    7.0624 N   0  0  0  0  0  0  0  0  0  0  0  0
   39.7299    2.6352    5.9865 O   0  0  0  0  0  0  0  0  0  0  0  0
   38.9044    3.7256    6.0330 C   0  0  0  0  0  0  0  0  0  0  0  0
   38.9922    4.6596    4.8419 C   0  0  0  0  0  0  0  0  0  0  0  0
   37.6117    4.7556    4.1664 C   0  0  0  0  0  0  0  0  0  0  0  0
   39.9988    4.1338    3.7930 C   0  0  0  0  0  0  0  0  0  0  0  0
   39.4570    6.0625    5.2592 C   0  0  0  0  0  0  0  0  0  0  0  0
   37.0516    4.5617    7.6840 C   0  0  0  0  0  0  0  0  0  0  0  0
   37.2309    5.1739    9.1031 C   0  0  0  0  0  0  0  0  0  0  0  0
   35.9226    5.5970    9.6357 N   0  0  0  0  0  0  0  0  0  0  0  0
   35.5489    6.3514    9.0598 H   0  0  0  0  0  0  0  0  0  0  0  0
   36.0360    5.9256   10.5946 H   0  0  0  0  0  0  0  0  0  0  0  0
   38.2165    6.3627    9.2214 C   0  0  0  0  0  0  0  0  0  0  0  0
   37.6793    7.8294    9.0072 C   0  0  0  0  0  0  0  0  0  0  0  0
   36.3908    8.0876    9.7875 C   0  0  0  0  0  0  0  0  0  0  0  0
   37.3803    8.0034    7.5010 C   0  0  0  0  0  0  0  0  0  0  0  0
   38.8539    8.7762    9.4493 C   0  0  0  0  0  0  0  0  0  0  0  0
   40.3276    8.8229    7.3128 C   0  0  0  0  0  0  0  0  0  0  0  0
   40.2923    8.7436    8.8422 C   0  0  0  0  0  0  0  0  0  0  0  0
   40.9195    7.3854    9.2509 C   0  0  0  0  0  0  0  0  0  0  0  0
   41.1937    9.8421    9.4385 C   0  0  0  0  0  0  0  0  0  0  0  0
   37.9969    1.8379    8.8513 O   0  0  0  0  0  0  0  0  0  0  0  0
   36.6209    1.4512    8.7556 C   0  0  0  0  0  0  0  0  0  0  0  0
   35.7645    1.7970   10.2918 P   0  0  0  0  0  0  0  0  0  0  0  0
   34.6958    2.8396   10.2595 O   0  0  0  0  0  0  0  0  0  0  0  0
   36.8685    2.0410   11.4310 O   0  0  0  0  0  0  0  0  0  0  0  0
   35.2171    0.3592   10.7566 O   0  0  0  0  0  0  0  0  0  0  0  0
   37.3015    2.8965   11.2837 H   0  0  0  0  0  0  0  0  0  0  0  0
   34.5213    0.0658   10.1477 H   0  0  0  0  0  0  0  0  0  0  0  0
 20 21  1  0
 21 22  1  0
 21 23  1  0
 21 19  1  0
 19 16  1  0
 16 17  1  0
 16 18  1  0
 16 15  1  0
 15 11  1  0
 11 12  1  0
 11 10  1  0
 10  1  1  0
  1  2  1  0
  2 24  1  0
 24 25  1  0
 25 26  1  0
 26 27  2  0
 26 28  1  0
 26 29  1  0
  2  3  2  0
  3  4  1  0
  4  5  1  0
  5  6  1  0
  6  7  1  0
  6  8  1  0
  6  9  1  0
  5  1  2  0
 12 13  1  0
 12 14  1  0
 28 30  1  0
 29 31  1  0
M  END
> <minimizedAffinity>
-6.49412

> <CNNscore>
0.1777996868

> <CNNaffinity>
5.4803385735

> <CNN_VS>
0.9744024873

> <CNNaffinity_variance>
0.0884893537

$$$$



 31 31  0  0  0  0  0  0  0  0999 V2000
   37.1657    5.6035    9.2181 C   0  0  0  0  0  0  0  0  0  0  0  0
   36.3905    5.2445   10.3441 C   0  0  0  0  0  0  0  0  0  0  0  0
   36.4075    6.1650   11.3048 N   0  0  0  0  0  0  0  0  0  0  0  0
   37.2483    7.1506   10.8371 O   0  0  0  0  0  0  0  0  0  0  0  0
   37.7294    6.8158    9.6006 C   0  0  0  0  0  0  0  0  0  0  0  0
   38.7561    7.7694    9.0216 C   0  0  0  0  0  0  0  0  0  0  0  0
   38.7901    9.0565    9.8662 C   0  0  0  0  0  0  0  0  0  0  0  0
   38.3967    8.1629    7.5703 C   0  0  0  0  0  0  0  0  0  0  0  0
   40.1563    7.1393    8.9915 C   0  0  0  0  0  0  0  0  0  0  0  0
   37.3858    4.7878    7.9798 C   0  0  0  0  0  0  0  0  0  0  0  0
   36.3477    4.9338    6.8302 C   0  0  0  0  0  0  0  0  0  0  0  0
   34.9860    5.0102    7.3908 N   0  0  0  0  0  0  0  0  0  0  0  0
   34.7583    4.1294    7.8520 H   0  0  0  0  0  0  0  0  0  0  0  0
   34.3182    5.1832    6.6394 H   0  0  0  0  0  0  0  0  0  0  0  0
   36.3682    3.8347    5.7393 C   0  0  0  0  0  0  0  0  0  0  0  0
   37.1148    4.1167    4.3795 C   0  0  0  0  0  0  0  0  0  0  0  0
   36.1426    4.4702    3.2544 C   0  0  0  0  0  0  0  0  0  0  0  0
   37.8703    2.8279    3.9841 C   0  0  0  0  0  0  0  0  0  0  0  0
   38.1288    5.2774    4.6893 C   0  0  0  0  0  0  0  0  0  0  0  0
   40.2874    4.8533    3.3112 C   0  0  0  0  0  0  0  0  0  0  0  0
   39.6822    5.1170    4.6935 C   0  0  0  0  0  0  0  0  0  0  0  0
   40.0023    3.8872    5.5823 C   0  0  0  0  0  0  0  0  0  0  0  0
   40.3837    6.3250    5.3440 C   0  0  0  0  0  0  0  0  0  0  0  0
   35.6965    4.0972   10.4986 O   0  0  0  0  0  0  0  0  0  0  0  0
   36.4711    2.9473   10.8587 C   0  0  0  0  0  0  0  0  0  0  0  0
   35.6722    1.4488   10.2848 P   0  0  0  0  0  0  0  0  0  0  0  0
   36.4838    0.5206    9.4423 O   0  0  0  0  0  0  0  0  0  0  0  0
   34.2678    1.8575    9.6236 O   0  0  0  0  0  0  0  0  0  0  0  0
   35.1390    0.7585   11.6346 O   0  0  0  0  0  0  0  0  0  0  0  0
   34.4265    2.2992    8.7747 H   0  0  0  0  0  0  0  0  0  0  0  0
   35.8938    0.4493   12.1596 H   0  0  0  0  0  0  0  0  0  0  0  0
 20 21  1  0
 21 22  1  0
 21 23  1  0
 21 19  1  0
 19 16  1  0
 16 17  1  0
 16 18  1  0
 16 15  1  0
 15 11  1  0
 11 12  1  0
 11 10  1  0
 10  1  1  0
  1  2  1  0
  2 24  1  0
 24 25  1  0
 25 26  1  0
 26 27  2  0
 26 28  1  0
 26 29  1  0
  2  3  2  0
  3  4  1  0
  4  5  1  0
  5  6  1  0
  6  7  1  0
  6  8  1  0
  6  9  1  0
  5  1  2  0
 12 13  1  0
 12 14  1  0
 28 30  1  0
 29 31  1  0
M  END
> <minimizedAffinity>
-6.33318

> <CNNscore>
0.1737368703

> <CNNaffinity>
5.5255370140

> <CNN_VS>
0.9599894881

> <CNNaffinity_variance>
0.2940182686

$$$$



 31 31  0  0  0  0  0  0  0  0999 V2000
   34.9561    4.1150    6.6577 C   0  0  0  0  0  0  0  0  0  0  0  0
   34.2051    3.2197    7.4527 C   0  0  0  0  0  0  0  0  0  0  0  0
   32.8938    3.4353    7.3852 N   0  0  0  0  0  0  0  0  0  0  0  0
   32.7560    4.5291    6.5597 O   0  0  0  0  0  0  0  0  0  0  0  0
   33.9835    4.9620    6.1375 C   0  0  0  0  0  0  0  0  0  0  0  0
   33.9765    6.2316    5.3088 C   0  0  0  0  0  0  0  0  0  0  0  0
   34.3184    5.8884    3.8471 C   0  0  0  0  0  0  0  0  0  0  0  0
   35.0328    7.2379    5.8201 C   0  0  0  0  0  0  0  0  0  0  0  0
   32.6115    6.9331    5.3645 C   0  0  0  0  0  0  0  0  0  0  0  0
   36.4485    4.1688    6.5279 C   0  0  0  0  0  0  0  0  0  0  0  0
   37.0455    4.1464    5.0913 C   0  0  0  0  0  0  0  0  0  0  0  0
   37.7703    2.8816    4.8691 N   0  0  0  0  0  0  0  0  0  0  0  0
   38.5726    2.8347    5.4972 H   0  0  0  0  0  0  0  0  0  0  0  0
   38.0925    2.8397    3.9022 H   0  0  0  0  0  0  0  0  0  0  0  0
   37.9820    5.3212    4.7157 C   0  0  0  0  0  0  0  0  0  0  0  0
   39.5359    5.1632    4.9313 C   0  0  0  0  0  0  0  0  0  0  0  0
   40.2678    4.8582    3.6246 C   0  0  0  0  0  0  0  0  0  0  0  0
   39.7563    3.9805    5.9012 C   0  0  0  0  0  0  0  0  0  0  0  0
   40.0083    6.5109    5.5886 C   0  0  0  0  0  0  0  0  0  0  0  0
   39.3650    5.7436    7.9836 C   0  0  0  0  0  0  0  0  0  0  0  0
   39.7280    6.9184    7.0698 C   0  0  0  0  0  0  0  0  0  0  0  0
   38.5122    7.8808    7.0464 C   0  0  0  0  0  0  0  0  0  0  0  0
   40.9020    7.7068    7.6819 C   0  0  0  0  0  0  0  0  0  0  0  0
   34.7048    2.2390    8.2341 O   0  0  0  0  0  0  0  0  0  0  0  0
   34.4015    2.3429    9.6302 C   0  0  0  0  0  0  0  0  0  0  0  0
   35.4720    1.2687   10.5857 P   0  0  0  0  0  0  0  0  0  0  0  0
   36.2797    1.8988   11.6723 O   0  0  0  0  0  0  0  0  0  0  0  0
   36.3435    0.3960    9.5585 O   0  0  0  0  0  0  0  0  0  0  0  0
   34.4809    0.1265   11.1296 O   0  0  0  0  0  0  0  0  0  0  0  0
   37.0079    0.9624    9.1357 H   0  0  0  0  0  0  0  0  0  0  0  0
   33.8724    0.5096   11.7806 H   0  0  0  0  0  0  0  0  0  0  0  0
 20 21  1  0
 21 22  1  0
 21 23  1  0
 21 19  1  0
 19 16  1  0
 16 17  1  0
 16 18  1  0
 16 15  1  0
 15 11  1  0
 11 12  1  0
 11 10  1  0
 10  1  1  0
  1  2  1  0
  2 24  1  0
 24 25  1  0
 25 26  1  0
 26 27  2  0
 26 28  1  0
 26 29  1  0
  2  3  2  0
  3  4  1  0
  4  5  1  0
  5  6  1  0
  6  7  1  0
  6  8  1  0
  6  9  1  0
  5  1  2  0
 12 13  1  0
 12 14  1  0
 28 30  1  0
 29 31  1  0
M  END
> <minimizedAffinity>
-6.21715

> <CNNscore>
0.1604116708

> <CNNaffinity>
4.9584670067

> <CNN_VS>
0.7953959703

> <CNNaffinity_variance>
0.5908462405

$$$$



 31 31  0  0  0  0  0  0  0  0999 V2000
   35.2933    6.0907    9.4055 C   0  0  0  0  0  0  0  0  0  0  0  0
   34.8703    5.1608   10.3823 C   0  0  0  0  0  0  0  0  0  0  0  0
   33.8362    5.5918   11.1003 N   0  0  0  0  0  0  0  0  0  0  0  0
   33.5802    6.8601   10.6282 O   0  0  0  0  0  0  0  0  0  0  0  0
   34.4609    7.1815    9.6314 C   0  0  0  0  0  0  0  0  0  0  0  0
   34.3556    8.5981    9.1015 C   0  0  0  0  0  0  0  0  0  0  0  0
   34.1393    8.5577    7.5774 C   0  0  0  0  0  0  0  0  0  0  0  0
   35.6516    9.3949    9.3764 C   0  0  0  0  0  0  0  0  0  0  0  0
   33.1995    9.3625    9.7628 C   0  0  0  0  0  0  0  0  0  0  0  0
   36.4408    5.9365    8.4534 C   0  0  0  0  0  0  0  0  0  0  0  0
   37.8626    5.7720    9.0635 C   0  0  0  0  0  0  0  0  0  0  0  0
   38.1346    6.8733   10.0056 N   0  0  0  0  0  0  0  0  0  0  0  0
   38.1578    7.7575    9.4975 H   0  0  0  0  0  0  0  0  0  0  0  0
   39.0348    6.7182   10.4592 H   0  0  0  0  0  0  0  0  0  0  0  0
   39.0379    5.6844    8.0587 C   0  0  0  0  0  0  0  0  0  0  0  0
   39.0794    6.6805    6.8373 C   0  0  0  0  0  0  0  0  0  0  0  0
   40.5091    7.0737    6.4667 C   0  0  0  0  0  0  0  0  0  0  0  0
   38.3134    7.9581    7.2486 C   0  0  0  0  0  0  0  0  0  0  0  0
   38.3327    5.9424    5.6671 C   0  0  0  0  0  0  0  0  0  0  0  0
   40.0858    5.1661    3.9171 C   0  0  0  0  0  0  0  0  0  0  0  0
   38.9331    4.7609    4.8411 C   0  0  0  0  0  0  0  0  0  0  0  0
   37.7905    4.2154    3.9456 C   0  0  0  0  0  0  0  0  0  0  0  0
   39.3792    3.5951    5.7446 C   0  0  0  0  0  0  0  0  0  0  0  0
   35.4245    3.9541   10.6242 O   0  0  0  0  0  0  0  0  0  0  0  0
   34.7510    2.8336   10.0387 C   0  0  0  0  0  0  0  0  0  0  0  0
   35.4971    1.2983   10.5855 P   0  0  0  0  0  0  0  0  0  0  0  0
   36.2636    0.5117    9.5735 O   0  0  0  0  0  0  0  0  0  0  0  0
   34.3723    0.4442   11.3481 O   0  0  0  0  0  0  0  0  0  0  0  0
   36.3959    1.7366   11.8437 O   0  0  0  0  0  0  0  0  0  0  0  0
   33.7344    0.1007   10.7031 H   0  0  0  0  0  0  0  0  0  0  0  0
   37.1409    2.2764   11.5364 H   0  0  0  0  0  0  0  0  0  0  0  0
 20 21  1  0
 21 22  1  0
 21 23  1  0
 21 19  1  0
 19 16  1  0
 16 17  1  0
 16 18  1  0
 16 15  1  0
 15 11  1  0
 11 12  1  0
 11 10  1  0
 10  1  1  0
  1  2  1  0
  2 24  1  0
 24 25  1  0
 25 26  1  0
 26 27  2  0
 26 28  1  0
 26 29  1  0
  2  3  2  0
  3  4  1  0
  4  5  1  0
  5  6  1  0
  6  7  1  0
  6  8  1  0
  6  9  1  0
  5  1  2  0
 12 13  1  0
 12 14  1  0
 28 30  1  0
 29 31  1  0
M  END
> <minimizedAffinity>
-6.71025

> <CNNscore>
0.1551386714

> <CNNaffinity>
5.3283686638

> <CNN_VS>
0.8266360164

> <CNNaffinity_variance>
0.1439034790

$$$$
