


 37 41  0  0  0  0  0  0  0  0999 V2000
   24.6767   28.8196   18.0308 C   0  0  0  0  0  0  0  0  0  0  0  0
   23.7088   29.6409   18.5870 C   0  0  0  0  0  0  0  0  0  0  0  0
   23.6384   29.7440   19.9656 C   0  0  0  0  0  0  0  0  0  0  0  0
   24.5035   29.0683   20.7327 N   0  0  0  0  0  0  0  0  0  0  0  0
   25.3910   28.2714   20.1238 C   0  0  0  0  0  0  0  0  0  0  0  0
   25.5075   28.1024   18.7997 N   0  0  0  0  0  0  0  0  0  0  0  0
   22.7166   30.5825   20.5814 N   0  0  0  0  0  0  0  0  0  0  0  0
   22.9508   32.0343   20.6272 C   0  0  0  0  0  0  0  0  0  0  0  0
   21.6819   32.8443   20.2662 C   0  0  0  0  0  0  0  0  0  0  0  0
   20.4566   32.5027   21.0055 N   0  0  0  0  0  0  0  0  0  0  0  0
   20.2101   33.3965   22.1300 C   0  0  0  0  0  0  0  0  0  0  0  0
   20.4540   31.0862   21.4382 C   0  0  0  0  0  0  0  0  0  0  0  0
   21.3044   30.1573   20.5420 C   0  0  0  0  0  0  0  0  0  0  0  0
   24.7211   28.6938   16.6199 N   0  0  0  0  0  0  0  0  0  0  0  0
   23.9163   28.9628   16.1207 H   0  0  0  0  0  0  0  0  0  0  0  0
   29.1186   27.1029   14.9062 C   0  0  0  0  0  0  0  0  0  0  0  0
   27.7080   27.5317   15.0705 C   0  0  0  0  0  0  0  0  0  0  0  0
   27.0539   27.9099   16.2694 C   0  0  0  0  0  0  0  0  0  0  0  0
   25.7729   28.2362   15.8952 C   0  0  0  0  0  0  0  0  0  0  0  0
   25.7269   28.0269   14.5414 N   0  0  0  0  0  0  0  0  0  0  0  0
   26.8894   27.5968   14.0150 N   0  0  0  0  0  0  0  0  0  0  0  0
   24.9169   28.1774   14.0024 H   0  0  0  0  0  0  0  0  0  0  0  0
   26.5372   27.3870   21.1531 S   0  0  0  0  0  0  0  0  0  0  0  0
   27.3926   26.4680   19.8898 C   0  0  0  0  0  0  0  0  0  0  0  0
   28.5787   26.9626   19.3469 C   0  0  0  0  0  0  0  0  0  0  0  0
   29.2594   26.2488   18.3531 C   0  0  0  0  0  0  0  0  0  0  0  0
   28.7623   25.0302   17.8872 C   0  0  0  0  0  0  0  0  0  0  0  0
   27.5644   24.5412   18.4394 C   0  0  0  0  0  0  0  0  0  0  0  0
   26.8852   23.0429   17.8966 Cl  0  0  0  0  0  0  0  0  0  0  0  0
   26.8886   25.2467   19.4377 C   0  0  0  0  0  0  0  0  0  0  0  0
   29.4017   24.2652   16.8852 N   0  0  0  0  0  0  0  0  0  0  0  0
   30.6720   23.7421   16.9007 C   0  0  0  0  0  0  0  0  0  0  0  0
   31.5074   23.8153   17.7898 O   0  0  0  0  0  0  0  0  0  0  0  0
   28.8709   24.0847   16.0759 H   0  0  0  0  0  0  0  0  0  0  0  0
   30.9841   22.9706   15.6659 C   0  0  0  0  0  0  0  0  0  0  0  0
   32.1016   23.4207   14.7528 C   0  0  0  0  0  0  0  0  0  0  0  0
   30.6775   23.5469   14.2996 C   0  0  0  0  0  0  0  0  0  0  0  0
 16 17  1  0
 17 18  1  0
 18 19  2  0
 19 14  1  0
 14  1  1  0
  1  2  2  0
  2  3  1  0
  3  7  1  0
  7  8  1  0
  8  9  1  0
  9 10  1  0
 10 11  1  0
 10 12  1  0
 12 13  1  0
  3  4  2  0
  4  5  1  0
  5 23  1  0
 23 24  1  0
 24 25  2  0
 25 26  1  0
 26 27  2  0
 27 31  1  0
 31 32  1  0
 32 33  2  0
 32 35  1  0
 35 36  1  0
 36 37  1  0
 27 28  1  0
 28 29  1  0
 28 30  2  0
  5  6  2  0
 19 20  1  0
 20 21  1  0
 21 17  2  0
  6  1  1  0
 13  7  1  0
 30 24  1  0
 37 35  1  0
 14 15  1  0
 31 34  1  0
 20 22  1  0
M  END
> <minimizedAffinity>
-10.01806

> <CNNscore>
0.9895560145

> <CNNaffinity>
8.7828722000

> <CNN_VS>
8.6911439896

> <CNNaffinity_variance>
0.0701172650

$$$$



 37 41  0  0  0  0  0  0  0  0999 V2000
   24.4618   29.1372   19.0448 C   0  0  0  0  0  0  0  0  0  0  0  0
   23.2719   29.4794   19.6675 C   0  0  0  0  0  0  0  0  0  0  0  0
   23.0212   28.9861   20.9363 C   0  0  0  0  0  0  0  0  0  0  0  0
   23.9254   28.2061   21.5424 N   0  0  0  0  0  0  0  0  0  0  0  0
   25.0381   27.8944   20.8655 C   0  0  0  0  0  0  0  0  0  0  0  0
   25.3425   28.3137   19.6298 N   0  0  0  0  0  0  0  0  0  0  0  0
   21.8649   29.3266   21.6285 N   0  0  0  0  0  0  0  0  0  0  0  0
   20.8716   30.2226   21.0160 C   0  0  0  0  0  0  0  0  0  0  0  0
   19.4238   29.7066   21.2013 C   0  0  0  0  0  0  0  0  0  0  0  0
   19.0229   29.3652   22.5751 N   0  0  0  0  0  0  0  0  0  0  0  0
   18.2880   30.4398   23.2304 C   0  0  0  0  0  0  0  0  0  0  0  0
   20.1797   28.9329   23.3927 C   0  0  0  0  0  0  0  0  0  0  0  0
   21.3342   28.3200   22.5676 C   0  0  0  0  0  0  0  0  0  0  0  0
   24.6964   29.6194   17.7330 N   0  0  0  0  0  0  0  0  0  0  0  0
   24.3766   30.5270   17.5255 H   0  0  0  0  0  0  0  0  0  0  0  0
   27.8684   27.2343   14.7237 C   0  0  0  0  0  0  0  0  0  0  0  0
   26.6896   27.8821   15.3493 C   0  0  0  0  0  0  0  0  0  0  0  0
   26.6072   28.4670   16.6375 C   0  0  0  0  0  0  0  0  0  0  0  0
   25.3222   28.9427   16.7373 C   0  0  0  0  0  0  0  0  0  0  0  0
   24.7211   28.6133   15.5504 N   0  0  0  0  0  0  0  0  0  0  0  0
   25.5295   27.9665   14.6893 N   0  0  0  0  0  0  0  0  0  0  0  0
   23.7828   28.8301   15.3458 H   0  0  0  0  0  0  0  0  0  0  0  0
   26.2323   26.8654   21.6842 S   0  0  0  0  0  0  0  0  0  0  0  0
   27.2215   26.4122   20.2742 C   0  0  0  0  0  0  0  0  0  0  0  0
   28.2512   27.2493   19.8440 C   0  0  0  0  0  0  0  0  0  0  0  0
   29.0350   26.9033   18.7365 C   0  0  0  0  0  0  0  0  0  0  0  0
   28.7988   25.7151   18.0426 C   0  0  0  0  0  0  0  0  0  0  0  0
   27.7566   24.8789   18.4829 C   0  0  0  0  0  0  0  0  0  0  0  0
   27.4009   23.3973   17.6588 Cl  0  0  0  0  0  0  0  0  0  0  0  0
   26.9796   25.2173   19.5933 C   0  0  0  0  0  0  0  0  0  0  0  0
   29.5530   25.3124   16.9170 N   0  0  0  0  0  0  0  0  0  0  0  0
   30.7457   24.6306   16.8968 C   0  0  0  0  0  0  0  0  0  0  0  0
   31.3942   24.2163   17.8463 O   0  0  0  0  0  0  0  0  0  0  0  0
   29.1772   25.5499   16.0386 H   0  0  0  0  0  0  0  0  0  0  0  0
   31.2252   24.3653   15.5122 C   0  0  0  0  0  0  0  0  0  0  0  0
   30.2414   23.9867   14.4287 C   0  0  0  0  0  0  0  0  0  0  0  0
   31.2055   22.9610   14.9462 C   0  0  0  0  0  0  0  0  0  0  0  0
 16 17  1  0
 17 18  1  0
 18 19  2  0
 19 14  1  0
 14  1  1  0
  1  2  2  0
  2  3  1  0
  3  7  1  0
  7  8  1  0
  8  9  1  0
  9 10  1  0
 10 11  1  0
 10 12  1  0
 12 13  1  0
  3  4  2  0
  4  5  1  0
  5 23  1  0
 23 24  1  0
 24 25  2  0
 25 26  1  0
 26 27  2  0
 27 31  1  0
 31 32  1  0
 32 33  2  0
 32 35  1  0
 35 36  1  0
 36 37  1  0
 27 28  1  0
 28 29  1  0
 28 30  2  0
  5  6  2  0
 19 20  1  0
 20 21  1  0
 21 17  2  0
  6  1  1  0
 13  7  1  0
 30 24  1  0
 37 35  1  0
 14 15  1  0
 31 34  1  0
 20 22  1  0
M  END
> <minimizedAffinity>
-9.83119

> <CNNscore>
0.9569591880

> <CNNaffinity>
8.7218770981

> <CNN_VS>
8.3464803696

> <CNNaffinity_variance>
0.0082368813

$$$$



 37 41  0  0  0  0  0  0  0  0999 V2000
   24.9881   28.6571   18.2878 C   0  0  0  0  0  0  0  0  0  0  0  0
   23.9591   29.2942   18.9631 C   0  0  0  0  0  0  0  0  0  0  0  0
   23.6836   28.9130   20.2650 C   0  0  0  0  0  0  0  0  0  0  0  0
   24.4138   27.9555   20.8512 N   0  0  0  0  0  0  0  0  0  0  0  0
   25.3715   27.3649   20.1250 C   0  0  0  0  0  0  0  0  0  0  0  0
   25.6836   27.6625   18.8563 N   0  0  0  0  0  0  0  0  0  0  0  0
   22.6915   29.5423   21.0077 N   0  0  0  0  0  0  0  0  0  0  0  0
   21.5223   30.1293   20.3347 C   0  0  0  0  0  0  0  0  0  0  0  0
   20.1958   29.7773   21.0512 C   0  0  0  0  0  0  0  0  0  0  0  0
   20.1416   30.0498   22.4960 N   0  0  0  0  0  0  0  0  0  0  0  0
   19.4963   31.3195   22.8055 C   0  0  0  0  0  0  0  0  0  0  0  0
   21.4818   29.9652   23.1207 C   0  0  0  0  0  0  0  0  0  0  0  0
   22.4623   29.0329   22.3733 C   0  0  0  0  0  0  0  0  0  0  0  0
   25.2424   29.0303   16.9446 N   0  0  0  0  0  0  0  0  0  0  0  0
   24.7554   29.8121   16.5970 H   0  0  0  0  0  0  0  0  0  0  0  0
   29.0229   26.6869   14.7034 C   0  0  0  0  0  0  0  0  0  0  0  0
   27.7517   27.3745   15.0381 C   0  0  0  0  0  0  0  0  0  0  0  0
   27.3212   27.8231   16.3115 C   0  0  0  0  0  0  0  0  0  0  0  0
   26.0967   28.4071   16.0944 C   0  0  0  0  0  0  0  0  0  0  0  0
   25.8616   28.2665   14.7514 N   0  0  0  0  0  0  0  0  0  0  0  0
   26.8510   27.6407   14.0859 N   0  0  0  0  0  0  0  0  0  0  0  0
   25.0431   28.5934   14.3128 H   0  0  0  0  0  0  0  0  0  0  0  0
   26.3373   26.1021   20.9174 S   0  0  0  0  0  0  0  0  0  0  0  0
   25.6189   26.1836   22.5451 C   0  0  0  0  0  0  0  0  0  0  0  0
   25.7485   27.3432   23.3097 C   0  0  0  0  0  0  0  0  0  0  0  0
   25.1881   27.4183   24.5906 C   0  0  0  0  0  0  0  0  0  0  0  0
   24.4910   26.3334   25.1257 C   0  0  0  0  0  0  0  0  0  0  0  0
   24.3679   25.1678   24.3476 C   0  0  0  0  0  0  0  0  0  0  0  0
   23.5280   23.7805   24.9566 Cl  0  0  0  0  0  0  0  0  0  0  0  0
   24.9178   25.0940   23.0656 C   0  0  0  0  0  0  0  0  0  0  0  0
   23.9058   26.3472   26.4122 N   0  0  0  0  0  0  0  0  0  0  0  0
   24.4043   25.8113   27.5750 C   0  0  0  0  0  0  0  0  0  0  0  0
   25.4640   25.2259   27.7425 O   0  0  0  0  0  0  0  0  0  0  0  0
   23.0327   26.7965   26.4841 H   0  0  0  0  0  0  0  0  0  0  0  0
   23.5068   26.0466   28.7397 C   0  0  0  0  0  0  0  0  0  0  0  0
   22.6964   27.3197   28.8274 C   0  0  0  0  0  0  0  0  0  0  0  0
   23.8430   27.1042   29.7698 C   0  0  0  0  0  0  0  0  0  0  0  0
 16 17  1  0
 17 18  1  0
 18 19  2  0
 19 14  1  0
 14  1  1  0
  1  2  2  0
  2  3  1  0
  3  7  1  0
  7  8  1  0
  8  9  1  0
  9 10  1  0
 10 11  1  0
 10 12  1  0
 12 13  1  0
  3  4  2  0
  4  5  1  0
  5 23  1  0
 23 24  1  0
 24 25  2  0
 25 26  1  0
 26 27  2  0
 27 31  1  0
 31 32  1  0
 32 33  2  0
 32 35  1  0
 35 36  1  0
 36 37  1  0
 27 28  1  0
 28 29  1  0
 28 30  2  0
  5  6  2  0
 19 20  1  0
 20 21  1  0
 21 17  2  0
  6  1  1  0
 13  7  1  0
 30 24  1  0
 37 35  1  0
 14 15  1  0
 31 34  1  0
 20 22  1  0
M  END
> <minimizedAffinity>
-7.97463

> <CNNscore>
0.6453599334

> <CNNaffinity>
7.4781208038

> <CNN_VS>
4.8260793686

> <CNNaffinity_variance>
0.0028656854

$$$$



 37 41  0  0  0  0  0  0  0  0999 V2000
   25.0525   27.4767   19.8875 C   0  0  0  0  0  0  0  0  0  0  0  0
   24.2518   28.3574   20.5974 C   0  0  0  0  0  0  0  0  0  0  0  0
   23.7222   29.4526   19.9370 C   0  0  0  0  0  0  0  0  0  0  0  0
   23.9766   29.6369   18.6352 N   0  0  0  0  0  0  0  0  0  0  0  0
   24.7836   28.7601   18.0241 C   0  0  0  0  0  0  0  0  0  0  0  0
   25.3502   27.6902   18.5984 N   0  0  0  0  0  0  0  0  0  0  0  0
   22.8793   30.3485   20.5841 N   0  0  0  0  0  0  0  0  0  0  0  0
   23.2833   31.7525   20.7577 C   0  0  0  0  0  0  0  0  0  0  0  0
   22.1392   32.7381   20.4165 C   0  0  0  0  0  0  0  0  0  0  0  0
   20.8481   32.4943   21.0783 N   0  0  0  0  0  0  0  0  0  0  0  0
   20.6572   33.3227   22.2622 C   0  0  0  0  0  0  0  0  0  0  0  0
   20.6552   31.0600   21.3929 C   0  0  0  0  0  0  0  0  0  0  0  0
   21.4297   30.1048   20.4565 C   0  0  0  0  0  0  0  0  0  0  0  0
   25.6175   26.3761   20.5786 N   0  0  0  0  0  0  0  0  0  0  0  0
   26.0027   25.6537   20.0318 H   0  0  0  0  0  0  0  0  0  0  0  0
   25.0495   25.0890   25.3564 C   0  0  0  0  0  0  0  0  0  0  0  0
   25.4598   25.7063   24.0714 C   0  0  0  0  0  0  0  0  0  0  0  0
   25.0264   25.3579   22.7680 C   0  0  0  0  0  0  0  0  0  0  0  0
   25.6755   26.2283   21.9261 C   0  0  0  0  0  0  0  0  0  0  0  0
   26.4482   27.0127   22.7423 N   0  0  0  0  0  0  0  0  0  0  0  0
   26.3372   26.7155   24.0510 N   0  0  0  0  0  0  0  0  0  0  0  0
   27.0318   27.7290   22.4023 H   0  0  0  0  0  0  0  0  0  0  0  0
   25.1062   29.0124   16.2957 S   0  0  0  0  0  0  0  0  0  0  0  0
   26.5768   28.0198   16.1400 C   0  0  0  0  0  0  0  0  0  0  0  0
   27.0147   27.6111   14.8801 C   0  0  0  0  0  0  0  0  0  0  0  0
   28.1692   26.8303   14.7459 C   0  0  0  0  0  0  0  0  0  0  0  0
   28.9016   26.4460   15.8706 C   0  0  0  0  0  0  0  0  0  0  0  0
   28.4503   26.8614   17.1368 C   0  0  0  0  0  0  0  0  0  0  0  0
   29.3039   26.4078   18.5743 Cl  0  0  0  0  0  0  0  0  0  0  0  0
   27.3043   27.6483   17.2725 C   0  0  0  0  0  0  0  0  0  0  0  0
   30.0723   25.6571   15.8003 N   0  0  0  0  0  0  0  0  0  0  0  0
   30.1855   24.3421   15.4187 C   0  0  0  0  0  0  0  0  0  0  0  0
   29.3009   23.5859   15.0454 O   0  0  0  0  0  0  0  0  0  0  0  0
   30.9105   26.1055   16.0564 H   0  0  0  0  0  0  0  0  0  0  0  0
   31.5941   23.8602   15.4511 C   0  0  0  0  0  0  0  0  0  0  0  0
   32.2960   23.4825   14.1667 C   0  0  0  0  0  0  0  0  0  0  0  0
   31.9201   22.4128   15.1484 C   0  0  0  0  0  0  0  0  0  0  0  0
 16 17  1  0
 17 18  1  0
 18 19  2  0
 19 14  1  0
 14  1  1  0
  1  2  2  0
  2  3  1  0
  3  7  1  0
  7  8  1  0
  8  9  1  0
  9 10  1  0
 10 11  1  0
 10 12  1  0
 12 13  1  0
  3  4  2  0
  4  5  1  0
  5 23  1  0
 23 24  1  0
 24 25  2  0
 25 26  1  0
 26 27  2  0
 27 31  1  0
 31 32  1  0
 32 33  2  0
 32 35  1  0
 35 36  1  0
 36 37  1  0
 27 28  1  0
 28 29  1  0
 28 30  2  0
  5  6  2  0
 19 20  1  0
 20 21  1  0
 21 17  2  0
  6  1  1  0
 13  7  1  0
 30 24  1  0
 37 35  1  0
 14 15  1  0
 31 34  1  0
 20 22  1  0
M  END
> <minimizedAffinity>
-9.13708

> <CNNscore>
0.2694247961

> <CNNaffinity>
7.6969242096

> <CNN_VS>
2.0737421513

> <CNNaffinity_variance>
0.0411213711

$$$$



 37 41  0  0  0  0  0  0  0  0999 V2000
   26.0632   23.3763   27.8242 C   0  0  0  0  0  0  0  0  0  0  0  0
   25.3546   24.3742   28.4746 C   0  0  0  0  0  0  0  0  0  0  0  0
   24.5166   25.1862   27.7299 C   0  0  0  0  0  0  0  0  0  0  0  0
   24.3935   24.9909   26.4108 N   0  0  0  0  0  0  0  0  0  0  0  0
   25.1332   24.0265   25.8484 C   0  0  0  0  0  0  0  0  0  0  0  0
   25.9804   23.2154   26.4964 N   0  0  0  0  0  0  0  0  0  0  0  0
   23.7492   26.1771   28.3308 N   0  0  0  0  0  0  0  0  0  0  0  0
   23.4442   27.4200   27.6050 C   0  0  0  0  0  0  0  0  0  0  0  0
   21.9568   27.8276   27.7401 C   0  0  0  0  0  0  0  0  0  0  0  0
   21.4188   27.8917   29.1080 N   0  0  0  0  0  0  0  0  0  0  0  0
   21.4147   29.2453   29.6483 C   0  0  0  0  0  0  0  0  0  0  0  0
   22.1191   26.9554   30.0172 C   0  0  0  0  0  0  0  0  0  0  0  0
   22.7321   25.7302   29.3017 C   0  0  0  0  0  0  0  0  0  0  0  0
   26.9437   22.5706   28.5882 N   0  0  0  0  0  0  0  0  0  0  0  0
   27.3730   22.9912   29.3680 H   0  0  0  0  0  0  0  0  0  0  0  0
   27.3714   17.6091   28.5070 C   0  0  0  0  0  0  0  0  0  0  0  0
   27.4899   19.0678   28.2644 C   0  0  0  0  0  0  0  0  0  0  0  0
   26.7647   20.1101   28.8935 C   0  0  0  0  0  0  0  0  0  0  0  0
   27.2484   21.2716   28.3419 C   0  0  0  0  0  0  0  0  0  0  0  0
   28.1930   20.8740   27.4317 N   0  0  0  0  0  0  0  0  0  0  0  0
   28.3584   19.5393   27.3634 N   0  0  0  0  0  0  0  0  0  0  0  0
   28.7045   21.5072   26.8779 H   0  0  0  0  0  0  0  0  0  0  0  0
   24.9541   23.7734   24.0993 S   0  0  0  0  0  0  0  0  0  0  0  0
   24.4536   25.4172   23.6307 C   0  0  0  0  0  0  0  0  0  0  0  0
   25.4101   26.4190   23.4645 C   0  0  0  0  0  0  0  0  0  0  0  0
   25.0280   27.7149   23.0967 C   0  0  0  0  0  0  0  0  0  0  0  0
   23.6829   28.0274   22.8911 C   0  0  0  0  0  0  0  0  0  0  0  0
   22.7259   27.0106   23.0635 C   0  0  0  0  0  0  0  0  0  0  0  0
   21.0391   27.3341   22.8381 Cl  0  0  0  0  0  0  0  0  0  0  0  0
   23.1055   25.7148   23.4210 C   0  0  0  0  0  0  0  0  0  0  0  0
   23.2348   29.3160   22.5217 N   0  0  0  0  0  0  0  0  0  0  0  0
   23.1618   29.8581   21.2613 C   0  0  0  0  0  0  0  0  0  0  0  0
   23.4535   29.3339   20.1964 O   0  0  0  0  0  0  0  0  0  0  0  0
   22.9382   29.8973   23.2589 H   0  0  0  0  0  0  0  0  0  0  0  0
   22.6135   31.2425   21.2690 C   0  0  0  0  0  0  0  0  0  0  0  0
   22.7030   32.1003   20.0275 C   0  0  0  0  0  0  0  0  0  0  0  0
   23.5410   32.4385   21.2245 C   0  0  0  0  0  0  0  0  0  0  0  0
 16 17  1  0
 17 18  1  0
 18 19  2  0
 19 14  1  0
 14  1  1  0
  1  2  2  0
  2  3  1  0
  3  7  1  0
  7  8  1  0
  8  9  1  0
  9 10  1  0
 10 11  1  0
 10 12  1  0
 12 13  1  0
  3  4  2  0
  4  5  1  0
  5 23  1  0
 23 24  1  0
 24 25  2  0
 25 26  1  0
 26 27  2  0
 27 31  1  0
 31 32  1  0
 32 33  2  0
 32 35  1  0
 35 36  1  0
 36 37  1  0
 27 28  1  0
 28 29  1  0
 28 30  2  0
  5  6  2  0
 19 20  1  0
 20 21  1  0
 21 17  2  0
  6  1  1  0
 13  7  1  0
 30 24  1  0
 37 35  1  0
 14 15  1  0
 31 34  1  0
 20 22  1  0
M  END
> <minimizedAffinity>
-6.66217

> <CNNscore>
0.1035024822

> <CNNaffinity>
5.2674069405

> <CNN_VS>
0.5451896787

> <CNNaffinity_variance>
0.9078114629

$$$$



 37 41  0  0  0  0  0  0  0  0999 V2000
   26.3830   27.8393   17.9276 C   0  0  0  0  0  0  0  0  0  0  0  0
   25.4711   28.8086   18.3144 C   0  0  0  0  0  0  0  0  0  0  0  0
   24.7933   28.6428   19.5098 C   0  0  0  0  0  0  0  0  0  0  0  0
   25.0342   27.5689   20.2728 N   0  0  0  0  0  0  0  0  0  0  0  0
   25.9067   26.6603   19.8183 C   0  0  0  0  0  0  0  0  0  0  0  0
   26.5847   26.7387   18.6652 N   0  0  0  0  0  0  0  0  0  0  0  0
   23.8971   29.5999   19.9712 N   0  0  0  0  0  0  0  0  0  0  0  0
   23.2313   30.5085   19.0247 C   0  0  0  0  0  0  0  0  0  0  0  0
   21.7173   30.6504   19.3151 C   0  0  0  0  0  0  0  0  0  0  0  0
   21.3466   30.9938   20.6969 N   0  0  0  0  0  0  0  0  0  0  0  0
   21.0978   32.4187   20.8753 C   0  0  0  0  0  0  0  0  0  0  0  0
   22.3461   30.4996   21.6718 C   0  0  0  0  0  0  0  0  0  0  0  0
   23.1330   29.2607   21.1869 C   0  0  0  0  0  0  0  0  0  0  0  0
   27.0485   28.0000   16.6868 N   0  0  0  0  0  0  0  0  0  0  0  0
   26.7955   28.7787   16.1403 H   0  0  0  0  0  0  0  0  0  0  0  0
   31.0397   25.1546   15.8034 C   0  0  0  0  0  0  0  0  0  0  0  0
   29.7625   25.9054   15.7277 C   0  0  0  0  0  0  0  0  0  0  0  0
   29.1476   26.6699   16.7503 C   0  0  0  0  0  0  0  0  0  0  0  0
   28.0031   27.1771   16.1842 C   0  0  0  0  0  0  0  0  0  0  0  0
   27.9875   26.6918   14.9025 N   0  0  0  0  0  0  0  0  0  0  0  0
   29.0446   25.9146   14.5994 N   0  0  0  0  0  0  0  0  0  0  0  0
   27.2682   26.8933   14.2612 H   0  0  0  0  0  0  0  0  0  0  0  0
   26.2223   25.2449   20.8440 S   0  0  0  0  0  0  0  0  0  0  0  0
   25.6527   25.8972   22.4003 C   0  0  0  0  0  0  0  0  0  0  0  0
   25.7822   27.2582   22.6778 C   0  0  0  0  0  0  0  0  0  0  0  0
   25.3383   27.7819   23.8981 C   0  0  0  0  0  0  0  0  0  0  0  0
   24.7594   26.9510   24.8591 C   0  0  0  0  0  0  0  0  0  0  0  0
   24.6353   25.5796   24.5706 C   0  0  0  0  0  0  0  0  0  0  0  0
   23.9394   24.4908   25.7243 Cl  0  0  0  0  0  0  0  0  0  0  0  0
   25.0687   25.0565   23.3501 C   0  0  0  0  0  0  0  0  0  0  0  0
   24.2948   27.4191   26.1093 N   0  0  0  0  0  0  0  0  0  0  0  0
   24.8844   28.3406   26.9406 C   0  0  0  0  0  0  0  0  0  0  0  0
   25.9239   28.9590   26.7652 O   0  0  0  0  0  0  0  0  0  0  0  0
   23.4433   27.0376   26.4233 H   0  0  0  0  0  0  0  0  0  0  0  0
   24.0804   28.5950   28.1679 C   0  0  0  0  0  0  0  0  0  0  0  0
   24.7215   29.2442   29.3732 C   0  0  0  0  0  0  0  0  0  0  0  0
   24.3293   27.7977   29.4308 C   0  0  0  0  0  0  0  0  0  0  0  0
 16 17  1  0
 17 18  1  0
 18 19  2  0
 19 14  1  0
 14  1  1  0
  1  2  2  0
  2  3  1  0
  3  7  1  0
  7  8  1  0
  8  9  1  0
  9 10  1  0
 10 11  1  0
 10 12  1  0
 12 13  1  0
  3  4  2  0
  4  5  1  0
  5 23  1  0
 23 24  1  0
 24 25  2  0
 25 26  1  0
 26 27  2  0
 27 31  1  0
 31 32  1  0
 32 33  2  0
 32 35  1  0
 35 36  1  0
 36 37  1  0
 27 28  1  0
 28 29  1  0
 28 30  2  0
  5  6  2  0
 19 20  1  0
 20 21  1  0
 21 17  2  0
  6  1  1  0
 13  7  1  0
 30 24  1  0
 37 35  1  0
 14 15  1  0
 31 34  1  0
 20 22  1  0
M  END
> <minimizedAffinity>
-7.41454

> <CNNscore>
0.0818741396

> <CNNaffinity>
6.7778563499

> <CNN_VS>
0.5549311638

> <CNNaffinity_variance>
0.1176299453

$$$$



 37 41  0  0  0  0  0  0  0  0999 V2000
   27.0533   27.4293   19.7439 C   0  0  0  0  0  0  0  0  0  0  0  0
   26.7601   27.0752   21.0514 C   0  0  0  0  0  0  0  0  0  0  0  0
   25.5539   27.4826   21.5946 C   0  0  0  0  0  0  0  0  0  0  0  0
   24.6923   28.1928   20.8553 N   0  0  0  0  0  0  0  0  0  0  0  0
   25.0587   28.5226   19.6102 C   0  0  0  0  0  0  0  0  0  0  0  0
   26.2144   28.1850   19.0220 N   0  0  0  0  0  0  0  0  0  0  0  0
   25.1853   27.1243   22.8860 N   0  0  0  0  0  0  0  0  0  0  0  0
   24.1985   27.9278   23.6246 C   0  0  0  0  0  0  0  0  0  0  0  0
   23.1435   27.0485   24.3390 C   0  0  0  0  0  0  0  0  0  0  0  0
   23.6630   25.9692   25.1932 N   0  0  0  0  0  0  0  0  0  0  0  0
   23.7103   26.3397   26.6020 C   0  0  0  0  0  0  0  0  0  0  0  0
   24.9814   25.4845   24.7235 C   0  0  0  0  0  0  0  0  0  0  0  0
   25.2181   25.6852   23.2093 C   0  0  0  0  0  0  0  0  0  0  0  0
   28.3041   27.0364   19.2059 N   0  0  0  0  0  0  0  0  0  0  0  0
   29.0368   26.8790   19.8444 H   0  0  0  0  0  0  0  0  0  0  0  0
   28.4938   27.0705   14.2291 C   0  0  0  0  0  0  0  0  0  0  0  0
   28.7095   26.8224   15.6756 C   0  0  0  0  0  0  0  0  0  0  0  0
   28.0447   27.4363   16.7662 C   0  0  0  0  0  0  0  0  0  0  0  0
   28.5828   26.8577   17.8901 C   0  0  0  0  0  0  0  0  0  0  0  0
   29.5200   25.9711   17.4274 N   0  0  0  0  0  0  0  0  0  0  0  0
   29.6186   25.9310   16.0849 N   0  0  0  0  0  0  0  0  0  0  0  0
   30.0715   25.4137   18.0228 H   0  0  0  0  0  0  0  0  0  0  0  0
   23.9031   29.4581   18.6382 S   0  0  0  0  0  0  0  0  0  0  0  0
   22.9797   30.2167   19.9588 C   0  0  0  0  0  0  0  0  0  0  0  0
   23.4687   31.3631   20.5856 C   0  0  0  0  0  0  0  0  0  0  0  0
   22.7514   31.9676   21.6251 C   0  0  0  0  0  0  0  0  0  0  0  0
   21.5349   31.4330   22.0534 C   0  0  0  0  0  0  0  0  0  0  0  0
   21.0515   30.2754   21.4164 C   0  0  0  0  0  0  0  0  0  0  0  0
   19.5561   29.5524   21.9080 Cl  0  0  0  0  0  0  0  0  0  0  0  0
   21.7606   29.6761   20.3727 C   0  0  0  0  0  0  0  0  0  0  0  0
   20.7666   31.9954   23.0980 N   0  0  0  0  0  0  0  0  0  0  0  0
   19.8963   33.0565   23.0323 C   0  0  0  0  0  0  0  0  0  0  0  0
   19.5930   33.7242   22.0546 O   0  0  0  0  0  0  0  0  0  0  0  0
   20.8675   31.5746   23.9824 H   0  0  0  0  0  0  0  0  0  0  0  0
   19.2513   33.3446   24.3431 C   0  0  0  0  0  0  0  0  0  0  0  0
   19.1774   32.2703   25.4041 C   0  0  0  0  0  0  0  0  0  0  0  0
   17.9253   32.7096   24.7052 C   0  0  0  0  0  0  0  0  0  0  0  0
 16 17  1  0
 17 18  1  0
 18 19  2  0
 19 14  1  0
 14  1  1  0
  1  2  2  0
  2  3  1  0
  3  7  1  0
  7  8  1  0
  8  9  1  0
  9 10  1  0
 10 11  1  0
 10 12  1  0
 12 13  1  0
  3  4  2  0
  4  5  1  0
  5 23  1  0
 23 24  1  0
 24 25  2  0
 25 26  1  0
 26 27  2  0
 27 31  1  0
 31 32  1  0
 32 33  2  0
 32 35  1  0
 35 36  1  0
 36 37  1  0
 27 28  1  0
 28 29  1  0
 28 30  2  0
  5  6  2  0
 19 20  1  0
 20 21  1  0
 21 17  2  0
  6  1  1  0
 13  7  1  0
 30 24  1  0
 37 35  1  0
 14 15  1  0
 31 34  1  0
 20 22  1  0
M  END
> <minimizedAffinity>
-7.24476

> <CNNscore>
0.0598965846

> <CNNaffinity>
5.5262894630

> <CNN_VS>
0.3310058713

> <CNNaffinity_variance>
0.8590400219

$$$$



 37 41  0  0  0  0  0  0  0  0999 V2000
   24.0424   29.5768   24.9512 C   0  0  0  0  0  0  0  0  0  0  0  0
   24.4935   28.3086   25.2813 C   0  0  0  0  0  0  0  0  0  0  0  0
   24.2811   27.2748   24.3857 C   0  0  0  0  0  0  0  0  0  0  0  0
   23.6625   27.5132   23.2221 N   0  0  0  0  0  0  0  0  0  0  0  0
   23.2283   28.7580   22.9869 C   0  0  0  0  0  0  0  0  0  0  0  0
   23.3765   29.8044   23.8107 N   0  0  0  0  0  0  0  0  0  0  0  0
   24.7460   25.9901   24.6416 N   0  0  0  0  0  0  0  0  0  0  0  0
   26.0434   25.7904   25.3060 C   0  0  0  0  0  0  0  0  0  0  0  0
   25.9715   24.7207   26.4228 C   0  0  0  0  0  0  0  0  0  0  0  0
   25.3864   23.4238   26.0482 N   0  0  0  0  0  0  0  0  0  0  0  0
   26.3957   22.4245   25.7209 C   0  0  0  0  0  0  0  0  0  0  0  0
   24.3981   23.5635   24.9540 C   0  0  0  0  0  0  0  0  0  0  0  0
   23.7260   24.9540   24.8923 C   0  0  0  0  0  0  0  0  0  0  0  0
   24.2345   30.6230   25.8876 N   0  0  0  0  0  0  0  0  0  0  0  0
   23.4470   30.9143   26.4017 H   0  0  0  0  0  0  0  0  0  0  0  0
   28.4724   32.4398   27.7705 C   0  0  0  0  0  0  0  0  0  0  0  0
   27.2965   32.1112   26.9280 C   0  0  0  0  0  0  0  0  0  0  0  0
   26.2611   31.1864   27.2124 C   0  0  0  0  0  0  0  0  0  0  0  0
   25.4061   31.2594   26.1395 C   0  0  0  0  0  0  0  0  0  0  0  0
   25.9658   32.1804   25.2926 N   0  0  0  0  0  0  0  0  0  0  0  0
   27.1164   32.7124   25.7470 N   0  0  0  0  0  0  0  0  0  0  0  0
   25.5629   32.4305   24.4299 H   0  0  0  0  0  0  0  0  0  0  0  0
   22.4165   29.0618   21.4365 S   0  0  0  0  0  0  0  0  0  0  0  0
   23.7649   28.6796   20.3374 C   0  0  0  0  0  0  0  0  0  0  0  0
   23.9622   29.4370   19.1826 C   0  0  0  0  0  0  0  0  0  0  0  0
   25.0188   29.1454   18.3113 C   0  0  0  0  0  0  0  0  0  0  0  0
   25.8924   28.0906   18.5822 C   0  0  0  0  0  0  0  0  0  0  0  0
   25.6835   27.3315   19.7481 C   0  0  0  0  0  0  0  0  0  0  0  0
   26.7218   26.0004   20.1367 Cl  0  0  0  0  0  0  0  0  0  0  0  0
   24.6360   27.6265   20.6238 C   0  0  0  0  0  0  0  0  0  0  0  0
   26.9746   27.7456   17.7409 N   0  0  0  0  0  0  0  0  0  0  0  0
   26.9892   27.6671   16.3693 C   0  0  0  0  0  0  0  0  0  0  0  0
   26.0751   27.8948   15.5907 O   0  0  0  0  0  0  0  0  0  0  0  0
   27.8231   27.5356   18.1939 H   0  0  0  0  0  0  0  0  0  0  0  0
   28.3278   27.2918   15.8358 C   0  0  0  0  0  0  0  0  0  0  0  0
   28.5297   27.1193   14.3476 C   0  0  0  0  0  0  0  0  0  0  0  0
   28.5638   25.9179   15.2448 C   0  0  0  0  0  0  0  0  0  0  0  0
 16 17  1  0
 17 18  1  0
 18 19  2  0
 19 14  1  0
 14  1  1  0
  1  2  2  0
  2  3  1  0
  3  7  1  0
  7  8  1  0
  8  9  1  0
  9 10  1  0
 10 11  1  0
 10 12  1  0
 12 13  1  0
  3  4  2  0
  4  5  1  0
  5 23  1  0
 23 24  1  0
 24 25  2  0
 25 26  1  0
 26 27  2  0
 27 31  1  0
 31 32  1  0
 32 33  2  0
 32 35  1  0
 35 36  1  0
 36 37  1  0
 27 28  1  0
 28 29  1  0
 28 30  2  0
  5  6  2  0
 19 20  1  0
 20 21  1  0
 21 17  2  0
  6  1  1  0
 13  7  1  0
 30 24  1  0
 37 35  1  0
 14 15  1  0
 31 34  1  0
 20 22  1  0
M  END
> <minimizedAffinity>
-8.79147

> <CNNscore>
0.0533308387

> <CNNaffinity>
6.5660018921

> <CNN_VS>
0.3501703739

> <CNNaffinity_variance>
0.3337223530

$$$$



 37 41  0  0  0  0  0  0  0  0999 V2000
   23.7841   29.6943   20.5979 C   0  0  0  0  0  0  0  0  0  0  0  0
   24.6930   29.0044   19.8113 C   0  0  0  0  0  0  0  0  0  0  0  0
   24.8497   27.6444   20.0158 C   0  0  0  0  0  0  0  0  0  0  0  0
   24.1212   27.0194   20.9497 N   0  0  0  0  0  0  0  0  0  0  0  0
   23.2856   27.7581   21.6909 C   0  0  0  0  0  0  0  0  0  0  0  0
   23.0943   29.0787   21.5680 N   0  0  0  0  0  0  0  0  0  0  0  0
   25.7152   26.8907   19.2317 N   0  0  0  0  0  0  0  0  0  0  0  0
   26.2364   27.4369   17.9689 C   0  0  0  0  0  0  0  0  0  0  0  0
   27.7565   27.1921   17.8077 C   0  0  0  0  0  0  0  0  0  0  0  0
   28.2183   25.8075   17.9926 N   0  0  0  0  0  0  0  0  0  0  0  0
   28.3850   25.0966   16.7312 C   0  0  0  0  0  0  0  0  0  0  0  0
   27.3400   25.0553   18.9179 C   0  0  0  0  0  0  0  0  0  0  0  0
   26.6001   25.9469   19.9410 C   0  0  0  0  0  0  0  0  0  0  0  0
   23.6534   31.0921   20.4047 N   0  0  0  0  0  0  0  0  0  0  0  0
   23.9533   31.4547   19.5399 H   0  0  0  0  0  0  0  0  0  0  0  0
   20.8724   34.1487   23.1847 C   0  0  0  0  0  0  0  0  0  0  0  0
   21.9685   33.3611   22.5692 C   0  0  0  0  0  0  0  0  0  0  0  0
   21.8666   32.4060   21.5274 C   0  0  0  0  0  0  0  0  0  0  0  0
   23.1521   31.9756   21.3041 C   0  0  0  0  0  0  0  0  0  0  0  0
   23.9249   32.6612   22.2049 N   0  0  0  0  0  0  0  0  0  0  0  0
   23.2302   33.5088   22.9874 N   0  0  0  0  0  0  0  0  0  0  0  0
   24.9000   32.5444   22.2737 H   0  0  0  0  0  0  0  0  0  0  0  0
   22.3200   26.9150   22.9205 S   0  0  0  0  0  0  0  0  0  0  0  0
   23.6435   26.1616   23.8442 C   0  0  0  0  0  0  0  0  0  0  0  0
   24.4634   26.9448   24.6569 C   0  0  0  0  0  0  0  0  0  0  0  0
   25.5070   26.3633   25.3872 C   0  0  0  0  0  0  0  0  0  0  0  0
   25.7461   24.9898   25.3138 C   0  0  0  0  0  0  0  0  0  0  0  0
   24.9151   24.2091   24.4896 C   0  0  0  0  0  0  0  0  0  0  0  0
   25.1656   22.5014   24.3419 Cl  0  0  0  0  0  0  0  0  0  0  0  0
   23.8674   24.7855   23.7676 C   0  0  0  0  0  0  0  0  0  0  0  0
   26.7843   24.3452   26.0241 N   0  0  0  0  0  0  0  0  0  0  0  0
   26.6914   23.6222   27.1887 C   0  0  0  0  0  0  0  0  0  0  0  0
   25.6904   23.3722   27.8439 O   0  0  0  0  0  0  0  0  0  0  0  0
   27.6858   24.4241   25.6362 H   0  0  0  0  0  0  0  0  0  0  0  0
   28.0058   23.0738   27.6235 C   0  0  0  0  0  0  0  0  0  0  0  0
   29.2278   23.2527   26.7518 C   0  0  0  0  0  0  0  0  0  0  0  0
   28.6212   21.8899   26.9077 C   0  0  0  0  0  0  0  0  0  0  0  0
 16 17  1  0
 17 18  1  0
 18 19  2  0
 19 14  1  0
 14  1  1  0
  1  2  2  0
  2  3  1  0
  3  7  1  0
  7  8  1  0
  8  9  1  0
  9 10  1  0
 10 11  1  0
 10 12  1  0
 12 13  1  0
  3  4  2  0
  4  5  1  0
  5 23  1  0
 23 24  1  0
 24 25  2  0
 25 26  1  0
 26 27  2  0
 27 31  1  0
 31 32  1  0
 32 33  2  0
 32 35  1  0
 35 36  1  0
 36 37  1  0
 27 28  1  0
 28 29  1  0
 28 30  2  0
  5  6  2  0
 19 20  1  0
 20 21  1  0
 21 17  2  0
  6  1  1  0
 13  7  1  0
 30 24  1  0
 37 35  1  0
 14 15  1  0
 31 34  1  0
 20 22  1  0
M  END
> <minimizedAffinity>
-8.45525

> <CNNscore>
0.0467340648

> <CNNaffinity>
4.1818156242

> <CNN_VS>
0.1954332441

> <CNNaffinity_variance>
3.7321875095

$$$$
