


 24 24  0  0  0  0  0  0  0  0999 V2000
   12.8037   61.7445   18.2690 C   0  0  0  0  0  0  0  0  0  0  0  0
   13.1766   60.8613   17.1573 N   0  0  0  0  0  0  0  0  0  0  0  0
   13.8481   60.1670   17.4852 H   0  0  0  0  0  0  0  0  0  0  0  0
   13.5966   61.4141   16.4101 H   0  0  0  0  0  0  0  0  0  0  0  0
   14.0261   62.5348   18.7933 C   0  0  0  0  0  0  0  0  0  0  0  0
   14.3416   63.9697   18.2188 C   0  0  0  0  0  0  0  0  0  0  0  0
   13.4149   64.3102   17.0479 C   0  0  0  0  0  0  0  0  0  0  0  0
   14.1346   65.0106   19.3374 C   0  0  0  0  0  0  0  0  0  0  0  0
   15.8561   63.9142   17.7913 C   0  0  0  0  0  0  0  0  0  0  0  0
   16.2753   66.4530   17.8196 C   0  0  0  0  0  0  0  0  0  0  0  0
   16.8910   65.0580   18.0404 C   0  0  0  0  0  0  0  0  0  0  0  0
   18.0055   64.8924   16.9745 C   0  0  0  0  0  0  0  0  0  0  0  0
   17.5640   65.0043   19.4158 C   0  0  0  0  0  0  0  0  0  0  0  0
   12.0865   60.9590   19.4121 C   0  0  0  0  0  0  0  0  0  0  0  0
   12.7900   60.9495   20.7038 N   0  0  0  0  0  0  0  0  0  0  0  0
   13.2773   62.1360   21.2243 C   0  0  0  0  0  0  0  0  0  0  0  0
   13.9345   62.1769   22.3825 C   0  0  0  0  0  0  0  0  0  0  0  0
   14.4142   63.3227   22.8988 F   0  0  0  0  0  0  0  0  0  0  0  0
   14.1604   60.9335   23.1413 C   0  0  0  0  0  0  0  0  0  0  0  0
   14.7625   60.9076   24.2081 O   0  0  0  0  0  0  0  0  0  0  0  0
   13.6486   59.8041   22.5583 N   0  0  0  0  0  0  0  0  0  0  0  0
   12.9903   59.7325   21.3551 C   0  0  0  0  0  0  0  0  0  0  0  0
   12.6262   58.6446   20.9176 O   0  0  0  0  0  0  0  0  0  0  0  0
   13.7644   58.9597   23.0510 H   0  0  0  0  0  0  0  0  0  0  0  0
 10 11  1  0
 11 12  1  0
 11 13  1  0
 11  9  1  0
  9  6  1  0
  6  7  1  0
  6  8  1  0
  6  5  1  0
  5  1  1  0
  1  2  1  0
  1 14  1  0
 14 15  1  0
 15 16  1  0
 16 17  2  0
 17 18  1  0
 17 19  1  0
 19 20  2  0
 19 21  1  0
 21 22  1  0
 22 23  2  0
 22 15  1  0
  2  3  1  0
  2  4  1  0
 21 24  1  0
M  END
> <minimizedAffinity>
-6.40713

> <CNNscore>
0.3563384414

> <CNNaffinity>
4.9807338715

> <CNN_VS>
1.7748270035

> <CNNaffinity_variance>
0.1928762943

$$$$



 24 24  0  0  0  0  0  0  0  0999 V2000
   14.8427   63.5923   20.8203 C   0  0  0  0  0  0  0  0  0  0  0  0
   14.1283   64.6003   20.0274 N   0  0  0  0  0  0  0  0  0  0  0  0
   14.0481   65.4626   20.5663 H   0  0  0  0  0  0  0  0  0  0  0  0
   13.1964   64.2547   19.7982 H   0  0  0  0  0  0  0  0  0  0  0  0
   14.0611   63.2311   22.1058 C   0  0  0  0  0  0  0  0  0  0  0  0
   13.4391   61.7909   22.2709 C   0  0  0  0  0  0  0  0  0  0  0  0
   14.3879   60.8658   23.0389 C   0  0  0  0  0  0  0  0  0  0  0  0
   12.1150   61.9069   23.0524 C   0  0  0  0  0  0  0  0  0  0  0  0
   13.1700   61.2918   20.8019 C   0  0  0  0  0  0  0  0  0  0  0  0
   12.6225   58.7784   20.8749 C   0  0  0  0  0  0  0  0  0  0  0  0
   12.1502   60.1720   20.4180 C   0  0  0  0  0  0  0  0  0  0  0  0
   12.0911   60.1333   18.8686 C   0  0  0  0  0  0  0  0  0  0  0  0
   10.7255   60.4234   20.9224 C   0  0  0  0  0  0  0  0  0  0  0  0
   16.3049   64.0395   21.1362 C   0  0  0  0  0  0  0  0  0  0  0  0
   16.9949   64.7445   20.0451 N   0  0  0  0  0  0  0  0  0  0  0  0
   16.7155   64.4089   18.7315 C   0  0  0  0  0  0  0  0  0  0  0  0
   17.3252   65.0076   17.7093 C   0  0  0  0  0  0  0  0  0  0  0  0
   17.0640   64.6902   16.4284 F   0  0  0  0  0  0  0  0  0  0  0  0
   18.3297   66.0553   17.9666 C   0  0  0  0  0  0  0  0  0  0  0  0
   18.9270   66.6364   17.0684 O   0  0  0  0  0  0  0  0  0  0  0  0
   18.5490   66.3273   19.2915 N   0  0  0  0  0  0  0  0  0  0  0  0
   17.9524   65.7078   20.3623 C   0  0  0  0  0  0  0  0  0  0  0  0
   18.2779   66.0103   21.5069 O   0  0  0  0  0  0  0  0  0  0  0  0
   19.1991   67.0376   19.4963 H   0  0  0  0  0  0  0  0  0  0  0  0
 10 11  1  0
 11 12  1  0
 11 13  1  0
 11  9  1  0
  9  6  1  0
  6  7  1  0
  6  8  1  0
  6  5  1  0
  5  1  1  0
  1  2  1  0
  1 14  1  0
 14 15  1  0
 15 16  1  0
 16 17  2  0
 17 18  1  0
 17 19  1  0
 19 20  2  0
 19 21  1  0
 21 22  1  0
 22 23  2  0
 22 15  1  0
  2  3  1  0
  2  4  1  0
 21 24  1  0
M  END
> <minimizedAffinity>
-6.41028

> <CNNscore>
0.2973378897

> <CNNaffinity>
4.9579987526

> <CNN_VS>
1.4742008448

> <CNNaffinity_variance>
0.2373749614

$$$$



 24 24  0  0  0  0  0  0  0  0999 V2000
   17.8903   69.8057   20.7621 C   0  0  0  0  0  0  0  0  0  0  0  0
   16.6884   69.1003   21.2233 N   0  0  0  0  0  0  0  0  0  0  0  0
   16.2816   68.5784   20.4471 H   0  0  0  0  0  0  0  0  0  0  0  0
   16.0092   69.7772   21.5710 H   0  0  0  0  0  0  0  0  0  0  0  0
   17.5466   70.8468   19.6702 C   0  0  0  0  0  0  0  0  0  0  0  0
   16.7679   72.1636   20.0549 C   0  0  0  0  0  0  0  0  0  0  0  0
   17.3490   73.3797   19.3274 C   0  0  0  0  0  0  0  0  0  0  0  0
   15.2881   72.0025   19.6528 C   0  0  0  0  0  0  0  0  0  0  0  0
   16.9045   72.2762   21.6195 C   0  0  0  0  0  0  0  0  0  0  0  0
   16.4854   73.2781   23.9525 C   0  0  0  0  0  0  0  0  0  0  0  0
   16.6116   73.5701   22.4450 C   0  0  0  0  0  0  0  0  0  0  0  0
   15.2285   74.0944   21.9784 C   0  0  0  0  0  0  0  0  0  0  0  0
   17.6251   74.6973   22.2223 C   0  0  0  0  0  0  0  0  0  0  0  0
   18.9953   68.8099   20.2875 C   0  0  0  0  0  0  0  0  0  0  0  0
   18.5028   67.5129   19.7988 N   0  0  0  0  0  0  0  0  0  0  0  0
   18.1864   67.3636   18.4596 C   0  0  0  0  0  0  0  0  0  0  0  0
   17.7223   66.2138   17.9720 C   0  0  0  0  0  0  0  0  0  0  0  0
   17.4098   66.0557   16.6731 F   0  0  0  0  0  0  0  0  0  0  0  0
   17.5315   65.0606   18.8701 C   0  0  0  0  0  0  0  0  0  0  0  0
   17.1028   63.9807   18.4810 O   0  0  0  0  0  0  0  0  0  0  0  0
   17.8663   65.2906   20.1787 N   0  0  0  0  0  0  0  0  0  0  0  0
   18.3224   66.4721   20.7097 C   0  0  0  0  0  0  0  0  0  0  0  0
   18.5372   66.5617   21.9153 O   0  0  0  0  0  0  0  0  0  0  0  0
   17.7702   64.5332   20.8003 H   0  0  0  0  0  0  0  0  0  0  0  0
 10 11  1  0
 11 12  1  0
 11 13  1  0
 11  9  1  0
  9  6  1  0
  6  7  1  0
  6  8  1  0
  6  5  1  0
  5  1  1  0
  1  2  1  0
  1 14  1  0
 14 15  1  0
 15 16  1  0
 16 17  2  0
 17 18  1  0
 17 19  1  0
 19 20  2  0
 19 21  1  0
 21 22  1  0
 22 23  2  0
 22 15  1  0
  2  3  1  0
  2  4  1  0
 21 24  1  0
M  END
> <minimizedAffinity>
-5.09030

> <CNNscore>
0.2573655844

> <CNNaffinity>
4.9362072945

> <CNN_VS>
1.2704098225

> <CNNaffinity_variance>
0.2938629091

$$$$



 24 24  0  0  0  0  0  0  0  0999 V2000
   20.2256   54.2359   38.0401 C   0  0  0  0  0  0  0  0  0  0  0  0
   20.4874   55.2668   37.0284 N   0  0  0  0  0  0  0  0  0  0  0  0
   20.5613   56.1774   37.4820 H   0  0  0  0  0  0  0  0  0  0  0  0
   19.7220   55.2839   36.3544 H   0  0  0  0  0  0  0  0  0  0  0  0
   18.8737   54.4784   38.7527 C   0  0  0  0  0  0  0  0  0  0  0  0
   17.5243   54.0853   38.0365 C   0  0  0  0  0  0  0  0  0  0  0  0
   16.4421   55.1406   38.2831 C   0  0  0  0  0  0  0  0  0  0  0  0
   17.7787   53.9773   36.5195 C   0  0  0  0  0  0  0  0  0  0  0  0
   17.1406   52.6791   38.6323 C   0  0  0  0  0  0  0  0  0  0  0  0
   15.7812   50.9265   39.9370 C   0  0  0  0  0  0  0  0  0  0  0  0
   15.8343   52.3827   39.4365 C   0  0  0  0  0  0  0  0  0  0  0  0
   14.6519   52.5542   38.4476 C   0  0  0  0  0  0  0  0  0  0  0  0
   15.5905   53.3388   40.6087 C   0  0  0  0  0  0  0  0  0  0  0  0
   21.4044   54.1153   39.0569 C   0  0  0  0  0  0  0  0  0  0  0  0
   22.3225   55.2639   39.0919 N   0  0  0  0  0  0  0  0  0  0  0  0
   22.1123   56.2780   40.0101 C   0  0  0  0  0  0  0  0  0  0  0  0
   22.9067   57.3459   40.0708 C   0  0  0  0  0  0  0  0  0  0  0  0
   22.7129   58.3390   40.9573 F   0  0  0  0  0  0  0  0  0  0  0  0
   24.0429   57.4680   39.1395 C   0  0  0  0  0  0  0  0  0  0  0  0
   24.8034   58.4286   39.1435 O   0  0  0  0  0  0  0  0  0  0  0  0
   24.1810   56.4243   38.2626 N   0  0  0  0  0  0  0  0  0  0  0  0
   23.3620   55.3263   38.1640 C   0  0  0  0  0  0  0  0  0  0  0  0
   23.5664   54.4833   37.2950 O   0  0  0  0  0  0  0  0  0  0  0  0
   24.9435   56.4657   37.6411 H   0  0  0  0  0  0  0  0  0  0  0  0
 10 11  1  0
 11 12  1  0
 11 13  1  0
 11  9  1  0
  9  6  1  0
  6  7  1  0
  6  8  1  0
  6  5  1  0
  5  1  1  0
  1  2  1  0
  1 14  1  0
 14 15  1  0
 15 16  1  0
 16 17  2  0
 17 18  1  0
 17 19  1  0
 19 20  2  0
 19 21  1  0
 21 22  1  0
 22 23  2  0
 22 15  1  0
  2  3  1  0
  2  4  1  0
 21 24  1  0
M  END
> <minimizedAffinity>
-5.02335

> <CNNscore>
0.2056695223

> <CNNaffinity>
4.2677383423

> <CNN_VS>
0.8777437210

> <CNNaffinity_variance>
0.8180806041

$$$$



 24 24  0  0  0  0  0  0  0  0999 V2000
   18.4527   68.7153   20.2302 C   0  0  0  0  0  0  0  0  0  0  0  0
   19.7223   68.3658   19.5815 N   0  0  0  0  0  0  0  0  0  0  0  0
   19.5341   67.9277   18.6798 H   0  0  0  0  0  0  0  0  0  0  0  0
   20.2393   67.7160   20.1739 H   0  0  0  0  0  0  0  0  0  0  0  0
   17.6074   67.4538   20.5271 C   0  0  0  0  0  0  0  0  0  0  0  0
   17.2169   66.4735   19.3545 C   0  0  0  0  0  0  0  0  0  0  0  0
   16.4911   67.2198   18.2312 C   0  0  0  0  0  0  0  0  0  0  0  0
   18.5030   65.8425   18.7839 C   0  0  0  0  0  0  0  0  0  0  0  0
   16.3143   65.3722   20.0268 C   0  0  0  0  0  0  0  0  0  0  0  0
   14.5265   63.5282   20.1863 C   0  0  0  0  0  0  0  0  0  0  0  0
   15.0980   64.6777   19.3344 C   0  0  0  0  0  0  0  0  0  0  0  0
   15.6338   64.0362   18.0278 C   0  0  0  0  0  0  0  0  0  0  0  0
   13.9698   65.6372   18.9417 C   0  0  0  0  0  0  0  0  0  0  0  0
   17.6528   69.7678   19.3993 C   0  0  0  0  0  0  0  0  0  0  0  0
   16.9570   70.7941   20.1905 N   0  0  0  0  0  0  0  0  0  0  0  0
   17.6785   71.8436   20.7326 C   0  0  0  0  0  0  0  0  0  0  0  0
   17.0965   72.7891   21.4691 C   0  0  0  0  0  0  0  0  0  0  0  0
   17.7862   73.8134   22.0027 F   0  0  0  0  0  0  0  0  0  0  0  0
   15.6463   72.7289   21.7263 C   0  0  0  0  0  0  0  0  0  0  0  0
   15.0570   73.5653   22.4004 O   0  0  0  0  0  0  0  0  0  0  0  0
   15.0061   71.6599   21.1564 N   0  0  0  0  0  0  0  0  0  0  0  0
   15.5869   70.6603   20.4150 C   0  0  0  0  0  0  0  0  0  0  0  0
   14.9055   69.7255   20.0032 O   0  0  0  0  0  0  0  0  0  0  0  0
   14.0327   71.6027   21.2918 H   0  0  0  0  0  0  0  0  0  0  0  0
 10 11  1  0
 11 12  1  0
 11 13  1  0
 11  9  1  0
  9  6  1  0
  6  7  1  0
  6  8  1  0
  6  5  1  0
  5  1  1  0
  1  2  1  0
  1 14  1  0
 14 15  1  0
 15 16  1  0
 16 17  2  0
 17 18  1  0
 17 19  1  0
 19 20  2  0
 19 21  1  0
 21 22  1  0
 22 23  2  0
 22 15  1  0
  2  3  1  0
  2  4  1  0
 21 24  1  0
M  END
> <minimizedAffinity>
-5.47458

> <CNNscore>
0.1681929529

> <CNNaffinity>
4.5371713638

> <CNN_VS>
0.7631202340

> <CNNaffinity_variance>
0.4503816366

$$$$



 24 24  0  0  0  0  0  0  0  0999 V2000
   16.2382   65.1443   17.5301 C   0  0  0  0  0  0  0  0  0  0  0  0
   17.0354   63.9470   17.8233 N   0  0  0  0  0  0  0  0  0  0  0  0
   17.3196   63.9592   18.8028 H   0  0  0  0  0  0  0  0  0  0  0  0
   17.8642   63.9364   17.2288 H   0  0  0  0  0  0  0  0  0  0  0  0
   17.0693   66.4346   17.7262 C   0  0  0  0  0  0  0  0  0  0  0  0
   17.5840   66.8290   19.1643 C   0  0  0  0  0  0  0  0  0  0  0  0
   16.5620   67.7060   19.8937 C   0  0  0  0  0  0  0  0  0  0  0  0
   17.8104   65.5418   19.9825 C   0  0  0  0  0  0  0  0  0  0  0  0
   18.9497   67.5733   18.9189 C   0  0  0  0  0  0  0  0  0  0  0  0
   20.4530   69.4951   18.1011 C   0  0  0  0  0  0  0  0  0  0  0  0
   19.0970   69.1169   18.7274 C   0  0  0  0  0  0  0  0  0  0  0  0
   19.0727   69.7475   20.1442 C   0  0  0  0  0  0  0  0  0  0  0  0
   17.9618   69.7589   17.9232 C   0  0  0  0  0  0  0  0  0  0  0  0
   14.9166   65.1731   18.3610 C   0  0  0  0  0  0  0  0  0  0  0  0
   14.2523   63.8715   18.5281 N   0  0  0  0  0  0  0  0  0  0  0  0
   13.6280   63.2796   17.4437 C   0  0  0  0  0  0  0  0  0  0  0  0
   12.9998   62.1093   17.5481 C   0  0  0  0  0  0  0  0  0  0  0  0
   12.3882   61.5239   16.5027 F   0  0  0  0  0  0  0  0  0  0  0  0
   12.9559   61.4144   18.8474 C   0  0  0  0  0  0  0  0  0  0  0  0
   12.3887   60.3400   19.0060 O   0  0  0  0  0  0  0  0  0  0  0  0
   13.5955   62.0661   19.8689 N   0  0  0  0  0  0  0  0  0  0  0  0
   14.2278   63.2829   19.7924 C   0  0  0  0  0  0  0  0  0  0  0  0
   14.7191   63.7845   20.7996 O   0  0  0  0  0  0  0  0  0  0  0  0
   13.6024   61.6174   20.7452 H   0  0  0  0  0  0  0  0  0  0  0  0
 10 11  1  0
 11 12  1  0
 11 13  1  0
 11  9  1  0
  9  6  1  0
  6  7  1  0
  6  8  1  0
  6  5  1  0
  5  1  1  0
  1  2  1  0
  1 14  1  0
 14 15  1  0
 15 16  1  0
 16 17  2  0
 17 18  1  0
 17 19  1  0
 19 20  2  0
 19 21  1  0
 21 22  1  0
 22 23  2  0
 22 15  1  0
  2  3  1  0
  2  4  1  0
 21 24  1  0
M  END
> <minimizedAffinity>
-5.31797

> <CNNscore>
0.1659972370

> <CNNaffinity>
4.1893210411

> <CNN_VS>
0.6954157352

> <CNNaffinity_variance>
0.4694082737

$$$$



 24 24  0  0  0  0  0  0  0  0999 V2000
   17.9126   54.4391   37.6594 C   0  0  0  0  0  0  0  0  0  0  0  0
   17.4510   55.8317   37.7094 N   0  0  0  0  0  0  0  0  0  0  0  0
   18.1400   56.4008   38.2012 H   0  0  0  0  0  0  0  0  0  0  0  0
   16.5589   55.8768   38.2018 H   0  0  0  0  0  0  0  0  0  0  0  0
   18.0399   53.8380   39.0794 C   0  0  0  0  0  0  0  0  0  0  0  0
   16.9958   52.7653   39.5771 C   0  0  0  0  0  0  0  0  0  0  0  0
   17.6348   51.7973   40.5773 C   0  0  0  0  0  0  0  0  0  0  0  0
   15.8243   53.4931   40.2667 C   0  0  0  0  0  0  0  0  0  0  0  0
   16.5011   52.0403   38.2699 C   0  0  0  0  0  0  0  0  0  0  0  0
   13.9550   52.3279   38.5089 C   0  0  0  0  0  0  0  0  0  0  0  0
   15.0965   51.3771   38.1004 C   0  0  0  0  0  0  0  0  0  0  0  0
   15.0468   50.1781   39.0830 C   0  0  0  0  0  0  0  0  0  0  0  0
   14.8298   50.8266   36.6957 C   0  0  0  0  0  0  0  0  0  0  0  0
   19.2405   54.3019   36.8497 C   0  0  0  0  0  0  0  0  0  0  0  0
   19.1854   54.7973   35.4659 N   0  0  0  0  0  0  0  0  0  0  0  0
   19.5587   56.1019   35.1926 C   0  0  0  0  0  0  0  0  0  0  0  0
   19.5115   56.6016   33.9584 C   0  0  0  0  0  0  0  0  0  0  0  0
   19.8702   57.8678   33.6794 F   0  0  0  0  0  0  0  0  0  0  0  0
   19.0483   55.7568   32.8428 C   0  0  0  0  0  0  0  0  0  0  0  0
   18.9777   56.1622   31.6887 O   0  0  0  0  0  0  0  0  0  0  0  0
   18.6966   54.4807   33.1967 N   0  0  0  0  0  0  0  0  0  0  0  0
   18.7127   53.9504   34.4635 C   0  0  0  0  0  0  0  0  0  0  0  0
   18.3205   52.8027   34.6543 O   0  0  0  0  0  0  0  0  0  0  0  0
   18.4030   53.8844   32.4705 H   0  0  0  0  0  0  0  0  0  0  0  0
 10 11  1  0
 11 12  1  0
 11 13  1  0
 11  9  1  0
  9  6  1  0
  6  7  1  0
  6  8  1  0
  6  5  1  0
  5  1  1  0
  1  2  1  0
  1 14  1  0
 14 15  1  0
 15 16  1  0
 16 17  2  0
 17 18  1  0
 17 19  1  0
 19 20  2  0
 19 21  1  0
 21 22  1  0
 22 23  2  0
 22 15  1  0
  2  3  1  0
  2  4  1  0
 21 24  1  0
M  END
> <minimizedAffinity>
-4.95751

> <CNNscore>
0.1541591287

> <CNNaffinity>
4.4411473274

> <CNN_VS>
0.6846433878

> <CNNaffinity_variance>
0.4483975470

$$$$



 24 24  0  0  0  0  0  0  0  0999 V2000
   14.5603   65.4619   19.1978 C   0  0  0  0  0  0  0  0  0  0  0  0
   13.2842   66.1781   19.0816 N   0  0  0  0  0  0  0  0  0  0  0  0
   13.0053   66.2189   18.1013 H   0  0  0  0  0  0  0  0  0  0  0  0
   13.3917   67.1254   19.4442 H   0  0  0  0  0  0  0  0  0  0  0  0
   15.6932   66.2079   18.4535 C   0  0  0  0  0  0  0  0  0  0  0  0
   17.1886   65.7324   18.6158 C   0  0  0  0  0  0  0  0  0  0  0  0
   17.3653   64.8941   19.8853 C   0  0  0  0  0  0  0  0  0  0  0  0
   17.5736   64.8740   17.3941 C   0  0  0  0  0  0  0  0  0  0  0  0
   18.0373   67.0583   18.6470 C   0  0  0  0  0  0  0  0  0  0  0  0
   17.9653   67.3361   21.2043 C   0  0  0  0  0  0  0  0  0  0  0  0
   18.0785   68.0575   19.8476 C   0  0  0  0  0  0  0  0  0  0  0  0
   16.8242   68.9609   19.7206 C   0  0  0  0  0  0  0  0  0  0  0  0
   19.3039   68.9772   19.8545 C   0  0  0  0  0  0  0  0  0  0  0  0
   14.4330   63.9793   18.7248 C   0  0  0  0  0  0  0  0  0  0  0  0
   14.0148   63.0238   19.7619 N   0  0  0  0  0  0  0  0  0  0  0  0
   14.3751   63.2458   21.0798 C   0  0  0  0  0  0  0  0  0  0  0  0
   14.0337   62.4018   22.0526 C   0  0  0  0  0  0  0  0  0  0  0  0
   14.3784   62.6050   23.3369 F   0  0  0  0  0  0  0  0  0  0  0  0
   13.2541   61.1922   21.7333 C   0  0  0  0  0  0  0  0  0  0  0  0
   12.9164   60.3772   22.5836 O   0  0  0  0  0  0  0  0  0  0  0  0
   12.9391   61.0455   20.4079 N   0  0  0  0  0  0  0  0  0  0  0  0
   13.3000   61.8871   19.3844 C   0  0  0  0  0  0  0  0  0  0  0  0
   12.9969   61.6122   18.2268 O   0  0  0  0  0  0  0  0  0  0  0  0
   12.4003   60.2581   20.1650 H   0  0  0  0  0  0  0  0  0  0  0  0
 10 11  1  0
 11 12  1  0
 11 13  1  0
 11  9  1  0
  9  6  1  0
  6  7  1  0
  6  8  1  0
  6  5  1  0
  5  1  1  0
  1  2  1  0
  1 14  1  0
 14 15  1  0
 15 16  1  0
 16 17  2  0
 17 18  1  0
 17 19  1  0
 19 20  2  0
 19 21  1  0
 21 22  1  0
 22 23  2  0
 22 15  1  0
  2  3  1  0
  2  4  1  0
 21 24  1  0
M  END
> <minimizedAffinity>
-6.13814

> <CNNscore>
0.1526731700

> <CNNaffinity>
4.1790423393

> <CNN_VS>
0.6380276680

> <CNNaffinity_variance>
0.7331067920

$$$$



 24 24  0  0  0  0  0  0  0  0999 V2000
   17.0697   64.3047   18.9816 C   0  0  0  0  0  0  0  0  0  0  0  0
   18.0740   64.9055   19.8678 N   0  0  0  0  0  0  0  0  0  0  0  0
   18.0419   65.9211   19.7789 H   0  0  0  0  0  0  0  0  0  0  0  0
   19.0014   64.5704   19.6071 H   0  0  0  0  0  0  0  0  0  0  0  0
   17.3689   64.6213   17.4970 C   0  0  0  0  0  0  0  0  0  0  0  0
   17.8801   66.0558   17.0851 C   0  0  0  0  0  0  0  0  0  0  0  0
   18.9994   65.9637   16.0437 C   0  0  0  0  0  0  0  0  0  0  0  0
   16.7034   66.8500   16.4834 C   0  0  0  0  0  0  0  0  0  0  0  0
   18.3620   66.7187   18.4296 C   0  0  0  0  0  0  0  0  0  0  0  0
   17.3215   69.0716   18.4885 C   0  0  0  0  0  0  0  0  0  0  0  0
   18.6167   68.2481   18.6234 C   0  0  0  0  0  0  0  0  0  0  0  0
   19.5485   68.6961   17.4673 C   0  0  0  0  0  0  0  0  0  0  0  0
   19.3181   68.6040   19.9383 C   0  0  0  0  0  0  0  0  0  0  0  0
   15.6212   64.7261   19.3845 C   0  0  0  0  0  0  0  0  0  0  0  0
   14.7946   63.6558   19.9630 N   0  0  0  0  0  0  0  0  0  0  0  0
   14.7706   63.4781   21.3355 C   0  0  0  0  0  0  0  0  0  0  0  0
   14.0500   62.5135   21.9059 C   0  0  0  0  0  0  0  0  0  0  0  0
   14.0189   62.3292   23.2381 F   0  0  0  0  0  0  0  0  0  0  0  0
   13.2538   61.5998   21.0669 C   0  0  0  0  0  0  0  0  0  0  0  0
   12.5770   60.6912   21.5334 O   0  0  0  0  0  0  0  0  0  0  0  0
   13.3325   61.8414   19.7205 N   0  0  0  0  0  0  0  0  0  0  0  0
   14.0864   62.8120   19.1074 C   0  0  0  0  0  0  0  0  0  0  0  0
   14.1099   62.8895   17.8823 O   0  0  0  0  0  0  0  0  0  0  0  0
   12.7951   61.2614   19.1340 H   0  0  0  0  0  0  0  0  0  0  0  0
 10 11  1  0
 11 12  1  0
 11 13  1  0
 11  9  1  0
  9  6  1  0
  6  7  1  0
  6  8  1  0
  6  5  1  0
  5  1  1  0
  1  2  1  0
  1 14  1  0
 14 15  1  0
 15 16  1  0
 16 17  2  0
 17 18  1  0
 17 19  1  0
 19 20  2  0
 19 21  1  0
 21 22  1  0
 22 23  2  0
 22 15  1  0
  2  3  1  0
  2  4  1  0
 21 24  1  0
M  END
> <minimizedAffinity>
-6.00989

> <CNNscore>
0.1447212100

> <CNNaffinity>
4.2224330902

> <CNN_VS>
0.6110756397

> <CNNaffinity_variance>
0.4788888991

$$$$
