


 48 50  0  0  0  0  0  0  0  0999 V2000
    8.0207   28.4046    5.9009 C   0  0  0  0  0  0  0  0  0  0  0  0
    7.2269   27.3203    5.3332 N   0  0  0  0  0  0  0  0  0  0  0  0
    7.7608   26.0792    5.0755 C   0  0  0  0  0  0  0  0  0  0  0  0
    8.9611   25.8440    5.1651 O   0  0  0  0  0  0  0  0  0  0  0  0
    6.2778   27.4822    5.1278 H   0  0  0  0  0  0  0  0  0  0  0  0
    6.7303   25.0753    4.5957 C   0  0  0  0  0  0  0  0  0  0  0  0
    6.8110   23.7353    5.3239 C   0  0  0  0  0  0  0  0  0  0  0  0
    5.4699   23.2625    5.8325 C   0  0  0  0  0  0  0  0  0  0  0  0
    4.2831   23.8069    5.3318 C   0  0  0  0  0  0  0  0  0  0  0  0
    3.0424   23.3665    5.8040 C   0  0  0  0  0  0  0  0  0  0  0  0
    2.9566   22.3782    6.7943 C   0  0  0  0  0  0  0  0  0  0  0  0
    4.1509   21.8250    7.2802 C   0  0  0  0  0  0  0  0  0  0  0  0
    5.3925   22.2599    6.8049 C   0  0  0  0  0  0  0  0  0  0  0  0
    1.6632   21.9120    7.3199 C   0  0  0  0  0  0  0  0  0  0  0  0
    0.4509   22.5817    7.3545 C   0  0  0  0  0  0  0  0  0  0  0  0
   -0.6159   21.8022    7.9102 C   0  0  0  0  0  0  0  0  0  0  0  0
   -0.1693   20.5473    8.2704 C   0  0  0  0  0  0  0  0  0  0  0  0
    1.4952   20.3263    7.9573 S   0  0  0  0  0  0  0  0  0  0  0  0
   -2.0119   22.1997    8.0631 C   0  0  0  0  0  0  0  0  0  0  0  0
   -2.3658   23.5553    7.9925 C   0  0  0  0  0  0  0  0  0  0  0  0
   -3.7007   23.9488    8.1307 C   0  0  0  0  0  0  0  0  0  0  0  0
   -4.6867   22.9883    8.3436 C   0  0  0  0  0  0  0  0  0  0  0  0
   -6.3294   23.4717    8.5060 Cl  0  0  0  0  0  0  0  0  0  0  0  0
   -4.3502   21.6379    8.4232 C   0  0  0  0  0  0  0  0  0  0  0  0
   -3.0154   21.2449    8.2840 C   0  0  0  0  0  0  0  0  0  0  0  0
    7.5188   28.6311    7.3407 C   0  0  0  0  0  0  0  0  0  0  0  0
    6.3209   28.6347    7.6279 O   0  0  0  0  0  0  0  0  0  0  0  0
    8.5056   28.8793    8.2695 N   0  0  0  0  0  0  0  0  0  0  0  0
    9.4492   28.8293    7.9932 H   0  0  0  0  0  0  0  0  0  0  0  0
    8.1843   29.2159    9.6586 C   0  0  0  0  0  0  0  0  0  0  0  0
    9.3293   30.0665   10.2553 C   0  0  0  0  0  0  0  0  0  0  0  0
    9.0520   31.4018   10.3956 N   0  0  0  0  0  0  0  0  0  0  0  0
   10.4017   29.6121   10.6383 O   0  0  0  0  0  0  0  0  0  0  0  0
    8.1890   31.7605   10.0860 H   0  0  0  0  0  0  0  0  0  0  0  0
    9.7158   32.0019   10.8059 H   0  0  0  0  0  0  0  0  0  0  0  0
    7.9485   27.9467   10.4896 C   0  0  0  0  0  0  0  0  0  0  0  0
    7.8141   28.2101   11.9907 C   0  0  0  0  0  0  0  0  0  0  0  0
    8.5596   27.2240   12.8473 C   0  0  0  0  0  0  0  0  0  0  0  0
    8.5877   26.0166   12.6862 O   0  0  0  0  0  0  0  0  0  0  0  0
    9.2712   27.8018   13.8305 O   0  0  0  0  0  0  0  0  0  0  0  0
    9.2423   28.7313   13.9456 H   0  0  0  0  0  0  0  0  0  0  0  0
    7.8853   29.7058    5.1015 C   0  0  0  0  0  0  0  0  0  0  0  0
    9.0286   29.9220    4.1113 C   0  0  0  0  0  0  0  0  0  0  0  0
    9.3841   31.8661    5.4962 N   0  0  0  0  0  0  0  0  0  0  0  0
    9.9019   31.0929    4.4994 C   0  0  0  0  0  0  0  0  0  0  0  0
   10.9806   31.3577    3.9853 O   0  0  0  0  0  0  0  0  0  0  0  0
    9.8812   32.6527    5.8176 H   0  0  0  0  0  0  0  0  0  0  0  0
    8.5132   31.6377    5.8944 H   0  0  0  0  0  0  0  0  0  0  0  0
 44 45  1  0
 45 46  2  0
 45 43  1  0
 43 42  1  0
  1 42  1  0
  1  2  1  0
  2  3  1  0
  3  4  2  0
  3  6  1  0
  6  7  1  0
  7  8  1  0
  8  9  2  0
  9 10  1  0
 10 11  2  0
 11 14  1  0
 14 15  2  0
 15 16  1  0
 16 19  1  0
 19 20  2  0
 20 21  1  0
 21 22  2  0
 22 23  1  0
 22 24  1  0
 24 25  2  0
 16 17  2  0
 17 18  1  0
 11 12  1  0
 12 13  2  0
  1 26  1  0
 26 27  2  0
 26 28  1  0
 28 30  1  0
 30 36  1  0
 36 37  1  0
 37 38  1  0
 38 39  2  0
 38 40  1  0
 30 31  1  0
 31 32  1  0
 31 33  2  0
 13  8  1  0
 18 14  1  0
 25 19  1  0
 44 47  1  0
 44 48  1  0
  2  5  1  0
 28 29  1  0
 40 41  1  0
 32 34  1  0
 32 35  1  0
M  END
> <minimizedAffinity>
-9.59019

> <CNNscore>
0.8862253428

> <CNNaffinity>
7.8417720795

> <CNN_VS>
6.9495773315

> <CNNaffinity_variance>
0.1314246505

$$$$



 48 50  0  0  0  0  0  0  0  0999 V2000
    7.8491   29.0170    5.1521 C   0  0  0  0  0  0  0  0  0  0  0  0
    7.6387   27.9722    4.1559 N   0  0  0  0  0  0  0  0  0  0  0  0
    8.6206   27.0679    3.8246 C   0  0  0  0  0  0  0  0  0  0  0  0
    9.7741   27.1661    4.2294 O   0  0  0  0  0  0  0  0  0  0  0  0
    6.7651   27.9126    3.7059 H   0  0  0  0  0  0  0  0  0  0  0  0
    8.1472   26.0034    2.8537 C   0  0  0  0  0  0  0  0  0  0  0  0
    8.3030   24.5836    3.3942 C   0  0  0  0  0  0  0  0  0  0  0  0
    7.1221   24.1393    4.2242 C   0  0  0  0  0  0  0  0  0  0  0  0
    7.2385   23.0704    5.1183 C   0  0  0  0  0  0  0  0  0  0  0  0
    6.1435   22.6615    5.8864 C   0  0  0  0  0  0  0  0  0  0  0  0
    4.9028   23.3042    5.7740 C   0  0  0  0  0  0  0  0  0  0  0  0
    4.7979   24.3862    4.8870 C   0  0  0  0  0  0  0  0  0  0  0  0
    5.8936   24.8004    4.1223 C   0  0  0  0  0  0  0  0  0  0  0  0
    3.7317   22.8801    6.5581 C   0  0  0  0  0  0  0  0  0  0  0  0
    2.4272   23.3406    6.4836 C   0  0  0  0  0  0  0  0  0  0  0  0
    1.5331   22.6697    7.3808 C   0  0  0  0  0  0  0  0  0  0  0  0
    2.2000   21.7024    8.1044 C   0  0  0  0  0  0  0  0  0  0  0  0
    3.8617   21.6201    7.7176 S   0  0  0  0  0  0  0  0  0  0  0  0
    0.0989   22.8954    7.5295 C   0  0  0  0  0  0  0  0  0  0  0  0
   -0.6774   21.9977    8.2774 C   0  0  0  0  0  0  0  0  0  0  0  0
   -2.0515   22.2059    8.4332 C   0  0  0  0  0  0  0  0  0  0  0  0
   -2.6555   23.3111    7.8384 C   0  0  0  0  0  0  0  0  0  0  0  0
   -4.3442   23.5715    8.0363 Cl  0  0  0  0  0  0  0  0  0  0  0  0
   -1.8992   24.2086    7.0863 C   0  0  0  0  0  0  0  0  0  0  0  0
   -0.5250   24.0002    6.9317 C   0  0  0  0  0  0  0  0  0  0  0  0
    7.2395   28.5138    6.4755 C   0  0  0  0  0  0  0  0  0  0  0  0
    6.7855   27.3756    6.6011 O   0  0  0  0  0  0  0  0  0  0  0  0
    7.1946   29.4469    7.4883 N   0  0  0  0  0  0  0  0  0  0  0  0
    7.6040   30.3308    7.3458 H   0  0  0  0  0  0  0  0  0  0  0  0
    6.5520   29.1550    8.7721 C   0  0  0  0  0  0  0  0  0  0  0  0
    5.6532   30.3467    9.1751 C   0  0  0  0  0  0  0  0  0  0  0  0
    4.3324   30.0392    9.3764 N   0  0  0  0  0  0  0  0  0  0  0  0
    6.0603   31.4876    9.3645 O   0  0  0  0  0  0  0  0  0  0  0  0
    4.0117   29.1212    9.2226 H   0  0  0  0  0  0  0  0  0  0  0  0
    3.7046   30.7364    9.6748 H   0  0  0  0  0  0  0  0  0  0  0  0
    7.5999   28.8625    9.8553 C   0  0  0  0  0  0  0  0  0  0  0  0
    6.9997   28.6123   11.2403 C   0  0  0  0  0  0  0  0  0  0  0  0
    7.8759   27.7834   12.1388 C   0  0  0  0  0  0  0  0  0  0  0  0
    8.9295   27.2594   11.8228 O   0  0  0  0  0  0  0  0  0  0  0  0
    7.4155   27.6937   13.3985 O   0  0  0  0  0  0  0  0  0  0  0  0
    6.6040   28.1004   13.6308 H   0  0  0  0  0  0  0  0  0  0  0  0
    7.1874   30.3418    4.7554 C   0  0  0  0  0  0  0  0  0  0  0  0
    8.1453   31.3030    4.0534 C   0  0  0  0  0  0  0  0  0  0  0  0
    9.5005   31.9369    5.9470 N   0  0  0  0  0  0  0  0  0  0  0  0
    9.5010   31.3411    4.7204 C   0  0  0  0  0  0  0  0  0  0  0  0
   10.5299   30.8918    4.2329 O   0  0  0  0  0  0  0  0  0  0  0  0
   10.3380   32.0092    6.4595 H   0  0  0  0  0  0  0  0  0  0  0  0
    8.6627   32.2947    6.3201 H   0  0  0  0  0  0  0  0  0  0  0  0
 44 45  1  0
 45 46  2  0
 45 43  1  0
 43 42  1  0
  1 42  1  0
  1  2  1  0
  2  3  1  0
  3  4  2  0
  3  6  1  0
  6  7  1  0
  7  8  1  0
  8  9  2  0
  9 10  1  0
 10 11  2  0
 11 14  1  0
 14 15  2  0
 15 16  1  0
 16 19  1  0
 19 20  2  0
 20 21  1  0
 21 22  2  0
 22 23  1  0
 22 24  1  0
 24 25  2  0
 16 17  2  0
 17 18  1  0
 11 12  1  0
 12 13  2  0
  1 26  1  0
 26 27  2  0
 26 28  1  0
 28 30  1  0
 30 36  1  0
 36 37  1  0
 37 38  1  0
 38 39  2  0
 38 40  1  0
 30 31  1  0
 31 32  1  0
 31 33  2  0
 13  8  1  0
 18 14  1  0
 25 19  1  0
 44 47  1  0
 44 48  1  0
  2  5  1  0
 28 29  1  0
 40 41  1  0
 32 34  1  0
 32 35  1  0
M  END
> <minimizedAffinity>
-8.86733

> <CNNscore>
0.8504460454

> <CNNaffinity>
7.9589920044

> <CNN_VS>
6.7686934471

> <CNNaffinity_variance>
0.1378236264

$$$$



 48 50  0  0  0  0  0  0  0  0999 V2000
    8.5565   27.0829    2.3152 C   0  0  0  0  0  0  0  0  0  0  0  0
    7.4564   26.2422    2.7746 N   0  0  0  0  0  0  0  0  0  0  0  0
    7.6686   25.0390    3.4062 C   0  0  0  0  0  0  0  0  0  0  0  0
    8.7786   24.5250    3.4943 O   0  0  0  0  0  0  0  0  0  0  0  0
    6.5316   26.5462    2.6277 H   0  0  0  0  0  0  0  0  0  0  0  0
    6.3889   24.3906    3.8982 C   0  0  0  0  0  0  0  0  0  0  0  0
    6.5408   23.7169    5.2603 C   0  0  0  0  0  0  0  0  0  0  0  0
    5.2270   23.2285    5.8227 C   0  0  0  0  0  0  0  0  0  0  0  0
    5.1931   22.2020    6.7717 C   0  0  0  0  0  0  0  0  0  0  0  0
    3.9749   21.7521    7.2915 C   0  0  0  0  0  0  0  0  0  0  0  0
    2.7602   22.3102    6.8696 C   0  0  0  0  0  0  0  0  0  0  0  0
    2.8029   23.3508    5.9295 C   0  0  0  0  0  0  0  0  0  0  0  0
    4.0206   23.8061    5.4129 C   0  0  0  0  0  0  0  0  0  0  0  0
    1.4653   21.8409    7.3885 C   0  0  0  0  0  0  0  0  0  0  0  0
    0.2577   22.5178    7.4426 C   0  0  0  0  0  0  0  0  0  0  0  0
   -0.8126   21.7330    7.9836 C   0  0  0  0  0  0  0  0  0  0  0  0
   -0.3736   20.4671    8.3132 C   0  0  0  0  0  0  0  0  0  0  0  0
    1.2884   20.2420    7.9896 S   0  0  0  0  0  0  0  0  0  0  0  0
   -2.2054   22.1363    8.1502 C   0  0  0  0  0  0  0  0  0  0  0  0
   -2.5499   23.4957    8.1138 C   0  0  0  0  0  0  0  0  0  0  0  0
   -3.8816   23.8950    8.2655 C   0  0  0  0  0  0  0  0  0  0  0  0
   -4.8737   22.9365    8.4577 C   0  0  0  0  0  0  0  0  0  0  0  0
   -6.5126   23.4272    8.6367 Cl  0  0  0  0  0  0  0  0  0  0  0  0
   -4.5466   21.5822    8.5032 C   0  0  0  0  0  0  0  0  0  0  0  0
   -3.2150   21.1835    8.3506 C   0  0  0  0  0  0  0  0  0  0  0  0
    8.2882   28.5089    2.8355 C   0  0  0  0  0  0  0  0  0  0  0  0
    7.7571   28.7232    3.9261 O   0  0  0  0  0  0  0  0  0  0  0  0
    8.6394   29.5210    1.9692 N   0  0  0  0  0  0  0  0  0  0  0  0
    9.0935   29.2952    1.1254 H   0  0  0  0  0  0  0  0  0  0  0  0
    8.3535   30.9251    2.2739 C   0  0  0  0  0  0  0  0  0  0  0  0
    9.3096   31.4103    3.3878 C   0  0  0  0  0  0  0  0  0  0  0  0
    8.9756   32.6098    3.9617 N   0  0  0  0  0  0  0  0  0  0  0  0
   10.2754   30.7749    3.7961 O   0  0  0  0  0  0  0  0  0  0  0  0
    8.1989   33.1152    3.6293 H   0  0  0  0  0  0  0  0  0  0  0  0
    9.5125   32.9657    4.7062 H   0  0  0  0  0  0  0  0  0  0  0  0
    6.8862   31.1084    2.6869 C   0  0  0  0  0  0  0  0  0  0  0  0
    6.1182   32.0968    1.8071 C   0  0  0  0  0  0  0  0  0  0  0  0
    5.7824   33.3890    2.4995 C   0  0  0  0  0  0  0  0  0  0  0  0
    6.0273   33.6607    3.6617 O   0  0  0  0  0  0  0  0  0  0  0  0
    5.2029   34.2930    1.6908 O   0  0  0  0  0  0  0  0  0  0  0  0
    5.0189   34.0736    0.7987 H   0  0  0  0  0  0  0  0  0  0  0  0
    8.6703   27.1093    0.7865 C   0  0  0  0  0  0  0  0  0  0  0  0
    9.7205   26.1395    0.2473 C   0  0  0  0  0  0  0  0  0  0  0  0
    9.1946   23.8003    0.5221 N   0  0  0  0  0  0  0  0  0  0  0  0
    9.0975   24.8788   -0.3066 C   0  0  0  0  0  0  0  0  0  0  0  0
    8.5502   24.7939   -1.3981 O   0  0  0  0  0  0  0  0  0  0  0  0
    8.8177   22.9331    0.2478 H   0  0  0  0  0  0  0  0  0  0  0  0
    9.6416   23.8887    1.3948 H   0  0  0  0  0  0  0  0  0  0  0  0
 44 45  1  0
 45 46  2  0
 45 43  1  0
 43 42  1  0
  1 42  1  0
  1  2  1  0
  2  3  1  0
  3  4  2  0
  3  6  1  0
  6  7  1  0
  7  8  1  0
  8  9  2  0
  9 10  1  0
 10 11  2  0
 11 14  1  0
 14 15  2  0
 15 16  1  0
 16 19  1  0
 19 20  2  0
 20 21  1  0
 21 22  2  0
 22 23  1  0
 22 24  1  0
 24 25  2  0
 16 17  2  0
 17 18  1  0
 11 12  1  0
 12 13  2  0
  1 26  1  0
 26 27  2  0
 26 28  1  0
 28 30  1  0
 30 36  1  0
 36 37  1  0
 37 38  1  0
 38 39  2  0
 38 40  1  0
 30 31  1  0
 31 32  1  0
 31 33  2  0
 13  8  1  0
 18 14  1  0
 25 19  1  0
 44 47  1  0
 44 48  1  0
  2  5  1  0
 28 29  1  0
 40 41  1  0
 32 34  1  0
 32 35  1  0
M  END
> <minimizedAffinity>
-8.62571

> <CNNscore>
0.8177258968

> <CNNaffinity>
7.8389611244

> <CNN_VS>
6.4101214409

> <CNNaffinity_variance>
0.1522966027

$$$$



 48 50  0  0  0  0  0  0  0  0999 V2000
    8.4559   28.2810    5.5693 C   0  0  0  0  0  0  0  0  0  0  0  0
    7.5384   27.2679    5.0595 N   0  0  0  0  0  0  0  0  0  0  0  0
    7.9272   25.9647    4.8541 C   0  0  0  0  0  0  0  0  0  0  0  0
    9.0951   25.6011    4.9431 O   0  0  0  0  0  0  0  0  0  0  0  0
    6.6103   27.5255    4.8558 H   0  0  0  0  0  0  0  0  0  0  0  0
    6.7847   25.0618    4.4307 C   0  0  0  0  0  0  0  0  0  0  0  0
    6.8451   23.6755    5.0685 C   0  0  0  0  0  0  0  0  0  0  0  0
    5.5206   23.2383    5.6478 C   0  0  0  0  0  0  0  0  0  0  0  0
    4.3275   23.8428    5.2398 C   0  0  0  0  0  0  0  0  0  0  0  0
    3.1022   23.4353    5.7773 C   0  0  0  0  0  0  0  0  0  0  0  0
    3.0392   22.4203    6.7422 C   0  0  0  0  0  0  0  0  0  0  0  0
    4.2385   21.8072    7.1347 C   0  0  0  0  0  0  0  0  0  0  0  0
    5.4644   22.2093    6.5938 C   0  0  0  0  0  0  0  0  0  0  0  0
    1.7637   21.9875    7.3355 C   0  0  0  0  0  0  0  0  0  0  0  0
    0.5397   22.6363    7.3250 C   0  0  0  0  0  0  0  0  0  0  0  0
   -0.5028   21.8987    7.9756 C   0  0  0  0  0  0  0  0  0  0  0  0
   -0.0267   20.6943    8.4517 C   0  0  0  0  0  0  0  0  0  0  0  0
    1.6363   20.4714    8.1319 S   0  0  0  0  0  0  0  0  0  0  0  0
   -1.9034   22.2855    8.1133 C   0  0  0  0  0  0  0  0  0  0  0  0
   -2.2533   23.6431    8.1632 C   0  0  0  0  0  0  0  0  0  0  0  0
   -3.5921   24.0272    8.2883 C   0  0  0  0  0  0  0  0  0  0  0  0
   -4.5863   23.0550    8.3677 C   0  0  0  0  0  0  0  0  0  0  0  0
   -6.2338   23.5275    8.5139 Cl  0  0  0  0  0  0  0  0  0  0  0  0
   -4.2543   21.7017    8.3265 C   0  0  0  0  0  0  0  0  0  0  0  0
   -2.9154   21.3183    8.2005 C   0  0  0  0  0  0  0  0  0  0  0  0
    7.8147   28.8800    6.8367 C   0  0  0  0  0  0  0  0  0  0  0  0
    6.7218   29.4479    6.8167 O   0  0  0  0  0  0  0  0  0  0  0  0
    8.5772   28.7774    7.9796 N   0  0  0  0  0  0  0  0  0  0  0  0
    9.4273   28.2820    7.9473 H   0  0  0  0  0  0  0  0  0  0  0  0
    8.1531   29.3881    9.2419 C   0  0  0  0  0  0  0  0  0  0  0  0
    9.3907   29.9535    9.9761 C   0  0  0  0  0  0  0  0  0  0  0  0
    9.7597   29.2722   11.1073 N   0  0  0  0  0  0  0  0  0  0  0  0
   10.0549   30.9053    9.5810 O   0  0  0  0  0  0  0  0  0  0  0  0
    9.2222   28.5087   11.4194 H   0  0  0  0  0  0  0  0  0  0  0  0
   10.5621   29.5465   11.6074 H   0  0  0  0  0  0  0  0  0  0  0  0
    7.4071   28.3723   10.1187 C   0  0  0  0  0  0  0  0  0  0  0  0
    6.2716   28.9856   10.9405 C   0  0  0  0  0  0  0  0  0  0  0  0
    5.4888   30.0361   10.2016 C   0  0  0  0  0  0  0  0  0  0  0  0
    5.5582   31.2386   10.3848 O   0  0  0  0  0  0  0  0  0  0  0  0
    4.6971   29.5331    9.2387 O   0  0  0  0  0  0  0  0  0  0  0  0
    4.6512   28.6066    9.1064 H   0  0  0  0  0  0  0  0  0  0  0  0
    8.7151   29.3974    4.5509 C   0  0  0  0  0  0  0  0  0  0  0  0
    7.4371   29.9187    3.8956 C   0  0  0  0  0  0  0  0  0  0  0  0
    7.4176   31.5174    2.0880 N   0  0  0  0  0  0  0  0  0  0  0  0
    7.5804   31.3499    3.4315 C   0  0  0  0  0  0  0  0  0  0  0  0
    7.8244   32.2988    4.1650 O   0  0  0  0  0  0  0  0  0  0  0  0
    7.4928   32.4153    1.6912 H   0  0  0  0  0  0  0  0  0  0  0  0
    7.2250   30.7405    1.5148 H   0  0  0  0  0  0  0  0  0  0  0  0
 44 45  1  0
 45 46  2  0
 45 43  1  0
 43 42  1  0
  1 42  1  0
  1  2  1  0
  2  3  1  0
  3  4  2  0
  3  6  1  0
  6  7  1  0
  7  8  1  0
  8  9  2  0
  9 10  1  0
 10 11  2  0
 11 14  1  0
 14 15  2  0
 15 16  1  0
 16 19  1  0
 19 20  2  0
 20 21  1  0
 21 22  2  0
 22 23  1  0
 22 24  1  0
 24 25  2  0
 16 17  2  0
 17 18  1  0
 11 12  1  0
 12 13  2  0
  1 26  1  0
 26 27  2  0
 26 28  1  0
 28 30  1  0
 30 36  1  0
 36 37  1  0
 37 38  1  0
 38 39  2  0
 38 40  1  0
 30 31  1  0
 31 32  1  0
 31 33  2  0
 13  8  1  0
 18 14  1  0
 25 19  1  0
 44 47  1  0
 44 48  1  0
  2  5  1  0
 28 29  1  0
 40 41  1  0
 32 34  1  0
 32 35  1  0
M  END
> <minimizedAffinity>
-9.11582

> <CNNscore>
0.8042119741

> <CNNaffinity>
7.7065277100

> <CNN_VS>
6.1976819038

> <CNNaffinity_variance>
0.2090495974

$$$$



 48 50  0  0  0  0  0  0  0  0999 V2000
    8.7989   27.6224    3.6692 C   0  0  0  0  0  0  0  0  0  0  0  0
    7.8469   26.7769    4.3811 N   0  0  0  0  0  0  0  0  0  0  0  0
    8.2214   25.5977    4.9820 C   0  0  0  0  0  0  0  0  0  0  0  0
    9.3358   25.1065    4.8374 O   0  0  0  0  0  0  0  0  0  0  0  0
    6.9053   27.0596    4.4332 H   0  0  0  0  0  0  0  0  0  0  0  0
    7.0968   24.9421    5.7601 C   0  0  0  0  0  0  0  0  0  0  0  0
    6.5675   23.6719    5.0977 C   0  0  0  0  0  0  0  0  0  0  0  0
    5.2473   23.2170    5.6731 C   0  0  0  0  0  0  0  0  0  0  0  0
    4.0486   23.8151    5.2720 C   0  0  0  0  0  0  0  0  0  0  0  0
    2.8273   23.3913    5.8058 C   0  0  0  0  0  0  0  0  0  0  0  0
    2.7738   22.3657    6.7600 C   0  0  0  0  0  0  0  0  0  0  0  0
    3.9788   21.7591    7.1454 C   0  0  0  0  0  0  0  0  0  0  0  0
    5.2007   22.1777    6.6082 C   0  0  0  0  0  0  0  0  0  0  0  0
    1.5026   21.9153    7.3494 C   0  0  0  0  0  0  0  0  0  0  0  0
    0.2781   22.5633    7.3651 C   0  0  0  0  0  0  0  0  0  0  0  0
   -0.7596   21.8069    8.0018 C   0  0  0  0  0  0  0  0  0  0  0  0
   -0.2796   20.5900    8.4408 C   0  0  0  0  0  0  0  0  0  0  0  0
    1.3814   20.3775    8.1038 S   0  0  0  0  0  0  0  0  0  0  0  0
   -2.1594   22.1886    8.1595 C   0  0  0  0  0  0  0  0  0  0  0  0
   -2.5249   23.5424    8.1192 C   0  0  0  0  0  0  0  0  0  0  0  0
   -3.8635   23.9211    8.2624 C   0  0  0  0  0  0  0  0  0  0  0  0
   -4.8417   22.9475    8.4502 C   0  0  0  0  0  0  0  0  0  0  0  0
   -6.4891   23.4127    8.6187 Cl  0  0  0  0  0  0  0  0  0  0  0  0
   -4.4938   21.5985    8.4995 C   0  0  0  0  0  0  0  0  0  0  0  0
   -3.1552   21.2204    8.3553 C   0  0  0  0  0  0  0  0  0  0  0  0
    8.6217   29.0575    4.2032 C   0  0  0  0  0  0  0  0  0  0  0  0
    7.5288   29.4953    4.5658 O   0  0  0  0  0  0  0  0  0  0  0  0
    9.7643   29.8272    4.1960 N   0  0  0  0  0  0  0  0  0  0  0  0
   10.6186   29.4167    3.9297 H   0  0  0  0  0  0  0  0  0  0  0  0
    9.7385   31.2420    4.5752 C   0  0  0  0  0  0  0  0  0  0  0  0
    8.2805   31.6650    4.8682 C   0  0  0  0  0  0  0  0  0  0  0  0
    7.9268   31.6605    6.1928 N   0  0  0  0  0  0  0  0  0  0  0  0
    7.4828   32.0365    4.0144 O   0  0  0  0  0  0  0  0  0  0  0  0
    8.5719   31.3611    6.8736 H   0  0  0  0  0  0  0  0  0  0  0  0
    7.0277   31.9568    6.4632 H   0  0  0  0  0  0  0  0  0  0  0  0
   10.3564   32.1158    3.4744 C   0  0  0  0  0  0  0  0  0  0  0  0
   11.0222   33.3889    4.0005 C   0  0  0  0  0  0  0  0  0  0  0  0
   12.4796   33.2177    4.3302 C   0  0  0  0  0  0  0  0  0  0  0  0
   13.1721   34.0143    4.9390 O   0  0  0  0  0  0  0  0  0  0  0  0
   12.9835   32.0389    3.9260 O   0  0  0  0  0  0  0  0  0  0  0  0
   12.4422   31.4336    3.4585 H   0  0  0  0  0  0  0  0  0  0  0  0
    8.5698   27.6089    2.1533 C   0  0  0  0  0  0  0  0  0  0  0  0
    9.0857   26.3376    1.4810 C   0  0  0  0  0  0  0  0  0  0  0  0
    6.7365   25.7912    1.3997 N   0  0  0  0  0  0  0  0  0  0  0  0
    7.9666   25.5207    0.8772 C   0  0  0  0  0  0  0  0  0  0  0  0
    8.1132   24.6800   -0.0002 O   0  0  0  0  0  0  0  0  0  0  0  0
    5.9444   25.3087    1.0695 H   0  0  0  0  0  0  0  0  0  0  0  0
    6.6404   26.4691    2.1072 H   0  0  0  0  0  0  0  0  0  0  0  0
 44 45  1  0
 45 46  2  0
 45 43  1  0
 43 42  1  0
  1 42  1  0
  1  2  1  0
  2  3  1  0
  3  4  2  0
  3  6  1  0
  6  7  1  0
  7  8  1  0
  8  9  2  0
  9 10  1  0
 10 11  2  0
 11 14  1  0
 14 15  2  0
 15 16  1  0
 16 19  1  0
 19 20  2  0
 20 21  1  0
 21 22  2  0
 22 23  1  0
 22 24  1  0
 24 25  2  0
 16 17  2  0
 17 18  1  0
 11 12  1  0
 12 13  2  0
  1 26  1  0
 26 27  2  0
 26 28  1  0
 28 30  1  0
 30 36  1  0
 36 37  1  0
 37 38  1  0
 38 39  2  0
 38 40  1  0
 30 31  1  0
 31 32  1  0
 31 33  2  0
 13  8  1  0
 18 14  1  0
 25 19  1  0
 44 47  1  0
 44 48  1  0
  2  5  1  0
 28 29  1  0
 40 41  1  0
 32 34  1  0
 32 35  1  0
M  END
> <minimizedAffinity>
-9.52519

> <CNNscore>
0.7836813927

> <CNNaffinity>
7.9648284912

> <CNN_VS>
6.2418880463

> <CNNaffinity_variance>
0.0414952189

$$$$



 48 50  0  0  0  0  0  0  0  0999 V2000
    8.3097   28.0111    3.5361 C   0  0  0  0  0  0  0  0  0  0  0  0
    8.3506   26.7308    4.2341 N   0  0  0  0  0  0  0  0  0  0  0  0
    7.4696   26.4183    5.2430 C   0  0  0  0  0  0  0  0  0  0  0  0
    6.6935   27.2388    5.7211 O   0  0  0  0  0  0  0  0  0  0  0  0
    9.0313   26.0686    3.9745 H   0  0  0  0  0  0  0  0  0  0  0  0
    7.6205   24.9957    5.7464 C   0  0  0  0  0  0  0  0  0  0  0  0
    6.9123   23.9677    4.8666 C   0  0  0  0  0  0  0  0  0  0  0  0
    5.6097   23.4861    5.4600 C   0  0  0  0  0  0  0  0  0  0  0  0
    4.3927   24.0517    5.0669 C   0  0  0  0  0  0  0  0  0  0  0  0
    3.1877   23.6031    5.6174 C   0  0  0  0  0  0  0  0  0  0  0  0
    3.1692   22.5849    6.5806 C   0  0  0  0  0  0  0  0  0  0  0  0
    4.3925   22.0109    6.9581 C   0  0  0  0  0  0  0  0  0  0  0  0
    5.5981   22.4541    6.4043 C   0  0  0  0  0  0  0  0  0  0  0  0
    1.9155   22.1091    7.1875 C   0  0  0  0  0  0  0  0  0  0  0  0
    0.6778   22.7308    7.2173 C   0  0  0  0  0  0  0  0  0  0  0  0
   -0.3353   21.9542    7.8691 C   0  0  0  0  0  0  0  0  0  0  0  0
    0.1762   20.7491    8.3050 C   0  0  0  0  0  0  0  0  0  0  0  0
    1.8369   20.5711    7.9473 S   0  0  0  0  0  0  0  0  0  0  0  0
   -1.7409   22.3064    8.0439 C   0  0  0  0  0  0  0  0  0  0  0  0
   -2.1391   23.6501    7.9818 C   0  0  0  0  0  0  0  0  0  0  0  0
   -3.4836   24.0004    8.1410 C   0  0  0  0  0  0  0  0  0  0  0  0
   -4.4350   23.0084    8.3666 C   0  0  0  0  0  0  0  0  0  0  0  0
   -6.0897   23.4385    8.5548 Cl  0  0  0  0  0  0  0  0  0  0  0  0
   -4.0543   21.6693    8.4379 C   0  0  0  0  0  0  0  0  0  0  0  0
   -2.7098   21.3195    8.2777 C   0  0  0  0  0  0  0  0  0  0  0  0
    8.5968   27.7282    2.0483 C   0  0  0  0  0  0  0  0  0  0  0  0
    8.3780   28.5590    1.1655 O   0  0  0  0  0  0  0  0  0  0  0  0
    9.0667   26.4620    1.7760 N   0  0  0  0  0  0  0  0  0  0  0  0
    9.2576   25.8495    2.5227 H   0  0  0  0  0  0  0  0  0  0  0  0
    9.2889   26.0053    0.4019 C   0  0  0  0  0  0  0  0  0  0  0  0
    8.7035   24.5840    0.2358 C   0  0  0  0  0  0  0  0  0  0  0  0
    7.8911   24.1647    1.2575 N   0  0  0  0  0  0  0  0  0  0  0  0
    8.8830   23.8720   -0.7461 O   0  0  0  0  0  0  0  0  0  0  0  0
    7.7510   24.7410    2.0432 H   0  0  0  0  0  0  0  0  0  0  0  0
    7.4478   23.2872    1.2054 H   0  0  0  0  0  0  0  0  0  0  0  0
   10.7832   26.0317    0.0505 C   0  0  0  0  0  0  0  0  0  0  0  0
   11.1063   26.8478   -1.2026 C   0  0  0  0  0  0  0  0  0  0  0  0
   12.5307   27.3267   -1.2623 C   0  0  0  0  0  0  0  0  0  0  0  0
   12.8903   28.4752   -1.4531 O   0  0  0  0  0  0  0  0  0  0  0  0
   13.4307   26.3553   -1.0312 O   0  0  0  0  0  0  0  0  0  0  0  0
   13.1433   25.4754   -0.8857 H   0  0  0  0  0  0  0  0  0  0  0  0
    9.3461   29.0029    4.0773 C   0  0  0  0  0  0  0  0  0  0  0  0
    8.7989   30.4220    4.2211 C   0  0  0  0  0  0  0  0  0  0  0  0
    9.2387   31.7723    6.1723 N   0  0  0  0  0  0  0  0  0  0  0  0
    8.4784   30.7639    5.6580 C   0  0  0  0  0  0  0  0  0  0  0  0
    7.6236   30.2053    6.3328 O   0  0  0  0  0  0  0  0  0  0  0  0
    9.1030   32.0661    7.1021 H   0  0  0  0  0  0  0  0  0  0  0  0
    9.9234   32.2066    5.6138 H   0  0  0  0  0  0  0  0  0  0  0  0
 44 45  1  0
 45 46  2  0
 45 43  1  0
 43 42  1  0
  1 42  1  0
  1  2  1  0
  2  3  1  0
  3  4  2  0
  3  6  1  0
  6  7  1  0
  7  8  1  0
  8  9  2  0
  9 10  1  0
 10 11  2  0
 11 14  1  0
 14 15  2  0
 15 16  1  0
 16 19  1  0
 19 20  2  0
 20 21  1  0
 21 22  2  0
 22 23  1  0
 22 24  1  0
 24 25  2  0
 16 17  2  0
 17 18  1  0
 11 12  1  0
 12 13  2  0
  1 26  1  0
 26 27  2  0
 26 28  1  0
 28 30  1  0
 30 36  1  0
 36 37  1  0
 37 38  1  0
 38 39  2  0
 38 40  1  0
 30 31  1  0
 31 32  1  0
 31 33  2  0
 13  8  1  0
 18 14  1  0
 25 19  1  0
 44 47  1  0
 44 48  1  0
  2  5  1  0
 28 29  1  0
 40 41  1  0
 32 34  1  0
 32 35  1  0
M  END
> <minimizedAffinity>
-9.40872

> <CNNscore>
0.7733696699

> <CNNaffinity>
7.9085307121

> <CNN_VS>
6.1162176132

> <CNNaffinity_variance>
0.1269457340

$$$$



 48 50  0  0  0  0  0  0  0  0999 V2000
    7.9806   25.3666    3.3482 C   0  0  0  0  0  0  0  0  0  0  0  0
    7.5436   24.1053    3.9366 N   0  0  0  0  0  0  0  0  0  0  0  0
    6.5637   24.0473    4.9000 C   0  0  0  0  0  0  0  0  0  0  0  0
    6.0989   25.0500    5.4318 O   0  0  0  0  0  0  0  0  0  0  0  0
    7.9640   23.2680    3.6342 H   0  0  0  0  0  0  0  0  0  0  0  0
    6.1894   22.6289    5.2845 C   0  0  0  0  0  0  0  0  0  0  0  0
    5.6897   22.5071    6.7225 C   0  0  0  0  0  0  0  0  0  0  0  0
    4.1890   22.6342    6.8346 C   0  0  0  0  0  0  0  0  0  0  0  0
    3.5149   22.1697    7.9682 C   0  0  0  0  0  0  0  0  0  0  0  0
    2.1251   22.2895    8.0698 C   0  0  0  0  0  0  0  0  0  0  0  0
    1.3733   22.8681    7.0378 C   0  0  0  0  0  0  0  0  0  0  0  0
    2.0581   23.3467    5.9106 C   0  0  0  0  0  0  0  0  0  0  0  0
    3.4487   23.2331    5.8098 C   0  0  0  0  0  0  0  0  0  0  0  0
   -0.0916   22.9883    7.1140 C   0  0  0  0  0  0  0  0  0  0  0  0
   -0.9973   22.1503    7.7438 C   0  0  0  0  0  0  0  0  0  0  0  0
   -2.3550   22.5987    7.6434 C   0  0  0  0  0  0  0  0  0  0  0  0
   -2.4284   23.7844    6.9414 C   0  0  0  0  0  0  0  0  0  0  0  0
   -0.8997   24.3293    6.4085 S   0  0  0  0  0  0  0  0  0  0  0  0
   -3.5381   21.9647    8.2165 C   0  0  0  0  0  0  0  0  0  0  0  0
   -3.5389   20.5855    8.4724 C   0  0  0  0  0  0  0  0  0  0  0  0
   -4.6636   19.9669    9.0275 C   0  0  0  0  0  0  0  0  0  0  0  0
   -5.7936   20.7247    9.3256 C   0  0  0  0  0  0  0  0  0  0  0  0
   -7.1742   19.9653   10.0154 Cl  0  0  0  0  0  0  0  0  0  0  0  0
   -5.8110   22.0951    9.0708 C   0  0  0  0  0  0  0  0  0  0  0  0
   -4.6857   22.7133    8.5166 C   0  0  0  0  0  0  0  0  0  0  0  0
    8.3051   25.0900    1.8669 C   0  0  0  0  0  0  0  0  0  0  0  0
    8.0235   24.0234    1.3188 O   0  0  0  0  0  0  0  0  0  0  0  0
    8.9774   26.1029    1.2186 N   0  0  0  0  0  0  0  0  0  0  0  0
    9.1459   26.9486    1.6936 H   0  0  0  0  0  0  0  0  0  0  0  0
    9.4475   25.9515   -0.1606 C   0  0  0  0  0  0  0  0  0  0  0  0
    9.1680   24.5081   -0.6391 C   0  0  0  0  0  0  0  0  0  0  0  0
    9.7334   23.5203    0.1253 N   0  0  0  0  0  0  0  0  0  0  0  0
    8.4546   24.2216   -1.5942 O   0  0  0  0  0  0  0  0  0  0  0  0
   10.3053   23.7569    0.8909 H   0  0  0  0  0  0  0  0  0  0  0  0
    9.5674   22.5744   -0.0914 H   0  0  0  0  0  0  0  0  0  0  0  0
   10.9409   26.2904   -0.2709 C   0  0  0  0  0  0  0  0  0  0  0  0
   11.2373   27.4688   -1.2005 C   0  0  0  0  0  0  0  0  0  0  0  0
   10.1958   27.6764   -2.2655 C   0  0  0  0  0  0  0  0  0  0  0  0
    9.5462   28.6923   -2.4402 O   0  0  0  0  0  0  0  0  0  0  0  0
   10.0555   26.6222   -3.0876 O   0  0  0  0  0  0  0  0  0  0  0  0
   10.5600   25.8458   -2.9441 H   0  0  0  0  0  0  0  0  0  0  0  0
    9.2215   25.9358    4.0459 C   0  0  0  0  0  0  0  0  0  0  0  0
    8.9019   27.1041    4.9771 C   0  0  0  0  0  0  0  0  0  0  0  0
    7.3041   28.9075    4.8404 N   0  0  0  0  0  0  0  0  0  0  0  0
    8.3565   28.2964    4.2253 C   0  0  0  0  0  0  0  0  0  0  0  0
    8.7913   28.7040    3.1562 O   0  0  0  0  0  0  0  0  0  0  0  0
    6.8809   29.6941    4.4264 H   0  0  0  0  0  0  0  0  0  0  0  0
    6.9673   28.5621    5.6987 H   0  0  0  0  0  0  0  0  0  0  0  0
 44 45  1  0
 45 46  2  0
 45 43  1  0
 43 42  1  0
  1 42  1  0
  1  2  1  0
  2  3  1  0
  3  4  2  0
  3  6  1  0
  6  7  1  0
  7  8  1  0
  8  9  2  0
  9 10  1  0
 10 11  2  0
 11 14  1  0
 14 15  2  0
 15 16  1  0
 16 19  1  0
 19 20  2  0
 20 21  1  0
 21 22  2  0
 22 23  1  0
 22 24  1  0
 24 25  2  0
 16 17  2  0
 17 18  1  0
 11 12  1  0
 12 13  2  0
  1 26  1  0
 26 27  2  0
 26 28  1  0
 28 30  1  0
 30 36  1  0
 36 37  1  0
 37 38  1  0
 38 39  2  0
 38 40  1  0
 30 31  1  0
 31 32  1  0
 31 33  2  0
 13  8  1  0
 18 14  1  0
 25 19  1  0
 44 47  1  0
 44 48  1  0
  2  5  1  0
 28 29  1  0
 40 41  1  0
 32 34  1  0
 32 35  1  0
M  END
> <minimizedAffinity>
-9.68877

> <CNNscore>
0.7628659010

> <CNNaffinity>
7.8456177711

> <CNN_VS>
5.9851541519

> <CNNaffinity_variance>
0.3416516781

$$$$



 48 50  0  0  0  0  0  0  0  0999 V2000
    9.0870   27.2545    4.7832 C   0  0  0  0  0  0  0  0  0  0  0  0
    8.1402   26.2177    5.1792 N   0  0  0  0  0  0  0  0  0  0  0  0
    8.5013   24.8939    5.2738 C   0  0  0  0  0  0  0  0  0  0  0  0
    9.5903   24.4766    4.8942 O   0  0  0  0  0  0  0  0  0  0  0  0
    7.2123   26.4739    5.3855 H   0  0  0  0  0  0  0  0  0  0  0  0
    7.3918   24.0107    5.8115 C   0  0  0  0  0  0  0  0  0  0  0  0
    6.2280   23.8456    4.8366 C   0  0  0  0  0  0  0  0  0  0  0  0
    4.9671   23.3535    5.5065 C   0  0  0  0  0  0  0  0  0  0  0  0
    5.0201   22.3553    6.4844 C   0  0  0  0  0  0  0  0  0  0  0  0
    3.8508   21.9019    7.1039 C   0  0  0  0  0  0  0  0  0  0  0  0
    2.5991   22.4280    6.7556 C   0  0  0  0  0  0  0  0  0  0  0  0
    2.5553   23.4407    5.7855 C   0  0  0  0  0  0  0  0  0  0  0  0
    3.7242   23.8996    5.1691 C   0  0  0  0  0  0  0  0  0  0  0  0
    1.3535   21.9540    7.3802 C   0  0  0  0  0  0  0  0  0  0  0  0
    0.1004   22.5448    7.3696 C   0  0  0  0  0  0  0  0  0  0  0  0
   -0.8974   21.7789    8.0567 C   0  0  0  0  0  0  0  0  0  0  0  0
   -0.3589   20.6124    8.5600 C   0  0  0  0  0  0  0  0  0  0  0  0
    1.3082   20.4577    8.2216 S   0  0  0  0  0  0  0  0  0  0  0  0
   -2.3124   22.1042    8.2044 C   0  0  0  0  0  0  0  0  0  0  0  0
   -3.2553   21.0764    8.3549 C   0  0  0  0  0  0  0  0  0  0  0  0
   -4.6134   21.3749    8.5040 C   0  0  0  0  0  0  0  0  0  0  0  0
   -5.0346   22.7025    8.4996 C   0  0  0  0  0  0  0  0  0  0  0  0
   -6.7041   23.0699    8.6905 Cl  0  0  0  0  0  0  0  0  0  0  0  0
   -4.1109   23.7349    8.3441 C   0  0  0  0  0  0  0  0  0  0  0  0
   -2.7529   23.4359    8.1960 C   0  0  0  0  0  0  0  0  0  0  0  0
    8.6077   28.5752    5.4174 C   0  0  0  0  0  0  0  0  0  0  0  0
    8.4083   29.5918    4.7510 O   0  0  0  0  0  0  0  0  0  0  0  0
    8.4691   28.5470    6.7879 N   0  0  0  0  0  0  0  0  0  0  0  0
    8.6068   27.6982    7.2674 H   0  0  0  0  0  0  0  0  0  0  0  0
    8.1216   29.7498    7.5486 C   0  0  0  0  0  0  0  0  0  0  0  0
    8.6898   29.6288    8.9814 C   0  0  0  0  0  0  0  0  0  0  0  0
    8.1813   28.5955    9.7253 N   0  0  0  0  0  0  0  0  0  0  0  0
    9.5700   30.3488    9.4399 O   0  0  0  0  0  0  0  0  0  0  0  0
    7.4746   28.0210    9.3515 H   0  0  0  0  0  0  0  0  0  0  0  0
    8.5228   28.4281   10.6334 H   0  0  0  0  0  0  0  0  0  0  0  0
    6.6014   29.9623    7.5735 C   0  0  0  0  0  0  0  0  0  0  0  0
    6.1500   31.0660    8.5321 C   0  0  0  0  0  0  0  0  0  0  0  0
    5.9034   32.3884    7.8594 C   0  0  0  0  0  0  0  0  0  0  0  0
    4.8134   32.8933    7.6556 O   0  0  0  0  0  0  0  0  0  0  0  0
    7.0328   33.0341    7.5212 O   0  0  0  0  0  0  0  0  0  0  0  0
    7.8659   32.6367    7.6824 H   0  0  0  0  0  0  0  0  0  0  0  0
    9.1686   27.4182    3.2610 C   0  0  0  0  0  0  0  0  0  0  0  0
    8.1885   26.5194    2.5087 C   0  0  0  0  0  0  0  0  0  0  0  0
    7.0707   28.0833    1.0498 N   0  0  0  0  0  0  0  0  0  0  0  0
    7.9212   27.0189    1.1076 C   0  0  0  0  0  0  0  0  0  0  0  0
    8.4029   26.5348    0.0918 O   0  0  0  0  0  0  0  0  0  0  0  0
    6.8359   28.4791    0.1794 H   0  0  0  0  0  0  0  0  0  0  0  0
    6.6916   28.4560    1.8784 H   0  0  0  0  0  0  0  0  0  0  0  0
 44 45  1  0
 45 46  2  0
 45 43  1  0
 43 42  1  0
  1 42  1  0
  1  2  1  0
  2  3  1  0
  3  4  2  0
  3  6  1  0
  6  7  1  0
  7  8  1  0
  8  9  2  0
  9 10  1  0
 10 11  2  0
 11 14  1  0
 14 15  2  0
 15 16  1  0
 16 19  1  0
 19 20  2  0
 20 21  1  0
 21 22  2  0
 22 23  1  0
 22 24  1  0
 24 25  2  0
 16 17  2  0
 17 18  1  0
 11 12  1  0
 12 13  2  0
  1 26  1  0
 26 27  2  0
 26 28  1  0
 28 30  1  0
 30 36  1  0
 36 37  1  0
 37 38  1  0
 38 39  2  0
 38 40  1  0
 30 31  1  0
 31 32  1  0
 31 33  2  0
 13  8  1  0
 18 14  1  0
 25 19  1  0
 44 47  1  0
 44 48  1  0
  2  5  1  0
 28 29  1  0
 40 41  1  0
 32 34  1  0
 32 35  1  0
M  END
> <minimizedAffinity>
-9.20849

> <CNNscore>
0.7314150333

> <CNNaffinity>
7.5842094421

> <CNN_VS>
5.5472049713

> <CNNaffinity_variance>
0.2171522379

$$$$



 48 50  0  0  0  0  0  0  0  0999 V2000
    8.1331   28.6312    1.8061 C   0  0  0  0  0  0  0  0  0  0  0  0
    7.7050   27.2723    2.1194 N   0  0  0  0  0  0  0  0  0  0  0  0
    8.5077   26.1798    1.8873 C   0  0  0  0  0  0  0  0  0  0  0  0
    9.5661   26.2555    1.2723 O   0  0  0  0  0  0  0  0  0  0  0  0
    6.8122   27.1325    2.5100 H   0  0  0  0  0  0  0  0  0  0  0  0
    7.9085   24.8819    2.3935 C   0  0  0  0  0  0  0  0  0  0  0  0
    8.2055   24.6166    3.8678 C   0  0  0  0  0  0  0  0  0  0  0  0
    6.9931   24.1439    4.6344 C   0  0  0  0  0  0  0  0  0  0  0  0
    7.1265   23.2546    5.7053 C   0  0  0  0  0  0  0  0  0  0  0  0
    6.0020   22.8190    6.4141 C   0  0  0  0  0  0  0  0  0  0  0  0
    4.7159   23.2540    6.0651 C   0  0  0  0  0  0  0  0  0  0  0  0
    4.5913   24.1589    5.0001 C   0  0  0  0  0  0  0  0  0  0  0  0
    5.7153   24.6002    4.2939 C   0  0  0  0  0  0  0  0  0  0  0  0
    3.5164   22.7952    6.7842 C   0  0  0  0  0  0  0  0  0  0  0  0
    2.2296   23.3061    6.7353 C   0  0  0  0  0  0  0  0  0  0  0  0
    1.2967   22.5811    7.5467 C   0  0  0  0  0  0  0  0  0  0  0  0
    1.9171   21.5241    8.1807 C   0  0  0  0  0  0  0  0  0  0  0  0
    3.5823   21.4227    7.8141 S   0  0  0  0  0  0  0  0  0  0  0  0
   -0.1319   22.8408    7.6943 C   0  0  0  0  0  0  0  0  0  0  0  0
   -0.6716   24.0584    7.2538 C   0  0  0  0  0  0  0  0  0  0  0  0
   -2.0398   24.3170    7.3833 C   0  0  0  0  0  0  0  0  0  0  0  0
   -2.8735   23.3601    7.9573 C   0  0  0  0  0  0  0  0  0  0  0  0
   -4.5576   23.6751    8.1098 Cl  0  0  0  0  0  0  0  0  0  0  0  0
   -2.3515   22.1481    8.4064 C   0  0  0  0  0  0  0  0  0  0  0  0
   -0.9833   21.8897    8.2757 C   0  0  0  0  0  0  0  0  0  0  0  0
    8.4087   29.3423    3.1457 C   0  0  0  0  0  0  0  0  0  0  0  0
    9.2765   30.2082    3.2657 O   0  0  0  0  0  0  0  0  0  0  0  0
    7.6486   28.9012    4.2067 N   0  0  0  0  0  0  0  0  0  0  0  0
    6.9443   28.2318    4.0479 H   0  0  0  0  0  0  0  0  0  0  0  0
    7.8633   29.4043    5.5657 C   0  0  0  0  0  0  0  0  0  0  0  0
    7.3734   28.3488    6.5837 C   0  0  0  0  0  0  0  0  0  0  0  0
    7.5573   28.6798    7.9014 N   0  0  0  0  0  0  0  0  0  0  0  0
    6.8077   27.3044    6.2797 O   0  0  0  0  0  0  0  0  0  0  0  0
    8.0122   29.5200    8.1391 H   0  0  0  0  0  0  0  0  0  0  0  0
    7.2344   28.0774    8.6100 H   0  0  0  0  0  0  0  0  0  0  0  0
    7.1464   30.7460    5.7730 C   0  0  0  0  0  0  0  0  0  0  0  0
    8.0750   31.8776    6.2180 C   0  0  0  0  0  0  0  0  0  0  0  0
    7.7433   33.2097    5.6037 C   0  0  0  0  0  0  0  0  0  0  0  0
    8.3864   33.7765    4.7378 O   0  0  0  0  0  0  0  0  0  0  0  0
    6.5988   33.7411    6.0672 O   0  0  0  0  0  0  0  0  0  0  0  0
    6.1120   33.2969    6.7332 H   0  0  0  0  0  0  0  0  0  0  0  0
    7.0704   29.4105    1.0226 C   0  0  0  0  0  0  0  0  0  0  0  0
    7.6656   30.3261   -0.0459 C   0  0  0  0  0  0  0  0  0  0  0  0
    9.6137   29.2625   -0.9934 N   0  0  0  0  0  0  0  0  0  0  0  0
    8.2924   29.5447   -1.1777 C   0  0  0  0  0  0  0  0  0  0  0  0
    7.7005   29.1839   -2.1865 O   0  0  0  0  0  0  0  0  0  0  0  0
   10.1091   28.7567   -1.6775 H   0  0  0  0  0  0  0  0  0  0  0  0
   10.0723   29.5645   -0.1763 H   0  0  0  0  0  0  0  0  0  0  0  0
 44 45  1  0
 45 46  2  0
 45 43  1  0
 43 42  1  0
  1 42  1  0
  1  2  1  0
  2  3  1  0
  3  4  2  0
  3  6  1  0
  6  7  1  0
  7  8  1  0
  8  9  2  0
  9 10  1  0
 10 11  2  0
 11 14  1  0
 14 15  2  0
 15 16  1  0
 16 19  1  0
 19 20  2  0
 20 21  1  0
 21 22  2  0
 22 23  1  0
 22 24  1  0
 24 25  2  0
 16 17  2  0
 17 18  1  0
 11 12  1  0
 12 13  2  0
  1 26  1  0
 26 27  2  0
 26 28  1  0
 28 30  1  0
 30 36  1  0
 36 37  1  0
 37 38  1  0
 38 39  2  0
 38 40  1  0
 30 31  1  0
 31 32  1  0
 31 33  2  0
 13  8  1  0
 18 14  1  0
 25 19  1  0
 44 47  1  0
 44 48  1  0
  2  5  1  0
 28 29  1  0
 40 41  1  0
 32 34  1  0
 32 35  1  0
M  END
> <minimizedAffinity>
-8.19134

> <CNNscore>
0.7149332762

> <CNNaffinity>
7.7957401276

> <CNN_VS>
5.5734338760

> <CNNaffinity_variance>
0.1335544139

$$$$
