


 39 42  0  0  0  0  0  0  0  0999 V2000
    2.4101   62.9387   70.4078 C   0  0  0  0  0  0  0  0  0  0  0  0
    2.8638   64.3413   69.9857 C   0  0  0  0  0  0  0  0  0  0  0  0
    4.2631   64.3595   69.3616 C   0  0  0  0  0  0  0  0  0  0  0  0
    4.3483   65.2442   68.1120 C   0  0  0  0  0  0  0  0  0  0  0  0
    3.0809   66.0592   67.8201 C   0  0  0  0  0  0  0  0  0  0  0  0
    3.3401   67.3410   67.0261 C   0  0  0  0  0  0  0  0  0  0  0  0
    3.3505   67.1698   65.5782 N   0  0  0  0  0  0  0  0  0  0  0  0
    4.0926   66.5034   65.3646 H   0  0  0  0  0  0  0  0  0  0  0  0
    0.5949   68.2119   59.9859 O   0  0  0  0  0  0  0  0  0  0  0  0
    1.2455   68.2492   61.0241 C   0  0  0  0  0  0  0  0  0  0  0  0
    0.5848   68.1850   62.3483 C   0  0  0  0  0  0  0  0  0  0  0  0
    1.3317   68.2138   63.4610 C   0  0  0  0  0  0  0  0  0  0  0  0
    2.7862   68.2906   63.3997 C   0  0  0  0  0  0  0  0  0  0  0  0
    3.3795   68.3860   62.1912 C   0  0  0  0  0  0  0  0  0  0  0  0
    2.6125   68.3615   61.0452 N   0  0  0  0  0  0  0  0  0  0  0  0
    4.8663   68.5130   62.0025 C   0  0  0  0  0  0  0  0  0  0  0  0
    5.6686   68.1422   63.2482 C   0  0  0  0  0  0  0  0  0  0  0  0
    5.0437   68.7284   64.5122 C   0  0  0  0  0  0  0  0  0  0  0  0
    3.5611   68.3356   64.7074 C   0  0  0  0  0  0  0  0  0  0  0  0
    3.0791   68.4294   60.1810 H   0  0  0  0  0  0  0  0  0  0  0  0
    0.8941   62.8085   70.5522 C   0  0  0  0  0  0  0  0  0  0  0  0
    0.3383   63.3363   71.8813 C   0  0  0  0  0  0  0  0  0  0  0  0
   -0.5317   62.3408   72.6592 C   0  0  0  0  0  0  0  0  0  0  0  0
    0.2965   61.4285   73.5735 C   0  0  0  0  0  0  0  0  0  0  0  0
    0.2659   60.0177   73.1836 N   0  0  0  0  0  0  0  0  0  0  0  0
    0.4942   59.9629   72.1909 H   0  0  0  0  0  0  0  0  0  0  0  0
    1.1914   59.1282   73.9098 C   0  0  0  0  0  0  0  0  0  0  0  0
    0.4590   58.1772   74.8829 C   0  0  0  0  0  0  0  0  0  0  0  0
   -0.3637   57.1390   74.1306 C   0  0  0  0  0  0  0  0  0  0  0  0
    0.5383   56.2800   73.2478 C   0  0  0  0  0  0  0  0  0  0  0  0
    1.6768   57.0345   72.6072 C   0  0  0  0  0  0  0  0  0  0  0  0
    2.4199   56.3203   71.6936 N   0  0  0  0  0  0  0  0  0  0  0  0
    3.4913   56.8136   71.0034 C   0  0  0  0  0  0  0  0  0  0  0  0
    4.1264   56.1462   70.1960 O   0  0  0  0  0  0  0  0  0  0  0  0
    3.8498   58.2143   71.2901 C   0  0  0  0  0  0  0  0  0  0  0  0
    3.1364   58.9237   72.1796 C   0  0  0  0  0  0  0  0  0  0  0  0
    3.6318   60.7082   72.4955 Br  0  0  0  0  0  0  0  0  0  0  0  0
    1.9894   58.3234   72.8788 C   0  0  0  0  0  0  0  0  0  0  0  0
    2.1601   55.3857   71.5254 H   0  0  0  0  0  0  0  0  0  0  0  0
  9 10  2  0
 10 11  1  0
 11 12  2  0
 12 13  1  0
 13 14  2  0
 14 15  1  0
 14 16  1  0
 16 17  1  0
 17 18  1  0
 18 19  1  0
 19  7  1  0
  7  6  1  0
  6  5  1  0
  5  4  1  0
  4  3  1  0
  3  2  1  0
  2  1  1  0
  1 21  1  0
 21 22  1  0
 22 23  1  0
 23 24  1  0
 24 25  1  0
 27 25  1  0
 27 28  1  0
 28 29  1  0
 29 30  1  0
 30 31  1  0
 31 32  1  0
 32 33  1  0
 33 34  2  0
 33 35  1  0
 35 36  2  0
 36 37  1  0
 36 38  1  0
 15 10  1  0
 38 27  1  0
 19 13  1  0
 38 31  2  0
 15 20  1  0
  7  8  1  0
 25 26  1  0
 32 39  1  0
M  END
> <minimizedAffinity>
-10.04358

> <CNNscore>
0.8976621032

> <CNNaffinity>
8.7001724243

> <CNN_VS>
7.8098149300

> <CNNaffinity_variance>
0.0706064031

$$$$



 39 42  0  0  0  0  0  0  0  0999 V2000
    3.8444   63.3547   69.9982 C   0  0  0  0  0  0  0  0  0  0  0  0
    2.9669   62.2595   69.3804 C   0  0  0  0  0  0  0  0  0  0  0  0
    1.6231   62.0886   70.0966 C   0  0  0  0  0  0  0  0  0  0  0  0
    1.6640   62.5447   71.5601 C   0  0  0  0  0  0  0  0  0  0  0  0
    0.7083   61.7862   72.4913 C   0  0  0  0  0  0  0  0  0  0  0  0
    0.9261   62.0848   73.9759 C   0  0  0  0  0  0  0  0  0  0  0  0
    2.1790   61.5778   74.5225 N   0  0  0  0  0  0  0  0  0  0  0  0
    2.9305   61.9839   73.9651 H   0  0  0  0  0  0  0  0  0  0  0  0
    4.0692   57.9338   69.7160 O   0  0  0  0  0  0  0  0  0  0  0  0
    3.7130   58.4097   70.7881 C   0  0  0  0  0  0  0  0  0  0  0  0
    4.4759   59.5014   71.4363 C   0  0  0  0  0  0  0  0  0  0  0  0
    4.0462   60.0058   72.6015 C   0  0  0  0  0  0  0  0  0  0  0  0
    2.8318   59.5153   73.2416 C   0  0  0  0  0  0  0  0  0  0  0  0
    2.1619   58.4956   72.6646 C   0  0  0  0  0  0  0  0  0  0  0  0
    2.6050   57.9720   71.4681 N   0  0  0  0  0  0  0  0  0  0  0  0
    0.9223   57.8776   73.2510 C   0  0  0  0  0  0  0  0  0  0  0  0
    0.2723   58.7358   74.3345 C   0  0  0  0  0  0  0  0  0  0  0  0
    1.3135   59.3196   75.2867 C   0  0  0  0  0  0  0  0  0  0  0  0
    2.4201   60.1282   74.5711 C   0  0  0  0  0  0  0  0  0  0  0  0
    2.0896   57.2315   71.0742 H   0  0  0  0  0  0  0  0  0  0  0  0
    3.6125   64.7360   69.3865 C   0  0  0  0  0  0  0  0  0  0  0  0
    4.8132   65.2934   68.6108 C   0  0  0  0  0  0  0  0  0  0  0  0
    4.6155   65.3860   67.0925 C   0  0  0  0  0  0  0  0  0  0  0  0
    3.8094   66.6249   66.6809 C   0  0  0  0  0  0  0  0  0  0  0  0
    3.7287   66.8220   65.2326 N   0  0  0  0  0  0  0  0  0  0  0  0
    2.9172   66.3065   64.8918 H   0  0  0  0  0  0  0  0  0  0  0  0
    3.5996   68.2192   64.7785 C   0  0  0  0  0  0  0  0  0  0  0  0
    4.9690   68.9011   64.5609 C   0  0  0  0  0  0  0  0  0  0  0  0
    5.7021   68.3055   63.3657 C   0  0  0  0  0  0  0  0  0  0  0  0
    4.8887   68.5007   62.0886 C   0  0  0  0  0  0  0  0  0  0  0  0
    3.3982   68.3653   62.2777 C   0  0  0  0  0  0  0  0  0  0  0  0
    2.6502   68.3925   61.1215 N   0  0  0  0  0  0  0  0  0  0  0  0
    1.2886   68.2870   61.0706 C   0  0  0  0  0  0  0  0  0  0  0  0
    0.6587   68.3134   60.0203 O   0  0  0  0  0  0  0  0  0  0  0  0
    0.6071   68.1409   62.3694 C   0  0  0  0  0  0  0  0  0  0  0  0
    1.3219   68.1145   63.5060 C   0  0  0  0  0  0  0  0  0  0  0  0
    0.4005   67.9136   65.1309 Br  0  0  0  0  0  0  0  0  0  0  0  0
    2.7887   68.2269   63.4786 C   0  0  0  0  0  0  0  0  0  0  0  0
    3.1319   68.4955   60.2691 H   0  0  0  0  0  0  0  0  0  0  0  0
  9 10  2  0
 10 11  1  0
 11 12  2  0
 12 13  1  0
 13 14  2  0
 14 15  1  0
 14 16  1  0
 16 17  1  0
 17 18  1  0
 18 19  1  0
 19  7  1  0
  7  6  1  0
  6  5  1  0
  5  4  1  0
  4  3  1  0
  3  2  1  0
  2  1  1  0
  1 21  1  0
 21 22  1  0
 22 23  1  0
 23 24  1  0
 24 25  1  0
 27 25  1  0
 27 28  1  0
 28 29  1  0
 29 30  1  0
 30 31  1  0
 31 32  1  0
 32 33  1  0
 33 34  2  0
 33 35  1  0
 35 36  2  0
 36 37  1  0
 36 38  1  0
 15 10  1  0
 38 27  1  0
 19 13  1  0
 38 31  2  0
 15 20  1  0
  7  8  1  0
 25 26  1  0
 32 39  1  0
M  END
> <minimizedAffinity>
-10.28887

> <CNNscore>
0.8357438445

> <CNNaffinity>
8.4361085892

> <CNN_VS>
7.0504260063

> <CNNaffinity_variance>
0.3106566370

$$$$



 39 42  0  0  0  0  0  0  0  0999 V2000
    1.0858   64.9000   69.9804 C   0  0  0  0  0  0  0  0  0  0  0  0
    1.0039   66.4312   69.9764 C   0  0  0  0  0  0  0  0  0  0  0  0
    2.3642   67.1067   69.7733 C   0  0  0  0  0  0  0  0  0  0  0  0
    3.4431   66.1387   69.2730 C   0  0  0  0  0  0  0  0  0  0  0  0
    3.8403   66.3310   67.8029 C   0  0  0  0  0  0  0  0  0  0  0  0
    3.0569   67.4355   67.0910 C   0  0  0  0  0  0  0  0  0  0  0  0
    3.6791   67.9350   65.8706 N   0  0  0  0  0  0  0  0  0  0  0  0
    3.5872   68.9507   65.8863 H   0  0  0  0  0  0  0  0  0  0  0  0
    4.7771   62.3158   63.1925 O   0  0  0  0  0  0  0  0  0  0  0  0
    4.4180   63.4497   63.4890 C   0  0  0  0  0  0  0  0  0  0  0  0
    3.6546   63.7147   64.7304 C   0  0  0  0  0  0  0  0  0  0  0  0
    3.2925   64.9705   65.0276 C   0  0  0  0  0  0  0  0  0  0  0  0
    3.6472   66.0897   64.1634 C   0  0  0  0  0  0  0  0  0  0  0  0
    4.3107   65.8369   63.0156 C   0  0  0  0  0  0  0  0  0  0  0  0
    4.6799   64.5448   62.7056 N   0  0  0  0  0  0  0  0  0  0  0  0
    4.6938   66.9018   62.0248 C   0  0  0  0  0  0  0  0  0  0  0  0
    4.6152   68.3164   62.5955 C   0  0  0  0  0  0  0  0  0  0  0  0
    3.3484   68.5167   63.4243 C   0  0  0  0  0  0  0  0  0  0  0  0
    3.1848   67.4826   64.5619 C   0  0  0  0  0  0  0  0  0  0  0  0
    5.1660   64.3979   61.8621 H   0  0  0  0  0  0  0  0  0  0  0  0
    0.2624   64.2506   71.0923 C   0  0  0  0  0  0  0  0  0  0  0  0
    0.4280   62.7287   71.1947 C   0  0  0  0  0  0  0  0  0  0  0  0
   -0.6441   62.0164   72.0291 C   0  0  0  0  0  0  0  0  0  0  0  0
   -0.0509   61.2692   73.2308 C   0  0  0  0  0  0  0  0  0  0  0  0
   -0.0173   59.8153   73.0635 N   0  0  0  0  0  0  0  0  0  0  0  0
    0.1106   59.6178   72.0711 H   0  0  0  0  0  0  0  0  0  0  0  0
    1.0413   59.1055   73.8055 C   0  0  0  0  0  0  0  0  0  0  0  0
    0.4757   58.1775   74.9040 C   0  0  0  0  0  0  0  0  0  0  0  0
   -0.2617   56.9887   74.3010 C   0  0  0  0  0  0  0  0  0  0  0  0
    0.6845   56.1529   73.4423 C   0  0  0  0  0  0  0  0  0  0  0  0
    1.6933   56.9625   72.6659 C   0  0  0  0  0  0  0  0  0  0  0  0
    2.4635   56.2498   71.7740 N   0  0  0  0  0  0  0  0  0  0  0  0
    3.4330   56.7889   70.9758 C   0  0  0  0  0  0  0  0  0  0  0  0
    4.0964   56.1208   70.1922 O   0  0  0  0  0  0  0  0  0  0  0  0
    3.6434   58.2413   71.1134 C   0  0  0  0  0  0  0  0  0  0  0  0
    2.9019   58.9503   71.9800 C   0  0  0  0  0  0  0  0  0  0  0  0
    3.2057   60.8002   72.1038 Br  0  0  0  0  0  0  0  0  0  0  0  0
    1.8701   58.2979   72.8014 C   0  0  0  0  0  0  0  0  0  0  0  0
    2.3039   55.2806   71.7064 H   0  0  0  0  0  0  0  0  0  0  0  0
  9 10  2  0
 10 11  1  0
 11 12  2  0
 12 13  1  0
 13 14  2  0
 14 15  1  0
 14 16  1  0
 16 17  1  0
 17 18  1  0
 18 19  1  0
 19  7  1  0
  7  6  1  0
  6  5  1  0
  5  4  1  0
  4  3  1  0
  3  2  1  0
  2  1  1  0
  1 21  1  0
 21 22  1  0
 22 23  1  0
 23 24  1  0
 24 25  1  0
 27 25  1  0
 27 28  1  0
 28 29  1  0
 29 30  1  0
 30 31  1  0
 31 32  1  0
 32 33  1  0
 33 34  2  0
 33 35  1  0
 35 36  2  0
 36 37  1  0
 36 38  1  0
 15 10  1  0
 38 27  1  0
 19 13  1  0
 38 31  2  0
 15 20  1  0
  7  8  1  0
 25 26  1  0
 32 39  1  0
M  END
> <minimizedAffinity>
-9.81759

> <CNNscore>
0.8264587522

> <CNNaffinity>
8.4255113602

> <CNN_VS>
6.9633374214

> <CNNaffinity_variance>
0.0609756224

$$$$



 39 42  0  0  0  0  0  0  0  0999 V2000
    3.4994   63.0114   70.4439 C   0  0  0  0  0  0  0  0  0  0  0  0
    4.7274   63.9294   70.4712 C   0  0  0  0  0  0  0  0  0  0  0  0
    5.0244   64.5788   69.1154 C   0  0  0  0  0  0  0  0  0  0  0  0
    3.9777   65.6243   68.7118 C   0  0  0  0  0  0  0  0  0  0  0  0
    3.9832   65.9895   67.2210 C   0  0  0  0  0  0  0  0  0  0  0  0
    3.0748   67.1696   66.8709 C   0  0  0  0  0  0  0  0  0  0  0  0
    2.6159   67.1965   65.4872 N   0  0  0  0  0  0  0  0  0  0  0  0
    2.9669   66.3481   65.0428 H   0  0  0  0  0  0  0  0  0  0  0  0
    0.4417   68.2993   59.6554 O   0  0  0  0  0  0  0  0  0  0  0  0
    1.0014   68.3140   60.7459 C   0  0  0  0  0  0  0  0  0  0  0  0
    0.2261   68.3344   62.0079 C   0  0  0  0  0  0  0  0  0  0  0  0
    0.8743   68.3352   63.1811 C   0  0  0  0  0  0  0  0  0  0  0  0
    2.3302   68.3001   63.2464 C   0  0  0  0  0  0  0  0  0  0  0  0
    3.0310   68.3190   62.0931 C   0  0  0  0  0  0  0  0  0  0  0  0
    2.3660   68.3230   60.8849 N   0  0  0  0  0  0  0  0  0  0  0  0
    4.5339   68.3281   62.0334 C   0  0  0  0  0  0  0  0  0  0  0  0
    5.1946   67.9300   63.3517 C   0  0  0  0  0  0  0  0  0  0  0  0
    4.5107   68.5942   64.5445 C   0  0  0  0  0  0  0  0  0  0  0  0
    2.9908   68.3201   64.6161 C   0  0  0  0  0  0  0  0  0  0  0  0
    2.9092   68.3330   60.0639 H   0  0  0  0  0  0  0  0  0  0  0  0
    3.8228   61.5766   70.0285 C   0  0  0  0  0  0  0  0  0  0  0  0
    2.9884   60.5076   70.7462 C   0  0  0  0  0  0  0  0  0  0  0  0
    3.6703   59.8618   71.9591 C   0  0  0  0  0  0  0  0  0  0  0  0
    3.1712   60.4410   73.2893 C   0  0  0  0  0  0  0  0  0  0  0  0
    2.1387   59.6292   73.9360 N   0  0  0  0  0  0  0  0  0  0  0  0
    1.6397   60.2260   74.5957 H   0  0  0  0  0  0  0  0  0  0  0  0
    1.1422   59.0180   73.0367 C   0  0  0  0  0  0  0  0  0  0  0  0
    1.3566   57.4981   72.8593 C   0  0  0  0  0  0  0  0  0  0  0  0
    1.0477   56.7401   74.1442 C   0  0  0  0  0  0  0  0  0  0  0  0
   -0.4089   56.9496   74.5508 C   0  0  0  0  0  0  0  0  0  0  0  0
   -0.9333   58.3380   74.2802 C   0  0  0  0  0  0  0  0  0  0  0  0
   -2.1948   58.5993   74.7671 N   0  0  0  0  0  0  0  0  0  0  0  0
   -2.8528   59.7892   74.6302 C   0  0  0  0  0  0  0  0  0  0  0  0
   -3.9754   59.9837   75.0802 O   0  0  0  0  0  0  0  0  0  0  0  0
   -2.1284   60.8426   73.8966 C   0  0  0  0  0  0  0  0  0  0  0  0
   -0.8983   60.6031   73.4138 C   0  0  0  0  0  0  0  0  0  0  0  0
   -0.0179   61.9872   72.4979 Br  0  0  0  0  0  0  0  0  0  0  0  0
   -0.2520   59.2957   73.6082 C   0  0  0  0  0  0  0  0  0  0  0  0
   -2.6565   57.8757   75.2492 H   0  0  0  0  0  0  0  0  0  0  0  0
  9 10  2  0
 10 11  1  0
 11 12  2  0
 12 13  1  0
 13 14  2  0
 14 15  1  0
 14 16  1  0
 16 17  1  0
 17 18  1  0
 18 19  1  0
 19  7  1  0
  7  6  1  0
  6  5  1  0
  5  4  1  0
  4  3  1  0
  3  2  1  0
  2  1  1  0
  1 21  1  0
 21 22  1  0
 22 23  1  0
 23 24  1  0
 24 25  1  0
 27 25  1  0
 27 28  1  0
 28 29  1  0
 29 30  1  0
 30 31  1  0
 31 32  1  0
 32 33  1  0
 33 34  2  0
 33 35  1  0
 35 36  2  0
 36 37  1  0
 36 38  1  0
 15 10  1  0
 38 27  1  0
 19 13  1  0
 38 31  2  0
 15 20  1  0
  7  8  1  0
 25 26  1  0
 32 39  1  0
M  END
> <minimizedAffinity>
-9.89224

> <CNNscore>
0.7637382746

> <CNNaffinity>
8.3826599121

> <CNN_VS>
6.4021582603

> <CNNaffinity_variance>
0.0169514716

$$$$



 39 42  0  0  0  0  0  0  0  0999 V2000
    4.7744   64.7960   69.6901 C   0  0  0  0  0  0  0  0  0  0  0  0
    3.8503   66.0152   69.5849 C   0  0  0  0  0  0  0  0  0  0  0  0
    3.5012   66.3835   68.1390 C   0  0  0  0  0  0  0  0  0  0  0  0
    4.4962   65.8140   67.1206 C   0  0  0  0  0  0  0  0  0  0  0  0
    3.8578   64.9710   66.0081 C   0  0  0  0  0  0  0  0  0  0  0  0
    2.9840   65.7780   65.0461 C   0  0  0  0  0  0  0  0  0  0  0  0
    2.6457   67.1189   65.5082 N   0  0  0  0  0  0  0  0  0  0  0  0
    1.6369   67.1341   65.6584 H   0  0  0  0  0  0  0  0  0  0  0  0
    0.4228   68.2887   59.7079 O   0  0  0  0  0  0  0  0  0  0  0  0
    0.9814   68.2975   60.7990 C   0  0  0  0  0  0  0  0  0  0  0  0
    0.2062   68.2468   62.0603 C   0  0  0  0  0  0  0  0  0  0  0  0
    0.8540   68.2433   63.2337 C   0  0  0  0  0  0  0  0  0  0  0  0
    2.3101   68.2720   63.2996 C   0  0  0  0  0  0  0  0  0  0  0  0
    3.0090   68.3555   62.1481 C   0  0  0  0  0  0  0  0  0  0  0  0
    2.3443   68.3640   60.9397 N   0  0  0  0  0  0  0  0  0  0  0  0
    4.5100   68.4340   62.0903 C   0  0  0  0  0  0  0  0  0  0  0  0
    5.1883   68.0286   63.3974 C   0  0  0  0  0  0  0  0  0  0  0  0
    4.4753   68.6270   64.6079 C   0  0  0  0  0  0  0  0  0  0  0  0
    2.9693   68.2826   64.6700 C   0  0  0  0  0  0  0  0  0  0  0  0
    2.8864   68.4220   60.1199 H   0  0  0  0  0  0  0  0  0  0  0  0
    4.1229   63.5980   70.3803 C   0  0  0  0  0  0  0  0  0  0  0  0
    2.7446   63.2199   69.8224 C   0  0  0  0  0  0  0  0  0  0  0  0
    1.5578   63.9035   70.5132 C   0  0  0  0  0  0  0  0  0  0  0  0
    0.3986   62.9349   70.7817 C   0  0  0  0  0  0  0  0  0  0  0  0
    0.8301   61.5759   71.1138 N   0  0  0  0  0  0  0  0  0  0  0  0
    1.6844   61.3829   70.5911 H   0  0  0  0  0  0  0  0  0  0  0  0
    1.1046   61.3173   72.5396 C   0  0  0  0  0  0  0  0  0  0  0  0
    0.0305   61.9242   73.4700 C   0  0  0  0  0  0  0  0  0  0  0  0
   -1.3021   61.2003   73.3258 C   0  0  0  0  0  0  0  0  0  0  0  0
   -1.1539   59.7281   73.7019 C   0  0  0  0  0  0  0  0  0  0  0  0
    0.1562   59.1107   73.2796 C   0  0  0  0  0  0  0  0  0  0  0  0
    0.2601   57.7514   73.4756 N   0  0  0  0  0  0  0  0  0  0  0  0
    1.3581   56.9999   73.1640 C   0  0  0  0  0  0  0  0  0  0  0  0
    1.4111   55.7906   73.3518 O   0  0  0  0  0  0  0  0  0  0  0  0
    2.4957   57.7357   72.5833 C   0  0  0  0  0  0  0  0  0  0  0  0
    2.4111   59.0616   72.3876 C   0  0  0  0  0  0  0  0  0  0  0  0
    3.8876   59.9446   71.6326 Br  0  0  0  0  0  0  0  0  0  0  0  0
    1.1898   59.8011   72.7430 C   0  0  0  0  0  0  0  0  0  0  0  0
   -0.5137   57.2870   73.8691 H   0  0  0  0  0  0  0  0  0  0  0  0
  9 10  2  0
 10 11  1  0
 11 12  2  0
 12 13  1  0
 13 14  2  0
 14 15  1  0
 14 16  1  0
 16 17  1  0
 17 18  1  0
 18 19  1  0
 19  7  1  0
  7  6  1  0
  6  5  1  0
  5  4  1  0
  4  3  1  0
  3  2  1  0
  2  1  1  0
  1 21  1  0
 21 22  1  0
 22 23  1  0
 23 24  1  0
 24 25  1  0
 27 25  1  0
 27 28  1  0
 28 29  1  0
 29 30  1  0
 30 31  1  0
 31 32  1  0
 32 33  1  0
 33 34  2  0
 33 35  1  0
 35 36  2  0
 36 37  1  0
 36 38  1  0
 15 10  1  0
 38 27  1  0
 19 13  1  0
 38 31  2  0
 15 20  1  0
  7  8  1  0
 25 26  1  0
 32 39  1  0
M  END
> <minimizedAffinity>
-10.43311

> <CNNscore>
0.6626694798

> <CNNaffinity>
8.3509502411

> <CNN_VS>
5.5339198112

> <CNNaffinity_variance>
0.0762355253

$$$$



 39 42  0  0  0  0  0  0  0  0999 V2000
    3.8490   61.6347   70.1064 C   0  0  0  0  0  0  0  0  0  0  0  0
    3.8672   63.1004   70.5566 C   0  0  0  0  0  0  0  0  0  0  0  0
    3.7474   64.0897   69.3925 C   0  0  0  0  0  0  0  0  0  0  0  0
    2.8855   65.3114   69.7333 C   0  0  0  0  0  0  0  0  0  0  0  0
    3.2172   66.5718   68.9224 C   0  0  0  0  0  0  0  0  0  0  0  0
    3.7303   66.2808   67.5109 C   0  0  0  0  0  0  0  0  0  0  0  0
    3.6377   67.4032   66.5849 N   0  0  0  0  0  0  0  0  0  0  0  0
    3.0109   68.0864   67.0102 H   0  0  0  0  0  0  0  0  0  0  0  0
    4.8193   62.3465   62.9811 O   0  0  0  0  0  0  0  0  0  0  0  0
    4.4449   63.4079   63.4670 C   0  0  0  0  0  0  0  0  0  0  0  0
    3.6707   63.4450   64.7293 C   0  0  0  0  0  0  0  0  0  0  0  0
    3.2918   64.6263   65.2370 C   0  0  0  0  0  0  0  0  0  0  0  0
    3.6384   65.8822   64.5831 C   0  0  0  0  0  0  0  0  0  0  0  0
    4.3119   65.8397   63.4143 C   0  0  0  0  0  0  0  0  0  0  0  0
    4.6985   64.6251   62.8877 N   0  0  0  0  0  0  0  0  0  0  0  0
    4.6883   67.0645   62.6265 C   0  0  0  0  0  0  0  0  0  0  0  0
    4.5893   68.3576   63.4334 C   0  0  0  0  0  0  0  0  0  0  0  0
    3.3151   68.3974   64.2740 C   0  0  0  0  0  0  0  0  0  0  0  0
    3.1569   67.1797   65.2136 C   0  0  0  0  0  0  0  0  0  0  0  0
    5.1914   64.6322   62.0355 H   0  0  0  0  0  0  0  0  0  0  0  0
    4.4527   60.6765   71.1327 C   0  0  0  0  0  0  0  0  0  0  0  0
    3.4641   59.6456   71.6929 C   0  0  0  0  0  0  0  0  0  0  0  0
    3.1978   59.7574   73.1994 C   0  0  0  0  0  0  0  0  0  0  0  0
    3.7671   58.5687   73.9849 C   0  0  0  0  0  0  0  0  0  0  0  0
    2.8999   57.3893   73.9812 N   0  0  0  0  0  0  0  0  0  0  0  0
    3.4343   56.6073   74.3597 H   0  0  0  0  0  0  0  0  0  0  0  0
    1.6531   57.5037   74.7606 C   0  0  0  0  0  0  0  0  0  0  0  0
    0.3951   57.5479   73.8643 C   0  0  0  0  0  0  0  0  0  0  0  0
    0.1531   56.2081   73.1808 C   0  0  0  0  0  0  0  0  0  0  0  0
   -0.0666   55.1107   74.2193 C   0  0  0  0  0  0  0  0  0  0  0  0
    0.7857   55.2498   75.4562 C   0  0  0  0  0  0  0  0  0  0  0  0
    0.7155   54.1994   76.3443 N   0  0  0  0  0  0  0  0  0  0  0  0
    1.4041   54.1267   77.5225 C   0  0  0  0  0  0  0  0  0  0  0  0
    1.3164   53.1727   78.2859 O   0  0  0  0  0  0  0  0  0  0  0  0
    2.2697   55.2788   77.8323 C   0  0  0  0  0  0  0  0  0  0  0  0
    2.3477   56.3118   76.9776 C   0  0  0  0  0  0  0  0  0  0  0  0
    3.4768   57.7471   77.4189 Br  0  0  0  0  0  0  0  0  0  0  0  0
    1.5794   56.3137   75.7228 C   0  0  0  0  0  0  0  0  0  0  0  0
    0.1260   53.4456   76.1133 H   0  0  0  0  0  0  0  0  0  0  0  0
  9 10  2  0
 10 11  1  0
 11 12  2  0
 12 13  1  0
 13 14  2  0
 14 15  1  0
 14 16  1  0
 16 17  1  0
 17 18  1  0
 18 19  1  0
 19  7  1  0
  7  6  1  0
  6  5  1  0
  5  4  1  0
  4  3  1  0
  3  2  1  0
  2  1  1  0
  1 21  1  0
 21 22  1  0
 22 23  1  0
 23 24  1  0
 24 25  1  0
 27 25  1  0
 27 28  1  0
 28 29  1  0
 29 30  1  0
 30 31  1  0
 31 32  1  0
 32 33  1  0
 33 34  2  0
 33 35  1  0
 35 36  2  0
 36 37  1  0
 36 38  1  0
 15 10  1  0
 38 27  1  0
 19 13  1  0
 38 31  2  0
 15 20  1  0
  7  8  1  0
 25 26  1  0
 32 39  1  0
M  END
> <minimizedAffinity>
-9.04701

> <CNNscore>
0.6343640089

> <CNNaffinity>
7.9665055275

> <CNN_VS>
5.0536642075

> <CNNaffinity_variance>
0.0117827095

$$$$



 39 42  0  0  0  0  0  0  0  0999 V2000
    3.3291   63.0332   69.7256 C   0  0  0  0  0  0  0  0  0  0  0  0
    4.5494   63.8074   70.2382 C   0  0  0  0  0  0  0  0  0  0  0  0
    4.5636   65.2734   69.7923 C   0  0  0  0  0  0  0  0  0  0  0  0
    3.6303   65.5461   68.6065 C   0  0  0  0  0  0  0  0  0  0  0  0
    2.7908   66.8244   68.7367 C   0  0  0  0  0  0  0  0  0  0  0  0
    1.7879   67.0232   67.5987 C   0  0  0  0  0  0  0  0  0  0  0  0
    2.0039   66.1665   66.4389 N   0  0  0  0  0  0  0  0  0  0  0  0
    1.5046   65.2952   66.6179 H   0  0  0  0  0  0  0  0  0  0  0  0
    5.4815   68.9402   61.9482 O   0  0  0  0  0  0  0  0  0  0  0  0
    5.0273   68.2497   62.8535 C   0  0  0  0  0  0  0  0  0  0  0  0
    4.5528   68.8559   64.1190 C   0  0  0  0  0  0  0  0  0  0  0  0
    4.0489   68.0689   65.0799 C   0  0  0  0  0  0  0  0  0  0  0  0
    3.9407   66.6259   64.9032 C   0  0  0  0  0  0  0  0  0  0  0  0
    4.4086   66.0761   63.7629 C   0  0  0  0  0  0  0  0  0  0  0  0
    4.9320   66.8836   62.7749 N   0  0  0  0  0  0  0  0  0  0  0  0
    4.3906   64.5982   63.4840 C   0  0  0  0  0  0  0  0  0  0  0  0
    3.4632   63.8179   64.4135 C   0  0  0  0  0  0  0  0  0  0  0  0
    3.6006   64.2825   65.8616 C   0  0  0  0  0  0  0  0  0  0  0  0
    3.3729   65.8004   66.0473 C   0  0  0  0  0  0  0  0  0  0  0  0
    5.2605   66.4486   61.9550 H   0  0  0  0  0  0  0  0  0  0  0  0
    2.5854   62.2749   70.8246 C   0  0  0  0  0  0  0  0  0  0  0  0
    1.1954   62.8368   71.1505 C   0  0  0  0  0  0  0  0  0  0  0  0
    1.0244   63.3459   72.5873 C   0  0  0  0  0  0  0  0  0  0  0  0
    1.1899   62.2305   73.6278 C   0  0  0  0  0  0  0  0  0  0  0  0
    1.1510   60.8822   73.0588 N   0  0  0  0  0  0  0  0  0  0  0  0
    1.5935   60.9178   72.1405 H   0  0  0  0  0  0  0  0  0  0  0  0
    1.8246   59.8314   73.8445 C   0  0  0  0  0  0  0  0  0  0  0  0
    0.8867   59.1725   74.8808 C   0  0  0  0  0  0  0  0  0  0  0  0
   -0.1925   58.3388   74.2018 C   0  0  0  0  0  0  0  0  0  0  0  0
    0.4374   57.2166   73.3802 C   0  0  0  0  0  0  0  0  0  0  0  0
    1.7218   57.6020   72.6891 C   0  0  0  0  0  0  0  0  0  0  0  0
    2.2356   56.6589   71.8268 N   0  0  0  0  0  0  0  0  0  0  0  0
    3.3860   56.8071   71.1042 C   0  0  0  0  0  0  0  0  0  0  0  0
    3.8098   55.9445   70.3447 O   0  0  0  0  0  0  0  0  0  0  0  0
    4.1035   58.0807   71.2938 C   0  0  0  0  0  0  0  0  0  0  0  0
    3.6167   59.0098   72.1324 C   0  0  0  0  0  0  0  0  0  0  0  0
    4.5672   60.6189   72.3247 Br  0  0  0  0  0  0  0  0  0  0  0  0
    2.3655   58.7790   72.8713 C   0  0  0  0  0  0  0  0  0  0  0  0
    1.7374   55.8161   71.7233 H   0  0  0  0  0  0  0  0  0  0  0  0
  9 10  2  0
 10 11  1  0
 11 12  2  0
 12 13  1  0
 13 14  2  0
 14 15  1  0
 14 16  1  0
 16 17  1  0
 17 18  1  0
 18 19  1  0
 19  7  1  0
  7  6  1  0
  6  5  1  0
  5  4  1  0
  4  3  1  0
  3  2  1  0
  2  1  1  0
  1 21  1  0
 21 22  1  0
 22 23  1  0
 23 24  1  0
 24 25  1  0
 27 25  1  0
 27 28  1  0
 28 29  1  0
 29 30  1  0
 30 31  1  0
 31 32  1  0
 32 33  1  0
 33 34  2  0
 33 35  1  0
 35 36  2  0
 36 37  1  0
 36 38  1  0
 15 10  1  0
 38 27  1  0
 19 13  1  0
 38 31  2  0
 15 20  1  0
  7  8  1  0
 25 26  1  0
 32 39  1  0
M  END
> <minimizedAffinity>
-9.51866

> <CNNscore>
0.6051896811

> <CNNaffinity>
8.1747112274

> <CNN_VS>
4.9472508430

> <CNNaffinity_variance>
0.0467900224

$$$$



 39 42  0  0  0  0  0  0  0  0999 V2000
    3.4796   63.1600   69.0198 C   0  0  0  0  0  0  0  0  0  0  0  0
    4.5039   64.1329   69.6160 C   0  0  0  0  0  0  0  0  0  0  0  0
    5.1061   65.0850   68.5773 C   0  0  0  0  0  0  0  0  0  0  0  0
    4.0879   65.5437   67.5264 C   0  0  0  0  0  0  0  0  0  0  0  0
    3.1038   66.6146   68.0168 C   0  0  0  0  0  0  0  0  0  0  0  0
    2.4628   67.4268   66.8899 C   0  0  0  0  0  0  0  0  0  0  0  0
    3.0379   67.1977   65.5697 N   0  0  0  0  0  0  0  0  0  0  0  0
    3.9233   66.7120   65.7133 H   0  0  0  0  0  0  0  0  0  0  0  0
    0.5140   68.2267   59.8667 O   0  0  0  0  0  0  0  0  0  0  0  0
    1.1290   68.2617   60.9265 C   0  0  0  0  0  0  0  0  0  0  0  0
    0.4209   68.2428   62.2275 C   0  0  0  0  0  0  0  0  0  0  0  0
    1.1292   68.2676   63.3651 C   0  0  0  0  0  0  0  0  0  0  0  0
    2.5867   68.2965   63.3540 C   0  0  0  0  0  0  0  0  0  0  0  0
    3.2244   68.3509   62.1658 C   0  0  0  0  0  0  0  0  0  0  0  0
    2.4974   68.3303   60.9940 N   0  0  0  0  0  0  0  0  0  0  0  0
    4.7203   68.4265   62.0276 C   0  0  0  0  0  0  0  0  0  0  0  0
    5.4662   68.0527   63.3070 C   0  0  0  0  0  0  0  0  0  0  0  0
    4.8174   68.6814   64.5380 C   0  0  0  0  0  0  0  0  0  0  0  0
    3.3168   68.3401   64.6873 C   0  0  0  0  0  0  0  0  0  0  0  0
    2.9958   68.3676   60.1458 H   0  0  0  0  0  0  0  0  0  0  0  0
    2.6282   62.4531   70.0740 C   0  0  0  0  0  0  0  0  0  0  0  0
    1.7274   63.3891   70.8904 C   0  0  0  0  0  0  0  0  0  0  0  0
    1.1473   62.7742   72.1704 C   0  0  0  0  0  0  0  0  0  0  0  0
   -0.3064   62.3162   71.9937 C   0  0  0  0  0  0  0  0  0  0  0  0
   -0.5287   60.9115   72.3410 N   0  0  0  0  0  0  0  0  0  0  0  0
   -0.0854   60.3382   71.6231 H   0  0  0  0  0  0  0  0  0  0  0  0
   -0.0048   60.4806   73.6505 C   0  0  0  0  0  0  0  0  0  0  0  0
   -0.8733   60.9755   74.8289 C   0  0  0  0  0  0  0  0  0  0  0  0
   -2.2290   60.2810   74.8494 C   0  0  0  0  0  0  0  0  0  0  0  0
   -2.0544   58.7733   75.0148 C   0  0  0  0  0  0  0  0  0  0  0  0
   -0.8611   58.2052   74.2873 C   0  0  0  0  0  0  0  0  0  0  0  0
   -0.7602   56.8317   74.2986 N   0  0  0  0  0  0  0  0  0  0  0  0
    0.2414   56.1182   73.7025 C   0  0  0  0  0  0  0  0  0  0  0  0
    0.2949   54.8948   73.7329 O   0  0  0  0  0  0  0  0  0  0  0  0
    1.2729   56.9133   73.0123 C   0  0  0  0  0  0  0  0  0  0  0  0
    1.1899   58.2536   72.9938 C   0  0  0  0  0  0  0  0  0  0  0  0
    2.5266   59.2143   72.0882 Br  0  0  0  0  0  0  0  0  0  0  0  0
    0.0750   58.9506   73.6541 C   0  0  0  0  0  0  0  0  0  0  0  0
   -1.4611   56.3268   74.7709 H   0  0  0  0  0  0  0  0  0  0  0  0
  9 10  2  0
 10 11  1  0
 11 12  2  0
 12 13  1  0
 13 14  2  0
 14 15  1  0
 14 16  1  0
 16 17  1  0
 17 18  1  0
 18 19  1  0
 19  7  1  0
  7  6  1  0
  6  5  1  0
  5  4  1  0
  4  3  1  0
  3  2  1  0
  2  1  1  0
  1 21  1  0
 21 22  1  0
 22 23  1  0
 23 24  1  0
 24 25  1  0
 27 25  1  0
 27 28  1  0
 28 29  1  0
 29 30  1  0
 30 31  1  0
 31 32  1  0
 32 33  1  0
 33 34  2  0
 33 35  1  0
 35 36  2  0
 36 37  1  0
 36 38  1  0
 15 10  1  0
 38 27  1  0
 19 13  1  0
 38 31  2  0
 15 20  1  0
  7  8  1  0
 25 26  1  0
 32 39  1  0
M  END
> <minimizedAffinity>
-9.83693

> <CNNscore>
0.5852577686

> <CNNaffinity>
8.2947988510

> <CNN_VS>
4.8545956612

> <CNNaffinity_variance>
0.0030469690

$$$$



 39 42  0  0  0  0  0  0  0  0999 V2000
    2.0706   64.4899   69.5876 C   0  0  0  0  0  0  0  0  0  0  0  0
    3.2128   65.4836   69.8309 C   0  0  0  0  0  0  0  0  0  0  0  0
    4.5897   64.9208   69.4630 C   0  0  0  0  0  0  0  0  0  0  0  0
    5.0270   65.2936   68.0414 C   0  0  0  0  0  0  0  0  0  0  0  0
    4.2255   66.4388   67.4074 C   0  0  0  0  0  0  0  0  0  0  0  0
    3.9393   66.2414   65.9175 C   0  0  0  0  0  0  0  0  0  0  0  0
    2.8439   67.0492   65.3947 N   0  0  0  0  0  0  0  0  0  0  0  0
    2.2591   66.4280   64.8357 H   0  0  0  0  0  0  0  0  0  0  0  0
    0.4050   68.2972   59.6984 O   0  0  0  0  0  0  0  0  0  0  0  0
    1.0045   68.2912   60.7676 C   0  0  0  0  0  0  0  0  0  0  0  0
    0.2775   68.2248   62.0565 C   0  0  0  0  0  0  0  0  0  0  0  0
    0.9692   68.2053   63.2044 C   0  0  0  0  0  0  0  0  0  0  0  0
    2.4267   68.2316   63.2155 C   0  0  0  0  0  0  0  0  0  0  0  0
    3.0818   68.3293   62.0396 C   0  0  0  0  0  0  0  0  0  0  0  0
    2.3718   68.3544   60.8575 N   0  0  0  0  0  0  0  0  0  0  0  0
    4.5796   68.4070   61.9261 C   0  0  0  0  0  0  0  0  0  0  0  0
    5.3062   67.9838   63.2012 C   0  0  0  0  0  0  0  0  0  0  0  0
    4.6405   68.5671   64.4455 C   0  0  0  0  0  0  0  0  0  0  0  0
    3.1374   68.2235   64.5601 C   0  0  0  0  0  0  0  0  0  0  0  0
    2.8826   68.4225   60.0186 H   0  0  0  0  0  0  0  0  0  0  0  0
    1.0350   64.4679   70.7114 C   0  0  0  0  0  0  0  0  0  0  0  0
    1.1859   63.2935   71.6871 C   0  0  0  0  0  0  0  0  0  0  0  0
    0.2115   63.3078   72.8717 C   0  0  0  0  0  0  0  0  0  0  0  0
    0.7100   62.4619   74.0507 C   0  0  0  0  0  0  0  0  0  0  0  0
   -0.1912   62.4686   75.2044 N   0  0  0  0  0  0  0  0  0  0  0  0
   -1.0394   62.9672   74.9354 H   0  0  0  0  0  0  0  0  0  0  0  0
   -0.5891   61.1451   75.7191 C   0  0  0  0  0  0  0  0  0  0  0  0
   -1.7355   60.5103   74.9001 C   0  0  0  0  0  0  0  0  0  0  0  0
   -1.2690   60.1175   73.5041 C   0  0  0  0  0  0  0  0  0  0  0  0
   -0.1447   59.0879   73.5866 C   0  0  0  0  0  0  0  0  0  0  0  0
    0.8127   59.3078   74.7315 C   0  0  0  0  0  0  0  0  0  0  0  0
    1.9161   58.4836   74.7466 N   0  0  0  0  0  0  0  0  0  0  0  0
    2.9014   58.5165   75.6931 C   0  0  0  0  0  0  0  0  0  0  0  0
    3.8700   57.7669   75.6706 O   0  0  0  0  0  0  0  0  0  0  0  0
    2.7313   59.5168   76.7622 C   0  0  0  0  0  0  0  0  0  0  0  0
    1.6601   60.3266   76.7629 C   0  0  0  0  0  0  0  0  0  0  0  0
    1.5023   61.5907   78.1438 Br  0  0  0  0  0  0  0  0  0  0  0  0
    0.6434   60.2351   75.7032 C   0  0  0  0  0  0  0  0  0  0  0  0
    2.0012   57.8222   74.0224 H   0  0  0  0  0  0  0  0  0  0  0  0
  9 10  2  0
 10 11  1  0
 11 12  2  0
 12 13  1  0
 13 14  2  0
 14 15  1  0
 14 16  1  0
 16 17  1  0
 17 18  1  0
 18 19  1  0
 19  7  1  0
  7  6  1  0
  6  5  1  0
  5  4  1  0
  4  3  1  0
  3  2  1  0
  2  1  1  0
  1 21  1  0
 21 22  1  0
 22 23  1  0
 23 24  1  0
 24 25  1  0
 27 25  1  0
 27 28  1  0
 28 29  1  0
 29 30  1  0
 30 31  1  0
 31 32  1  0
 32 33  1  0
 33 34  2  0
 33 35  1  0
 35 36  2  0
 36 37  1  0
 36 38  1  0
 15 10  1  0
 38 27  1  0
 19 13  1  0
 38 31  2  0
 15 20  1  0
  7  8  1  0
 25 26  1  0
 32 39  1  0
M  END
> <minimizedAffinity>
-9.22139

> <CNNscore>
0.5653477311

> <CNNaffinity>
8.0945358276

> <CNN_VS>
4.5762276649

> <CNNaffinity_variance>
0.0236621555

$$$$
