


 45 48  0  0  0  0  0  0  0  0999 V2000
   47.0976   12.0650    1.2989 C   0  0  0  0  0  0  0  0  0  0  0  0
   47.9864   12.1269    0.2202 C   0  0  0  0  0  0  0  0  0  0  0  0
   48.8090   11.0419   -0.0625 C   0  0  0  0  0  0  0  0  0  0  0  0
   48.7455    9.8864    0.7242 C   0  0  0  0  0  0  0  0  0  0  0  0
   47.8732    9.7936    1.8160 C   0  0  0  0  0  0  0  0  0  0  0  0
   47.0339   10.8926    2.0717 C   0  0  0  0  0  0  0  0  0  0  0  0
   44.6101   14.8873    1.4188 C   0  0  0  0  0  0  0  0  0  0  0  0
   45.2395   15.2526    2.5974 C   0  0  0  0  0  0  0  0  0  0  0  0
   46.4777   14.1240    2.9931 S   0  0  0  0  0  0  0  0  0  0  0  0
   46.2171   13.1987    1.5780 C   0  0  0  0  0  0  0  0  0  0  0  0
   45.1814   13.7204    0.8370 C   0  0  0  0  0  0  0  0  0  0  0  0
   44.5696   13.0121   -0.8107 Br  0  0  0  0  0  0  0  0  0  0  0  0
   45.0378   16.3677    3.4971 C   0  0  0  0  0  0  0  0  0  0  0  0
   45.1296   17.5652    3.2564 O   0  0  0  0  0  0  0  0  0  0  0  0
   44.7332   15.9818    4.7550 O   0  0  0  0  0  0  0  0  0  0  0  0
   44.6581   15.0707    4.9604 H   0  0  0  0  0  0  0  0  0  0  0  0
   43.6442   15.6384    0.8358 O   0  0  0  0  0  0  0  0  0  0  0  0
   44.1736   16.4908   -0.1896 C   0  0  0  0  0  0  0  0  0  0  0  0
   43.3131   16.2713   -1.4389 C   0  0  0  0  0  0  0  0  0  0  0  0
   43.8625   16.8438   -2.7765 C   0  0  0  0  0  0  0  0  0  0  0  0
   42.6783   17.0760   -3.7526 C   0  0  0  0  0  0  0  0  0  0  0  0
   44.5387   18.2038   -2.5505 C   0  0  0  0  0  0  0  0  0  0  0  0
   44.8087   15.8083   -3.4748 C   0  0  0  0  0  0  0  0  0  0  0  0
   46.3299   17.6956   -4.4162 C   0  0  0  0  0  0  0  0  0  0  0  0
   45.9761   16.2055   -4.4370 C   0  0  0  0  0  0  0  0  0  0  0  0
   47.2286   15.4195   -3.9687 C   0  0  0  0  0  0  0  0  0  0  0  0
   45.6944   15.7752   -5.8889 C   0  0  0  0  0  0  0  0  0  0  0  0
   47.6870    8.6215    2.5592 N   0  0  0  0  0  0  0  0  0  0  0  0
   46.7850    8.2362    2.6446 H   0  0  0  0  0  0  0  0  0  0  0  0
   48.8254    7.9614    3.2126 C   0  0  0  0  0  0  0  0  0  0  0  0
   48.4076    7.3516    4.5629 C   0  0  0  0  0  0  0  0  0  0  0  0
   49.1039    6.0221    4.8491 C   0  0  0  0  0  0  0  0  0  0  0  0
   50.4888    6.1074    4.3566 N   0  0  0  0  0  0  0  0  0  0  0  0
   50.6378    6.2566    2.8947 C   0  0  0  0  0  0  0  0  0  0  0  0
   49.3925    6.8886    2.2750 C   0  0  0  0  0  0  0  0  0  0  0  0
   51.7474    5.4097    5.2303 S   0  0  0  0  0  0  0  0  0  0  0  0
   51.3675    5.3906    6.6292 O   0  0  0  0  0  0  0  0  0  0  0  0
   52.9588    6.0984    4.8198 O   0  0  0  0  0  0  0  0  0  0  0  0
   51.8953    3.7127    4.6341 C   0  0  0  0  0  0  0  0  0  0  0  0
   50.8333    2.7991    5.1850 C   0  0  0  0  0  0  0  0  0  0  0  0
   50.8947    2.3641    6.5153 C   0  0  0  0  0  0  0  0  0  0  0  0
   49.8922    1.5423    7.0392 C   0  0  0  0  0  0  0  0  0  0  0  0
   48.8198    1.1506    6.2414 C   0  0  0  0  0  0  0  0  0  0  0  0
   48.7417    1.5845    4.9220 C   0  0  0  0  0  0  0  0  0  0  0  0
   49.7375    2.4107    4.3979 C   0  0  0  0  0  0  0  0  0  0  0  0
 24 25  1  0
 25 26  1  0
 25 27  1  0
 25 23  1  0
 23 20  1  0
 20 21  1  0
 20 22  1  0
 20 19  1  0
 19 18  1  0
 18 17  1  0
 17  7  1  0
  7  8  2  0
  8 13  1  0
 13 14  2  0
 13 15  1  0
  8  9  1  0
  9 10  1  0
 10  1  1  0
  1  2  2  0
  2  3  1  0
  3  4  2  0
  4  5  1  0
  5 28  1  0
 28 30  1  0
 30 31  1  0
 31 32  1  0
 32 33  1  0
 33 36  1  0
 36 37  2  0
 36 38  2  0
 36 39  1  0
 39 40  1  0
 40 41  2  0
 41 42  1  0
 42 43  2  0
 43 44  1  0
 44 45  2  0
 33 34  1  0
 34 35  1  0
  5  6  2  0
 10 11  2  0
 11 12  1  0
 11  7  1  0
  6  1  1  0
 35 30  1  0
 45 40  1  0
 15 16  1  0
 28 29  1  0
M  END
> <minimizedAffinity>
-8.34157

> <CNNscore>
0.5485725403

> <CNNaffinity>
6.9420647621

> <CNN_VS>
3.8082261086

> <CNNaffinity_variance>
0.1014589071

$$$$



 45 48  0  0  0  0  0  0  0  0999 V2000
   47.3511   11.4709    0.7381 C   0  0  0  0  0  0  0  0  0  0  0  0
   48.4467   11.6269   -0.1178 C   0  0  0  0  0  0  0  0  0  0  0  0
   49.4303   10.6452   -0.1695 C   0  0  0  0  0  0  0  0  0  0  0  0
   49.3240    9.4993    0.6266 C   0  0  0  0  0  0  0  0  0  0  0  0
   48.2449    9.3148    1.5001 C   0  0  0  0  0  0  0  0  0  0  0  0
   47.2496   10.3081    1.5213 C   0  0  0  0  0  0  0  0  0  0  0  0
   44.5835   13.9646    0.1996 C   0  0  0  0  0  0  0  0  0  0  0  0
   44.9077   14.4388    1.4600 C   0  0  0  0  0  0  0  0  0  0  0  0
   46.1587   13.4846    2.1585 S   0  0  0  0  0  0  0  0  0  0  0  0
   46.3067   12.4940    0.7716 C   0  0  0  0  0  0  0  0  0  0  0  0
   45.3943   12.8615   -0.1909 C   0  0  0  0  0  0  0  0  0  0  0  0
   45.2244   12.0358   -1.8880 Br  0  0  0  0  0  0  0  0  0  0  0  0
   44.3958   15.5455    2.2389 C   0  0  0  0  0  0  0  0  0  0  0  0
   43.3742   16.1959    2.0559 O   0  0  0  0  0  0  0  0  0  0  0  0
   45.1969   15.8763    3.2747 O   0  0  0  0  0  0  0  0  0  0  0  0
   45.9832   15.3916    3.4323 H   0  0  0  0  0  0  0  0  0  0  0  0
   43.6796   14.5728   -0.6067 O   0  0  0  0  0  0  0  0  0  0  0  0
   44.2099   14.8189   -1.9169 C   0  0  0  0  0  0  0  0  0  0  0  0
   43.2486   15.7903   -2.6108 C   0  0  0  0  0  0  0  0  0  0  0  0
   42.1241   15.1603   -3.4810 C   0  0  0  0  0  0  0  0  0  0  0  0
   42.0907   15.8731   -4.8593 C   0  0  0  0  0  0  0  0  0  0  0  0
   42.4069   13.6742   -3.7444 C   0  0  0  0  0  0  0  0  0  0  0  0
   40.7195   15.4009   -2.8296 C   0  0  0  0  0  0  0  0  0  0  0  0
   39.6640   13.1543   -3.6051 C   0  0  0  0  0  0  0  0  0  0  0  0
   39.4256   14.6217   -3.2362 C   0  0  0  0  0  0  0  0  0  0  0  0
   38.4820   14.6486   -2.0053 C   0  0  0  0  0  0  0  0  0  0  0  0
   38.6769   15.3155   -4.3897 C   0  0  0  0  0  0  0  0  0  0  0  0
   48.0314    8.1373    2.2270 N   0  0  0  0  0  0  0  0  0  0  0  0
   47.1339    7.7333    2.2488 H   0  0  0  0  0  0  0  0  0  0  0  0
   49.1349    7.4990    2.9577 C   0  0  0  0  0  0  0  0  0  0  0  0
   48.7396    7.2211    4.4193 C   0  0  0  0  0  0  0  0  0  0  0  0
   49.3145    5.9067    4.9450 C   0  0  0  0  0  0  0  0  0  0  0  0
   50.6688    5.7381    4.3926 N   0  0  0  0  0  0  0  0  0  0  0  0
   50.7440    5.5750    2.9265 C   0  0  0  0  0  0  0  0  0  0  0  0
   49.5337    6.2045    2.2387 C   0  0  0  0  0  0  0  0  0  0  0  0
   51.9011    5.0938    5.3418 S   0  0  0  0  0  0  0  0  0  0  0  0
   51.5280    5.2550    6.7333 O   0  0  0  0  0  0  0  0  0  0  0  0
   53.1386    5.6769    4.8531 O   0  0  0  0  0  0  0  0  0  0  0  0
   51.9731    3.3339    4.9486 C   0  0  0  0  0  0  0  0  0  0  0  0
   50.7676    2.5719    5.4302 C   0  0  0  0  0  0  0  0  0  0  0  0
   49.7355    2.2451    4.5411 C   0  0  0  0  0  0  0  0  0  0  0  0
   48.6302    1.5087    4.9780 C   0  0  0  0  0  0  0  0  0  0  0  0
   48.5473    1.0905    6.3041 C   0  0  0  0  0  0  0  0  0  0  0  0
   49.5706    1.3994    7.1942 C   0  0  0  0  0  0  0  0  0  0  0  0
   50.6789    2.1285    6.7594 C   0  0  0  0  0  0  0  0  0  0  0  0
 24 25  1  0
 25 26  1  0
 25 27  1  0
 25 23  1  0
 23 20  1  0
 20 21  1  0
 20 22  1  0
 20 19  1  0
 19 18  1  0
 18 17  1  0
 17  7  1  0
  7  8  2  0
  8 13  1  0
 13 14  2  0
 13 15  1  0
  8  9  1  0
  9 10  1  0
 10  1  1  0
  1  2  2  0
  2  3  1  0
  3  4  2  0
  4  5  1  0
  5 28  1  0
 28 30  1  0
 30 31  1  0
 31 32  1  0
 32 33  1  0
 33 36  1  0
 36 37  2  0
 36 38  2  0
 36 39  1  0
 39 40  1  0
 40 41  2  0
 41 42  1  0
 42 43  2  0
 43 44  1  0
 44 45  2  0
 33 34  1  0
 34 35  1  0
  5  6  2  0
 10 11  2  0
 11 12  1  0
 11  7  1  0
  6  1  1  0
 35 30  1  0
 45 40  1  0
 15 16  1  0
 28 29  1  0
M  END
> <minimizedAffinity>
-7.32135

> <CNNscore>
0.3563202322

> <CNNaffinity>
6.6354613304

> <CNN_VS>
2.3643491268

> <CNNaffinity_variance>
0.1469628364

$$$$



 45 48  0  0  0  0  0  0  0  0999 V2000
   47.4018   11.4553    1.2677 C   0  0  0  0  0  0  0  0  0  0  0  0
   48.3228   11.4391    0.2148 C   0  0  0  0  0  0  0  0  0  0  0  0
   49.1550   10.3389    0.0394 C   0  0  0  0  0  0  0  0  0  0  0  0
   49.0692    9.2456    0.9085 C   0  0  0  0  0  0  0  0  0  0  0  0
   48.1642    9.2320    1.9773 C   0  0  0  0  0  0  0  0  0  0  0  0
   47.3162   10.3441    2.1243 C   0  0  0  0  0  0  0  0  0  0  0  0
   44.8727   14.2392    1.1215 C   0  0  0  0  0  0  0  0  0  0  0  0
   45.5329   14.7555    2.2244 C   0  0  0  0  0  0  0  0  0  0  0  0
   46.8015   13.7003    2.7147 S   0  0  0  0  0  0  0  0  0  0  0  0
   46.5119   12.6037    1.4340 C   0  0  0  0  0  0  0  0  0  0  0  0
   45.4447   13.0165    0.6693 C   0  0  0  0  0  0  0  0  0  0  0  0
   44.7931   12.1020   -0.8571 Br  0  0  0  0  0  0  0  0  0  0  0  0
   45.3411   15.9708    2.9859 C   0  0  0  0  0  0  0  0  0  0  0  0
   45.8811   17.0590    2.8300 O   0  0  0  0  0  0  0  0  0  0  0  0
   44.4604   15.8245    3.9994 O   0  0  0  0  0  0  0  0  0  0  0  0
   44.0361   15.0003    4.1361 H   0  0  0  0  0  0  0  0  0  0  0  0
   43.8766   14.9001    0.4828 O   0  0  0  0  0  0  0  0  0  0  0  0
   44.1974   15.1544   -0.8922 C   0  0  0  0  0  0  0  0  0  0  0  0
   43.0979   16.0688   -1.4439 C   0  0  0  0  0  0  0  0  0  0  0  0
   43.3241   16.6556   -2.8664 C   0  0  0  0  0  0  0  0  0  0  0  0
   43.8401   15.5302   -3.8025 C   0  0  0  0  0  0  0  0  0  0  0  0
   42.0048   17.1710   -3.4594 C   0  0  0  0  0  0  0  0  0  0  0  0
   44.4434   17.7518   -2.8416 C   0  0  0  0  0  0  0  0  0  0  0  0
   46.3568   19.2192   -3.8152 C   0  0  0  0  0  0  0  0  0  0  0  0
   45.4191   18.0277   -4.0324 C   0  0  0  0  0  0  0  0  0  0  0  0
   46.2998   16.7608   -4.1917 C   0  0  0  0  0  0  0  0  0  0  0  0
   44.6633   18.2176   -5.3610 C   0  0  0  0  0  0  0  0  0  0  0  0
   47.9570    8.1184    2.8006 N   0  0  0  0  0  0  0  0  0  0  0  0
   47.0421    7.7887    2.9540 H   0  0  0  0  0  0  0  0  0  0  0  0
   49.0925    7.4374    3.4374 C   0  0  0  0  0  0  0  0  0  0  0  0
   48.6520    6.7196    4.7261 C   0  0  0  0  0  0  0  0  0  0  0  0
   49.3726    5.3885    4.9343 C   0  0  0  0  0  0  0  0  0  0  0  0
   50.7683    5.5415    4.4911 N   0  0  0  0  0  0  0  0  0  0  0  0
   50.9548    5.8024    3.0493 C   0  0  0  0  0  0  0  0  0  0  0  0
   49.7122    6.4504    2.4408 C   0  0  0  0  0  0  0  0  0  0  0  0
   52.0187    4.8094    5.3484 S   0  0  0  0  0  0  0  0  0  0  0  0
   51.9376    5.2507    6.7269 O   0  0  0  0  0  0  0  0  0  0  0  0
   53.2306    5.0472    4.5835 O   0  0  0  0  0  0  0  0  0  0  0  0
   51.7072    3.0332    5.2764 C   0  0  0  0  0  0  0  0  0  0  0  0
   52.4751    2.3433    4.1809 C   0  0  0  0  0  0  0  0  0  0  0  0
   52.0199    2.3955    2.8569 C   0  0  0  0  0  0  0  0  0  0  0  0
   52.7485    1.7838    1.8323 C   0  0  0  0  0  0  0  0  0  0  0  0
   53.9377    1.1180    2.1200 C   0  0  0  0  0  0  0  0  0  0  0  0
   54.4059    1.0683    3.4289 C   0  0  0  0  0  0  0  0  0  0  0  0
   53.6844    1.6840    4.4532 C   0  0  0  0  0  0  0  0  0  0  0  0
 24 25  1  0
 25 26  1  0
 25 27  1  0
 25 23  1  0
 23 20  1  0
 20 21  1  0
 20 22  1  0
 20 19  1  0
 19 18  1  0
 18 17  1  0
 17  7  1  0
  7  8  2  0
  8 13  1  0
 13 14  2  0
 13 15  1  0
  8  9  1  0
  9 10  1  0
 10  1  1  0
  1  2  2  0
  2  3  1  0
  3  4  2  0
  4  5  1  0
  5 28  1  0
 28 30  1  0
 30 31  1  0
 31 32  1  0
 32 33  1  0
 33 36  1  0
 36 37  2  0
 36 38  2  0
 36 39  1  0
 39 40  1  0
 40 41  2  0
 41 42  1  0
 42 43  2  0
 43 44  1  0
 44 45  2  0
 33 34  1  0
 34 35  1  0
  5  6  2  0
 10 11  2  0
 11 12  1  0
 11  7  1  0
  6  1  1  0
 35 30  1  0
 45 40  1  0
 15 16  1  0
 28 29  1  0
M  END
> <minimizedAffinity>
-7.43948

> <CNNscore>
0.2923215032

> <CNNaffinity>
6.6355152130

> <CNN_VS>
1.9397038221

> <CNNaffinity_variance>
0.0452462845

$$$$



 45 48  0  0  0  0  0  0  0  0999 V2000
   47.0764   11.7505    1.2229 C   0  0  0  0  0  0  0  0  0  0  0  0
   47.1005   10.8020    2.2511 C   0  0  0  0  0  0  0  0  0  0  0  0
   47.9450    9.7011    2.1581 C   0  0  0  0  0  0  0  0  0  0  0  0
   48.7753    9.5429    1.0429 C   0  0  0  0  0  0  0  0  0  0  0  0
   48.7707   10.4689   -0.0079 C   0  0  0  0  0  0  0  0  0  0  0  0
   47.9264   11.5867    0.1154 C   0  0  0  0  0  0  0  0  0  0  0  0
   44.6396   14.6030    0.9181 C   0  0  0  0  0  0  0  0  0  0  0  0
   45.2169   15.0827    2.0822 C   0  0  0  0  0  0  0  0  0  0  0  0
   46.4127   13.9858    2.6571 S   0  0  0  0  0  0  0  0  0  0  0  0
   46.2048   12.9193    1.3359 C   0  0  0  0  0  0  0  0  0  0  0  0
   45.2168   13.3733    0.4923 C   0  0  0  0  0  0  0  0  0  0  0  0
   44.6737   12.5025   -1.1008 Br  0  0  0  0  0  0  0  0  0  0  0  0
   44.9921   16.2896    2.8480 C   0  0  0  0  0  0  0  0  0  0  0  0
   45.1917   17.4508    2.5133 O   0  0  0  0  0  0  0  0  0  0  0  0
   44.5230   16.0457    4.0909 O   0  0  0  0  0  0  0  0  0  0  0  0
   44.3635   15.1646    4.3669 H   0  0  0  0  0  0  0  0  0  0  0  0
   43.7178   15.3009    0.2108 O   0  0  0  0  0  0  0  0  0  0  0  0
   44.0196   15.3192   -1.1917 C   0  0  0  0  0  0  0  0  0  0  0  0
   43.3166   16.5466   -1.7822 C   0  0  0  0  0  0  0  0  0  0  0  0
   42.6355   16.3636   -3.1683 C   0  0  0  0  0  0  0  0  0  0  0  0
   42.7309   14.8721   -3.5867 C   0  0  0  0  0  0  0  0  0  0  0  0
   41.1439   16.7205   -3.0939 C   0  0  0  0  0  0  0  0  0  0  0  0
   43.3961   17.1770   -4.2706 C   0  0  0  0  0  0  0  0  0  0  0  0
   42.7030   19.6602   -3.9312 C   0  0  0  0  0  0  0  0  0  0  0  0
   43.8534   18.6627   -4.0973 C   0  0  0  0  0  0  0  0  0  0  0  0
   44.7126   18.7185   -2.8070 C   0  0  0  0  0  0  0  0  0  0  0  0
   44.7562   19.1240   -5.2568 C   0  0  0  0  0  0  0  0  0  0  0  0
   49.6637   10.4198   -1.0853 N   0  0  0  0  0  0  0  0  0  0  0  0
   49.4520    9.8633   -1.8693 H   0  0  0  0  0  0  0  0  0  0  0  0
   50.9139   11.1912   -1.0564 C   0  0  0  0  0  0  0  0  0  0  0  0
   52.1232   10.2922   -1.3716 C   0  0  0  0  0  0  0  0  0  0  0  0
   53.1871   11.0069   -2.2033 C   0  0  0  0  0  0  0  0  0  0  0  0
   53.2731   12.4039   -1.7463 N   0  0  0  0  0  0  0  0  0  0  0  0
   52.0651   13.2238   -1.9702 C   0  0  0  0  0  0  0  0  0  0  0  0
   50.8140   12.3510   -2.0546 C   0  0  0  0  0  0  0  0  0  0  0  0
   54.7660   13.1754   -1.6435 S   0  0  0  0  0  0  0  0  0  0  0  0
   54.5657   14.5825   -1.9287 O   0  0  0  0  0  0  0  0  0  0  0  0
   55.6837   12.3966   -2.4568 O   0  0  0  0  0  0  0  0  0  0  0  0
   55.3128   12.9903    0.0665 C   0  0  0  0  0  0  0  0  0  0  0  0
   56.7660   13.3311    0.2615 C   0  0  0  0  0  0  0  0  0  0  0  0
   57.7279   12.3148    0.3301 C   0  0  0  0  0  0  0  0  0  0  0  0
   59.0821   12.6295    0.4779 C   0  0  0  0  0  0  0  0  0  0  0  0
   59.4873   13.9599    0.5556 C   0  0  0  0  0  0  0  0  0  0  0  0
   58.5431   14.9785    0.4780 C   0  0  0  0  0  0  0  0  0  0  0  0
   57.1909   14.6677    0.3234 C   0  0  0  0  0  0  0  0  0  0  0  0
 24 25  1  0
 25 26  1  0
 25 27  1  0
 25 23  1  0
 23 20  1  0
 20 21  1  0
 20 22  1  0
 20 19  1  0
 19 18  1  0
 18 17  1  0
 17  7  1  0
  7  8  2  0
  8 13  1  0
 13 14  2  0
 13 15  1  0
  8  9  1  0
  9 10  1  0
 10  1  1  0
  1  2  2  0
  2  3  1  0
  3  4  2  0
  4  5  1  0
  5 28  1  0
 28 30  1  0
 30 31  1  0
 31 32  1  0
 32 33  1  0
 33 36  1  0
 36 37  2  0
 36 38  2  0
 36 39  1  0
 39 40  1  0
 40 41  2  0
 41 42  1  0
 42 43  2  0
 43 44  1  0
 44 45  2  0
 33 34  1  0
 34 35  1  0
  5  6  2  0
 10 11  2  0
 11 12  1  0
 11  7  1  0
  6  1  1  0
 35 30  1  0
 45 40  1  0
 15 16  1  0
 28 29  1  0
M  END
> <minimizedAffinity>
-7.47332

> <CNNscore>
0.2043235451

> <CNNaffinity>
6.5253491402

> <CNN_VS>
1.3332824707

> <CNNaffinity_variance>
0.1042919382

$$$$



 45 48  0  0  0  0  0  0  0  0999 V2000
   45.3322   11.4005   -0.3870 C   0  0  0  0  0  0  0  0  0  0  0  0
   44.4499   10.3531   -0.1008 C   0  0  0  0  0  0  0  0  0  0  0  0
   44.8762    9.0352   -0.2241 C   0  0  0  0  0  0  0  0  0  0  0  0
   46.1864    8.7538   -0.6269 C   0  0  0  0  0  0  0  0  0  0  0  0
   47.0931    9.7776   -0.9289 C   0  0  0  0  0  0  0  0  0  0  0  0
   46.6498   11.1034   -0.7764 C   0  0  0  0  0  0  0  0  0  0  0  0
   44.1634   14.9698   -0.6344 C   0  0  0  0  0  0  0  0  0  0  0  0
   44.4426   15.0449    0.7202 C   0  0  0  0  0  0  0  0  0  0  0  0
   44.9707   13.5168    1.3114 S   0  0  0  0  0  0  0  0  0  0  0  0
   44.8874   12.7849   -0.2326 C   0  0  0  0  0  0  0  0  0  0  0  0
   44.4307   13.6796   -1.1734 C   0  0  0  0  0  0  0  0  0  0  0  0
   44.2009   13.2877   -3.0131 Br  0  0  0  0  0  0  0  0  0  0  0  0
   44.3691   16.1389    1.6644 C   0  0  0  0  0  0  0  0  0  0  0  0
   44.5020   16.1031    2.8815 O   0  0  0  0  0  0  0  0  0  0  0  0
   44.0948   17.3241    1.0777 O   0  0  0  0  0  0  0  0  0  0  0  0
   43.9893   17.3733    0.1480 H   0  0  0  0  0  0  0  0  0  0  0  0
   43.7974   16.0463   -1.3722 O   0  0  0  0  0  0  0  0  0  0  0  0
   44.4725   16.0836   -2.6376 C   0  0  0  0  0  0  0  0  0  0  0  0
   44.7440   17.5586   -2.9538 C   0  0  0  0  0  0  0  0  0  0  0  0
   45.4860   17.8636   -4.2861 C   0  0  0  0  0  0  0  0  0  0  0  0
   44.8364   17.0377   -5.4284 C   0  0  0  0  0  0  0  0  0  0  0  0
   45.3461   19.3462   -4.6608 C   0  0  0  0  0  0  0  0  0  0  0  0
   46.9806   17.4000   -4.2061 C   0  0  0  0  0  0  0  0  0  0  0  0
   48.0213   19.6473   -3.4130 C   0  0  0  0  0  0  0  0  0  0  0  0
   48.2000   18.3785   -4.2523 C   0  0  0  0  0  0  0  0  0  0  0  0
   49.4162   17.6047   -3.6795 C   0  0  0  0  0  0  0  0  0  0  0  0
   48.5617   18.7765   -5.6956 C   0  0  0  0  0  0  0  0  0  0  0  0
   48.4441    9.5526   -1.2203 N   0  0  0  0  0  0  0  0  0  0  0  0
   48.8809   10.0674   -1.9369 H   0  0  0  0  0  0  0  0  0  0  0  0
   49.2158    8.5551   -0.4665 C   0  0  0  0  0  0  0  0  0  0  0  0
   50.0804    7.6995   -1.4101 C   0  0  0  0  0  0  0  0  0  0  0  0
   51.4378    7.3449   -0.8052 C   0  0  0  0  0  0  0  0  0  0  0  0
   51.2527    7.0867    0.6325 N   0  0  0  0  0  0  0  0  0  0  0  0
   50.8187    8.2462    1.4381 C   0  0  0  0  0  0  0  0  0  0  0  0
   50.0816    9.2709    0.5774 C   0  0  0  0  0  0  0  0  0  0  0  0
   52.1041    5.8484    1.3915 S   0  0  0  0  0  0  0  0  0  0  0  0
   51.2115    4.7162    1.5434 O   0  0  0  0  0  0  0  0  0  0  0  0
   52.7260    6.4406    2.5631 O   0  0  0  0  0  0  0  0  0  0  0  0
   53.4455    5.3981    0.2713 C   0  0  0  0  0  0  0  0  0  0  0  0
   54.5644    4.6606    0.9568 C   0  0  0  0  0  0  0  0  0  0  0  0
   54.2852    3.7390    1.9744 C   0  0  0  0  0  0  0  0  0  0  0  0
   55.3197    3.0281    2.5903 C   0  0  0  0  0  0  0  0  0  0  0  0
   56.6399    3.2289    2.1939 C   0  0  0  0  0  0  0  0  0  0  0  0
   56.9292    4.1333    1.1773 C   0  0  0  0  0  0  0  0  0  0  0  0
   55.8979    4.8396    0.5557 C   0  0  0  0  0  0  0  0  0  0  0  0
 24 25  1  0
 25 26  1  0
 25 27  1  0
 25 23  1  0
 23 20  1  0
 20 21  1  0
 20 22  1  0
 20 19  1  0
 19 18  1  0
 18 17  1  0
 17  7  1  0
  7  8  2  0
  8 13  1  0
 13 14  2  0
 13 15  1  0
  8  9  1  0
  9 10  1  0
 10  1  1  0
  1  2  2  0
  2  3  1  0
  3  4  2  0
  4  5  1  0
  5 28  1  0
 28 30  1  0
 30 31  1  0
 31 32  1  0
 32 33  1  0
 33 36  1  0
 36 37  2  0
 36 38  2  0
 36 39  1  0
 39 40  1  0
 40 41  2  0
 41 42  1  0
 42 43  2  0
 43 44  1  0
 44 45  2  0
 33 34  1  0
 34 35  1  0
  5  6  2  0
 10 11  2  0
 11 12  1  0
 11  7  1  0
  6  1  1  0
 35 30  1  0
 45 40  1  0
 15 16  1  0
 28 29  1  0
M  END
> <minimizedAffinity>
-6.67357

> <CNNscore>
0.1889847070

> <CNNaffinity>
5.8698601723

> <CNN_VS>
1.1093138456

> <CNNaffinity_variance>
0.2948390245

$$$$



 45 48  0  0  0  0  0  0  0  0999 V2000
   49.2283    8.5472    0.9451 C   0  0  0  0  0  0  0  0  0  0  0  0
   49.9151    9.0803   -0.1509 C   0  0  0  0  0  0  0  0  0  0  0  0
   49.2979   10.0272   -0.9611 C   0  0  0  0  0  0  0  0  0  0  0  0
   47.9950   10.4529   -0.6795 C   0  0  0  0  0  0  0  0  0  0  0  0
   47.2759    9.9343    0.4047 C   0  0  0  0  0  0  0  0  0  0  0  0
   47.9255    8.9947    1.2249 C   0  0  0  0  0  0  0  0  0  0  0  0
   50.5463    5.6002    2.8805 C   0  0  0  0  0  0  0  0  0  0  0  0
   51.1932    6.5394    3.6667 C   0  0  0  0  0  0  0  0  0  0  0  0
   50.9114    8.1266    3.0627 S   0  0  0  0  0  0  0  0  0  0  0  0
   49.8896    7.5698    1.8087 C   0  0  0  0  0  0  0  0  0  0  0  0
   49.7951    6.1970    1.8288 C   0  0  0  0  0  0  0  0  0  0  0  0
   48.7554    5.1692    0.6231 Br  0  0  0  0  0  0  0  0  0  0  0  0
   52.0182    6.4095    4.8483 C   0  0  0  0  0  0  0  0  0  0  0  0
   52.0993    5.4606    5.6185 O   0  0  0  0  0  0  0  0  0  0  0  0
   52.7562    7.5124    5.0999 O   0  0  0  0  0  0  0  0  0  0  0  0
   52.7089    8.2494    4.5232 H   0  0  0  0  0  0  0  0  0  0  0  0
   50.5392    4.2761    3.1698 O   0  0  0  0  0  0  0  0  0  0  0  0
   49.4891    3.9329    4.0852 C   0  0  0  0  0  0  0  0  0  0  0  0
   48.9340    2.5763    3.6372 C   0  0  0  0  0  0  0  0  0  0  0  0
   49.3149    1.3431    4.5049 C   0  0  0  0  0  0  0  0  0  0  0  0
   50.8434    1.0977    4.3932 C   0  0  0  0  0  0  0  0  0  0  0  0
   49.0030    1.6016    5.9860 C   0  0  0  0  0  0  0  0  0  0  0  0
   48.6226    0.0474    3.9598 C   0  0  0  0  0  0  0  0  0  0  0  0
   46.2256    0.9777    3.5709 C   0  0  0  0  0  0  0  0  0  0  0  0
   47.0810   -0.2093    4.0238 C   0  0  0  0  0  0  0  0  0  0  0  0
   46.7848   -1.3933    3.0665 C   0  0  0  0  0  0  0  0  0  0  0  0
   46.6304   -0.6470    5.4302 C   0  0  0  0  0  0  0  0  0  0  0  0
   46.0195   10.4113    0.7980 N   0  0  0  0  0  0  0  0  0  0  0  0
   45.9315   10.9205    1.6360 H   0  0  0  0  0  0  0  0  0  0  0  0
   44.8313   10.1588   -0.0286 C   0  0  0  0  0  0  0  0  0  0  0  0
   44.6057   11.3033   -1.0330 C   0  0  0  0  0  0  0  0  0  0  0  0
   44.0862   10.8088   -2.3821 C   0  0  0  0  0  0  0  0  0  0  0  0
   43.1442    9.7033   -2.1402 N   0  0  0  0  0  0  0  0  0  0  0  0
   43.7288    8.4872   -1.5393 C   0  0  0  0  0  0  0  0  0  0  0  0
   44.9953    8.8158   -0.7505 C   0  0  0  0  0  0  0  0  0  0  0  0
   41.7493    9.5545   -3.0711 S   0  0  0  0  0  0  0  0  0  0  0  0
   41.4450   10.8544   -3.6363 O   0  0  0  0  0  0  0  0  0  0  0  0
   40.7704    8.8836   -2.2334 O   0  0  0  0  0  0  0  0  0  0  0  0
   42.1533    8.4089   -4.4058 C   0  0  0  0  0  0  0  0  0  0  0  0
   40.9408    7.7411   -4.9975 C   0  0  0  0  0  0  0  0  0  0  0  0
   41.0877    6.7090   -5.9334 C   0  0  0  0  0  0  0  0  0  0  0  0
   39.9641    6.0645   -6.4598 C   0  0  0  0  0  0  0  0  0  0  0  0
   38.6862    6.4426   -6.0548 C   0  0  0  0  0  0  0  0  0  0  0  0
   38.5274    7.4587   -5.1181 C   0  0  0  0  0  0  0  0  0  0  0  0
   39.6474    8.0995   -4.5854 C   0  0  0  0  0  0  0  0  0  0  0  0
 24 25  1  0
 25 26  1  0
 25 27  1  0
 25 23  1  0
 23 20  1  0
 20 21  1  0
 20 22  1  0
 20 19  1  0
 19 18  1  0
 18 17  1  0
 17  7  1  0
  7  8  2  0
  8 13  1  0
 13 14  2  0
 13 15  1  0
  8  9  1  0
  9 10  1  0
 10  1  1  0
  1  2  2  0
  2  3  1  0
  3  4  2  0
  4  5  1  0
  5 28  1  0
 28 30  1  0
 30 31  1  0
 31 32  1  0
 32 33  1  0
 33 36  1  0
 36 37  2  0
 36 38  2  0
 36 39  1  0
 39 40  1  0
 40 41  2  0
 41 42  1  0
 42 43  2  0
 43 44  1  0
 44 45  2  0
 33 34  1  0
 34 35  1  0
  5  6  2  0
 10 11  2  0
 11 12  1  0
 11  7  1  0
  6  1  1  0
 35 30  1  0
 45 40  1  0
 15 16  1  0
 28 29  1  0
M  END
> <minimizedAffinity>
-5.86289

> <CNNscore>
0.1829923242

> <CNNaffinity>
5.9294776917

> <CNN_VS>
1.0850489140

> <CNNaffinity_variance>
0.1557433754

$$$$



 45 48  0  0  0  0  0  0  0  0999 V2000
   47.1197   12.0364    1.2368 C   0  0  0  0  0  0  0  0  0  0  0  0
   47.9820   12.0705    0.1356 C   0  0  0  0  0  0  0  0  0  0  0  0
   48.8299   10.9968   -0.1136 C   0  0  0  0  0  0  0  0  0  0  0  0
   48.8182    9.8800    0.7295 C   0  0  0  0  0  0  0  0  0  0  0  0
   47.9735    9.8162    1.8448 C   0  0  0  0  0  0  0  0  0  0  0  0
   47.1080   10.9021    2.0668 C   0  0  0  0  0  0  0  0  0  0  0  0
   44.5792   14.8135    1.2643 C   0  0  0  0  0  0  0  0  0  0  0  0
   45.1744   15.2046    2.4523 C   0  0  0  0  0  0  0  0  0  0  0  0
   46.4235   14.1040    2.8904 S   0  0  0  0  0  0  0  0  0  0  0  0
   46.2126   13.1570    1.4814 C   0  0  0  0  0  0  0  0  0  0  0  0
   45.1849   13.6503    0.7104 C   0  0  0  0  0  0  0  0  0  0  0  0
   44.6244   12.9110   -0.9419 Br  0  0  0  0  0  0  0  0  0  0  0  0
   44.9316   16.3266    3.3331 C   0  0  0  0  0  0  0  0  0  0  0  0
   44.7093   16.3138    4.5375 O   0  0  0  0  0  0  0  0  0  0  0  0
   44.9405   17.5139    2.6891 O   0  0  0  0  0  0  0  0  0  0  0  0
   45.1085   17.5459    1.7678 H   0  0  0  0  0  0  0  0  0  0  0  0
   43.6135   15.5395    0.6499 O   0  0  0  0  0  0  0  0  0  0  0  0
   44.1091   16.2133   -0.5157 C   0  0  0  0  0  0  0  0  0  0  0  0
   42.9873   16.1799   -1.5597 C   0  0  0  0  0  0  0  0  0  0  0  0
   43.3914   16.4811   -3.0310 C   0  0  0  0  0  0  0  0  0  0  0  0
   43.5569   15.1405   -3.7955 C   0  0  0  0  0  0  0  0  0  0  0  0
   42.2916   17.2794   -3.7457 C   0  0  0  0  0  0  0  0  0  0  0  0
   44.7866   17.1922   -3.0875 C   0  0  0  0  0  0  0  0  0  0  0  0
   46.4750   19.0771   -3.6865 C   0  0  0  0  0  0  0  0  0  0  0  0
   45.0443   18.5477   -3.8242 C   0  0  0  0  0  0  0  0  0  0  0  0
   44.7809   18.2944   -5.3317 C   0  0  0  0  0  0  0  0  0  0  0  0
   44.0573   19.6415   -3.3747 C   0  0  0  0  0  0  0  0  0  0  0  0
   47.8387    8.6772    2.6481 N   0  0  0  0  0  0  0  0  0  0  0  0
   47.0528    8.5836    3.2337 H   0  0  0  0  0  0  0  0  0  0  0  0
   48.8593    7.6205    2.6249 C   0  0  0  0  0  0  0  0  0  0  0  0
   50.2757    8.2219    2.6687 C   0  0  0  0  0  0  0  0  0  0  0  0
   51.2460    7.3831    3.4991 C   0  0  0  0  0  0  0  0  0  0  0  0
   50.9422    5.9605    3.2719 N   0  0  0  0  0  0  0  0  0  0  0  0
   49.6179    5.5077    3.7440 C   0  0  0  0  0  0  0  0  0  0  0  0
   48.6273    6.6693    3.8051 C   0  0  0  0  0  0  0  0  0  0  0  0
   52.1866    4.8328    3.1525 S   0  0  0  0  0  0  0  0  0  0  0  0
   53.2265    5.3976    2.3150 O   0  0  0  0  0  0  0  0  0  0  0  0
   51.5622    3.5752    2.7801 O   0  0  0  0  0  0  0  0  0  0  0  0
   52.8287    4.6112    4.8245 C   0  0  0  0  0  0  0  0  0  0  0  0
   52.3166    3.3633    5.4927 C   0  0  0  0  0  0  0  0  0  0  0  0
   53.0472    2.1703    5.4184 C   0  0  0  0  0  0  0  0  0  0  0  0
   52.5907    1.0181    6.0657 C   0  0  0  0  0  0  0  0  0  0  0  0
   51.4038    1.0480    6.7942 C   0  0  0  0  0  0  0  0  0  0  0  0
   50.6747    2.2293    6.8846 C   0  0  0  0  0  0  0  0  0  0  0  0
   51.1314    3.3831    6.2451 C   0  0  0  0  0  0  0  0  0  0  0  0
 24 25  1  0
 25 26  1  0
 25 27  1  0
 25 23  1  0
 23 20  1  0
 20 21  1  0
 20 22  1  0
 20 19  1  0
 19 18  1  0
 18 17  1  0
 17  7  1  0
  7  8  2  0
  8 13  1  0
 13 14  2  0
 13 15  1  0
  8  9  1  0
  9 10  1  0
 10  1  1  0
  1  2  2  0
  2  3  1  0
  3  4  2  0
  4  5  1  0
  5 28  1  0
 28 30  1  0
 30 31  1  0
 31 32  1  0
 32 33  1  0
 33 36  1  0
 36 37  2  0
 36 38  2  0
 36 39  1  0
 39 40  1  0
 40 41  2  0
 41 42  1  0
 42 43  2  0
 43 44  1  0
 44 45  2  0
 33 34  1  0
 34 35  1  0
  5  6  2  0
 10 11  2  0
 11 12  1  0
 11  7  1  0
  6  1  1  0
 35 30  1  0
 45 40  1  0
 15 16  1  0
 28 29  1  0
M  END
> <minimizedAffinity>
-7.86183

> <CNNscore>
0.1773109883

> <CNNaffinity>
6.4549937248

> <CNN_VS>
1.1445412636

> <CNNaffinity_variance>
0.1381184459

$$$$



 45 48  0  0  0  0  0  0  0  0999 V2000
   47.1635   11.7419    1.2020 C   0  0  0  0  0  0  0  0  0  0  0  0
   47.1821   10.7528    2.1912 C   0  0  0  0  0  0  0  0  0  0  0  0
   48.0467    9.6701    2.0719 C   0  0  0  0  0  0  0  0  0  0  0  0
   48.9024    9.5707    0.9692 C   0  0  0  0  0  0  0  0  0  0  0  0
   48.9042   10.5385   -0.0431 C   0  0  0  0  0  0  0  0  0  0  0  0
   48.0389   11.6368    0.1072 C   0  0  0  0  0  0  0  0  0  0  0  0
   44.6599   14.5433    0.9745 C   0  0  0  0  0  0  0  0  0  0  0  0
   45.2555   15.0287    2.1270 C   0  0  0  0  0  0  0  0  0  0  0  0
   46.4881   13.9545    2.6656 S   0  0  0  0  0  0  0  0  0  0  0  0
   46.2703   12.8911    1.3434 C   0  0  0  0  0  0  0  0  0  0  0  0
   45.2524   13.3286    0.5271 C   0  0  0  0  0  0  0  0  0  0  0  0
   44.6888   12.4553   -1.0574 Br  0  0  0  0  0  0  0  0  0  0  0  0
   45.0241   16.2262    2.9054 C   0  0  0  0  0  0  0  0  0  0  0  0
   45.0965   17.3942    2.5436 O   0  0  0  0  0  0  0  0  0  0  0  0
   44.7135   15.9658    4.1938 O   0  0  0  0  0  0  0  0  0  0  0  0
   44.6529   15.0792    4.4911 H   0  0  0  0  0  0  0  0  0  0  0  0
   43.7064   15.2253    0.2942 O   0  0  0  0  0  0  0  0  0  0  0  0
   44.0470   15.3861   -1.0902 C   0  0  0  0  0  0  0  0  0  0  0  0
   43.7192   16.8361   -1.4635 C   0  0  0  0  0  0  0  0  0  0  0  0
   44.0473   17.2753   -2.9190 C   0  0  0  0  0  0  0  0  0  0  0  0
   44.6715   18.6960   -2.8908 C   0  0  0  0  0  0  0  0  0  0  0  0
   45.0842   16.3356   -3.5512 C   0  0  0  0  0  0  0  0  0  0  0  0
   42.7375   17.3894   -3.7714 C   0  0  0  0  0  0  0  0  0  0  0  0
   41.0453   16.3362   -5.4416 C   0  0  0  0  0  0  0  0  0  0  0  0
   41.8247   16.1719   -4.1333 C   0  0  0  0  0  0  0  0  0  0  0  0
   42.7595   14.9448   -4.2952 C   0  0  0  0  0  0  0  0  0  0  0  0
   40.8386   15.8371   -2.9985 C   0  0  0  0  0  0  0  0  0  0  0  0
   49.8200   10.5475   -1.1023 N   0  0  0  0  0  0  0  0  0  0  0  0
   49.6430   10.0053   -1.9048 H   0  0  0  0  0  0  0  0  0  0  0  0
   51.0427   11.3587   -1.0270 C   0  0  0  0  0  0  0  0  0  0  0  0
   52.2860   10.5128   -1.3566 C   0  0  0  0  0  0  0  0  0  0  0  0
   53.3362   11.2927   -2.1461 C   0  0  0  0  0  0  0  0  0  0  0  0
   53.3686   12.6741   -1.6376 N   0  0  0  0  0  0  0  0  0  0  0  0
   52.1366   13.4608   -1.8494 C   0  0  0  0  0  0  0  0  0  0  0  0
   50.9171   12.5504   -1.9839 C   0  0  0  0  0  0  0  0  0  0  0  0
   54.8329   13.4908   -1.4848 S   0  0  0  0  0  0  0  0  0  0  0  0
   54.5611   14.9140   -1.5315 O   0  0  0  0  0  0  0  0  0  0  0  0
   55.7346   12.8950   -2.4554 O   0  0  0  0  0  0  0  0  0  0  0  0
   55.4802   13.0652    0.1452 C   0  0  0  0  0  0  0  0  0  0  0  0
   56.9543   13.3369    0.2841 C   0  0  0  0  0  0  0  0  0  0  0  0
   57.8735   12.2799    0.2629 C   0  0  0  0  0  0  0  0  0  0  0  0
   59.2455   12.5318    0.3584 C   0  0  0  0  0  0  0  0  0  0  0  0
   59.7109   13.8396    0.4730 C   0  0  0  0  0  0  0  0  0  0  0  0
   58.8090   14.8986    0.4845 C   0  0  0  0  0  0  0  0  0  0  0  0
   57.4389   14.6509    0.3823 C   0  0  0  0  0  0  0  0  0  0  0  0
 24 25  1  0
 25 26  1  0
 25 27  1  0
 25 23  1  0
 23 20  1  0
 20 21  1  0
 20 22  1  0
 20 19  1  0
 19 18  1  0
 18 17  1  0
 17  7  1  0
  7  8  2  0
  8 13  1  0
 13 14  2  0
 13 15  1  0
  8  9  1  0
  9 10  1  0
 10  1  1  0
  1  2  2  0
  2  3  1  0
  3  4  2  0
  4  5  1  0
  5 28  1  0
 28 30  1  0
 30 31  1  0
 31 32  1  0
 32 33  1  0
 33 36  1  0
 36 37  2  0
 36 38  2  0
 36 39  1  0
 39 40  1  0
 40 41  2  0
 41 42  1  0
 42 43  2  0
 43 44  1  0
 44 45  2  0
 33 34  1  0
 34 35  1  0
  5  6  2  0
 10 11  2  0
 11 12  1  0
 11  7  1  0
  6  1  1  0
 35 30  1  0
 45 40  1  0
 15 16  1  0
 28 29  1  0
M  END
> <minimizedAffinity>
-7.31778

> <CNNscore>
0.1759995818

> <CNNaffinity>
6.4355988503

> <CNN_VS>
1.1326626539

> <CNNaffinity_variance>
0.0947665349

$$$$



 45 48  0  0  0  0  0  0  0  0999 V2000
   45.4905   11.9023    0.0784 C   0  0  0  0  0  0  0  0  0  0  0  0
   44.6045   10.8209    0.1333 C   0  0  0  0  0  0  0  0  0  0  0  0
   45.0774    9.5276   -0.0606 C   0  0  0  0  0  0  0  0  0  0  0  0
   46.4373    9.3042   -0.3035 C   0  0  0  0  0  0  0  0  0  0  0  0
   47.3502   10.3641   -0.3728 C   0  0  0  0  0  0  0  0  0  0  0  0
   46.8562   11.6621   -0.1518 C   0  0  0  0  0  0  0  0  0  0  0  0
   44.0956   15.3980    0.0317 C   0  0  0  0  0  0  0  0  0  0  0  0
   44.5587   15.4876    1.3340 C   0  0  0  0  0  0  0  0  0  0  0  0
   45.2517   13.9921    1.8305 S   0  0  0  0  0  0  0  0  0  0  0  0
   44.9932   13.2584    0.3069 C   0  0  0  0  0  0  0  0  0  0  0  0
   44.3576   14.1261   -0.5517 C   0  0  0  0  0  0  0  0  0  0  0  0
   43.8930   13.7236   -2.3442 Br  0  0  0  0  0  0  0  0  0  0  0  0
   44.5566   16.5743    2.2893 C   0  0  0  0  0  0  0  0  0  0  0  0
   44.8018   16.5330    3.4887 O   0  0  0  0  0  0  0  0  0  0  0  0
   44.2121   17.7589    1.7395 O   0  0  0  0  0  0  0  0  0  0  0  0
   44.0205   17.8124    0.8239 H   0  0  0  0  0  0  0  0  0  0  0  0
   43.5679   16.4522   -0.6371 O   0  0  0  0  0  0  0  0  0  0  0  0
   43.6041   16.2582   -2.0581 C   0  0  0  0  0  0  0  0  0  0  0  0
   44.2966   17.4872   -2.6575 C   0  0  0  0  0  0  0  0  0  0  0  0
   44.9508   17.3088   -4.0572 C   0  0  0  0  0  0  0  0  0  0  0  0
   46.1867   16.3794   -3.9240 C   0  0  0  0  0  0  0  0  0  0  0  0
   43.9761   16.6324   -5.0321 C   0  0  0  0  0  0  0  0  0  0  0  0
   45.4891   18.6784   -4.5953 C   0  0  0  0  0  0  0  0  0  0  0  0
   43.5595   19.9081   -5.8310 C   0  0  0  0  0  0  0  0  0  0  0  0
   44.9856   19.3554   -5.9124 C   0  0  0  0  0  0  0  0  0  0  0  0
   45.9359   20.5488   -6.1932 C   0  0  0  0  0  0  0  0  0  0  0  0
   45.0894   18.4063   -7.1211 C   0  0  0  0  0  0  0  0  0  0  0  0
   48.7337   10.1859   -0.4946 N   0  0  0  0  0  0  0  0  0  0  0  0
   49.2164   10.6104   -1.2403 H   0  0  0  0  0  0  0  0  0  0  0  0
   49.4715    9.3710    0.4803 C   0  0  0  0  0  0  0  0  0  0  0  0
   48.7388    9.3336    1.8336 C   0  0  0  0  0  0  0  0  0  0  0  0
   48.8441    7.9740    2.5227 C   0  0  0  0  0  0  0  0  0  0  0  0
   50.1919    7.4333    2.2800 N   0  0  0  0  0  0  0  0  0  0  0  0
   50.5100    7.1215    0.8717 C   0  0  0  0  0  0  0  0  0  0  0  0
   49.6603    7.9576   -0.0839 C   0  0  0  0  0  0  0  0  0  0  0  0
   51.0071    6.6019    3.4959 S   0  0  0  0  0  0  0  0  0  0  0  0
   51.6037    7.5781    4.3862 O   0  0  0  0  0  0  0  0  0  0  0  0
   51.8484    5.6244    2.8273 O   0  0  0  0  0  0  0  0  0  0  0  0
   49.7528    5.6681    4.3970 C   0  0  0  0  0  0  0  0  0  0  0  0
   50.3309    4.5580    5.2333 C   0  0  0  0  0  0  0  0  0  0  0  0
   51.3584    4.8230    6.1480 C   0  0  0  0  0  0  0  0  0  0  0  0
   51.8746    3.8004    6.9499 C   0  0  0  0  0  0  0  0  0  0  0  0
   51.3681    2.5070    6.8473 C   0  0  0  0  0  0  0  0  0  0  0  0
   50.3405    2.2333    5.9505 C   0  0  0  0  0  0  0  0  0  0  0  0
   49.8182    3.2535    5.1535 C   0  0  0  0  0  0  0  0  0  0  0  0
 24 25  1  0
 25 26  1  0
 25 27  1  0
 25 23  1  0
 23 20  1  0
 20 21  1  0
 20 22  1  0
 20 19  1  0
 19 18  1  0
 18 17  1  0
 17  7  1  0
  7  8  2  0
  8 13  1  0
 13 14  2  0
 13 15  1  0
  8  9  1  0
  9 10  1  0
 10  1  1  0
  1  2  2  0
  2  3  1  0
  3  4  2  0
  4  5  1  0
  5 28  1  0
 28 30  1  0
 30 31  1  0
 31 32  1  0
 32 33  1  0
 33 36  1  0
 36 37  2  0
 36 38  2  0
 36 39  1  0
 39 40  1  0
 40 41  2  0
 41 42  1  0
 42 43  2  0
 43 44  1  0
 44 45  2  0
 33 34  1  0
 34 35  1  0
  5  6  2  0
 10 11  2  0
 11 12  1  0
 11  7  1  0
  6  1  1  0
 35 30  1  0
 45 40  1  0
 15 16  1  0
 28 29  1  0
M  END
> <minimizedAffinity>
-7.26923

> <CNNscore>
0.1737452149

> <CNNaffinity>
6.2103724480

> <CNN_VS>
1.0790225267

> <CNNaffinity_variance>
0.2794722319

$$$$
