


 33 36  0  0  0  0  0  0  0  0999 V2000
  -34.2446   -1.8764   26.9600 N   0  0  0  0  0  0  0  0  0  0  0  0
  -33.2812   -1.7488   27.9379 C   0  0  0  0  0  0  0  0  0  0  0  0
  -33.3894   -2.1523   29.0828 O   0  0  0  0  0  0  0  0  0  0  0  0
  -34.1302   -1.4098   26.1007 H   0  0  0  0  0  0  0  0  0  0  0  0
  -32.0127   -1.1617   27.4850 C   0  0  0  0  0  0  0  0  0  0  0  0
  -32.0089    0.1165   26.9031 C   0  0  0  0  0  0  0  0  0  0  0  0
  -30.8159    0.6752   26.4218 C   0  0  0  0  0  0  0  0  0  0  0  0
  -29.6107   -0.0364   26.4923 C   0  0  0  0  0  0  0  0  0  0  0  0
  -29.6173   -1.3000   27.0496 C   0  0  0  0  0  0  0  0  0  0  0  0
  -30.8158   -1.8467   27.5492 C   0  0  0  0  0  0  0  0  0  0  0  0
  -30.4787   -3.1634   28.1407 C   0  0  0  0  0  0  0  0  0  0  0  0
  -31.1908   -3.9081   28.7856 O   0  0  0  0  0  0  0  0  0  0  0  0
  -29.0405   -3.3848   27.8794 C   0  0  0  0  0  0  0  0  0  0  0  0
  -28.2595   -4.4773   28.2012 C   0  0  0  0  0  0  0  0  0  0  0  0
  -26.9098   -4.4162   27.8529 C   0  0  0  0  0  0  0  0  0  0  0  0
  -26.3825   -3.2770   27.2160 C   0  0  0  0  0  0  0  0  0  0  0  0
  -27.1958   -2.1810   26.9096 C   0  0  0  0  0  0  0  0  0  0  0  0
  -28.5389   -2.2438   27.2403 C   0  0  0  0  0  0  0  0  0  0  0  0
  -35.4274   -2.6917   27.1827 C   0  0  0  0  0  0  0  0  0  0  0  0
  -38.4438   -2.4090   29.6423 C   0  0  0  0  0  0  0  0  0  0  0  0
  -39.3283   -1.5931   28.6698 C   0  0  0  0  0  0  0  0  0  0  0  0
  -38.4457   -0.4900   28.0379 C   0  0  0  0  0  0  0  0  0  0  0  0
  -39.2548    0.4200   27.1082 C   0  0  0  0  0  0  0  0  0  0  0  0
  -37.3389   -1.0647   27.2607 N   0  0  0  0  0  0  0  0  0  0  0  0
  -36.4994   -1.9842   28.0619 C   0  0  0  0  0  0  0  0  0  0  0  0
  -37.2794   -3.0646   28.8671 C   0  0  0  0  0  0  0  0  0  0  0  0
  -36.7530   -0.3047   26.9150 H   0  0  0  0  0  0  0  0  0  0  0  0
  -39.2196   -3.2472   31.7415 C   0  0  0  0  0  0  0  0  0  0  0  0
  -39.2128   -3.4124   30.3323 O   0  0  0  0  0  0  0  0  0  0  0  0
  -39.8802   -2.3731   27.5899 O   0  0  0  0  0  0  0  0  0  0  0  0
  -41.2793   -2.5967   27.6681 C   0  0  0  0  0  0  0  0  0  0  0  0
  -36.3269   -3.6540   29.7750 O   0  0  0  0  0  0  0  0  0  0  0  0
  -36.3014   -5.0738   29.7391 C   0  0  0  0  0  0  0  0  0  0  0  0
 28 29  1  0
 20 29  1  0
 20 21  1  0
 21 30  1  0
 30 31  1  0
 21 22  1  0
 22 23  1  0
 22 24  1  0
 24 25  1  0
 25 19  1  0
 19  1  1  0
  1  2  1  0
  2  3  2  0
  2  5  1  0
  5  6  2  0
  6  7  1  0
  7  8  2  0
  8  9  1  0
  9 10  2  0
 10 11  1  0
 11 12  2  0
 11 13  1  0
 13 14  2  0
 14 15  1  0
 15 16  2  0
 16 17  1  0
 17 18  2  0
 25 26  1  0
 26 32  1  0
 32 33  1  0
 26 20  1  0
 10  5  1  0
 18 13  1  0
 18  9  1  0
 24 27  1  0
  1  4  1  0
M  END
> <minimizedAffinity>
-5.97618

> <CNNscore>
0.2973973453

> <CNNaffinity>
4.2012572289

> <CNN_VS>
1.2494426966

> <CNNaffinity_variance>
0.4573890269

$$$$



 33 36  0  0  0  0  0  0  0  0999 V2000
  -33.6644   -3.0498   28.7952 N   0  0  0  0  0  0  0  0  0  0  0  0
  -32.7687   -3.3259   27.7843 C   0  0  0  0  0  0  0  0  0  0  0  0
  -32.7960   -4.3186   27.0778 O   0  0  0  0  0  0  0  0  0  0  0  0
  -33.4956   -2.2926   29.4013 H   0  0  0  0  0  0  0  0  0  0  0  0
  -31.7877   -2.2647   27.5187 C   0  0  0  0  0  0  0  0  0  0  0  0
  -32.2341   -0.9685   27.2138 C   0  0  0  0  0  0  0  0  0  0  0  0
  -31.3154    0.0472   26.9112 C   0  0  0  0  0  0  0  0  0  0  0  0
  -29.9389   -0.2145   26.8865 C   0  0  0  0  0  0  0  0  0  0  0  0
  -29.5008   -1.4931   27.1703 C   0  0  0  0  0  0  0  0  0  0  0  0
  -30.4282   -2.5034   27.4930 C   0  0  0  0  0  0  0  0  0  0  0  0
  -29.6480   -3.7221   27.8144 C   0  0  0  0  0  0  0  0  0  0  0  0
  -30.0467   -4.7806   28.2597 O   0  0  0  0  0  0  0  0  0  0  0  0
  -28.2280   -3.3859   27.5768 C   0  0  0  0  0  0  0  0  0  0  0  0
  -27.1142   -4.1927   27.7003 C   0  0  0  0  0  0  0  0  0  0  0  0
  -25.8757   -3.6088   27.4320 C   0  0  0  0  0  0  0  0  0  0  0  0
  -25.7842   -2.2522   27.0678 C   0  0  0  0  0  0  0  0  0  0  0  0
  -26.9292   -1.4563   26.9585 C   0  0  0  0  0  0  0  0  0  0  0  0
  -28.1614   -2.0358   27.2096 C   0  0  0  0  0  0  0  0  0  0  0  0
  -34.8554   -3.8634   28.9769 C   0  0  0  0  0  0  0  0  0  0  0  0
  -36.2035   -3.8922   32.6388 C   0  0  0  0  0  0  0  0  0  0  0  0
  -37.6752   -4.1438   32.2334 C   0  0  0  0  0  0  0  0  0  0  0  0
  -38.0094   -3.2021   31.0516 C   0  0  0  0  0  0  0  0  0  0  0  0
  -39.4749   -3.3281   30.6233 C   0  0  0  0  0  0  0  0  0  0  0  0
  -37.1680   -3.4871   29.8810 N   0  0  0  0  0  0  0  0  0  0  0  0
  -35.7217   -3.4146   30.1897 C   0  0  0  0  0  0  0  0  0  0  0  0
  -35.2704   -4.2104   31.4494 C   0  0  0  0  0  0  0  0  0  0  0  0
  -37.3811   -2.8065   29.1518 H   0  0  0  0  0  0  0  0  0  0  0  0
  -36.1058   -6.0633   33.6329 C   0  0  0  0  0  0  0  0  0  0  0  0
  -35.8353   -4.6790   33.7875 O   0  0  0  0  0  0  0  0  0  0  0  0
  -37.9369   -5.4925   31.7956 O   0  0  0  0  0  0  0  0  0  0  0  0
  -39.2877   -5.9095   31.9181 C   0  0  0  0  0  0  0  0  0  0  0  0
  -33.9208   -3.7872   31.7292 O   0  0  0  0  0  0  0  0  0  0  0  0
  -33.1319   -4.7744   32.3778 C   0  0  0  0  0  0  0  0  0  0  0  0
 28 29  1  0
 20 29  1  0
 20 21  1  0
 21 30  1  0
 30 31  1  0
 21 22  1  0
 22 23  1  0
 22 24  1  0
 24 25  1  0
 25 19  1  0
 19  1  1  0
  1  2  1  0
  2  3  2  0
  2  5  1  0
  5  6  2  0
  6  7  1  0
  7  8  2  0
  8  9  1  0
  9 10  2  0
 10 11  1  0
 11 12  2  0
 11 13  1  0
 13 14  2  0
 14 15  1  0
 15 16  2  0
 16 17  1  0
 17 18  2  0
 25 26  1  0
 26 32  1  0
 32 33  1  0
 26 20  1  0
 10  5  1  0
 18 13  1  0
 18  9  1  0
 24 27  1  0
  1  4  1  0
M  END
> <minimizedAffinity>
-5.81593

> <CNNscore>
0.2183765471

> <CNNaffinity>
4.4086403847

> <CNN_VS>
0.9627436399

> <CNNaffinity_variance>
0.2774317563

$$$$



 33 36  0  0  0  0  0  0  0  0999 V2000
  -32.7056   -4.4198   28.6678 N   0  0  0  0  0  0  0  0  0  0  0  0
  -32.9699   -3.1257   29.0627 C   0  0  0  0  0  0  0  0  0  0  0  0
  -33.6502   -2.8133   30.0244 O   0  0  0  0  0  0  0  0  0  0  0  0
  -32.2558   -4.5836   27.8075 H   0  0  0  0  0  0  0  0  0  0  0  0
  -32.2753   -2.0876   28.2887 C   0  0  0  0  0  0  0  0  0  0  0  0
  -30.8735   -2.0132   28.3304 C   0  0  0  0  0  0  0  0  0  0  0  0
  -30.1941   -1.0012   27.6365 C   0  0  0  0  0  0  0  0  0  0  0  0
  -30.8987   -0.0343   26.9067 C   0  0  0  0  0  0  0  0  0  0  0  0
  -32.2780   -0.0978   26.8792 C   0  0  0  0  0  0  0  0  0  0  0  0
  -32.9526   -1.1289   27.5622 C   0  0  0  0  0  0  0  0  0  0  0  0
  -34.3982   -0.9638   27.2787 C   0  0  0  0  0  0  0  0  0  0  0  0
  -35.3160   -1.7061   27.5690 O   0  0  0  0  0  0  0  0  0  0  0  0
  -34.5289    0.2656   26.4680 C   0  0  0  0  0  0  0  0  0  0  0  0
  -35.6738    0.8644   25.9806 C   0  0  0  0  0  0  0  0  0  0  0  0
  -35.5086    2.0202   25.2167 C   0  0  0  0  0  0  0  0  0  0  0  0
  -34.2233    2.5297   24.9525 C   0  0  0  0  0  0  0  0  0  0  0  0
  -33.0802    1.8974   25.4525 C   0  0  0  0  0  0  0  0  0  0  0  0
  -33.2408    0.7584   26.2233 C   0  0  0  0  0  0  0  0  0  0  0  0
  -33.0830   -5.5456   29.5067 C   0  0  0  0  0  0  0  0  0  0  0  0
  -31.1699   -6.8793   32.6355 C   0  0  0  0  0  0  0  0  0  0  0  0
  -32.3242   -6.5933   33.6251 C   0  0  0  0  0  0  0  0  0  0  0  0
  -32.8748   -5.1803   33.3162 C   0  0  0  0  0  0  0  0  0  0  0  0
  -33.9810   -4.7762   34.2962 C   0  0  0  0  0  0  0  0  0  0  0  0
  -33.4228   -5.1012   31.9550 N   0  0  0  0  0  0  0  0  0  0  0  0
  -32.4376   -5.4950   30.9222 C   0  0  0  0  0  0  0  0  0  0  0  0
  -31.7013   -6.8412   31.1854 C   0  0  0  0  0  0  0  0  0  0  0  0
  -33.7175   -4.1412   31.7765 H   0  0  0  0  0  0  0  0  0  0  0  0
  -31.2310   -9.2472   32.3189 C   0  0  0  0  0  0  0  0  0  0  0  0
  -30.5502   -8.1504   32.9077 O   0  0  0  0  0  0  0  0  0  0  0  0
  -33.4263   -7.5169   33.5180 O   0  0  0  0  0  0  0  0  0  0  0  0
  -33.6342   -8.3347   34.6588 C   0  0  0  0  0  0  0  0  0  0  0  0
  -30.6142   -6.8956   30.2396 O   0  0  0  0  0  0  0  0  0  0  0  0
  -30.8234   -7.8134   29.1759 C   0  0  0  0  0  0  0  0  0  0  0  0
 28 29  1  0
 20 29  1  0
 20 21  1  0
 21 30  1  0
 30 31  1  0
 21 22  1  0
 22 23  1  0
 22 24  1  0
 24 25  1  0
 25 19  1  0
 19  1  1  0
  1  2  1  0
  2  3  2  0
  2  5  1  0
  5  6  2  0
  6  7  1  0
  7  8  2  0
  8  9  1  0
  9 10  2  0
 10 11  1  0
 11 12  2  0
 11 13  1  0
 13 14  2  0
 14 15  1  0
 15 16  2  0
 16 17  1  0
 17 18  2  0
 25 26  1  0
 26 32  1  0
 32 33  1  0
 26 20  1  0
 10  5  1  0
 18 13  1  0
 18  9  1  0
 24 27  1  0
  1  4  1  0
M  END
> <minimizedAffinity>
-5.95889

> <CNNscore>
0.2024423182

> <CNNaffinity>
3.9407997131

> <CNN_VS>
0.7977846265

> <CNNaffinity_variance>
0.6441242099

$$$$



 33 36  0  0  0  0  0  0  0  0999 V2000
  -31.0610   -3.4135   28.6190 N   0  0  0  0  0  0  0  0  0  0  0  0
  -30.5213   -3.7127   27.3862 C   0  0  0  0  0  0  0  0  0  0  0  0
  -31.1608   -4.0616   26.4091 O   0  0  0  0  0  0  0  0  0  0  0  0
  -30.4645   -3.2658   29.3882 H   0  0  0  0  0  0  0  0  0  0  0  0
  -29.0746   -3.4832   27.2710 C   0  0  0  0  0  0  0  0  0  0  0  0
  -28.2063   -4.5802   27.1476 C   0  0  0  0  0  0  0  0  0  0  0  0
  -26.8189   -4.3852   27.0834 C   0  0  0  0  0  0  0  0  0  0  0  0
  -26.2708   -3.0978   27.1619 C   0  0  0  0  0  0  0  0  0  0  0  0
  -27.1238   -2.0204   27.2998 C   0  0  0  0  0  0  0  0  0  0  0  0
  -28.5174   -2.2222   27.3434 C   0  0  0  0  0  0  0  0  0  0  0  0
  -29.1477   -0.8828   27.4188 C   0  0  0  0  0  0  0  0  0  0  0  0
  -30.3271   -0.5962   27.3505 O   0  0  0  0  0  0  0  0  0  0  0  0
  -28.0432    0.0965   27.5032 C   0  0  0  0  0  0  0  0  0  0  0  0
  -28.1107    1.4703   27.6245 C   0  0  0  0  0  0  0  0  0  0  0  0
  -26.9004    2.1636   27.6613 C   0  0  0  0  0  0  0  0  0  0  0  0
  -25.6755    1.4772   27.5627 C   0  0  0  0  0  0  0  0  0  0  0  0
  -25.6375    0.0851   27.4321 C   0  0  0  0  0  0  0  0  0  0  0  0
  -26.8361   -0.6078   27.4100 C   0  0  0  0  0  0  0  0  0  0  0  0
  -32.5004   -3.3136   28.7968 C   0  0  0  0  0  0  0  0  0  0  0  0
  -34.4073   -4.4397   32.0098 C   0  0  0  0  0  0  0  0  0  0  0  0
  -33.1717   -5.0949   32.6712 C   0  0  0  0  0  0  0  0  0  0  0  0
  -32.4456   -5.9344   31.5928 C   0  0  0  0  0  0  0  0  0  0  0  0
  -31.2415   -6.6831   32.1730 C   0  0  0  0  0  0  0  0  0  0  0  0
  -31.9676   -5.0933   30.4867 N   0  0  0  0  0  0  0  0  0  0  0  0
  -33.0535   -4.3031   29.8634 C   0  0  0  0  0  0  0  0  0  0  0  0
  -33.9564   -3.5151   30.8572 C   0  0  0  0  0  0  0  0  0  0  0  0
  -31.5509   -5.6942   29.7755 H   0  0  0  0  0  0  0  0  0  0  0  0
  -36.3097   -4.4132   33.4560 C   0  0  0  0  0  0  0  0  0  0  0  0
  -35.1839   -3.6990   32.9703 O   0  0  0  0  0  0  0  0  0  0  0  0
  -32.2181   -4.1471   33.1923 O   0  0  0  0  0  0  0  0  0  0  0  0
  -32.1639   -4.0703   34.6082 C   0  0  0  0  0  0  0  0  0  0  0  0
  -35.0905   -3.0581   30.0931 O   0  0  0  0  0  0  0  0  0  0  0  0
  -34.7657   -2.6455   28.7733 C   0  0  0  0  0  0  0  0  0  0  0  0
 28 29  1  0
 20 29  1  0
 20 21  1  0
 21 30  1  0
 30 31  1  0
 21 22  1  0
 22 23  1  0
 22 24  1  0
 24 25  1  0
 25 19  1  0
 19  1  1  0
  1  2  1  0
  2  3  2  0
  2  5  1  0
  5  6  2  0
  6  7  1  0
  7  8  2  0
  8  9  1  0
  9 10  2  0
 10 11  1  0
 11 12  2  0
 11 13  1  0
 13 14  2  0
 14 15  1  0
 15 16  2  0
 16 17  1  0
 17 18  2  0
 25 26  1  0
 26 32  1  0
 32 33  1  0
 26 20  1  0
 10  5  1  0
 18 13  1  0
 18  9  1  0
 24 27  1  0
  1  4  1  0
M  END
> <minimizedAffinity>
-6.50461

> <CNNscore>
0.1908687055

> <CNNaffinity>
4.0030808449

> <CNN_VS>
0.7640628815

> <CNNaffinity_variance>
1.2985028028

$$$$



 33 36  0  0  0  0  0  0  0  0999 V2000
  -33.1130   -2.6625   29.2918 N   0  0  0  0  0  0  0  0  0  0  0  0
  -32.9002   -2.5613   27.9334 C   0  0  0  0  0  0  0  0  0  0  0  0
  -33.6236   -3.0359   27.0751 O   0  0  0  0  0  0  0  0  0  0  0  0
  -32.4141   -2.3632   29.9172 H   0  0  0  0  0  0  0  0  0  0  0  0
  -31.7550   -1.7261   27.5462 C   0  0  0  0  0  0  0  0  0  0  0  0
  -31.9741   -0.4119   27.1022 C   0  0  0  0  0  0  0  0  0  0  0  0
  -30.8991    0.3859   26.6837 C   0  0  0  0  0  0  0  0  0  0  0  0
  -29.5911   -0.1172   26.6801 C   0  0  0  0  0  0  0  0  0  0  0  0
  -29.3776   -1.4150   27.1012 C   0  0  0  0  0  0  0  0  0  0  0  0
  -30.4598   -2.2038   27.5392 C   0  0  0  0  0  0  0  0  0  0  0  0
  -29.8980   -3.4996   27.9891 C   0  0  0  0  0  0  0  0  0  0  0  0
  -30.4652   -4.4162   28.5513 O   0  0  0  0  0  0  0  0  0  0  0  0
  -28.4476   -3.4486   27.7075 C   0  0  0  0  0  0  0  0  0  0  0  0
  -27.4901   -4.4221   27.9132 C   0  0  0  0  0  0  0  0  0  0  0  0
  -26.1755   -4.0999   27.5747 C   0  0  0  0  0  0  0  0  0  0  0  0
  -25.8562   -2.8285   27.0619 C   0  0  0  0  0  0  0  0  0  0  0  0
  -26.8458   -1.8584   26.8717 C   0  0  0  0  0  0  0  0  0  0  0  0
  -28.1539   -2.1795   27.1926 C   0  0  0  0  0  0  0  0  0  0  0  0
  -34.3571   -3.2060   29.8116 C   0  0  0  0  0  0  0  0  0  0  0  0
  -35.5509   -6.7409   30.9550 C   0  0  0  0  0  0  0  0  0  0  0  0
  -34.8784   -6.6614   32.3460 C   0  0  0  0  0  0  0  0  0  0  0  0
  -33.4483   -6.1032   32.1504 C   0  0  0  0  0  0  0  0  0  0  0  0
  -32.6734   -6.0539   33.4711 C   0  0  0  0  0  0  0  0  0  0  0  0
  -33.4720   -4.7463   31.5868 N   0  0  0  0  0  0  0  0  0  0  0  0
  -34.2200   -4.6738   30.3111 C   0  0  0  0  0  0  0  0  0  0  0  0
  -35.6316   -5.3302   30.3304 C   0  0  0  0  0  0  0  0  0  0  0  0
  -32.5120   -4.4446   31.4204 H   0  0  0  0  0  0  0  0  0  0  0  0
  -36.9728   -8.5699   30.3685 C   0  0  0  0  0  0  0  0  0  0  0  0
  -36.8643   -7.3254   31.0413 O   0  0  0  0  0  0  0  0  0  0  0  0
  -35.5571   -5.7897   33.2727 O   0  0  0  0  0  0  0  0  0  0  0  0
  -36.2969   -6.4533   34.2855 C   0  0  0  0  0  0  0  0  0  0  0  0
  -36.0596   -5.4022   28.9554 O   0  0  0  0  0  0  0  0  0  0  0  0
  -37.3846   -4.9374   28.7409 C   0  0  0  0  0  0  0  0  0  0  0  0
 28 29  1  0
 20 29  1  0
 20 21  1  0
 21 30  1  0
 30 31  1  0
 21 22  1  0
 22 23  1  0
 22 24  1  0
 24 25  1  0
 25 19  1  0
 19  1  1  0
  1  2  1  0
  2  3  2  0
  2  5  1  0
  5  6  2  0
  6  7  1  0
  7  8  2  0
  8  9  1  0
  9 10  2  0
 10 11  1  0
 11 12  2  0
 11 13  1  0
 13 14  2  0
 14 15  1  0
 15 16  2  0
 16 17  1  0
 17 18  2  0
 25 26  1  0
 26 32  1  0
 32 33  1  0
 26 20  1  0
 10  5  1  0
 18 13  1  0
 18  9  1  0
 24 27  1  0
  1  4  1  0
M  END
> <minimizedAffinity>
-5.51204

> <CNNscore>
0.1782456636

> <CNNaffinity>
4.1775937080

> <CNN_VS>
0.7446379662

> <CNNaffinity_variance>
0.3861509562

$$$$



 33 36  0  0  0  0  0  0  0  0999 V2000
  -29.4070   -4.8493   28.5367 N   0  0  0  0  0  0  0  0  0  0  0  0
  -28.9542   -4.7094   27.2422 C   0  0  0  0  0  0  0  0  0  0  0  0
  -29.5562   -5.0749   26.2475 O   0  0  0  0  0  0  0  0  0  0  0  0
  -28.8038   -4.6456   29.2877 H   0  0  0  0  0  0  0  0  0  0  0  0
  -27.6915   -3.9708   27.1039 C   0  0  0  0  0  0  0  0  0  0  0  0
  -26.4939   -4.6766   26.9039 C   0  0  0  0  0  0  0  0  0  0  0  0
  -25.2720   -3.9935   26.8163 C   0  0  0  0  0  0  0  0  0  0  0  0
  -25.2185   -2.5992   26.9469 C   0  0  0  0  0  0  0  0  0  0  0  0
  -26.3943   -1.9067   27.1600 C   0  0  0  0  0  0  0  0  0  0  0  0
  -27.6202   -2.5977   27.2268 C   0  0  0  0  0  0  0  0  0  0  0  0
  -28.6847   -1.5784   27.3854 C   0  0  0  0  0  0  0  0  0  0  0  0
  -29.8902   -1.7326   27.3603 O   0  0  0  0  0  0  0  0  0  0  0  0
  -28.0016   -0.2716   27.4928 C   0  0  0  0  0  0  0  0  0  0  0  0
  -28.5514    0.9804   27.6854 C   0  0  0  0  0  0  0  0  0  0  0  0
  -27.6692    2.0604   27.7282 C   0  0  0  0  0  0  0  0  0  0  0  0
  -26.2848    1.8647   27.5653 C   0  0  0  0  0  0  0  0  0  0  0  0
  -25.7563    0.5855   27.3633 C   0  0  0  0  0  0  0  0  0  0  0  0
  -26.6272   -0.4906   27.3348 C   0  0  0  0  0  0  0  0  0  0  0  0
  -30.7646   -5.2942   28.8062 C   0  0  0  0  0  0  0  0  0  0  0  0
  -33.8128   -3.6893   30.6394 C   0  0  0  0  0  0  0  0  0  0  0  0
  -34.3593   -2.9741   29.3810 C   0  0  0  0  0  0  0  0  0  0  0  0
  -33.1641   -2.3094   28.6565 C   0  0  0  0  0  0  0  0  0  0  0  0
  -33.6174   -1.5123   27.4292 C   0  0  0  0  0  0  0  0  0  0  0  0
  -32.1807   -3.3069   28.2125 N   0  0  0  0  0  0  0  0  0  0  0  0
  -31.6890   -4.1536   29.3232 C   0  0  0  0  0  0  0  0  0  0  0  0
  -32.7955   -4.7754   30.2247 C   0  0  0  0  0  0  0  0  0  0  0  0
  -31.3868   -2.8205   27.7960 H   0  0  0  0  0  0  0  0  0  0  0  0
  -35.2824   -5.5487   30.9466 C   0  0  0  0  0  0  0  0  0  0  0  0
  -34.8779   -4.2716   31.4143 O   0  0  0  0  0  0  0  0  0  0  0  0
  -34.9955   -3.8596   28.4373 O   0  0  0  0  0  0  0  0  0  0  0  0
  -36.3699   -3.5960   28.2030 C   0  0  0  0  0  0  0  0  0  0  0  0
  -32.1182   -5.3110   31.3796 O   0  0  0  0  0  0  0  0  0  0  0  0
  -32.1559   -6.7285   31.4617 C   0  0  0  0  0  0  0  0  0  0  0  0
 28 29  1  0
 20 29  1  0
 20 21  1  0
 21 30  1  0
 30 31  1  0
 21 22  1  0
 22 23  1  0
 22 24  1  0
 24 25  1  0
 25 19  1  0
 19  1  1  0
  1  2  1  0
  2  3  2  0
  2  5  1  0
  5  6  2  0
  6  7  1  0
  7  8  2  0
  8  9  1  0
  9 10  2  0
 10 11  1  0
 11 12  2  0
 11 13  1  0
 13 14  2  0
 14 15  1  0
 15 16  2  0
 16 17  1  0
 17 18  2  0
 25 26  1  0
 26 32  1  0
 32 33  1  0
 26 20  1  0
 10  5  1  0
 18 13  1  0
 18  9  1  0
 24 27  1  0
  1  4  1  0
M  END
> <minimizedAffinity>
-6.19149

> <CNNscore>
0.1706683189

> <CNNaffinity>
3.6184616089

> <CNN_VS>
0.6175567508

> <CNNaffinity_variance>
1.7929347754

$$$$



 33 36  0  0  0  0  0  0  0  0999 V2000
  -32.3963   -2.1722   26.0157 N   0  0  0  0  0  0  0  0  0  0  0  0
  -32.1240   -2.2172   27.3664 C   0  0  0  0  0  0  0  0  0  0  0  0
  -32.6704   -1.5316   28.2130 O   0  0  0  0  0  0  0  0  0  0  0  0
  -31.8207   -2.6647   25.3869 H   0  0  0  0  0  0  0  0  0  0  0  0
  -31.1654   -3.2547   27.7710 C   0  0  0  0  0  0  0  0  0  0  0  0
  -31.6204   -4.3836   28.4717 C   0  0  0  0  0  0  0  0  0  0  0  0
  -30.7153   -5.3623   28.9078 C   0  0  0  0  0  0  0  0  0  0  0  0
  -29.3407   -5.2242   28.6726 C   0  0  0  0  0  0  0  0  0  0  0  0
  -28.8916   -4.1059   27.9980 C   0  0  0  0  0  0  0  0  0  0  0  0
  -29.8086   -3.1369   27.5453 C   0  0  0  0  0  0  0  0  0  0  0  0
  -29.0305   -2.1159   26.8041 C   0  0  0  0  0  0  0  0  0  0  0  0
  -29.4425   -1.1784   26.1492 O   0  0  0  0  0  0  0  0  0  0  0  0
  -27.6085   -2.5015   26.9268 C   0  0  0  0  0  0  0  0  0  0  0  0
  -26.4901   -1.8546   26.4395 C   0  0  0  0  0  0  0  0  0  0  0  0
  -25.2543   -2.4547   26.6829 C   0  0  0  0  0  0  0  0  0  0  0  0
  -25.1722   -3.6732   27.3828 C   0  0  0  0  0  0  0  0  0  0  0  0
  -26.3230   -4.3107   27.8579 C   0  0  0  0  0  0  0  0  0  0  0  0
  -27.5501   -3.7109   27.6311 C   0  0  0  0  0  0  0  0  0  0  0  0
  -33.5231   -1.4062   25.5089 C   0  0  0  0  0  0  0  0  0  0  0  0
  -31.1290    1.1991   23.8632 C   0  0  0  0  0  0  0  0  0  0  0  0
  -31.3525    2.2824   24.9450 C   0  0  0  0  0  0  0  0  0  0  0  0
  -32.8714    2.3604   25.2314 C   0  0  0  0  0  0  0  0  0  0  0  0
  -33.2013    3.4613   26.2446 C   0  0  0  0  0  0  0  0  0  0  0  0
  -33.3864    1.0890   25.7584 N   0  0  0  0  0  0  0  0  0  0  0  0
  -33.1008   -0.0547   24.8625 C   0  0  0  0  0  0  0  0  0  0  0  0
  -31.6245   -0.1693   24.3814 C   0  0  0  0  0  0  0  0  0  0  0  0
  -34.3966    1.1687   25.8749 H   0  0  0  0  0  0  0  0  0  0  0  0
  -29.4767    1.6602   22.1993 C   0  0  0  0  0  0  0  0  0  0  0  0
  -29.7423    1.1175   23.4831 O   0  0  0  0  0  0  0  0  0  0  0  0
  -30.6930    2.0016   26.1962 O   0  0  0  0  0  0  0  0  0  0  0  0
  -29.4942    2.7280   26.4164 C   0  0  0  0  0  0  0  0  0  0  0  0
  -31.6221   -1.1493   23.3238 O   0  0  0  0  0  0  0  0  0  0  0  0
  -32.3717   -0.7631   22.1807 C   0  0  0  0  0  0  0  0  0  0  0  0
 28 29  1  0
 20 29  1  0
 20 21  1  0
 21 30  1  0
 30 31  1  0
 21 22  1  0
 22 23  1  0
 22 24  1  0
 24 25  1  0
 25 19  1  0
 19  1  1  0
  1  2  1  0
  2  3  2  0
  2  5  1  0
  5  6  2  0
  6  7  1  0
  7  8  2  0
  8  9  1  0
  9 10  2  0
 10 11  1  0
 11 12  2  0
 11 13  1  0
 13 14  2  0
 14 15  1  0
 15 16  2  0
 16 17  1  0
 17 18  2  0
 25 26  1  0
 26 32  1  0
 32 33  1  0
 26 20  1  0
 10  5  1  0
 18 13  1  0
 18  9  1  0
 24 27  1  0
  1  4  1  0
M  END
> <minimizedAffinity>
-6.12399

> <CNNscore>
0.1663509756

> <CNNaffinity>
3.6175887585

> <CNN_VS>
0.6017894149

> <CNNaffinity_variance>
1.4994325638

$$$$



 33 36  0  0  0  0  0  0  0  0999 V2000
  -31.9770   -1.1981   26.4042 N   0  0  0  0  0  0  0  0  0  0  0  0
  -32.0916   -1.7733   27.6518 C   0  0  0  0  0  0  0  0  0  0  0  0
  -32.9162   -1.4602   28.4929 O   0  0  0  0  0  0  0  0  0  0  0  0
  -31.2040   -1.4191   25.8359 H   0  0  0  0  0  0  0  0  0  0  0  0
  -31.1909   -2.9082   27.8960 C   0  0  0  0  0  0  0  0  0  0  0  0
  -31.7019   -4.0909   28.4549 C   0  0  0  0  0  0  0  0  0  0  0  0
  -30.8506   -5.1688   28.7392 C   0  0  0  0  0  0  0  0  0  0  0  0
  -29.4741   -5.0805   28.4917 C   0  0  0  0  0  0  0  0  0  0  0  0
  -28.9691   -3.9114   27.9573 C   0  0  0  0  0  0  0  0  0  0  0  0
  -29.8332   -2.8403   27.6557 C   0  0  0  0  0  0  0  0  0  0  0  0
  -29.0068   -1.7777   27.0349 C   0  0  0  0  0  0  0  0  0  0  0  0
  -29.3720   -0.7404   26.5169 O   0  0  0  0  0  0  0  0  0  0  0  0
  -27.6089   -2.2573   27.0732 C   0  0  0  0  0  0  0  0  0  0  0  0
  -26.4614   -1.6177   26.6477 C   0  0  0  0  0  0  0  0  0  0  0  0
  -25.2602   -2.3146   26.7823 C   0  0  0  0  0  0  0  0  0  0  0  0
  -25.2406   -3.6169   27.3163 C   0  0  0  0  0  0  0  0  0  0  0  0
  -26.4200   -4.2437   27.7317 C   0  0  0  0  0  0  0  0  0  0  0  0
  -27.6123   -3.5497   27.6134 C   0  0  0  0  0  0  0  0  0  0  0  0
  -32.9839   -0.2692   25.9177 C   0  0  0  0  0  0  0  0  0  0  0  0
  -32.8789    2.8883   23.6270 C   0  0  0  0  0  0  0  0  0  0  0  0
  -31.6888    2.3898   22.7732 C   0  0  0  0  0  0  0  0  0  0  0  0
  -30.6215    1.8163   23.7361 C   0  0  0  0  0  0  0  0  0  0  0  0
  -29.3670    1.3596   22.9846 C   0  0  0  0  0  0  0  0  0  0  0  0
  -31.1402    0.6689   24.4936 N   0  0  0  0  0  0  0  0  0  0  0  0
  -32.3736    0.9949   25.2451 C   0  0  0  0  0  0  0  0  0  0  0  0
  -33.4844    1.7095   24.4210 C   0  0  0  0  0  0  0  0  0  0  0  0
  -30.4258    0.3637   25.1546 H   0  0  0  0  0  0  0  0  0  0  0  0
  -33.6461    4.8863   22.5636 C   0  0  0  0  0  0  0  0  0  0  0  0
  -33.8870    3.5094   22.8072 O   0  0  0  0  0  0  0  0  0  0  0  0
  -32.0359    1.3434   21.8439 O   0  0  0  0  0  0  0  0  0  0  0  0
  -32.0278    1.7294   20.4784 C   0  0  0  0  0  0  0  0  0  0  0  0
  -34.4540    2.1809   25.3784 O   0  0  0  0  0  0  0  0  0  0  0  0
  -34.0570    3.3587   26.0660 C   0  0  0  0  0  0  0  0  0  0  0  0
 28 29  1  0
 20 29  1  0
 20 21  1  0
 21 30  1  0
 30 31  1  0
 21 22  1  0
 22 23  1  0
 22 24  1  0
 24 25  1  0
 25 19  1  0
 19  1  1  0
  1  2  1  0
  2  3  2  0
  2  5  1  0
  5  6  2  0
  6  7  1  0
  7  8  2  0
  8  9  1  0
  9 10  2  0
 10 11  1  0
 11 12  2  0
 11 13  1  0
 13 14  2  0
 14 15  1  0
 15 16  2  0
 16 17  1  0
 17 18  2  0
 25 26  1  0
 26 32  1  0
 32 33  1  0
 26 20  1  0
 10  5  1  0
 18 13  1  0
 18  9  1  0
 24 27  1  0
  1  4  1  0
M  END
> <minimizedAffinity>
-6.26947

> <CNNscore>
0.1394660175

> <CNNaffinity>
3.5813133717

> <CNN_VS>
0.4994715154

> <CNNaffinity_variance>
1.4638900757

$$$$



 33 36  0  0  0  0  0  0  0  0999 V2000
  -30.7908    1.9620   23.9657 N   0  0  0  0  0  0  0  0  0  0  0  0
  -30.2338    2.2940   25.1822 C   0  0  0  0  0  0  0  0  0  0  0  0
  -30.0435    3.4313   25.5770 O   0  0  0  0  0  0  0  0  0  0  0  0
  -30.7903    1.0227   23.6707 H   0  0  0  0  0  0  0  0  0  0  0  0
  -29.9576    1.1552   26.0687 C   0  0  0  0  0  0  0  0  0  0  0  0
  -28.6277    0.8000   26.3469 C   0  0  0  0  0  0  0  0  0  0  0  0
  -28.3423   -0.3120   27.1527 C   0  0  0  0  0  0  0  0  0  0  0  0
  -29.3744   -1.1012   27.6779 C   0  0  0  0  0  0  0  0  0  0  0  0
  -30.6819   -0.7615   27.3908 C   0  0  0  0  0  0  0  0  0  0  0  0
  -30.9613    0.3686   26.5972 C   0  0  0  0  0  0  0  0  0  0  0  0
  -32.4363    0.5034   26.5384 C   0  0  0  0  0  0  0  0  0  0  0  0
  -33.0954    1.4082   26.0643 O   0  0  0  0  0  0  0  0  0  0  0  0
  -32.9930   -0.6562   27.2671 C   0  0  0  0  0  0  0  0  0  0  0  0
  -34.3153   -1.0019   27.4649 C   0  0  0  0  0  0  0  0  0  0  0  0
  -34.5645   -2.1499   28.2176 C   0  0  0  0  0  0  0  0  0  0  0  0
  -33.5029   -2.9011   28.7561 C   0  0  0  0  0  0  0  0  0  0  0  0
  -32.1728   -2.5225   28.5465 C   0  0  0  0  0  0  0  0  0  0  0  0
  -31.9209   -1.3920   27.7877 C   0  0  0  0  0  0  0  0  0  0  0  0
  -31.3790    2.9822   23.1132 C   0  0  0  0  0  0  0  0  0  0  0  0
  -35.1690    3.4649   22.3191 C   0  0  0  0  0  0  0  0  0  0  0  0
  -35.6356    2.2668   23.1796 C   0  0  0  0  0  0  0  0  0  0  0  0
  -34.6950    1.0744   22.8823 C   0  0  0  0  0  0  0  0  0  0  0  0
  -35.1226   -0.1873   23.6389 C   0  0  0  0  0  0  0  0  0  0  0  0
  -33.3061    1.3780   23.2539 N   0  0  0  0  0  0  0  0  0  0  0  0
  -32.7950    2.5999   22.5922 C   0  0  0  0  0  0  0  0  0  0  0  0
  -33.7203    3.8477   22.6952 C   0  0  0  0  0  0  0  0  0  0  0  0
  -32.7163    0.5901   22.9859 H   0  0  0  0  0  0  0  0  0  0  0  0
  -37.2840    4.4529   21.8075 C   0  0  0  0  0  0  0  0  0  0  0  0
  -36.0436    4.5976   22.4811 O   0  0  0  0  0  0  0  0  0  0  0  0
  -35.5820    2.5129   24.5994 O   0  0  0  0  0  0  0  0  0  0  0  0
  -36.8457    2.6387   25.2326 C   0  0  0  0  0  0  0  0  0  0  0  0
  -33.1900    4.8181   21.7700 O   0  0  0  0  0  0  0  0  0  0  0  0
  -33.4153    4.4941   20.4055 C   0  0  0  0  0  0  0  0  0  0  0  0
 28 29  1  0
 20 29  1  0
 20 21  1  0
 21 30  1  0
 30 31  1  0
 21 22  1  0
 22 23  1  0
 22 24  1  0
 24 25  1  0
 25 19  1  0
 19  1  1  0
  1  2  1  0
  2  3  2  0
  2  5  1  0
  5  6  2  0
  6  7  1  0
  7  8  2  0
  8  9  1  0
  9 10  2  0
 10 11  1  0
 11 12  2  0
 11 13  1  0
 13 14  2  0
 14 15  1  0
 15 16  2  0
 16 17  1  0
 17 18  2  0
 25 26  1  0
 26 32  1  0
 32 33  1  0
 26 20  1  0
 10  5  1  0
 18 13  1  0
 18  9  1  0
 24 27  1  0
  1  4  1  0
M  END
> <minimizedAffinity>
-6.17485

> <CNNscore>
0.1384281963

> <CNNaffinity>
3.2551624775

> <CNN_VS>
0.4506062567

> <CNNaffinity_variance>
1.5098110437

$$$$
