


 37 41  0  0  0  0  0  0  0  0999 V2000
  -43.7446  -48.2695   -8.9411 C   0  0  0  0  0  0  0  0  0  0  0  0
  -44.7217  -48.9317   -8.5741 O   0  0  0  0  0  0  0  0  0  0  0  0
  -42.8952  -48.7330   -9.9226 N   0  0  0  0  0  0  0  0  0  0  0  0
  -41.6917  -48.0266  -10.4410 C   0  0  0  0  0  0  0  0  0  0  0  0
  -41.2169  -49.0511  -11.3640 C   0  0  0  0  0  0  0  0  0  0  0  0
  -40.1907  -49.2036  -12.2175 N   0  0  0  0  0  0  0  0  0  0  0  0
  -40.2362  -50.4102  -12.8355 N   0  0  0  0  0  0  0  0  0  0  0  0
  -41.3260  -51.0184  -12.3274 C   0  0  0  0  0  0  0  0  0  0  0  0
  -41.9679  -50.1853  -11.4099 C   0  0  0  0  0  0  0  0  0  0  0  0
  -43.1118  -50.0965  -10.4963 C   0  0  0  0  0  0  0  0  0  0  0  0
  -39.4942  -48.5258  -12.3745 H   0  0  0  0  0  0  0  0  0  0  0  0
  -41.6242  -52.2863  -12.7587 N   0  0  0  0  0  0  0  0  0  0  0  0
  -42.8859  -52.7864  -12.9630 C   0  0  0  0  0  0  0  0  0  0  0  0
  -43.9428  -52.1954  -12.7749 O   0  0  0  0  0  0  0  0  0  0  0  0
  -40.8672  -52.8900  -12.9371 H   0  0  0  0  0  0  0  0  0  0  0  0
  -42.9408  -54.1954  -13.4340 C   0  0  0  0  0  0  0  0  0  0  0  0
  -43.1686  -55.2010  -12.4956 C   0  0  0  0  0  0  0  0  0  0  0  0
  -43.2579  -56.5348  -12.9084 C   0  0  0  0  0  0  0  0  0  0  0  0
  -43.1564  -56.9084  -14.2614 C   0  0  0  0  0  0  0  0  0  0  0  0
  -42.9102  -55.8778  -15.1811 C   0  0  0  0  0  0  0  0  0  0  0  0
  -42.8088  -54.5353  -14.7813 C   0  0  0  0  0  0  0  0  0  0  0  0
  -43.2677  -58.2537  -14.6183 N   0  0  0  0  0  0  0  0  0  0  0  0
  -42.1519  -59.1967  -14.3970 C   0  0  0  0  0  0  0  0  0  0  0  0
  -41.2349  -59.3143  -15.6421 C   0  0  0  0  0  0  0  0  0  0  0  0
  -41.9261  -59.5961  -16.9224 N   0  0  0  0  0  0  0  0  0  0  0  0
  -42.3836  -60.9815  -16.9973 C   0  0  0  0  0  0  0  0  0  0  0  0
  -43.0486  -58.6426  -17.0811 C   0  0  0  0  0  0  0  0  0  0  0  0
  -44.0106  -58.5413  -15.8700 C   0  0  0  0  0  0  0  0  0  0  0  0
  -43.4464  -46.8970   -8.2759 C   0  0  0  0  0  0  0  0  0  0  0  0
  -42.3406  -46.1179   -8.9895 C   0  0  0  0  0  0  0  0  0  0  0  0
  -42.5379  -45.5941  -10.2796 C   0  0  0  0  0  0  0  0  0  0  0  0
  -41.5378  -44.8533  -10.9160 C   0  0  0  0  0  0  0  0  0  0  0  0
  -40.3272  -44.6148  -10.2702 C   0  0  0  0  0  0  0  0  0  0  0  0
  -40.1190  -45.1102   -8.9850 C   0  0  0  0  0  0  0  0  0  0  0  0
  -41.1208  -45.8432   -8.3438 C   0  0  0  0  0  0  0  0  0  0  0  0
  -44.5590  -45.2396   -6.9963 C   0  0  0  0  0  0  0  0  0  0  0  0
  -44.6199  -46.0872   -8.1380 O   0  0  0  0  0  0  0  0  0  0  0  0
 36 37  1  0
 29 37  1  0
 29  1  1  0
  1  2  2  0
  1  3  1  0
  3  4  1  0
  4  5  1  0
  5  6  1  0
  6  7  1  0
  7  8  2  0
  8 12  1  0
 12 13  1  0
 13 14  2  0
 13 16  1  0
 16 17  2  0
 17 18  1  0
 18 19  2  0
 19 22  1  0
 22 23  1  0
 23 24  1  0
 24 25  1  0
 25 26  1  0
 25 27  1  0
 27 28  1  0
 19 20  1  0
 20 21  2  0
  8  9  1  0
  9 10  1  0
 29 30  1  0
 30 31  2  0
 31 32  1  0
 32 33  2  0
 33 34  1  0
 34 35  2  0
 10  3  1  0
 35 30  1  0
  9  5  2  0
 21 16  1  0
 28 22  1  0
  6 11  1  0
 12 15  1  0
M  END
> <minimizedAffinity>
-8.34833

> <CNNscore>
0.7840029001

> <CNNaffinity>
7.2132239342

> <CNN_VS>
5.6551885605

> <CNNaffinity_variance>
0.1461910307

$$$$



 37 41  0  0  0  0  0  0  0  0999 V2000
  -43.8097  -48.0771   -7.5413 C   0  0  0  0  0  0  0  0  0  0  0  0
  -44.6796  -48.8584   -7.1402 O   0  0  0  0  0  0  0  0  0  0  0  0
  -43.1983  -48.2549   -8.7637 N   0  0  0  0  0  0  0  0  0  0  0  0
  -42.1413  -47.3835   -9.3465 C   0  0  0  0  0  0  0  0  0  0  0  0
  -41.8812  -48.1402  -10.5657 C   0  0  0  0  0  0  0  0  0  0  0  0
  -41.0697  -48.0357  -11.6313 N   0  0  0  0  0  0  0  0  0  0  0  0
  -41.2488  -49.0679  -12.4928 N   0  0  0  0  0  0  0  0  0  0  0  0
  -42.1973  -49.8353  -11.9210 C   0  0  0  0  0  0  0  0  0  0  0  0
  -42.6213  -49.2724  -10.7163 C   0  0  0  0  0  0  0  0  0  0  0  0
  -43.5341  -49.4591   -9.5837 C   0  0  0  0  0  0  0  0  0  0  0  0
  -40.4268  -47.3030  -11.7693 H   0  0  0  0  0  0  0  0  0  0  0  0
  -42.5812  -50.9840  -12.5658 N   0  0  0  0  0  0  0  0  0  0  0  0
  -43.1386  -52.0880  -11.9707 C   0  0  0  0  0  0  0  0  0  0  0  0
  -43.3624  -52.2358  -10.7751 O   0  0  0  0  0  0  0  0  0  0  0  0
  -42.4450  -51.0193  -13.5402 H   0  0  0  0  0  0  0  0  0  0  0  0
  -43.4670  -53.2072  -12.8926 C   0  0  0  0  0  0  0  0  0  0  0  0
  -42.5023  -53.6144  -13.8131 C   0  0  0  0  0  0  0  0  0  0  0  0
  -42.7659  -54.6851  -14.6741 C   0  0  0  0  0  0  0  0  0  0  0  0
  -43.9759  -55.4025  -14.6284 C   0  0  0  0  0  0  0  0  0  0  0  0
  -44.9344  -54.9598  -13.7044 C   0  0  0  0  0  0  0  0  0  0  0  0
  -44.6883  -53.8809  -12.8396 C   0  0  0  0  0  0  0  0  0  0  0  0
  -44.1796  -56.4724  -15.5021 N   0  0  0  0  0  0  0  0  0  0  0  0
  -45.3020  -57.4135  -15.3073 C   0  0  0  0  0  0  0  0  0  0  0  0
  -44.8859  -58.6478  -14.4656 C   0  0  0  0  0  0  0  0  0  0  0  0
  -43.6687  -59.3566  -14.9263 N   0  0  0  0  0  0  0  0  0  0  0  0
  -43.9207  -60.1347  -16.1368 C   0  0  0  0  0  0  0  0  0  0  0  0
  -42.5860  -58.3665  -15.1310 C   0  0  0  0  0  0  0  0  0  0  0  0
  -42.9593  -57.1461  -16.0106 C   0  0  0  0  0  0  0  0  0  0  0  0
  -43.3741  -46.8808   -6.6501 C   0  0  0  0  0  0  0  0  0  0  0  0
  -44.5441  -45.9818   -6.2477 C   0  0  0  0  0  0  0  0  0  0  0  0
  -44.8716  -44.8374   -6.9965 C   0  0  0  0  0  0  0  0  0  0  0  0
  -45.9622  -44.0363   -6.6464 C   0  0  0  0  0  0  0  0  0  0  0  0
  -46.7503  -44.3706   -5.5479 C   0  0  0  0  0  0  0  0  0  0  0  0
  -46.4529  -45.5101   -4.8038 C   0  0  0  0  0  0  0  0  0  0  0  0
  -45.3686  -46.3169   -5.1576 C   0  0  0  0  0  0  0  0  0  0  0  0
  -41.2347  -47.2651   -5.7027 C   0  0  0  0  0  0  0  0  0  0  0  0
  -42.6418  -47.2973   -5.4915 O   0  0  0  0  0  0  0  0  0  0  0  0
 36 37  1  0
 29 37  1  0
 29  1  1  0
  1  2  2  0
  1  3  1  0
  3  4  1  0
  4  5  1  0
  5  6  1  0
  6  7  1  0
  7  8  2  0
  8 12  1  0
 12 13  1  0
 13 14  2  0
 13 16  1  0
 16 17  2  0
 17 18  1  0
 18 19  2  0
 19 22  1  0
 22 23  1  0
 23 24  1  0
 24 25  1  0
 25 26  1  0
 25 27  1  0
 27 28  1  0
 19 20  1  0
 20 21  2  0
  8  9  1  0
  9 10  1  0
 29 30  1  0
 30 31  2  0
 31 32  1  0
 32 33  2  0
 33 34  1  0
 34 35  2  0
 10  3  1  0
 35 30  1  0
  9  5  2  0
 21 16  1  0
 28 22  1  0
  6 11  1  0
 12 15  1  0
M  END
> <minimizedAffinity>
-7.51482

> <CNNscore>
0.2947387993

> <CNNaffinity>
6.6243228912

> <CNN_VS>
1.9524450302

> <CNNaffinity_variance>
0.0846808776

$$$$



 37 41  0  0  0  0  0  0  0  0999 V2000
  -43.8188  -48.0301  -10.3102 C   0  0  0  0  0  0  0  0  0  0  0  0
  -45.0414  -47.9004  -10.1819 O   0  0  0  0  0  0  0  0  0  0  0  0
  -43.2802  -49.1198  -10.9601 N   0  0  0  0  0  0  0  0  0  0  0  0
  -41.8301  -49.3815  -11.1716 C   0  0  0  0  0  0  0  0  0  0  0  0
  -41.9349  -50.6820  -11.8231 C   0  0  0  0  0  0  0  0  0  0  0  0
  -41.0912  -51.5975  -12.3280 N   0  0  0  0  0  0  0  0  0  0  0  0
  -41.7611  -52.6685  -12.8220 N   0  0  0  0  0  0  0  0  0  0  0  0
  -43.0616  -52.3974  -12.5964 C   0  0  0  0  0  0  0  0  0  0  0  0
  -43.2021  -51.1526  -11.9810 C   0  0  0  0  0  0  0  0  0  0  0  0
  -44.1859  -50.2050  -11.4470 C   0  0  0  0  0  0  0  0  0  0  0  0
  -40.1113  -51.5031  -12.3382 H   0  0  0  0  0  0  0  0  0  0  0  0
  -43.9960  -53.3262  -12.9796 N   0  0  0  0  0  0  0  0  0  0  0  0
  -43.9163  -54.6789  -12.7615 C   0  0  0  0  0  0  0  0  0  0  0  0
  -42.9967  -55.2753  -12.2138 O   0  0  0  0  0  0  0  0  0  0  0  0
  -44.7930  -52.9933  -13.4520 H   0  0  0  0  0  0  0  0  0  0  0  0
  -45.0629  -55.4726  -13.2767 C   0  0  0  0  0  0  0  0  0  0  0  0
  -45.1239  -55.7417  -14.6433 C   0  0  0  0  0  0  0  0  0  0  0  0
  -46.1720  -56.5127  -15.1576 C   0  0  0  0  0  0  0  0  0  0  0  0
  -47.1701  -57.0649  -14.3332 C   0  0  0  0  0  0  0  0  0  0  0  0
  -47.0929  -56.7634  -12.9651 C   0  0  0  0  0  0  0  0  0  0  0  0
  -46.0522  -55.9835  -12.4349 C   0  0  0  0  0  0  0  0  0  0  0  0
  -48.1851  -57.8391  -14.8989 N   0  0  0  0  0  0  0  0  0  0  0  0
  -49.1725  -58.5396  -14.0518 C   0  0  0  0  0  0  0  0  0  0  0  0
  -48.7359  -59.9927  -13.7310 C   0  0  0  0  0  0  0  0  0  0  0  0
  -48.3532  -60.8194  -14.8999 N   0  0  0  0  0  0  0  0  0  0  0  0
  -49.5195  -61.2293  -15.6784 C   0  0  0  0  0  0  0  0  0  0  0  0
  -47.3856  -60.0617  -15.7268 C   0  0  0  0  0  0  0  0  0  0  0  0
  -47.8185  -58.6222  -16.1046 C   0  0  0  0  0  0  0  0  0  0  0  0
  -42.8607  -46.9619   -9.7134 C   0  0  0  0  0  0  0  0  0  0  0  0
  -42.4140  -47.2932   -8.2887 C   0  0  0  0  0  0  0  0  0  0  0  0
  -42.7795  -48.5053   -7.6764 C   0  0  0  0  0  0  0  0  0  0  0  0
  -42.3416  -48.8206   -6.3869 C   0  0  0  0  0  0  0  0  0  0  0  0
  -41.5230  -47.9346   -5.6910 C   0  0  0  0  0  0  0  0  0  0  0  0
  -41.1354  -46.7366   -6.2870 C   0  0  0  0  0  0  0  0  0  0  0  0
  -41.5647  -46.4238   -7.5792 C   0  0  0  0  0  0  0  0  0  0  0  0
  -41.9164  -45.5937  -11.4040 C   0  0  0  0  0  0  0  0  0  0  0  0
  -41.7240  -46.7155  -10.5495 O   0  0  0  0  0  0  0  0  0  0  0  0
 36 37  1  0
 29 37  1  0
 29  1  1  0
  1  2  2  0
  1  3  1  0
  3  4  1  0
  4  5  1  0
  5  6  1  0
  6  7  1  0
  7  8  2  0
  8 12  1  0
 12 13  1  0
 13 14  2  0
 13 16  1  0
 16 17  2  0
 17 18  1  0
 18 19  2  0
 19 22  1  0
 22 23  1  0
 23 24  1  0
 24 25  1  0
 25 26  1  0
 25 27  1  0
 27 28  1  0
 19 20  1  0
 20 21  2  0
  8  9  1  0
  9 10  1  0
 29 30  1  0
 30 31  2  0
 31 32  1  0
 32 33  2  0
 33 34  1  0
 34 35  2  0
 10  3  1  0
 35 30  1  0
  9  5  2  0
 21 16  1  0
 28 22  1  0
  6 11  1  0
 12 15  1  0
M  END
> <minimizedAffinity>
-7.17834

> <CNNscore>
0.2749675512

> <CNNaffinity>
6.2909927368

> <CNN_VS>
1.7298188210

> <CNNaffinity_variance>
0.0889007077

$$$$



 37 41  0  0  0  0  0  0  0  0999 V2000
  -42.9953  -49.3360  -11.9921 C   0  0  0  0  0  0  0  0  0  0  0  0
  -44.0473  -48.9245  -11.4903 O   0  0  0  0  0  0  0  0  0  0  0  0
  -42.8413  -50.6598  -12.3437 N   0  0  0  0  0  0  0  0  0  0  0  0
  -41.6247  -51.2665  -12.9503 C   0  0  0  0  0  0  0  0  0  0  0  0
  -42.0707  -52.6542  -12.9946 C   0  0  0  0  0  0  0  0  0  0  0  0
  -41.5685  -53.8342  -13.3952 N   0  0  0  0  0  0  0  0  0  0  0  0
  -42.4496  -54.8438  -13.1856 N   0  0  0  0  0  0  0  0  0  0  0  0
  -43.5236  -54.2548  -12.6240 C   0  0  0  0  0  0  0  0  0  0  0  0
  -43.3193  -52.8796  -12.5021 C   0  0  0  0  0  0  0  0  0  0  0  0
  -43.9351  -51.6320  -12.0380 C   0  0  0  0  0  0  0  0  0  0  0  0
  -40.6745  -53.9511  -13.7908 H   0  0  0  0  0  0  0  0  0  0  0  0
  -44.5910  -55.0437  -12.2764 N   0  0  0  0  0  0  0  0  0  0  0  0
  -45.7789  -55.1295  -12.9586 C   0  0  0  0  0  0  0  0  0  0  0  0
  -46.0859  -54.5056  -13.9675 O   0  0  0  0  0  0  0  0  0  0  0  0
  -44.4966  -55.5964  -11.4671 H   0  0  0  0  0  0  0  0  0  0  0  0
  -46.7797  -56.0606  -12.3741 C   0  0  0  0  0  0  0  0  0  0  0  0
  -46.4156  -56.8114  -11.2572 C   0  0  0  0  0  0  0  0  0  0  0  0
  -47.3429  -57.6739  -10.6625 C   0  0  0  0  0  0  0  0  0  0  0  0
  -48.6633  -57.7948  -11.1346 C   0  0  0  0  0  0  0  0  0  0  0  0
  -48.9962  -57.0405  -12.2698 C   0  0  0  0  0  0  0  0  0  0  0  0
  -48.0740  -56.1772  -12.8836 C   0  0  0  0  0  0  0  0  0  0  0  0
  -49.5512  -58.6605  -10.4930 N   0  0  0  0  0  0  0  0  0  0  0  0
  -50.9446  -58.8093  -10.9617 C   0  0  0  0  0  0  0  0  0  0  0  0
  -51.9118  -57.8480  -10.2232 C   0  0  0  0  0  0  0  0  0  0  0  0
  -51.8401  -57.8793   -8.7433 N   0  0  0  0  0  0  0  0  0  0  0  0
  -52.4543  -59.0870   -8.1968 C   0  0  0  0  0  0  0  0  0  0  0  0
  -50.4234  -57.7538   -8.3293 C   0  0  0  0  0  0  0  0  0  0  0  0
  -49.4410  -58.7370   -9.0154 C   0  0  0  0  0  0  0  0  0  0  0  0
  -41.8100  -48.3562  -12.2161 C   0  0  0  0  0  0  0  0  0  0  0  0
  -41.6978  -47.2975  -11.1181 C   0  0  0  0  0  0  0  0  0  0  0  0
  -41.7887  -47.6480   -9.7593 C   0  0  0  0  0  0  0  0  0  0  0  0
  -41.6520  -46.6835   -8.7568 C   0  0  0  0  0  0  0  0  0  0  0  0
  -41.4121  -45.3539   -9.0947 C   0  0  0  0  0  0  0  0  0  0  0  0
  -41.3012  -44.9895  -10.4347 C   0  0  0  0  0  0  0  0  0  0  0  0
  -41.4287  -45.9536  -11.4377 C   0  0  0  0  0  0  0  0  0  0  0  0
  -39.4500  -48.1484  -12.3127 C   0  0  0  0  0  0  0  0  0  0  0  0
  -40.5604  -49.0358  -12.3853 O   0  0  0  0  0  0  0  0  0  0  0  0
 36 37  1  0
 29 37  1  0
 29  1  1  0
  1  2  2  0
  1  3  1  0
  3  4  1  0
  4  5  1  0
  5  6  1  0
  6  7  1  0
  7  8  2  0
  8 12  1  0
 12 13  1  0
 13 14  2  0
 13 16  1  0
 16 17  2  0
 17 18  1  0
 18 19  2  0
 19 22  1  0
 22 23  1  0
 23 24  1  0
 24 25  1  0
 25 26  1  0
 25 27  1  0
 27 28  1  0
 19 20  1  0
 20 21  2  0
  8  9  1  0
  9 10  1  0
 29 30  1  0
 30 31  2  0
 31 32  1  0
 32 33  2  0
 33 34  1  0
 34 35  2  0
 10  3  1  0
 35 30  1  0
  9  5  2  0
 21 16  1  0
 28 22  1  0
  6 11  1  0
 12 15  1  0
M  END
> <minimizedAffinity>
-7.07191

> <CNNscore>
0.2534711659

> <CNNaffinity>
5.7873597145

> <CNN_VS>
1.4669288397

> <CNNaffinity_variance>
0.2148128599

$$$$



 37 41  0  0  0  0  0  0  0  0999 V2000
  -42.2287  -49.5407  -11.9596 C   0  0  0  0  0  0  0  0  0  0  0  0
  -41.4561  -48.9961  -12.7562 O   0  0  0  0  0  0  0  0  0  0  0  0
  -42.5690  -50.8700  -12.0897 N   0  0  0  0  0  0  0  0  0  0  0  0
  -43.4871  -51.6280  -11.1960 C   0  0  0  0  0  0  0  0  0  0  0  0
  -43.4802  -52.9024  -11.9049 C   0  0  0  0  0  0  0  0  0  0  0  0
  -44.0512  -54.1098  -11.7589 N   0  0  0  0  0  0  0  0  0  0  0  0
  -43.6876  -54.9531  -12.7571 N   0  0  0  0  0  0  0  0  0  0  0  0
  -42.8740  -54.2245  -13.5464 C   0  0  0  0  0  0  0  0  0  0  0  0
  -42.7163  -52.9373  -13.0307 C   0  0  0  0  0  0  0  0  0  0  0  0
  -42.0596  -51.6463  -13.2614 C   0  0  0  0  0  0  0  0  0  0  0  0
  -44.6565  -54.3516  -11.0211 H   0  0  0  0  0  0  0  0  0  0  0  0
  -42.3547  -54.8176  -14.6695 N   0  0  0  0  0  0  0  0  0  0  0  0
  -43.0799  -55.2759  -15.7408 C   0  0  0  0  0  0  0  0  0  0  0  0
  -44.2993  -55.2505  -15.8593 O   0  0  0  0  0  0  0  0  0  0  0  0
  -41.3768  -54.9236  -14.7104 H   0  0  0  0  0  0  0  0  0  0  0  0
  -42.2781  -55.8808  -16.8369 C   0  0  0  0  0  0  0  0  0  0  0  0
  -42.8504  -55.9744  -18.1048 C   0  0  0  0  0  0  0  0  0  0  0  0
  -42.1127  -56.5091  -19.1666 C   0  0  0  0  0  0  0  0  0  0  0  0
  -40.7806  -56.9363  -19.0129 C   0  0  0  0  0  0  0  0  0  0  0  0
  -40.2367  -56.8462  -17.7227 C   0  0  0  0  0  0  0  0  0  0  0  0
  -40.9674  -56.3204  -16.6447 C   0  0  0  0  0  0  0  0  0  0  0  0
  -40.0869  -57.4486  -20.1110 N   0  0  0  0  0  0  0  0  0  0  0  0
  -40.1165  -58.8918  -20.4267 C   0  0  0  0  0  0  0  0  0  0  0  0
  -38.9309  -59.6527  -19.7784 C   0  0  0  0  0  0  0  0  0  0  0  0
  -37.5877  -59.0789  -20.0289 N   0  0  0  0  0  0  0  0  0  0  0  0
  -37.1384  -59.3292  -21.3963 C   0  0  0  0  0  0  0  0  0  0  0  0
  -37.6208  -57.6299  -19.7232 C   0  0  0  0  0  0  0  0  0  0  0  0
  -38.7671  -56.8345  -20.3983 C   0  0  0  0  0  0  0  0  0  0  0  0
  -42.8506  -48.7160  -10.7985 C   0  0  0  0  0  0  0  0  0  0  0  0
  -42.1323  -47.3866  -10.5619 C   0  0  0  0  0  0  0  0  0  0  0  0
  -41.9527  -46.4622  -11.6064 C   0  0  0  0  0  0  0  0  0  0  0  0
  -41.3260  -45.2335  -11.3798 C   0  0  0  0  0  0  0  0  0  0  0  0
  -40.8769  -44.9032  -10.1036 C   0  0  0  0  0  0  0  0  0  0  0  0
  -41.0610  -45.7980   -9.0519 C   0  0  0  0  0  0  0  0  0  0  0  0
  -41.6952  -47.0228   -9.2746 C   0  0  0  0  0  0  0  0  0  0  0  0
  -44.9492  -48.4532   -9.7266 C   0  0  0  0  0  0  0  0  0  0  0  0
  -44.2566  -48.5014  -10.9690 O   0  0  0  0  0  0  0  0  0  0  0  0
 36 37  1  0
 29 37  1  0
 29  1  1  0
  1  2  2  0
  1  3  1  0
  3  4  1  0
  4  5  1  0
  5  6  1  0
  6  7  1  0
  7  8  2  0
  8 12  1  0
 12 13  1  0
 13 14  2  0
 13 16  1  0
 16 17  2  0
 17 18  1  0
 18 19  2  0
 19 22  1  0
 22 23  1  0
 23 24  1  0
 24 25  1  0
 25 26  1  0
 25 27  1  0
 27 28  1  0
 19 20  1  0
 20 21  2  0
  8  9  1  0
  9 10  1  0
 29 30  1  0
 30 31  2  0
 31 32  1  0
 32 33  2  0
 33 34  1  0
 34 35  2  0
 10  3  1  0
 35 30  1  0
  9  5  2  0
 21 16  1  0
 28 22  1  0
  6 11  1  0
 12 15  1  0
M  END
> <minimizedAffinity>
-7.71987

> <CNNscore>
0.2427140325

> <CNNaffinity>
6.2003636360

> <CNN_VS>
1.5049152374

> <CNNaffinity_variance>
0.0338317640

$$$$



 37 41  0  0  0  0  0  0  0  0999 V2000
  -43.4490  -49.6462  -11.7739 C   0  0  0  0  0  0  0  0  0  0  0  0
  -44.4212  -49.3659  -11.0637 O   0  0  0  0  0  0  0  0  0  0  0  0
  -43.1958  -50.9454  -12.1582 N   0  0  0  0  0  0  0  0  0  0  0  0
  -42.0596  -51.3996  -13.0059 C   0  0  0  0  0  0  0  0  0  0  0  0
  -42.3168  -52.8346  -12.9666 C   0  0  0  0  0  0  0  0  0  0  0  0
  -41.7551  -53.9465  -13.4696 N   0  0  0  0  0  0  0  0  0  0  0  0
  -42.4326  -55.0585  -13.0898 N   0  0  0  0  0  0  0  0  0  0  0  0
  -43.4374  -54.6039  -12.3156 C   0  0  0  0  0  0  0  0  0  0  0  0
  -43.3970  -53.2115  -12.2294 C   0  0  0  0  0  0  0  0  0  0  0  0
  -44.0649  -52.0462  -11.6404 C   0  0  0  0  0  0  0  0  0  0  0  0
  -40.9536  -53.9533  -14.0413 H   0  0  0  0  0  0  0  0  0  0  0  0
  -44.2966  -55.5187  -11.7611 N   0  0  0  0  0  0  0  0  0  0  0  0
  -44.4536  -55.7582  -10.4188 C   0  0  0  0  0  0  0  0  0  0  0  0
  -43.8427  -55.2153   -9.5058 O   0  0  0  0  0  0  0  0  0  0  0  0
  -44.8486  -56.0495  -12.3798 H   0  0  0  0  0  0  0  0  0  0  0  0
  -45.4522  -56.8041  -10.0740 C   0  0  0  0  0  0  0  0  0  0  0  0
  -45.8430  -56.9362   -8.7422 C   0  0  0  0  0  0  0  0  0  0  0  0
  -46.8043  -57.8888   -8.3872 C   0  0  0  0  0  0  0  0  0  0  0  0
  -47.4284  -58.7144   -9.3409 C   0  0  0  0  0  0  0  0  0  0  0  0
  -47.0032  -58.5714  -10.6703 C   0  0  0  0  0  0  0  0  0  0  0  0
  -46.0328  -57.6262  -11.0412 C   0  0  0  0  0  0  0  0  0  0  0  0
  -48.3922  -59.6381   -8.9319 N   0  0  0  0  0  0  0  0  0  0  0  0
  -48.8650  -60.7014   -9.8425 C   0  0  0  0  0  0  0  0  0  0  0  0
  -50.1299  -60.2719  -10.6302 C   0  0  0  0  0  0  0  0  0  0  0  0
  -51.2431  -59.7362   -9.8115 N   0  0  0  0  0  0  0  0  0  0  0  0
  -51.9315  -60.7937   -9.0753 C   0  0  0  0  0  0  0  0  0  0  0  0
  -50.7110  -58.6963   -8.9007 C   0  0  0  0  0  0  0  0  0  0  0  0
  -49.4757  -59.1151   -8.0635 C   0  0  0  0  0  0  0  0  0  0  0  0
  -42.4755  -48.5241  -12.2304 C   0  0  0  0  0  0  0  0  0  0  0  0
  -42.1584  -47.5230  -11.1185 C   0  0  0  0  0  0  0  0  0  0  0  0
  -41.8481  -46.1836  -11.4140 C   0  0  0  0  0  0  0  0  0  0  0  0
  -41.5920  -45.2626  -10.3942 C   0  0  0  0  0  0  0  0  0  0  0  0
  -41.6512  -45.6619   -9.0613 C   0  0  0  0  0  0  0  0  0  0  0  0
  -41.9741  -46.9801   -8.7473 C   0  0  0  0  0  0  0  0  0  0  0  0
  -42.2392  -47.8999   -9.7650 C   0  0  0  0  0  0  0  0  0  0  0  0
  -40.1390  -48.8199  -11.9563 C   0  0  0  0  0  0  0  0  0  0  0  0
  -41.2662  -49.0432  -12.7961 O   0  0  0  0  0  0  0  0  0  0  0  0
 36 37  1  0
 29 37  1  0
 29  1  1  0
  1  2  2  0
  1  3  1  0
  3  4  1  0
  4  5  1  0
  5  6  1  0
  6  7  1  0
  7  8  2  0
  8 12  1  0
 12 13  1  0
 13 14  2  0
 13 16  1  0
 16 17  2  0
 17 18  1  0
 18 19  2  0
 19 22  1  0
 22 23  1  0
 23 24  1  0
 24 25  1  0
 25 26  1  0
 25 27  1  0
 27 28  1  0
 19 20  1  0
 20 21  2  0
  8  9  1  0
  9 10  1  0
 29 30  1  0
 30 31  2  0
 31 32  1  0
 32 33  2  0
 33 34  1  0
 34 35  2  0
 10  3  1  0
 35 30  1  0
  9  5  2  0
 21 16  1  0
 28 22  1  0
  6 11  1  0
 12 15  1  0
M  END
> <minimizedAffinity>
-7.51811

> <CNNscore>
0.2337625474

> <CNNaffinity>
5.6907353401

> <CNN_VS>
1.3302807808

> <CNNaffinity_variance>
0.3343309462

$$$$



 37 41  0  0  0  0  0  0  0  0999 V2000
  -43.0885  -48.8532  -11.6151 C   0  0  0  0  0  0  0  0  0  0  0  0
  -44.1177  -48.4863  -11.0371 O   0  0  0  0  0  0  0  0  0  0  0  0
  -42.9232  -50.1606  -12.0190 N   0  0  0  0  0  0  0  0  0  0  0  0
  -41.7313  -50.7147  -12.7179 C   0  0  0  0  0  0  0  0  0  0  0  0
  -42.1442  -52.1119  -12.7811 C   0  0  0  0  0  0  0  0  0  0  0  0
  -41.6381  -53.2646  -13.2503 N   0  0  0  0  0  0  0  0  0  0  0  0
  -42.4792  -54.3039  -13.0212 N   0  0  0  0  0  0  0  0  0  0  0  0
  -43.5311  -53.7621  -12.3766 C   0  0  0  0  0  0  0  0  0  0  0  0
  -43.3542  -52.3864  -12.2217 C   0  0  0  0  0  0  0  0  0  0  0  0
  -43.9714  -51.1712  -11.6801 C   0  0  0  0  0  0  0  0  0  0  0  0
  -40.7675  -53.3448  -13.7029 H   0  0  0  0  0  0  0  0  0  0  0  0
  -44.5550  -54.5902  -11.9913 N   0  0  0  0  0  0  0  0  0  0  0  0
  -45.6703  -54.8837  -12.7353 C   0  0  0  0  0  0  0  0  0  0  0  0
  -45.9422  -54.4419  -13.8454 O   0  0  0  0  0  0  0  0  0  0  0  0
  -44.4835  -55.0104  -11.1038 H   0  0  0  0  0  0  0  0  0  0  0  0
  -46.6363  -55.8118  -12.0906 C   0  0  0  0  0  0  0  0  0  0  0  0
  -46.1539  -56.7319  -11.1607 C   0  0  0  0  0  0  0  0  0  0  0  0
  -47.0395  -57.5988  -10.5114 C   0  0  0  0  0  0  0  0  0  0  0  0
  -48.4278  -57.5596  -10.7388 C   0  0  0  0  0  0  0  0  0  0  0  0
  -48.8826  -56.6359  -11.6919 C   0  0  0  0  0  0  0  0  0  0  0  0
  -48.0053  -55.7653  -12.3588 C   0  0  0  0  0  0  0  0  0  0  0  0
  -49.2668  -58.4391  -10.0516 N   0  0  0  0  0  0  0  0  0  0  0  0
  -49.3907  -58.3826   -8.5803 C   0  0  0  0  0  0  0  0  0  0  0  0
  -48.4003  -59.3463   -7.8764 C   0  0  0  0  0  0  0  0  0  0  0  0
  -48.4165  -60.7470   -8.3601 N   0  0  0  0  0  0  0  0  0  0  0  0
  -49.6043  -61.4642   -7.9029 C   0  0  0  0  0  0  0  0  0  0  0  0
  -48.3170  -60.7449   -9.8381 C   0  0  0  0  0  0  0  0  0  0  0  0
  -49.3289  -59.8276  -10.5708 C   0  0  0  0  0  0  0  0  0  0  0  0
  -41.9440  -47.8351  -11.8778 C   0  0  0  0  0  0  0  0  0  0  0  0
  -41.6888  -46.9073  -10.6891 C   0  0  0  0  0  0  0  0  0  0  0  0
  -41.3567  -45.5545  -10.8819 C   0  0  0  0  0  0  0  0  0  0  0  0
  -41.1573  -44.7004   -9.7935 C   0  0  0  0  0  0  0  0  0  0  0  0
  -41.2961  -45.1811   -8.4938 C   0  0  0  0  0  0  0  0  0  0  0  0
  -41.6418  -46.5139   -8.2820 C   0  0  0  0  0  0  0  0  0  0  0  0
  -41.8503  -47.3667   -9.3687 C   0  0  0  0  0  0  0  0  0  0  0  0
  -39.6060  -47.5988  -12.1934 C   0  0  0  0  0  0  0  0  0  0  0  0
  -40.7271  -48.4705  -12.2868 O   0  0  0  0  0  0  0  0  0  0  0  0
 36 37  1  0
 29 37  1  0
 29  1  1  0
  1  2  2  0
  1  3  1  0
  3  4  1  0
  4  5  1  0
  5  6  1  0
  6  7  1  0
  7  8  2  0
  8 12  1  0
 12 13  1  0
 13 14  2  0
 13 16  1  0
 16 17  2  0
 17 18  1  0
 18 19  2  0
 19 22  1  0
 22 23  1  0
 23 24  1  0
 24 25  1  0
 25 26  1  0
 25 27  1  0
 27 28  1  0
 19 20  1  0
 20 21  2  0
  8  9  1  0
  9 10  1  0
 29 30  1  0
 30 31  2  0
 31 32  1  0
 32 33  2  0
 33 34  1  0
 34 35  2  0
 10  3  1  0
 35 30  1  0
  9  5  2  0
 21 16  1  0
 28 22  1  0
  6 11  1  0
 12 15  1  0
M  END
> <minimizedAffinity>
-7.40396

> <CNNscore>
0.2303170115

> <CNNaffinity>
5.6387801170

> <CNN_VS>
1.2987070084

> <CNNaffinity_variance>
0.4224658906

$$$$



 37 41  0  0  0  0  0  0  0  0999 V2000
  -43.8434  -47.9040  -10.2532 C   0  0  0  0  0  0  0  0  0  0  0  0
  -45.0507  -47.6976  -10.0871 O   0  0  0  0  0  0  0  0  0  0  0  0
  -43.3948  -49.0284  -10.9123 N   0  0  0  0  0  0  0  0  0  0  0  0
  -41.9713  -49.3812  -11.1678 C   0  0  0  0  0  0  0  0  0  0  0  0
  -42.1777  -50.6759  -11.8066 C   0  0  0  0  0  0  0  0  0  0  0  0
  -41.4093  -51.6448  -12.3316 N   0  0  0  0  0  0  0  0  0  0  0  0
  -42.1602  -52.6743  -12.7966 N   0  0  0  0  0  0  0  0  0  0  0  0
  -43.4333  -52.3214  -12.5317 C   0  0  0  0  0  0  0  0  0  0  0  0
  -43.4762  -51.0672  -11.9210 C   0  0  0  0  0  0  0  0  0  0  0  0
  -44.3814  -50.0573  -11.3626 C   0  0  0  0  0  0  0  0  0  0  0  0
  -40.4263  -51.6118  -12.3736 H   0  0  0  0  0  0  0  0  0  0  0  0
  -44.4356  -53.1919  -12.8786 N   0  0  0  0  0  0  0  0  0  0  0  0
  -45.2015  -53.9206  -12.0033 C   0  0  0  0  0  0  0  0  0  0  0  0
  -45.1022  -53.9296  -10.7820 O   0  0  0  0  0  0  0  0  0  0  0  0
  -44.6215  -53.3036  -13.8389 H   0  0  0  0  0  0  0  0  0  0  0  0
  -46.2255  -54.7949  -12.6333 C   0  0  0  0  0  0  0  0  0  0  0  0
  -46.8003  -55.8056  -11.8639 C   0  0  0  0  0  0  0  0  0  0  0  0
  -47.7901  -56.6265  -12.4153 C   0  0  0  0  0  0  0  0  0  0  0  0
  -48.2613  -56.4517  -13.7299 C   0  0  0  0  0  0  0  0  0  0  0  0
  -47.6529  -55.4385  -14.4860 C   0  0  0  0  0  0  0  0  0  0  0  0
  -46.6518  -54.6122  -13.9498 C   0  0  0  0  0  0  0  0  0  0  0  0
  -49.2617  -57.2913  -14.2239 N   0  0  0  0  0  0  0  0  0  0  0  0
  -50.4361  -56.7433  -14.9336 C   0  0  0  0  0  0  0  0  0  0  0  0
  -51.6267  -56.4852  -13.9740 C   0  0  0  0  0  0  0  0  0  0  0  0
  -52.0102  -57.6251  -13.1081 N   0  0  0  0  0  0  0  0  0  0  0  0
  -52.7052  -58.6668  -13.8605 C   0  0  0  0  0  0  0  0  0  0  0  0
  -50.7958  -58.1519  -12.4433 C   0  0  0  0  0  0  0  0  0  0  0  0
  -49.6058  -58.4660  -13.3855 C   0  0  0  0  0  0  0  0  0  0  0  0
  -42.8020  -46.8948   -9.6946 C   0  0  0  0  0  0  0  0  0  0  0  0
  -42.3162  -47.2574   -8.2904 C   0  0  0  0  0  0  0  0  0  0  0  0
  -41.5096  -46.3745   -7.5505 C   0  0  0  0  0  0  0  0  0  0  0  0
  -41.0951  -46.6936   -6.2542 C   0  0  0  0  0  0  0  0  0  0  0  0
  -41.4877  -47.8960   -5.6715 C   0  0  0  0  0  0  0  0  0  0  0  0
  -42.3011  -48.7762   -6.3815 C   0  0  0  0  0  0  0  0  0  0  0  0
  -42.7238  -48.4549   -7.6738 C   0  0  0  0  0  0  0  0  0  0  0  0
  -41.7367  -45.4566  -11.2498 C   0  0  0  0  0  0  0  0  0  0  0  0
  -41.6887  -46.7097  -10.5768 O   0  0  0  0  0  0  0  0  0  0  0  0
 36 37  1  0
 29 37  1  0
 29  1  1  0
  1  2  2  0
  1  3  1  0
  3  4  1  0
  4  5  1  0
  5  6  1  0
  6  7  1  0
  7  8  2  0
  8 12  1  0
 12 13  1  0
 13 14  2  0
 13 16  1  0
 16 17  2  0
 17 18  1  0
 18 19  2  0
 19 22  1  0
 22 23  1  0
 23 24  1  0
 24 25  1  0
 25 26  1  0
 25 27  1  0
 27 28  1  0
 19 20  1  0
 20 21  2  0
  8  9  1  0
  9 10  1  0
 29 30  1  0
 30 31  2  0
 31 32  1  0
 32 33  2  0
 33 34  1  0
 34 35  2  0
 10  3  1  0
 35 30  1  0
  9  5  2  0
 21 16  1  0
 28 22  1  0
  6 11  1  0
 12 15  1  0
M  END
> <minimizedAffinity>
-7.25403

> <CNNscore>
0.2229965180

> <CNNaffinity>
6.1946167946

> <CNN_VS>
1.3813779354

> <CNNaffinity_variance>
0.0621300675

$$$$



 37 41  0  0  0  0  0  0  0  0999 V2000
  -44.2400  -47.7457   -9.8110 C   0  0  0  0  0  0  0  0  0  0  0  0
  -45.4628  -47.6278   -9.9482 O   0  0  0  0  0  0  0  0  0  0  0  0
  -43.5409  -48.7409  -10.4595 N   0  0  0  0  0  0  0  0  0  0  0  0
  -42.0743  -48.9795  -10.3682 C   0  0  0  0  0  0  0  0  0  0  0  0
  -41.9960  -50.1800  -11.1925 C   0  0  0  0  0  0  0  0  0  0  0  0
  -41.0370  -51.0239  -11.6088 N   0  0  0  0  0  0  0  0  0  0  0  0
  -41.5504  -52.0150  -12.3794 N   0  0  0  0  0  0  0  0  0  0  0  0
  -42.8747  -51.7697  -12.4217 C   0  0  0  0  0  0  0  0  0  0  0  0
  -43.1823  -50.6183  -11.6954 C   0  0  0  0  0  0  0  0  0  0  0  0
  -44.2851  -49.7458  -11.2788 C   0  0  0  0  0  0  0  0  0  0  0  0
  -40.0829  -50.9342  -11.3832 H   0  0  0  0  0  0  0  0  0  0  0  0
  -43.6744  -52.6335  -13.1268 N   0  0  0  0  0  0  0  0  0  0  0  0
  -44.2269  -53.7915  -12.6394 C   0  0  0  0  0  0  0  0  0  0  0  0
  -44.0803  -54.2503  -11.5126 O   0  0  0  0  0  0  0  0  0  0  0  0
  -43.8687  -52.4025  -14.0638 H   0  0  0  0  0  0  0  0  0  0  0  0
  -45.0581  -54.5538  -13.6079 C   0  0  0  0  0  0  0  0  0  0  0  0
  -46.4450  -54.5077  -13.4735 C   0  0  0  0  0  0  0  0  0  0  0  0
  -47.2585  -55.1874  -14.3865 C   0  0  0  0  0  0  0  0  0  0  0  0
  -46.7265  -55.9044  -15.4744 C   0  0  0  0  0  0  0  0  0  0  0  0
  -45.3277  -55.9478  -15.5746 C   0  0  0  0  0  0  0  0  0  0  0  0
  -44.4974  -55.2784  -14.6609 C   0  0  0  0  0  0  0  0  0  0  0  0
  -47.5865  -56.5522  -16.3634 N   0  0  0  0  0  0  0  0  0  0  0  0
  -47.0596  -57.3499  -17.4901 C   0  0  0  0  0  0  0  0  0  0  0  0
  -46.9328  -56.5099  -18.7876 C   0  0  0  0  0  0  0  0  0  0  0  0
  -48.1472  -55.7598  -19.1863 N   0  0  0  0  0  0  0  0  0  0  0  0
  -49.1743  -56.6433  -19.7328 C   0  0  0  0  0  0  0  0  0  0  0  0
  -48.6476  -55.0012  -18.0166 C   0  0  0  0  0  0  0  0  0  0  0  0
  -48.8315  -55.8272  -16.7181 C   0  0  0  0  0  0  0  0  0  0  0  0
  -43.4692  -46.7726   -8.8760 C   0  0  0  0  0  0  0  0  0  0  0  0
  -42.2932  -46.0856   -9.5718 C   0  0  0  0  0  0  0  0  0  0  0  0
  -42.3815  -45.6781  -10.9149 C   0  0  0  0  0  0  0  0  0  0  0  0
  -41.3177  -45.0199  -11.5385 C   0  0  0  0  0  0  0  0  0  0  0  0
  -40.1511  -44.7488  -10.8278 C   0  0  0  0  0  0  0  0  0  0  0  0
  -40.0507  -45.1287   -9.4913 C   0  0  0  0  0  0  0  0  0  0  0  0
  -41.1164  -45.7786   -8.8638 C   0  0  0  0  0  0  0  0  0  0  0  0
  -44.3840  -45.9421   -6.8522 C   0  0  0  0  0  0  0  0  0  0  0  0
  -44.3275  -45.8006   -8.2673 O   0  0  0  0  0  0  0  0  0  0  0  0
 36 37  1  0
 29 37  1  0
 29  1  1  0
  1  2  2  0
  1  3  1  0
  3  4  1  0
  4  5  1  0
  5  6  1  0
  6  7  1  0
  7  8  2  0
  8 12  1  0
 12 13  1  0
 13 14  2  0
 13 16  1  0
 16 17  2  0
 17 18  1  0
 18 19  2  0
 19 22  1  0
 22 23  1  0
 23 24  1  0
 24 25  1  0
 25 26  1  0
 25 27  1  0
 27 28  1  0
 19 20  1  0
 20 21  2  0
  8  9  1  0
  9 10  1  0
 29 30  1  0
 30 31  2  0
 31 32  1  0
 32 33  2  0
 33 34  1  0
 34 35  2  0
 10  3  1  0
 35 30  1  0
  9  5  2  0
 21 16  1  0
 28 22  1  0
  6 11  1  0
 12 15  1  0
M  END
> <minimizedAffinity>
-7.92750

> <CNNscore>
0.2227706611

> <CNNaffinity>
6.2611393929

> <CNN_VS>
1.3947981596

> <CNNaffinity_variance>
0.3948233426

$$$$
