


 36 37  0  0  0  0  0  0  0  0999 V2000
   19.1525   27.7613    0.0379 C   0  0  0  0  0  0  0  0  0  0  0  0
   18.5681   28.9315   -0.5283 O   0  0  0  0  0  0  0  0  0  0  0  0
   20.6482   27.9256   -0.1444 C   0  0  0  0  0  0  0  0  0  0  0  0
   21.5078   26.9590   -0.5148 C   0  0  0  0  0  0  0  0  0  0  0  0
   20.9799   25.5803   -0.7530 C   0  0  0  0  0  0  0  0  0  0  0  0
   21.7241   24.6760   -1.1322 O   0  0  0  0  0  0  0  0  0  0  0  0
   19.5023   25.3117   -0.4565 C   0  0  0  0  0  0  0  0  0  0  0  0
   19.0196   24.2256   -1.2417 O   0  0  0  0  0  0  0  0  0  0  0  0
   18.6736   26.5469   -0.7611 C   0  0  0  0  0  0  0  0  0  0  0  0
   18.8619   29.7118   -0.0327 H   0  0  0  0  0  0  0  0  0  0  0  0
   19.0981   24.4471   -2.1828 H   0  0  0  0  0  0  0  0  0  0  0  0
   18.8677   27.7480    1.5667 C   0  0  0  0  0  0  0  0  0  0  0  0
   19.2269   26.5137    2.4903 C   0  0  0  0  0  0  0  0  0  0  0  0
   18.6954   25.2156    1.8493 C   0  0  0  0  0  0  0  0  0  0  0  0
   20.7704   26.4340    2.4730 C   0  0  0  0  0  0  0  0  0  0  0  0
   18.6686   26.7377    3.9342 C   0  0  0  0  0  0  0  0  0  0  0  0
   17.1603   27.0037    4.2768 C   0  0  0  0  0  0  0  0  0  0  0  0
   16.4666   27.8521    3.1874 C   0  0  0  0  0  0  0  0  0  0  0  0
   16.3736   25.6911    4.4175 C   0  0  0  0  0  0  0  0  0  0  0  0
   17.0537   27.8632    5.5985 C   0  0  0  0  0  0  0  0  0  0  0  0
   18.6879   29.6590    4.6726 C   0  0  0  0  0  0  0  0  0  0  0  0
   17.8302   29.1966    5.8536 C   0  0  0  0  0  0  0  0  0  0  0  0
   18.7062   29.1318    7.1181 C   0  0  0  0  0  0  0  0  0  0  0  0
   16.7612   30.2908    6.1071 C   0  0  0  0  0  0  0  0  0  0  0  0
   22.9807   27.1979   -0.7223 C   0  0  0  0  0  0  0  0  0  0  0  0
   23.3888   27.0830   -2.1913 C   0  0  0  0  0  0  0  0  0  0  0  0
   24.8178   27.5497   -2.4208 C   0  0  0  0  0  0  0  0  0  0  0  0
   25.7803   26.8209   -2.2120 O   0  0  0  0  0  0  0  0  0  0  0  0
   24.8518   28.8485   -2.9035 N   0  0  0  0  0  0  0  0  0  0  0  0
   23.9809   29.2955   -3.0083 H   0  0  0  0  0  0  0  0  0  0  0  0
   25.9862   29.6056   -3.2624 C   0  0  0  0  0  0  0  0  0  0  0  0
   26.1887   30.1605   -4.5270 C   0  0  0  0  0  0  0  0  0  0  0  0
   27.3425   30.9028   -4.7997 C   0  0  0  0  0  0  0  0  0  0  0  0
   28.3029   31.0960   -3.8105 C   0  0  0  0  0  0  0  0  0  0  0  0
   28.1109   30.5476   -2.5456 C   0  0  0  0  0  0  0  0  0  0  0  0
   26.9585   29.8061   -2.2732 C   0  0  0  0  0  0  0  0  0  0  0  0
 21 22  1  0
 22 23  1  0
 22 24  1  0
 22 20  1  0
 20 17  1  0
 17 18  1  0
 17 19  1  0
 17 16  1  0
 16 13  1  0
 13 14  1  0
 13 15  1  0
 13 12  1  0
 12  1  1  0
  1  2  1  0
  1  3  1  0
  3  4  2  0
  4 25  1  0
 25 26  1  0
 26 27  1  0
 27 28  2  0
 27 29  1  0
 29 31  1  0
 31 32  2  0
 32 33  1  0
 33 34  2  0
 34 35  1  0
 35 36  2  0
  4  5  1  0
  5  6  2  0
  5  7  1  0
  7  8  1  0
  7  9  1  0
  9  1  1  0
 36 31  1  0
  2 10  1  0
 29 30  1  0
  8 11  1  0
M  END
> <minimizedAffinity>
-6.07658

> <CNNscore>
0.6015117764

> <CNNaffinity>
6.6556115150

> <CNN_VS>
4.0034289360

> <CNNaffinity_variance>
0.0913036838

$$$$



 36 37  0  0  0  0  0  0  0  0999 V2000
   24.8438   29.3220   10.4820 C   0  0  0  0  0  0  0  0  0  0  0  0
   24.4380   29.9908   11.6734 O   0  0  0  0  0  0  0  0  0  0  0  0
   23.5880   28.6765    9.9310 C   0  0  0  0  0  0  0  0  0  0  0  0
   23.5041   27.4431    9.3997 C   0  0  0  0  0  0  0  0  0  0  0  0
   24.7458   26.6151    9.3054 C   0  0  0  0  0  0  0  0  0  0  0  0
   24.7069   25.4666    8.8637 O   0  0  0  0  0  0  0  0  0  0  0  0
   26.0736   27.2552    9.7185 C   0  0  0  0  0  0  0  0  0  0  0  0
   27.0042   26.2611   10.1365 O   0  0  0  0  0  0  0  0  0  0  0  0
   25.8517   28.2334   10.8582 C   0  0  0  0  0  0  0  0  0  0  0  0
   23.7978   30.6852   11.4524 H   0  0  0  0  0  0  0  0  0  0  0  0
   26.6496   25.7897   10.9066 H   0  0  0  0  0  0  0  0  0  0  0  0
   25.3153   30.3829    9.4472 C   0  0  0  0  0  0  0  0  0  0  0  0
   25.7175   31.8571    9.8604 C   0  0  0  0  0  0  0  0  0  0  0  0
   26.0068   32.6887    8.5942 C   0  0  0  0  0  0  0  0  0  0  0  0
   24.4508   32.4504   10.5180 C   0  0  0  0  0  0  0  0  0  0  0  0
   26.9313   31.8306   10.8466 C   0  0  0  0  0  0  0  0  0  0  0  0
   28.4170   31.5493   10.4263 C   0  0  0  0  0  0  0  0  0  0  0  0
   29.1939   30.8029   11.5342 C   0  0  0  0  0  0  0  0  0  0  0  0
   28.4907   30.6974    9.1496 C   0  0  0  0  0  0  0  0  0  0  0  0
   29.1873   32.9152   10.2317 C   0  0  0  0  0  0  0  0  0  0  0  0
   30.8296   32.2266    8.3393 C   0  0  0  0  0  0  0  0  0  0  0  0
   30.6189   33.0456    9.6157 C   0  0  0  0  0  0  0  0  0  0  0  0
   31.7260   32.6966   10.6272 C   0  0  0  0  0  0  0  0  0  0  0  0
   30.8080   34.5392    9.2449 C   0  0  0  0  0  0  0  0  0  0  0  0
   22.2134   26.8407    8.9090 C   0  0  0  0  0  0  0  0  0  0  0  0
   21.6741   27.5501    7.6665 C   0  0  0  0  0  0  0  0  0  0  0  0
   21.7841   26.6798    6.4243 C   0  0  0  0  0  0  0  0  0  0  0  0
   22.8579   26.2360    6.0354 O   0  0  0  0  0  0  0  0  0  0  0  0
   20.5409   26.4592    5.8525 N   0  0  0  0  0  0  0  0  0  0  0  0
   19.7771   26.8981    6.2918 H   0  0  0  0  0  0  0  0  0  0  0  0
   20.2407   25.6804    4.7158 C   0  0  0  0  0  0  0  0  0  0  0  0
   19.6868   24.4002    4.7683 C   0  0  0  0  0  0  0  0  0  0  0  0
   19.4157   23.6955    3.5908 C   0  0  0  0  0  0  0  0  0  0  0  0
   19.6961   24.2650    2.3517 C   0  0  0  0  0  0  0  0  0  0  0  0
   20.2480   25.5412    2.2876 C   0  0  0  0  0  0  0  0  0  0  0  0
   20.5189   26.2451    3.4637 C   0  0  0  0  0  0  0  0  0  0  0  0
 21 22  1  0
 22 23  1  0
 22 24  1  0
 22 20  1  0
 20 17  1  0
 17 18  1  0
 17 19  1  0
 17 16  1  0
 16 13  1  0
 13 14  1  0
 13 15  1  0
 13 12  1  0
 12  1  1  0
  1  2  1  0
  1  3  1  0
  3  4  2  0
  4 25  1  0
 25 26  1  0
 26 27  1  0
 27 28  2  0
 27 29  1  0
 29 31  1  0
 31 32  2  0
 32 33  1  0
 33 34  2  0
 34 35  1  0
 35 36  2  0
  4  5  1  0
  5  6  2  0
  5  7  1  0
  7  8  1  0
  7  9  1  0
  9  1  1  0
 36 31  1  0
  2 10  1  0
 29 30  1  0
  8 11  1  0
M  END
> <minimizedAffinity>
-6.16188

> <CNNscore>
0.5088151097

> <CNNaffinity>
5.9489417076

> <CNN_VS>
3.0269114971

> <CNNaffinity_variance>
0.3753287792

$$$$



 36 37  0  0  0  0  0  0  0  0999 V2000
   19.3620   27.9632   -0.9391 C   0  0  0  0  0  0  0  0  0  0  0  0
   19.0754   29.0007   -1.8733 O   0  0  0  0  0  0  0  0  0  0  0  0
   20.8630   27.7627   -1.0030 C   0  0  0  0  0  0  0  0  0  0  0  0
   21.5010   26.5781   -0.9904 C   0  0  0  0  0  0  0  0  0  0  0  0
   20.6904   25.3263   -0.8796 C   0  0  0  0  0  0  0  0  0  0  0  0
   21.2302   24.2201   -0.9051 O   0  0  0  0  0  0  0  0  0  0  0  0
   19.1793   25.4604   -0.6752 C   0  0  0  0  0  0  0  0  0  0  0  0
   18.5000   24.3077   -1.1642 O   0  0  0  0  0  0  0  0  0  0  0  0
   18.6584   26.6860   -1.4043 C   0  0  0  0  0  0  0  0  0  0  0  0
   19.5146   29.8188   -1.5928 H   0  0  0  0  0  0  0  0  0  0  0  0
   18.6639   24.2153   -2.1158 H   0  0  0  0  0  0  0  0  0  0  0  0
   19.0194   28.4678    0.4915 C   0  0  0  0  0  0  0  0  0  0  0  0
   18.2538   29.8279    0.7554 C   0  0  0  0  0  0  0  0  0  0  0  0
   16.8215   29.7334    0.1913 C   0  0  0  0  0  0  0  0  0  0  0  0
   18.1343   29.9306    2.2929 C   0  0  0  0  0  0  0  0  0  0  0  0
   19.0555   31.0265    0.1493 C   0  0  0  0  0  0  0  0  0  0  0  0
   19.0359   32.4905    0.7147 C   0  0  0  0  0  0  0  0  0  0  0  0
   20.2855   32.7895    1.5732 C   0  0  0  0  0  0  0  0  0  0  0  0
   18.9859   33.5311   -0.4149 C   0  0  0  0  0  0  0  0  0  0  0  0
   17.8098   32.6707    1.6949 C   0  0  0  0  0  0  0  0  0  0  0  0
   16.3627   34.8036    1.3645 C   0  0  0  0  0  0  0  0  0  0  0  0
   17.3317   34.0427    2.2736 C   0  0  0  0  0  0  0  0  0  0  0  0
   18.5081   34.9655    2.6412 C   0  0  0  0  0  0  0  0  0  0  0  0
   16.5806   33.7300    3.5935 C   0  0  0  0  0  0  0  0  0  0  0  0
   22.9974   26.4441   -1.1020 C   0  0  0  0  0  0  0  0  0  0  0  0
   23.5467   27.0851   -2.3768 C   0  0  0  0  0  0  0  0  0  0  0  0
   24.5553   28.1813   -2.0708 C   0  0  0  0  0  0  0  0  0  0  0  0
   24.7004   28.6332   -0.9412 O   0  0  0  0  0  0  0  0  0  0  0  0
   25.2628   28.5456   -3.2057 N   0  0  0  0  0  0  0  0  0  0  0  0
   25.0142   28.0838   -4.0389 H   0  0  0  0  0  0  0  0  0  0  0  0
   26.2965   29.4993   -3.3081 C   0  0  0  0  0  0  0  0  0  0  0  0
   26.5030   30.3127   -4.4235 C   0  0  0  0  0  0  0  0  0  0  0  0
   27.5520   31.2378   -4.4426 C   0  0  0  0  0  0  0  0  0  0  0  0
   28.4029   31.3569   -3.3471 C   0  0  0  0  0  0  0  0  0  0  0  0
   28.2058   30.5511   -2.2293 C   0  0  0  0  0  0  0  0  0  0  0  0
   27.1580   29.6271   -2.2101 C   0  0  0  0  0  0  0  0  0  0  0  0
 21 22  1  0
 22 23  1  0
 22 24  1  0
 22 20  1  0
 20 17  1  0
 17 18  1  0
 17 19  1  0
 17 16  1  0
 16 13  1  0
 13 14  1  0
 13 15  1  0
 13 12  1  0
 12  1  1  0
  1  2  1  0
  1  3  1  0
  3  4  2  0
  4 25  1  0
 25 26  1  0
 26 27  1  0
 27 28  2  0
 27 29  1  0
 29 31  1  0
 31 32  2  0
 32 33  1  0
 33 34  2  0
 34 35  1  0
 35 36  2  0
  4  5  1  0
  5  6  2  0
  5  7  1  0
  7  8  1  0
  7  9  1  0
  9  1  1  0
 36 31  1  0
  2 10  1  0
 29 30  1  0
  8 11  1  0
M  END
> <minimizedAffinity>
-5.65798

> <CNNscore>
0.3956815302

> <CNNaffinity>
6.0498523712

> <CNN_VS>
2.3938148022

> <CNNaffinity_variance>
0.2516218126

$$$$



 36 37  0  0  0  0  0  0  0  0999 V2000
   22.1323   27.5081    7.1318 C   0  0  0  0  0  0  0  0  0  0  0  0
   22.1398   28.4243    6.0402 O   0  0  0  0  0  0  0  0  0  0  0  0
   22.7110   28.2714    8.3065 C   0  0  0  0  0  0  0  0  0  0  0  0
   23.5826   27.7860    9.2093 C   0  0  0  0  0  0  0  0  0  0  0  0
   24.0238   26.3622    9.0889 C   0  0  0  0  0  0  0  0  0  0  0  0
   24.8507   25.8893    9.8689 O   0  0  0  0  0  0  0  0  0  0  0  0
   23.3761   25.4945    8.0069 C   0  0  0  0  0  0  0  0  0  0  0  0
   24.2466   24.4348    7.6220 O   0  0  0  0  0  0  0  0  0  0  0  0
   23.0525   26.3353    6.7848 C   0  0  0  0  0  0  0  0  0  0  0  0
   21.5604   29.1751    6.2442 H   0  0  0  0  0  0  0  0  0  0  0  0
   25.0646   24.8053    7.2552 H   0  0  0  0  0  0  0  0  0  0  0  0
   20.6581   27.1589    7.4832 C   0  0  0  0  0  0  0  0  0  0  0  0
   19.6314   26.6143    6.4086 C   0  0  0  0  0  0  0  0  0  0  0  0
   19.0550   25.2641    6.8812 C   0  0  0  0  0  0  0  0  0  0  0  0
   18.4694   27.6335    6.4097 C   0  0  0  0  0  0  0  0  0  0  0  0
   20.3185   26.5116    5.0071 C   0  0  0  0  0  0  0  0  0  0  0  0
   19.6325   26.8886    3.6468 C   0  0  0  0  0  0  0  0  0  0  0  0
   18.2873   26.1513    3.4602 C   0  0  0  0  0  0  0  0  0  0  0  0
   19.3548   28.3971    3.5539 C   0  0  0  0  0  0  0  0  0  0  0  0
   20.5347   26.4113    2.4405 C   0  0  0  0  0  0  0  0  0  0  0  0
   21.3366   27.2492    0.1151 C   0  0  0  0  0  0  0  0  0  0  0  0
   20.1926   26.6424    0.9321 C   0  0  0  0  0  0  0  0  0  0  0  0
   18.9278   27.4998    0.7427 C   0  0  0  0  0  0  0  0  0  0  0  0
   19.8809   25.2483    0.3293 C   0  0  0  0  0  0  0  0  0  0  0  0
   24.1564   28.6117   10.3311 C   0  0  0  0  0  0  0  0  0  0  0  0
   25.1455   29.6657    9.8324 C   0  0  0  0  0  0  0  0  0  0  0  0
   24.5435   31.0620    9.8516 C   0  0  0  0  0  0  0  0  0  0  0  0
   23.4948   31.3090   10.4350 O   0  0  0  0  0  0  0  0  0  0  0  0
   25.3419   31.9639    9.1658 N   0  0  0  0  0  0  0  0  0  0  0  0
   26.1532   31.5948    8.7478 H   0  0  0  0  0  0  0  0  0  0  0  0
   25.1296   33.3477    8.9958 C   0  0  0  0  0  0  0  0  0  0  0  0
   23.9104   33.9116    8.6163 C   0  0  0  0  0  0  0  0  0  0  0  0
   23.7834   35.2972    8.4735 C   0  0  0  0  0  0  0  0  0  0  0  0
   24.8740   36.1300    8.7088 C   0  0  0  0  0  0  0  0  0  0  0  0
   26.0944   35.5784    9.0883 C   0  0  0  0  0  0  0  0  0  0  0  0
   26.2214   34.1944    9.2309 C   0  0  0  0  0  0  0  0  0  0  0  0
 21 22  1  0
 22 23  1  0
 22 24  1  0
 22 20  1  0
 20 17  1  0
 17 18  1  0
 17 19  1  0
 17 16  1  0
 16 13  1  0
 13 14  1  0
 13 15  1  0
 13 12  1  0
 12  1  1  0
  1  2  1  0
  1  3  1  0
  3  4  2  0
  4 25  1  0
 25 26  1  0
 26 27  1  0
 27 28  2  0
 27 29  1  0
 29 31  1  0
 31 32  2  0
 32 33  1  0
 33 34  2  0
 34 35  1  0
 35 36  2  0
  4  5  1  0
  5  6  2  0
  5  7  1  0
  7  8  1  0
  7  9  1  0
  9  1  1  0
 36 31  1  0
  2 10  1  0
 29 30  1  0
  8 11  1  0
M  END
> <minimizedAffinity>
-5.18652

> <CNNscore>
0.3123417497

> <CNNaffinity>
5.1999163628

> <CNN_VS>
1.6241509914

> <CNNaffinity_variance>
0.0237161666

$$$$



 36 37  0  0  0  0  0  0  0  0999 V2000
   18.1826   27.1995   -0.6285 C   0  0  0  0  0  0  0  0  0  0  0  0
   17.5993   28.2705   -1.3660 O   0  0  0  0  0  0  0  0  0  0  0  0
   19.6711   27.4846   -0.6072 C   0  0  0  0  0  0  0  0  0  0  0  0
   20.6499   26.5759   -0.7705 C   0  0  0  0  0  0  0  0  0  0  0  0
   20.2738   25.1422   -0.9689 C   0  0  0  0  0  0  0  0  0  0  0  0
   21.1353   24.2844   -1.1626 O   0  0  0  0  0  0  0  0  0  0  0  0
   18.7942   24.7630   -0.8665 C   0  0  0  0  0  0  0  0  0  0  0  0
   18.5217   23.5864   -1.6217 O   0  0  0  0  0  0  0  0  0  0  0  0
   17.9259   25.8947   -1.3863 C   0  0  0  0  0  0  0  0  0  0  0  0
   17.7532   29.1064   -0.8986 H   0  0  0  0  0  0  0  0  0  0  0  0
   18.7226   23.7486   -2.5567 H   0  0  0  0  0  0  0  0  0  0  0  0
   17.6739   27.2661    0.8396 C   0  0  0  0  0  0  0  0  0  0  0  0
   18.4118   28.1058    1.9604 C   0  0  0  0  0  0  0  0  0  0  0  0
   19.1270   27.1498    2.9368 C   0  0  0  0  0  0  0  0  0  0  0  0
   19.5070   28.8999    1.2128 C   0  0  0  0  0  0  0  0  0  0  0  0
   17.3969   29.0494    2.6859 C   0  0  0  0  0  0  0  0  0  0  0  0
   17.7101   30.5198    3.1364 C   0  0  0  0  0  0  0  0  0  0  0  0
   16.4640   31.2145    3.7302 C   0  0  0  0  0  0  0  0  0  0  0  0
   18.8184   30.5602    4.2001 C   0  0  0  0  0  0  0  0  0  0  0  0
   18.1090   31.3921    1.8807 C   0  0  0  0  0  0  0  0  0  0  0  0
   17.7022   33.7111    2.9804 C   0  0  0  0  0  0  0  0  0  0  0  0
   17.7205   32.8944    1.6854 C   0  0  0  0  0  0  0  0  0  0  0  0
   16.3702   33.0616    0.9648 C   0  0  0  0  0  0  0  0  0  0  0  0
   18.7994   33.5151    0.7608 C   0  0  0  0  0  0  0  0  0  0  0  0
   22.1138   26.9313   -0.7835 C   0  0  0  0  0  0  0  0  0  0  0  0
   22.6669   27.0730   -2.2019 C   0  0  0  0  0  0  0  0  0  0  0  0
   24.1631   27.3448   -2.2023 C   0  0  0  0  0  0  0  0  0  0  0  0
   24.9618   26.5813   -1.6728 O   0  0  0  0  0  0  0  0  0  0  0  0
   24.4622   28.5141   -2.8838 N   0  0  0  0  0  0  0  0  0  0  0  0
   23.6950   29.0141   -3.2452 H   0  0  0  0  0  0  0  0  0  0  0  0
   25.7354   29.0723   -3.1207 C   0  0  0  0  0  0  0  0  0  0  0  0
   26.9375   28.4595   -2.7633 C   0  0  0  0  0  0  0  0  0  0  0  0
   28.1600   29.0807   -3.0386 C   0  0  0  0  0  0  0  0  0  0  0  0
   28.1906   30.3196   -3.6732 C   0  0  0  0  0  0  0  0  0  0  0  0
   26.9978   30.9395   -4.0346 C   0  0  0  0  0  0  0  0  0  0  0  0
   25.7766   30.3190   -3.7596 C   0  0  0  0  0  0  0  0  0  0  0  0
 21 22  1  0
 22 23  1  0
 22 24  1  0
 22 20  1  0
 20 17  1  0
 17 18  1  0
 17 19  1  0
 17 16  1  0
 16 13  1  0
 13 14  1  0
 13 15  1  0
 13 12  1  0
 12  1  1  0
  1  2  1  0
  1  3  1  0
  3  4  2  0
  4 25  1  0
 25 26  1  0
 26 27  1  0
 27 28  2  0
 27 29  1  0
 29 31  1  0
 31 32  2  0
 32 33  1  0
 33 34  2  0
 34 35  1  0
 35 36  2  0
  4  5  1  0
  5  6  2  0
  5  7  1  0
  7  8  1  0
  7  9  1  0
  9  1  1  0
 36 31  1  0
  2 10  1  0
 29 30  1  0
  8 11  1  0
M  END
> <minimizedAffinity>
-5.84096

> <CNNscore>
0.2872912288

> <CNNaffinity>
6.0029659271

> <CNN_VS>
1.7245994806

> <CNNaffinity_variance>
0.1449001729

$$$$



 36 37  0  0  0  0  0  0  0  0999 V2000
   19.0124   27.4623   -0.0668 C   0  0  0  0  0  0  0  0  0  0  0  0
   18.4176   28.6600   -0.5597 O   0  0  0  0  0  0  0  0  0  0  0  0
   20.5081   27.6666   -0.2013 C   0  0  0  0  0  0  0  0  0  0  0  0
   21.3947   26.7455   -0.6209 C   0  0  0  0  0  0  0  0  0  0  0  0
   20.8995   25.3787   -0.9714 C   0  0  0  0  0  0  0  0  0  0  0  0
   21.6697   24.5182   -1.3980 O   0  0  0  0  0  0  0  0  0  0  0  0
   19.4213   25.0623   -0.7302 C   0  0  0  0  0  0  0  0  0  0  0  0
   18.9778   24.0282   -1.6036 O   0  0  0  0  0  0  0  0  0  0  0  0
   18.5753   26.3013   -0.9633 C   0  0  0  0  0  0  0  0  0  0  0  0
   18.6849   29.4071   -0.0017 H   0  0  0  0  0  0  0  0  0  0  0  0
   19.0727   24.3195   -2.5240 H   0  0  0  0  0  0  0  0  0  0  0  0
   18.6941   27.3317    1.4499 C   0  0  0  0  0  0  0  0  0  0  0  0
   19.4469   26.3083    2.3941 C   0  0  0  0  0  0  0  0  0  0  0  0
   19.3064   24.8810    1.8269 C   0  0  0  0  0  0  0  0  0  0  0  0
   20.9403   26.6946    2.2966 C   0  0  0  0  0  0  0  0  0  0  0  0
   18.9067   26.4242    3.8575 C   0  0  0  0  0  0  0  0  0  0  0  0
   19.6130   25.8166    5.1205 C   0  0  0  0  0  0  0  0  0  0  0  0
   19.1428   26.5005    6.4240 C   0  0  0  0  0  0  0  0  0  0  0  0
   19.3317   24.3119    5.2552 C   0  0  0  0  0  0  0  0  0  0  0  0
   21.1677   26.0901    5.0494 C   0  0  0  0  0  0  0  0  0  0  0  0
   23.5503   26.5522    5.9779 C   0  0  0  0  0  0  0  0  0  0  0  0
   22.0465   26.5318    6.2653 C   0  0  0  0  0  0  0  0  0  0  0  0
   21.7844   25.6772    7.5189 C   0  0  0  0  0  0  0  0  0  0  0  0
   21.6217   27.9810    6.6165 C   0  0  0  0  0  0  0  0  0  0  0  0
   22.8668   27.0256   -0.7758 C   0  0  0  0  0  0  0  0  0  0  0  0
   23.2911   27.1216   -2.2416 C   0  0  0  0  0  0  0  0  0  0  0  0
   24.7338   27.5803   -2.3851 C   0  0  0  0  0  0  0  0  0  0  0  0
   25.6762   26.8754   -2.0442 O   0  0  0  0  0  0  0  0  0  0  0  0
   24.8069   28.8406   -2.9574 N   0  0  0  0  0  0  0  0  0  0  0  0
   23.9474   29.2727   -3.1667 H   0  0  0  0  0  0  0  0  0  0  0  0
   25.9667   29.5773   -3.2752 C   0  0  0  0  0  0  0  0  0  0  0  0
   26.1958   30.1806   -4.5129 C   0  0  0  0  0  0  0  0  0  0  0  0
   27.3737   30.8981   -4.7453 C   0  0  0  0  0  0  0  0  0  0  0  0
   28.3319   31.0181   -3.7424 C   0  0  0  0  0  0  0  0  0  0  0  0
   28.1135   30.4210   -2.5041 C   0  0  0  0  0  0  0  0  0  0  0  0
   26.9369   29.7042   -2.2720 C   0  0  0  0  0  0  0  0  0  0  0  0
 21 22  1  0
 22 23  1  0
 22 24  1  0
 22 20  1  0
 20 17  1  0
 17 18  1  0
 17 19  1  0
 17 16  1  0
 16 13  1  0
 13 14  1  0
 13 15  1  0
 13 12  1  0
 12  1  1  0
  1  2  1  0
  1  3  1  0
  3  4  2  0
  4 25  1  0
 25 26  1  0
 26 27  1  0
 27 28  2  0
 27 29  1  0
 29 31  1  0
 31 32  2  0
 32 33  1  0
 33 34  2  0
 34 35  1  0
 35 36  2  0
  4  5  1  0
  5  6  2  0
  5  7  1  0
  7  8  1  0
  7  9  1  0
  9  1  1  0
 36 31  1  0
  2 10  1  0
 29 30  1  0
  8 11  1  0
M  END
> <minimizedAffinity>
-7.24146

> <CNNscore>
0.2827094793

> <CNNaffinity>
5.9859046936

> <CNN_VS>
1.6922719479

> <CNNaffinity_variance>
0.1459773779

$$$$



 36 37  0  0  0  0  0  0  0  0999 V2000
   17.8990   27.2079   -1.0523 C   0  0  0  0  0  0  0  0  0  0  0  0
   17.3818   28.1996   -1.9358 O   0  0  0  0  0  0  0  0  0  0  0  0
   19.3644   27.5500   -0.8711 C   0  0  0  0  0  0  0  0  0  0  0  0
   20.3815   26.6696   -0.8431 C   0  0  0  0  0  0  0  0  0  0  0  0
   20.0742   25.2120   -0.9750 C   0  0  0  0  0  0  0  0  0  0  0  0
   20.9773   24.3756   -0.9953 O   0  0  0  0  0  0  0  0  0  0  0  0
   18.6049   24.7855   -1.0254 C   0  0  0  0  0  0  0  0  0  0  0  0
   18.4624   23.5475   -1.7154 O   0  0  0  0  0  0  0  0  0  0  0  0
   17.7762   25.8427   -1.7331 C   0  0  0  0  0  0  0  0  0  0  0  0
   17.4523   29.0725   -1.5188 H   0  0  0  0  0  0  0  0  0  0  0  0
   18.7737   23.6486   -2.6285 H   0  0  0  0  0  0  0  0  0  0  0  0
   17.2094   27.3620    0.3332 C   0  0  0  0  0  0  0  0  0  0  0  0
   17.9589   27.9480    1.5983 C   0  0  0  0  0  0  0  0  0  0  0  0
   18.7096   29.2364    1.2044 C   0  0  0  0  0  0  0  0  0  0  0  0
   16.8355   28.3545    2.5790 C   0  0  0  0  0  0  0  0  0  0  0  0
   18.9095   26.8681    2.2123 C   0  0  0  0  0  0  0  0  0  0  0  0
   19.5866   26.9739    3.6243 C   0  0  0  0  0  0  0  0  0  0  0  0
   18.8176   26.1616    4.6904 C   0  0  0  0  0  0  0  0  0  0  0  0
   21.0332   26.4562    3.5966 C   0  0  0  0  0  0  0  0  0  0  0  0
   19.5382   28.4696    4.1317 C   0  0  0  0  0  0  0  0  0  0  0  0
   20.6349   28.4240    6.4871 C   0  0  0  0  0  0  0  0  0  0  0  0
   19.4527   28.8933    5.6347 C   0  0  0  0  0  0  0  0  0  0  0  0
   18.1403   28.4375    6.2983 C   0  0  0  0  0  0  0  0  0  0  0  0
   19.4500   30.4436    5.6591 C   0  0  0  0  0  0  0  0  0  0  0  0
   21.8248   27.0783   -0.7043 C   0  0  0  0  0  0  0  0  0  0  0  0
   22.5144   27.2522   -2.0578 C   0  0  0  0  0  0  0  0  0  0  0  0
   24.0285   27.1816   -1.9358 C   0  0  0  0  0  0  0  0  0  0  0  0
   24.5908   26.2620   -1.3532 O   0  0  0  0  0  0  0  0  0  0  0  0
   24.6357   28.2496   -2.5776 N   0  0  0  0  0  0  0  0  0  0  0  0
   24.0315   28.9065   -2.9932 H   0  0  0  0  0  0  0  0  0  0  0  0
   26.0163   28.5067   -2.7058 C   0  0  0  0  0  0  0  0  0  0  0  0
   26.5652   29.7825   -2.8448 C   0  0  0  0  0  0  0  0  0  0  0  0
   27.9487   29.9508   -2.9627 C   0  0  0  0  0  0  0  0  0  0  0  0
   28.7945   28.8450   -2.9427 C   0  0  0  0  0  0  0  0  0  0  0  0
   28.2579   27.5681   -2.8040 C   0  0  0  0  0  0  0  0  0  0  0  0
   26.8759   27.4000   -2.6863 C   0  0  0  0  0  0  0  0  0  0  0  0
 21 22  1  0
 22 23  1  0
 22 24  1  0
 22 20  1  0
 20 17  1  0
 17 18  1  0
 17 19  1  0
 17 16  1  0
 16 13  1  0
 13 14  1  0
 13 15  1  0
 13 12  1  0
 12  1  1  0
  1  2  1  0
  1  3  1  0
  3  4  2  0
  4 25  1  0
 25 26  1  0
 26 27  1  0
 27 28  2  0
 27 29  1  0
 29 31  1  0
 31 32  2  0
 32 33  1  0
 33 34  2  0
 34 35  1  0
 35 36  2  0
  4  5  1  0
  5  6  2  0
  5  7  1  0
  7  8  1  0
  7  9  1  0
  9  1  1  0
 36 31  1  0
  2 10  1  0
 29 30  1  0
  8 11  1  0
M  END
> <minimizedAffinity>
-6.40845

> <CNNscore>
0.2790480256

> <CNNaffinity>
6.0974707603

> <CNN_VS>
1.7014871836

> <CNNaffinity_variance>
0.1994761974

$$$$



 36 37  0  0  0  0  0  0  0  0999 V2000
   18.2868   27.1766   -0.7312 C   0  0  0  0  0  0  0  0  0  0  0  0
   17.6989   28.2587   -1.4486 O   0  0  0  0  0  0  0  0  0  0  0  0
   19.7726   27.4739   -0.6938 C   0  0  0  0  0  0  0  0  0  0  0  0
   20.7603   26.5774   -0.8709 C   0  0  0  0  0  0  0  0  0  0  0  0
   20.3979   25.1453   -1.1034 C   0  0  0  0  0  0  0  0  0  0  0  0
   21.2681   24.2994   -1.3104 O   0  0  0  0  0  0  0  0  0  0  0  0
   18.9211   24.7513   -1.0190 C   0  0  0  0  0  0  0  0  0  0  0  0
   18.6636   23.5895   -1.8018 O   0  0  0  0  0  0  0  0  0  0  0  0
   18.0462   25.8869   -1.5193 C   0  0  0  0  0  0  0  0  0  0  0  0
   17.8426   29.0854   -0.9618 H   0  0  0  0  0  0  0  0  0  0  0  0
   18.8689   23.7740   -2.7317 H   0  0  0  0  0  0  0  0  0  0  0  0
   17.7683   27.2063    0.7347 C   0  0  0  0  0  0  0  0  0  0  0  0
   18.5364   27.9597    1.8958 C   0  0  0  0  0  0  0  0  0  0  0  0
   18.9760   29.3544    1.4056 C   0  0  0  0  0  0  0  0  0  0  0  0
   17.4799   28.1758    3.0030 C   0  0  0  0  0  0  0  0  0  0  0  0
   19.7410   27.0967    2.3966 C   0  0  0  0  0  0  0  0  0  0  0  0
   19.8623   26.4835    3.8363 C   0  0  0  0  0  0  0  0  0  0  0  0
   21.2312   26.7995    4.4798 C   0  0  0  0  0  0  0  0  0  0  0  0
   18.7703   27.0230    4.7732 C   0  0  0  0  0  0  0  0  0  0  0  0
   19.7995   24.9067    3.7548 C   0  0  0  0  0  0  0  0  0  0  0  0
   17.2256   24.5977    3.5748 C   0  0  0  0  0  0  0  0  0  0  0  0
   18.5451   24.0492    4.1250 C   0  0  0  0  0  0  0  0  0  0  0  0
   18.4083   23.8362    5.6437 C   0  0  0  0  0  0  0  0  0  0  0  0
   18.7635   22.6490    3.4959 C   0  0  0  0  0  0  0  0  0  0  0  0
   22.2211   26.9455   -0.8664 C   0  0  0  0  0  0  0  0  0  0  0  0
   22.7969   27.0639   -2.2779 C   0  0  0  0  0  0  0  0  0  0  0  0
   24.2857   27.3729   -2.2586 C   0  0  0  0  0  0  0  0  0  0  0  0
   25.0992   26.6163   -1.7418 O   0  0  0  0  0  0  0  0  0  0  0  0
   24.5607   28.5663   -2.9077 N   0  0  0  0  0  0  0  0  0  0  0  0
   23.7841   29.0561   -3.2629 H   0  0  0  0  0  0  0  0  0  0  0  0
   25.8213   29.1620   -3.1195 C   0  0  0  0  0  0  0  0  0  0  0  0
   27.0191   28.6630   -2.6051 C   0  0  0  0  0  0  0  0  0  0  0  0
   28.2293   29.3139   -2.8662 C   0  0  0  0  0  0  0  0  0  0  0  0
   28.2516   30.4688   -3.6435 C   0  0  0  0  0  0  0  0  0  0  0  0
   27.0631   30.9749   -4.1620 C   0  0  0  0  0  0  0  0  0  0  0  0
   25.8543   30.3248   -3.9012 C   0  0  0  0  0  0  0  0  0  0  0  0
 21 22  1  0
 22 23  1  0
 22 24  1  0
 22 20  1  0
 20 17  1  0
 17 18  1  0
 17 19  1  0
 17 16  1  0
 16 13  1  0
 13 14  1  0
 13 15  1  0
 13 12  1  0
 12  1  1  0
  1  2  1  0
  1  3  1  0
  3  4  2  0
  4 25  1  0
 25 26  1  0
 26 27  1  0
 27 28  2  0
 27 29  1  0
 29 31  1  0
 31 32  2  0
 32 33  1  0
 33 34  2  0
 34 35  1  0
 35 36  2  0
  4  5  1  0
  5  6  2  0
  5  7  1  0
  7  8  1  0
  7  9  1  0
  9  1  1  0
 36 31  1  0
  2 10  1  0
 29 30  1  0
  8 11  1  0
M  END
> <minimizedAffinity>
-6.83053

> <CNNscore>
0.2695589960

> <CNNaffinity>
5.9294662476

> <CNN_VS>
1.5983409882

> <CNNaffinity_variance>
0.4506112337

$$$$



 36 37  0  0  0  0  0  0  0  0999 V2000
   18.6988   27.5393   -0.9039 C   0  0  0  0  0  0  0  0  0  0  0  0
   18.2070   28.5848   -1.7384 O   0  0  0  0  0  0  0  0  0  0  0  0
   20.2047   27.7096   -0.8845 C   0  0  0  0  0  0  0  0  0  0  0  0
   21.1109   26.7176   -0.9554 C   0  0  0  0  0  0  0  0  0  0  0  0
   20.6257   25.3054   -1.0368 C   0  0  0  0  0  0  0  0  0  0  0  0
   21.4193   24.3703   -1.1440 O   0  0  0  0  0  0  0  0  0  0  0  0
   19.1203   25.0516   -0.9247 C   0  0  0  0  0  0  0  0  0  0  0  0
   18.7631   23.8389   -1.5812 O   0  0  0  0  0  0  0  0  0  0  0  0
   18.3473   26.1980   -1.5518 C   0  0  0  0  0  0  0  0  0  0  0  0
   18.4218   29.4435   -1.3415 H   0  0  0  0  0  0  0  0  0  0  0  0
   18.9838   23.9042   -2.5235 H   0  0  0  0  0  0  0  0  0  0  0  0
   18.1847   27.7708    0.5455 C   0  0  0  0  0  0  0  0  0  0  0  0
   18.2082   29.1922    1.2418 C   0  0  0  0  0  0  0  0  0  0  0  0
   18.4925   30.2807    0.1868 C   0  0  0  0  0  0  0  0  0  0  0  0
   16.7660   29.4144    1.7515 C   0  0  0  0  0  0  0  0  0  0  0  0
   19.2500   29.2061    2.4085 C   0  0  0  0  0  0  0  0  0  0  0  0
   18.9232   28.8485    3.9014 C   0  0  0  0  0  0  0  0  0  0  0  0
   20.0186   29.3578    4.8650 C   0  0  0  0  0  0  0  0  0  0  0  0
   17.5866   29.4607    4.3487 C   0  0  0  0  0  0  0  0  0  0  0  0
   18.9087   27.2793    4.0864 C   0  0  0  0  0  0  0  0  0  0  0  0
   21.2173   26.6371    5.0914 C   0  0  0  0  0  0  0  0  0  0  0  0
   20.1749   26.3652    4.0034 C   0  0  0  0  0  0  0  0  0  0  0  0
   20.8564   26.4318    2.6244 C   0  0  0  0  0  0  0  0  0  0  0  0
   19.6820   24.9067    4.1874 C   0  0  0  0  0  0  0  0  0  0  0  0
   22.5982   26.9567   -0.9766 C   0  0  0  0  0  0  0  0  0  0  0  0
   23.1366   27.1559   -2.3937 C   0  0  0  0  0  0  0  0  0  0  0  0
   24.6066   27.5454   -2.3919 C   0  0  0  0  0  0  0  0  0  0  0  0
   25.4704   26.8184   -1.9160 O   0  0  0  0  0  0  0  0  0  0  0  0
   24.8031   28.7725   -3.0059 N   0  0  0  0  0  0  0  0  0  0  0  0
   23.9939   29.2301   -3.3299 H   0  0  0  0  0  0  0  0  0  0  0  0
   26.0248   29.4431   -3.2213 C   0  0  0  0  0  0  0  0  0  0  0  0
   27.1620   29.2710   -2.4303 C   0  0  0  0  0  0  0  0  0  0  0  0
   28.3375   29.9735   -2.7154 C   0  0  0  0  0  0  0  0  0  0  0  0
   28.3854   30.8536   -3.7931 C   0  0  0  0  0  0  0  0  0  0  0  0
   27.2574   31.0324   -4.5888 C   0  0  0  0  0  0  0  0  0  0  0  0
   26.0832   30.3308   -4.3042 C   0  0  0  0  0  0  0  0  0  0  0  0
 21 22  1  0
 22 23  1  0
 22 24  1  0
 22 20  1  0
 20 17  1  0
 17 18  1  0
 17 19  1  0
 17 16  1  0
 16 13  1  0
 13 14  1  0
 13 15  1  0
 13 12  1  0
 12  1  1  0
  1  2  1  0
  1  3  1  0
  3  4  2  0
  4 25  1  0
 25 26  1  0
 26 27  1  0
 27 28  2  0
 27 29  1  0
 29 31  1  0
 31 32  2  0
 32 33  1  0
 33 34  2  0
 34 35  1  0
 35 36  2  0
  4  5  1  0
  5  6  2  0
  5  7  1  0
  7  8  1  0
  7  9  1  0
  9  1  1  0
 36 31  1  0
  2 10  1  0
 29 30  1  0
  8 11  1  0
M  END
> <minimizedAffinity>
-6.80579

> <CNNscore>
0.2692238986

> <CNNaffinity>
5.6671676636

> <CNN_VS>
1.5257369280

> <CNNaffinity_variance>
0.6842523217

$$$$
