


 22 23  0  0  0  0  0  0  0  0999 V2000
   -4.5463   -3.6101   22.5097 C   0  0  0  0  0  0  0  0  0  0  0  0
   -5.5417   -4.5461   21.7962 C   0  0  0  0  0  0  0  0  0  0  0  0
   -6.6867   -4.1026   21.1159 C   0  0  0  0  0  0  0  0  0  0  0  0
   -7.5367   -5.0089   20.4725 C   0  0  0  0  0  0  0  0  0  0  0  0
   -7.2505   -6.3675   20.4905 C   0  0  0  0  0  0  0  0  0  0  0  0
   -8.1190   -7.1988   19.8422 O   0  0  0  0  0  0  0  0  0  0  0  0
   -6.1149   -6.8329   21.1465 C   0  0  0  0  0  0  0  0  0  0  0  0
   -5.6975   -8.6797   21.1761 Br  0  0  0  0  0  0  0  0  0  0  0  0
   -5.2653   -5.9312   21.7915 C   0  0  0  0  0  0  0  0  0  0  0  0
   -8.8729   -6.8456   19.4122 H   0  0  0  0  0  0  0  0  0  0  0  0
   -0.3127   -2.1375   18.9817 O   0  0  0  0  0  0  0  0  0  0  0  0
   -1.3414   -2.4938   19.8014 C   0  0  0  0  0  0  0  0  0  0  0  0
   -1.1433   -2.3903   21.1712 C   0  0  0  0  0  0  0  0  0  0  0  0
   -2.1678   -2.7455   22.0509 C   0  0  0  0  0  0  0  0  0  0  0  0
   -3.4013   -3.2107   21.5646 C   0  0  0  0  0  0  0  0  0  0  0  0
   -3.5793   -3.2994   20.1713 C   0  0  0  0  0  0  0  0  0  0  0  0
   -2.5526   -2.9449   19.2921 C   0  0  0  0  0  0  0  0  0  0  0  0
    0.4953   -1.8359   19.3480 H   0  0  0  0  0  0  0  0  0  0  0  0
   -5.1019   -2.4228   23.3801 C   0  0  0  0  0  0  0  0  0  0  0  0
   -5.8898   -1.1670   22.3422 Cl  0  0  0  0  0  0  0  0  0  0  0  0
   -3.8774   -1.6042   24.4105 Cl  0  0  0  0  0  0  0  0  0  0  0  0
   -6.4092   -3.0114   24.4981 Cl  0  0  0  0  0  0  0  0  0  0  0  0
 11 12  1  0
 12 13  2  0
 13 14  1  0
 14 15  2  0
 15  1  1  0
  1  2  1  0
  2  3  2  0
  3  4  1  0
  4  5  2  0
  5  6  1  0
  5  7  1  0
  7  8  1  0
  7  9  2  0
  1 19  1  0
 19 20  1  0
 19 21  1  0
 19 22  1  0
 15 16  1  0
 16 17  2  0
 17 12  1  0
  9  2  1  0
 11 18  1  0
  6 10  1  0
M  END
> <minimizedAffinity>
-8.49682

> <CNNscore>
0.9887666702

> <CNNaffinity>
8.4106502533

> <CNN_VS>
8.3161706924

> <CNNaffinity_variance>
0.4384818077

$$$$



 22 23  0  0  0  0  0  0  0  0999 V2000
   -4.1300   -4.0172   22.5837 C   0  0  0  0  0  0  0  0  0  0  0  0
   -4.8108   -5.2745   22.0079 C   0  0  0  0  0  0  0  0  0  0  0  0
   -4.2238   -6.5496   21.9969 C   0  0  0  0  0  0  0  0  0  0  0  0
   -4.9094   -7.6522   21.4750 C   0  0  0  0  0  0  0  0  0  0  0  0
   -6.1927   -7.4993   20.9672 C   0  0  0  0  0  0  0  0  0  0  0  0
   -6.8078   -8.6149   20.4744 O   0  0  0  0  0  0  0  0  0  0  0  0
   -6.8032   -6.2489   20.9779 C   0  0  0  0  0  0  0  0  0  0  0  0
   -8.5564   -6.0171   20.3008 Br  0  0  0  0  0  0  0  0  0  0  0  0
   -6.1209   -5.1458   21.4961 C   0  0  0  0  0  0  0  0  0  0  0  0
   -6.3622   -9.4391   20.4853 H   0  0  0  0  0  0  0  0  0  0  0  0
   -0.1465   -2.0365   19.0134 O   0  0  0  0  0  0  0  0  0  0  0  0
   -1.0797   -2.5058   19.8887 C   0  0  0  0  0  0  0  0  0  0  0  0
   -2.2747   -2.9815   19.3674 C   0  0  0  0  0  0  0  0  0  0  0  0
   -3.2618   -3.4709   20.2252 C   0  0  0  0  0  0  0  0  0  0  0  0
   -3.0604   -3.4855   21.6157 C   0  0  0  0  0  0  0  0  0  0  0  0
   -1.8370   -3.0044   22.1184 C   0  0  0  0  0  0  0  0  0  0  0  0
   -0.8507   -2.5136   21.2588 C   0  0  0  0  0  0  0  0  0  0  0  0
   -0.3231   -2.0410   18.0933 H   0  0  0  0  0  0  0  0  0  0  0  0
   -5.0207   -2.8944   23.2333 C   0  0  0  0  0  0  0  0  0  0  0  0
   -4.0097   -1.7191   24.1667 Cl  0  0  0  0  0  0  0  0  0  0  0  0
   -6.3203   -3.4957   24.3199 Cl  0  0  0  0  0  0  0  0  0  0  0  0
   -5.8390   -1.9069   21.9446 Cl  0  0  0  0  0  0  0  0  0  0  0  0
 11 12  1  0
 12 13  2  0
 13 14  1  0
 14 15  2  0
 15  1  1  0
  1  2  1  0
  2  3  2  0
  3  4  1  0
  4  5  2  0
  5  6  1  0
  5  7  1  0
  7  8  1  0
  7  9  2  0
  1 19  1  0
 19 20  1  0
 19 21  1  0
 19 22  1  0
 15 16  1  0
 16 17  2  0
 17 12  1  0
  9  2  1  0
 11 18  1  0
  6 10  1  0
M  END
> <minimizedAffinity>
-9.25799

> <CNNscore>
0.9873350859

> <CNNaffinity>
8.2457695007

> <CNN_VS>
8.1413373947

> <CNNaffinity_variance>
0.2589768469

$$$$



 22 23  0  0  0  0  0  0  0  0999 V2000
   -4.5821   -3.5703   22.5583 C   0  0  0  0  0  0  0  0  0  0  0  0
   -5.5562   -4.5174   21.8302 C   0  0  0  0  0  0  0  0  0  0  0  0
   -6.7027   -4.0879   21.1434 C   0  0  0  0  0  0  0  0  0  0  0  0
   -7.5325   -5.0035   20.4867 C   0  0  0  0  0  0  0  0  0  0  0  0
   -7.2242   -6.3572   20.4978 C   0  0  0  0  0  0  0  0  0  0  0  0
   -8.0737   -7.1981   19.8365 O   0  0  0  0  0  0  0  0  0  0  0  0
   -6.0866   -6.8086   21.1599 C   0  0  0  0  0  0  0  0  0  0  0  0
   -5.6392   -8.6486   21.1802 Br  0  0  0  0  0  0  0  0  0  0  0  0
   -5.2571   -5.8978   21.8182 C   0  0  0  0  0  0  0  0  0  0  0  0
   -8.8297   -6.8542   19.4027 H   0  0  0  0  0  0  0  0  0  0  0  0
   -0.2092   -2.1458   19.1840 O   0  0  0  0  0  0  0  0  0  0  0  0
   -1.2370   -2.4814   20.0135 C   0  0  0  0  0  0  0  0  0  0  0  0
   -2.4170   -2.9271   19.4345 C   0  0  0  0  0  0  0  0  0  0  0  0
   -3.4984   -3.2810   20.2438 C   0  0  0  0  0  0  0  0  0  0  0  0
   -3.4073   -3.1888   21.6430 C   0  0  0  0  0  0  0  0  0  0  0  0
   -2.1973   -2.7411   22.2054 C   0  0  0  0  0  0  0  0  0  0  0  0
   -1.1164   -2.3859   21.3941 C   0  0  0  0  0  0  0  0  0  0  0  0
   -0.3136   -2.2183   18.2557 H   0  0  0  0  0  0  0  0  0  0  0  0
   -5.1629   -2.3674   23.3900 C   0  0  0  0  0  0  0  0  0  0  0  0
   -6.4166   -2.9334   24.5660 Cl  0  0  0  0  0  0  0  0  0  0  0  0
   -5.8802   -1.0453   22.4058 Cl  0  0  0  0  0  0  0  0  0  0  0  0
   -3.8595   -1.6085   24.4054 Cl  0  0  0  0  0  0  0  0  0  0  0  0
 11 12  1  0
 12 13  2  0
 13 14  1  0
 14 15  2  0
 15  1  1  0
  1  2  1  0
  2  3  2  0
  3  4  1  0
  4  5  2  0
  5  6  1  0
  5  7  1  0
  7  8  1  0
  7  9  2  0
  1 19  1  0
 19 20  1  0
 19 21  1  0
 19 22  1  0
 15 16  1  0
 16 17  2  0
 17 12  1  0
  9  2  1  0
 11 18  1  0
  6 10  1  0
M  END
> <minimizedAffinity>
-8.53035

> <CNNscore>
0.9862064123

> <CNNaffinity>
8.4540433884

> <CNN_VS>
8.3374319077

> <CNNaffinity_variance>
0.5054646730

$$$$



 22 23  0  0  0  0  0  0  0  0999 V2000
   -5.3039   -3.7791   21.6487 C   0  0  0  0  0  0  0  0  0  0  0  0
   -4.0939   -3.4242   20.7621 C   0  0  0  0  0  0  0  0  0  0  0  0
   -4.1367   -3.3718   19.3599 C   0  0  0  0  0  0  0  0  0  0  0  0
   -3.0025   -3.0220   18.6187 C   0  0  0  0  0  0  0  0  0  0  0  0
   -1.8145   -2.7103   19.2664 C   0  0  0  0  0  0  0  0  0  0  0  0
   -0.7451   -2.3754   18.4854 O   0  0  0  0  0  0  0  0  0  0  0  0
   -1.7481   -2.7417   20.6559 C   0  0  0  0  0  0  0  0  0  0  0  0
   -0.1424   -2.3104   21.5625 Br  0  0  0  0  0  0  0  0  0  0  0  0
   -2.8777   -3.0924   21.3989 C   0  0  0  0  0  0  0  0  0  0  0  0
   -0.8309   -2.3662   17.5524 H   0  0  0  0  0  0  0  0  0  0  0  0
   -7.1514   -9.0528   20.5031 O   0  0  0  0  0  0  0  0  0  0  0  0
   -6.6850   -7.8042   20.7871 C   0  0  0  0  0  0  0  0  0  0  0  0
   -7.5394   -6.7308   20.5768 C   0  0  0  0  0  0  0  0  0  0  0  0
   -7.1056   -5.4324   20.8518 C   0  0  0  0  0  0  0  0  0  0  0  0
   -5.8086   -5.1978   21.3386 C   0  0  0  0  0  0  0  0  0  0  0  0
   -4.9644   -6.3039   21.5502 C   0  0  0  0  0  0  0  0  0  0  0  0
   -5.3994   -7.6027   21.2731 C   0  0  0  0  0  0  0  0  0  0  0  0
   -8.0223   -9.1645   20.1761 H   0  0  0  0  0  0  0  0  0  0  0  0
   -5.2533   -3.4387   23.1841 C   0  0  0  0  0  0  0  0  0  0  0  0
   -3.5772   -3.6304   23.8392 Cl  0  0  0  0  0  0  0  0  0  0  0  0
   -6.3656   -4.4090   24.2099 Cl  0  0  0  0  0  0  0  0  0  0  0  0
   -5.6814   -1.6938   23.4630 Cl  0  0  0  0  0  0  0  0  0  0  0  0
 11 12  1  0
 12 13  2  0
 13 14  1  0
 14 15  2  0
 15  1  1  0
  1  2  1  0
  2  3  2  0
  3  4  1  0
  4  5  2  0
  5  6  1  0
  5  7  1  0
  7  8  1  0
  7  9  2  0
  1 19  1  0
 19 20  1  0
 19 21  1  0
 19 22  1  0
 15 16  1  0
 16 17  2  0
 17 12  1  0
  9  2  1  0
 11 18  1  0
  6 10  1  0
M  END
> <minimizedAffinity>
-7.94485

> <CNNscore>
0.9558773637

> <CNNaffinity>
7.8245186806

> <CNN_VS>
7.4792804718

> <CNNaffinity_variance>
0.3017086983

$$$$



 22 23  0  0  0  0  0  0  0  0999 V2000
   -5.7845   -3.5551   20.5436 C   0  0  0  0  0  0  0  0  0  0  0  0
   -4.2707   -3.3361   20.3523 C   0  0  0  0  0  0  0  0  0  0  0  0
   -3.6234   -3.3732   19.1073 C   0  0  0  0  0  0  0  0  0  0  0  0
   -2.2466   -3.1449   19.0058 C   0  0  0  0  0  0  0  0  0  0  0  0
   -1.4998   -2.8667   20.1428 C   0  0  0  0  0  0  0  0  0  0  0  0
   -0.1613   -2.6517   19.9755 O   0  0  0  0  0  0  0  0  0  0  0  0
   -2.1186   -2.8108   21.3879 C   0  0  0  0  0  0  0  0  0  0  0  0
   -1.1235   -2.4228   22.9517 Br  0  0  0  0  0  0  0  0  0  0  0  0
   -3.4924   -3.0403   21.4932 C   0  0  0  0  0  0  0  0  0  0  0  0
    0.2173   -2.6984   19.1196 H   0  0  0  0  0  0  0  0  0  0  0  0
   -6.9954   -9.1279   20.6714 O   0  0  0  0  0  0  0  0  0  0  0  0
   -6.6814   -7.8018   20.6556 C   0  0  0  0  0  0  0  0  0  0  0  0
   -7.6079   -6.9237   20.1108 C   0  0  0  0  0  0  0  0  0  0  0  0
   -7.3299   -5.5559   20.0710 C   0  0  0  0  0  0  0  0  0  0  0  0
   -6.1177   -5.0557   20.5756 C   0  0  0  0  0  0  0  0  0  0  0  0
   -5.1984   -5.9661   21.1295 C   0  0  0  0  0  0  0  0  0  0  0  0
   -5.4773   -7.3349   21.1673 C   0  0  0  0  0  0  0  0  0  0  0  0
   -7.8138   -9.4198   20.3205 H   0  0  0  0  0  0  0  0  0  0  0  0
   -6.5498   -2.7060   21.6250 C   0  0  0  0  0  0  0  0  0  0  0  0
   -8.0631   -1.9889   20.9390 Cl  0  0  0  0  0  0  0  0  0  0  0  0
   -5.5885   -1.3771   22.3606 Cl  0  0  0  0  0  0  0  0  0  0  0  0
   -7.0991   -3.7674   22.9950 Cl  0  0  0  0  0  0  0  0  0  0  0  0
 11 12  1  0
 12 13  2  0
 13 14  1  0
 14 15  2  0
 15  1  1  0
  1  2  1  0
  2  3  2  0
  3  4  1  0
  4  5  2  0
  5  6  1  0
  5  7  1  0
  7  8  1  0
  7  9  2  0
  1 19  1  0
 19 20  1  0
 19 21  1  0
 19 22  1  0
 15 16  1  0
 16 17  2  0
 17 12  1  0
  9  2  1  0
 11 18  1  0
  6 10  1  0
M  END
> <minimizedAffinity>
-7.95682

> <CNNscore>
0.9406865835

> <CNNaffinity>
8.2841148376

> <CNN_VS>
7.7927556038

> <CNNaffinity_variance>
0.9042711258

$$$$



 22 23  0  0  0  0  0  0  0  0999 V2000
   -5.8151   -3.5894   20.5044 C   0  0  0  0  0  0  0  0  0  0  0  0
   -4.2987   -3.3657   20.3426 C   0  0  0  0  0  0  0  0  0  0  0  0
   -3.6280   -3.3951   19.1097 C   0  0  0  0  0  0  0  0  0  0  0  0
   -2.2501   -3.1629   19.0352 C   0  0  0  0  0  0  0  0  0  0  0  0
   -1.5255   -2.8884   20.1874 C   0  0  0  0  0  0  0  0  0  0  0  0
   -0.1846   -2.6693   20.0463 O   0  0  0  0  0  0  0  0  0  0  0  0
   -2.1677   -2.8402   21.4210 C   0  0  0  0  0  0  0  0  0  0  0  0
   -1.2031   -2.4574   23.0050 Br  0  0  0  0  0  0  0  0  0  0  0  0
   -3.5426   -3.0735   21.4993 C   0  0  0  0  0  0  0  0  0  0  0  0
    0.2101   -2.7108   19.1975 H   0  0  0  0  0  0  0  0  0  0  0  0
   -7.0557   -9.1553   20.6461 O   0  0  0  0  0  0  0  0  0  0  0  0
   -6.7844   -7.8207   20.5979 C   0  0  0  0  0  0  0  0  0  0  0  0
   -5.5623   -7.3902   21.0954 C   0  0  0  0  0  0  0  0  0  0  0  0
   -5.2401   -6.0318   21.0690 C   0  0  0  0  0  0  0  0  0  0  0  0
   -6.1427   -5.0910   20.5450 C   0  0  0  0  0  0  0  0  0  0  0  0
   -7.3720   -5.5541   20.0400 C   0  0  0  0  0  0  0  0  0  0  0  0
   -7.6936   -6.9137   20.0684 C   0  0  0  0  0  0  0  0  0  0  0  0
   -6.4270   -9.7484   21.0079 H   0  0  0  0  0  0  0  0  0  0  0  0
   -6.6065   -2.7325   21.5606 C   0  0  0  0  0  0  0  0  0  0  0  0
   -7.0988   -3.7407   22.9805 Cl  0  0  0  0  0  0  0  0  0  0  0  0
   -8.0752   -1.9158   20.9226 Cl  0  0  0  0  0  0  0  0  0  0  0  0
   -5.5432   -1.4259   22.2445 Cl  0  0  0  0  0  0  0  0  0  0  0  0
 11 12  1  0
 12 13  2  0
 13 14  1  0
 14 15  2  0
 15  1  1  0
  1  2  1  0
  2  3  2  0
  3  4  1  0
  4  5  2  0
  5  6  1  0
  5  7  1  0
  7  8  1  0
  7  9  2  0
  1 19  1  0
 19 20  1  0
 19 21  1  0
 19 22  1  0
 15 16  1  0
 16 17  2  0
 17 12  1  0
  9  2  1  0
 11 18  1  0
  6 10  1  0
M  END
> <minimizedAffinity>
-7.96959

> <CNNscore>
0.9400757551

> <CNNaffinity>
8.2612619400

> <CNN_VS>
7.7662119865

> <CNNaffinity_variance>
0.8778328896

$$$$



 22 23  0  0  0  0  0  0  0  0999 V2000
   -5.2465   -3.6239   21.1247 C   0  0  0  0  0  0  0  0  0  0  0  0
   -3.7092   -3.5246   21.1780 C   0  0  0  0  0  0  0  0  0  0  0  0
   -2.9269   -4.0164   22.2347 C   0  0  0  0  0  0  0  0  0  0  0  0
   -1.5320   -3.9093   22.2069 C   0  0  0  0  0  0  0  0  0  0  0  0
   -0.8990   -3.3199   21.1207 C   0  0  0  0  0  0  0  0  0  0  0  0
    0.4646   -3.2480   21.1542 O   0  0  0  0  0  0  0  0  0  0  0  0
   -1.6497   -2.8358   20.0537 C   0  0  0  0  0  0  0  0  0  0  0  0
   -0.8090   -2.0375   18.5564 Br  0  0  0  0  0  0  0  0  0  0  0  0
   -3.0424   -2.9392   20.0791 C   0  0  0  0  0  0  0  0  0  0  0  0
    0.9336   -3.5858   21.8917 H   0  0  0  0  0  0  0  0  0  0  0  0
   -6.9275   -9.0519   20.6254 O   0  0  0  0  0  0  0  0  0  0  0  0
   -6.5488   -7.7469   20.7284 C   0  0  0  0  0  0  0  0  0  0  0  0
   -5.3578   -7.4683   21.3845 C   0  0  0  0  0  0  0  0  0  0  0  0
   -4.9292   -6.1460   21.5164 C   0  0  0  0  0  0  0  0  0  0  0  0
   -5.6932   -5.0891   20.9931 C   0  0  0  0  0  0  0  0  0  0  0  0
   -6.8931   -5.3988   20.3259 C   0  0  0  0  0  0  0  0  0  0  0  0
   -7.3214   -6.7226   20.1959 C   0  0  0  0  0  0  0  0  0  0  0  0
   -6.3901   -9.7261   20.9924 H   0  0  0  0  0  0  0  0  0  0  0  0
   -6.1032   -2.7821   22.1413 C   0  0  0  0  0  0  0  0  0  0  0  0
   -5.1360   -1.4201   22.8372 Cl  0  0  0  0  0  0  0  0  0  0  0  0
   -6.7979   -3.7245   23.5053 Cl  0  0  0  0  0  0  0  0  0  0  0  0
   -7.5032   -1.9922   21.2917 Cl  0  0  0  0  0  0  0  0  0  0  0  0
 11 12  1  0
 12 13  2  0
 13 14  1  0
 14 15  2  0
 15  1  1  0
  1  2  1  0
  2  3  2  0
  3  4  1  0
  4  5  2  0
  5  6  1  0
  5  7  1  0
  7  8  1  0
  7  9  2  0
  1 19  1  0
 19 20  1  0
 19 21  1  0
 19 22  1  0
 15 16  1  0
 16 17  2  0
 17 12  1  0
  9  2  1  0
 11 18  1  0
  6 10  1  0
M  END
> <minimizedAffinity>
-7.63272

> <CNNscore>
0.9087373614

> <CNNaffinity>
7.6592826843

> <CNN_VS>
6.9602761269

> <CNNaffinity_variance>
0.1786570549

$$$$



 22 23  0  0  0  0  0  0  0  0999 V2000
   -4.4943   -4.0309   20.9639 C   0  0  0  0  0  0  0  0  0  0  0  0
   -5.2153   -3.0660   21.9257 C   0  0  0  0  0  0  0  0  0  0  0  0
   -5.4359   -1.7064   21.6544 C   0  0  0  0  0  0  0  0  0  0  0  0
   -6.1167   -0.8926   22.5667 C   0  0  0  0  0  0  0  0  0  0  0  0
   -6.5950   -1.4261   23.7560 C   0  0  0  0  0  0  0  0  0  0  0  0
   -7.2524   -0.5792   24.6023 O   0  0  0  0  0  0  0  0  0  0  0  0
   -6.4016   -2.7737   24.0441 C   0  0  0  0  0  0  0  0  0  0  0  0
   -7.0537   -3.5270   25.6544 Br  0  0  0  0  0  0  0  0  0  0  0  0
   -5.7206   -3.5885   23.1367 C   0  0  0  0  0  0  0  0  0  0  0  0
   -7.3618    0.3223   24.3713 H   0  0  0  0  0  0  0  0  0  0  0  0
    1.0645   -2.7843   20.6762 O   0  0  0  0  0  0  0  0  0  0  0  0
   -0.2623   -3.0796   20.7741 C   0  0  0  0  0  0  0  0  0  0  0  0
   -0.9384   -3.4149   19.6093 C   0  0  0  0  0  0  0  0  0  0  0  0
   -2.2992   -3.7238   19.6594 C   0  0  0  0  0  0  0  0  0  0  0  0
   -2.9961   -3.6969   20.8792 C   0  0  0  0  0  0  0  0  0  0  0  0
   -2.2858   -3.3610   22.0469 C   0  0  0  0  0  0  0  0  0  0  0  0
   -0.9242   -3.0507   21.9950 C   0  0  0  0  0  0  0  0  0  0  0  0
    1.4900   -2.8103   19.8418 H   0  0  0  0  0  0  0  0  0  0  0  0
   -4.8031   -5.5714   21.0519 C   0  0  0  0  0  0  0  0  0  0  0  0
   -3.3808   -6.4851   21.6977 Cl  0  0  0  0  0  0  0  0  0  0  0  0
   -5.2952   -6.3328   19.4998 Cl  0  0  0  0  0  0  0  0  0  0  0  0
   -6.1506   -5.8834   22.2319 Cl  0  0  0  0  0  0  0  0  0  0  0  0
 11 12  1  0
 12 13  2  0
 13 14  1  0
 14 15  2  0
 15  1  1  0
  1  2  1  0
  2  3  2  0
  3  4  1  0
  4  5  2  0
  5  6  1  0
  5  7  1  0
  7  8  1  0
  7  9  2  0
  1 19  1  0
 19 20  1  0
 19 21  1  0
 19 22  1  0
 15 16  1  0
 16 17  2  0
 17 12  1  0
  9  2  1  0
 11 18  1  0
  6 10  1  0
M  END
> <minimizedAffinity>
-5.22056

> <CNNscore>
0.6605455279

> <CNNaffinity>
7.9688777924

> <CNN_VS>
5.2638068199

> <CNNaffinity_variance>
0.6784024239

$$$$



 22 23  0  0  0  0  0  0  0  0999 V2000
   -6.0158   -4.5964   20.9416 C   0  0  0  0  0  0  0  0  0  0  0  0
   -4.5397   -4.2426   21.2100 C   0  0  0  0  0  0  0  0  0  0  0  0
   -3.4628   -4.7524   20.4676 C   0  0  0  0  0  0  0  0  0  0  0  0
   -2.1474   -4.3714   20.7547 C   0  0  0  0  0  0  0  0  0  0  0  0
   -1.8899   -3.4696   21.7786 C   0  0  0  0  0  0  0  0  0  0  0  0
   -0.5847   -3.1376   22.0067 O   0  0  0  0  0  0  0  0  0  0  0  0
   -2.9399   -2.9388   22.5217 C   0  0  0  0  0  0  0  0  0  0  0  0
   -2.6150   -1.6993   23.9160 Br  0  0  0  0  0  0  0  0  0  0  0  0
   -4.2540   -3.3185   22.2392 C   0  0  0  0  0  0  0  0  0  0  0  0
    0.0937   -3.5175   21.4838 H   0  0  0  0  0  0  0  0  0  0  0  0
   -6.7901  -10.2476   20.9036 O   0  0  0  0  0  0  0  0  0  0  0  0
   -6.6293   -8.8944   20.8965 C   0  0  0  0  0  0  0  0  0  0  0  0
   -5.4897   -8.3748   21.4946 C   0  0  0  0  0  0  0  0  0  0  0  0
   -5.2821   -6.9942   21.5135 C   0  0  0  0  0  0  0  0  0  0  0  0
   -6.2178   -6.1204   20.9343 C   0  0  0  0  0  0  0  0  0  0  0  0
   -7.3613   -6.6730   20.3277 C   0  0  0  0  0  0  0  0  0  0  0  0
   -7.5684   -8.0549   20.3108 C   0  0  0  0  0  0  0  0  0  0  0  0
   -6.1434  -10.7942   21.3047 H   0  0  0  0  0  0  0  0  0  0  0  0
   -7.1428   -3.8046   21.7026 C   0  0  0  0  0  0  0  0  0  0  0  0
   -6.8463   -3.8036   23.4879 Cl  0  0  0  0  0  0  0  0  0  0  0  0
   -8.8125   -4.4056   21.4166 Cl  0  0  0  0  0  0  0  0  0  0  0  0
   -7.1315   -2.0538   21.2126 Cl  0  0  0  0  0  0  0  0  0  0  0  0
 11 12  1  0
 12 13  2  0
 13 14  1  0
 14 15  2  0
 15  1  1  0
  1  2  1  0
  2  3  2  0
  3  4  1  0
  4  5  2  0
  5  6  1  0
  5  7  1  0
  7  8  1  0
  7  9  2  0
  1 19  1  0
 19 20  1  0
 19 21  1  0
 19 22  1  0
 15 16  1  0
 16 17  2  0
 17 12  1  0
  9  2  1  0
 11 18  1  0
  6 10  1  0
M  END
> <minimizedAffinity>
-6.27908

> <CNNscore>
0.6556779146

> <CNNaffinity>
7.1429820061

> <CNN_VS>
4.6834955215

> <CNNaffinity_variance>
0.0599932037

$$$$
