


 42 45  0  0  0  0  0  0  0  0999 V2000
   -5.0407   19.2226   17.6641 C   0  0  0  0  0  0  0  0  0  0  0  0
   -6.3205   19.8703   18.2244 C   0  0  0  0  0  0  0  0  0  0  0  0
   -6.2359   20.7592   19.0791 O   0  0  0  0  0  0  0  0  0  0  0  0
   -7.5499   19.3347   17.8288 N   0  0  0  0  0  0  0  0  0  0  0  0
   -7.8046   19.0412   16.4142 C   0  0  0  0  0  0  0  0  0  0  0  0
   -8.9342   19.9147   15.8399 C   0  0  0  0  0  0  0  0  0  0  0  0
   -8.9886   21.2872   16.5150 C   0  0  0  0  0  0  0  0  0  0  0  0
   -9.1715   21.1739   18.0384 C   0  0  0  0  0  0  0  0  0  0  0  0
   -8.7440   19.7961   18.5591 C   0  0  0  0  0  0  0  0  0  0  0  0
   -8.6227   19.6662   20.0856 C   0  0  0  0  0  0  0  0  0  0  0  0
   -8.6172   18.6209   20.7217 O   0  0  0  0  0  0  0  0  0  0  0  0
   -8.6152   20.8469   20.7375 O   0  0  0  0  0  0  0  0  0  0  0  0
   -8.6194   21.6493   20.2536 H   0  0  0  0  0  0  0  0  0  0  0  0
   -4.8946   19.6947   16.2581 N   0  0  0  0  0  0  0  0  0  0  0  0
   -5.8290   19.7596   15.8542 H   0  0  0  0  0  0  0  0  0  0  0  0
   -4.1412   21.1790   16.0422 S   0  0  0  0  0  0  0  0  0  0  0  0
   -3.8397   21.7293   17.3463 O   0  0  0  0  0  0  0  0  0  0  0  0
   -3.1221   20.9908   15.0352 O   0  0  0  0  0  0  0  0  0  0  0  0
   -5.4470   22.1283   15.3037 C   0  0  0  0  0  0  0  0  0  0  0  0
   -5.8381   23.3260   15.9037 C   0  0  0  0  0  0  0  0  0  0  0  0
   -6.8731   24.0717   15.3380 C   0  0  0  0  0  0  0  0  0  0  0  0
   -7.5295   23.6244   14.1792 C   0  0  0  0  0  0  0  0  0  0  0  0
   -8.5799   24.3594   13.6070 C   0  0  0  0  0  0  0  0  0  0  0  0
   -9.2426   23.8918   12.4704 C   0  0  0  0  0  0  0  0  0  0  0  0
   -8.8573   22.6886   11.8861 C   0  0  0  0  0  0  0  0  0  0  0  0
   -7.8057   21.9516   12.4339 C   0  0  0  0  0  0  0  0  0  0  0  0
   -7.1340   22.4028   13.5816 C   0  0  0  0  0  0  0  0  0  0  0  0
   -6.0880   21.6614   14.1527 C   0  0  0  0  0  0  0  0  0  0  0  0
   -3.8347   19.6782   18.4980 C   0  0  0  0  0  0  0  0  0  0  0  0
   -1.8576   16.5134   17.6891 C   0  0  0  0  0  0  0  0  0  0  0  0
   -0.6302   16.7814   18.3004 C   0  0  0  0  0  0  0  0  0  0  0  0
   -0.4565   17.9791   18.9908 C   0  0  0  0  0  0  0  0  0  0  0  0
    1.2110   18.3536   19.8012 Br  0  0  0  0  0  0  0  0  0  0  0  0
   -1.4899   18.9131   19.0764 C   0  0  0  0  0  0  0  0  0  0  0  0
   -2.7263   18.6489   18.4746 C   0  0  0  0  0  0  0  0  0  0  0  0
   -2.9057   17.4361   17.7932 C   0  0  0  0  0  0  0  0  0  0  0  0
   -2.5288   15.3273   15.7040 N   0  0  0  0  0  0  0  0  0  0  0  0
   -2.0628   15.2591   16.9084 C   0  0  0  0  0  0  0  0  0  0  0  0
   -1.7391   14.0484   17.4502 N   0  0  0  0  0  0  0  0  0  0  0  0
   -2.6670   14.5039   15.1823 H   0  0  0  0  0  0  0  0  0  0  0  0
   -1.8767   13.2238   16.9303 H   0  0  0  0  0  0  0  0  0  0  0  0
   -1.3680   14.0000   18.3608 H   0  0  0  0  0  0  0  0  0  0  0  0
 37 38  2  0
 38 39  1  0
 38 30  1  0
 30 31  2  0
 31 32  1  0
 32 33  1  0
 32 34  2  0
 34 35  1  0
 35 29  1  0
  1 29  1  0
  1 14  1  0
 14 16  1  0
 16 17  2  0
 16 18  2  0
 16 19  1  0
 19 20  2  0
 20 21  1  0
 21 22  2  0
 22 23  1  0
 23 24  2  0
 24 25  1  0
 25 26  2  0
 26 27  1  0
 27 28  2  0
  1  2  1  0
  2  3  2  0
  2  4  1  0
  4  5  1  0
  5  6  1  0
  6  7  1  0
  7  8  1  0
  8  9  1  0
  9 10  1  0
 10 11  2  0
 10 12  1  0
 35 36  2  0
 36 30  1  0
 28 19  1  0
  9  4  1  0
 27 22  1  0
 37 40  1  0
 39 41  1  0
 39 42  1  0
 14 15  1  0
 12 13  1  0
M  END
> <minimizedAffinity>
-6.81208

> <CNNscore>
0.4165441394

> <CNNaffinity>
6.2142176628

> <CNN_VS>
2.5884959698

> <CNNaffinity_variance>
0.0360833630

$$$$



 42 45  0  0  0  0  0  0  0  0999 V2000
   -4.7382   19.3054   17.3358 C   0  0  0  0  0  0  0  0  0  0  0  0
   -6.0751   20.0104   17.6306 C   0  0  0  0  0  0  0  0  0  0  0  0
   -6.1454   20.8364   18.5475 O   0  0  0  0  0  0  0  0  0  0  0  0
   -7.2039   19.5925   16.9191 N   0  0  0  0  0  0  0  0  0  0  0  0
   -7.1314   19.4061   15.4659 C   0  0  0  0  0  0  0  0  0  0  0  0
   -8.0400   20.3944   14.7132 C   0  0  0  0  0  0  0  0  0  0  0  0
   -8.1745   21.7231   15.4609 C   0  0  0  0  0  0  0  0  0  0  0  0
   -8.7206   21.5303   16.8863 C   0  0  0  0  0  0  0  0  0  0  0  0
   -8.5089   20.0952   17.3844 C   0  0  0  0  0  0  0  0  0  0  0  0
   -8.7617   19.8632   18.8824 C   0  0  0  0  0  0  0  0  0  0  0  0
   -9.2158   20.6806   19.6716 O   0  0  0  0  0  0  0  0  0  0  0  0
   -8.3424   18.6618   19.3296 O   0  0  0  0  0  0  0  0  0  0  0  0
   -7.9940   18.0335   18.7280 H   0  0  0  0  0  0  0  0  0  0  0  0
   -4.1463   19.9773   16.1445 N   0  0  0  0  0  0  0  0  0  0  0  0
   -4.8461   19.9661   15.4026 H   0  0  0  0  0  0  0  0  0  0  0  0
   -3.6487   21.5668   16.3527 S   0  0  0  0  0  0  0  0  0  0  0  0
   -4.4989   22.4179   15.5483 O   0  0  0  0  0  0  0  0  0  0  0  0
   -3.4816   21.7725   17.7732 O   0  0  0  0  0  0  0  0  0  0  0  0
   -2.0280   21.5220   15.6295 C   0  0  0  0  0  0  0  0  0  0  0  0
   -1.8752   21.8635   14.2851 C   0  0  0  0  0  0  0  0  0  0  0  0
   -0.6071   21.8175   13.7046 C   0  0  0  0  0  0  0  0  0  0  0  0
    0.5123   21.4226   14.4562 C   0  0  0  0  0  0  0  0  0  0  0  0
    1.7914   21.3610   13.8809 C   0  0  0  0  0  0  0  0  0  0  0  0
    2.8923   20.9416   14.6305 C   0  0  0  0  0  0  0  0  0  0  0  0
    2.7299   20.5878   15.9669 C   0  0  0  0  0  0  0  0  0  0  0  0
    1.4673   20.6562   16.5588 C   0  0  0  0  0  0  0  0  0  0  0  0
    0.3480   21.0676   15.8173 C   0  0  0  0  0  0  0  0  0  0  0  0
   -0.9296   21.1223   16.3960 C   0  0  0  0  0  0  0  0  0  0  0  0
   -3.8044   19.4631   18.5444 C   0  0  0  0  0  0  0  0  0  0  0  0
   -1.7294   16.3733   17.6918 C   0  0  0  0  0  0  0  0  0  0  0  0
   -0.4892   16.7029   18.2440 C   0  0  0  0  0  0  0  0  0  0  0  0
   -0.3374   17.9176   18.9096 C   0  0  0  0  0  0  0  0  0  0  0  0
    1.3463   18.3755   19.6397 Br  0  0  0  0  0  0  0  0  0  0  0  0
   -1.4055   18.8078   19.0283 C   0  0  0  0  0  0  0  0  0  0  0  0
   -2.6545   18.4817   18.4858 C   0  0  0  0  0  0  0  0  0  0  0  0
   -2.8110   17.2518   17.8298 C   0  0  0  0  0  0  0  0  0  0  0  0
   -2.3495   15.1363   15.7211 N   0  0  0  0  0  0  0  0  0  0  0  0
   -1.9142   15.0993   16.9383 C   0  0  0  0  0  0  0  0  0  0  0  0
   -1.6037   13.9031   17.5187 N   0  0  0  0  0  0  0  0  0  0  0  0
   -2.4741   14.2998   15.2172 H   0  0  0  0  0  0  0  0  0  0  0  0
   -1.7277   13.0654   17.0166 H   0  0  0  0  0  0  0  0  0  0  0  0
   -1.2558   13.8783   18.4393 H   0  0  0  0  0  0  0  0  0  0  0  0
 37 38  2  0
 38 39  1  0
 38 30  1  0
 30 31  2  0
 31 32  1  0
 32 33  1  0
 32 34  2  0
 34 35  1  0
 35 29  1  0
  1 29  1  0
  1 14  1  0
 14 16  1  0
 16 17  2  0
 16 18  2  0
 16 19  1  0
 19 20  2  0
 20 21  1  0
 21 22  2  0
 22 23  1  0
 23 24  2  0
 24 25  1  0
 25 26  2  0
 26 27  1  0
 27 28  2  0
  1  2  1  0
  2  3  2  0
  2  4  1  0
  4  5  1  0
  5  6  1  0
  6  7  1  0
  7  8  1  0
  8  9  1  0
  9 10  1  0
 10 11  2  0
 10 12  1  0
 35 36  2  0
 36 30  1  0
 28 19  1  0
  9  4  1  0
 27 22  1  0
 37 40  1  0
 39 41  1  0
 39 42  1  0
 14 15  1  0
 12 13  1  0
M  END
> <minimizedAffinity>
-7.40398

> <CNNscore>
0.2999416590

> <CNNaffinity>
6.0468869209

> <CNN_VS>
1.8137133121

> <CNNaffinity_variance>
0.1657246947

$$$$



 42 45  0  0  0  0  0  0  0  0999 V2000
    1.2062   21.3419   15.6473 C   0  0  0  0  0  0  0  0  0  0  0  0
    1.0745   21.8496   14.1995 C   0  0  0  0  0  0  0  0  0  0  0  0
    0.5736   21.1209   13.3357 O   0  0  0  0  0  0  0  0  0  0  0  0
    1.6469   23.0864   13.8871 N   0  0  0  0  0  0  0  0  0  0  0  0
    1.4301   24.2412   14.7654 C   0  0  0  0  0  0  0  0  0  0  0  0
    0.6386   25.3582   14.0620 C   0  0  0  0  0  0  0  0  0  0  0  0
   -0.3416   24.7950   13.0303 C   0  0  0  0  0  0  0  0  0  0  0  0
    0.3686   23.9411   11.9657 C   0  0  0  0  0  0  0  0  0  0  0  0
    1.7317   23.4400   12.4589 C   0  0  0  0  0  0  0  0  0  0  0  0
    2.4000   22.3597   11.5939 C   0  0  0  0  0  0  0  0  0  0  0  0
    3.5926   22.0862   11.5766 O   0  0  0  0  0  0  0  0  0  0  0  0
    1.5609   21.7520   10.7303 O   0  0  0  0  0  0  0  0  0  0  0  0
    0.6471   21.9591   10.7408 H   0  0  0  0  0  0  0  0  0  0  0  0
   -0.0999   20.7231   16.0111 N   0  0  0  0  0  0  0  0  0  0  0  0
   -0.0882   19.7579   15.6815 H   0  0  0  0  0  0  0  0  0  0  0  0
   -0.4874   20.7001   17.6441 S   0  0  0  0  0  0  0  0  0  0  0  0
    0.6083   21.2944   18.3793 O   0  0  0  0  0  0  0  0  0  0  0  0
   -1.8429   21.1869   17.7615 O   0  0  0  0  0  0  0  0  0  0  0  0
   -0.5209   18.9552   17.9695 C   0  0  0  0  0  0  0  0  0  0  0  0
    0.1943   18.4541   19.0580 C   0  0  0  0  0  0  0  0  0  0  0  0
    0.1851   17.0822   19.3131 C   0  0  0  0  0  0  0  0  0  0  0  0
   -0.5276   16.2025   18.4812 C   0  0  0  0  0  0  0  0  0  0  0  0
   -0.5353   14.8191   18.7203 C   0  0  0  0  0  0  0  0  0  0  0  0
   -1.2253   13.9514   17.8714 C   0  0  0  0  0  0  0  0  0  0  0  0
   -1.9241   14.4566   16.7787 C   0  0  0  0  0  0  0  0  0  0  0  0
   -1.9384   15.8311   16.5339 C   0  0  0  0  0  0  0  0  0  0  0  0
   -1.2428   16.7170   17.3725 C   0  0  0  0  0  0  0  0  0  0  0  0
   -1.2339   18.0988   17.1259 C   0  0  0  0  0  0  0  0  0  0  0  0
    2.3221   20.2894   15.7162 C   0  0  0  0  0  0  0  0  0  0  0  0
    5.4261   22.2437   16.7770 C   0  0  0  0  0  0  0  0  0  0  0  0
    6.2841   22.0216   15.6970 C   0  0  0  0  0  0  0  0  0  0  0  0
    5.8440   21.2562   14.6192 C   0  0  0  0  0  0  0  0  0  0  0  0
    7.0111   20.9365   13.1656 Br  0  0  0  0  0  0  0  0  0  0  0  0
    4.5608   20.7076   14.6067 C   0  0  0  0  0  0  0  0  0  0  0  0
    3.6909   20.9325   15.6807 C   0  0  0  0  0  0  0  0  0  0  0  0
    4.1290   21.7164   16.7581 C   0  0  0  0  0  0  0  0  0  0  0  0
    5.5693   22.6176   19.1514 N   0  0  0  0  0  0  0  0  0  0  0  0
    5.8805   23.0245   17.9639 C   0  0  0  0  0  0  0  0  0  0  0  0
    6.6400   24.1473   17.8016 N   0  0  0  0  0  0  0  0  0  0  0  0
    5.8655   23.1275   19.9398 H   0  0  0  0  0  0  0  0  0  0  0  0
    6.9371   24.6587   18.5887 H   0  0  0  0  0  0  0  0  0  0  0  0
    6.8906   24.4456   16.8975 H   0  0  0  0  0  0  0  0  0  0  0  0
 37 38  2  0
 38 39  1  0
 38 30  1  0
 30 31  2  0
 31 32  1  0
 32 33  1  0
 32 34  2  0
 34 35  1  0
 35 29  1  0
  1 29  1  0
  1 14  1  0
 14 16  1  0
 16 17  2  0
 16 18  2  0
 16 19  1  0
 19 20  2  0
 20 21  1  0
 21 22  2  0
 22 23  1  0
 23 24  2  0
 24 25  1  0
 25 26  2  0
 26 27  1  0
 27 28  2  0
  1  2  1  0
  2  3  2  0
  2  4  1  0
  4  5  1  0
  5  6  1  0
  6  7  1  0
  7  8  1  0
  8  9  1  0
  9 10  1  0
 10 11  2  0
 10 12  1  0
 35 36  2  0
 36 30  1  0
 28 19  1  0
  9  4  1  0
 27 22  1  0
 37 40  1  0
 39 41  1  0
 39 42  1  0
 14 15  1  0
 12 13  1  0
M  END
> <minimizedAffinity>
-8.26771

> <CNNscore>
0.2526564896

> <CNNaffinity>
5.9347958565

> <CNN_VS>
1.4994646311

> <CNNaffinity_variance>
0.4952045381

$$$$



 42 45  0  0  0  0  0  0  0  0999 V2000
    0.9042   21.2517   15.6808 C   0  0  0  0  0  0  0  0  0  0  0  0
    0.8582   21.8091   14.2461 C   0  0  0  0  0  0  0  0  0  0  0  0
    0.3103   21.1568   13.3505 O   0  0  0  0  0  0  0  0  0  0  0  0
    1.5558   22.9920   13.9830 N   0  0  0  0  0  0  0  0  0  0  0  0
    1.4308   24.1381   14.8900 C   0  0  0  0  0  0  0  0  0  0  0  0
    0.7692   25.3460   14.2029 C   0  0  0  0  0  0  0  0  0  0  0  0
   -0.2355   24.9099   13.1338 C   0  0  0  0  0  0  0  0  0  0  0  0
    0.4144   24.0199   12.0602 C   0  0  0  0  0  0  0  0  0  0  0  0
    1.7097   23.3744   12.5680 C   0  0  0  0  0  0  0  0  0  0  0  0
    2.2908   22.2579   11.6863 C   0  0  0  0  0  0  0  0  0  0  0  0
    3.4396   21.8377   11.7196 O   0  0  0  0  0  0  0  0  0  0  0  0
    1.4368   21.7992   10.7486 O   0  0  0  0  0  0  0  0  0  0  0  0
    0.5564   22.1188   10.7202 H   0  0  0  0  0  0  0  0  0  0  0  0
   -0.4217   20.6251   15.9460 N   0  0  0  0  0  0  0  0  0  0  0  0
   -0.3894   19.6692   15.5916 H   0  0  0  0  0  0  0  0  0  0  0  0
   -0.9095   20.5581   17.5507 S   0  0  0  0  0  0  0  0  0  0  0  0
    0.0835   21.2361   18.3560 O   0  0  0  0  0  0  0  0  0  0  0  0
   -2.3056   20.9296   17.5817 O   0  0  0  0  0  0  0  0  0  0  0  0
   -0.8180   18.8142   17.8701 C   0  0  0  0  0  0  0  0  0  0  0  0
   -0.0560   18.3608   18.9476 C   0  0  0  0  0  0  0  0  0  0  0  0
    0.0331   16.9908   19.1976 C   0  0  0  0  0  0  0  0  0  0  0  0
   -0.6275   16.0662   18.3715 C   0  0  0  0  0  0  0  0  0  0  0  0
   -0.5364   14.6849   18.6055 C   0  0  0  0  0  0  0  0  0  0  0  0
   -1.1755   13.7739   17.7621 C   0  0  0  0  0  0  0  0  0  0  0  0
   -1.9214   14.2327   16.6801 C   0  0  0  0  0  0  0  0  0  0  0  0
   -2.0340   15.6035   16.4407 C   0  0  0  0  0  0  0  0  0  0  0  0
   -1.3907   16.5331   17.2738 C   0  0  0  0  0  0  0  0  0  0  0  0
   -1.4807   17.9128   17.0322 C   0  0  0  0  0  0  0  0  0  0  0  0
    2.0128   20.1938   15.7786 C   0  0  0  0  0  0  0  0  0  0  0  0
    5.5419   21.2988   14.8283 C   0  0  0  0  0  0  0  0  0  0  0  0
    5.8794   22.1258   15.9026 C   0  0  0  0  0  0  0  0  0  0  0  0
    4.9683   22.3044   16.9415 C   0  0  0  0  0  0  0  0  0  0  0  0
    5.4144   23.4402   18.3866 Br  0  0  0  0  0  0  0  0  0  0  0  0
    3.7249   21.6712   16.9206 C   0  0  0  0  0  0  0  0  0  0  0  0
    3.3818   20.8334   15.8524 C   0  0  0  0  0  0  0  0  0  0  0  0
    4.3057   20.6414   14.8146 C   0  0  0  0  0  0  0  0  0  0  0  0
    6.4109   21.9239   12.6714 N   0  0  0  0  0  0  0  0  0  0  0  0
    6.4782   21.1187   13.6812 C   0  0  0  0  0  0  0  0  0  0  0  0
    7.4164   20.1271   13.7054 N   0  0  0  0  0  0  0  0  0  0  0  0
    7.0254   21.8115   11.9105 H   0  0  0  0  0  0  0  0  0  0  0  0
    8.0317   20.0129   12.9454 H   0  0  0  0  0  0  0  0  0  0  0  0
    7.4775   19.5262   14.4828 H   0  0  0  0  0  0  0  0  0  0  0  0
 37 38  2  0
 38 39  1  0
 38 30  1  0
 30 31  2  0
 31 32  1  0
 32 33  1  0
 32 34  2  0
 34 35  1  0
 35 29  1  0
  1 29  1  0
  1 14  1  0
 14 16  1  0
 16 17  2  0
 16 18  2  0
 16 19  1  0
 19 20  2  0
 20 21  1  0
 21 22  2  0
 22 23  1  0
 23 24  2  0
 24 25  1  0
 25 26  2  0
 26 27  1  0
 27 28  2  0
  1  2  1  0
  2  3  2  0
  2  4  1  0
  4  5  1  0
  5  6  1  0
  6  7  1  0
  7  8  1  0
  8  9  1  0
  9 10  1  0
 10 11  2  0
 10 12  1  0
 35 36  2  0
 36 30  1  0
 28 19  1  0
  9  4  1  0
 27 22  1  0
 37 40  1  0
 39 41  1  0
 39 42  1  0
 14 15  1  0
 12 13  1  0
M  END
> <minimizedAffinity>
-8.26460

> <CNNscore>
0.2451425940

> <CNNaffinity>
6.2604060173

> <CNN_VS>
1.5346921682

> <CNNaffinity_variance>
0.2064439207

$$$$



 42 45  0  0  0  0  0  0  0  0999 V2000
    4.2710   22.7756   15.5641 C   0  0  0  0  0  0  0  0  0  0  0  0
    3.0361   23.3952   14.8842 C   0  0  0  0  0  0  0  0  0  0  0  0
    3.0780   24.5625   14.4797 O   0  0  0  0  0  0  0  0  0  0  0  0
    1.8579   22.6427   14.8608 N   0  0  0  0  0  0  0  0  0  0  0  0
    1.8944   21.2288   14.4717 C   0  0  0  0  0  0  0  0  0  0  0  0
    1.1116   20.9694   13.1723 C   0  0  0  0  0  0  0  0  0  0  0  0
    1.1517   22.1788   12.2352 C   0  0  0  0  0  0  0  0  0  0  0  0
    0.5973   23.4473   12.9063 C   0  0  0  0  0  0  0  0  0  0  0  0
    0.6305   23.3392   14.4359 C   0  0  0  0  0  0  0  0  0  0  0  0
    0.3627   24.6429   15.2044 C   0  0  0  0  0  0  0  0  0  0  0  0
    0.0741   24.7342   16.3900 O   0  0  0  0  0  0  0  0  0  0  0  0
    0.3726   25.7475   14.4305 O   0  0  0  0  0  0  0  0  0  0  0  0
    0.5932   25.6813   13.5223 H   0  0  0  0  0  0  0  0  0  0  0  0
    5.3736   22.7938   14.5617 N   0  0  0  0  0  0  0  0  0  0  0  0
    6.2439   22.9768   15.0613 H   0  0  0  0  0  0  0  0  0  0  0  0
    5.5876   21.3944   13.6599 S   0  0  0  0  0  0  0  0  0  0  0  0
    5.6836   20.2758   14.5731 O   0  0  0  0  0  0  0  0  0  0  0  0
    4.6160   21.4303   12.5909 O   0  0  0  0  0  0  0  0  0  0  0  0
    7.1823   21.6866   12.9365 C   0  0  0  0  0  0  0  0  0  0  0  0
    8.0481   20.6091   12.7447 C   0  0  0  0  0  0  0  0  0  0  0  0
    9.3090   20.8315   12.1898 C   0  0  0  0  0  0  0  0  0  0  0  0
    9.7173   22.1274   11.8324 C   0  0  0  0  0  0  0  0  0  0  0  0
   10.9875   22.3660   11.2841 C   0  0  0  0  0  0  0  0  0  0  0  0
   11.3925   23.6617   10.9574 C   0  0  0  0  0  0  0  0  0  0  0  0
   10.5294   24.7337   11.1656 C   0  0  0  0  0  0  0  0  0  0  0  0
    9.2575   24.5129   11.6972 C   0  0  0  0  0  0  0  0  0  0  0  0
    8.8372   23.2175   12.0394 C   0  0  0  0  0  0  0  0  0  0  0  0
    7.5681   22.9852   12.5923 C   0  0  0  0  0  0  0  0  0  0  0  0
    4.6576   23.6242   16.7840 C   0  0  0  0  0  0  0  0  0  0  0  0
    5.2479   22.4976   20.3842 C   0  0  0  0  0  0  0  0  0  0  0  0
    4.3650   21.4203   20.4929 C   0  0  0  0  0  0  0  0  0  0  0  0
    3.5974   21.0505   19.3906 C   0  0  0  0  0  0  0  0  0  0  0  0
    2.3859   19.6058   19.5415 Br  0  0  0  0  0  0  0  0  0  0  0  0
    3.6972   21.7433   18.1832 C   0  0  0  0  0  0  0  0  0  0  0  0
    4.5860   22.8185   18.0624 C   0  0  0  0  0  0  0  0  0  0  0  0
    5.3701   23.1802   19.1677 C   0  0  0  0  0  0  0  0  0  0  0  0
    6.7733   22.0833   22.2008 N   0  0  0  0  0  0  0  0  0  0  0  0
    6.0541   22.9441   21.5571 C   0  0  0  0  0  0  0  0  0  0  0  0
    6.0535   24.2559   21.9356 N   0  0  0  0  0  0  0  0  0  0  0  0
    7.3081   22.3703   22.9759 H   0  0  0  0  0  0  0  0  0  0  0  0
    6.5875   24.5449   22.7105 H   0  0  0  0  0  0  0  0  0  0  0  0
    5.5190   24.9128   21.4335 H   0  0  0  0  0  0  0  0  0  0  0  0
 37 38  2  0
 38 39  1  0
 38 30  1  0
 30 31  2  0
 31 32  1  0
 32 33  1  0
 32 34  2  0
 34 35  1  0
 35 29  1  0
  1 29  1  0
  1 14  1  0
 14 16  1  0
 16 17  2  0
 16 18  2  0
 16 19  1  0
 19 20  2  0
 20 21  1  0
 21 22  2  0
 22 23  1  0
 23 24  2  0
 24 25  1  0
 25 26  2  0
 26 27  1  0
 27 28  2  0
  1  2  1  0
  2  3  2  0
  2  4  1  0
  4  5  1  0
  5  6  1  0
  6  7  1  0
  7  8  1  0
  8  9  1  0
  9 10  1  0
 10 11  2  0
 10 12  1  0
 35 36  2  0
 36 30  1  0
 28 19  1  0
  9  4  1  0
 27 22  1  0
 37 40  1  0
 39 41  1  0
 39 42  1  0
 14 15  1  0
 12 13  1  0
M  END
> <minimizedAffinity>
-6.67724

> <CNNscore>
0.2254431546

> <CNNaffinity>
5.3639454842

> <CNN_VS>
1.2092647552

> <CNNaffinity_variance>
0.7620084882

$$$$



 42 45  0  0  0  0  0  0  0  0999 V2000
   -2.6914   19.3500   17.5724 C   0  0  0  0  0  0  0  0  0  0  0  0
   -1.9466   18.3257   18.4483 C   0  0  0  0  0  0  0  0  0  0  0  0
   -2.0698   18.3634   19.6777 O   0  0  0  0  0  0  0  0  0  0  0  0
   -1.0501   17.4576   17.8178 N   0  0  0  0  0  0  0  0  0  0  0  0
   -1.4407   16.7619   16.5868 C   0  0  0  0  0  0  0  0  0  0  0  0
   -1.4999   15.2364   16.7822 C   0  0  0  0  0  0  0  0  0  0  0  0
   -1.8995   14.8631   18.2117 C   0  0  0  0  0  0  0  0  0  0  0  0
   -0.9398   15.4623   19.2542 C   0  0  0  0  0  0  0  0  0  0  0  0
   -0.1681   16.6616   18.6900 C   0  0  0  0  0  0  0  0  0  0  0  0
    0.6062   17.5020   19.7176 C   0  0  0  0  0  0  0  0  0  0  0  0
    0.3119   17.6498   20.8961 O   0  0  0  0  0  0  0  0  0  0  0  0
    1.6435   18.1877   19.1952 O   0  0  0  0  0  0  0  0  0  0  0  0
    1.8716   18.0770   18.2932 H   0  0  0  0  0  0  0  0  0  0  0  0
   -1.9111   19.4915   16.3107 N   0  0  0  0  0  0  0  0  0  0  0  0
   -2.4470   19.0501   15.5634 H   0  0  0  0  0  0  0  0  0  0  0  0
   -1.5524   21.0577   15.8248 S   0  0  0  0  0  0  0  0  0  0  0  0
   -2.1518   21.2788   14.5263 O   0  0  0  0  0  0  0  0  0  0  0  0
   -1.8244   21.9202   16.9517 O   0  0  0  0  0  0  0  0  0  0  0  0
    0.2108   20.9693   15.6384 C   0  0  0  0  0  0  0  0  0  0  0  0
    0.9835   20.5067   16.7044 C   0  0  0  0  0  0  0  0  0  0  0  0
    2.3714   20.4472   16.5717 C   0  0  0  0  0  0  0  0  0  0  0  0
    2.9967   20.8565   15.3821 C   0  0  0  0  0  0  0  0  0  0  0  0
    4.3928   20.8125   15.2403 C   0  0  0  0  0  0  0  0  0  0  0  0
    5.0051   21.2468   14.0630 C   0  0  0  0  0  0  0  0  0  0  0  0
    4.2292   21.7215   13.0094 C   0  0  0  0  0  0  0  0  0  0  0  0
    2.8386   21.7594   13.1282 C   0  0  0  0  0  0  0  0  0  0  0  0
    2.2069   21.3345   14.3082 C   0  0  0  0  0  0  0  0  0  0  0  0
    0.8111   21.3856   14.4467 C   0  0  0  0  0  0  0  0  0  0  0  0
   -4.0996   18.8227   17.2614 C   0  0  0  0  0  0  0  0  0  0  0  0
   -5.7604   21.4160   19.5187 C   0  0  0  0  0  0  0  0  0  0  0  0
   -7.1125   21.2253   19.2231 C   0  0  0  0  0  0  0  0  0  0  0  0
   -7.4810   20.2412   18.3083 C   0  0  0  0  0  0  0  0  0  0  0  0
   -9.3092   19.9954   17.8906 Br  0  0  0  0  0  0  0  0  0  0  0  0
   -6.5181   19.4477   17.6830 C   0  0  0  0  0  0  0  0  0  0  0  0
   -5.1614   19.6257   17.9799 C   0  0  0  0  0  0  0  0  0  0  0  0
   -4.7922   20.6058   18.9129 C   0  0  0  0  0  0  0  0  0  0  0  0
   -4.9569   23.6350   19.9969 N   0  0  0  0  0  0  0  0  0  0  0  0
   -5.3300   22.4877   20.4627 C   0  0  0  0  0  0  0  0  0  0  0  0
   -5.3519   22.2698   21.8103 N   0  0  0  0  0  0  0  0  0  0  0  0
   -4.6715   24.3474   20.6135 H   0  0  0  0  0  0  0  0  0  0  0  0
   -5.0667   22.9808   22.4287 H   0  0  0  0  0  0  0  0  0  0  0  0
   -5.6530   21.4016   22.1637 H   0  0  0  0  0  0  0  0  0  0  0  0
 37 38  2  0
 38 39  1  0
 38 30  1  0
 30 31  2  0
 31 32  1  0
 32 33  1  0
 32 34  2  0
 34 35  1  0
 35 29  1  0
  1 29  1  0
  1 14  1  0
 14 16  1  0
 16 17  2  0
 16 18  2  0
 16 19  1  0
 19 20  2  0
 20 21  1  0
 21 22  2  0
 22 23  1  0
 23 24  2  0
 24 25  1  0
 25 26  2  0
 26 27  1  0
 27 28  2  0
  1  2  1  0
  2  3  2  0
  2  4  1  0
  4  5  1  0
  5  6  1  0
  6  7  1  0
  7  8  1  0
  8  9  1  0
  9 10  1  0
 10 11  2  0
 10 12  1  0
 35 36  2  0
 36 30  1  0
 28 19  1  0
  9  4  1  0
 27 22  1  0
 37 40  1  0
 39 41  1  0
 39 42  1  0
 14 15  1  0
 12 13  1  0
M  END
> <minimizedAffinity>
-7.43400

> <CNNscore>
0.1718475521

> <CNNaffinity>
6.3294067383

> <CNN_VS>
1.0876930952

> <CNNaffinity_variance>
0.3173048198

$$$$



 42 45  0  0  0  0  0  0  0  0999 V2000
   -3.1239   19.6602   17.0982 C   0  0  0  0  0  0  0  0  0  0  0  0
   -1.9869   19.0529   17.9406 C   0  0  0  0  0  0  0  0  0  0  0  0
   -1.7048   19.5456   19.0386 O   0  0  0  0  0  0  0  0  0  0  0  0
   -1.2256   18.0295   17.3680 N   0  0  0  0  0  0  0  0  0  0  0  0
   -1.8874   16.9162   16.6792 C   0  0  0  0  0  0  0  0  0  0  0  0
   -1.6472   15.5739   17.3928 C   0  0  0  0  0  0  0  0  0  0  0  0
   -1.4949   15.7550   18.9050 C   0  0  0  0  0  0  0  0  0  0  0  0
   -0.3494   16.7194   19.2581 C   0  0  0  0  0  0  0  0  0  0  0  0
    0.0034   17.6351   18.0794 C   0  0  0  0  0  0  0  0  0  0  0  0
    0.9345   18.8140   18.4039 C   0  0  0  0  0  0  0  0  0  0  0  0
    1.4137   19.5974   17.5952 O   0  0  0  0  0  0  0  0  0  0  0  0
    1.2932   18.8883   19.7019 O   0  0  0  0  0  0  0  0  0  0  0  0
    0.9282   18.2900   20.3238 H   0  0  0  0  0  0  0  0  0  0  0  0
   -2.5946   19.8351   15.7161 N   0  0  0  0  0  0  0  0  0  0  0  0
   -3.2781   19.4402   15.0701 H   0  0  0  0  0  0  0  0  0  0  0  0
   -2.2827   21.4108   15.2286 S   0  0  0  0  0  0  0  0  0  0  0  0
   -1.1119   21.8819   15.9369 O   0  0  0  0  0  0  0  0  0  0  0  0
   -2.3650   21.4287   13.7860 O   0  0  0  0  0  0  0  0  0  0  0  0
   -3.7131   22.2577   15.8516 C   0  0  0  0  0  0  0  0  0  0  0  0
   -3.5941   23.0310   17.0072 C   0  0  0  0  0  0  0  0  0  0  0  0
   -4.7164   23.6889   17.5120 C   0  0  0  0  0  0  0  0  0  0  0  0
   -5.9632   23.5727   16.8750 C   0  0  0  0  0  0  0  0  0  0  0  0
   -7.1023   24.2201   17.3794 C   0  0  0  0  0  0  0  0  0  0  0  0
   -8.3419   24.0759   16.7531 C   0  0  0  0  0  0  0  0  0  0  0  0
   -8.4563   23.2907   15.6095 C   0  0  0  0  0  0  0  0  0  0  0  0
   -7.3312   22.6508   15.0864 C   0  0  0  0  0  0  0  0  0  0  0  0
   -6.0787   22.7780   15.7085 C   0  0  0  0  0  0  0  0  0  0  0  0
   -4.9441   22.1242   15.2031 C   0  0  0  0  0  0  0  0  0  0  0  0
   -4.3168   18.6936   17.0842 C   0  0  0  0  0  0  0  0  0  0  0  0
   -7.9949   19.7112   17.2067 C   0  0  0  0  0  0  0  0  0  0  0  0
   -8.0161   20.5669   18.3109 C   0  0  0  0  0  0  0  0  0  0  0  0
   -6.8323   20.8269   18.9981 C   0  0  0  0  0  0  0  0  0  0  0  0
   -6.8622   21.9682   20.5061 Br  0  0  0  0  0  0  0  0  0  0  0  0
   -5.6294   20.2421   18.5998 C   0  0  0  0  0  0  0  0  0  0  0  0
   -5.5972   19.3904   17.4888 C   0  0  0  0  0  0  0  0  0  0  0  0
   -6.7863   19.1416   16.7878 C   0  0  0  0  0  0  0  0  0  0  0  0
  -10.1688   18.6856   17.0640 N   0  0  0  0  0  0  0  0  0  0  0  0
   -9.2515   19.3804   16.4741 C   0  0  0  0  0  0  0  0  0  0  0  0
   -9.4445   19.8275   15.1986 N   0  0  0  0  0  0  0  0  0  0  0  0
  -11.0009   18.4632   16.5872 H   0  0  0  0  0  0  0  0  0  0  0  0
  -10.2758   19.6061   14.7199 H   0  0  0  0  0  0  0  0  0  0  0  0
   -8.7524   20.3712   14.7575 H   0  0  0  0  0  0  0  0  0  0  0  0
 37 38  2  0
 38 39  1  0
 38 30  1  0
 30 31  2  0
 31 32  1  0
 32 33  1  0
 32 34  2  0
 34 35  1  0
 35 29  1  0
  1 29  1  0
  1 14  1  0
 14 16  1  0
 16 17  2  0
 16 18  2  0
 16 19  1  0
 19 20  2  0
 20 21  1  0
 21 22  2  0
 22 23  1  0
 23 24  2  0
 24 25  1  0
 25 26  2  0
 26 27  1  0
 27 28  2  0
  1  2  1  0
  2  3  2  0
  2  4  1  0
  4  5  1  0
  5  6  1  0
  6  7  1  0
  7  8  1  0
  8  9  1  0
  9 10  1  0
 10 11  2  0
 10 12  1  0
 35 36  2  0
 36 30  1  0
 28 19  1  0
  9  4  1  0
 27 22  1  0
 37 40  1  0
 39 41  1  0
 39 42  1  0
 14 15  1  0
 12 13  1  0
M  END
> <minimizedAffinity>
-6.36517

> <CNNscore>
0.1582439691

> <CNNaffinity>
6.1589217186

> <CNN_VS>
0.9746122360

> <CNNaffinity_variance>
0.3189460039

$$$$



 42 45  0  0  0  0  0  0  0  0999 V2000
   -4.6123   19.5559   16.8693 C   0  0  0  0  0  0  0  0  0  0  0  0
   -6.1459   19.6392   16.7588 C   0  0  0  0  0  0  0  0  0  0  0  0
   -6.7479   18.8891   15.9823 O   0  0  0  0  0  0  0  0  0  0  0  0
   -6.7963   20.6588   17.4606 N   0  0  0  0  0  0  0  0  0  0  0  0
   -6.4549   20.9216   18.8628 C   0  0  0  0  0  0  0  0  0  0  0  0
   -7.6395   20.6434   19.8051 C   0  0  0  0  0  0  0  0  0  0  0  0
   -8.5340   19.5204   19.2750 C   0  0  0  0  0  0  0  0  0  0  0  0
   -9.0773   19.8303   17.8694 C   0  0  0  0  0  0  0  0  0  0  0  0
   -8.2200   20.8788   17.1496 C   0  0  0  0  0  0  0  0  0  0  0  0
   -8.5037   21.0596   15.6500 C   0  0  0  0  0  0  0  0  0  0  0  0
   -8.2963   22.0717   14.9943 O   0  0  0  0  0  0  0  0  0  0  0  0
   -9.1198   20.0052   15.0775 O   0  0  0  0  0  0  0  0  0  0  0  0
   -9.2802   19.2286   15.5767 H   0  0  0  0  0  0  0  0  0  0  0  0
   -4.0920   20.9473   16.7501 N   0  0  0  0  0  0  0  0  0  0  0  0
   -3.8471   21.2682   17.6868 H   0  0  0  0  0  0  0  0  0  0  0  0
   -2.7466   21.1612   15.7694 S   0  0  0  0  0  0  0  0  0  0  0  0
   -1.8026   22.0043   16.4711 O   0  0  0  0  0  0  0  0  0  0  0  0
   -2.3823   19.8570   15.2650 O   0  0  0  0  0  0  0  0  0  0  0  0
   -3.4431   22.0767   14.4173 C   0  0  0  0  0  0  0  0  0  0  0  0
   -4.8086   22.3643   14.4246 C   0  0  0  0  0  0  0  0  0  0  0  0
   -5.3674   23.0712   13.3590 C   0  0  0  0  0  0  0  0  0  0  0  0
   -4.5722   23.4864   12.2778 C   0  0  0  0  0  0  0  0  0  0  0  0
   -5.1243   24.1881   11.1943 C   0  0  0  0  0  0  0  0  0  0  0  0
   -4.3294   24.5725   10.1126 C   0  0  0  0  0  0  0  0  0  0  0  0
   -2.9710   24.2688   10.1050 C   0  0  0  0  0  0  0  0  0  0  0  0
   -2.4027   23.5837   11.1805 C   0  0  0  0  0  0  0  0  0  0  0  0
   -3.1891   23.1821   12.2723 C   0  0  0  0  0  0  0  0  0  0  0  0
   -2.6330   22.4761   13.3505 C   0  0  0  0  0  0  0  0  0  0  0  0
   -4.2334   18.9702   18.2371 C   0  0  0  0  0  0  0  0  0  0  0  0
   -1.9615   16.0337   17.3452 C   0  0  0  0  0  0  0  0  0  0  0  0
   -0.7250   16.4768   17.8210 C   0  0  0  0  0  0  0  0  0  0  0  0
   -0.6377   17.7176   18.4486 C   0  0  0  0  0  0  0  0  0  0  0  0
    1.0391   18.3289   19.0748 Br  0  0  0  0  0  0  0  0  0  0  0  0
   -1.7671   18.5226   18.6046 C   0  0  0  0  0  0  0  0  0  0  0  0
   -3.0122   18.0827   18.1389 C   0  0  0  0  0  0  0  0  0  0  0  0
   -3.1023   16.8265   17.5214 C   0  0  0  0  0  0  0  0  0  0  0  0
   -2.7098   14.6742   15.5041 N   0  0  0  0  0  0  0  0  0  0  0  0
   -2.0814   14.7286   16.6330 C   0  0  0  0  0  0  0  0  0  0  0  0
   -1.5118   13.6029   17.1549 N   0  0  0  0  0  0  0  0  0  0  0  0
   -2.7932   13.8165   15.0279 H   0  0  0  0  0  0  0  0  0  0  0  0
   -1.5941   12.7442   16.6805 H   0  0  0  0  0  0  0  0  0  0  0  0
   -1.0187   13.6499   18.0058 H   0  0  0  0  0  0  0  0  0  0  0  0
 37 38  2  0
 38 39  1  0
 38 30  1  0
 30 31  2  0
 31 32  1  0
 32 33  1  0
 32 34  2  0
 34 35  1  0
 35 29  1  0
  1 29  1  0
  1 14  1  0
 14 16  1  0
 16 17  2  0
 16 18  2  0
 16 19  1  0
 19 20  2  0
 20 21  1  0
 21 22  2  0
 22 23  1  0
 23 24  2  0
 24 25  1  0
 25 26  2  0
 26 27  1  0
 27 28  2  0
  1  2  1  0
  2  3  2  0
  2  4  1  0
  4  5  1  0
  5  6  1  0
  6  7  1  0
  7  8  1  0
  8  9  1  0
  9 10  1  0
 10 11  2  0
 10 12  1  0
 35 36  2  0
 36 30  1  0
 28 19  1  0
  9  4  1  0
 27 22  1  0
 37 40  1  0
 39 41  1  0
 39 42  1  0
 14 15  1  0
 12 13  1  0
M  END
> <minimizedAffinity>
-6.44410

> <CNNscore>
0.1534167379

> <CNNaffinity>
5.8929610252

> <CNN_VS>
0.9040788412

> <CNNaffinity_variance>
0.0272541400

$$$$



 42 45  0  0  0  0  0  0  0  0999 V2000
   -3.0678   19.8399   18.4692 C   0  0  0  0  0  0  0  0  0  0  0  0
   -2.0945   18.7372   18.9251 C   0  0  0  0  0  0  0  0  0  0  0  0
   -1.9363   18.5171   20.1311 O   0  0  0  0  0  0  0  0  0  0  0  0
   -1.3239   18.1017   17.9466 N   0  0  0  0  0  0  0  0  0  0  0  0
   -1.9502   17.6315   16.7062 C   0  0  0  0  0  0  0  0  0  0  0  0
   -1.8894   16.0992   16.5761 C   0  0  0  0  0  0  0  0  0  0  0  0
   -1.9347   15.4119   17.9428 C   0  0  0  0  0  0  0  0  0  0  0  0
   -0.7931   15.8798   18.8620 C   0  0  0  0  0  0  0  0  0  0  0  0
   -0.2291   17.2355   18.4190 C   0  0  0  0  0  0  0  0  0  0  0  0
    0.7170   17.9240   19.4154 C   0  0  0  0  0  0  0  0  0  0  0  0
    1.4965   18.8318   19.1593 O   0  0  0  0  0  0  0  0  0  0  0  0
    0.7086   17.3760   20.6477 O   0  0  0  0  0  0  0  0  0  0  0  0
    0.1130   16.6807   20.8472 H   0  0  0  0  0  0  0  0  0  0  0  0
   -2.2456   20.9124   17.8408 N   0  0  0  0  0  0  0  0  0  0  0  0
   -2.4527   20.9169   16.8421 H   0  0  0  0  0  0  0  0  0  0  0  0
   -2.4820   22.4708   18.4179 S   0  0  0  0  0  0  0  0  0  0  0  0
   -1.3653   23.2869   17.9922 O   0  0  0  0  0  0  0  0  0  0  0  0
   -3.8501   22.8271   18.1188 O   0  0  0  0  0  0  0  0  0  0  0  0
   -2.3726   22.2134   20.1710 C   0  0  0  0  0  0  0  0  0  0  0  0
   -1.1378   21.8868   20.7332 C   0  0  0  0  0  0  0  0  0  0  0  0
   -1.0453   21.6688   22.1084 C   0  0  0  0  0  0  0  0  0  0  0  0
   -2.1820   21.7654   22.9283 C   0  0  0  0  0  0  0  0  0  0  0  0
   -2.1044   21.5371   24.3114 C   0  0  0  0  0  0  0  0  0  0  0  0
   -3.2457   21.6097   25.1124 C   0  0  0  0  0  0  0  0  0  0  0  0
   -4.4769   21.9210   24.5426 C   0  0  0  0  0  0  0  0  0  0  0  0
   -4.5699   22.1645   23.1710 C   0  0  0  0  0  0  0  0  0  0  0  0
   -3.4338   22.0872   22.3494 C   0  0  0  0  0  0  0  0  0  0  0  0
   -3.5179   22.3112   20.9663 C   0  0  0  0  0  0  0  0  0  0  0  0
   -4.0465   19.2584   17.4389 C   0  0  0  0  0  0  0  0  0  0  0  0
   -7.8646   19.2614   17.3964 C   0  0  0  0  0  0  0  0  0  0  0  0
   -8.1611   19.9479   18.5765 C   0  0  0  0  0  0  0  0  0  0  0  0
   -7.1205   20.4257   19.3703 C   0  0  0  0  0  0  0  0  0  0  0  0
   -7.5191   21.3368   20.9792 Br  0  0  0  0  0  0  0  0  0  0  0  0
   -5.7891   20.2247   19.0034 C   0  0  0  0  0  0  0  0  0  0  0  0
   -5.4827   19.5457   17.8177 C   0  0  0  0  0  0  0  0  0  0  0  0
   -6.5308   19.0790   17.0110 C   0  0  0  0  0  0  0  0  0  0  0  0
  -10.1505   18.6013   17.0264 N   0  0  0  0  0  0  0  0  0  0  0  0
   -8.9544   18.7022   16.5452 C   0  0  0  0  0  0  0  0  0  0  0  0
   -8.6990   18.3215   15.2591 N   0  0  0  0  0  0  0  0  0  0  0  0
  -10.8752   18.2332   16.4709 H   0  0  0  0  0  0  0  0  0  0  0  0
   -9.4222   17.9531   14.7020 H   0  0  0  0  0  0  0  0  0  0  0  0
   -7.7916   18.4155   14.8890 H   0  0  0  0  0  0  0  0  0  0  0  0
 37 38  2  0
 38 39  1  0
 38 30  1  0
 30 31  2  0
 31 32  1  0
 32 33  1  0
 32 34  2  0
 34 35  1  0
 35 29  1  0
  1 29  1  0
  1 14  1  0
 14 16  1  0
 16 17  2  0
 16 18  2  0
 16 19  1  0
 19 20  2  0
 20 21  1  0
 21 22  2  0
 22 23  1  0
 23 24  2  0
 24 25  1  0
 25 26  2  0
 26 27  1  0
 27 28  2  0
  1  2  1  0
  2  3  2  0
  2  4  1  0
  4  5  1  0
  5  6  1  0
  6  7  1  0
  7  8  1  0
  8  9  1  0
  9 10  1  0
 10 11  2  0
 10 12  1  0
 35 36  2  0
 36 30  1  0
 28 19  1  0
  9  4  1  0
 27 22  1  0
 37 40  1  0
 39 41  1  0
 39 42  1  0
 14 15  1  0
 12 13  1  0
M  END
> <minimizedAffinity>
-6.80667

> <CNNscore>
0.1361726969

> <CNNaffinity>
5.4053759575

> <CNN_VS>
0.7360646129

> <CNNaffinity_variance>
1.0944800377

$$$$
