


 25 28  0  0  0  0  0  0  0  0999 V2000
  -33.3238   32.7809    0.8195 C   0  0  0  0  0  0  0  0  0  0  0  0
  -33.0585   32.2855    2.1163 C   0  0  0  0  0  0  0  0  0  0  0  0
  -32.2735   33.0127    3.0157 C   0  0  0  0  0  0  0  0  0  0  0  0
  -31.7679   34.2248    2.5958 C   0  0  0  0  0  0  0  0  0  0  0  0
  -32.0101   34.7233    1.3361 C   0  0  0  0  0  0  0  0  0  0  0  0
  -32.7787   34.0182    0.4251 C   0  0  0  0  0  0  0  0  0  0  0  0
  -31.4338   35.9451    1.1581 O   0  0  0  0  0  0  0  0  0  0  0  0
  -30.7711   36.1349    2.4233 C   0  0  0  0  0  0  0  0  0  0  0  0
  -31.0014   35.0567    3.3510 O   0  0  0  0  0  0  0  0  0  0  0  0
  -35.8600   30.4745   -1.8417 O   0  0  0  0  0  0  0  0  0  0  0  0
  -34.8398   29.9926   -1.3741 C   0  0  0  0  0  0  0  0  0  0  0  0
  -34.3235   28.5897   -1.6309 C   0  0  0  0  0  0  0  0  0  0  0  0
  -33.0380   28.5603   -0.8423 C   0  0  0  0  0  0  0  0  0  0  0  0
  -32.1643   27.4831   -0.7530 C   0  0  0  0  0  0  0  0  0  0  0  0
  -31.0203   27.6274    0.0305 C   0  0  0  0  0  0  0  0  0  0  0  0
  -29.8045   26.1862    0.1795 Br  0  0  0  0  0  0  0  0  0  0  0  0
  -30.7583   28.8241    0.7105 C   0  0  0  0  0  0  0  0  0  0  0  0
  -31.6438   29.9042    0.6148 C   0  0  0  0  0  0  0  0  0  0  0  0
  -32.7837   29.7711   -0.1645 C   0  0  0  0  0  0  0  0  0  0  0  0
  -33.8791   30.7021   -0.4582 C   0  0  0  0  0  0  0  0  0  0  0  0
  -34.1459   31.9593   -0.0733 C   0  0  0  0  0  0  0  0  0  0  0  0
  -33.0368   34.5809   -0.9065 C   0  0  0  0  0  0  0  0  0  0  0  0
  -32.2030   34.9519   -1.7092 O   0  0  0  0  0  0  0  0  0  0  0  0
  -34.3571   34.6963   -1.1318 O   0  0  0  0  0  0  0  0  0  0  0  0
  -34.9700   34.3985   -0.4886 H   0  0  0  0  0  0  0  0  0  0  0  0
 10 11  2  0
 11 12  1  0
 12 13  1  0
 13 14  2  0
 14 15  1  0
 15 16  1  0
 15 17  2  0
 17 18  1  0
 18 19  2  0
 19 20  1  0
 20 21  2  0
 21  1  1  0
  1  2  2  0
  2  3  1  0
  3  4  2  0
  4  5  1  0
  5  6  2  0
  6 22  1  0
 22 23  2  0
 22 24  1  0
  5  7  1  0
  7  8  1  0
  8  9  1  0
 20 11  1  0
  6  1  1  0
 19 13  1  0
  9  4  1  0
 24 25  1  0
M  END
> <minimizedAffinity>
-9.21770

> <CNNscore>
0.9676331878

> <CNNaffinity>
5.7825875282

> <CNN_VS>
5.5954236984

> <CNNaffinity_variance>
0.0634510219

$$$$



 25 28  0  0  0  0  0  0  0  0999 V2000
  -35.7307   31.9952    0.1626 C   0  0  0  0  0  0  0  0  0  0  0  0
  -36.5654   31.0062    0.7305 C   0  0  0  0  0  0  0  0  0  0  0  0
  -37.6255   30.4574    0.0029 C   0  0  0  0  0  0  0  0  0  0  0  0
  -37.8287   30.9128   -1.2824 C   0  0  0  0  0  0  0  0  0  0  0  0
  -37.0308   31.8783   -1.8528 C   0  0  0  0  0  0  0  0  0  0  0  0
  -35.9793   32.4420   -1.1498 C   0  0  0  0  0  0  0  0  0  0  0  0
  -37.4033   32.1468   -3.1357 O   0  0  0  0  0  0  0  0  0  0  0  0
  -38.5434   31.2793   -3.2892 C   0  0  0  0  0  0  0  0  0  0  0  0
  -38.8031   30.4731   -2.1235 O   0  0  0  0  0  0  0  0  0  0  0  0
  -32.6114   33.7163    2.6407 O   0  0  0  0  0  0  0  0  0  0  0  0
  -32.4515   32.6375    2.0908 C   0  0  0  0  0  0  0  0  0  0  0  0
  -31.2075   31.7740    2.1778 C   0  0  0  0  0  0  0  0  0  0  0  0
  -31.5812   30.5703    1.3492 C   0  0  0  0  0  0  0  0  0  0  0  0
  -30.7747   29.4628    1.1157 C   0  0  0  0  0  0  0  0  0  0  0  0
  -31.2793   28.4387    0.3154 C   0  0  0  0  0  0  0  0  0  0  0  0
  -30.2149   26.9134   -0.0278 Br  0  0  0  0  0  0  0  0  0  0  0  0
  -32.5629   28.5234   -0.2397 C   0  0  0  0  0  0  0  0  0  0  0  0
  -33.3686   29.6428    0.0008 C   0  0  0  0  0  0  0  0  0  0  0  0
  -32.8763   30.6658    0.7980 C   0  0  0  0  0  0  0  0  0  0  0  0
  -33.4662   31.9393    1.2260 C   0  0  0  0  0  0  0  0  0  0  0  0
  -34.6455   32.5328    0.9879 C   0  0  0  0  0  0  0  0  0  0  0  0
  -35.1321   33.4576   -1.7879 C   0  0  0  0  0  0  0  0  0  0  0  0
  -33.9172   33.4923   -1.7849 O   0  0  0  0  0  0  0  0  0  0  0  0
  -35.8801   34.4187   -2.3571 O   0  0  0  0  0  0  0  0  0  0  0  0
  -36.8149   34.3571   -2.3393 H   0  0  0  0  0  0  0  0  0  0  0  0
 10 11  2  0
 11 12  1  0
 12 13  1  0
 13 14  2  0
 14 15  1  0
 15 16  1  0
 15 17  2  0
 17 18  1  0
 18 19  2  0
 19 20  1  0
 20 21  2  0
 21  1  1  0
  1  2  2  0
  2  3  1  0
  3  4  2  0
  4  5  1  0
  5  6  2  0
  6 22  1  0
 22 23  2  0
 22 24  1  0
  5  7  1  0
  7  8  1  0
  8  9  1  0
 20 11  1  0
  6  1  1  0
 19 13  1  0
  9  4  1  0
 24 25  1  0
M  END
> <minimizedAffinity>
-7.66652

> <CNNscore>
0.8280053735

> <CNNaffinity>
4.4584541321

> <CNN_VS>
3.6916239262

> <CNNaffinity_variance>
0.7854412198

$$$$



 25 28  0  0  0  0  0  0  0  0999 V2000
  -34.8176   30.4870    0.3979 C   0  0  0  0  0  0  0  0  0  0  0  0
  -34.6353   29.1609    0.8512 C   0  0  0  0  0  0  0  0  0  0  0  0
  -33.4234   28.7565    1.4186 C   0  0  0  0  0  0  0  0  0  0  0  0
  -32.4155   29.6918    1.5197 C   0  0  0  0  0  0  0  0  0  0  0  0
  -32.5704   30.9868    1.0805 C   0  0  0  0  0  0  0  0  0  0  0  0
  -33.7588   31.4092    0.5085 C   0  0  0  0  0  0  0  0  0  0  0  0
  -31.4538   31.7337    1.3094 O   0  0  0  0  0  0  0  0  0  0  0  0
  -30.5727   30.7568    1.8969 C   0  0  0  0  0  0  0  0  0  0  0  0
  -31.1871   29.4633    2.0574 O   0  0  0  0  0  0  0  0  0  0  0  0
  -38.6683   31.6339   -1.2422 O   0  0  0  0  0  0  0  0  0  0  0  0
  -37.9870   30.7765   -1.7828 C   0  0  0  0  0  0  0  0  0  0  0  0
  -38.3551   30.0151   -3.0419 C   0  0  0  0  0  0  0  0  0  0  0  0
  -37.1507   29.1337   -3.2601 C   0  0  0  0  0  0  0  0  0  0  0  0
  -36.9818   28.2332   -4.3053 C   0  0  0  0  0  0  0  0  0  0  0  0
  -35.8031   27.4899   -4.3490 C   0  0  0  0  0  0  0  0  0  0  0  0
  -35.5324   26.2532   -5.7542 Br  0  0  0  0  0  0  0  0  0  0  0  0
  -34.8164   27.6444   -3.3664 C   0  0  0  0  0  0  0  0  0  0  0  0
  -34.9949   28.5539   -2.3171 C   0  0  0  0  0  0  0  0  0  0  0  0
  -36.1633   29.3000   -2.2664 C   0  0  0  0  0  0  0  0  0  0  0  0
  -36.6339   30.3127   -1.3147 C   0  0  0  0  0  0  0  0  0  0  0  0
  -36.1110   30.8369   -0.1959 C   0  0  0  0  0  0  0  0  0  0  0  0
  -33.9041   32.8013    0.0643 C   0  0  0  0  0  0  0  0  0  0  0  0
  -33.6312   33.2422   -1.0350 O   0  0  0  0  0  0  0  0  0  0  0  0
  -34.3416   33.5825    1.0670 O   0  0  0  0  0  0  0  0  0  0  0  0
  -34.5420   33.2058    1.9012 H   0  0  0  0  0  0  0  0  0  0  0  0
 10 11  2  0
 11 12  1  0
 12 13  1  0
 13 14  2  0
 14 15  1  0
 15 16  1  0
 15 17  2  0
 17 18  1  0
 18 19  2  0
 19 20  1  0
 20 21  2  0
 21  1  1  0
  1  2  2  0
  2  3  1  0
  3  4  2  0
  4  5  1  0
  5  6  2  0
  6 22  1  0
 22 23  2  0
 22 24  1  0
  5  7  1  0
  7  8  1  0
  8  9  1  0
 20 11  1  0
  6  1  1  0
 19 13  1  0
  9  4  1  0
 24 25  1  0
M  END
> <minimizedAffinity>
-6.93049

> <CNNscore>
0.6186310649

> <CNNaffinity>
4.6995449066

> <CNN_VS>
2.9072844982

> <CNNaffinity_variance>
0.1425869465

$$$$



 25 28  0  0  0  0  0  0  0  0999 V2000
  -34.0605   32.7952    0.8569 C   0  0  0  0  0  0  0  0  0  0  0  0
  -35.3133   32.1964    1.1205 C   0  0  0  0  0  0  0  0  0  0  0  0
  -36.5042   32.8413    0.7740 C   0  0  0  0  0  0  0  0  0  0  0  0
  -36.4153   34.0772    0.1695 C   0  0  0  0  0  0  0  0  0  0  0  0
  -35.2061   34.6802   -0.0920 C   0  0  0  0  0  0  0  0  0  0  0  0
  -34.0133   34.0645    0.2483 C   0  0  0  0  0  0  0  0  0  0  0  0
  -35.3660   35.8800   -0.7178 O   0  0  0  0  0  0  0  0  0  0  0  0
  -36.8020   35.9807   -0.7790 C   0  0  0  0  0  0  0  0  0  0  0  0
  -37.4745   34.8258   -0.2402 O   0  0  0  0  0  0  0  0  0  0  0  0
  -30.4430   30.7648    2.1314 O   0  0  0  0  0  0  0  0  0  0  0  0
  -31.2495   30.2095    1.4014 C   0  0  0  0  0  0  0  0  0  0  0  0
  -31.1246   28.8016    0.8513 C   0  0  0  0  0  0  0  0  0  0  0  0
  -32.3993   28.6403    0.0612 C   0  0  0  0  0  0  0  0  0  0  0  0
  -32.7799   27.5045   -0.6436 C   0  0  0  0  0  0  0  0  0  0  0  0
  -33.9942   27.5314   -1.3281 C   0  0  0  0  0  0  0  0  0  0  0  0
  -34.5505   26.0071   -2.2998 Br  0  0  0  0  0  0  0  0  0  0  0  0
  -34.8083   28.6715   -1.3078 C   0  0  0  0  0  0  0  0  0  0  0  0
  -34.4169   29.8113   -0.5952 C   0  0  0  0  0  0  0  0  0  0  0  0
  -33.2115   29.7933    0.0911 C   0  0  0  0  0  0  0  0  0  0  0  0
  -32.5409   30.8079    0.9120 C   0  0  0  0  0  0  0  0  0  0  0  0
  -32.8542   32.0658    1.2574 C   0  0  0  0  0  0  0  0  0  0  0  0
  -32.7362   34.7215   -0.0579 C   0  0  0  0  0  0  0  0  0  0  0  0
  -31.9284   35.1434    0.7463 O   0  0  0  0  0  0  0  0  0  0  0  0
  -32.5733   34.8606   -1.3851 O   0  0  0  0  0  0  0  0  0  0  0  0
  -33.2183   34.5218   -1.9743 H   0  0  0  0  0  0  0  0  0  0  0  0
 10 11  2  0
 11 12  1  0
 12 13  1  0
 13 14  2  0
 14 15  1  0
 15 16  1  0
 15 17  2  0
 17 18  1  0
 18 19  2  0
 19 20  1  0
 20 21  2  0
 21  1  1  0
  1  2  2  0
  2  3  1  0
  3  4  2  0
  4  5  1  0
  5  6  2  0
  6 22  1  0
 22 23  2  0
 22 24  1  0
  5  7  1  0
  7  8  1  0
  8  9  1  0
 20 11  1  0
  6  1  1  0
 19 13  1  0
  9  4  1  0
 24 25  1  0
M  END
> <minimizedAffinity>
-8.74618

> <CNNscore>
0.6164681911

> <CNNaffinity>
4.7526183128

> <CNN_VS>
2.9298379421

> <CNNaffinity_variance>
0.4771299362

$$$$



 25 28  0  0  0  0  0  0  0  0999 V2000
  -34.6647   28.8421   -1.0382 C   0  0  0  0  0  0  0  0  0  0  0  0
  -34.2420   27.4998   -1.1688 C   0  0  0  0  0  0  0  0  0  0  0  0
  -32.9767   27.0998   -0.7293 C   0  0  0  0  0  0  0  0  0  0  0  0
  -32.1579   28.0560   -0.1670 C   0  0  0  0  0  0  0  0  0  0  0  0
  -32.5479   29.3691   -0.0345 C   0  0  0  0  0  0  0  0  0  0  0  0
  -33.7934   29.7909   -0.4688 C   0  0  0  0  0  0  0  0  0  0  0  0
  -31.5878   30.1213    0.5731 O   0  0  0  0  0  0  0  0  0  0  0  0
  -30.5425   29.1486    0.7652 C   0  0  0  0  0  0  0  0  0  0  0  0
  -30.9088   27.8278    0.3206 O   0  0  0  0  0  0  0  0  0  0  0  0
  -38.6367   29.9759   -2.3689 O   0  0  0  0  0  0  0  0  0  0  0  0
  -37.9584   29.1933   -3.0162 C   0  0  0  0  0  0  0  0  0  0  0  0
  -38.3705   28.5270   -4.3149 C   0  0  0  0  0  0  0  0  0  0  0  0
  -37.1514   27.7133   -4.6712 C   0  0  0  0  0  0  0  0  0  0  0  0
  -37.0110   26.9108   -5.7973 C   0  0  0  0  0  0  0  0  0  0  0  0
  -35.8125   26.2190   -5.9666 C   0  0  0  0  0  0  0  0  0  0  0  0
  -35.5794   25.1159   -7.4852 Br  0  0  0  0  0  0  0  0  0  0  0  0
  -34.7783   26.3278   -5.0276 C   0  0  0  0  0  0  0  0  0  0  0  0
  -34.9284   27.1385   -3.8961 C   0  0  0  0  0  0  0  0  0  0  0  0
  -36.1163   27.8328   -3.7202 C   0  0  0  0  0  0  0  0  0  0  0  0
  -36.5666   28.7435   -2.6615 C   0  0  0  0  0  0  0  0  0  0  0  0
  -36.0000   29.1913   -1.5308 C   0  0  0  0  0  0  0  0  0  0  0  0
  -34.1919   31.1942   -0.2995 C   0  0  0  0  0  0  0  0  0  0  0  0
  -35.0124   31.6234    0.4877 O   0  0  0  0  0  0  0  0  0  0  0  0
  -33.5612   31.9832   -1.1866 O   0  0  0  0  0  0  0  0  0  0  0  0
  -32.9343   31.6154   -1.7780 H   0  0  0  0  0  0  0  0  0  0  0  0
 10 11  2  0
 11 12  1  0
 12 13  1  0
 13 14  2  0
 14 15  1  0
 15 16  1  0
 15 17  2  0
 17 18  1  0
 18 19  2  0
 19 20  1  0
 20 21  2  0
 21  1  1  0
  1  2  2  0
  2  3  1  0
  3  4  2  0
  4  5  1  0
  5  6  2  0
  6 22  1  0
 22 23  2  0
 22 24  1  0
  5  7  1  0
  7  8  1  0
  8  9  1  0
 20 11  1  0
  6  1  1  0
 19 13  1  0
  9  4  1  0
 24 25  1  0
M  END
> <minimizedAffinity>
-6.63379

> <CNNscore>
0.5877170563

> <CNNaffinity>
4.0942797661

> <CNN_VS>
2.4062781334

> <CNNaffinity_variance>
0.5677769184

$$$$



 25 28  0  0  0  0  0  0  0  0999 V2000
  -34.6218   32.7444    1.0854 C   0  0  0  0  0  0  0  0  0  0  0  0
  -33.9561   31.8660    1.9700 C   0  0  0  0  0  0  0  0  0  0  0  0
  -32.6582   32.1394    2.4115 C   0  0  0  0  0  0  0  0  0  0  0  0
  -32.0515   33.2904    1.9553 C   0  0  0  0  0  0  0  0  0  0  0  0
  -32.6799   34.1568    1.0902 C   0  0  0  0  0  0  0  0  0  0  0  0
  -33.9625   33.9041    0.6334 C   0  0  0  0  0  0  0  0  0  0  0  0
  -31.8990   35.2356    0.8016 O   0  0  0  0  0  0  0  0  0  0  0  0
  -30.7024   34.9281    1.5429 C   0  0  0  0  0  0  0  0  0  0  0  0
  -30.8028   33.7058    2.2993 O   0  0  0  0  0  0  0  0  0  0  0  0
  -38.6927   31.8129   -0.0950 O   0  0  0  0  0  0  0  0  0  0  0  0
  -37.7513   31.1648   -0.5255 C   0  0  0  0  0  0  0  0  0  0  0  0
  -37.8461   29.9947   -1.4860 C   0  0  0  0  0  0  0  0  0  0  0  0
  -36.4003   29.6174   -1.6921 C   0  0  0  0  0  0  0  0  0  0  0  0
  -35.9368   28.5914   -2.5071 C   0  0  0  0  0  0  0  0  0  0  0  0
  -34.5611   28.3756   -2.5747 C   0  0  0  0  0  0  0  0  0  0  0  0
  -33.8877   26.9898   -3.6717 Br  0  0  0  0  0  0  0  0  0  0  0  0
  -33.6698   29.1693   -1.8408 C   0  0  0  0  0  0  0  0  0  0  0  0
  -34.1455   30.2008   -1.0223 C   0  0  0  0  0  0  0  0  0  0  0  0
  -35.5127   30.4249   -0.9505 C   0  0  0  0  0  0  0  0  0  0  0  0
  -36.3021   31.4077   -0.1998 C   0  0  0  0  0  0  0  0  0  0  0  0
  -35.9771   32.3882    0.6563 C   0  0  0  0  0  0  0  0  0  0  0  0
  -34.6171   34.8539   -0.2754 C   0  0  0  0  0  0  0  0  0  0  0  0
  -35.4786   35.6595    0.0180 O   0  0  0  0  0  0  0  0  0  0  0  0
  -34.1788   34.6928   -1.5360 O   0  0  0  0  0  0  0  0  0  0  0  0
  -33.5127   34.0610   -1.7233 H   0  0  0  0  0  0  0  0  0  0  0  0
 10 11  2  0
 11 12  1  0
 12 13  1  0
 13 14  2  0
 14 15  1  0
 15 16  1  0
 15 17  2  0
 17 18  1  0
 18 19  2  0
 19 20  1  0
 20 21  2  0
 21  1  1  0
  1  2  2  0
  2  3  1  0
  3  4  2  0
  4  5  1  0
  5  6  2  0
  6 22  1  0
 22 23  2  0
 22 24  1  0
  5  7  1  0
  7  8  1  0
  8  9  1  0
 20 11  1  0
  6  1  1  0
 19 13  1  0
  9  4  1  0
 24 25  1  0
M  END
> <minimizedAffinity>
-5.77226

> <CNNscore>
0.5020997524

> <CNNaffinity>
4.7154726982

> <CNN_VS>
2.3676376343

> <CNNaffinity_variance>
0.0646225139

$$$$



 25 28  0  0  0  0  0  0  0  0999 V2000
  -35.3398   32.4413   -0.7921 C   0  0  0  0  0  0  0  0  0  0  0  0
  -35.1085   33.0354   -2.0534 C   0  0  0  0  0  0  0  0  0  0  0  0
  -35.9075   32.7154   -3.1549 C   0  0  0  0  0  0  0  0  0  0  0  0
  -36.9246   31.8032   -2.9697 C   0  0  0  0  0  0  0  0  0  0  0  0
  -37.1641   31.2095   -1.7515 C   0  0  0  0  0  0  0  0  0  0  0  0
  -36.3818   31.5049   -0.6475 C   0  0  0  0  0  0  0  0  0  0  0  0
  -38.2342   30.3674   -1.8027 O   0  0  0  0  0  0  0  0  0  0  0  0
  -38.6083   30.4658   -3.1906 C   0  0  0  0  0  0  0  0  0  0  0  0
  -37.7960   31.3969   -3.9319 O   0  0  0  0  0  0  0  0  0  0  0  0
  -32.8124   33.6857    2.5090 O   0  0  0  0  0  0  0  0  0  0  0  0
  -32.5954   32.6426    1.9120 C   0  0  0  0  0  0  0  0  0  0  0  0
  -31.4708   31.6689    2.2085 C   0  0  0  0  0  0  0  0  0  0  0  0
  -31.7104   30.5701    1.2034 C   0  0  0  0  0  0  0  0  0  0  0  0
  -30.9470   29.4171    1.0630 C   0  0  0  0  0  0  0  0  0  0  0  0
  -31.3081   28.5060    0.0714 C   0  0  0  0  0  0  0  0  0  0  0  0
  -30.2964   26.9239   -0.1539 Br  0  0  0  0  0  0  0  0  0  0  0  0
  -32.4087   28.7457   -0.7618 C   0  0  0  0  0  0  0  0  0  0  0  0
  -33.1721   29.9098   -0.6132 C   0  0  0  0  0  0  0  0  0  0  0  0
  -32.8222   30.8212    0.3723 C   0  0  0  0  0  0  0  0  0  0  0  0
  -33.4124   32.1049    0.7681 C   0  0  0  0  0  0  0  0  0  0  0  0
  -34.4556   32.8164    0.3149 C   0  0  0  0  0  0  0  0  0  0  0  0
  -36.6697   30.8708    0.6453 C   0  0  0  0  0  0  0  0  0  0  0  0
  -36.3054   29.7696    1.0083 O   0  0  0  0  0  0  0  0  0  0  0  0
  -37.4611   31.6539    1.3990 O   0  0  0  0  0  0  0  0  0  0  0  0
  -37.7213   32.4975    1.0850 H   0  0  0  0  0  0  0  0  0  0  0  0
 10 11  2  0
 11 12  1  0
 12 13  1  0
 13 14  2  0
 14 15  1  0
 15 16  1  0
 15 17  2  0
 17 18  1  0
 18 19  2  0
 19 20  1  0
 20 21  2  0
 21  1  1  0
  1  2  2  0
  2  3  1  0
  3  4  2  0
  4  5  1  0
  5  6  2  0
  6 22  1  0
 22 23  2  0
 22 24  1  0
  5  7  1  0
  7  8  1  0
  8  9  1  0
 20 11  1  0
  6  1  1  0
 19 13  1  0
  9  4  1  0
 24 25  1  0
M  END
> <minimizedAffinity>
-6.99341

> <CNNscore>
0.4340831935

> <CNNaffinity>
4.6132984161

> <CNN_VS>
2.0025553703

> <CNNaffinity_variance>
0.4091606140

$$$$



 25 28  0  0  0  0  0  0  0  0999 V2000
  -33.3256   29.9050   -0.3686 C   0  0  0  0  0  0  0  0  0  0  0  0
  -32.8281   29.1080    0.6872 C   0  0  0  0  0  0  0  0  0  0  0  0
  -32.2217   29.6921    1.8031 C   0  0  0  0  0  0  0  0  0  0  0  0
  -32.1250   31.0670    1.8380 C   0  0  0  0  0  0  0  0  0  0  0  0
  -32.5985   31.8613    0.8188 C   0  0  0  0  0  0  0  0  0  0  0  0
  -33.1965   31.3058   -0.2999 C   0  0  0  0  0  0  0  0  0  0  0  0
  -32.4183   33.1852    1.0862 O   0  0  0  0  0  0  0  0  0  0  0  0
  -31.7439   33.1301    2.3582 C   0  0  0  0  0  0  0  0  0  0  0  0
  -31.5778   31.7873    2.8539 O   0  0  0  0  0  0  0  0  0  0  0  0
  -34.9950   27.8743   -3.8215 O   0  0  0  0  0  0  0  0  0  0  0  0
  -35.7077   28.2177   -2.8911 C   0  0  0  0  0  0  0  0  0  0  0  0
  -37.2065   28.0045   -2.7968 C   0  0  0  0  0  0  0  0  0  0  0  0
  -37.5392   28.5843   -1.4447 C   0  0  0  0  0  0  0  0  0  0  0  0
  -38.8032   28.6287   -0.8686 C   0  0  0  0  0  0  0  0  0  0  0  0
  -38.9315   29.2106    0.3918 C   0  0  0  0  0  0  0  0  0  0  0  0
  -40.6338   29.2918    1.2122 Br  0  0  0  0  0  0  0  0  0  0  0  0
  -37.8181   29.7376    1.0594 C   0  0  0  0  0  0  0  0  0  0  0  0
  -36.5484   29.6884    0.4717 C   0  0  0  0  0  0  0  0  0  0  0  0
  -36.4103   29.1090   -0.7812 C   0  0  0  0  0  0  0  0  0  0  0  0
  -35.2375   28.9102   -1.6403 C   0  0  0  0  0  0  0  0  0  0  0  0
  -33.9393   29.2233   -1.5116 C   0  0  0  0  0  0  0  0  0  0  0  0
  -33.7094   32.1767   -1.3653 C   0  0  0  0  0  0  0  0  0  0  0  0
  -33.8038   33.3879   -1.3271 O   0  0  0  0  0  0  0  0  0  0  0  0
  -34.1325   31.4526   -2.4160 O   0  0  0  0  0  0  0  0  0  0  0  0
  -34.0427   30.5199   -2.4088 H   0  0  0  0  0  0  0  0  0  0  0  0
 10 11  2  0
 11 12  1  0
 12 13  1  0
 13 14  2  0
 14 15  1  0
 15 16  1  0
 15 17  2  0
 17 18  1  0
 18 19  2  0
 19 20  1  0
 20 21  2  0
 21  1  1  0
  1  2  2  0
  2  3  1  0
  3  4  2  0
  4  5  1  0
  5  6  2  0
  6 22  1  0
 22 23  2  0
 22 24  1  0
  5  7  1  0
  7  8  1  0
  8  9  1  0
 20 11  1  0
  6  1  1  0
 19 13  1  0
  9  4  1  0
 24 25  1  0
M  END
> <minimizedAffinity>
-7.22456

> <CNNscore>
0.3984178305

> <CNNaffinity>
4.5317153931

> <CNN_VS>
1.8055162430

> <CNNaffinity_variance>
0.1249780878

$$$$



 25 28  0  0  0  0  0  0  0  0999 V2000
  -37.3563   32.4798   -0.3959 C   0  0  0  0  0  0  0  0  0  0  0  0
  -38.0003   32.3080    0.8504 C   0  0  0  0  0  0  0  0  0  0  0  0
  -38.2850   33.4052    1.6684 C   0  0  0  0  0  0  0  0  0  0  0  0
  -37.9167   34.6559    1.2200 C   0  0  0  0  0  0  0  0  0  0  0  0
  -37.2847   34.8450    0.0122 C   0  0  0  0  0  0  0  0  0  0  0  0
  -36.9857   33.7732   -0.8123 C   0  0  0  0  0  0  0  0  0  0  0  0
  -37.0450   36.1642   -0.2302 O   0  0  0  0  0  0  0  0  0  0  0  0
  -37.5543   36.7724    0.9725 C   0  0  0  0  0  0  0  0  0  0  0  0
  -38.1335   35.8214    1.8870 O   0  0  0  0  0  0  0  0  0  0  0  0
  -36.6804   28.9585   -2.8407 O   0  0  0  0  0  0  0  0  0  0  0  0
  -35.8523   29.3193   -2.0186 C   0  0  0  0  0  0  0  0  0  0  0  0
  -34.5296   28.6339   -1.7332 C   0  0  0  0  0  0  0  0  0  0  0  0
  -33.9193   29.5192   -0.6755 C   0  0  0  0  0  0  0  0  0  0  0  0
  -32.6815   29.3294   -0.0724 C   0  0  0  0  0  0  0  0  0  0  0  0
  -32.2746   30.2454    0.8966 C   0  0  0  0  0  0  0  0  0  0  0  0
  -30.5973   30.0245    1.7423 Br  0  0  0  0  0  0  0  0  0  0  0  0
  -33.0905   31.3267    1.2544 C   0  0  0  0  0  0  0  0  0  0  0  0
  -34.3359   31.5103    0.6417 C   0  0  0  0  0  0  0  0  0  0  0  0
  -34.7484   30.6055   -0.3256 C   0  0  0  0  0  0  0  0  0  0  0  0
  -35.9720   30.5293   -1.1316 C   0  0  0  0  0  0  0  0  0  0  0  0
  -37.0800   31.2830   -1.1955 C   0  0  0  0  0  0  0  0  0  0  0  0
  -36.3268   34.0041   -2.1042 C   0  0  0  0  0  0  0  0  0  0  0  0
  -35.1838   33.7115   -2.3960 O   0  0  0  0  0  0  0  0  0  0  0  0
  -37.1448   34.6521   -2.9518 O   0  0  0  0  0  0  0  0  0  0  0  0
  -38.0202   34.8606   -2.6907 H   0  0  0  0  0  0  0  0  0  0  0  0
 10 11  2  0
 11 12  1  0
 12 13  1  0
 13 14  2  0
 14 15  1  0
 15 16  1  0
 15 17  2  0
 17 18  1  0
 18 19  2  0
 19 20  1  0
 20 21  2  0
 21  1  1  0
  1  2  2  0
  2  3  1  0
  3  4  2  0
  4  5  1  0
  5  6  2  0
  6 22  1  0
 22 23  2  0
 22 24  1  0
  5  7  1  0
  7  8  1  0
  8  9  1  0
 20 11  1  0
  6  1  1  0
 19 13  1  0
  9  4  1  0
 24 25  1  0
M  END
> <minimizedAffinity>
-6.05394

> <CNNscore>
0.3822922111

> <CNNaffinity>
4.7394065857

> <CNN_VS>
1.8118382692

> <CNNaffinity_variance>
0.2683620751

$$$$
