


 14 14  0  0  0  0  0  0  0  0999 V2000
   29.4150   66.2745    8.5636 C   0  0  0  0  0  0  0  0  0  0  0  0
   30.3218   66.2562    7.3208 C   0  0  0  0  0  0  0  0  0  0  0  0
   30.4400   64.9503    6.7416 O   0  0  0  0  0  0  0  0  0  0  0  0
   31.6665   66.7079    7.9244 C   0  0  0  0  0  0  0  0  0  0  0  0
   32.8313   66.4119    7.0915 N   0  0  0  0  0  0  0  0  0  0  0  0
   31.7369   66.0113    9.2966 C   0  0  0  0  0  0  0  0  0  0  0  0
   30.2989   65.5905    9.6186 C   0  0  0  0  0  0  0  0  0  0  0  0
   30.1906   64.1673    9.4619 O   0  0  0  0  0  0  0  0  0  0  0  0
   30.7713   64.3294    7.4091 H   0  0  0  0  0  0  0  0  0  0  0  0
   32.8993   65.4044    6.9478 H   0  0  0  0  0  0  0  0  0  0  0  0
   33.6754   66.7468    7.5561 H   0  0  0  0  0  0  0  0  0  0  0  0
   30.4483   63.9207    8.5599 H   0  0  0  0  0  0  0  0  0  0  0  0
   27.2121   65.9587    9.3944 C   0  0  0  0  0  0  0  0  0  0  0  0
   28.1877   65.5529    8.4427 O   0  0  0  0  0  0  0  0  0  0  0  0
 13 14  1  0
  1 14  1  0
  1  2  1  0
  2  3  1  0
  2  4  1  0
  4  5  1  0
  4  6  1  0
  6  7  1  0
  7  8  1  0
  7  1  1  0
  3  9  1  0
  5 10  1  0
  5 11  1  0
  8 12  1  0
M  END
> <minimizedAffinity>
-6.44397

> <CNNscore>
0.9642181396

> <CNNaffinity>
5.5766215324

> <CNN_VS>
5.3770794868

> <CNNaffinity_variance>
0.2589002252

$$$$



 14 14  0  0  0  0  0  0  0  0999 V2000
   30.7539   66.2330    8.9208 C   0  0  0  0  0  0  0  0  0  0  0  0
   29.8613   65.3131    9.7719 C   0  0  0  0  0  0  0  0  0  0  0  0
   30.0093   63.9288    9.4307 O   0  0  0  0  0  0  0  0  0  0  0  0
   28.4568   65.8210    9.3895 C   0  0  0  0  0  0  0  0  0  0  0  0
   27.3716   64.8972    9.7165 N   0  0  0  0  0  0  0  0  0  0  0  0
   28.5406   66.1131    7.8793 C   0  0  0  0  0  0  0  0  0  0  0  0
   30.0365   66.2119    7.5616 C   0  0  0  0  0  0  0  0  0  0  0  0
   30.4334   65.0319    6.8463 O   0  0  0  0  0  0  0  0  0  0  0  0
   29.8171   63.8058    8.4879 H   0  0  0  0  0  0  0  0  0  0  0  0
   27.5107   64.0188    9.2170 H   0  0  0  0  0  0  0  0  0  0  0  0
   26.4801   65.3083    9.4396 H   0  0  0  0  0  0  0  0  0  0  0  0
   30.2253   64.2469    7.3768 H   0  0  0  0  0  0  0  0  0  0  0  0
   32.9048   66.7398    8.0494 C   0  0  0  0  0  0  0  0  0  0  0  0
   32.1022   65.7941    8.7448 O   0  0  0  0  0  0  0  0  0  0  0  0
 13 14  1  0
  1 14  1  0
  1  2  1  0
  2  3  1  0
  2  4  1  0
  4  5  1  0
  4  6  1  0
  6  7  1  0
  7  8  1  0
  7  1  1  0
  3  9  1  0
  5 10  1  0
  5 11  1  0
  8 12  1  0
M  END
> <minimizedAffinity>
-5.81292

> <CNNscore>
0.5089402795

> <CNNaffinity>
4.2711682320

> <CNN_VS>
2.1737694740

> <CNNaffinity_variance>
0.0032952533

$$$$



 14 14  0  0  0  0  0  0  0  0999 V2000
   24.1559   65.9056   10.1538 C   0  0  0  0  0  0  0  0  0  0  0  0
   24.7959   64.5944   10.6420 C   0  0  0  0  0  0  0  0  0  0  0  0
   25.8839   64.8141   11.5490 O   0  0  0  0  0  0  0  0  0  0  0  0
   25.3053   63.9975    9.3150 C   0  0  0  0  0  0  0  0  0  0  0  0
   26.3112   62.9480    9.4725 N   0  0  0  0  0  0  0  0  0  0  0  0
   25.8387   65.2036    8.5189 C   0  0  0  0  0  0  0  0  0  0  0  0
   25.2168   66.4393    9.1782 C   0  0  0  0  0  0  0  0  0  0  0  0
   26.2342   67.1214    9.9275 O   0  0  0  0  0  0  0  0  0  0  0  0
   26.5506   65.3762   11.1241 H   0  0  0  0  0  0  0  0  0  0  0  0
   27.1262   63.3277    9.9540 H   0  0  0  0  0  0  0  0  0  0  0  0
   26.5892   62.6029    8.5538 H   0  0  0  0  0  0  0  0  0  0  0  0
   26.6166   66.5145   10.5804 H   0  0  0  0  0  0  0  0  0  0  0  0
   22.7034   66.6599   11.8754 C   0  0  0  0  0  0  0  0  0  0  0  0
   23.9131   66.8871   11.1634 O   0  0  0  0  0  0  0  0  0  0  0  0
 13 14  1  0
  1 14  1  0
  1  2  1  0
  2  3  1  0
  2  4  1  0
  4  5  1  0
  4  6  1  0
  6  7  1  0
  7  8  1  0
  7  1  1  0
  3  9  1  0
  5 10  1  0
  5 11  1  0
  8 12  1  0
M  END
> <minimizedAffinity>
-3.38097

> <CNNscore>
0.4417681992

> <CNNaffinity>
2.9376621246

> <CNN_VS>
1.2977657318

> <CNNaffinity_variance>
0.5394868255

$$$$



 14 14  0  0  0  0  0  0  0  0999 V2000
   24.3347   64.9870   10.1043 C   0  0  0  0  0  0  0  0  0  0  0  0
   24.8595   64.8830   11.5469 C   0  0  0  0  0  0  0  0  0  0  0  0
   26.2722   65.1073   11.6391 O   0  0  0  0  0  0  0  0  0  0  0  0
   24.5174   63.4184   11.8853 C   0  0  0  0  0  0  0  0  0  0  0  0
   25.2402   62.8808   13.0371 N   0  0  0  0  0  0  0  0  0  0  0  0
   24.8133   62.6353   10.5921 C   0  0  0  0  0  0  0  0  0  0  0  0
   24.8561   63.6847    9.4762 C   0  0  0  0  0  0  0  0  0  0  0  0
   26.2223   63.8767    9.0780 O   0  0  0  0  0  0  0  0  0  0  0  0
   26.7375   64.4784   11.0656 H   0  0  0  0  0  0  0  0  0  0  0  0
   26.2431   62.9118   12.8539 H   0  0  0  0  0  0  0  0  0  0  0  0
   24.9536   61.9152   13.1978 H   0  0  0  0  0  0  0  0  0  0  0  0
   26.7491   64.1427    9.8478 H   0  0  0  0  0  0  0  0  0  0  0  0
   24.4232   67.3512    9.8906 C   0  0  0  0  0  0  0  0  0  0  0  0
   24.8215   66.0980    9.3492 O   0  0  0  0  0  0  0  0  0  0  0  0
 13 14  1  0
  1 14  1  0
  1  2  1  0
  2  3  1  0
  2  4  1  0
  4  5  1  0
  4  6  1  0
  6  7  1  0
  7  8  1  0
  7  1  1  0
  3  9  1  0
  5 10  1  0
  5 11  1  0
  8 12  1  0
M  END
> <minimizedAffinity>
-3.78108

> <CNNscore>
0.3718541265

> <CNNaffinity>
2.6831276417

> <CNN_VS>
0.9977321029

> <CNNaffinity_variance>
0.5642470717

$$$$



 14 14  0  0  0  0  0  0  0  0999 V2000
   25.5449   63.4577    9.5597 C   0  0  0  0  0  0  0  0  0  0  0  0
   24.7716   63.5555   10.8863 C   0  0  0  0  0  0  0  0  0  0  0  0
   23.6388   64.4298   10.8029 O   0  0  0  0  0  0  0  0  0  0  0  0
   25.8483   64.1466   11.8178 C   0  0  0  0  0  0  0  0  0  0  0  0
   25.3235   64.7353   13.0491 N   0  0  0  0  0  0  0  0  0  0  0  0
   26.5979   65.1761   10.9510 C   0  0  0  0  0  0  0  0  0  0  0  0
   26.2578   64.8180    9.5003 C   0  0  0  0  0  0  0  0  0  0  0  0
   25.3432   65.7987    8.9871 O   0  0  0  0  0  0  0  0  0  0  0  0
   23.9300   65.3100   10.5174 H   0  0  0  0  0  0  0  0  0  0  0  0
   24.6872   65.4980   12.8170 H   0  0  0  0  0  0  0  0  0  0  0  0
   26.0956   65.0955   13.6098 H   0  0  0  0  0  0  0  0  0  0  0  0
   24.5530   65.8292    9.5490 H   0  0  0  0  0  0  0  0  0  0  0  0
   24.1146   62.0247    8.3172 C   0  0  0  0  0  0  0  0  0  0  0  0
   24.7427   63.2985    8.3881 O   0  0  0  0  0  0  0  0  0  0  0  0
 13 14  1  0
  1 14  1  0
  1  2  1  0
  2  3  1  0
  2  4  1  0
  4  5  1  0
  4  6  1  0
  6  7  1  0
  7  8  1  0
  7  1  1  0
  3  9  1  0
  5 10  1  0
  5 11  1  0
  8 12  1  0
M  END
> <minimizedAffinity>
-3.43481

> <CNNscore>
0.3291366994

> <CNNaffinity>
2.5351772308

> <CNN_VS>
0.8344198465

> <CNNaffinity_variance>
0.6477663517

$$$$



 14 14  0  0  0  0  0  0  0  0999 V2000
   25.6406   65.1015   15.3712 C   0  0  0  0  0  0  0  0  0  0  0  0
   26.9220   64.8024   14.5738 C   0  0  0  0  0  0  0  0  0  0  0  0
   27.3666   63.4485   14.7290 O   0  0  0  0  0  0  0  0  0  0  0  0
   27.9174   65.7808   15.2283 C   0  0  0  0  0  0  0  0  0  0  0  0
   29.3236   65.4700   14.9751 N   0  0  0  0  0  0  0  0  0  0  0  0
   27.5729   65.7487   16.7295 C   0  0  0  0  0  0  0  0  0  0  0  0
   26.1635   65.1532   16.8155 C   0  0  0  0  0  0  0  0  0  0  0  0
   26.2610   63.8129   17.3214 O   0  0  0  0  0  0  0  0  0  0  0  0
   27.5041   63.2593   15.6704 H   0  0  0  0  0  0  0  0  0  0  0  0
   29.5388   64.5438   15.3440 H   0  0  0  0  0  0  0  0  0  0  0  0
   29.9132   66.1643   15.4341 H   0  0  0  0  0  0  0  0  0  0  0  0
   26.8417   63.2914   16.7455 H   0  0  0  0  0  0  0  0  0  0  0  0
   23.3104   64.6511   15.4722 C   0  0  0  0  0  0  0  0  0  0  0  0
   24.6128   64.1130   15.2810 O   0  0  0  0  0  0  0  0  0  0  0  0
 13 14  1  0
  1 14  1  0
  1  2  1  0
  2  3  1  0
  2  4  1  0
  4  5  1  0
  4  6  1  0
  6  7  1  0
  7  8  1  0
  7  1  1  0
  3  9  1  0
  5 10  1  0
  5 11  1  0
  8 12  1  0
M  END
> <minimizedAffinity>
-3.91741

> <CNNscore>
0.3155382574

> <CNNaffinity>
2.7607614994

> <CNN_VS>
0.8711258769

> <CNNaffinity_variance>
0.4735712707

$$$$



 14 14  0  0  0  0  0  0  0  0999 V2000
   27.3829   64.5965   14.4505 C   0  0  0  0  0  0  0  0  0  0  0  0
   27.9002   65.2977   13.1824 C   0  0  0  0  0  0  0  0  0  0  0  0
   26.8826   65.4594   12.1858 O   0  0  0  0  0  0  0  0  0  0  0  0
   28.9752   64.3007   12.7061 C   0  0  0  0  0  0  0  0  0  0  0  0
   29.3792   64.4700   11.3111 N   0  0  0  0  0  0  0  0  0  0  0  0
   28.3700   62.9098   12.9747 C   0  0  0  0  0  0  0  0  0  0  0  0
   27.2348   63.1416   13.9776 C   0  0  0  0  0  0  0  0  0  0  0  0
   25.9806   63.0023   13.2925 O   0  0  0  0  0  0  0  0  0  0  0  0
   26.5083   64.5929   11.9623 H   0  0  0  0  0  0  0  0  0  0  0  0
   28.5698   64.3389   10.7044 H   0  0  0  0  0  0  0  0  0  0  0  0
   30.0940   63.7807   11.0780 H   0  0  0  0  0  0  0  0  0  0  0  0
   25.9454   63.6281   12.5522 H   0  0  0  0  0  0  0  0  0  0  0  0
   26.0015   64.9366   16.3528 C   0  0  0  0  0  0  0  0  0  0  0  0
   26.1234   65.0592   14.9414 O   0  0  0  0  0  0  0  0  0  0  0  0
 13 14  1  0
  1 14  1  0
  1  2  1  0
  2  3  1  0
  2  4  1  0
  4  5  1  0
  4  6  1  0
  6  7  1  0
  7  8  1  0
  7  1  1  0
  3  9  1  0
  5 10  1  0
  5 11  1  0
  8 12  1  0
M  END
> <minimizedAffinity>
-3.77093

> <CNNscore>
0.3067649305

> <CNNaffinity>
2.6150815487

> <CNN_VS>
0.8022153378

> <CNNaffinity_variance>
0.8997990489

$$$$



 14 14  0  0  0  0  0  0  0  0999 V2000
   29.9490   66.4845   17.4697 C   0  0  0  0  0  0  0  0  0  0  0  0
   30.6694   65.7257   18.5978 C   0  0  0  0  0  0  0  0  0  0  0  0
   29.7608   65.1535   19.5474 O   0  0  0  0  0  0  0  0  0  0  0  0
   31.4906   66.8589   19.2443 C   0  0  0  0  0  0  0  0  0  0  0  0
   31.9781   66.5586   20.5897 N   0  0  0  0  0  0  0  0  0  0  0  0
   30.5581   68.0849   19.2206 C   0  0  0  0  0  0  0  0  0  0  0  0
   29.4735   67.7570   18.1887 C   0  0  0  0  0  0  0  0  0  0  0  0
   28.2507   67.4674   18.8834 O   0  0  0  0  0  0  0  0  0  0  0  0
   29.1979   65.8514   19.9174 H   0  0  0  0  0  0  0  0  0  0  0  0
   31.1854   66.3831   21.2073 H   0  0  0  0  0  0  0  0  0  0  0  0
   32.5144   67.3515   20.9419 H   0  0  0  0  0  0  0  0  0  0  0  0
   28.3964   66.7354   19.5030 H   0  0  0  0  0  0  0  0  0  0  0  0
   28.6446   66.1089   15.5203 C   0  0  0  0  0  0  0  0  0  0  0  0
   28.8197   65.8188   16.9014 O   0  0  0  0  0  0  0  0  0  0  0  0
 13 14  1  0
  1 14  1  0
  1  2  1  0
  2  3  1  0
  2  4  1  0
  4  5  1  0
  4  6  1  0
  6  7  1  0
  7  8  1  0
  7  1  1  0
  3  9  1  0
  5 10  1  0
  5 11  1  0
  8 12  1  0
M  END
> <minimizedAffinity>
-3.69647

> <CNNscore>
0.2812036574

> <CNNaffinity>
2.3825244904

> <CNN_VS>
0.6699746251

> <CNNaffinity_variance>
0.7997547984

$$$$



 14 14  0  0  0  0  0  0  0  0999 V2000
   28.5680   65.9842    9.3632 C   0  0  0  0  0  0  0  0  0  0  0  0
   29.5444   65.0682   10.1215 C   0  0  0  0  0  0  0  0  0  0  0  0
   29.5554   63.7287    9.6113 O   0  0  0  0  0  0  0  0  0  0  0  0
   28.9473   65.1049   11.5423 C   0  0  0  0  0  0  0  0  0  0  0  0
   29.4027   64.0244   12.4160 N   0  0  0  0  0  0  0  0  0  0  0  0
   27.4217   65.0812   11.3299 C   0  0  0  0  0  0  0  0  0  0  0  0
   27.2031   65.4914    9.8697 C   0  0  0  0  0  0  0  0  0  0  0  0
   26.8219   64.3290    9.1179 O   0  0  0  0  0  0  0  0  0  0  0  0
   28.6574   63.3632    9.6432 H   0  0  0  0  0  0  0  0  0  0  0  0
   29.1391   63.1260   12.0113 H   0  0  0  0  0  0  0  0  0  0  0  0
   28.9694   64.1240   13.3340 H   0  0  0  0  0  0  0  0  0  0  0  0
   27.5072   63.6481    9.2057 H   0  0  0  0  0  0  0  0  0  0  0  0
   29.6407   66.6571    7.3533 C   0  0  0  0  0  0  0  0  0  0  0  0
   28.6038   65.8796    7.9386 O   0  0  0  0  0  0  0  0  0  0  0  0
 13 14  1  0
  1 14  1  0
  1  2  1  0
  2  3  1  0
  2  4  1  0
  4  5  1  0
  4  6  1  0
  6  7  1  0
  7  8  1  0
  7  1  1  0
  3  9  1  0
  5 10  1  0
  5 11  1  0
  8 12  1  0
M  END
> <minimizedAffinity>
-4.98203

> <CNNscore>
0.2765466869

> <CNNaffinity>
2.8370435238

> <CNN_VS>
0.7845749855

> <CNNaffinity_variance>
1.3233615160

$$$$
