


 48 52  0  0  0  0  0  0  0  0999 V2000
   11.3773   23.1009    5.8124 N   0  0  0  0  0  0  0  0  0  0  0  0
   12.2029   24.3416    5.7460 C   0  0  0  0  0  0  0  0  0  0  0  0
   12.8255   24.5185    4.3293 C   0  0  0  0  0  0  0  0  0  0  0  0
   11.8100   24.4914    3.3131 O   0  0  0  0  0  0  0  0  0  0  0  0
   13.9261   23.4884    3.9694 C   0  0  0  0  0  0  0  0  0  0  0  0
   15.1330   23.8537    4.6466 O   0  0  0  0  0  0  0  0  0  0  0  0
   13.5387   22.0083    4.2437 C   0  0  0  0  0  0  0  0  0  0  0  0
   13.5797   21.7853    5.7468 N   0  0  0  0  0  0  0  0  0  0  0  0
   12.0504   21.7341    6.4665 S   0  0  0  0  0  0  0  0  0  0  0  0
   12.2009   21.9483    7.8850 O   0  0  0  0  0  0  0  0  0  0  0  0
   11.3729   20.5674    5.9529 O   0  0  0  0  0  0  0  0  0  0  0  0
   11.3916   23.6164    3.2973 H   0  0  0  0  0  0  0  0  0  0  0  0
   14.9906   23.8137    5.6053 H   0  0  0  0  0  0  0  0  0  0  0  0
    9.9717   23.0882    5.3743 C   0  0  0  0  0  0  0  0  0  0  0  0
    8.6217   26.4150    4.0441 C   0  0  0  0  0  0  0  0  0  0  0  0
    8.8086   26.2645    2.6662 C   0  0  0  0  0  0  0  0  0  0  0  0
    9.4070   25.1063    2.1689 C   0  0  0  0  0  0  0  0  0  0  0  0
    9.8004   24.0864    3.0386 C   0  0  0  0  0  0  0  0  0  0  0  0
    9.5854   24.1979    4.4194 C   0  0  0  0  0  0  0  0  0  0  0  0
    9.0083   25.3820    4.9105 C   0  0  0  0  0  0  0  0  0  0  0  0
    6.2192   28.5201    6.0766 C   0  0  0  0  0  0  0  0  0  0  0  0
    6.9636   27.4111    5.5373 N   0  0  0  0  0  0  0  0  0  0  0  0
    7.9836   27.6270    4.6334 C   0  0  0  0  0  0  0  0  0  0  0  0
    8.3505   28.7440    4.2854 O   0  0  0  0  0  0  0  0  0  0  0  0
    6.7431   26.4929    5.8155 H   0  0  0  0  0  0  0  0  0  0  0  0
   11.4363   25.5985    6.1984 C   0  0  0  0  0  0  0  0  0  0  0  0
   11.6291   25.8603    7.5949 O   0  0  0  0  0  0  0  0  0  0  0  0
   10.5901   26.3947    8.3071 C   0  0  0  0  0  0  0  0  0  0  0  0
    9.3723   25.7310    8.1345 C   0  0  0  0  0  0  0  0  0  0  0  0
    8.2198   26.1747    8.7857 C   0  0  0  0  0  0  0  0  0  0  0  0
    8.2787   27.2913    9.6157 C   0  0  0  0  0  0  0  0  0  0  0  0
    9.4893   27.9560    9.7961 C   0  0  0  0  0  0  0  0  0  0  0  0
   10.6442   27.5077    9.1474 C   0  0  0  0  0  0  0  0  0  0  0  0
   14.3284   21.0096    3.3737 C   0  0  0  0  0  0  0  0  0  0  0  0
   15.6058   20.7180    3.9305 O   0  0  0  0  0  0  0  0  0  0  0  0
   16.2570   19.6097    3.4651 C   0  0  0  0  0  0  0  0  0  0  0  0
   15.9283   18.8830    2.3209 C   0  0  0  0  0  0  0  0  0  0  0  0
   16.6674   17.7480    1.9763 C   0  0  0  0  0  0  0  0  0  0  0  0
   17.7368   17.3370    2.7709 C   0  0  0  0  0  0  0  0  0  0  0  0
   18.0720   18.0619    3.9108 C   0  0  0  0  0  0  0  0  0  0  0  0
   17.3328   19.1937    4.2558 C   0  0  0  0  0  0  0  0  0  0  0  0
   14.5493   20.8223    6.3360 C   0  0  0  0  0  0  0  0  0  0  0  0
   15.5829   21.4985    7.2137 C   0  0  0  0  0  0  0  0  0  0  0  0
   15.4267   22.8351    7.6068 C   0  0  0  0  0  0  0  0  0  0  0  0
   16.3661   23.4542    8.4338 C   0  0  0  0  0  0  0  0  0  0  0  0
   17.4821   22.7454    8.8738 C   0  0  0  0  0  0  0  0  0  0  0  0
   17.6564   21.4190    8.4880 C   0  0  0  0  0  0  0  0  0  0  0  0
   16.7126   20.7987    7.6648 C   0  0  0  0  0  0  0  0  0  0  0  0
 21 22  1  0
 22 23  1  0
 23 24  2  0
 23 15  1  0
 15 16  2  0
 16 17  1  0
 17 18  2  0
 18 19  1  0
 19 14  1  0
 14  1  1  0
  1  2  1  0
  2 26  1  0
 26 27  1  0
 27 28  1  0
 28 29  2  0
 29 30  1  0
 30 31  2  0
 31 32  1  0
 32 33  2  0
  2  3  1  0
  3  4  1  0
  3  5  1  0
  5  6  1  0
  5  7  1  0
  7 34  1  0
 34 35  1  0
 35 36  1  0
 36 37  2  0
 37 38  1  0
 38 39  2  0
 39 40  1  0
 40 41  2  0
  7  8  1  0
  8 42  1  0
 42 43  1  0
 43 44  2  0
 44 45  1  0
 45 46  2  0
 46 47  1  0
 47 48  2  0
  8  9  1  0
  9 10  2  0
  9 11  2  0
 19 20  2  0
 20 15  1  0
  9  1  1  0
 33 28  1  0
 41 36  1  0
 48 43  1  0
 22 25  1  0
  4 12  1  0
  6 13  1  0
M  END
> <minimizedAffinity>
-10.69447

> <CNNscore>
0.9284981489

> <CNNaffinity>
8.4070863724

> <CNN_VS>
7.8059639931

> <CNNaffinity_variance>
0.1359347701

$$$$



 48 52  0  0  0  0  0  0  0  0999 V2000
   14.0003   22.5168    6.4363 N   0  0  0  0  0  0  0  0  0  0  0  0
   14.2661   22.2920    4.9858 C   0  0  0  0  0  0  0  0  0  0  0  0
   14.4351   23.6470    4.2363 C   0  0  0  0  0  0  0  0  0  0  0  0
   15.4525   24.4532    4.8525 O   0  0  0  0  0  0  0  0  0  0  0  0
   13.1377   24.4849    4.1070 C   0  0  0  0  0  0  0  0  0  0  0  0
   12.3241   23.9117    3.0785 O   0  0  0  0  0  0  0  0  0  0  0  0
   12.3477   24.6595    5.4343 C   0  0  0  0  0  0  0  0  0  0  0  0
   11.6675   23.3374    5.7506 N   0  0  0  0  0  0  0  0  0  0  0  0
   12.4331   22.4567    6.9744 S   0  0  0  0  0  0  0  0  0  0  0  0
   11.9908   21.0858    6.9017 O   0  0  0  0  0  0  0  0  0  0  0  0
   12.3103   23.2198    8.1937 O   0  0  0  0  0  0  0  0  0  0  0  0
   15.1745   24.6944    5.7500 H   0  0  0  0  0  0  0  0  0  0  0  0
   12.0714   23.0099    3.3310 H   0  0  0  0  0  0  0  0  0  0  0  0
   15.0976   22.7214    7.3965 C   0  0  0  0  0  0  0  0  0  0  0  0
   16.4106   19.4873    8.9700 C   0  0  0  0  0  0  0  0  0  0  0  0
   15.6930   19.4457   10.1698 C   0  0  0  0  0  0  0  0  0  0  0  0
   14.8148   20.4817   10.4901 C   0  0  0  0  0  0  0  0  0  0  0  0
   14.6321   21.5494    9.6080 C   0  0  0  0  0  0  0  0  0  0  0  0
   15.3096   21.5912    8.3816 C   0  0  0  0  0  0  0  0  0  0  0  0
   16.2134   20.5564    8.0839 C   0  0  0  0  0  0  0  0  0  0  0  0
   18.1596   16.1294    8.9739 C   0  0  0  0  0  0  0  0  0  0  0  0
   17.2223   17.1957    9.2171 N   0  0  0  0  0  0  0  0  0  0  0  0
   17.3586   18.4076    8.5715 C   0  0  0  0  0  0  0  0  0  0  0  0
   18.2238   18.6302    7.7316 O   0  0  0  0  0  0  0  0  0  0  0  0
   16.4792   17.0589    9.8483 H   0  0  0  0  0  0  0  0  0  0  0  0
   15.4520   21.3427    4.7321 C   0  0  0  0  0  0  0  0  0  0  0  0
   15.0589   20.2026    3.9563 O   0  0  0  0  0  0  0  0  0  0  0  0
   16.0277   19.3264    3.5490 C   0  0  0  0  0  0  0  0  0  0  0  0
   17.0368   19.1055    4.4905 C   0  0  0  0  0  0  0  0  0  0  0  0
   18.1016   18.2481    4.2068 C   0  0  0  0  0  0  0  0  0  0  0  0
   18.1643   17.6052    2.9732 C   0  0  0  0  0  0  0  0  0  0  0  0
   17.1606   17.8170    2.0310 C   0  0  0  0  0  0  0  0  0  0  0  0
   16.0920   18.6719    2.3180 C   0  0  0  0  0  0  0  0  0  0  0  0
   11.4548   25.9166    5.4408 C   0  0  0  0  0  0  0  0  0  0  0  0
   10.2385   25.6979    6.1477 O   0  0  0  0  0  0  0  0  0  0  0  0
    9.9412   26.5565    7.1692 C   0  0  0  0  0  0  0  0  0  0  0  0
    8.9678   27.5552    7.1467 C   0  0  0  0  0  0  0  0  0  0  0  0
    8.7887   28.3830    8.2583 C   0  0  0  0  0  0  0  0  0  0  0  0
    9.5783   28.2149    9.3951 C   0  0  0  0  0  0  0  0  0  0  0  0
   10.5475   27.2164    9.4243 C   0  0  0  0  0  0  0  0  0  0  0  0
   10.7276   26.3914    8.3137 C   0  0  0  0  0  0  0  0  0  0  0  0
   10.1825   23.2488    5.7910 C   0  0  0  0  0  0  0  0  0  0  0  0
    9.5628   23.2061    4.4089 C   0  0  0  0  0  0  0  0  0  0  0  0
    9.9506   22.2320    3.4782 C   0  0  0  0  0  0  0  0  0  0  0  0
    9.3655   22.1765    2.2117 C   0  0  0  0  0  0  0  0  0  0  0  0
    8.3872   23.1022    1.8545 C   0  0  0  0  0  0  0  0  0  0  0  0
    7.9944   24.0804    2.7641 C   0  0  0  0  0  0  0  0  0  0  0  0
    8.5767   24.1315    4.0335 C   0  0  0  0  0  0  0  0  0  0  0  0
 21 22  1  0
 22 23  1  0
 23 24  2  0
 23 15  1  0
 15 16  2  0
 16 17  1  0
 17 18  2  0
 18 19  1  0
 19 14  1  0
 14  1  1  0
  1  2  1  0
  2 26  1  0
 26 27  1  0
 27 28  1  0
 28 29  2  0
 29 30  1  0
 30 31  2  0
 31 32  1  0
 32 33  2  0
  2  3  1  0
  3  4  1  0
  3  5  1  0
  5  6  1  0
  5  7  1  0
  7 34  1  0
 34 35  1  0
 35 36  1  0
 36 37  2  0
 37 38  1  0
 38 39  2  0
 39 40  1  0
 40 41  2  0
  7  8  1  0
  8 42  1  0
 42 43  1  0
 43 44  2  0
 44 45  1  0
 45 46  2  0
 46 47  1  0
 47 48  2  0
  8  9  1  0
  9 10  2  0
  9 11  2  0
 19 20  2  0
 20 15  1  0
  9  1  1  0
 33 28  1  0
 41 36  1  0
 48 43  1  0
 22 25  1  0
  4 12  1  0
  6 13  1  0
M  END
> <minimizedAffinity>
-10.31755

> <CNNscore>
0.9188233614

> <CNNaffinity>
8.8137941360

> <CNN_VS>
8.0983200073

> <CNNaffinity_variance>
0.0585831441

$$$$



 48 52  0  0  0  0  0  0  0  0999 V2000
   12.1690   23.2160    6.2122 N   0  0  0  0  0  0  0  0  0  0  0  0
   12.5412   24.3719    5.3459 C   0  0  0  0  0  0  0  0  0  0  0  0
   13.2616   23.8869    4.0529 C   0  0  0  0  0  0  0  0  0  0  0  0
   12.4633   22.9210    3.3497 O   0  0  0  0  0  0  0  0  0  0  0  0
   14.6786   23.3010    4.2788 C   0  0  0  0  0  0  0  0  0  0  0  0
   15.5915   24.3823    4.4926 O   0  0  0  0  0  0  0  0  0  0  0  0
   14.7654   22.2426    5.4138 C   0  0  0  0  0  0  0  0  0  0  0  0
   14.6681   22.9737    6.7430 N   0  0  0  0  0  0  0  0  0  0  0  0
   13.1564   22.8295    7.4870 S   0  0  0  0  0  0  0  0  0  0  0  0
   13.0293   23.8694    8.4784 O   0  0  0  0  0  0  0  0  0  0  0  0
   12.9788   21.4392    7.8326 O   0  0  0  0  0  0  0  0  0  0  0  0
   12.3626   22.1257    3.8959 H   0  0  0  0  0  0  0  0  0  0  0  0
   15.3384   24.8654    5.2948 H   0  0  0  0  0  0  0  0  0  0  0  0
   10.9212   22.4645    5.9975 C   0  0  0  0  0  0  0  0  0  0  0  0
    8.6887   24.2496    3.4502 C   0  0  0  0  0  0  0  0  0  0  0  0
    8.7741   23.3908    2.3496 C   0  0  0  0  0  0  0  0  0  0  0  0
    9.5839   22.2564    2.4150 C   0  0  0  0  0  0  0  0  0  0  0  0
   10.2925   21.9620    3.5823 C   0  0  0  0  0  0  0  0  0  0  0  0
   10.1896   22.7863    4.7115 C   0  0  0  0  0  0  0  0  0  0  0  0
    9.3937   23.9416    4.6230 C   0  0  0  0  0  0  0  0  0  0  0  0
    7.7389   27.9031    3.1602 C   0  0  0  0  0  0  0  0  0  0  0  0
    8.4564   26.6559    3.0938 N   0  0  0  0  0  0  0  0  0  0  0  0
    7.8364   25.4731    3.4412 C   0  0  0  0  0  0  0  0  0  0  0  0
    6.6554   25.4003    3.7628 O   0  0  0  0  0  0  0  0  0  0  0  0
    9.3955   26.6472    2.7985 H   0  0  0  0  0  0  0  0  0  0  0  0
   11.3488   25.2936    5.0287 C   0  0  0  0  0  0  0  0  0  0  0  0
   11.1727   26.2956    6.0392 O   0  0  0  0  0  0  0  0  0  0  0  0
   10.0743   26.2159    6.8512 C   0  0  0  0  0  0  0  0  0  0  0  0
    9.0457   27.1011    6.5167 C   0  0  0  0  0  0  0  0  0  0  0  0
    7.8696   27.1443    7.2679 C   0  0  0  0  0  0  0  0  0  0  0  0
    7.7157   26.2998    8.3643 C   0  0  0  0  0  0  0  0  0  0  0  0
    8.7345   25.4120    8.7019 C   0  0  0  0  0  0  0  0  0  0  0  0
    9.9100   25.3659    7.9458 C   0  0  0  0  0  0  0  0  0  0  0  0
   15.9526   21.2736    5.2418 C   0  0  0  0  0  0  0  0  0  0  0  0
   15.5168   19.9481    4.9588 O   0  0  0  0  0  0  0  0  0  0  0  0
   16.3499   19.1563    4.2186 C   0  0  0  0  0  0  0  0  0  0  0  0
   17.5302   18.5619    4.6646 C   0  0  0  0  0  0  0  0  0  0  0  0
   18.3026   17.7954    3.7876 C   0  0  0  0  0  0  0  0  0  0  0  0
   17.8981   17.6185    2.4651 C   0  0  0  0  0  0  0  0  0  0  0  0
   16.7183   18.2053    2.0167 C   0  0  0  0  0  0  0  0  0  0  0  0
   15.9486   18.9722    2.8918 C   0  0  0  0  0  0  0  0  0  0  0  0
   15.8087   22.9477    7.6986 C   0  0  0  0  0  0  0  0  0  0  0  0
   15.8919   21.6476    8.4724 C   0  0  0  0  0  0  0  0  0  0  0  0
   16.8243   20.6615    8.1206 C   0  0  0  0  0  0  0  0  0  0  0  0
   16.9184   19.4719    8.8455 C   0  0  0  0  0  0  0  0  0  0  0  0
   16.0733   19.2479    9.9304 C   0  0  0  0  0  0  0  0  0  0  0  0
   15.1371   20.2136   10.2900 C   0  0  0  0  0  0  0  0  0  0  0  0
   15.0476   21.4064    9.5672 C   0  0  0  0  0  0  0  0  0  0  0  0
 21 22  1  0
 22 23  1  0
 23 24  2  0
 23 15  1  0
 15 16  2  0
 16 17  1  0
 17 18  2  0
 18 19  1  0
 19 14  1  0
 14  1  1  0
  1  2  1  0
  2 26  1  0
 26 27  1  0
 27 28  1  0
 28 29  2  0
 29 30  1  0
 30 31  2  0
 31 32  1  0
 32 33  2  0
  2  3  1  0
  3  4  1  0
  3  5  1  0
  5  6  1  0
  5  7  1  0
  7 34  1  0
 34 35  1  0
 35 36  1  0
 36 37  2  0
 37 38  1  0
 38 39  2  0
 39 40  1  0
 40 41  2  0
  7  8  1  0
  8 42  1  0
 42 43  1  0
 43 44  2  0
 44 45  1  0
 45 46  2  0
 46 47  1  0
 47 48  2  0
  8  9  1  0
  9 10  2  0
  9 11  2  0
 19 20  2  0
 20 15  1  0
  9  1  1  0
 33 28  1  0
 41 36  1  0
 48 43  1  0
 22 25  1  0
  4 12  1  0
  6 13  1  0
M  END
> <minimizedAffinity>
-10.18306

> <CNNscore>
0.8566563129

> <CNNaffinity>
8.4690809250

> <CNN_VS>
7.2550916672

> <CNNaffinity_variance>
0.0992475376

$$$$



 48 52  0  0  0  0  0  0  0  0999 V2000
   13.0478   21.6331    5.0330 N   0  0  0  0  0  0  0  0  0  0  0  0
   13.6599   22.4776    3.9665 C   0  0  0  0  0  0  0  0  0  0  0  0
   14.4270   23.6835    4.5856 C   0  0  0  0  0  0  0  0  0  0  0  0
   15.3993   23.2378    5.5452 O   0  0  0  0  0  0  0  0  0  0  0  0
   13.5256   24.7588    5.2439 C   0  0  0  0  0  0  0  0  0  0  0  0
   12.9291   25.5498    4.2109 O   0  0  0  0  0  0  0  0  0  0  0  0
   12.4592   24.1946    6.2239 C   0  0  0  0  0  0  0  0  0  0  0  0
   11.3662   23.5371    5.3971 N   0  0  0  0  0  0  0  0  0  0  0  0
   11.4433   21.8479    5.3920 S   0  0  0  0  0  0  0  0  0  0  0  0
   10.6693   21.3542    4.2794 O   0  0  0  0  0  0  0  0  0  0  0  0
   11.1852   21.4021    6.7406 O   0  0  0  0  0  0  0  0  0  0  0  0
   14.9466   22.8163    6.2924 H   0  0  0  0  0  0  0  0  0  0  0  0
   12.3648   24.9871    3.6579 H   0  0  0  0  0  0  0  0  0  0  0  0
   13.8171   20.5799    5.7162 C   0  0  0  0  0  0  0  0  0  0  0  0
   16.1320   20.6939    8.7638 C   0  0  0  0  0  0  0  0  0  0  0  0
   15.5054   21.6599    9.5579 C   0  0  0  0  0  0  0  0  0  0  0  0
   14.3582   22.3037    9.0929 C   0  0  0  0  0  0  0  0  0  0  0  0
   13.8194   21.9725    7.8474 C   0  0  0  0  0  0  0  0  0  0  0  0
   14.4069   20.9783    7.0526 C   0  0  0  0  0  0  0  0  0  0  0  0
   15.5789   20.3580    7.5195 C   0  0  0  0  0  0  0  0  0  0  0  0
   18.3521   17.8274    9.8539 C   0  0  0  0  0  0  0  0  0  0  0  0
   17.2543   18.5982    9.3293 N   0  0  0  0  0  0  0  0  0  0  0  0
   17.3565   19.9691    9.2093 C   0  0  0  0  0  0  0  0  0  0  0  0
   18.3763   20.5949    9.4776 O   0  0  0  0  0  0  0  0  0  0  0  0
   16.4252   18.1439    9.0545 H   0  0  0  0  0  0  0  0  0  0  0  0
   14.5425   21.6722    2.9947 C   0  0  0  0  0  0  0  0  0  0  0  0
   14.4899   20.2669    3.2750 O   0  0  0  0  0  0  0  0  0  0  0  0
   15.6455   19.5402    3.1813 C   0  0  0  0  0  0  0  0  0  0  0  0
   15.7812   18.8263    1.9874 C   0  0  0  0  0  0  0  0  0  0  0  0
   16.9023   18.0261    1.7585 C   0  0  0  0  0  0  0  0  0  0  0  0
   17.8976   17.9335    2.7279 C   0  0  0  0  0  0  0  0  0  0  0  0
   17.7717   18.6449    3.9188 C   0  0  0  0  0  0  0  0  0  0  0  0
   16.6509   19.4500    4.1449 C   0  0  0  0  0  0  0  0  0  0  0  0
   12.0054   25.2261    7.2765 C   0  0  0  0  0  0  0  0  0  0  0  0
   10.7648   24.8626    7.8728 O   0  0  0  0  0  0  0  0  0  0  0  0
   10.0067   25.8658    8.4095 C   0  0  0  0  0  0  0  0  0  0  0  0
   10.4857   26.9775    9.1023 C   0  0  0  0  0  0  0  0  0  0  0  0
    9.5911   27.9161    9.6236 C   0  0  0  0  0  0  0  0  0  0  0  0
    8.2175   27.7489    9.4531 C   0  0  0  0  0  0  0  0  0  0  0  0
    7.7348   26.6438    8.7580 C   0  0  0  0  0  0  0  0  0  0  0  0
    8.6279   25.7059    8.2395 C   0  0  0  0  0  0  0  0  0  0  0  0
    9.9774   24.0711    5.4293 C   0  0  0  0  0  0  0  0  0  0  0  0
    9.5779   24.7365    4.1280 C   0  0  0  0  0  0  0  0  0  0  0  0
    8.4923   25.6222    4.0785 C   0  0  0  0  0  0  0  0  0  0  0  0
    8.1356   26.2540    2.8855 C   0  0  0  0  0  0  0  0  0  0  0  0
    8.8567   26.0017    1.7203 C   0  0  0  0  0  0  0  0  0  0  0  0
    9.9339   25.1200    1.7498 C   0  0  0  0  0  0  0  0  0  0  0  0
   10.2936   24.4926    2.9456 C   0  0  0  0  0  0  0  0  0  0  0  0
 21 22  1  0
 22 23  1  0
 23 24  2  0
 23 15  1  0
 15 16  2  0
 16 17  1  0
 17 18  2  0
 18 19  1  0
 19 14  1  0
 14  1  1  0
  1  2  1  0
  2 26  1  0
 26 27  1  0
 27 28  1  0
 28 29  2  0
 29 30  1  0
 30 31  2  0
 31 32  1  0
 32 33  2  0
  2  3  1  0
  3  4  1  0
  3  5  1  0
  5  6  1  0
  5  7  1  0
  7 34  1  0
 34 35  1  0
 35 36  1  0
 36 37  2  0
 37 38  1  0
 38 39  2  0
 39 40  1  0
 40 41  2  0
  7  8  1  0
  8 42  1  0
 42 43  1  0
 43 44  2  0
 44 45  1  0
 45 46  2  0
 46 47  1  0
 47 48  2  0
  8  9  1  0
  9 10  2  0
  9 11  2  0
 19 20  2  0
 20 15  1  0
  9  1  1  0
 33 28  1  0
 41 36  1  0
 48 43  1  0
 22 25  1  0
  4 12  1  0
  6 13  1  0
M  END
> <minimizedAffinity>
-10.51812

> <CNNscore>
0.8150671124

> <CNNaffinity>
8.1683683395

> <CNN_VS>
6.6577682495

> <CNNaffinity_variance>
0.3726015389

$$$$



 48 52  0  0  0  0  0  0  0  0999 V2000
   10.5012   23.7497    4.4867 N   0  0  0  0  0  0  0  0  0  0  0  0
   11.1483   24.8488    5.2603 C   0  0  0  0  0  0  0  0  0  0  0  0
   12.3973   25.3961    4.5075 C   0  0  0  0  0  0  0  0  0  0  0  0
   12.0564   25.8043    3.1726 O   0  0  0  0  0  0  0  0  0  0  0  0
   13.5985   24.4188    4.4444 C   0  0  0  0  0  0  0  0  0  0  0  0
   14.2525   24.4157    5.7175 O   0  0  0  0  0  0  0  0  0  0  0  0
   13.2358   22.9801    3.9811 C   0  0  0  0  0  0  0  0  0  0  0  0
   12.5122   22.2891    5.1255 N   0  0  0  0  0  0  0  0  0  0  0  0
   10.8395   22.1808    4.9030 S   0  0  0  0  0  0  0  0  0  0  0  0
   10.2207   21.9164    6.1788 O   0  0  0  0  0  0  0  0  0  0  0  0
   10.6123   21.3189    3.7673 O   0  0  0  0  0  0  0  0  0  0  0  0
   11.7722   25.0310    2.6607 H   0  0  0  0  0  0  0  0  0  0  0  0
   13.6396   24.0898    6.3950 H   0  0  0  0  0  0  0  0  0  0  0  0
    9.5281   24.0310    3.4181 C   0  0  0  0  0  0  0  0  0  0  0  0
    6.5317   26.1352    4.5376 C   0  0  0  0  0  0  0  0  0  0  0  0
    6.9030   27.4104    4.0991 C   0  0  0  0  0  0  0  0  0  0  0  0
    8.1381   27.5990    3.4779 C   0  0  0  0  0  0  0  0  0  0  0  0
    8.9964   26.5163    3.2716 C   0  0  0  0  0  0  0  0  0  0  0  0
    8.6274   25.2226    3.6656 C   0  0  0  0  0  0  0  0  0  0  0  0
    7.3933   25.0508    4.3166 C   0  0  0  0  0  0  0  0  0  0  0  0
    3.3103   24.3625    5.4400 C   0  0  0  0  0  0  0  0  0  0  0  0
    4.6232   24.6599    4.9275 N   0  0  0  0  0  0  0  0  0  0  0  0
    5.2234   25.8715    5.2026 C   0  0  0  0  0  0  0  0  0  0  0  0
    4.7203   26.7240    5.9261 O   0  0  0  0  0  0  0  0  0  0  0  0
    5.0955   23.9941    4.3772 H   0  0  0  0  0  0  0  0  0  0  0  0
   10.1678   25.9737    5.6413 C   0  0  0  0  0  0  0  0  0  0  0  0
    9.9877   26.0585    7.0613 O   0  0  0  0  0  0  0  0  0  0  0  0
    9.1401   27.0126    7.5547 C   0  0  0  0  0  0  0  0  0  0  0  0
    8.9137   26.9253    8.9311 C   0  0  0  0  0  0  0  0  0  0  0  0
    8.0567   27.8226    9.5712 C   0  0  0  0  0  0  0  0  0  0  0  0
    7.4168   28.8159    8.8344 C   0  0  0  0  0  0  0  0  0  0  0  0
    7.6402   28.9121    7.4629 C   0  0  0  0  0  0  0  0  0  0  0  0
    8.5026   28.0161    6.8236 C   0  0  0  0  0  0  0  0  0  0  0  0
   14.4324   22.2283    3.3639 C   0  0  0  0  0  0  0  0  0  0  0  0
   14.1158   20.8687    3.0846 O   0  0  0  0  0  0  0  0  0  0  0  0
   15.1582   19.9941    2.9527 C   0  0  0  0  0  0  0  0  0  0  0  0
   16.0553   19.6269    3.9556 C   0  0  0  0  0  0  0  0  0  0  0  0
   17.0963   18.7386    3.6725 C   0  0  0  0  0  0  0  0  0  0  0  0
   17.2433   18.2132    2.3894 C   0  0  0  0  0  0  0  0  0  0  0  0
   16.3476   18.5725    1.3865 C   0  0  0  0  0  0  0  0  0  0  0  0
   15.3096   19.4610    1.6688 C   0  0  0  0  0  0  0  0  0  0  0  0
   13.1073   21.0886    5.7732 C   0  0  0  0  0  0  0  0  0  0  0  0
   14.0562   21.4436    6.8998 C   0  0  0  0  0  0  0  0  0  0  0  0
   13.5680   21.8957    8.1338 C   0  0  0  0  0  0  0  0  0  0  0  0
   14.4389   22.2024    9.1812 C   0  0  0  0  0  0  0  0  0  0  0  0
   15.8147   22.0686    9.0058 C   0  0  0  0  0  0  0  0  0  0  0  0
   16.3174   21.6270    7.7848 C   0  0  0  0  0  0  0  0  0  0  0  0
   15.4445   21.3149    6.7390 C   0  0  0  0  0  0  0  0  0  0  0  0
 21 22  1  0
 22 23  1  0
 23 24  2  0
 23 15  1  0
 15 16  2  0
 16 17  1  0
 17 18  2  0
 18 19  1  0
 19 14  1  0
 14  1  1  0
  1  2  1  0
  2 26  1  0
 26 27  1  0
 27 28  1  0
 28 29  2  0
 29 30  1  0
 30 31  2  0
 31 32  1  0
 32 33  2  0
  2  3  1  0
  3  4  1  0
  3  5  1  0
  5  6  1  0
  5  7  1  0
  7 34  1  0
 34 35  1  0
 35 36  1  0
 36 37  2  0
 37 38  1  0
 38 39  2  0
 39 40  1  0
 40 41  2  0
  7  8  1  0
  8 42  1  0
 42 43  1  0
 43 44  2  0
 44 45  1  0
 45 46  2  0
 46 47  1  0
 47 48  2  0
  8  9  1  0
  9 10  2  0
  9 11  2  0
 19 20  2  0
 20 15  1  0
  9  1  1  0
 33 28  1  0
 41 36  1  0
 48 43  1  0
 22 25  1  0
  4 12  1  0
  6 13  1  0
M  END
> <minimizedAffinity>
-8.83544

> <CNNscore>
0.7720339298

> <CNNaffinity>
8.5176000595

> <CNN_VS>
6.5758762360

> <CNNaffinity_variance>
0.0131379189

$$$$



 48 52  0  0  0  0  0  0  0  0999 V2000
   13.5682   22.3789    6.3545 N   0  0  0  0  0  0  0  0  0  0  0  0
   13.4101   21.6448    5.0655 C   0  0  0  0  0  0  0  0  0  0  0  0
   13.6116   22.6022    3.8535 C   0  0  0  0  0  0  0  0  0  0  0  0
   14.8760   23.2797    3.9367 O   0  0  0  0  0  0  0  0  0  0  0  0
   12.4886   23.6529    3.6611 C   0  0  0  0  0  0  0  0  0  0  0  0
   11.3522   23.0059    3.0793 O   0  0  0  0  0  0  0  0  0  0  0  0
   12.1080   24.4335    4.9502 C   0  0  0  0  0  0  0  0  0  0  0  0
   11.3148   23.4967    5.8467 N   0  0  0  0  0  0  0  0  0  0  0  0
   12.2055   22.8891    7.1493 S   0  0  0  0  0  0  0  0  0  0  0  0
   11.5303   21.7239    7.6661 O   0  0  0  0  0  0  0  0  0  0  0  0
   12.5329   24.0056    8.0038 O   0  0  0  0  0  0  0  0  0  0  0  0
   14.8835   23.8557    4.7172 H   0  0  0  0  0  0  0  0  0  0  0  0
   11.0216   22.3255    3.6864 H   0  0  0  0  0  0  0  0  0  0  0  0
   14.8935   22.5960    6.9582 C   0  0  0  0  0  0  0  0  0  0  0  0
   16.5714   19.9376    9.1440 C   0  0  0  0  0  0  0  0  0  0  0  0
   15.8061   20.0093   10.3126 C   0  0  0  0  0  0  0  0  0  0  0  0
   14.7740   20.9430   10.4107 C   0  0  0  0  0  0  0  0  0  0  0  0
   14.4866   21.7919    9.3392 C   0  0  0  0  0  0  0  0  0  0  0  0
   15.2135   21.7096    8.1434 C   0  0  0  0  0  0  0  0  0  0  0  0
   16.2696   20.7849    8.0678 C   0  0  0  0  0  0  0  0  0  0  0  0
   18.4965   16.9526    7.8335 C   0  0  0  0  0  0  0  0  0  0  0  0
   17.5245   18.0032    7.9947 N   0  0  0  0  0  0  0  0  0  0  0  0
   17.6828   18.9574    8.9789 C   0  0  0  0  0  0  0  0  0  0  0  0
   18.6591   19.0067    9.7190 O   0  0  0  0  0  0  0  0  0  0  0  0
   16.7419   18.0408    7.3987 H   0  0  0  0  0  0  0  0  0  0  0  0
   14.3095   20.3983    4.9695 C   0  0  0  0  0  0  0  0  0  0  0  0
   15.0763   20.3927    3.7579 O   0  0  0  0  0  0  0  0  0  0  0  0
   16.0551   19.4480    3.6108 C   0  0  0  0  0  0  0  0  0  0  0  0
   16.0488   18.8005    2.3722 C   0  0  0  0  0  0  0  0  0  0  0  0
   16.9796   17.8001    2.0856 C   0  0  0  0  0  0  0  0  0  0  0  0
   17.9253   17.4385    3.0417 C   0  0  0  0  0  0  0  0  0  0  0  0
   17.9408   18.0817    4.2771 C   0  0  0  0  0  0  0  0  0  0  0  0
   17.0113   19.0871    4.5612 C   0  0  0  0  0  0  0  0  0  0  0  0
   11.4767   25.8091    4.6549 C   0  0  0  0  0  0  0  0  0  0  0  0
   10.0653   25.7943    4.8411 O   0  0  0  0  0  0  0  0  0  0  0  0
    9.2839   26.0571    3.7506 C   0  0  0  0  0  0  0  0  0  0  0  0
    9.4703   25.5507    2.4644 C   0  0  0  0  0  0  0  0  0  0  0  0
    8.6065   25.9268    1.4322 C   0  0  0  0  0  0  0  0  0  0  0  0
    7.5541   26.8068    1.6812 C   0  0  0  0  0  0  0  0  0  0  0  0
    7.3608   27.3108    2.9641 C   0  0  0  0  0  0  0  0  0  0  0  0
    8.2245   26.9368    3.9939 C   0  0  0  0  0  0  0  0  0  0  0  0
    9.8975   23.8017    6.1832 C   0  0  0  0  0  0  0  0  0  0  0  0
    9.7662   24.6985    7.3974 C   0  0  0  0  0  0  0  0  0  0  0  0
   10.5572   25.8485    7.5293 C   0  0  0  0  0  0  0  0  0  0  0  0
   10.4228   26.6887    8.6362 C   0  0  0  0  0  0  0  0  0  0  0  0
    9.4983   26.3853    9.6337 C   0  0  0  0  0  0  0  0  0  0  0  0
    8.7089   25.2438    9.5222 C   0  0  0  0  0  0  0  0  0  0  0  0
    8.8404   24.4065    8.4110 C   0  0  0  0  0  0  0  0  0  0  0  0
 21 22  1  0
 22 23  1  0
 23 24  2  0
 23 15  1  0
 15 16  2  0
 16 17  1  0
 17 18  2  0
 18 19  1  0
 19 14  1  0
 14  1  1  0
  1  2  1  0
  2 26  1  0
 26 27  1  0
 27 28  1  0
 28 29  2  0
 29 30  1  0
 30 31  2  0
 31 32  1  0
 32 33  2  0
  2  3  1  0
  3  4  1  0
  3  5  1  0
  5  6  1  0
  5  7  1  0
  7 34  1  0
 34 35  1  0
 35 36  1  0
 36 37  2  0
 37 38  1  0
 38 39  2  0
 39 40  1  0
 40 41  2  0
  7  8  1  0
  8 42  1  0
 42 43  1  0
 43 44  2  0
 44 45  1  0
 45 46  2  0
 46 47  1  0
 47 48  2  0
  8  9  1  0
  9 10  2  0
  9 11  2  0
 19 20  2  0
 20 15  1  0
  9  1  1  0
 33 28  1  0
 41 36  1  0
 48 43  1  0
 22 25  1  0
  4 12  1  0
  6 13  1  0
M  END
> <minimizedAffinity>
-10.72496

> <CNNscore>
0.7599779367

> <CNNaffinity>
8.0188255310

> <CNN_VS>
6.0941305161

> <CNNaffinity_variance>
0.1724241227

$$$$



 48 52  0  0  0  0  0  0  0  0999 V2000
   14.4558   22.7980    6.7259 N   0  0  0  0  0  0  0  0  0  0  0  0
   14.6952   22.2633    5.3540 C   0  0  0  0  0  0  0  0  0  0  0  0
   14.7538   23.4184    4.3108 C   0  0  0  0  0  0  0  0  0  0  0  0
   15.7327   24.4015    4.6850 O   0  0  0  0  0  0  0  0  0  0  0  0
   13.4010   24.1283    4.0499 C   0  0  0  0  0  0  0  0  0  0  0  0
   12.5984   23.2891    3.2131 O   0  0  0  0  0  0  0  0  0  0  0  0
   12.6385   24.5558    5.3353 C   0  0  0  0  0  0  0  0  0  0  0  0
   12.0558   23.3041    5.9711 N   0  0  0  0  0  0  0  0  0  0  0  0
   12.9115   22.7722    7.3291 S   0  0  0  0  0  0  0  0  0  0  0  0
   12.5585   21.3978    7.5875 O   0  0  0  0  0  0  0  0  0  0  0  0
   12.7729   23.7855    8.3480 O   0  0  0  0  0  0  0  0  0  0  0  0
   15.4646   24.8250    5.5155 H   0  0  0  0  0  0  0  0  0  0  0  0
   12.4128   22.4559    3.6737 H   0  0  0  0  0  0  0  0  0  0  0  0
   15.5635   23.2797    7.5677 C   0  0  0  0  0  0  0  0  0  0  0  0
   16.4103   20.1435    9.5943 C   0  0  0  0  0  0  0  0  0  0  0  0
   17.8080   20.1906    9.6160 C   0  0  0  0  0  0  0  0  0  0  0  0
   18.4791   21.2120    8.9428 C   0  0  0  0  0  0  0  0  0  0  0  0
   17.7613   22.2008    8.2656 C   0  0  0  0  0  0  0  0  0  0  0  0
   16.3594   22.1968    8.2652 C   0  0  0  0  0  0  0  0  0  0  0  0
   15.6958   21.1461    8.9224 C   0  0  0  0  0  0  0  0  0  0  0  0
   15.4965   16.7150   10.9150 C   0  0  0  0  0  0  0  0  0  0  0  0
   16.2150   17.8275   10.3486 N   0  0  0  0  0  0  0  0  0  0  0  0
   15.6384   19.0801   10.2991 C   0  0  0  0  0  0  0  0  0  0  0  0
   14.5356   19.3336   10.7713 O   0  0  0  0  0  0  0  0  0  0  0  0
   17.1237   17.6932    9.9944 H   0  0  0  0  0  0  0  0  0  0  0  0
   15.9334   21.3511    5.2722 C   0  0  0  0  0  0  0  0  0  0  0  0
   15.5664   19.9801    5.0677 O   0  0  0  0  0  0  0  0  0  0  0  0
   16.3284   19.2209    4.2219 C   0  0  0  0  0  0  0  0  0  0  0  0
   15.8038   19.0928    2.9329 C   0  0  0  0  0  0  0  0  0  0  0  0
   16.4646   18.3323    1.9662 C   0  0  0  0  0  0  0  0  0  0  0  0
   17.6587   17.6910    2.2857 C   0  0  0  0  0  0  0  0  0  0  0  0
   18.1902   17.8170    3.5670 C   0  0  0  0  0  0  0  0  0  0  0  0
   17.5302   18.5830    4.5328 C   0  0  0  0  0  0  0  0  0  0  0  0
   11.6654   25.7275    5.0945 C   0  0  0  0  0  0  0  0  0  0  0  0
   11.2245   25.7796    3.7418 O   0  0  0  0  0  0  0  0  0  0  0  0
    9.9598   26.2438    3.5095 C   0  0  0  0  0  0  0  0  0  0  0  0
    9.1003   26.7978    4.4581 C   0  0  0  0  0  0  0  0  0  0  0  0
    7.8174   27.2080    4.0851 C   0  0  0  0  0  0  0  0  0  0  0  0
    7.3902   27.0685    2.7653 C   0  0  0  0  0  0  0  0  0  0  0  0
    8.2461   26.5210    1.8140 C   0  0  0  0  0  0  0  0  0  0  0  0
    9.5260   26.1096    2.1869 C   0  0  0  0  0  0  0  0  0  0  0  0
   10.5815   23.1415    6.0930 C   0  0  0  0  0  0  0  0  0  0  0  0
    9.9086   22.9011    4.7569 C   0  0  0  0  0  0  0  0  0  0  0  0
   10.4815   22.0413    3.8092 C   0  0  0  0  0  0  0  0  0  0  0  0
    9.8526   21.8005    2.5861 C   0  0  0  0  0  0  0  0  0  0  0  0
    8.6425   22.4244    2.2896 C   0  0  0  0  0  0  0  0  0  0  0  0
    8.0624   23.2864    3.2165 C   0  0  0  0  0  0  0  0  0  0  0  0
    8.6900   23.5222    4.4427 C   0  0  0  0  0  0  0  0  0  0  0  0
 21 22  1  0
 22 23  1  0
 23 24  2  0
 23 15  1  0
 15 16  2  0
 16 17  1  0
 17 18  2  0
 18 19  1  0
 19 14  1  0
 14  1  1  0
  1  2  1  0
  2 26  1  0
 26 27  1  0
 27 28  1  0
 28 29  2  0
 29 30  1  0
 30 31  2  0
 31 32  1  0
 32 33  2  0
  2  3  1  0
  3  4  1  0
  3  5  1  0
  5  6  1  0
  5  7  1  0
  7 34  1  0
 34 35  1  0
 35 36  1  0
 36 37  2  0
 37 38  1  0
 38 39  2  0
 39 40  1  0
 40 41  2  0
  7  8  1  0
  8 42  1  0
 42 43  1  0
 43 44  2  0
 44 45  1  0
 45 46  2  0
 46 47  1  0
 47 48  2  0
  8  9  1  0
  9 10  2  0
  9 11  2  0
 19 20  2  0
 20 15  1  0
  9  1  1  0
 33 28  1  0
 41 36  1  0
 48 43  1  0
 22 25  1  0
  4 12  1  0
  6 13  1  0
M  END
> <minimizedAffinity>
-7.53899

> <CNNscore>
0.7399193048

> <CNNaffinity>
8.0184183121

> <CNN_VS>
5.9329824448

> <CNNaffinity_variance>
0.0897831917

$$$$



 48 52  0  0  0  0  0  0  0  0999 V2000
   11.7946   22.7431    5.0705 N   0  0  0  0  0  0  0  0  0  0  0  0
   12.6849   23.9290    4.9092 C   0  0  0  0  0  0  0  0  0  0  0  0
   14.0066   23.5360    4.1847 C   0  0  0  0  0  0  0  0  0  0  0  0
   13.7341   22.8914    2.9296 O   0  0  0  0  0  0  0  0  0  0  0  0
   14.9615   22.6405    5.0142 C   0  0  0  0  0  0  0  0  0  0  0  0
   15.6271   23.4570    5.9832 O   0  0  0  0  0  0  0  0  0  0  0  0
   14.2807   21.4076    5.6719 C   0  0  0  0  0  0  0  0  0  0  0  0
   13.4486   21.9029    6.8436 N   0  0  0  0  0  0  0  0  0  0  0  0
   11.7885   21.9476    6.5253 S   0  0  0  0  0  0  0  0  0  0  0  0
   11.1554   22.8046    7.4975 O   0  0  0  0  0  0  0  0  0  0  0  0
   11.3518   20.5855    6.3304 O   0  0  0  0  0  0  0  0  0  0  0  0
   13.2752   22.0520    3.0902 H   0  0  0  0  0  0  0  0  0  0  0  0
   14.9728   23.8362    6.5907 H   0  0  0  0  0  0  0  0  0  0  0  0
   10.8837   22.3136    3.9965 C   0  0  0  0  0  0  0  0  0  0  0  0
    7.8489   24.5573    3.3520 C   0  0  0  0  0  0  0  0  0  0  0  0
    8.3281   25.3963    2.3407 C   0  0  0  0  0  0  0  0  0  0  0  0
    9.6435   25.2647    1.8944 C   0  0  0  0  0  0  0  0  0  0  0  0
   10.4778   24.2844    2.4370 C   0  0  0  0  0  0  0  0  0  0  0  0
   10.0061   23.4057    3.4221 C   0  0  0  0  0  0  0  0  0  0  0  0
    8.6883   23.5675    3.8839 C   0  0  0  0  0  0  0  0  0  0  0  0
    4.2959   23.5236    4.1531 C   0  0  0  0  0  0  0  0  0  0  0  0
    5.6869   23.5019    3.7799 N   0  0  0  0  0  0  0  0  0  0  0  0
    6.4519   24.6470    3.8657 C   0  0  0  0  0  0  0  0  0  0  0  0
    6.0275   25.7097    4.3061 O   0  0  0  0  0  0  0  0  0  0  0  0
    6.0946   22.6642    3.4615 H   0  0  0  0  0  0  0  0  0  0  0  0
   11.9848   25.1174    4.2240 C   0  0  0  0  0  0  0  0  0  0  0  0
   11.8618   26.2391    5.1086 O   0  0  0  0  0  0  0  0  0  0  0  0
   10.8118   26.2652    5.9855 C   0  0  0  0  0  0  0  0  0  0  0  0
   11.1667   26.0247    7.3158 C   0  0  0  0  0  0  0  0  0  0  0  0
   10.1969   26.0035    8.3200 C   0  0  0  0  0  0  0  0  0  0  0  0
    8.8599   26.2219    7.9974 C   0  0  0  0  0  0  0  0  0  0  0  0
    8.4986   26.4662    6.6746 C   0  0  0  0  0  0  0  0  0  0  0  0
    9.4713   26.4923    5.6704 C   0  0  0  0  0  0  0  0  0  0  0  0
   15.2684   20.2590    5.9605 C   0  0  0  0  0  0  0  0  0  0  0  0
   16.4781   20.4041    5.2240 O   0  0  0  0  0  0  0  0  0  0  0  0
   16.7536   19.4604    4.2740 C   0  0  0  0  0  0  0  0  0  0  0  0
   15.9662   19.1578    3.1633 C   0  0  0  0  0  0  0  0  0  0  0  0
   16.3570   18.1447    2.2835 C   0  0  0  0  0  0  0  0  0  0  0  0
   17.5347   17.4331    2.5086 C   0  0  0  0  0  0  0  0  0  0  0  0
   18.3265   17.7349    3.6129 C   0  0  0  0  0  0  0  0  0  0  0  0
   17.9351   18.7449    4.4921 C   0  0  0  0  0  0  0  0  0  0  0  0
   13.7792   21.4780    8.2310 C   0  0  0  0  0  0  0  0  0  0  0  0
   15.2693   21.4899    8.5054 C   0  0  0  0  0  0  0  0  0  0  0  0
   15.9614   20.2980    8.7621 C   0  0  0  0  0  0  0  0  0  0  0  0
   17.3384   20.3034    8.9933 C   0  0  0  0  0  0  0  0  0  0  0  0
   18.0430   21.5054    8.9789 C   0  0  0  0  0  0  0  0  0  0  0  0
   17.3707   22.6993    8.7319 C   0  0  0  0  0  0  0  0  0  0  0  0
   15.9934   22.6921    8.4951 C   0  0  0  0  0  0  0  0  0  0  0  0
 21 22  1  0
 22 23  1  0
 23 24  2  0
 23 15  1  0
 15 16  2  0
 16 17  1  0
 17 18  2  0
 18 19  1  0
 19 14  1  0
 14  1  1  0
  1  2  1  0
  2 26  1  0
 26 27  1  0
 27 28  1  0
 28 29  2  0
 29 30  1  0
 30 31  2  0
 31 32  1  0
 32 33  2  0
  2  3  1  0
  3  4  1  0
  3  5  1  0
  5  6  1  0
  5  7  1  0
  7 34  1  0
 34 35  1  0
 35 36  1  0
 36 37  2  0
 37 38  1  0
 38 39  2  0
 39 40  1  0
 40 41  2  0
  7  8  1  0
  8 42  1  0
 42 43  1  0
 43 44  2  0
 44 45  1  0
 45 46  2  0
 46 47  1  0
 47 48  2  0
  8  9  1  0
  9 10  2  0
  9 11  2  0
 19 20  2  0
 20 15  1  0
  9  1  1  0
 33 28  1  0
 41 36  1  0
 48 43  1  0
 22 25  1  0
  4 12  1  0
  6 13  1  0
M  END
> <minimizedAffinity>
-10.32996

> <CNNscore>
0.6877979636

> <CNNaffinity>
8.0889577866

> <CNN_VS>
5.5635685921

> <CNNaffinity_variance>
0.1433476955

$$$$



 48 52  0  0  0  0  0  0  0  0999 V2000
   11.8449   23.7911    5.9577 N   0  0  0  0  0  0  0  0  0  0  0  0
   12.3247   24.3921    4.6795 C   0  0  0  0  0  0  0  0  0  0  0  0
   12.7739   23.2849    3.6801 C   0  0  0  0  0  0  0  0  0  0  0  0
   11.7238   22.3279    3.4653 O   0  0  0  0  0  0  0  0  0  0  0  0
   14.0675   22.5319    4.0821 C   0  0  0  0  0  0  0  0  0  0  0  0
   15.1916   23.3719    3.8002 O   0  0  0  0  0  0  0  0  0  0  0  0
   14.0862   22.0202    5.5498 C   0  0  0  0  0  0  0  0  0  0  0  0
   14.2956   23.2193    6.4601 N   0  0  0  0  0  0  0  0  0  0  0  0
   12.8873   23.7284    7.2455 S   0  0  0  0  0  0  0  0  0  0  0  0
   13.0861   25.0752    7.7219 O   0  0  0  0  0  0  0  0  0  0  0  0
   12.4877   22.6685    8.1406 O   0  0  0  0  0  0  0  0  0  0  0  0
   11.5387   21.8594    4.2943 H   0  0  0  0  0  0  0  0  0  0  0  0
   15.1368   24.1768    4.3387 H   0  0  0  0  0  0  0  0  0  0  0  0
   10.4585   23.3202    6.1132 C   0  0  0  0  0  0  0  0  0  0  0  0
    8.4467   26.2138    7.6099 C   0  0  0  0  0  0  0  0  0  0  0  0
    8.0655   25.6824    8.8462 C   0  0  0  0  0  0  0  0  0  0  0  0
    8.4232   24.3759    9.1807 C   0  0  0  0  0  0  0  0  0  0  0  0
    9.1795   23.6033    8.2962 C   0  0  0  0  0  0  0  0  0  0  0  0
    9.6078   24.1293    7.0694 C   0  0  0  0  0  0  0  0  0  0  0  0
    9.2160   25.4365    6.7316 C   0  0  0  0  0  0  0  0  0  0  0  0
    6.6773   29.5608    7.5811 C   0  0  0  0  0  0  0  0  0  0  0  0
    7.1530   28.2563    7.9642 N   0  0  0  0  0  0  0  0  0  0  0  0
    8.0985   27.6043    7.1993 C   0  0  0  0  0  0  0  0  0  0  0  0
    8.6221   28.1004    6.2078 O   0  0  0  0  0  0  0  0  0  0  0  0
    6.8012   27.8270    8.7773 H   0  0  0  0  0  0  0  0  0  0  0  0
   11.3035   25.3567    4.0483 C   0  0  0  0  0  0  0  0  0  0  0  0
   10.7115   24.7998    2.8670 O   0  0  0  0  0  0  0  0  0  0  0  0
    9.3506   24.8503    2.7344 C   0  0  0  0  0  0  0  0  0  0  0  0
    8.8866   25.9201    1.9639 C   0  0  0  0  0  0  0  0  0  0  0  0
    7.5189   26.1091    1.7563 C   0  0  0  0  0  0  0  0  0  0  0  0
    6.6031   25.2261    2.3227 C   0  0  0  0  0  0  0  0  0  0  0  0
    7.0576   24.1552    3.0886 C   0  0  0  0  0  0  0  0  0  0  0  0
    8.4279   23.9639    3.2917 C   0  0  0  0  0  0  0  0  0  0  0  0
   15.0333   20.8208    5.7555 C   0  0  0  0  0  0  0  0  0  0  0  0
   16.1918   20.9145    4.9333 O   0  0  0  0  0  0  0  0  0  0  0  0
   16.6729   19.7562    4.3894 C   0  0  0  0  0  0  0  0  0  0  0  0
   17.8479   19.1010    4.7574 C   0  0  0  0  0  0  0  0  0  0  0  0
   18.2352   17.9334    4.0944 C   0  0  0  0  0  0  0  0  0  0  0  0
   17.4504   17.4157    3.0649 C   0  0  0  0  0  0  0  0  0  0  0  0
   16.2742   18.0630    2.6974 C   0  0  0  0  0  0  0  0  0  0  0  0
   15.8888   19.2298    3.3580 C   0  0  0  0  0  0  0  0  0  0  0  0
   15.5178   23.3162    7.3037 C   0  0  0  0  0  0  0  0  0  0  0  0
   15.6832   22.1284    8.2298 C   0  0  0  0  0  0  0  0  0  0  0  0
   16.8230   21.3154    8.1576 C   0  0  0  0  0  0  0  0  0  0  0  0
   16.9886   20.2334    9.0245 C   0  0  0  0  0  0  0  0  0  0  0  0
   16.0098   19.9439    9.9730 C   0  0  0  0  0  0  0  0  0  0  0  0
   14.8684   20.7370   10.0545 C   0  0  0  0  0  0  0  0  0  0  0  0
   14.7064   21.8231    9.1901 C   0  0  0  0  0  0  0  0  0  0  0  0
 21 22  1  0
 22 23  1  0
 23 24  2  0
 23 15  1  0
 15 16  2  0
 16 17  1  0
 17 18  2  0
 18 19  1  0
 19 14  1  0
 14  1  1  0
  1  2  1  0
  2 26  1  0
 26 27  1  0
 27 28  1  0
 28 29  2  0
 29 30  1  0
 30 31  2  0
 31 32  1  0
 32 33  2  0
  2  3  1  0
  3  4  1  0
  3  5  1  0
  5  6  1  0
  5  7  1  0
  7 34  1  0
 34 35  1  0
 35 36  1  0
 36 37  2  0
 37 38  1  0
 38 39  2  0
 39 40  1  0
 40 41  2  0
  7  8  1  0
  8 42  1  0
 42 43  1  0
 43 44  2  0
 44 45  1  0
 45 46  2  0
 46 47  1  0
 47 48  2  0
  8  9  1  0
  9 10  2  0
  9 11  2  0
 19 20  2  0
 20 15  1  0
  9  1  1  0
 33 28  1  0
 41 36  1  0
 48 43  1  0
 22 25  1  0
  4 12  1  0
  6 13  1  0
M  END
> <minimizedAffinity>
-11.25131

> <CNNscore>
0.6067687869

> <CNNaffinity>
7.9367790222

> <CNN_VS>
4.8157896996

> <CNNaffinity_variance>
0.0689603016

$$$$
