


 39 42  0  0  0  0  0  0  0  0999 V2000
    2.9532    6.5112   23.4091 C   0  0  0  0  0  0  0  0  0  0  0  0
    2.2323    7.3577   24.2596 C   0  0  0  0  0  0  0  0  0  0  0  0
    2.9045    8.2873   25.0431 C   0  0  0  0  0  0  0  0  0  0  0  0
    2.0179    9.3075   26.1081 Cl  0  0  0  0  0  0  0  0  0  0  0  0
    4.2850    8.4306   24.9461 C   0  0  0  0  0  0  0  0  0  0  0  0
    5.0160    7.6198   24.0614 C   0  0  0  0  0  0  0  0  0  0  0  0
    4.3601    6.5926   23.3386 C   0  0  0  0  0  0  0  0  0  0  0  0
    6.4927    7.8372   23.9171 C   0  0  0  0  0  0  0  0  0  0  0  0
    6.9589    8.0186   22.7972 O   0  0  0  0  0  0  0  0  0  0  0  0
    7.2102    7.8812   25.0911 N   0  0  0  0  0  0  0  0  0  0  0  0
    6.6883    7.7788   25.9196 H   0  0  0  0  0  0  0  0  0  0  0  0
    8.5868    8.0529   25.2527 C   0  0  0  0  0  0  0  0  0  0  0  0
    9.3873    8.8247   24.4270 C   0  0  0  0  0  0  0  0  0  0  0  0
   10.7544    8.9045   24.7046 C   0  0  0  0  0  0  0  0  0  0  0  0
   11.7334    9.8760   23.6615 Cl  0  0  0  0  0  0  0  0  0  0  0  0
   11.2891    8.2152   25.7880 C   0  0  0  0  0  0  0  0  0  0  0  0
   12.9562    8.2483   26.2132 Cl  0  0  0  0  0  0  0  0  0  0  0  0
   10.4117    7.4669   26.5528 C   0  0  0  0  0  0  0  0  0  0  0  0
    9.0810    7.3706   26.3074 N   0  0  0  0  0  0  0  0  0  0  0  0
    5.1321    5.7093   22.5373 N   0  0  0  0  0  0  0  0  0  0  0  0
    5.2036    5.7062   21.1485 C   0  0  0  0  0  0  0  0  0  0  0  0
    4.5066    6.4313   20.4423 O   0  0  0  0  0  0  0  0  0  0  0  0
    5.6687    5.0336   23.0114 H   0  0  0  0  0  0  0  0  0  0  0  0
    6.1085    4.6973   20.5842 C   0  0  0  0  0  0  0  0  0  0  0  0
    5.8320    3.0206   20.8481 S   0  0  0  0  0  0  0  0  0  0  0  0
    7.1997    2.5732   19.9435 C   0  0  0  0  0  0  0  0  0  0  0  0
    7.8890    3.6553   19.4279 C   0  0  0  0  0  0  0  0  0  0  0  0
    7.2505    4.8899   19.8180 C   0  0  0  0  0  0  0  0  0  0  0  0
    7.8859    6.4244   19.3619 Cl  0  0  0  0  0  0  0  0  0  0  0  0
    9.1408    3.5165   18.5905 C   0  0  0  0  0  0  0  0  0  0  0  0
    9.2249    2.3369   17.7304 N   0  0  0  0  0  0  0  0  0  0  0  0
    9.9993    1.2107   18.2222 C   0  0  0  0  0  0  0  0  0  0  0  0
    8.3498    2.1346   16.6980 C   0  0  0  0  0  0  0  0  0  0  0  0
    8.1768    1.0376   16.0329 N   0  0  0  0  0  0  0  0  0  0  0  0
    7.1910    1.3894   15.0082 C   0  0  0  0  0  0  0  0  0  0  0  0
    6.6475    2.7312   15.4308 C   0  0  0  0  0  0  0  0  0  0  0  0
    7.6099    3.2186   16.3487 O   0  0  0  0  0  0  0  0  0  0  0  0
    1.1446    6.3467   21.9172 C   0  0  0  0  0  0  0  0  0  0  0  0
    2.2902    5.7238   22.4990 O   0  0  0  0  0  0  0  0  0  0  0  0
 38 39  1  0
 39  1  1  0
  1  2  2  0
  2  3  1  0
  3  4  1  0
  3  5  2  0
  5  6  1  0
  6  8  1  0
  8  9  2  0
  8 10  1  0
 10 12  1  0
 12 13  2  0
 13 14  1  0
 14 15  1  0
 14 16  2  0
 16 17  1  0
 16 18  1  0
 18 19  2  0
  6  7  2  0
  7 20  1  0
 20 21  1  0
 21 22  2  0
 21 24  1  0
 24 25  1  0
 25 26  1  0
 26 27  2  0
 27 30  1  0
 30 31  1  0
 31 32  1  0
 31 33  1  0
 33 34  2  0
 34 35  1  0
 35 36  1  0
 36 37  1  0
 27 28  1  0
 28 29  1  0
  7  1  1  0
 28 24  2  0
 19 12  1  0
 37 33  1  0
 10 11  1  0
 20 23  1  0
M  END
> <minimizedAffinity>
-8.62196

> <CNNscore>
0.9692082405

> <CNNaffinity>
8.6338577271

> <CNN_VS>
8.3680057526

> <CNNaffinity_variance>
0.1115268990

$$$$



 39 42  0  0  0  0  0  0  0  0999 V2000
    3.2482    8.4083   23.0968 C   0  0  0  0  0  0  0  0  0  0  0  0
    2.7270    9.2547   24.0824 C   0  0  0  0  0  0  0  0  0  0  0  0
    3.5523    9.7296   25.0939 C   0  0  0  0  0  0  0  0  0  0  0  0
    2.9025   10.7476   26.3196 Cl  0  0  0  0  0  0  0  0  0  0  0  0
    4.9096    9.4238   25.1039 C   0  0  0  0  0  0  0  0  0  0  0  0
    5.4558    8.6139   24.0938 C   0  0  0  0  0  0  0  0  0  0  0  0
    4.6078    8.0313   23.1195 C   0  0  0  0  0  0  0  0  0  0  0  0
    6.9326    8.3540   24.0801 C   0  0  0  0  0  0  0  0  0  0  0  0
    7.4687    8.0337   23.0244 O   0  0  0  0  0  0  0  0  0  0  0  0
    7.5902    8.5662   25.2708 N   0  0  0  0  0  0  0  0  0  0  0  0
    7.0347    8.8813   26.0200 H   0  0  0  0  0  0  0  0  0  0  0  0
    8.9477    8.3898   25.5476 C   0  0  0  0  0  0  0  0  0  0  0  0
    9.4606    7.4179   26.3907 C   0  0  0  0  0  0  0  0  0  0  0  0
   10.8437    7.3585   26.5800 C   0  0  0  0  0  0  0  0  0  0  0  0
   11.4611    6.1353   27.6349 Cl  0  0  0  0  0  0  0  0  0  0  0  0
   11.6774    8.2648   25.9330 C   0  0  0  0  0  0  0  0  0  0  0  0
   13.3900    8.2751   26.0998 Cl  0  0  0  0  0  0  0  0  0  0  0  0
   11.0728    9.2021   25.1142 C   0  0  0  0  0  0  0  0  0  0  0  0
    9.7340    9.2839   24.9115 N   0  0  0  0  0  0  0  0  0  0  0  0
    5.1596    7.1240   22.1758 N   0  0  0  0  0  0  0  0  0  0  0  0
    5.4768    7.4044   20.8512 C   0  0  0  0  0  0  0  0  0  0  0  0
    5.2136    8.4781   20.3143 O   0  0  0  0  0  0  0  0  0  0  0  0
    5.3343    6.2076   22.4902 H   0  0  0  0  0  0  0  0  0  0  0  0
    6.0646    6.2809   20.1113 C   0  0  0  0  0  0  0  0  0  0  0  0
    7.7028    6.3303   19.5906 S   0  0  0  0  0  0  0  0  0  0  0  0
    7.6044    4.7900   18.8788 C   0  0  0  0  0  0  0  0  0  0  0  0
    6.3574    4.2076   19.0117 C   0  0  0  0  0  0  0  0  0  0  0  0
    5.4633    5.0913   19.7217 C   0  0  0  0  0  0  0  0  0  0  0  0
    3.8204    4.6709   20.0224 Cl  0  0  0  0  0  0  0  0  0  0  0  0
    6.0192    2.8405   18.4603 C   0  0  0  0  0  0  0  0  0  0  0  0
    6.4830    2.5492   17.1044 N   0  0  0  0  0  0  0  0  0  0  0  0
    5.8821    3.3065   16.0203 C   0  0  0  0  0  0  0  0  0  0  0  0
    7.6548    1.8818   16.8719 C   0  0  0  0  0  0  0  0  0  0  0  0
    8.0303    1.3412   15.7572 N   0  0  0  0  0  0  0  0  0  0  0  0
    9.3105    0.7059   16.0784 C   0  0  0  0  0  0  0  0  0  0  0  0
    9.6942    1.2570   17.4288 C   0  0  0  0  0  0  0  0  0  0  0  0
    8.4828    1.7804   17.9436 O   0  0  0  0  0  0  0  0  0  0  0  0
    1.5579    9.0988   21.6169 C   0  0  0  0  0  0  0  0  0  0  0  0
    2.4915    8.0871   21.9958 O   0  0  0  0  0  0  0  0  0  0  0  0
 38 39  1  0
 39  1  1  0
  1  2  2  0
  2  3  1  0
  3  4  1  0
  3  5  2  0
  5  6  1  0
  6  8  1  0
  8  9  2  0
  8 10  1  0
 10 12  1  0
 12 13  2  0
 13 14  1  0
 14 15  1  0
 14 16  2  0
 16 17  1  0
 16 18  1  0
 18 19  2  0
  6  7  2  0
  7 20  1  0
 20 21  1  0
 21 22  2  0
 21 24  1  0
 24 25  1  0
 25 26  1  0
 26 27  2  0
 27 30  1  0
 30 31  1  0
 31 32  1  0
 31 33  1  0
 33 34  2  0
 34 35  1  0
 35 36  1  0
 36 37  1  0
 27 28  1  0
 28 29  1  0
  7  1  1  0
 28 24  2  0
 19 12  1  0
 37 33  1  0
 10 11  1  0
 20 23  1  0
M  END
> <minimizedAffinity>
-7.34658

> <CNNscore>
0.8540977240

> <CNNaffinity>
8.4992647171

> <CNN_VS>
7.2592024803

> <CNNaffinity_variance>
0.1038304642

$$$$



 39 42  0  0  0  0  0  0  0  0999 V2000
    2.4224    5.3264   23.4644 C   0  0  0  0  0  0  0  0  0  0  0  0
    1.5345    6.0703   24.2504 C   0  0  0  0  0  0  0  0  0  0  0  0
    1.9437    7.2777   24.8023 C   0  0  0  0  0  0  0  0  0  0  0  0
    0.8591    8.1764   25.7908 Cl  0  0  0  0  0  0  0  0  0  0  0  0
    3.2089    7.7889   24.5310 C   0  0  0  0  0  0  0  0  0  0  0  0
    4.0937    7.0754   23.7047 C   0  0  0  0  0  0  0  0  0  0  0  0
    3.7330    5.7916   23.2255 C   0  0  0  0  0  0  0  0  0  0  0  0
    5.4253    7.6753   23.3649 C   0  0  0  0  0  0  0  0  0  0  0  0
    5.5865    8.1713   22.2547 O   0  0  0  0  0  0  0  0  0  0  0  0
    6.3584    7.6772   24.3771 N   0  0  0  0  0  0  0  0  0  0  0  0
    6.0638    7.2966   25.2359 H   0  0  0  0  0  0  0  0  0  0  0  0
    7.6711    8.1521   24.3367 C   0  0  0  0  0  0  0  0  0  0  0  0
    8.5635    8.0939   25.3943 C   0  0  0  0  0  0  0  0  0  0  0  0
    9.8486    8.6124   25.2149 C   0  0  0  0  0  0  0  0  0  0  0  0
   10.9460    8.5264   26.5486 Cl  0  0  0  0  0  0  0  0  0  0  0  0
   10.2108    9.1767   23.9962 C   0  0  0  0  0  0  0  0  0  0  0  0
   11.7652    9.8412   23.6752 Cl  0  0  0  0  0  0  0  0  0  0  0  0
    9.2503    9.1935   23.0004 C   0  0  0  0  0  0  0  0  0  0  0  0
    7.9957    8.6982   23.1456 N   0  0  0  0  0  0  0  0  0  0  0  0
    4.6836    5.0364   22.4878 N   0  0  0  0  0  0  0  0  0  0  0  0
    4.8280    5.0189   21.1048 C   0  0  0  0  0  0  0  0  0  0  0  0
    4.0575    5.6022   20.3455 O   0  0  0  0  0  0  0  0  0  0  0  0
    5.3002    4.4704   23.0062 H   0  0  0  0  0  0  0  0  0  0  0  0
    5.9180    4.1669   20.6137 C   0  0  0  0  0  0  0  0  0  0  0  0
    6.0502    2.5282   21.1180 S   0  0  0  0  0  0  0  0  0  0  0  0
    7.4450    2.2711   20.1814 C   0  0  0  0  0  0  0  0  0  0  0  0
    7.8416    3.3926   19.4764 C   0  0  0  0  0  0  0  0  0  0  0  0
    6.9506    4.4962   19.7455 C   0  0  0  0  0  0  0  0  0  0  0  0
    7.1922    6.0502   19.0434 Cl  0  0  0  0  0  0  0  0  0  0  0  0
    9.0550    3.4168   18.5739 C   0  0  0  0  0  0  0  0  0  0  0  0
    9.1295    2.3751   17.5502 N   0  0  0  0  0  0  0  0  0  0  0  0
   10.0261    1.2604   17.8017 C   0  0  0  0  0  0  0  0  0  0  0  0
    8.1676    2.2429   16.5860 C   0  0  0  0  0  0  0  0  0  0  0  0
    7.3763    3.1695   16.1490 N   0  0  0  0  0  0  0  0  0  0  0  0
    6.5096    2.4802   15.1902 C   0  0  0  0  0  0  0  0  0  0  0  0
    7.1644    1.1411   14.9614 C   0  0  0  0  0  0  0  0  0  0  0  0
    8.0447    0.9961   16.0617 O   0  0  0  0  0  0  0  0  0  0  0  0
    1.6766    3.1007   23.5840 C   0  0  0  0  0  0  0  0  0  0  0  0
    1.9715    4.2328   22.7653 O   0  0  0  0  0  0  0  0  0  0  0  0
 38 39  1  0
 39  1  1  0
  1  2  2  0
  2  3  1  0
  3  4  1  0
  3  5  2  0
  5  6  1  0
  6  8  1  0
  8  9  2  0
  8 10  1  0
 10 12  1  0
 12 13  2  0
 13 14  1  0
 14 15  1  0
 14 16  2  0
 16 17  1  0
 16 18  1  0
 18 19  2  0
  6  7  2  0
  7 20  1  0
 20 21  1  0
 21 22  2  0
 21 24  1  0
 24 25  1  0
 25 26  1  0
 26 27  2  0
 27 30  1  0
 30 31  1  0
 31 32  1  0
 31 33  1  0
 33 34  2  0
 34 35  1  0
 35 36  1  0
 36 37  1  0
 27 28  1  0
 28 29  1  0
  7  1  1  0
 28 24  2  0
 19 12  1  0
 37 33  1  0
 10 11  1  0
 20 23  1  0
M  END
> <minimizedAffinity>
-8.39694

> <CNNscore>
0.8539384007

> <CNNaffinity>
8.3217744827

> <CNN_VS>
7.1062827110

> <CNNaffinity_variance>
0.0187224317

$$$$



 39 42  0  0  0  0  0  0  0  0999 V2000
    9.7343    7.2599   26.5927 C   0  0  0  0  0  0  0  0  0  0  0  0
   11.0800    7.4798   26.9095 C   0  0  0  0  0  0  0  0  0  0  0  0
   11.8747    8.2422   26.0628 C   0  0  0  0  0  0  0  0  0  0  0  0
   13.5354    8.4877   26.4407 Cl  0  0  0  0  0  0  0  0  0  0  0  0
   11.3318    8.8444   24.9320 C   0  0  0  0  0  0  0  0  0  0  0  0
    9.9710    8.6711   24.6274 C   0  0  0  0  0  0  0  0  0  0  0  0
    9.1744    7.8068   25.4186 C   0  0  0  0  0  0  0  0  0  0  0  0
    9.3871    9.3857   23.4455 C   0  0  0  0  0  0  0  0  0  0  0  0
    9.3441   10.6115   23.4551 O   0  0  0  0  0  0  0  0  0  0  0  0
    8.9981    8.5872   22.3936 N   0  0  0  0  0  0  0  0  0  0  0  0
    9.1499    7.6210   22.5066 H   0  0  0  0  0  0  0  0  0  0  0  0
    8.4149    8.9777   21.1862 C   0  0  0  0  0  0  0  0  0  0  0  0
    7.5299    8.2056   20.4521 C   0  0  0  0  0  0  0  0  0  0  0  0
    7.0251    8.7215   19.2556 C   0  0  0  0  0  0  0  0  0  0  0  0
    5.9199    7.7406   18.3575 Cl  0  0  0  0  0  0  0  0  0  0  0  0
    7.4142    9.9838   18.8194 C   0  0  0  0  0  0  0  0  0  0  0  0
    6.8510   10.7072   17.3633 Cl  0  0  0  0  0  0  0  0  0  0  0  0
    8.3056   10.6783   19.6179 C   0  0  0  0  0  0  0  0  0  0  0  0
    8.8121   10.2033   20.7832 N   0  0  0  0  0  0  0  0  0  0  0  0
    7.8318    7.5537   25.0290 N   0  0  0  0  0  0  0  0  0  0  0  0
    6.8033    8.4873   24.9620 C   0  0  0  0  0  0  0  0  0  0  0  0
    6.9312    9.6501   25.3387 O   0  0  0  0  0  0  0  0  0  0  0  0
    7.6078    6.6273   24.7826 H   0  0  0  0  0  0  0  0  0  0  0  0
    5.5187    7.9507   24.4960 C   0  0  0  0  0  0  0  0  0  0  0  0
    5.4603    6.7461   23.2702 S   0  0  0  0  0  0  0  0  0  0  0  0
    3.7625    6.6770   23.3101 C   0  0  0  0  0  0  0  0  0  0  0  0
    3.2041    7.5440   24.2312 C   0  0  0  0  0  0  0  0  0  0  0  0
    4.2372    8.2909   24.9088 C   0  0  0  0  0  0  0  0  0  0  0  0
    3.8662    9.4818   26.0964 Cl  0  0  0  0  0  0  0  0  0  0  0  0
    1.7131    7.6690   24.4521 C   0  0  0  0  0  0  0  0  0  0  0  0
    1.1063    8.9539   24.1068 N   0  0  0  0  0  0  0  0  0  0  0  0
    1.3323    9.4546   22.7622 C   0  0  0  0  0  0  0  0  0  0  0  0
    0.0918    9.4941   24.8496 C   0  0  0  0  0  0  0  0  0  0  0  0
   -0.1072    9.3371   26.1190 N   0  0  0  0  0  0  0  0  0  0  0  0
   -1.3538   10.0605   26.3802 C   0  0  0  0  0  0  0  0  0  0  0  0
   -1.6048   10.8725   25.1344 C   0  0  0  0  0  0  0  0  0  0  0  0
   -0.7891   10.2578   24.1530 O   0  0  0  0  0  0  0  0  0  0  0  0
    9.3370    5.3845   27.9523 C   0  0  0  0  0  0  0  0  0  0  0  0
    8.8993    6.6698   27.5104 O   0  0  0  0  0  0  0  0  0  0  0  0
 38 39  1  0
 39  1  1  0
  1  2  2  0
  2  3  1  0
  3  4  1  0
  3  5  2  0
  5  6  1  0
  6  8  1  0
  8  9  2  0
  8 10  1  0
 10 12  1  0
 12 13  2  0
 13 14  1  0
 14 15  1  0
 14 16  2  0
 16 17  1  0
 16 18  1  0
 18 19  2  0
  6  7  2  0
  7 20  1  0
 20 21  1  0
 21 22  2  0
 21 24  1  0
 24 25  1  0
 25 26  1  0
 26 27  2  0
 27 30  1  0
 30 31  1  0
 31 32  1  0
 31 33  1  0
 33 34  2  0
 34 35  1  0
 35 36  1  0
 36 37  1  0
 27 28  1  0
 28 29  1  0
  7  1  1  0
 28 24  2  0
 19 12  1  0
 37 33  1  0
 10 11  1  0
 20 23  1  0
M  END
> <minimizedAffinity>
-7.20914

> <CNNscore>
0.5018439889

> <CNNaffinity>
7.5952582359

> <CNN_VS>
3.8116347790

> <CNNaffinity_variance>
0.3469992876

$$$$



 39 42  0  0  0  0  0  0  0  0999 V2000
    3.1888    7.5285   22.5682 C   0  0  0  0  0  0  0  0  0  0  0  0
    2.5233    8.3586   23.4780 C   0  0  0  0  0  0  0  0  0  0  0  0
    3.2449    9.0359   24.4528 C   0  0  0  0  0  0  0  0  0  0  0  0
    2.4210   10.0337   25.5870 Cl  0  0  0  0  0  0  0  0  0  0  0  0
    4.6328    8.9483   24.4968 C   0  0  0  0  0  0  0  0  0  0  0  0
    5.3178    8.1561   23.5599 C   0  0  0  0  0  0  0  0  0  0  0  0
    4.5898    7.3723   22.6307 C   0  0  0  0  0  0  0  0  0  0  0  0
    6.8170    8.1306   23.5772 C   0  0  0  0  0  0  0  0  0  0  0  0
    7.4208    8.0188   22.5154 O   0  0  0  0  0  0  0  0  0  0  0  0
    7.4059    8.3051   24.8094 N   0  0  0  0  0  0  0  0  0  0  0  0
    6.7908    8.4437   25.5655 H   0  0  0  0  0  0  0  0  0  0  0  0
    8.7675    8.3101   25.1197 C   0  0  0  0  0  0  0  0  0  0  0  0
    9.7317    9.0221   24.4256 C   0  0  0  0  0  0  0  0  0  0  0  0
   11.0616    8.9316   24.8448 C   0  0  0  0  0  0  0  0  0  0  0  0
   12.2473    9.8312   23.9646 Cl  0  0  0  0  0  0  0  0  0  0  0  0
   11.3981    8.1363   25.9354 C   0  0  0  0  0  0  0  0  0  0  0  0
   13.0034    7.9582   26.5290 Cl  0  0  0  0  0  0  0  0  0  0  0  0
   10.3671    7.4593   26.5624 C   0  0  0  0  0  0  0  0  0  0  0  0
    9.0679    7.5278   26.1779 N   0  0  0  0  0  0  0  0  0  0  0  0
    5.2942    6.4904   21.7679 N   0  0  0  0  0  0  0  0  0  0  0  0
    5.6825    6.7538   20.4588 C   0  0  0  0  0  0  0  0  0  0  0  0
    5.3603    7.7774   19.8598 O   0  0  0  0  0  0  0  0  0  0  0  0
    5.5305    5.6069   22.1323 H   0  0  0  0  0  0  0  0  0  0  0  0
    6.4276    5.6675   19.8107 C   0  0  0  0  0  0  0  0  0  0  0  0
    7.4451    4.6283   20.7283 S   0  0  0  0  0  0  0  0  0  0  0  0
    7.8942    3.7294   19.3575 C   0  0  0  0  0  0  0  0  0  0  0  0
    7.3006    4.1799   18.1928 C   0  0  0  0  0  0  0  0  0  0  0  0
    6.4565    5.3186   18.4670 C   0  0  0  0  0  0  0  0  0  0  0  0
    5.5989    6.1353   17.2164 Cl  0  0  0  0  0  0  0  0  0  0  0  0
    7.5437    3.5464   16.8411 C   0  0  0  0  0  0  0  0  0  0  0  0
    6.3931    2.9109   16.2002 N   0  0  0  0  0  0  0  0  0  0  0  0
    5.4636    2.1993   17.0602 C   0  0  0  0  0  0  0  0  0  0  0  0
    5.9932    3.2518   14.9367 C   0  0  0  0  0  0  0  0  0  0  0  0
    5.1982    2.5792   14.1679 N   0  0  0  0  0  0  0  0  0  0  0  0
    5.1687    3.3466   12.9206 C   0  0  0  0  0  0  0  0  0  0  0  0
    5.8096    4.6693   13.2584 C   0  0  0  0  0  0  0  0  0  0  0  0
    6.5113    4.4142   14.4622 O   0  0  0  0  0  0  0  0  0  0  0  0
    1.8209    5.7896   21.7752 C   0  0  0  0  0  0  0  0  0  0  0  0
    2.5128    7.0062   21.4921 O   0  0  0  0  0  0  0  0  0  0  0  0
 38 39  1  0
 39  1  1  0
  1  2  2  0
  2  3  1  0
  3  4  1  0
  3  5  2  0
  5  6  1  0
  6  8  1  0
  8  9  2  0
  8 10  1  0
 10 12  1  0
 12 13  2  0
 13 14  1  0
 14 15  1  0
 14 16  2  0
 16 17  1  0
 16 18  1  0
 18 19  2  0
  6  7  2  0
  7 20  1  0
 20 21  1  0
 21 22  2  0
 21 24  1  0
 24 25  1  0
 25 26  1  0
 26 27  2  0
 27 30  1  0
 30 31  1  0
 31 32  1  0
 31 33  1  0
 33 34  2  0
 34 35  1  0
 35 36  1  0
 36 37  1  0
 27 28  1  0
 28 29  1  0
  7  1  1  0
 28 24  2  0
 19 12  1  0
 37 33  1  0
 10 11  1  0
 20 23  1  0
M  END
> <minimizedAffinity>
-7.15947

> <CNNscore>
0.5013137460

> <CNNaffinity>
8.0578527451

> <CNN_VS>
4.0395121574

> <CNNaffinity_variance>
0.0495259352

$$$$



 39 42  0  0  0  0  0  0  0  0999 V2000
    4.8288    7.8202   23.7118 C   0  0  0  0  0  0  0  0  0  0  0  0
    3.9907    8.6878   24.4221 C   0  0  0  0  0  0  0  0  0  0  0  0
    2.6963    8.2950   24.7384 C   0  0  0  0  0  0  0  0  0  0  0  0
    1.6594    9.3743   25.5874 Cl  0  0  0  0  0  0  0  0  0  0  0  0
    2.2418    7.0213   24.4115 C   0  0  0  0  0  0  0  0  0  0  0  0
    3.0886    6.1229   23.7403 C   0  0  0  0  0  0  0  0  0  0  0  0
    4.3714    6.5464   23.3127 C   0  0  0  0  0  0  0  0  0  0  0  0
    2.6070    4.7307   23.4603 C   0  0  0  0  0  0  0  0  0  0  0  0
    2.8729    3.8390   24.2594 O   0  0  0  0  0  0  0  0  0  0  0  0
    1.8308    4.5797   22.3333 N   0  0  0  0  0  0  0  0  0  0  0  0
    1.6513    5.4004   21.8202 H   0  0  0  0  0  0  0  0  0  0  0  0
    1.2666    3.4065   21.8277 C   0  0  0  0  0  0  0  0  0  0  0  0
    1.9239    2.5059   21.0060 C   0  0  0  0  0  0  0  0  0  0  0  0
    1.2343    1.3717   20.5694 C   0  0  0  0  0  0  0  0  0  0  0  0
    2.0762    0.2605   19.5465 Cl  0  0  0  0  0  0  0  0  0  0  0  0
   -0.0860    1.1647   20.9554 C   0  0  0  0  0  0  0  0  0  0  0  0
   -1.0204   -0.1971   20.4725 Cl  0  0  0  0  0  0  0  0  0  0  0  0
   -0.6596    2.1215   21.7740 C   0  0  0  0  0  0  0  0  0  0  0  0
   -0.0153    3.2317   22.2131 N   0  0  0  0  0  0  0  0  0  0  0  0
    5.1680    5.6632   22.5358 N   0  0  0  0  0  0  0  0  0  0  0  0
    5.0469    5.4297   21.1702 C   0  0  0  0  0  0  0  0  0  0  0  0
    4.1434    5.9084   20.4883 O   0  0  0  0  0  0  0  0  0  0  0  0
    5.8745    5.1683   23.0103 H   0  0  0  0  0  0  0  0  0  0  0  0
    6.0277    4.4853   20.6211 C   0  0  0  0  0  0  0  0  0  0  0  0
    5.9268    2.8056   20.9758 S   0  0  0  0  0  0  0  0  0  0  0  0
    7.3011    2.4466   20.0425 C   0  0  0  0  0  0  0  0  0  0  0  0
    7.8629    3.5622   19.4495 C   0  0  0  0  0  0  0  0  0  0  0  0
    7.1191    4.7478   19.8036 C   0  0  0  0  0  0  0  0  0  0  0  0
    7.5846    6.3109   19.2503 Cl  0  0  0  0  0  0  0  0  0  0  0  0
    9.0939    3.5022   18.5728 C   0  0  0  0  0  0  0  0  0  0  0  0
    9.1590    2.4024   17.6112 N   0  0  0  0  0  0  0  0  0  0  0  0
   10.0148    1.2776   17.9463 C   0  0  0  0  0  0  0  0  0  0  0  0
    8.2153    2.2442   16.6330 C   0  0  0  0  0  0  0  0  0  0  0  0
    7.4330    3.1588   16.1562 N   0  0  0  0  0  0  0  0  0  0  0  0
    6.5839    2.4439   15.2004 C   0  0  0  0  0  0  0  0  0  0  0  0
    7.2420    1.0989   15.0203 C   0  0  0  0  0  0  0  0  0  0  0  0
    8.1013    0.9837   16.1405 O   0  0  0  0  0  0  0  0  0  0  0  0
    6.7341    8.8025   24.6755 C   0  0  0  0  0  0  0  0  0  0  0  0
    6.1604    8.1221   23.5589 O   0  0  0  0  0  0  0  0  0  0  0  0
 38 39  1  0
 39  1  1  0
  1  2  2  0
  2  3  1  0
  3  4  1  0
  3  5  2  0
  5  6  1  0
  6  8  1  0
  8  9  2  0
  8 10  1  0
 10 12  1  0
 12 13  2  0
 13 14  1  0
 14 15  1  0
 14 16  2  0
 16 17  1  0
 16 18  1  0
 18 19  2  0
  6  7  2  0
  7 20  1  0
 20 21  1  0
 21 22  2  0
 21 24  1  0
 24 25  1  0
 25 26  1  0
 26 27  2  0
 27 30  1  0
 30 31  1  0
 31 32  1  0
 31 33  1  0
 33 34  2  0
 34 35  1  0
 35 36  1  0
 36 37  1  0
 27 28  1  0
 28 29  1  0
  7  1  1  0
 28 24  2  0
 19 12  1  0
 37 33  1  0
 10 11  1  0
 20 23  1  0
M  END
> <minimizedAffinity>
-6.82755

> <CNNscore>
0.3478990197

> <CNNaffinity>
7.2579274178

> <CNN_VS>
2.5250258446

> <CNNaffinity_variance>
0.0088780317

$$$$



 39 42  0  0  0  0  0  0  0  0999 V2000
    9.7549    7.2927   26.5717 C   0  0  0  0  0  0  0  0  0  0  0  0
   11.1149    7.4960   26.8341 C   0  0  0  0  0  0  0  0  0  0  0  0
   11.8838    8.2499   25.9566 C   0  0  0  0  0  0  0  0  0  0  0  0
   13.5613    8.4750   26.2673 Cl  0  0  0  0  0  0  0  0  0  0  0  0
   11.3031    8.8599   24.8491 C   0  0  0  0  0  0  0  0  0  0  0  0
    9.9291    8.7034   24.5995 C   0  0  0  0  0  0  0  0  0  0  0  0
    9.1547    7.8477   25.4216 C   0  0  0  0  0  0  0  0  0  0  0  0
    9.3066    9.4265   23.4427 C   0  0  0  0  0  0  0  0  0  0  0  0
    9.1509   10.6409   23.5165 O   0  0  0  0  0  0  0  0  0  0  0  0
    9.0147    8.6554   22.3402 N   0  0  0  0  0  0  0  0  0  0  0  0
    9.2523    7.7022   22.4054 H   0  0  0  0  0  0  0  0  0  0  0  0
    8.4233    9.0577   21.1407 C   0  0  0  0  0  0  0  0  0  0  0  0
    7.5471    8.2857   20.3958 C   0  0  0  0  0  0  0  0  0  0  0  0
    7.0324    8.8142   19.2091 C   0  0  0  0  0  0  0  0  0  0  0  0
    5.9387    7.8331   18.2974 Cl  0  0  0  0  0  0  0  0  0  0  0  0
    7.4031   10.0887   18.7929 C   0  0  0  0  0  0  0  0  0  0  0  0
    6.8265   10.8282   17.3502 Cl  0  0  0  0  0  0  0  0  0  0  0  0
    8.2868   10.7823   19.6008 C   0  0  0  0  0  0  0  0  0  0  0  0
    8.8026   10.2951   20.7571 N   0  0  0  0  0  0  0  0  0  0  0  0
    7.7945    7.6113   25.0864 N   0  0  0  0  0  0  0  0  0  0  0  0
    6.7873    8.5669   25.0066 C   0  0  0  0  0  0  0  0  0  0  0  0
    6.9555    9.7424   25.3231 O   0  0  0  0  0  0  0  0  0  0  0  0
    7.5403    6.6804   24.8915 H   0  0  0  0  0  0  0  0  0  0  0  0
    5.4758    8.0423   24.6069 C   0  0  0  0  0  0  0  0  0  0  0  0
    4.0415    8.5572   25.4037 S   0  0  0  0  0  0  0  0  0  0  0  0
    3.0548    7.5723   24.4314 C   0  0  0  0  0  0  0  0  0  0  0  0
    3.7665    6.8422   23.4974 C   0  0  0  0  0  0  0  0  0  0  0  0
    5.1791    7.1149   23.6168 C   0  0  0  0  0  0  0  0  0  0  0  0
    6.3424    6.3348   22.6145 Cl  0  0  0  0  0  0  0  0  0  0  0  0
    3.1144    5.8915   22.5183 C   0  0  0  0  0  0  0  0  0  0  0  0
    2.7793    4.5607   23.0234 N   0  0  0  0  0  0  0  0  0  0  0  0
    1.4624    4.3859   23.6109 C   0  0  0  0  0  0  0  0  0  0  0  0
    3.4891    3.4505   22.6544 C   0  0  0  0  0  0  0  0  0  0  0  0
    3.3065    2.2395   23.0736 N   0  0  0  0  0  0  0  0  0  0  0  0
    4.3710    1.4697   22.4258 C   0  0  0  0  0  0  0  0  0  0  0  0
    4.9355    2.3899   21.3726 C   0  0  0  0  0  0  0  0  0  0  0  0
    4.4911    3.6761   21.7656 O   0  0  0  0  0  0  0  0  0  0  0  0
    9.3877    5.4185   27.9415 C   0  0  0  0  0  0  0  0  0  0  0  0
    8.9505    6.7115   27.5220 O   0  0  0  0  0  0  0  0  0  0  0  0
 38 39  1  0
 39  1  1  0
  1  2  2  0
  2  3  1  0
  3  4  1  0
  3  5  2  0
  5  6  1  0
  6  8  1  0
  8  9  2  0
  8 10  1  0
 10 12  1  0
 12 13  2  0
 13 14  1  0
 14 15  1  0
 14 16  2  0
 16 17  1  0
 16 18  1  0
 18 19  2  0
  6  7  2  0
  7 20  1  0
 20 21  1  0
 21 22  2  0
 21 24  1  0
 24 25  1  0
 25 26  1  0
 26 27  2  0
 27 30  1  0
 30 31  1  0
 31 32  1  0
 31 33  1  0
 33 34  2  0
 34 35  1  0
 35 36  1  0
 36 37  1  0
 27 28  1  0
 28 29  1  0
  7  1  1  0
 28 24  2  0
 19 12  1  0
 37 33  1  0
 10 11  1  0
 20 23  1  0
M  END
> <minimizedAffinity>
-6.87062

> <CNNscore>
0.2983365357

> <CNNaffinity>
7.7567009926

> <CNN_VS>
2.3141074181

> <CNNaffinity_variance>
0.1776706576

$$$$



 39 42  0  0  0  0  0  0  0  0999 V2000
    3.7568    9.3316   18.1345 C   0  0  0  0  0  0  0  0  0  0  0  0
    2.7942    9.2399   17.1222 C   0  0  0  0  0  0  0  0  0  0  0  0
    2.6721    8.0672   16.3876 C   0  0  0  0  0  0  0  0  0  0  0  0
    1.5067    7.9671   15.1255 Cl  0  0  0  0  0  0  0  0  0  0  0  0
    3.4550    6.9571   16.6885 C   0  0  0  0  0  0  0  0  0  0  0  0
    4.3924    7.0197   17.7335 C   0  0  0  0  0  0  0  0  0  0  0  0
    4.6069    8.2417   18.4180 C   0  0  0  0  0  0  0  0  0  0  0  0
    5.1761    5.7921   18.0906 C   0  0  0  0  0  0  0  0  0  0  0  0
    4.7813    5.0829   19.0102 O   0  0  0  0  0  0  0  0  0  0  0  0
    6.2649    5.5222   17.2926 N   0  0  0  0  0  0  0  0  0  0  0  0
    6.4236    6.1515   16.5523 H   0  0  0  0  0  0  0  0  0  0  0  0
    7.1724    4.4664   17.4030 C   0  0  0  0  0  0  0  0  0  0  0  0
    7.2439    3.3937   16.5298 C   0  0  0  0  0  0  0  0  0  0  0  0
    8.2013    2.4031   16.7636 C   0  0  0  0  0  0  0  0  0  0  0  0
    8.2735    1.0749   15.6587 Cl  0  0  0  0  0  0  0  0  0  0  0  0
    9.0563    2.5015   17.8564 C   0  0  0  0  0  0  0  0  0  0  0  0
   10.2665    1.3369   18.2307 Cl  0  0  0  0  0  0  0  0  0  0  0  0
    8.9065    3.6070   18.6750 C   0  0  0  0  0  0  0  0  0  0  0  0
    7.9868    4.5835   18.4732 N   0  0  0  0  0  0  0  0  0  0  0  0
    5.6379    8.3169   19.3924 N   0  0  0  0  0  0  0  0  0  0  0  0
    5.5166    8.0188   20.7453 C   0  0  0  0  0  0  0  0  0  0  0  0
    4.4424    7.7419   21.2744 O   0  0  0  0  0  0  0  0  0  0  0  0
    6.5246    8.6085   19.0795 H   0  0  0  0  0  0  0  0  0  0  0  0
    6.7582    8.1559   21.5164 C   0  0  0  0  0  0  0  0  0  0  0  0
    8.2495    8.4964   20.7306 S   0  0  0  0  0  0  0  0  0  0  0  0
    9.1107    8.4977   22.1959 C   0  0  0  0  0  0  0  0  0  0  0  0
    8.3125    8.2461   23.2966 C   0  0  0  0  0  0  0  0  0  0  0  0
    6.9441    8.0362   22.8873 C   0  0  0  0  0  0  0  0  0  0  0  0
    5.7032    7.6666   24.0230 Cl  0  0  0  0  0  0  0  0  0  0  0  0
    8.8457    8.1927   24.7109 C   0  0  0  0  0  0  0  0  0  0  0  0
   10.1720    8.7676   24.9320 N   0  0  0  0  0  0  0  0  0  0  0  0
   10.4050   10.1110   24.4310 C   0  0  0  0  0  0  0  0  0  0  0  0
   11.0355    8.2509   25.8593 C   0  0  0  0  0  0  0  0  0  0  0  0
   10.7197    7.6371   26.9544 N   0  0  0  0  0  0  0  0  0  0  0  0
   12.0067    7.3654   27.5989 C   0  0  0  0  0  0  0  0  0  0  0  0
   13.0430    7.6448   26.5393 C   0  0  0  0  0  0  0  0  0  0  0  0
   12.3531    8.4278   25.5815 O   0  0  0  0  0  0  0  0  0  0  0  0
    4.4472   11.5527   18.4726 C   0  0  0  0  0  0  0  0  0  0  0  0
    3.7597   10.4108   18.9849 O   0  0  0  0  0  0  0  0  0  0  0  0
 38 39  1  0
 39  1  1  0
  1  2  2  0
  2  3  1  0
  3  4  1  0
  3  5  2  0
  5  6  1  0
  6  8  1  0
  8  9  2  0
  8 10  1  0
 10 12  1  0
 12 13  2  0
 13 14  1  0
 14 15  1  0
 14 16  2  0
 16 17  1  0
 16 18  1  0
 18 19  2  0
  6  7  2  0
  7 20  1  0
 20 21  1  0
 21 22  2  0
 21 24  1  0
 24 25  1  0
 25 26  1  0
 26 27  2  0
 27 30  1  0
 30 31  1  0
 31 32  1  0
 31 33  1  0
 33 34  2  0
 34 35  1  0
 35 36  1  0
 36 37  1  0
 27 28  1  0
 28 29  1  0
  7  1  1  0
 28 24  2  0
 19 12  1  0
 37 33  1  0
 10 11  1  0
 20 23  1  0
M  END
> <minimizedAffinity>
-7.86792

> <CNNscore>
0.2545900941

> <CNNaffinity>
7.3933701515

> <CNN_VS>
1.8822788000

> <CNNaffinity_variance>
0.2637995183

$$$$



 39 42  0  0  0  0  0  0  0  0999 V2000
    0.8368    6.5839   23.9037 C   0  0  0  0  0  0  0  0  0  0  0  0
   -0.0712    7.1644   24.7971 C   0  0  0  0  0  0  0  0  0  0  0  0
    0.3341    8.2146   25.6111 C   0  0  0  0  0  0  0  0  0  0  0  0
   -0.7764    8.9078   26.7279 Cl  0  0  0  0  0  0  0  0  0  0  0  0
    1.6181    8.7398   25.5043 C   0  0  0  0  0  0  0  0  0  0  0  0
    2.5252    8.1977   24.5781 C   0  0  0  0  0  0  0  0  0  0  0  0
    2.1639    7.0561   23.8205 C   0  0  0  0  0  0  0  0  0  0  0  0
    3.8798    8.8225   24.4260 C   0  0  0  0  0  0  0  0  0  0  0  0
    3.9906   10.0373   24.5542 O   0  0  0  0  0  0  0  0  0  0  0  0
    4.9230    7.9493   24.2146 N   0  0  0  0  0  0  0  0  0  0  0  0
    4.6880    6.9935   24.1951 H   0  0  0  0  0  0  0  0  0  0  0  0
    6.2732    8.2513   24.0245 C   0  0  0  0  0  0  0  0  0  0  0  0
    6.9128    8.2646   22.7961 C   0  0  0  0  0  0  0  0  0  0  0  0
    8.2730    8.5814   22.7532 C   0  0  0  0  0  0  0  0  0  0  0  0
    9.0494    8.5941   21.2081 Cl  0  0  0  0  0  0  0  0  0  0  0  0
    8.9605    8.8715   23.9271 C   0  0  0  0  0  0  0  0  0  0  0  0
   10.6329    9.2726   23.9808 Cl  0  0  0  0  0  0  0  0  0  0  0  0
    8.2379    8.8288   25.1064 C   0  0  0  0  0  0  0  0  0  0  0  0
    6.9179    8.5244   25.1787 N   0  0  0  0  0  0  0  0  0  0  0  0
    3.1323    6.4526   22.9742 N   0  0  0  0  0  0  0  0  0  0  0  0
    3.5525    5.1276   23.0164 C   0  0  0  0  0  0  0  0  0  0  0  0
    3.1861    4.3382   23.8841 O   0  0  0  0  0  0  0  0  0  0  0  0
    3.5463    7.0285   22.2914 H   0  0  0  0  0  0  0  0  0  0  0  0
    4.5474    4.7680   21.9986 C   0  0  0  0  0  0  0  0  0  0  0  0
    5.1854    5.9569   20.9323 S   0  0  0  0  0  0  0  0  0  0  0  0
    6.1795    4.8270   20.1424 C   0  0  0  0  0  0  0  0  0  0  0  0
    6.0595    3.5469   20.6512 C   0  0  0  0  0  0  0  0  0  0  0  0
    5.0957    3.5217   21.7258 C   0  0  0  0  0  0  0  0  0  0  0  0
    4.6925    2.0641   22.5499 Cl  0  0  0  0  0  0  0  0  0  0  0  0
    6.8383    2.3665   20.1148 C   0  0  0  0  0  0  0  0  0  0  0  0
    6.8011    2.1620   18.6673 N   0  0  0  0  0  0  0  0  0  0  0  0
    5.5830    2.5437   17.9741 C   0  0  0  0  0  0  0  0  0  0  0  0
    7.9427    1.9709   17.9374 C   0  0  0  0  0  0  0  0  0  0  0  0
    8.0538    2.0113   16.6483 N   0  0  0  0  0  0  0  0  0  0  0  0
    9.4557    1.6693   16.3968 C   0  0  0  0  0  0  0  0  0  0  0  0
   10.1279    1.7526   17.7443 C   0  0  0  0  0  0  0  0  0  0  0  0
    9.0550    1.6991   18.6678 O   0  0  0  0  0  0  0  0  0  0  0  0
   -0.9127    5.9457   22.4699 C   0  0  0  0  0  0  0  0  0  0  0  0
    0.3979    5.6774   22.9691 O   0  0  0  0  0  0  0  0  0  0  0  0
 38 39  1  0
 39  1  1  0
  1  2  2  0
  2  3  1  0
  3  4  1  0
  3  5  2  0
  5  6  1  0
  6  8  1  0
  8  9  2  0
  8 10  1  0
 10 12  1  0
 12 13  2  0
 13 14  1  0
 14 15  1  0
 14 16  2  0
 16 17  1  0
 16 18  1  0
 18 19  2  0
  6  7  2  0
  7 20  1  0
 20 21  1  0
 21 22  2  0
 21 24  1  0
 24 25  1  0
 25 26  1  0
 26 27  2  0
 27 30  1  0
 30 31  1  0
 31 32  1  0
 31 33  1  0
 33 34  2  0
 34 35  1  0
 35 36  1  0
 36 37  1  0
 27 28  1  0
 28 29  1  0
  7  1  1  0
 28 24  2  0
 19 12  1  0
 37 33  1  0
 10 11  1  0
 20 23  1  0
M  END
> <minimizedAffinity>
-7.51240

> <CNNscore>
0.2474836856

> <CNNaffinity>
7.1403498650

> <CNN_VS>
1.7671201229

> <CNNaffinity_variance>
0.5447440147

$$$$
