


 42 45  0  0  0  0  0  0  0  0999 V2000
   -2.1727   19.3157   18.0339 C   0  0  0  0  0  0  0  0  0  0  0  0
   -0.6477   19.2158   18.2182 C   0  0  0  0  0  0  0  0  0  0  0  0
   -0.0204   18.2857   17.7005 O   0  0  0  0  0  0  0  0  0  0  0  0
   -0.0457   20.1304   19.0891 N   0  0  0  0  0  0  0  0  0  0  0  0
   -0.3422   21.5616   18.9477 C   0  0  0  0  0  0  0  0  0  0  0  0
    0.9081   22.3806   18.5846 C   0  0  0  0  0  0  0  0  0  0  0  0
    1.8734   21.5751   17.7110 C   0  0  0  0  0  0  0  0  0  0  0  0
    2.3139   20.2675   18.3914 C   0  0  0  0  0  0  0  0  0  0  0  0
    1.3407   19.8479   19.5005 C   0  0  0  0  0  0  0  0  0  0  0  0
    1.5419   18.4287   20.0535 C   0  0  0  0  0  0  0  0  0  0  0  0
    0.7340   17.7854   20.7096 O   0  0  0  0  0  0  0  0  0  0  0  0
    2.7781   17.9326   19.8434 O   0  0  0  0  0  0  0  0  0  0  0  0
    3.4002   18.4217   19.3416 H   0  0  0  0  0  0  0  0  0  0  0  0
   -2.4420   19.2412   16.5724 N   0  0  0  0  0  0  0  0  0  0  0  0
   -3.2694   18.6596   16.4404 H   0  0  0  0  0  0  0  0  0  0  0  0
   -2.7108   20.6942   15.7768 S   0  0  0  0  0  0  0  0  0  0  0  0
   -2.2758   21.7776   16.6322 O   0  0  0  0  0  0  0  0  0  0  0  0
   -2.1953   20.5312   14.4362 O   0  0  0  0  0  0  0  0  0  0  0  0
   -4.4820   20.7076   15.6782 C   0  0  0  0  0  0  0  0  0  0  0  0
   -5.1112   21.5492   14.7589 C   0  0  0  0  0  0  0  0  0  0  0  0
   -6.5036   21.5500   14.6693 C   0  0  0  0  0  0  0  0  0  0  0  0
   -7.2756   20.7136   15.4928 C   0  0  0  0  0  0  0  0  0  0  0  0
   -8.6756   20.6851   15.3937 C   0  0  0  0  0  0  0  0  0  0  0  0
   -9.4317   19.8388   16.2068 C   0  0  0  0  0  0  0  0  0  0  0  0
   -8.7978   19.0132   17.1304 C   0  0  0  0  0  0  0  0  0  0  0  0
   -7.4067   19.0324   17.2457 C   0  0  0  0  0  0  0  0  0  0  0  0
   -6.6309   19.8747   16.4338 C   0  0  0  0  0  0  0  0  0  0  0  0
   -5.2309   19.8872   16.5262 C   0  0  0  0  0  0  0  0  0  0  0  0
   -2.8414   18.1333   18.7506 C   0  0  0  0  0  0  0  0  0  0  0  0
   -1.8872   15.0092   16.7724 C   0  0  0  0  0  0  0  0  0  0  0  0
   -0.8997   14.4488   17.5854 C   0  0  0  0  0  0  0  0  0  0  0  0
   -0.5657   15.0721   18.7870 C   0  0  0  0  0  0  0  0  0  0  0  0
    0.6661   14.3933   19.7800 Cl  0  0  0  0  0  0  0  0  0  0  0  0
   -1.2031   16.2482   19.1864 C   0  0  0  0  0  0  0  0  0  0  0  0
   -2.1908   16.8199   18.3769 C   0  0  0  0  0  0  0  0  0  0  0  0
   -2.5281   16.1900   17.1699 C   0  0  0  0  0  0  0  0  0  0  0  0
   -3.4714   14.4642   15.0434 N   0  0  0  0  0  0  0  0  0  0  0  0
   -2.2481   14.3915   15.4625 C   0  0  0  0  0  0  0  0  0  0  0  0
   -1.3111   13.7470   14.7082 N   0  0  0  0  0  0  0  0  0  0  0  0
   -3.7210   14.0605   14.1809 H   0  0  0  0  0  0  0  0  0  0  0  0
   -1.5649   13.3446   13.8463 H   0  0  0  0  0  0  0  0  0  0  0  0
   -0.3814   13.6843   15.0260 H   0  0  0  0  0  0  0  0  0  0  0  0
 37 38  2  0
 38 39  1  0
 38 30  1  0
 30 31  2  0
 31 32  1  0
 32 33  1  0
 32 34  2  0
 34 35  1  0
 35 29  1  0
  1 29  1  0
  1 14  1  0
 14 16  1  0
 16 17  2  0
 16 18  2  0
 16 19  1  0
 19 20  2  0
 20 21  1  0
 21 22  2  0
 22 23  1  0
 23 24  2  0
 24 25  1  0
 25 26  2  0
 26 27  1  0
 27 28  2  0
  1  2  1  0
  2  3  2  0
  2  4  1  0
  4  5  1  0
  5  6  1  0
  6  7  1  0
  7  8  1  0
  8  9  1  0
  9 10  1  0
 10 11  2  0
 10 12  1  0
 35 36  2  0
 36 30  1  0
 28 19  1  0
  9  4  1  0
 27 22  1  0
 37 40  1  0
 39 41  1  0
 39 42  1  0
 14 15  1  0
 12 13  1  0
M  END
> <minimizedAffinity>
-6.92328

> <CNNscore>
0.7905682921

> <CNNaffinity>
7.6094150543

> <CNN_VS>
6.0157623291

> <CNNaffinity_variance>
0.2076620907

$$$$



 42 45  0  0  0  0  0  0  0  0999 V2000
   -2.8997   19.3589   17.2448 C   0  0  0  0  0  0  0  0  0  0  0  0
   -2.1454   18.3903   18.1735 C   0  0  0  0  0  0  0  0  0  0  0  0
   -2.2710   18.4826   19.3992 O   0  0  0  0  0  0  0  0  0  0  0  0
   -1.2320   17.5128   17.5794 N   0  0  0  0  0  0  0  0  0  0  0  0
   -1.6493   16.7162   16.4186 C   0  0  0  0  0  0  0  0  0  0  0  0
   -1.6142   15.2059   16.7077 C   0  0  0  0  0  0  0  0  0  0  0  0
   -1.9550   14.9055   18.1698 C   0  0  0  0  0  0  0  0  0  0  0  0
   -1.0036   15.6221   19.1435 C   0  0  0  0  0  0  0  0  0  0  0  0
   -0.2986   16.8109   18.4780 C   0  0  0  0  0  0  0  0  0  0  0  0
    0.4596   17.7472   19.4315 C   0  0  0  0  0  0  0  0  0  0  0  0
    0.8113   18.8945   19.1927 O   0  0  0  0  0  0  0  0  0  0  0  0
    0.8252   17.1638   20.5910 O   0  0  0  0  0  0  0  0  0  0  0  0
    0.5581   16.2854   20.7781 H   0  0  0  0  0  0  0  0  0  0  0  0
   -2.0420   19.5736   16.0480 N   0  0  0  0  0  0  0  0  0  0  0  0
   -2.5121   19.1450   15.2507 H   0  0  0  0  0  0  0  0  0  0  0  0
   -1.6972   21.1643   15.6389 S   0  0  0  0  0  0  0  0  0  0  0  0
   -2.2659   21.4410   14.3370 O   0  0  0  0  0  0  0  0  0  0  0  0
   -2.0230   21.9670   16.7961 O   0  0  0  0  0  0  0  0  0  0  0  0
    0.0704   21.1064   15.4999 C   0  0  0  0  0  0  0  0  0  0  0  0
    0.8281   20.6433   16.5772 C   0  0  0  0  0  0  0  0  0  0  0  0
    2.2174   20.5827   16.4642 C   0  0  0  0  0  0  0  0  0  0  0  0
    2.8586   20.9816   15.2796 C   0  0  0  0  0  0  0  0  0  0  0  0
    4.2534   20.9001   15.1434 C   0  0  0  0  0  0  0  0  0  0  0  0
    4.8786   21.2853   13.9560 C   0  0  0  0  0  0  0  0  0  0  0  0
    4.1173   21.7591   12.8918 C   0  0  0  0  0  0  0  0  0  0  0  0
    2.7296   21.8515   13.0117 C   0  0  0  0  0  0  0  0  0  0  0  0
    2.0845   21.4654   14.1972 C   0  0  0  0  0  0  0  0  0  0  0  0
    0.6886   21.5340   14.3217 C   0  0  0  0  0  0  0  0  0  0  0  0
   -4.2306   18.7165   16.8269 C   0  0  0  0  0  0  0  0  0  0  0  0
   -7.8158   19.6205   17.7823 C   0  0  0  0  0  0  0  0  0  0  0  0
   -7.6132   20.4833   18.8615 C   0  0  0  0  0  0  0  0  0  0  0  0
   -6.3126   20.7907   19.2587 C   0  0  0  0  0  0  0  0  0  0  0  0
   -6.0620   21.8380   20.6021 Cl  0  0  0  0  0  0  0  0  0  0  0  0
   -5.2120   20.2468   18.5939 C   0  0  0  0  0  0  0  0  0  0  0  0
   -5.4045   19.3779   17.5142 C   0  0  0  0  0  0  0  0  0  0  0  0
   -6.7134   19.0721   17.1137 C   0  0  0  0  0  0  0  0  0  0  0  0
  -10.2132   19.7549   17.9567 N   0  0  0  0  0  0  0  0  0  0  0  0
   -9.1922   19.2392   17.3492 C   0  0  0  0  0  0  0  0  0  0  0  0
   -9.3874   18.3518   16.3310 N   0  0  0  0  0  0  0  0  0  0  0  0
  -11.1258   19.5107   17.6796 H   0  0  0  0  0  0  0  0  0  0  0  0
  -10.3016   18.1104   16.0569 H   0  0  0  0  0  0  0  0  0  0  0  0
   -8.6140   17.9530   15.8706 H   0  0  0  0  0  0  0  0  0  0  0  0
 37 38  2  0
 38 39  1  0
 38 30  1  0
 30 31  2  0
 31 32  1  0
 32 33  1  0
 32 34  2  0
 34 35  1  0
 35 29  1  0
  1 29  1  0
  1 14  1  0
 14 16  1  0
 16 17  2  0
 16 18  2  0
 16 19  1  0
 19 20  2  0
 20 21  1  0
 21 22  2  0
 22 23  1  0
 23 24  2  0
 24 25  1  0
 25 26  2  0
 26 27  1  0
 27 28  2  0
  1  2  1  0
  2  3  2  0
  2  4  1  0
  4  5  1  0
  5  6  1  0
  6  7  1  0
  7  8  1  0
  8  9  1  0
  9 10  1  0
 10 11  2  0
 10 12  1  0
 35 36  2  0
 36 30  1  0
 28 19  1  0
  9  4  1  0
 27 22  1  0
 37 40  1  0
 39 41  1  0
 39 42  1  0
 14 15  1  0
 12 13  1  0
M  END
> <minimizedAffinity>
-8.41488

> <CNNscore>
0.2877975702

> <CNNaffinity>
6.6230425835

> <CNN_VS>
1.9060955048

> <CNNaffinity_variance>
0.4993688166

$$$$



 42 45  0  0  0  0  0  0  0  0999 V2000
   -4.7286   19.1856   16.8555 C   0  0  0  0  0  0  0  0  0  0  0  0
   -6.1748   19.6891   17.0127 C   0  0  0  0  0  0  0  0  0  0  0  0
   -6.7069   19.7076   18.1276 O   0  0  0  0  0  0  0  0  0  0  0  0
   -6.8803   19.9886   15.8423 N   0  0  0  0  0  0  0  0  0  0  0  0
   -6.2605   20.8516   14.8287 C   0  0  0  0  0  0  0  0  0  0  0  0
   -7.0432   22.1595   14.6223 C   0  0  0  0  0  0  0  0  0  0  0  0
   -7.6994   22.6329   15.9220 C   0  0  0  0  0  0  0  0  0  0  0  0
   -8.6461   21.5726   16.5104 C   0  0  0  0  0  0  0  0  0  0  0  0
   -8.3370   20.1711   15.9686 C   0  0  0  0  0  0  0  0  0  0  0  0
   -9.0422   19.0132   16.6916 C   0  0  0  0  0  0  0  0  0  0  0  0
   -9.4972   19.0379   17.8271 O   0  0  0  0  0  0  0  0  0  0  0  0
   -9.0490   17.8592   15.9940 O   0  0  0  0  0  0  0  0  0  0  0  0
   -8.7017   17.8356   15.1241 H   0  0  0  0  0  0  0  0  0  0  0  0
   -3.9442   20.2932   16.2455 N   0  0  0  0  0  0  0  0  0  0  0  0
   -4.4536   20.6149   15.4224 H   0  0  0  0  0  0  0  0  0  0  0  0
   -3.6453   21.6316   17.2126 S   0  0  0  0  0  0  0  0  0  0  0  0
   -3.9392   22.8273   16.4519 O   0  0  0  0  0  0  0  0  0  0  0  0
   -4.2754   21.3681   18.4867 O   0  0  0  0  0  0  0  0  0  0  0  0
   -1.8905   21.5046   17.4397 C   0  0  0  0  0  0  0  0  0  0  0  0
   -1.3431   21.7446   18.7014 C   0  0  0  0  0  0  0  0  0  0  0  0
    0.0352   21.6303   18.8854 C   0  0  0  0  0  0  0  0  0  0  0  0
    0.8745   21.2763   17.8158 C   0  0  0  0  0  0  0  0  0  0  0  0
    2.2594   21.1316   17.9939 C   0  0  0  0  0  0  0  0  0  0  0  0
    3.0819   20.7648   16.9271 C   0  0  0  0  0  0  0  0  0  0  0  0
    2.5303   20.5410   15.6692 C   0  0  0  0  0  0  0  0  0  0  0  0
    1.1557   20.6853   15.4731 C   0  0  0  0  0  0  0  0  0  0  0  0
    0.3138   21.0503   16.5355 C   0  0  0  0  0  0  0  0  0  0  0  0
   -1.0719   21.1779   16.3552 C   0  0  0  0  0  0  0  0  0  0  0  0
   -4.1639   18.8461   18.2428 C   0  0  0  0  0  0  0  0  0  0  0  0
   -1.9559   15.8852   17.2723 C   0  0  0  0  0  0  0  0  0  0  0  0
   -0.7265   16.2556   17.8213 C   0  0  0  0  0  0  0  0  0  0  0  0
   -0.6243   17.4529   18.5285 C   0  0  0  0  0  0  0  0  0  0  0  0
    0.8957   17.9205   19.1880 Cl  0  0  0  0  0  0  0  0  0  0  0  0
   -1.7327   18.2856   18.6932 C   0  0  0  0  0  0  0  0  0  0  0  0
   -2.9680   17.9254   18.1434 C   0  0  0  0  0  0  0  0  0  0  0  0
   -3.0700   16.7191   17.4350 C   0  0  0  0  0  0  0  0  0  0  0  0
   -2.8786   14.6171   15.4456 N   0  0  0  0  0  0  0  0  0  0  0  0
   -2.0976   14.6292   16.4787 C   0  0  0  0  0  0  0  0  0  0  0  0
   -1.4238   13.4960   16.8313 N   0  0  0  0  0  0  0  0  0  0  0  0
   -2.9798   13.7943   14.9146 H   0  0  0  0  0  0  0  0  0  0  0  0
   -1.5278   12.6753   16.2976 H   0  0  0  0  0  0  0  0  0  0  0  0
   -0.8338   13.4992   17.6194 H   0  0  0  0  0  0  0  0  0  0  0  0
 37 38  2  0
 38 39  1  0
 38 30  1  0
 30 31  2  0
 31 32  1  0
 32 33  1  0
 32 34  2  0
 34 35  1  0
 35 29  1  0
  1 29  1  0
  1 14  1  0
 14 16  1  0
 16 17  2  0
 16 18  2  0
 16 19  1  0
 19 20  2  0
 20 21  1  0
 21 22  2  0
 22 23  1  0
 23 24  2  0
 24 25  1  0
 25 26  2  0
 26 27  1  0
 27 28  2  0
  1  2  1  0
  2  3  2  0
  2  4  1  0
  4  5  1  0
  5  6  1  0
  6  7  1  0
  7  8  1  0
  8  9  1  0
  9 10  1  0
 10 11  2  0
 10 12  1  0
 35 36  2  0
 36 30  1  0
 28 19  1  0
  9  4  1  0
 27 22  1  0
 37 40  1  0
 39 41  1  0
 39 42  1  0
 14 15  1  0
 12 13  1  0
M  END
> <minimizedAffinity>
-7.55536

> <CNNscore>
0.2497982681

> <CNNaffinity>
6.1530995369

> <CNN_VS>
1.5370335579

> <CNNaffinity_variance>
0.0450941883

$$$$



 42 45  0  0  0  0  0  0  0  0999 V2000
   -6.3337   20.1230   16.7415 C   0  0  0  0  0  0  0  0  0  0  0  0
   -6.8949   20.1661   18.1742 C   0  0  0  0  0  0  0  0  0  0  0  0
   -6.8362   19.1630   18.8933 O   0  0  0  0  0  0  0  0  0  0  0  0
   -7.5766   21.3248   18.5615 N   0  0  0  0  0  0  0  0  0  0  0  0
   -6.9565   22.6359   18.3315 C   0  0  0  0  0  0  0  0  0  0  0  0
   -6.6766   23.3845   19.6456 C   0  0  0  0  0  0  0  0  0  0  0  0
   -6.3317   22.4171   20.7810 C   0  0  0  0  0  0  0  0  0  0  0  0
   -7.4492   21.3874   21.0218 C   0  0  0  0  0  0  0  0  0  0  0  0
   -8.3689   21.2508   19.8016 C   0  0  0  0  0  0  0  0  0  0  0  0
   -9.3443   20.0644   19.8394 C   0  0  0  0  0  0  0  0  0  0  0  0
   -9.4312   19.2258   20.7261 O   0  0  0  0  0  0  0  0  0  0  0  0
  -10.0858   19.9332   18.7207 O   0  0  0  0  0  0  0  0  0  0  0  0
  -10.0225   20.5729   18.0390 H   0  0  0  0  0  0  0  0  0  0  0  0
   -5.2057   19.1525   16.7431 N   0  0  0  0  0  0  0  0  0  0  0  0
   -5.2533   18.6229   15.8727 H   0  0  0  0  0  0  0  0  0  0  0  0
   -3.6582   19.7902   16.8653 S   0  0  0  0  0  0  0  0  0  0  0  0
   -3.2065   20.1655   15.5425 O   0  0  0  0  0  0  0  0  0  0  0  0
   -3.6888   20.7394   17.9551 O   0  0  0  0  0  0  0  0  0  0  0  0
   -2.7450   18.3700   17.4094 C   0  0  0  0  0  0  0  0  0  0  0  0
   -2.0861   18.4085   18.6398 C   0  0  0  0  0  0  0  0  0  0  0  0
   -1.3801   17.2871   19.0763 C   0  0  0  0  0  0  0  0  0  0  0  0
   -1.3268   16.1230   18.2916 C   0  0  0  0  0  0  0  0  0  0  0  0
   -0.6426   14.9789   18.7315 C   0  0  0  0  0  0  0  0  0  0  0  0
   -0.6089   13.8225   17.9499 C   0  0  0  0  0  0  0  0  0  0  0  0
   -1.2564   13.7970   16.7184 C   0  0  0  0  0  0  0  0  0  0  0  0
   -1.9374   14.9274   16.2632 C   0  0  0  0  0  0  0  0  0  0  0  0
   -1.9840   16.0972   17.0377 C   0  0  0  0  0  0  0  0  0  0  0  0
   -2.6830   17.2324   16.6000 C   0  0  0  0  0  0  0  0  0  0  0  0
   -7.4366   19.6426   15.7867 C   0  0  0  0  0  0  0  0  0  0  0  0
   -9.2921   21.5897   13.0757 C   0  0  0  0  0  0  0  0  0  0  0  0
   -8.4467   22.6843   12.8831 C   0  0  0  0  0  0  0  0  0  0  0  0
   -7.2629   22.7734   13.6143 C   0  0  0  0  0  0  0  0  0  0  0  0
   -6.2301   24.1329   13.3927 Cl  0  0  0  0  0  0  0  0  0  0  0  0
   -6.9132   21.7851   14.5363 C   0  0  0  0  0  0  0  0  0  0  0  0
   -7.7556   20.6865   14.7396 C   0  0  0  0  0  0  0  0  0  0  0  0
   -8.9446   20.5966   14.0010 C   0  0  0  0  0  0  0  0  0  0  0  0
  -10.7394   20.5239   11.4740 N   0  0  0  0  0  0  0  0  0  0  0  0
  -10.5846   21.4760   12.3382 C   0  0  0  0  0  0  0  0  0  0  0  0
  -11.5980   22.3637   12.5563 N   0  0  0  0  0  0  0  0  0  0  0  0
  -11.5877   20.4391   10.9816 H   0  0  0  0  0  0  0  0  0  0  0  0
  -12.4447   22.2753   12.0619 H   0  0  0  0  0  0  0  0  0  0  0  0
  -11.4823   23.0924   13.2081 H   0  0  0  0  0  0  0  0  0  0  0  0
 37 38  2  0
 38 39  1  0
 38 30  1  0
 30 31  2  0
 31 32  1  0
 32 33  1  0
 32 34  2  0
 34 35  1  0
 35 29  1  0
  1 29  1  0
  1 14  1  0
 14 16  1  0
 16 17  2  0
 16 18  2  0
 16 19  1  0
 19 20  2  0
 20 21  1  0
 21 22  2  0
 22 23  1  0
 23 24  2  0
 24 25  1  0
 25 26  2  0
 26 27  1  0
 27 28  2  0
  1  2  1  0
  2  3  2  0
  2  4  1  0
  4  5  1  0
  5  6  1  0
  6  7  1  0
  7  8  1  0
  8  9  1  0
  9 10  1  0
 10 11  2  0
 10 12  1  0
 35 36  2  0
 36 30  1  0
 28 19  1  0
  9  4  1  0
 27 22  1  0
 37 40  1  0
 39 41  1  0
 39 42  1  0
 14 15  1  0
 12 13  1  0
M  END
> <minimizedAffinity>
-7.65617

> <CNNscore>
0.2223176509

> <CNNaffinity>
5.3335204124

> <CNN_VS>
1.1857357025

> <CNNaffinity_variance>
0.6222794056

$$$$



 42 45  0  0  0  0  0  0  0  0999 V2000
   -6.4205   20.2945   17.1467 C   0  0  0  0  0  0  0  0  0  0  0  0
   -7.0806   20.6272   18.4970 C   0  0  0  0  0  0  0  0  0  0  0  0
   -6.8607   19.9193   19.4855 O   0  0  0  0  0  0  0  0  0  0  0  0
   -8.0210   21.6629   18.5133 N   0  0  0  0  0  0  0  0  0  0  0  0
   -7.6811   22.9537   17.9014 C   0  0  0  0  0  0  0  0  0  0  0  0
   -7.6644   24.0975   18.9296 C   0  0  0  0  0  0  0  0  0  0  0  0
   -7.2038   23.6093   20.3057 C   0  0  0  0  0  0  0  0  0  0  0  0
   -8.0891   22.4705   20.8406 C   0  0  0  0  0  0  0  0  0  0  0  0
   -8.8670   21.7782   19.7141 C   0  0  0  0  0  0  0  0  0  0  0  0
   -9.5657   20.4664   20.1035 C   0  0  0  0  0  0  0  0  0  0  0  0
   -9.5432   19.9326   21.2042 O   0  0  0  0  0  0  0  0  0  0  0  0
  -10.1681   19.8429   19.0706 O   0  0  0  0  0  0  0  0  0  0  0  0
  -10.1877   20.2479   18.2259 H   0  0  0  0  0  0  0  0  0  0  0  0
   -5.3629   19.2827   17.4150 N   0  0  0  0  0  0  0  0  0  0  0  0
   -5.5399   18.4829   16.8071 H   0  0  0  0  0  0  0  0  0  0  0  0
   -3.7742   19.7646   17.1701 S   0  0  0  0  0  0  0  0  0  0  0  0
   -3.5825   20.0279   15.7599 O   0  0  0  0  0  0  0  0  0  0  0  0
   -3.4872   20.7633   18.1749 O   0  0  0  0  0  0  0  0  0  0  0  0
   -2.8968   18.2866   17.6092 C   0  0  0  0  0  0  0  0  0  0  0  0
   -2.3122   18.1861   18.8731 C   0  0  0  0  0  0  0  0  0  0  0  0
   -1.6348   17.0185   19.2258 C   0  0  0  0  0  0  0  0  0  0  0  0
   -1.5366   15.9461   18.3235 C   0  0  0  0  0  0  0  0  0  0  0  0
   -0.8812   14.7557   18.6758 C   0  0  0  0  0  0  0  0  0  0  0  0
   -0.8028   13.6908   17.7764 C   0  0  0  0  0  0  0  0  0  0  0  0
   -1.3760   13.8042   16.5134 C   0  0  0  0  0  0  0  0  0  0  0  0
   -2.0272   14.9826   16.1447 C   0  0  0  0  0  0  0  0  0  0  0  0
   -2.1182   16.0618   17.0378 C   0  0  0  0  0  0  0  0  0  0  0  0
   -2.7884   17.2432   16.6859 C   0  0  0  0  0  0  0  0  0  0  0  0
   -7.4804   19.7068   16.2035 C   0  0  0  0  0  0  0  0  0  0  0  0
   -7.0250   22.2097   13.3553 C   0  0  0  0  0  0  0  0  0  0  0  0
   -8.3266   22.3177   12.8612 C   0  0  0  0  0  0  0  0  0  0  0  0
   -9.3535   21.5985   13.4714 C   0  0  0  0  0  0  0  0  0  0  0  0
  -10.9549   21.7149   12.8501 Cl  0  0  0  0  0  0  0  0  0  0  0  0
   -9.0975   20.7719   14.5670 C   0  0  0  0  0  0  0  0  0  0  0  0
   -7.7960   20.6536   15.0669 C   0  0  0  0  0  0  0  0  0  0  0  0
   -6.7645   21.3801   14.4540 C   0  0  0  0  0  0  0  0  0  0  0  0
   -5.8672   23.0477   11.4180 N   0  0  0  0  0  0  0  0  0  0  0  0
   -5.8930   22.9356   12.7080 C   0  0  0  0  0  0  0  0  0  0  0  0
   -4.8851   23.4733   13.4546 N   0  0  0  0  0  0  0  0  0  0  0  0
   -5.1254   23.5244   10.9800 H   0  0  0  0  0  0  0  0  0  0  0  0
   -4.1452   23.9493   13.0127 H   0  0  0  0  0  0  0  0  0  0  0  0
   -4.8978   23.3852   14.4350 H   0  0  0  0  0  0  0  0  0  0  0  0
 37 38  2  0
 38 39  1  0
 38 30  1  0
 30 31  2  0
 31 32  1  0
 32 33  1  0
 32 34  2  0
 34 35  1  0
 35 29  1  0
  1 29  1  0
  1 14  1  0
 14 16  1  0
 16 17  2  0
 16 18  2  0
 16 19  1  0
 19 20  2  0
 20 21  1  0
 21 22  2  0
 22 23  1  0
 23 24  2  0
 24 25  1  0
 25 26  2  0
 26 27  1  0
 27 28  2  0
  1  2  1  0
  2  3  2  0
  2  4  1  0
  4  5  1  0
  5  6  1  0
  6  7  1  0
  7  8  1  0
  8  9  1  0
  9 10  1  0
 10 11  2  0
 10 12  1  0
 35 36  2  0
 36 30  1  0
 28 19  1  0
  9  4  1  0
 27 22  1  0
 37 40  1  0
 39 41  1  0
 39 42  1  0
 14 15  1  0
 12 13  1  0
M  END
> <minimizedAffinity>
-6.87420

> <CNNscore>
0.1730453968

> <CNNaffinity>
5.2734398842

> <CNN_VS>
0.9125444889

> <CNNaffinity_variance>
0.4098548591

$$$$



 42 45  0  0  0  0  0  0  0  0999 V2000
    1.0714   21.3750   15.7186 C   0  0  0  0  0  0  0  0  0  0  0  0
    0.8712   22.4040   14.5912 C   0  0  0  0  0  0  0  0  0  0  0  0
    0.9184   23.6133   14.8402 O   0  0  0  0  0  0  0  0  0  0  0  0
    0.5092   21.9134   13.3320 N   0  0  0  0  0  0  0  0  0  0  0  0
    1.2781   20.8111   12.7403 C   0  0  0  0  0  0  0  0  0  0  0  0
    1.9788   21.2265   11.4357 C   0  0  0  0  0  0  0  0  0  0  0  0
    2.4020   22.6975   11.4687 C   0  0  0  0  0  0  0  0  0  0  0  0
    1.2083   23.6364   11.7146 C   0  0  0  0  0  0  0  0  0  0  0  0
    0.0232   22.8955   12.3470 C   0  0  0  0  0  0  0  0  0  0  0  0
   -1.1085   23.7900   12.8760 C   0  0  0  0  0  0  0  0  0  0  0  0
   -2.2174   23.4188   13.2358 O   0  0  0  0  0  0  0  0  0  0  0  0
   -0.8274   25.1081   12.8300 O   0  0  0  0  0  0  0  0  0  0  0  0
    0.0205   25.3971   12.5551 H   0  0  0  0  0  0  0  0  0  0  0  0
   -0.1945   20.6016   15.8339 N   0  0  0  0  0  0  0  0  0  0  0  0
    0.0045   19.6408   15.5552 H   0  0  0  0  0  0  0  0  0  0  0  0
   -0.9162   20.5515   17.3482 S   0  0  0  0  0  0  0  0  0  0  0  0
   -0.1007   21.3073   18.2748 O   0  0  0  0  0  0  0  0  0  0  0  0
   -2.3156   20.8532   17.1477 O   0  0  0  0  0  0  0  0  0  0  0  0
   -0.7840   18.8249   17.7333 C   0  0  0  0  0  0  0  0  0  0  0  0
   -0.0261   18.4242   18.8353 C   0  0  0  0  0  0  0  0  0  0  0  0
    0.0665   17.0678   19.1487 C   0  0  0  0  0  0  0  0  0  0  0  0
   -0.5945   16.1047   18.3682 C   0  0  0  0  0  0  0  0  0  0  0  0
   -0.5316   14.7394   18.6887 C   0  0  0  0  0  0  0  0  0  0  0  0
   -1.2048   13.7926   17.9145 C   0  0  0  0  0  0  0  0  0  0  0  0
   -1.9467   14.1988   16.8094 C   0  0  0  0  0  0  0  0  0  0  0  0
   -2.0161   15.5519   16.4734 C   0  0  0  0  0  0  0  0  0  0  0  0
   -1.3480   16.5175   17.2427 C   0  0  0  0  0  0  0  0  0  0  0  0
   -1.4277   17.8823   16.9269 C   0  0  0  0  0  0  0  0  0  0  0  0
    2.2261   20.4361   15.3392 C   0  0  0  0  0  0  0  0  0  0  0  0
    5.8969   21.4720   15.1494 C   0  0  0  0  0  0  0  0  0  0  0  0
    6.0377   22.2332   16.3116 C   0  0  0  0  0  0  0  0  0  0  0  0
    4.9478   22.3855   17.1677 C   0  0  0  0  0  0  0  0  0  0  0  0
    5.1145   23.3409   18.5903 Cl  0  0  0  0  0  0  0  0  0  0  0  0
    3.7191   21.7893   16.8778 C   0  0  0  0  0  0  0  0  0  0  0  0
    3.5666   21.0282   15.7137 C   0  0  0  0  0  0  0  0  0  0  0  0
    4.6648   20.8732   14.8550 C   0  0  0  0  0  0  0  0  0  0  0  0
    7.3694   20.1273   13.8006 N   0  0  0  0  0  0  0  0  0  0  0  0
    7.0294   21.3147   14.1902 C   0  0  0  0  0  0  0  0  0  0  0  0
    7.7132   22.4010   13.7268 N   0  0  0  0  0  0  0  0  0  0  0  0
    8.1149   20.0114   13.1681 H   0  0  0  0  0  0  0  0  0  0  0  0
    8.4580   22.2807   13.0943 H   0  0  0  0  0  0  0  0  0  0  0  0
    7.4618   23.3049   14.0251 H   0  0  0  0  0  0  0  0  0  0  0  0
 37 38  2  0
 38 39  1  0
 38 30  1  0
 30 31  2  0
 31 32  1  0
 32 33  1  0
 32 34  2  0
 34 35  1  0
 35 29  1  0
  1 29  1  0
  1 14  1  0
 14 16  1  0
 16 17  2  0
 16 18  2  0
 16 19  1  0
 19 20  2  0
 20 21  1  0
 21 22  2  0
 22 23  1  0
 23 24  2  0
 24 25  1  0
 25 26  2  0
 26 27  1  0
 27 28  2  0
  1  2  1  0
  2  3  2  0
  2  4  1  0
  4  5  1  0
  5  6  1  0
  6  7  1  0
  7  8  1  0
  8  9  1  0
  9 10  1  0
 10 11  2  0
 10 12  1  0
 35 36  2  0
 36 30  1  0
 28 19  1  0
  9  4  1  0
 27 22  1  0
 37 40  1  0
 39 41  1  0
 39 42  1  0
 14 15  1  0
 12 13  1  0
M  END
> <minimizedAffinity>
-8.25591

> <CNNscore>
0.1646659672

> <CNNaffinity>
5.7907824516

> <CNN_VS>
0.9535447955

> <CNNaffinity_variance>
0.5559929013

$$$$



 42 45  0  0  0  0  0  0  0  0999 V2000
   -0.1566   20.7653   16.7476 C   0  0  0  0  0  0  0  0  0  0  0  0
    0.8879   20.3149   17.7849 C   0  0  0  0  0  0  0  0  0  0  0  0
    1.4270   19.2080   17.6812 O   0  0  0  0  0  0  0  0  0  0  0  0
    1.0894   21.1439   18.8937 N   0  0  0  0  0  0  0  0  0  0  0  0
    1.3188   22.5794   18.6873 C   0  0  0  0  0  0  0  0  0  0  0  0
    2.7096   23.0211   19.1735 C   0  0  0  0  0  0  0  0  0  0  0  0
    3.7484   21.9119   18.9875 C   0  0  0  0  0  0  0  0  0  0  0  0
    3.3507   20.6194   19.7211 C   0  0  0  0  0  0  0  0  0  0  0  0
    1.8473   20.5766   20.0229 C   0  0  0  0  0  0  0  0  0  0  0  0
    1.3092   19.2213   20.5068 C   0  0  0  0  0  0  0  0  0  0  0  0
    0.3676   19.0456   21.2681 O   0  0  0  0  0  0  0  0  0  0  0  0
    2.0405   18.1662   20.0939 O   0  0  0  0  0  0  0  0  0  0  0  0
    2.7625   18.2960   19.5109 H   0  0  0  0  0  0  0  0  0  0  0  0
   -1.4271   21.0067   17.4834 N   0  0  0  0  0  0  0  0  0  0  0  0
   -1.6591   21.9948   17.3825 H   0  0  0  0  0  0  0  0  0  0  0  0
   -2.7652   20.1189   16.9956 S   0  0  0  0  0  0  0  0  0  0  0  0
   -3.9104   20.5433   17.7722 O   0  0  0  0  0  0  0  0  0  0  0  0
   -2.7745   20.1487   15.5504 O   0  0  0  0  0  0  0  0  0  0  0  0
   -2.2943   18.4849   17.5008 C   0  0  0  0  0  0  0  0  0  0  0  0
   -1.9191   18.2584   18.8263 C   0  0  0  0  0  0  0  0  0  0  0  0
   -1.5632   16.9708   19.2291 C   0  0  0  0  0  0  0  0  0  0  0  0
   -1.5796   15.9035   18.3157 C   0  0  0  0  0  0  0  0  0  0  0  0
   -1.2498   14.5986   18.7145 C   0  0  0  0  0  0  0  0  0  0  0  0
   -1.2841   13.5429   17.8016 C   0  0  0  0  0  0  0  0  0  0  0  0
   -1.6457   13.7795   16.4788 C   0  0  0  0  0  0  0  0  0  0  0  0
   -1.9718   15.0718   16.0638 C   0  0  0  0  0  0  0  0  0  0  0  0
   -1.9457   16.1442   16.9693 C   0  0  0  0  0  0  0  0  0  0  0  0
   -2.2918   17.4436   16.5687 C   0  0  0  0  0  0  0  0  0  0  0  0
    0.3225   22.0672   16.0886 C   0  0  0  0  0  0  0  0  0  0  0  0
    2.0367   21.6761   12.6985 C   0  0  0  0  0  0  0  0  0  0  0  0
    3.3620   21.4483   13.0749 C   0  0  0  0  0  0  0  0  0  0  0  0
    3.6907   21.3951   14.4288 C   0  0  0  0  0  0  0  0  0  0  0  0
    5.3279   21.1349   14.8938 Cl  0  0  0  0  0  0  0  0  0  0  0  0
    2.7142   21.5681   15.4114 C   0  0  0  0  0  0  0  0  0  0  0  0
    1.3841   21.8011   15.0446 C   0  0  0  0  0  0  0  0  0  0  0  0
    1.0544   21.8511   13.6822 C   0  0  0  0  0  0  0  0  0  0  0  0
    2.1828   20.9617   10.4041 N   0  0  0  0  0  0  0  0  0  0  0  0
    1.6509   21.7751   11.2602 C   0  0  0  0  0  0  0  0  0  0  0  0
    0.7549   22.7132   10.8364 N   0  0  0  0  0  0  0  0  0  0  0  0
    1.9359   21.0177    9.4527 H   0  0  0  0  0  0  0  0  0  0  0  0
    0.5107   22.7658    9.8841 H   0  0  0  0  0  0  0  0  0  0  0  0
    0.3528   23.3373   11.4830 H   0  0  0  0  0  0  0  0  0  0  0  0
 37 38  2  0
 38 39  1  0
 38 30  1  0
 30 31  2  0
 31 32  1  0
 32 33  1  0
 32 34  2  0
 34 35  1  0
 35 29  1  0
  1 29  1  0
  1 14  1  0
 14 16  1  0
 16 17  2  0
 16 18  2  0
 16 19  1  0
 19 20  2  0
 20 21  1  0
 21 22  2  0
 22 23  1  0
 23 24  2  0
 24 25  1  0
 25 26  2  0
 26 27  1  0
 27 28  2  0
  1  2  1  0
  2  3  2  0
  2  4  1  0
  4  5  1  0
  5  6  1  0
  6  7  1  0
  7  8  1  0
  8  9  1  0
  9 10  1  0
 10 11  2  0
 10 12  1  0
 35 36  2  0
 36 30  1  0
 28 19  1  0
  9  4  1  0
 27 22  1  0
 37 40  1  0
 39 41  1  0
 39 42  1  0
 14 15  1  0
 12 13  1  0
M  END
> <minimizedAffinity>
-7.98683

> <CNNscore>
0.1487020701

> <CNNaffinity>
6.5930194855

> <CNN_VS>
0.9803956747

> <CNNaffinity_variance>
0.0090849996

$$$$



 42 45  0  0  0  0  0  0  0  0999 V2000
   -2.5953   19.5079   16.9762 C   0  0  0  0  0  0  0  0  0  0  0  0
   -1.6720   18.4621   17.6270 C   0  0  0  0  0  0  0  0  0  0  0  0
   -1.0324   17.6752   16.9211 O   0  0  0  0  0  0  0  0  0  0  0  0
   -1.6980   18.3635   19.0224 N   0  0  0  0  0  0  0  0  0  0  0  0
   -1.5636   19.5805   19.8329 C   0  0  0  0  0  0  0  0  0  0  0  0
   -0.2966   19.5607   20.7047 C   0  0  0  0  0  0  0  0  0  0  0  0
    0.8477   18.8118   20.0163 C   0  0  0  0  0  0  0  0  0  0  0  0
    0.4616   17.3648   19.6644 C   0  0  0  0  0  0  0  0  0  0  0  0
   -1.0603   17.1772   19.6201 C   0  0  0  0  0  0  0  0  0  0  0  0
   -1.5447   15.8489   19.0188 C   0  0  0  0  0  0  0  0  0  0  0  0
   -2.3720   15.7161   18.1272 O   0  0  0  0  0  0  0  0  0  0  0  0
   -1.0447   14.7581   19.6342 O   0  0  0  0  0  0  0  0  0  0  0  0
   -0.4109   14.8550   20.3176 H   0  0  0  0  0  0  0  0  0  0  0  0
   -1.8813   20.0394   15.7838 N   0  0  0  0  0  0  0  0  0  0  0  0
   -2.5246   19.9940   14.9935 H   0  0  0  0  0  0  0  0  0  0  0  0
   -1.3095   21.6140   15.8830 S   0  0  0  0  0  0  0  0  0  0  0  0
   -1.7706   22.3478   14.7239 O   0  0  0  0  0  0  0  0  0  0  0  0
   -1.5840   22.0679   17.2278 O   0  0  0  0  0  0  0  0  0  0  0  0
    0.4397   21.3520   15.7462 C   0  0  0  0  0  0  0  0  0  0  0  0
    1.1311   20.7693   16.8100 C   0  0  0  0  0  0  0  0  0  0  0  0
    2.5042   20.5485   16.6982 C   0  0  0  0  0  0  0  0  0  0  0  0
    3.1950   20.9056   15.5282 C   0  0  0  0  0  0  0  0  0  0  0  0
    4.5712   20.6641   15.3927 C   0  0  0  0  0  0  0  0  0  0  0  0
    5.2445   21.0095   14.2194 C   0  0  0  0  0  0  0  0  0  0  0  0
    4.5508   21.6028   13.1690 C   0  0  0  0  0  0  0  0  0  0  0  0
    3.1830   21.8548   13.2887 C   0  0  0  0  0  0  0  0  0  0  0  0
    2.4899   21.5109   14.4600 C   0  0  0  0  0  0  0  0  0  0  0  0
    1.1111   21.7400   14.5836 C   0  0  0  0  0  0  0  0  0  0  0  0
   -3.8998   18.8226   16.5433 C   0  0  0  0  0  0  0  0  0  0  0  0
   -7.5099   19.4974   17.5899 C   0  0  0  0  0  0  0  0  0  0  0  0
   -7.3337   20.3285   18.6983 C   0  0  0  0  0  0  0  0  0  0  0  0
   -6.0442   20.6896   19.0863 C   0  0  0  0  0  0  0  0  0  0  0  0
   -5.8249   21.6973   20.4650 Cl  0  0  0  0  0  0  0  0  0  0  0  0
   -4.9286   20.2306   18.3836 C   0  0  0  0  0  0  0  0  0  0  0  0
   -5.0943   19.3941   17.2742 C   0  0  0  0  0  0  0  0  0  0  0  0
   -6.3924   19.0342   16.8831 C   0  0  0  0  0  0  0  0  0  0  0  0
   -9.9030   19.4442   17.8474 N   0  0  0  0  0  0  0  0  0  0  0  0
   -8.8719   19.0600   17.1644 C   0  0  0  0  0  0  0  0  0  0  0  0
   -9.0428   18.2570   16.0742 N   0  0  0  0  0  0  0  0  0  0  0  0
  -10.8063   19.1618   17.5760 H   0  0  0  0  0  0  0  0  0  0  0  0
   -9.9478   17.9769   15.8062 H   0  0  0  0  0  0  0  0  0  0  0  0
   -8.2612   17.9578   15.5558 H   0  0  0  0  0  0  0  0  0  0  0  0
 37 38  2  0
 38 39  1  0
 38 30  1  0
 30 31  2  0
 31 32  1  0
 32 33  1  0
 32 34  2  0
 34 35  1  0
 35 29  1  0
  1 29  1  0
  1 14  1  0
 14 16  1  0
 16 17  2  0
 16 18  2  0
 16 19  1  0
 19 20  2  0
 20 21  1  0
 21 22  2  0
 22 23  1  0
 23 24  2  0
 24 25  1  0
 25 26  2  0
 26 27  1  0
 27 28  2  0
  1  2  1  0
  2  3  2  0
  2  4  1  0
  4  5  1  0
  5  6  1  0
  6  7  1  0
  7  8  1  0
  8  9  1  0
  9 10  1  0
 10 11  2  0
 10 12  1  0
 35 36  2  0
 36 30  1  0
 28 19  1  0
  9  4  1  0
 27 22  1  0
 37 40  1  0
 39 41  1  0
 39 42  1  0
 14 15  1  0
 12 13  1  0
M  END
> <minimizedAffinity>
-8.44480

> <CNNscore>
0.1351636797

> <CNNaffinity>
5.6701092720

> <CNN_VS>
0.7663928270

> <CNNaffinity_variance>
0.5003868341

$$$$



 42 45  0  0  0  0  0  0  0  0999 V2000
   -5.8539   20.8204   16.3203 C   0  0  0  0  0  0  0  0  0  0  0  0
   -6.3423   21.3957   17.6620 C   0  0  0  0  0  0  0  0  0  0  0  0
   -6.5134   22.6128   17.7890 O   0  0  0  0  0  0  0  0  0  0  0  0
   -6.4494   20.5091   18.7390 N   0  0  0  0  0  0  0  0  0  0  0  0
   -7.1668   19.2406   18.5588 C   0  0  0  0  0  0  0  0  0  0  0  0
   -8.4118   19.1449   19.4569 C   0  0  0  0  0  0  0  0  0  0  0  0
   -9.0572   20.5166   19.6710 C   0  0  0  0  0  0  0  0  0  0  0  0
   -8.0744   21.5274   20.2868 C   0  0  0  0  0  0  0  0  0  0  0  0
   -6.6155   21.1015   20.0779 C   0  0  0  0  0  0  0  0  0  0  0  0
   -5.5617   22.1676   20.4146 C   0  0  0  0  0  0  0  0  0  0  0  0
   -5.7755   23.2690   20.9027 O   0  0  0  0  0  0  0  0  0  0  0  0
   -4.3120   21.8388   20.0291 O   0  0  0  0  0  0  0  0  0  0  0  0
   -4.1435   20.9965   19.6549 H   0  0  0  0  0  0  0  0  0  0  0  0
   -4.9400   19.6896   16.6366 N   0  0  0  0  0  0  0  0  0  0  0  0
   -5.0939   18.9636   15.9368 H   0  0  0  0  0  0  0  0  0  0  0  0
   -3.2967   20.0286   16.6634 S   0  0  0  0  0  0  0  0  0  0  0  0
   -2.8353   20.1907   15.3012 O   0  0  0  0  0  0  0  0  0  0  0  0
   -3.1051   21.0601   17.6579 O   0  0  0  0  0  0  0  0  0  0  0  0
   -2.6456   18.5149   17.3206 C   0  0  0  0  0  0  0  0  0  0  0  0
   -2.1939   18.4789   18.6411 C   0  0  0  0  0  0  0  0  0  0  0  0
   -1.6958   17.2853   19.1644 C   0  0  0  0  0  0  0  0  0  0  0  0
   -1.6453   16.1229   18.3771 C   0  0  0  0  0  0  0  0  0  0  0  0
   -1.1716   14.9093   18.8998 C   0  0  0  0  0  0  0  0  0  0  0  0
   -1.1401   13.7567   18.1125 C   0  0  0  0  0  0  0  0  0  0  0  0
   -1.5791   13.8043   16.7928 C   0  0  0  0  0  0  0  0  0  0  0  0
   -2.0486   15.0040   16.2553 C   0  0  0  0  0  0  0  0  0  0  0  0
   -2.0903   16.1714   17.0338 C   0  0  0  0  0  0  0  0  0  0  0  0
   -2.5798   17.3779   16.5107 C   0  0  0  0  0  0  0  0  0  0  0  0
   -7.0644   20.3090   15.5254 C   0  0  0  0  0  0  0  0  0  0  0  0
   -8.6956   21.7326   12.3795 C   0  0  0  0  0  0  0  0  0  0  0  0
   -7.7517   22.6782   11.9731 C   0  0  0  0  0  0  0  0  0  0  0  0
   -6.5757   22.8318   12.7062 C   0  0  0  0  0  0  0  0  0  0  0  0
   -5.4208   24.0116   12.2179 Cl  0  0  0  0  0  0  0  0  0  0  0  0
   -6.3307   22.0553   13.8402 C   0  0  0  0  0  0  0  0  0  0  0  0
   -7.2720   21.1081   14.2580 C   0  0  0  0  0  0  0  0  0  0  0  0
   -8.4532   20.9524   13.5178 C   0  0  0  0  0  0  0  0  0  0  0  0
  -10.9539   20.9170   12.2041 N   0  0  0  0  0  0  0  0  0  0  0  0
   -9.9821   21.5629   11.6422 C   0  0  0  0  0  0  0  0  0  0  0  0
  -10.1436   22.0705   10.3858 N   0  0  0  0  0  0  0  0  0  0  0  0
  -11.8071   20.7988   11.7272 H   0  0  0  0  0  0  0  0  0  0  0  0
  -10.9984   21.9502    9.9124 H   0  0  0  0  0  0  0  0  0  0  0  0
   -9.4053   22.5570    9.9528 H   0  0  0  0  0  0  0  0  0  0  0  0
 37 38  2  0
 38 39  1  0
 38 30  1  0
 30 31  2  0
 31 32  1  0
 32 33  1  0
 32 34  2  0
 34 35  1  0
 35 29  1  0
  1 29  1  0
  1 14  1  0
 14 16  1  0
 16 17  2  0
 16 18  2  0
 16 19  1  0
 19 20  2  0
 20 21  1  0
 21 22  2  0
 22 23  1  0
 23 24  2  0
 24 25  1  0
 25 26  2  0
 26 27  1  0
 27 28  2  0
  1  2  1  0
  2  3  2  0
  2  4  1  0
  4  5  1  0
  5  6  1  0
  6  7  1  0
  7  8  1  0
  8  9  1  0
  9 10  1  0
 10 11  2  0
 10 12  1  0
 35 36  2  0
 36 30  1  0
 28 19  1  0
  9  4  1  0
 27 22  1  0
 37 40  1  0
 39 41  1  0
 39 42  1  0
 14 15  1  0
 12 13  1  0
M  END
> <minimizedAffinity>
-6.69874

> <CNNscore>
0.1350194365

> <CNNaffinity>
4.8198580742

> <CNN_VS>
0.6507745385

> <CNNaffinity_variance>
0.9489386678

$$$$
