


 28 30  0  0  0  0  0  0  0  0999 V2000
    2.6424  -11.1282   -5.6283 C   0  0  0  0  0  0  0  0  0  0  0  0
    3.4134  -10.2222   -6.3634 C   0  0  0  0  0  0  0  0  0  0  0  0
    3.6376  -10.4400   -7.7267 C   0  0  0  0  0  0  0  0  0  0  0  0
    3.1061  -11.5660   -8.3820 C   0  0  0  0  0  0  0  0  0  0  0  0
    2.3419  -12.4740   -7.6241 C   0  0  0  0  0  0  0  0  0  0  0  0
    1.6335  -13.8832   -8.3374 Cl  0  0  0  0  0  0  0  0  0  0  0  0
    2.1168  -12.2599   -6.2605 C   0  0  0  0  0  0  0  0  0  0  0  0
    3.3761  -11.7479   -9.8150 C   0  0  0  0  0  0  0  0  0  0  0  0
    4.6899  -11.8743  -10.2883 C   0  0  0  0  0  0  0  0  0  0  0  0
    4.9523  -12.0391  -11.6540 C   0  0  0  0  0  0  0  0  0  0  0  0
    3.9065  -12.0785  -12.5835 C   0  0  0  0  0  0  0  0  0  0  0  0
    4.1236  -12.2505  -14.0375 C   0  0  0  0  0  0  0  0  0  0  0  0
    5.5155  -12.3948  -14.5777 C   0  0  0  0  0  0  0  0  0  0  0  0
    3.0557  -12.2755  -14.8541 C   0  0  0  0  0  0  0  0  0  0  0  0
    1.6700  -12.1379  -14.3521 C   0  0  0  0  0  0  0  0  0  0  0  0
    0.7163  -12.1625  -15.1221 O   0  0  0  0  0  0  0  0  0  0  0  0
    1.5192  -11.9828  -13.0048 N   0  0  0  0  0  0  0  0  0  0  0  0
    2.5919  -11.9490  -12.1052 C   0  0  0  0  0  0  0  0  0  0  0  0
    2.3259  -11.7849  -10.7423 C   0  0  0  0  0  0  0  0  0  0  0  0
    0.6072  -11.8897  -12.6458 H   0  0  0  0  0  0  0  0  0  0  0  0
    2.2848   -9.6476   -3.7251 N   0  0  0  0  0  0  0  0  0  0  0  0
    2.3804  -10.9462   -4.1739 C   0  0  0  0  0  0  0  0  0  0  0  0
    2.2327  -11.9223   -3.4479 O   0  0  0  0  0  0  0  0  0  0  0  0
    2.4980   -8.9046   -4.3349 H   0  0  0  0  0  0  0  0  0  0  0  0
    1.8728   -9.3626   -2.3617 C   0  0  0  0  0  0  0  0  0  0  0  0
    2.9415   -8.5567   -1.6229 C   0  0  0  0  0  0  0  0  0  0  0  0
    3.3821   -6.3167   -2.2989 C   0  0  0  0  0  0  0  0  0  0  0  0
    3.6605   -7.6947   -2.5155 O   0  0  0  0  0  0  0  0  0  0  0  0
 27 28  1  0
 28 26  1  0
 26 25  1  0
 25 21  1  0
 21 22  1  0
 22 23  2  0
 22  1  1  0
  1  2  2  0
  2  3  1  0
  3  4  2  0
  4  8  1  0
  8  9  2  0
  9 10  1  0
 10 11  2  0
 11 12  1  0
 12 13  1  0
 12 14  2  0
 14 15  1  0
 15 16  2  0
 15 17  1  0
 17 18  1  0
 18 19  2  0
  4  5  1  0
  5  6  1  0
  5  7  2  0
  7  1  1  0
 19  8  1  0
 18 11  1  0
 21 24  1  0
 17 20  1  0
M  END
> <minimizedAffinity>
-11.46102

> <CNNscore>
0.9708513618

> <CNNaffinity>
7.5746078491

> <CNN_VS>
7.3538184166

> <CNNaffinity_variance>
0.0616858788

$$$$



 28 30  0  0  0  0  0  0  0  0999 V2000
    2.5913  -11.2070   -5.6191 C   0  0  0  0  0  0  0  0  0  0  0  0
    3.4800  -10.3741   -6.3063 C   0  0  0  0  0  0  0  0  0  0  0  0
    3.7074  -10.5698   -7.6724 C   0  0  0  0  0  0  0  0  0  0  0  0
    3.0616  -11.6017   -8.3782 C   0  0  0  0  0  0  0  0  0  0  0  0
    2.1791  -12.4382   -7.6683 C   0  0  0  0  0  0  0  0  0  0  0  0
    1.3257  -13.7280   -8.4457 Cl  0  0  0  0  0  0  0  0  0  0  0  0
    1.9503  -12.2460   -6.3020 C   0  0  0  0  0  0  0  0  0  0  0  0
    3.3404  -11.7647   -9.8118 C   0  0  0  0  0  0  0  0  0  0  0  0
    4.6573  -11.8791  -10.2794 C   0  0  0  0  0  0  0  0  0  0  0  0
    4.9280  -12.0260  -11.6456 C   0  0  0  0  0  0  0  0  0  0  0  0
    3.8874  -12.0592  -12.5811 C   0  0  0  0  0  0  0  0  0  0  0  0
    4.1132  -12.2124  -14.0359 C   0  0  0  0  0  0  0  0  0  0  0  0
    5.5087  -12.3434  -14.5702 C   0  0  0  0  0  0  0  0  0  0  0  0
    3.0499  -12.2326  -14.8587 C   0  0  0  0  0  0  0  0  0  0  0  0
    1.6608  -12.1078  -14.3626 C   0  0  0  0  0  0  0  0  0  0  0  0
    0.7114  -12.1276  -15.1381 O   0  0  0  0  0  0  0  0  0  0  0  0
    1.5019  -11.9699  -13.0144 N   0  0  0  0  0  0  0  0  0  0  0  0
    2.5696  -11.9418  -12.1086 C   0  0  0  0  0  0  0  0  0  0  0  0
    2.2954  -11.7956  -10.7452 C   0  0  0  0  0  0  0  0  0  0  0  0
    0.5876  -11.8855  -12.6593 H   0  0  0  0  0  0  0  0  0  0  0  0
    2.4005  -12.1847   -3.3943 N   0  0  0  0  0  0  0  0  0  0  0  0
    2.3202  -11.0454   -4.1640 C   0  0  0  0  0  0  0  0  0  0  0  0
    2.0712   -9.9374   -3.7033 O   0  0  0  0  0  0  0  0  0  0  0  0
    2.5181  -13.0596   -3.8300 H   0  0  0  0  0  0  0  0  0  0  0  0
    2.3135  -12.1090   -1.9464 C   0  0  0  0  0  0  0  0  0  0  0  0
    2.7227  -13.4338   -1.3023 C   0  0  0  0  0  0  0  0  0  0  0  0
    2.0032  -15.3469   -2.5234 C   0  0  0  0  0  0  0  0  0  0  0  0
    3.0552  -14.4182   -2.2908 O   0  0  0  0  0  0  0  0  0  0  0  0
 27 28  1  0
 28 26  1  0
 26 25  1  0
 25 21  1  0
 21 22  1  0
 22 23  2  0
 22  1  1  0
  1  2  2  0
  2  3  1  0
  3  4  2  0
  4  8  1  0
  8  9  2  0
  9 10  1  0
 10 11  2  0
 11 12  1  0
 12 13  1  0
 12 14  2  0
 14 15  1  0
 15 16  2  0
 15 17  1  0
 17 18  1  0
 18 19  2  0
  4  5  1  0
  5  6  1  0
  5  7  2  0
  7  1  1  0
 19  8  1  0
 18 11  1  0
 21 24  1  0
 17 20  1  0
M  END
> <minimizedAffinity>
-10.93991

> <CNNscore>
0.9321227670

> <CNNaffinity>
7.2080979347

> <CNN_VS>
6.7188320160

> <CNNaffinity_variance>
0.0148589425

$$$$



 28 30  0  0  0  0  0  0  0  0999 V2000
    2.8423  -11.6002  -10.3934 C   0  0  0  0  0  0  0  0  0  0  0  0
    3.3934  -10.4698   -9.7817 C   0  0  0  0  0  0  0  0  0  0  0  0
    3.3042  -10.3117   -8.3949 C   0  0  0  0  0  0  0  0  0  0  0  0
    2.6589  -11.2704   -7.5922 C   0  0  0  0  0  0  0  0  0  0  0  0
    2.0994  -12.3965   -8.2258 C   0  0  0  0  0  0  0  0  0  0  0  0
    1.2957  -13.6392   -7.3280 Cl  0  0  0  0  0  0  0  0  0  0  0  0
    2.1859  -12.5571   -9.6124 C   0  0  0  0  0  0  0  0  0  0  0  0
    2.5906  -11.0522   -6.1405 C   0  0  0  0  0  0  0  0  0  0  0  0
    2.3849   -9.7683   -5.6157 C   0  0  0  0  0  0  0  0  0  0  0  0
    2.3278   -9.5545   -4.2329 C   0  0  0  0  0  0  0  0  0  0  0  0
    2.4782  -10.6200   -3.3377 C   0  0  0  0  0  0  0  0  0  0  0  0
    2.4268  -10.4541   -1.8678 C   0  0  0  0  0  0  0  0  0  0  0  0
    2.2024   -9.0957   -1.2723 C   0  0  0  0  0  0  0  0  0  0  0  0
    2.5827  -11.5375   -1.0870 C   0  0  0  0  0  0  0  0  0  0  0  0
    2.8035  -12.8912   -1.6437 C   0  0  0  0  0  0  0  0  0  0  0  0
    2.9444  -13.8600   -0.9057 O   0  0  0  0  0  0  0  0  0  0  0  0
    2.8421  -12.9954   -3.0038 N   0  0  0  0  0  0  0  0  0  0  0  0
    2.6864  -11.9043   -3.8678 C   0  0  0  0  0  0  0  0  0  0  0  0
    2.7435  -12.1217   -5.2479 C   0  0  0  0  0  0  0  0  0  0  0  0
    2.9872  -13.8854   -3.3989 H   0  0  0  0  0  0  0  0  0  0  0  0
    1.7062  -12.0511  -12.5025 N   0  0  0  0  0  0  0  0  0  0  0  0
    2.9039  -11.8120  -11.8660 C   0  0  0  0  0  0  0  0  0  0  0  0
    3.9767  -11.7408  -12.4540 O   0  0  0  0  0  0  0  0  0  0  0  0
    0.8892  -12.1834  -11.9693 H   0  0  0  0  0  0  0  0  0  0  0  0
    1.6356  -12.1101  -13.9521 C   0  0  0  0  0  0  0  0  0  0  0  0
    2.9463  -12.6284  -14.5444 C   0  0  0  0  0  0  0  0  0  0  0  0
    4.6417  -11.8696  -16.0338 C   0  0  0  0  0  0  0  0  0  0  0  0
    3.2449  -11.9940  -15.7955 O   0  0  0  0  0  0  0  0  0  0  0  0
 27 28  1  0
 28 26  1  0
 26 25  1  0
 25 21  1  0
 21 22  1  0
 22 23  2  0
 22  1  1  0
  1  2  2  0
  2  3  1  0
  3  4  2  0
  4  8  1  0
  8  9  2  0
  9 10  1  0
 10 11  2  0
 11 12  1  0
 12 13  1  0
 12 14  2  0
 14 15  1  0
 15 16  2  0
 15 17  1  0
 17 18  1  0
 18 19  2  0
  4  5  1  0
  5  6  1  0
  5  7  2  0
  7  1  1  0
 19  8  1  0
 18 11  1  0
 21 24  1  0
 17 20  1  0
M  END
> <minimizedAffinity>
-9.30896

> <CNNscore>
0.4470362663

> <CNNaffinity>
6.4596619606

> <CNN_VS>
2.8877031803

> <CNNaffinity_variance>
0.0320393853

$$$$



 28 30  0  0  0  0  0  0  0  0999 V2000
    2.8443  -11.6823  -10.3349 C   0  0  0  0  0  0  0  0  0  0  0  0
    3.4230  -10.5753   -9.7063 C   0  0  0  0  0  0  0  0  0  0  0  0
    3.3484  -10.4425   -8.3159 C   0  0  0  0  0  0  0  0  0  0  0  0
    2.6908  -11.4038   -7.5263 C   0  0  0  0  0  0  0  0  0  0  0  0
    2.1037  -12.5060   -8.1767 C   0  0  0  0  0  0  0  0  0  0  0  0
    1.2828  -13.7498   -7.2961 Cl  0  0  0  0  0  0  0  0  0  0  0  0
    2.1754  -12.6412   -9.5668 C   0  0  0  0  0  0  0  0  0  0  0  0
    2.6390  -11.2126   -6.0701 C   0  0  0  0  0  0  0  0  0  0  0  0
    2.4963  -12.3077   -5.2062 C   0  0  0  0  0  0  0  0  0  0  0  0
    2.4378  -12.1294   -3.8184 C   0  0  0  0  0  0  0  0  0  0  0  0
    2.5175  -10.8492   -3.2580 C   0  0  0  0  0  0  0  0  0  0  0  0
    2.4616  -10.6004   -1.8000 C   0  0  0  0  0  0  0  0  0  0  0  0
    2.3153  -11.7492   -0.8465 C   0  0  0  0  0  0  0  0  0  0  0  0
    2.5453   -9.3346   -1.3544 C   0  0  0  0  0  0  0  0  0  0  0  0
    2.6921   -8.1799   -2.2690 C   0  0  0  0  0  0  0  0  0  0  0  0
    2.7638   -7.0365   -1.8326 O   0  0  0  0  0  0  0  0  0  0  0  0
    2.7403   -8.4583   -3.6040 N   0  0  0  0  0  0  0  0  0  0  0  0
    2.6580   -9.7546   -4.1273 C   0  0  0  0  0  0  0  0  0  0  0  0
    2.7173   -9.9288   -5.5135 C   0  0  0  0  0  0  0  0  0  0  0  0
    2.8381   -7.7074   -4.2332 H   0  0  0  0  0  0  0  0  0  0  0  0
    1.6775  -12.0159  -12.4490 N   0  0  0  0  0  0  0  0  0  0  0  0
    2.8893  -11.8666  -11.8117 C   0  0  0  0  0  0  0  0  0  0  0  0
    3.9633  -11.8509  -12.4018 O   0  0  0  0  0  0  0  0  0  0  0  0
    0.8549  -12.1075  -11.9160 H   0  0  0  0  0  0  0  0  0  0  0  0
    1.6004  -12.0397  -13.8993 C   0  0  0  0  0  0  0  0  0  0  0  0
    2.9038  -12.5556  -14.5095 C   0  0  0  0  0  0  0  0  0  0  0  0
    4.6147  -11.8569  -16.0107 C   0  0  0  0  0  0  0  0  0  0  0  0
    3.2205  -11.8705  -15.7290 O   0  0  0  0  0  0  0  0  0  0  0  0
 27 28  1  0
 28 26  1  0
 26 25  1  0
 25 21  1  0
 21 22  1  0
 22 23  2  0
 22  1  1  0
  1  2  2  0
  2  3  1  0
  3  4  2  0
  4  8  1  0
  8  9  2  0
  9 10  1  0
 10 11  2  0
 11 12  1  0
 12 13  1  0
 12 14  2  0
 14 15  1  0
 15 16  2  0
 15 17  1  0
 17 18  1  0
 18 19  2  0
  4  5  1  0
  5  6  1  0
  5  7  2  0
  7  1  1  0
 19  8  1  0
 18 11  1  0
 21 24  1  0
 17 20  1  0
M  END
> <minimizedAffinity>
-10.02017

> <CNNscore>
0.4106183946

> <CNNaffinity>
6.4627175331

> <CNN_VS>
2.6537106037

> <CNNaffinity_variance>
0.1232362911

$$$$



 28 30  0  0  0  0  0  0  0  0999 V2000
    2.6725  -11.0797   -5.6933 C   0  0  0  0  0  0  0  0  0  0  0  0
    3.4391  -10.2018   -6.4661 C   0  0  0  0  0  0  0  0  0  0  0  0
    3.5731  -10.4160   -7.8417 C   0  0  0  0  0  0  0  0  0  0  0  0
    2.9539  -11.5108   -8.4726 C   0  0  0  0  0  0  0  0  0  0  0  0
    2.1954  -12.3912   -7.6774 C   0  0  0  0  0  0  0  0  0  0  0  0
    1.3837  -13.7604   -8.3578 Cl  0  0  0  0  0  0  0  0  0  0  0  0
    2.0604  -12.1807   -6.3015 C   0  0  0  0  0  0  0  0  0  0  0  0
    3.1311  -11.6904   -9.9203 C   0  0  0  0  0  0  0  0  0  0  0  0
    2.0250  -11.7217  -10.7813 C   0  0  0  0  0  0  0  0  0  0  0  0
    2.1887  -11.9013  -12.1605 C   0  0  0  0  0  0  0  0  0  0  0  0
    3.4644  -12.0577  -12.7147 C   0  0  0  0  0  0  0  0  0  0  0  0
    3.6980  -12.2504  -14.1636 C   0  0  0  0  0  0  0  0  0  0  0  0
    2.5380  -12.2830  -15.1141 C   0  0  0  0  0  0  0  0  0  0  0  0
    4.9605  -12.3926  -14.6037 C   0  0  0  0  0  0  0  0  0  0  0  0
    6.1263  -12.3630  -13.6919 C   0  0  0  0  0  0  0  0  0  0  0  0
    7.2660  -12.4978  -14.1230 O   0  0  0  0  0  0  0  0  0  0  0  0
    5.8621  -12.1818  -12.3655 N   0  0  0  0  0  0  0  0  0  0  0  0
    4.5698  -12.0281  -11.8482 C   0  0  0  0  0  0  0  0  0  0  0  0
    4.4103  -11.8484  -10.4707 C   0  0  0  0  0  0  0  0  0  0  0  0
    6.6207  -12.1578  -11.7384 H   0  0  0  0  0  0  0  0  0  0  0  0
    2.3275   -9.6090   -3.7801 N   0  0  0  0  0  0  0  0  0  0  0  0
    2.5046  -10.9004   -4.2247 C   0  0  0  0  0  0  0  0  0  0  0  0
    2.4990  -11.8752   -3.4820 O   0  0  0  0  0  0  0  0  0  0  0  0
    2.4276   -8.8590   -4.4100 H   0  0  0  0  0  0  0  0  0  0  0  0
    1.9947   -9.3418   -2.3918 C   0  0  0  0  0  0  0  0  0  0  0  0
    2.8108   -8.1689   -1.8480 C   0  0  0  0  0  0  0  0  0  0  0  0
    2.4526   -6.4690   -0.2198 C   0  0  0  0  0  0  0  0  0  0  0  0
    2.4557   -7.8652   -0.4921 O   0  0  0  0  0  0  0  0  0  0  0  0
 27 28  1  0
 28 26  1  0
 26 25  1  0
 25 21  1  0
 21 22  1  0
 22 23  2  0
 22  1  1  0
  1  2  2  0
  2  3  1  0
  3  4  2  0
  4  8  1  0
  8  9  2  0
  9 10  1  0
 10 11  2  0
 11 12  1  0
 12 13  1  0
 12 14  2  0
 14 15  1  0
 15 16  2  0
 15 17  1  0
 17 18  1  0
 18 19  2  0
  4  5  1  0
  5  6  1  0
  5  7  2  0
  7  1  1  0
 19  8  1  0
 18 11  1  0
 21 24  1  0
 17 20  1  0
M  END
> <minimizedAffinity>
-10.77907

> <CNNscore>
0.4039898813

> <CNNaffinity>
6.6280646324

> <CNN_VS>
2.6776709557

> <CNNaffinity_variance>
0.4164004326

$$$$



 28 30  0  0  0  0  0  0  0  0999 V2000
    2.3963  -11.5594   -9.4677 C   0  0  0  0  0  0  0  0  0  0  0  0
    1.4442  -12.4987   -9.0592 C   0  0  0  0  0  0  0  0  0  0  0  0
    1.3352  -12.8414   -7.7076 C   0  0  0  0  0  0  0  0  0  0  0  0
    2.1755  -12.2623   -6.7389 C   0  0  0  0  0  0  0  0  0  0  0  0
    3.1362  -11.3272   -7.1692 C   0  0  0  0  0  0  0  0  0  0  0  0
    4.2093  -10.5485   -6.0563 Cl  0  0  0  0  0  0  0  0  0  0  0  0
    3.2488  -10.9832   -8.5201 C   0  0  0  0  0  0  0  0  0  0  0  0
    2.0204  -12.6616   -5.3331 C   0  0  0  0  0  0  0  0  0  0  0  0
    2.5190  -11.8574   -4.2984 C   0  0  0  0  0  0  0  0  0  0  0  0
    2.3810  -12.2383   -2.9579 C   0  0  0  0  0  0  0  0  0  0  0  0
    1.7427  -13.4364   -2.6170 C   0  0  0  0  0  0  0  0  0  0  0  0
    1.5678  -13.8896   -1.2188 C   0  0  0  0  0  0  0  0  0  0  0  0
    2.0837  -13.0512   -0.0869 C   0  0  0  0  0  0  0  0  0  0  0  0
    0.9415  -15.0569   -0.9889 C   0  0  0  0  0  0  0  0  0  0  0  0
    0.4194  -15.9059   -2.0835 C   0  0  0  0  0  0  0  0  0  0  0  0
   -0.1457  -16.9668   -1.8423 O   0  0  0  0  0  0  0  0  0  0  0  0
    0.6027  -15.4467   -3.3554 N   0  0  0  0  0  0  0  0  0  0  0  0
    1.2467  -14.2403   -3.6569 C   0  0  0  0  0  0  0  0  0  0  0  0
    1.3822  -13.8631   -4.9966 C   0  0  0  0  0  0  0  0  0  0  0  0
    0.2640  -15.9930   -4.1011 H   0  0  0  0  0  0  0  0  0  0  0  0
    2.1300  -12.0768  -11.8349 N   0  0  0  0  0  0  0  0  0  0  0  0
    2.5577  -11.1659  -10.8947 C   0  0  0  0  0  0  0  0  0  0  0  0
    3.0227  -10.0691  -11.1821 O   0  0  0  0  0  0  0  0  0  0  0  0
    1.8460  -12.9750  -11.5489 H   0  0  0  0  0  0  0  0  0  0  0  0
    2.0934  -11.7263  -13.2440 C   0  0  0  0  0  0  0  0  0  0  0  0
    1.7626  -12.9461  -14.1043 C   0  0  0  0  0  0  0  0  0  0  0  0
    3.3377  -12.0000  -15.6186 C   0  0  0  0  0  0  0  0  0  0  0  0
    2.1301  -12.7380  -15.4748 O   0  0  0  0  0  0  0  0  0  0  0  0
 27 28  1  0
 28 26  1  0
 26 25  1  0
 25 21  1  0
 21 22  1  0
 22 23  2  0
 22  1  1  0
  1  2  2  0
  2  3  1  0
  3  4  2  0
  4  8  1  0
  8  9  2  0
  9 10  1  0
 10 11  2  0
 11 12  1  0
 12 13  1  0
 12 14  2  0
 14 15  1  0
 15 16  2  0
 15 17  1  0
 17 18  1  0
 18 19  2  0
  4  5  1  0
  5  6  1  0
  5  7  2  0
  7  1  1  0
 19  8  1  0
 18 11  1  0
 21 24  1  0
 17 20  1  0
M  END
> <minimizedAffinity>
-9.11403

> <CNNscore>
0.3636122346

> <CNNaffinity>
6.4352607727

> <CNN_VS>
2.3399395943

> <CNNaffinity_variance>
0.0709383264

$$$$



 28 30  0  0  0  0  0  0  0  0999 V2000
   -0.9873  -19.8835   -1.9765 C   0  0  0  0  0  0  0  0  0  0  0  0
   -1.1008  -18.5232   -2.2807 C   0  0  0  0  0  0  0  0  0  0  0  0
   -2.2580  -18.0394   -2.8997 C   0  0  0  0  0  0  0  0  0  0  0  0
   -3.3197  -18.9000   -3.2343 C   0  0  0  0  0  0  0  0  0  0  0  0
   -3.1838  -20.2684   -2.9314 C   0  0  0  0  0  0  0  0  0  0  0  0
   -4.4365  -21.4078   -3.2903 Cl  0  0  0  0  0  0  0  0  0  0  0  0
   -2.0276  -20.7557   -2.3137 C   0  0  0  0  0  0  0  0  0  0  0  0
   -4.5107  -18.3389   -3.8872 C   0  0  0  0  0  0  0  0  0  0  0  0
   -5.5014  -17.6881   -3.1382 C   0  0  0  0  0  0  0  0  0  0  0  0
   -6.6421  -17.1596   -3.7551 C   0  0  0  0  0  0  0  0  0  0  0  0
   -6.8235  -17.2711   -5.1385 C   0  0  0  0  0  0  0  0  0  0  0  0
   -8.0076  -16.7322   -5.8444 C   0  0  0  0  0  0  0  0  0  0  0  0
   -9.0838  -16.0249   -5.0751 C   0  0  0  0  0  0  0  0  0  0  0  0
   -8.0948  -16.8882   -7.1770 C   0  0  0  0  0  0  0  0  0  0  0  0
   -7.0492  -17.5791   -7.9648 C   0  0  0  0  0  0  0  0  0  0  0  0
   -7.1581  -17.7077   -9.1792 O   0  0  0  0  0  0  0  0  0  0  0  0
   -5.9760  -18.0579   -7.2713 N   0  0  0  0  0  0  0  0  0  0  0  0
   -5.8296  -17.9260   -5.8849 C   0  0  0  0  0  0  0  0  0  0  0  0
   -4.6890  -18.4545   -5.2725 C   0  0  0  0  0  0  0  0  0  0  0  0
   -5.2664  -18.5210   -7.7726 H   0  0  0  0  0  0  0  0  0  0  0  0
    1.4319  -19.8849   -1.6765 N   0  0  0  0  0  0  0  0  0  0  0  0
    0.2259  -20.4498   -1.3250 C   0  0  0  0  0  0  0  0  0  0  0  0
    0.1188  -21.3507   -0.5012 O   0  0  0  0  0  0  0  0  0  0  0  0
    1.4663  -19.2249   -2.4062 H   0  0  0  0  0  0  0  0  0  0  0  0
    2.6534  -20.2527   -0.9820 C   0  0  0  0  0  0  0  0  0  0  0  0
    3.8135  -19.3470   -1.3959 C   0  0  0  0  0  0  0  0  0  0  0  0
    4.5633  -17.7962    0.2477 C   0  0  0  0  0  0  0  0  0  0  0  0
    3.6778  -18.0319   -0.8403 O   0  0  0  0  0  0  0  0  0  0  0  0
 27 28  1  0
 28 26  1  0
 26 25  1  0
 25 21  1  0
 21 22  1  0
 22 23  2  0
 22  1  1  0
  1  2  2  0
  2  3  1  0
  3  4  2  0
  4  8  1  0
  8  9  2  0
  9 10  1  0
 10 11  2  0
 11 12  1  0
 12 13  1  0
 12 14  2  0
 14 15  1  0
 15 16  2  0
 15 17  1  0
 17 18  1  0
 18 19  2  0
  4  5  1  0
  5  6  1  0
  5  7  2  0
  7  1  1  0
 19  8  1  0
 18 11  1  0
 21 24  1  0
 17 20  1  0
M  END
> <minimizedAffinity>
-6.18181

> <CNNscore>
0.3630273938

> <CNNaffinity>
5.5661673546

> <CNN_VS>
2.0206711292

> <CNNaffinity_variance>
0.0681830496

$$$$



 28 30  0  0  0  0  0  0  0  0999 V2000
    2.5551  -12.0903   -1.7966 C   0  0  0  0  0  0  0  0  0  0  0  0
    1.8901  -12.5475   -0.6545 C   0  0  0  0  0  0  0  0  0  0  0  0
    0.9958  -13.6188   -0.7479 C   0  0  0  0  0  0  0  0  0  0  0  0
    0.7405  -14.2498   -1.9793 C   0  0  0  0  0  0  0  0  0  0  0  0
    1.4098  -13.7692   -3.1211 C   0  0  0  0  0  0  0  0  0  0  0  0
    1.1756  -14.4836   -4.6804 Cl  0  0  0  0  0  0  0  0  0  0  0  0
    2.3038  -12.6975   -3.0315 C   0  0  0  0  0  0  0  0  0  0  0  0
   -0.2116  -15.3684   -2.0209 C   0  0  0  0  0  0  0  0  0  0  0  0
   -1.5918  -15.1414   -1.9235 C   0  0  0  0  0  0  0  0  0  0  0  0
   -2.5022  -16.2051   -1.9540 C   0  0  0  0  0  0  0  0  0  0  0  0
   -2.0551  -17.5255   -2.0797 C   0  0  0  0  0  0  0  0  0  0  0  0
   -2.9701  -18.6884   -2.1178 C   0  0  0  0  0  0  0  0  0  0  0  0
   -4.4527  -18.4815   -2.0220 C   0  0  0  0  0  0  0  0  0  0  0  0
   -2.4474  -19.9211   -2.2403 C   0  0  0  0  0  0  0  0  0  0  0  0
   -0.9896  -20.1582   -2.3391 C   0  0  0  0  0  0  0  0  0  0  0  0
   -0.5428  -21.2947   -2.4479 O   0  0  0  0  0  0  0  0  0  0  0  0
   -0.1858  -19.0562   -2.3008 N   0  0  0  0  0  0  0  0  0  0  0  0
   -0.6713  -17.7487   -2.1747 C   0  0  0  0  0  0  0  0  0  0  0  0
    0.2406  -16.6891   -2.1451 C   0  0  0  0  0  0  0  0  0  0  0  0
    0.7878  -19.1873   -2.3653 H   0  0  0  0  0  0  0  0  0  0  0  0
    4.8235  -11.2585   -1.4732 N   0  0  0  0  0  0  0  0  0  0  0  0
    3.5107  -10.9493   -1.7521 C   0  0  0  0  0  0  0  0  0  0  0  0
    3.1218   -9.8109   -1.9860 O   0  0  0  0  0  0  0  0  0  0  0  0
    5.0621  -12.1762   -1.2086 H   0  0  0  0  0  0  0  0  0  0  0  0
    5.8597  -10.2448   -1.5653 C   0  0  0  0  0  0  0  0  0  0  0  0
    6.6933  -10.4263   -2.8339 C   0  0  0  0  0  0  0  0  0  0  0  0
    5.4106  -10.4760   -4.8391 C   0  0  0  0  0  0  0  0  0  0  0  0
    6.1540   -9.6741   -3.9294 O   0  0  0  0  0  0  0  0  0  0  0  0
 27 28  1  0
 28 26  1  0
 26 25  1  0
 25 21  1  0
 21 22  1  0
 22 23  2  0
 22  1  1  0
  1  2  2  0
  2  3  1  0
  3  4  2  0
  4  8  1  0
  8  9  2  0
  9 10  1  0
 10 11  2  0
 11 12  1  0
 12 13  1  0
 12 14  2  0
 14 15  1  0
 15 16  2  0
 15 17  1  0
 17 18  1  0
 18 19  2  0
  4  5  1  0
  5  6  1  0
  5  7  2  0
  7  1  1  0
 19  8  1  0
 18 11  1  0
 21 24  1  0
 17 20  1  0
M  END
> <minimizedAffinity>
-5.54360

> <CNNscore>
0.3323031962

> <CNNaffinity>
5.0156865120

> <CNN_VS>
1.6667286158

> <CNNaffinity_variance>
0.0530486144

$$$$



 28 30  0  0  0  0  0  0  0  0999 V2000
    2.6660  -11.1931   -5.6747 C   0  0  0  0  0  0  0  0  0  0  0  0
    3.4191  -10.2915   -6.4333 C   0  0  0  0  0  0  0  0  0  0  0  0
    3.5558  -10.4814   -7.8122 C   0  0  0  0  0  0  0  0  0  0  0  0
    2.9528  -11.5750   -8.4606 C   0  0  0  0  0  0  0  0  0  0  0  0
    2.2078  -12.4794   -7.6797 C   0  0  0  0  0  0  0  0  0  0  0  0
    1.4164  -13.8493   -8.3821 Cl  0  0  0  0  0  0  0  0  0  0  0  0
    2.0701  -12.2931   -6.3005 C   0  0  0  0  0  0  0  0  0  0  0  0
    3.1322  -11.7285   -9.9110 C   0  0  0  0  0  0  0  0  0  0  0  0
    2.0282  -11.7316  -10.7754 C   0  0  0  0  0  0  0  0  0  0  0  0
    2.1938  -11.8863  -12.1573 C   0  0  0  0  0  0  0  0  0  0  0  0
    3.4695  -12.0453  -12.7112 C   0  0  0  0  0  0  0  0  0  0  0  0
    3.7051  -12.2125  -14.1629 C   0  0  0  0  0  0  0  0  0  0  0  0
    2.5474  -12.2145  -15.1168 C   0  0  0  0  0  0  0  0  0  0  0  0
    4.9672  -12.3595  -14.6024 C   0  0  0  0  0  0  0  0  0  0  0  0
    6.1307  -12.3597  -13.6872 C   0  0  0  0  0  0  0  0  0  0  0  0
    7.2702  -12.4980  -14.1178 O   0  0  0  0  0  0  0  0  0  0  0  0
    5.8647  -12.2013  -12.3582 N   0  0  0  0  0  0  0  0  0  0  0  0
    4.5727  -12.0440  -11.8414 C   0  0  0  0  0  0  0  0  0  0  0  0
    4.4112  -11.8893  -10.4611 C   0  0  0  0  0  0  0  0  0  0  0  0
    6.6217  -12.1974  -11.7288 H   0  0  0  0  0  0  0  0  0  0  0  0
    2.5596  -12.1944   -3.4547 N   0  0  0  0  0  0  0  0  0  0  0  0
    2.4959  -11.0402   -4.2034 C   0  0  0  0  0  0  0  0  0  0  0  0
    2.3394   -9.9276   -3.7139 O   0  0  0  0  0  0  0  0  0  0  0  0
    2.5999  -13.0674   -3.9080 H   0  0  0  0  0  0  0  0  0  0  0  0
    2.5677  -12.1373   -2.0033 C   0  0  0  0  0  0  0  0  0  0  0  0
    2.3792  -13.5288   -1.3986 C   0  0  0  0  0  0  0  0  0  0  0  0
    3.2766  -15.5747   -2.2218 C   0  0  0  0  0  0  0  0  0  0  0  0
    2.3201  -14.5397   -2.4142 O   0  0  0  0  0  0  0  0  0  0  0  0
 27 28  1  0
 28 26  1  0
 26 25  1  0
 25 21  1  0
 21 22  1  0
 22 23  2  0
 22  1  1  0
  1  2  2  0
  2  3  1  0
  3  4  2  0
  4  8  1  0
  8  9  2  0
  9 10  1  0
 10 11  2  0
 11 12  1  0
 12 13  1  0
 12 14  2  0
 14 15  1  0
 15 16  2  0
 15 17  1  0
 17 18  1  0
 18 19  2  0
  4  5  1  0
  5  6  1  0
  5  7  2  0
  7  1  1  0
 19  8  1  0
 18 11  1  0
 21 24  1  0
 17 20  1  0
M  END
> <minimizedAffinity>
-10.48463

> <CNNscore>
0.3109457791

> <CNNaffinity>
6.0193018913

> <CNN_VS>
1.8716765642

> <CNNaffinity_variance>
0.7919220924

$$$$
