


 17 17  0  0  0  0  0  0  0  0999 V2000
   45.7171   14.6795    2.9386 C   0  0  0  0  0  0  0  0  0  0  0  0
   44.9061   15.6406    2.3520 C   0  0  0  0  0  0  0  0  0  0  0  0
   44.2824   15.0726    0.8453 S   0  0  0  0  0  0  0  0  0  0  0  0
   45.0090   13.5590    1.0410 C   0  0  0  0  0  0  0  0  0  0  0  0
   44.8776   12.5578    0.1547 F   0  0  0  0  0  0  0  0  0  0  0  0
   45.7290   13.4625    2.1984 C   0  0  0  0  0  0  0  0  0  0  0  0
   46.6156   11.8949    2.7704 Br  0  0  0  0  0  0  0  0  0  0  0  0
   44.5318   16.9704    2.7752 C   0  0  0  0  0  0  0  0  0  0  0  0
   44.1275   17.8991    2.0890 O   0  0  0  0  0  0  0  0  0  0  0  0
   44.6583   17.1482    4.1084 O   0  0  0  0  0  0  0  0  0  0  0  0
   44.9667   16.4466    4.6475 H   0  0  0  0  0  0  0  0  0  0  0  0
   46.3253   14.8769    4.1352 O   0  0  0  0  0  0  0  0  0  0  0  0
   47.6501   15.3800    4.0076 C   0  0  0  0  0  0  0  0  0  0  0  0
   47.1259   17.2676    5.4807 O   0  0  0  0  0  0  0  0  0  0  0  0
   47.9327   16.6295    4.8232 C   0  0  0  0  0  0  0  0  0  0  0  0
   49.2316   16.9989    4.7982 O   0  0  0  0  0  0  0  0  0  0  0  0
   49.8488   16.5075    4.2927 H   0  0  0  0  0  0  0  0  0  0  0  0
 14 15  2  0
 15 16  1  0
 15 13  1  0
 13 12  1  0
 12  1  1  0
  1  2  2  0
  2  8  1  0
  8  9  2  0
  8 10  1  0
  2  3  1  0
  3  4  1  0
  4  5  1  0
  4  6  2  0
  6  7  1  0
  6  1  1  0
 16 17  1  0
 10 11  1  0
M  END
> <minimizedAffinity>
-6.64244

> <CNNscore>
0.9421979189

> <CNNaffinity>
4.8064866066

> <CNN_VS>
4.5286617279

> <CNNaffinity_variance>
0.0757729039

$$$$



 17 17  0  0  0  0  0  0  0  0999 V2000
   45.5764   13.7658    1.8218 C   0  0  0  0  0  0  0  0  0  0  0  0
   46.2795   13.4495    2.9755 C   0  0  0  0  0  0  0  0  0  0  0  0
   46.6053   11.7551    3.0437 S   0  0  0  0  0  0  0  0  0  0  0  0
   45.9045   11.4934    1.5279 C   0  0  0  0  0  0  0  0  0  0  0  0
   45.8546   10.2880    0.9367 F   0  0  0  0  0  0  0  0  0  0  0  0
   45.4094   12.6376    0.9683 C   0  0  0  0  0  0  0  0  0  0  0  0
   44.6201   12.7263   -0.7462 Br  0  0  0  0  0  0  0  0  0  0  0  0
   46.7456   14.2676    4.0714 C   0  0  0  0  0  0  0  0  0  0  0  0
   46.5848   14.0914    5.2714 O   0  0  0  0  0  0  0  0  0  0  0  0
   47.4478   15.3445    3.6563 O   0  0  0  0  0  0  0  0  0  0  0  0
   47.5796   15.4933    2.7406 H   0  0  0  0  0  0  0  0  0  0  0  0
   45.2029   15.0363    1.5262 O   0  0  0  0  0  0  0  0  0  0  0  0
   44.1844   15.5297    2.3887 C   0  0  0  0  0  0  0  0  0  0  0  0
   45.0355   17.2662    3.8946 O   0  0  0  0  0  0  0  0  0  0  0  0
   44.4147   16.9430    2.8943 C   0  0  0  0  0  0  0  0  0  0  0  0
   43.8773   17.8888    2.0938 O   0  0  0  0  0  0  0  0  0  0  0  0
   43.4013   17.6381    1.3266 H   0  0  0  0  0  0  0  0  0  0  0  0
 14 15  2  0
 15 16  1  0
 15 13  1  0
 13 12  1  0
 12  1  1  0
  1  2  2  0
  2  8  1  0
  8  9  2  0
  8 10  1  0
  2  3  1  0
  3  4  1  0
  4  5  1  0
  4  6  2  0
  6  7  1  0
  6  1  1  0
 16 17  1  0
 10 11  1  0
M  END
> <minimizedAffinity>
-5.03661

> <CNNscore>
0.7817306519

> <CNNaffinity>
4.5602264404

> <CNN_VS>
3.5648686886

> <CNNaffinity_variance>
0.0869548023

$$$$



 17 17  0  0  0  0  0  0  0  0999 V2000
   44.8550   14.3476    1.5192 C   0  0  0  0  0  0  0  0  0  0  0  0
   44.5010   15.2214    0.5011 C   0  0  0  0  0  0  0  0  0  0  0  0
   44.5413   14.4213   -1.0286 S   0  0  0  0  0  0  0  0  0  0  0  0
   44.9280   12.9383   -0.3156 C   0  0  0  0  0  0  0  0  0  0  0  0
   45.0846   11.8021   -1.0153 F   0  0  0  0  0  0  0  0  0  0  0  0
   45.0501   13.0192    1.0430 C   0  0  0  0  0  0  0  0  0  0  0  0
   45.4079   11.5434    2.1675 Br  0  0  0  0  0  0  0  0  0  0  0  0
   44.1353   16.6192    0.5183 C   0  0  0  0  0  0  0  0  0  0  0  0
   44.6413   17.5433   -0.1035 O   0  0  0  0  0  0  0  0  0  0  0  0
   43.0914   16.8749    1.3369 O   0  0  0  0  0  0  0  0  0  0  0  0
   42.6931   16.1778    1.8200 H   0  0  0  0  0  0  0  0  0  0  0  0
   44.8941   14.7291    2.8206 O   0  0  0  0  0  0  0  0  0  0  0  0
   45.9952   15.5807    3.1159 C   0  0  0  0  0  0  0  0  0  0  0  0
   46.3543   17.7246    4.2483 O   0  0  0  0  0  0  0  0  0  0  0  0
   45.6695   16.7337    4.0489 C   0  0  0  0  0  0  0  0  0  0  0  0
   44.4750   16.5990    4.6648 O   0  0  0  0  0  0  0  0  0  0  0  0
   43.9514   15.8375    4.5101 H   0  0  0  0  0  0  0  0  0  0  0  0
 14 15  2  0
 15 16  1  0
 15 13  1  0
 13 12  1  0
 12  1  1  0
  1  2  2  0
  2  8  1  0
  8  9  2  0
  8 10  1  0
  2  3  1  0
  3  4  1  0
  4  5  1  0
  4  6  2  0
  6  7  1  0
  6  1  1  0
 16 17  1  0
 10 11  1  0
M  END
> <minimizedAffinity>
-5.95653

> <CNNscore>
0.7464927435

> <CNNaffinity>
4.1651554108

> <CNN_VS>
3.1092581749

> <CNNaffinity_variance>
0.2170034200

$$$$



 17 17  0  0  0  0  0  0  0  0999 V2000
   44.9136   14.9838    2.6322 C   0  0  0  0  0  0  0  0  0  0  0  0
   45.6121   15.5688    3.6787 C   0  0  0  0  0  0  0  0  0  0  0  0
   46.8476   14.5081    4.2533 S   0  0  0  0  0  0  0  0  0  0  0  0
   46.5009   13.3559    3.0661 C   0  0  0  0  0  0  0  0  0  0  0  0
   47.1816   12.2051    2.9341 F   0  0  0  0  0  0  0  0  0  0  0  0
   45.4675   13.7274    2.2528 C   0  0  0  0  0  0  0  0  0  0  0  0
   44.8572   12.7132    0.7799 Br  0  0  0  0  0  0  0  0  0  0  0  0
   45.4686   16.8492    4.3328 C   0  0  0  0  0  0  0  0  0  0  0  0
   44.5924   17.2121    5.1057 O   0  0  0  0  0  0  0  0  0  0  0  0
   46.4614   17.7096    4.0181 O   0  0  0  0  0  0  0  0  0  0  0  0
   47.1398   17.4465    3.4277 H   0  0  0  0  0  0  0  0  0  0  0  0
   43.8939   15.6160    1.9987 O   0  0  0  0  0  0  0  0  0  0  0  0
   44.3359   16.6719    1.1535 C   0  0  0  0  0  0  0  0  0  0  0  0
   43.3154   15.6195   -0.8110 O   0  0  0  0  0  0  0  0  0  0  0  0
   44.0591   16.4564   -0.3241 C   0  0  0  0  0  0  0  0  0  0  0  0
   44.7104   17.3313   -1.1207 O   0  0  0  0  0  0  0  0  0  0  0  0
   45.2806   17.9726   -0.7446 H   0  0  0  0  0  0  0  0  0  0  0  0
 14 15  2  0
 15 16  1  0
 15 13  1  0
 13 12  1  0
 12  1  1  0
  1  2  2  0
  2  8  1  0
  8  9  2  0
  8 10  1  0
  2  3  1  0
  3  4  1  0
  4  5  1  0
  4  6  2  0
  6  7  1  0
  6  1  1  0
 16 17  1  0
 10 11  1  0
M  END
> <minimizedAffinity>
-6.82827

> <CNNscore>
0.7458139658

> <CNNaffinity>
4.4606461525

> <CNN_VS>
3.3268122673

> <CNNaffinity_variance>
0.0313322358

$$$$



 17 17  0  0  0  0  0  0  0  0999 V2000
   50.0377    7.5514    3.0551 C   0  0  0  0  0  0  0  0  0  0  0  0
   50.4504    6.4306    3.7614 C   0  0  0  0  0  0  0  0  0  0  0  0
   49.1741    5.8391    4.7630 S   0  0  0  0  0  0  0  0  0  0  0  0
   48.0922    7.0005    4.1818 C   0  0  0  0  0  0  0  0  0  0  0  0
   46.8092    7.0745    4.5733 F   0  0  0  0  0  0  0  0  0  0  0  0
   48.6592    7.8419    3.2664 C   0  0  0  0  0  0  0  0  0  0  0  0
   47.7252    9.2134    2.3625 Br  0  0  0  0  0  0  0  0  0  0  0  0
   51.7121    5.7274    3.7962 C   0  0  0  0  0  0  0  0  0  0  0  0
   52.6729    5.9289    4.5264 O   0  0  0  0  0  0  0  0  0  0  0  0
   51.7767    4.7272    2.8904 O   0  0  0  0  0  0  0  0  0  0  0  0
   51.0492    4.5603    2.3241 H   0  0  0  0  0  0  0  0  0  0  0  0
   50.8541    8.2037    2.1897 O   0  0  0  0  0  0  0  0  0  0  0  0
   52.2340    8.0263    2.4884 C   0  0  0  0  0  0  0  0  0  0  0  0
   53.1784   10.2698    2.7761 O   0  0  0  0  0  0  0  0  0  0  0  0
   52.8716    9.1824    3.2387 C   0  0  0  0  0  0  0  0  0  0  0  0
   53.0632    8.9244    4.5506 O   0  0  0  0  0  0  0  0  0  0  0  0
   52.8269    8.0891    4.9032 H   0  0  0  0  0  0  0  0  0  0  0  0
 14 15  2  0
 15 16  1  0
 15 13  1  0
 13 12  1  0
 12  1  1  0
  1  2  2  0
  2  8  1  0
  8  9  2  0
  8 10  1  0
  2  3  1  0
  3  4  1  0
  4  5  1  0
  4  6  2  0
  6  7  1  0
  6  1  1  0
 16 17  1  0
 10 11  1  0
M  END
> <minimizedAffinity>
-4.06272

> <CNNscore>
0.7306426167

> <CNNaffinity>
3.8713376522

> <CNN_VS>
2.8285641670

> <CNNaffinity_variance>
0.1734293252

$$$$



 17 17  0  0  0  0  0  0  0  0999 V2000
   50.3604    7.3246    3.0508 C   0  0  0  0  0  0  0  0  0  0  0  0
   50.7326    6.3266    3.9401 C   0  0  0  0  0  0  0  0  0  0  0  0
   49.3965    5.8679    4.9333 S   0  0  0  0  0  0  0  0  0  0  0  0
   48.3480    6.9135    4.1181 C   0  0  0  0  0  0  0  0  0  0  0  0
   47.0413    7.0232    4.4104 F   0  0  0  0  0  0  0  0  0  0  0  0
   48.9690    7.6203    3.1271 C   0  0  0  0  0  0  0  0  0  0  0  0
   48.0881    8.8286    1.9719 Br  0  0  0  0  0  0  0  0  0  0  0  0
   51.9939    5.6570    4.1601 C   0  0  0  0  0  0  0  0  0  0  0  0
   52.9489    6.0371    4.8236 O   0  0  0  0  0  0  0  0  0  0  0  0
   52.0654    4.4614    3.5352 O   0  0  0  0  0  0  0  0  0  0  0  0
   51.3423    4.1563    3.0233 H   0  0  0  0  0  0  0  0  0  0  0  0
   51.2282    7.8558    2.1533 O   0  0  0  0  0  0  0  0  0  0  0  0
   50.8983    7.5357    0.8066 C   0  0  0  0  0  0  0  0  0  0  0  0
   51.8039    5.2648    0.6310 O   0  0  0  0  0  0  0  0  0  0  0  0
   50.8777    6.0490    0.4976 C   0  0  0  0  0  0  0  0  0  0  0  0
   49.6754    5.6121    0.0641 O   0  0  0  0  0  0  0  0  0  0  0  0
   48.9662    6.2160   -0.0375 H   0  0  0  0  0  0  0  0  0  0  0  0
 14 15  2  0
 15 16  1  0
 15 13  1  0
 13 12  1  0
 12  1  1  0
  1  2  2  0
  2  8  1  0
  8  9  2  0
  8 10  1  0
  2  3  1  0
  3  4  1  0
  4  5  1  0
  4  6  2  0
  6  7  1  0
  6  1  1  0
 16 17  1  0
 10 11  1  0
M  END
> <minimizedAffinity>
-3.66642

> <CNNscore>
0.5996038914

> <CNNaffinity>
3.4153900146

> <CNN_VS>
2.0478811264

> <CNNaffinity_variance>
0.4042200744

$$$$



 17 17  0  0  0  0  0  0  0  0999 V2000
   50.8552    7.9193    2.2916 C   0  0  0  0  0  0  0  0  0  0  0  0
   50.9142    7.1211    3.4251 C   0  0  0  0  0  0  0  0  0  0  0  0
   49.3295    6.8269    4.0448 S   0  0  0  0  0  0  0  0  0  0  0  0
   48.6045    7.6681    2.7704 C   0  0  0  0  0  0  0  0  0  0  0  0
   47.2742    7.7974    2.6344 F   0  0  0  0  0  0  0  0  0  0  0  0
   49.5142    8.1874    1.8928 C   0  0  0  0  0  0  0  0  0  0  0  0
   49.0553    9.1272    0.3191 Br  0  0  0  0  0  0  0  0  0  0  0  0
   52.0310    6.5398    4.1340 C   0  0  0  0  0  0  0  0  0  0  0  0
   52.9223    7.1128    4.7457 O   0  0  0  0  0  0  0  0  0  0  0  0
   52.0332    5.1897    4.0862 O   0  0  0  0  0  0  0  0  0  0  0  0
   51.3574    4.7363    3.6217 H   0  0  0  0  0  0  0  0  0  0  0  0
   51.9669    8.2907    1.6083 O   0  0  0  0  0  0  0  0  0  0  0  0
   52.1131    7.6030    0.3713 C   0  0  0  0  0  0  0  0  0  0  0  0
   53.1874    9.2702   -1.0689 O   0  0  0  0  0  0  0  0  0  0  0  0
   53.1858    8.1684   -0.5430 C   0  0  0  0  0  0  0  0  0  0  0  0
   54.2267    7.3274   -0.7259 O   0  0  0  0  0  0  0  0  0  0  0  0
   54.2230    6.4824   -0.3211 H   0  0  0  0  0  0  0  0  0  0  0  0
 14 15  2  0
 15 16  1  0
 15 13  1  0
 13 12  1  0
 12  1  1  0
  1  2  2  0
  2  8  1  0
  8  9  2  0
  8 10  1  0
  2  3  1  0
  3  4  1  0
  4  5  1  0
  4  6  2  0
  6  7  1  0
  6  1  1  0
 16 17  1  0
 10 11  1  0
M  END
> <minimizedAffinity>
-3.64297

> <CNNscore>
0.5449587107

> <CNNaffinity>
3.6983153820

> <CNN_VS>
2.0154292583

> <CNNaffinity_variance>
0.1400929689

$$$$



 17 17  0  0  0  0  0  0  0  0999 V2000
   45.1991   15.1446    2.3513 C   0  0  0  0  0  0  0  0  0  0  0  0
   45.8059   14.1220    3.0664 C   0  0  0  0  0  0  0  0  0  0  0  0
   45.5370   12.5995    2.2972 S   0  0  0  0  0  0  0  0  0  0  0  0
   44.7181   13.3225    1.0073 C   0  0  0  0  0  0  0  0  0  0  0  0
   44.2320   12.6319   -0.0376 F   0  0  0  0  0  0  0  0  0  0  0  0
   44.6171   14.6791    1.1373 C   0  0  0  0  0  0  0  0  0  0  0  0
   43.8252   15.8137   -0.1496 Br  0  0  0  0  0  0  0  0  0  0  0  0
   46.5744   14.1297    4.2899 C   0  0  0  0  0  0  0  0  0  0  0  0
   46.1901   13.8999    5.4285 O   0  0  0  0  0  0  0  0  0  0  0  0
   47.8763   14.4275    4.0860 O   0  0  0  0  0  0  0  0  0  0  0  0
   48.1860   14.6059    3.2199 H   0  0  0  0  0  0  0  0  0  0  0  0
   45.2679   16.4420    2.7423 O   0  0  0  0  0  0  0  0  0  0  0  0
   45.2318   16.5976    4.1563 C   0  0  0  0  0  0  0  0  0  0  0  0
   47.0057   18.2862    4.2559 O   0  0  0  0  0  0  0  0  0  0  0  0
   46.4281   17.3268    4.7422 C   0  0  0  0  0  0  0  0  0  0  0  0
   46.8216   16.8310    5.9354 O   0  0  0  0  0  0  0  0  0  0  0  0
   46.3766   16.0947    6.3065 H   0  0  0  0  0  0  0  0  0  0  0  0
 14 15  2  0
 15 16  1  0
 15 13  1  0
 13 12  1  0
 12  1  1  0
  1  2  2  0
  2  8  1  0
  8  9  2  0
  8 10  1  0
  2  3  1  0
  3  4  1  0
  4  5  1  0
  4  6  2  0
  6  7  1  0
  6  1  1  0
 16 17  1  0
 10 11  1  0
M  END
> <minimizedAffinity>
-5.01349

> <CNNscore>
0.5012245774

> <CNNaffinity>
4.4167819023

> <CNN_VS>
2.2137997150

> <CNNaffinity_variance>
0.0036097991

$$$$



 17 17  0  0  0  0  0  0  0  0999 V2000
   55.3909   13.5763    0.1244 C   0  0  0  0  0  0  0  0  0  0  0  0
   56.2157   14.6731   -0.0812 C   0  0  0  0  0  0  0  0  0  0  0  0
   55.3888   15.8965   -0.9763 S   0  0  0  0  0  0  0  0  0  0  0  0
   53.9525   15.0053   -0.9922 C   0  0  0  0  0  0  0  0  0  0  0  0
   52.8162   15.4479   -1.5560 F   0  0  0  0  0  0  0  0  0  0  0  0
   54.0704   13.7989   -0.3612 C   0  0  0  0  0  0  0  0  0  0  0  0
   52.6478   12.5767   -0.1314 Br  0  0  0  0  0  0  0  0  0  0  0  0
   57.5837   14.9325    0.3050 C   0  0  0  0  0  0  0  0  0  0  0  0
   58.3775   15.7171   -0.1960 O   0  0  0  0  0  0  0  0  0  0  0  0
   57.9762   14.1906    1.3635 O   0  0  0  0  0  0  0  0  0  0  0  0
   57.3799   13.5852    1.7583 H   0  0  0  0  0  0  0  0  0  0  0  0
   55.8013   12.4794    0.8093 O   0  0  0  0  0  0  0  0  0  0  0  0
   56.1637   11.3979   -0.0415 C   0  0  0  0  0  0  0  0  0  0  0  0
   56.0910    8.9484    0.0080 O   0  0  0  0  0  0  0  0  0  0  0  0
   55.7556   10.0275    0.4701 C   0  0  0  0  0  0  0  0  0  0  0  0
   54.9668   10.0814    1.5651 O   0  0  0  0  0  0  0  0  0  0  0  0
   54.7108   10.9109    1.9178 H   0  0  0  0  0  0  0  0  0  0  0  0
 14 15  2  0
 15 16  1  0
 15 13  1  0
 13 12  1  0
 12  1  1  0
  1  2  2  0
  2  8  1  0
  8  9  2  0
  8 10  1  0
  2  3  1  0
  3  4  1  0
  4  5  1  0
  4  6  2  0
  6  7  1  0
  6  1  1  0
 16 17  1  0
 10 11  1  0
M  END
> <minimizedAffinity>
-3.88736

> <CNNscore>
0.4164997637

> <CNNaffinity>
3.3974151611

> <CNN_VS>
1.4150226116

> <CNNaffinity_variance>
0.4437910616

$$$$
