


 21 23  0  0  0  0  0  0  0  0999 V2000
    6.3814   61.3488    0.1163 O   0  0  0  0  0  0  0  0  0  0  0  0
    5.9381   60.2511    0.4351 C   0  0  0  0  0  0  0  0  0  0  0  0
    4.7036   60.1387    1.0483 N   0  0  0  0  0  0  0  0  0  0  0  0
    4.1326   58.9546    1.4252 C   0  0  0  0  0  0  0  0  0  0  0  0
    4.7622   57.7902    1.2356 C   0  0  0  0  0  0  0  0  0  0  0  0
    6.0930   57.7833    0.6150 C   0  0  0  0  0  0  0  0  0  0  0  0
    6.8510   56.6420    0.3780 C   0  0  0  0  0  0  0  0  0  0  0  0
    8.0435   56.7074   -0.2408 N   0  0  0  0  0  0  0  0  0  0  0  0
    8.5038   57.9140   -0.6105 C   0  0  0  0  0  0  0  0  0  0  0  0
   10.1916   57.9675   -1.4758 Br  0  0  0  0  0  0  0  0  0  0  0  0
    7.8768   59.0711   -0.4106 N   0  0  0  0  0  0  0  0  0  0  0  0
    6.6776   58.9701    0.1971 C   0  0  0  0  0  0  0  0  0  0  0  0
    4.2019   60.9671    1.2255 H   0  0  0  0  0  0  0  0  0  0  0  0
    6.3503   55.3824    0.7722 N   0  0  0  0  0  0  0  0  0  0  0  0
    5.5538   54.9890    0.3478 H   0  0  0  0  0  0  0  0  0  0  0  0
    7.0754   54.6831    1.8490 C   0  0  0  0  0  0  0  0  0  0  0  0
    6.0490   54.1052    2.8361 C   0  0  0  0  0  0  0  0  0  0  0  0
    5.1471   53.0355    2.2130 C   0  0  0  0  0  0  0  0  0  0  0  0
    5.8402   52.2042    1.1341 C   0  0  0  0  0  0  0  0  0  0  0  0
    7.3474   52.1652    1.3330 C   0  0  0  0  0  0  0  0  0  0  0  0
    7.9703   53.5639    1.2762 C   0  0  0  0  0  0  0  0  0  0  0  0
  1  2  2  0
  2  3  1  0
  3  4  1  0
  4  5  2  0
  5  6  1  0
  6  7  2  0
  7 14  1  0
 14 16  1  0
 16 17  1  0
 17 18  1  0
 18 19  1  0
 19 20  1  0
 20 21  1  0
  7  8  1  0
  8  9  2  0
  9 10  1  0
  9 11  1  0
 11 12  2  0
 12  2  1  0
 12  6  1  0
 21 16  1  0
  3 13  1  0
 14 15  1  0
M  END
> <minimizedAffinity>
-8.22695

> <CNNscore>
0.9803565741

> <CNNaffinity>
7.2156925201

> <CNN_VS>
7.0739517212

> <CNNaffinity_variance>
0.1543560177

$$$$



 21 23  0  0  0  0  0  0  0  0999 V2000
    5.9928   61.3527   -0.1047 O   0  0  0  0  0  0  0  0  0  0  0  0
    6.1591   60.1591    0.1205 C   0  0  0  0  0  0  0  0  0  0  0  0
    5.2271   59.4407    0.8472 N   0  0  0  0  0  0  0  0  0  0  0  0
    5.3306   58.1073    1.1329 C   0  0  0  0  0  0  0  0  0  0  0  0
    6.3862   57.3921    0.7301 C   0  0  0  0  0  0  0  0  0  0  0  0
    7.4560   58.0515   -0.0295 C   0  0  0  0  0  0  0  0  0  0  0  0
    8.6059   57.4200   -0.4903 C   0  0  0  0  0  0  0  0  0  0  0  0
    9.5218   58.0776   -1.2237 N   0  0  0  0  0  0  0  0  0  0  0  0
    9.3124   59.3780   -1.4873 C   0  0  0  0  0  0  0  0  0  0  0  0
   10.6283   60.2737   -2.5199 Br  0  0  0  0  0  0  0  0  0  0  0  0
    8.2640   60.0874   -1.0755 N   0  0  0  0  0  0  0  0  0  0  0  0
    7.3567   59.3961   -0.3567 C   0  0  0  0  0  0  0  0  0  0  0  0
    4.4358   59.9216    1.1813 H   0  0  0  0  0  0  0  0  0  0  0  0
    8.8082   56.0525   -0.2047 N   0  0  0  0  0  0  0  0  0  0  0  0
    8.3237   55.3475   -0.6920 H   0  0  0  0  0  0  0  0  0  0  0  0
    9.7787   55.7287    0.8571 C   0  0  0  0  0  0  0  0  0  0  0  0
    9.0194   55.5716    2.1840 C   0  0  0  0  0  0  0  0  0  0  0  0
    8.0356   54.3977    2.1820 C   0  0  0  0  0  0  0  0  0  0  0  0
    8.4952   53.2164    1.3284 C   0  0  0  0  0  0  0  0  0  0  0  0
   10.0090   53.1759    1.1890 C   0  0  0  0  0  0  0  0  0  0  0  0
   10.5578   54.4401    0.5195 C   0  0  0  0  0  0  0  0  0  0  0  0
  1  2  2  0
  2  3  1  0
  3  4  1  0
  4  5  2  0
  5  6  1  0
  6  7  2  0
  7 14  1  0
 14 16  1  0
 16 17  1  0
 17 18  1  0
 18 19  1  0
 19 20  1  0
 20 21  1  0
  7  8  1  0
  8  9  2  0
  9 10  1  0
  9 11  1  0
 11 12  2  0
 12  2  1  0
 12  6  1  0
 21 16  1  0
  3 13  1  0
 14 15  1  0
M  END
> <minimizedAffinity>
-7.65262

> <CNNscore>
0.9255743027

> <CNNaffinity>
6.7578587532

> <CNN_VS>
6.2549004555

> <CNNaffinity_variance>
0.0875734761

$$$$



 21 23  0  0  0  0  0  0  0  0999 V2000
    6.0329   61.0840    0.0480 O   0  0  0  0  0  0  0  0  0  0  0  0
    6.8854   60.2342   -0.1841 C   0  0  0  0  0  0  0  0  0  0  0  0
    8.0615   60.5710   -0.8292 N   0  0  0  0  0  0  0  0  0  0  0  0
    9.0660   59.6885   -1.1159 C   0  0  0  0  0  0  0  0  0  0  0  0
    8.9633   58.3939   -0.7968 C   0  0  0  0  0  0  0  0  0  0  0  0
    7.7478   57.9104   -0.1298 C   0  0  0  0  0  0  0  0  0  0  0  0
    7.5182   56.5896    0.2390 C   0  0  0  0  0  0  0  0  0  0  0  0
    6.3996   56.2276    0.8925 N   0  0  0  0  0  0  0  0  0  0  0  0
    5.4871   57.1747    1.1659 C   0  0  0  0  0  0  0  0  0  0  0  0
    3.9198   56.6258    2.0838 Br  0  0  0  0  0  0  0  0  0  0  0  0
    5.5904   58.4605    0.8372 N   0  0  0  0  0  0  0  0  0  0  0  0
    6.7295   58.7940    0.1979 C   0  0  0  0  0  0  0  0  0  0  0  0
    8.1837   61.5095   -1.1003 H   0  0  0  0  0  0  0  0  0  0  0  0
    8.4892   55.6083   -0.0554 N   0  0  0  0  0  0  0  0  0  0  0  0
    8.4412   55.0661   -0.8758 H   0  0  0  0  0  0  0  0  0  0  0  0
    9.5788   55.4327    0.9224 C   0  0  0  0  0  0  0  0  0  0  0  0
    8.9769   54.9207    2.2404 C   0  0  0  0  0  0  0  0  0  0  0  0
    8.3372   53.5347    2.1146 C   0  0  0  0  0  0  0  0  0  0  0  0
    9.0327   52.6305    1.0976 C   0  0  0  0  0  0  0  0  0  0  0  0
   10.4915   53.0147    0.9055 C   0  0  0  0  0  0  0  0  0  0  0  0
   10.6442   54.4502    0.3921 C   0  0  0  0  0  0  0  0  0  0  0  0
  1  2  2  0
  2  3  1  0
  3  4  1  0
  4  5  2  0
  5  6  1  0
  6  7  2  0
  7 14  1  0
 14 16  1  0
 16 17  1  0
 17 18  1  0
 18 19  1  0
 19 20  1  0
 20 21  1  0
  7  8  1  0
  8  9  2  0
  9 10  1  0
  9 11  1  0
 11 12  2  0
 12  2  1  0
 12  6  1  0
 21 16  1  0
  3 13  1  0
 14 15  1  0
M  END
> <minimizedAffinity>
-7.53337

> <CNNscore>
0.8572729826

> <CNNaffinity>
6.4405455589

> <CNN_VS>
5.5213055611

> <CNNaffinity_variance>
0.0272300933

$$$$



 21 23  0  0  0  0  0  0  0  0999 V2000
    5.8783   60.4490   -0.2331 O   0  0  0  0  0  0  0  0  0  0  0  0
    5.8385   59.3695    0.3466 C   0  0  0  0  0  0  0  0  0  0  0  0
    4.7527   59.0294    1.1329 N   0  0  0  0  0  0  0  0  0  0  0  0
    4.6246   57.8442    1.8030 C   0  0  0  0  0  0  0  0  0  0  0  0
    5.5835   56.9135    1.7546 C   0  0  0  0  0  0  0  0  0  0  0  0
    6.7983   57.1705    0.9707 C   0  0  0  0  0  0  0  0  0  0  0  0
    7.8676   56.2893    0.8543 C   0  0  0  0  0  0  0  0  0  0  0  0
    8.9286   56.5719    0.0772 N   0  0  0  0  0  0  0  0  0  0  0  0
    8.9455   57.7461   -0.5750 C   0  0  0  0  0  0  0  0  0  0  0  0
   10.4605   58.1123   -1.6570 Br  0  0  0  0  0  0  0  0  0  0  0  0
    7.9921   58.6732   -0.5155 N   0  0  0  0  0  0  0  0  0  0  0  0
    6.9355   58.3531    0.2584 C   0  0  0  0  0  0  0  0  0  0  0  0
    4.0228   59.6848    1.2158 H   0  0  0  0  0  0  0  0  0  0  0  0
    7.8315   55.0594    1.5460 N   0  0  0  0  0  0  0  0  0  0  0  0
    7.8650   55.0204    2.5292 H   0  0  0  0  0  0  0  0  0  0  0  0
    7.7414   53.8358    0.7282 C   0  0  0  0  0  0  0  0  0  0  0  0
    9.1160   53.1488    0.7206 C   0  0  0  0  0  0  0  0  0  0  0  0
    9.5563   52.6626    2.1048 C   0  0  0  0  0  0  0  0  0  0  0  0
    8.3958   52.2173    2.9939 C   0  0  0  0  0  0  0  0  0  0  0  0
    7.1984   51.7633    2.1738 C   0  0  0  0  0  0  0  0  0  0  0  0
    6.6590   52.8826    1.2772 C   0  0  0  0  0  0  0  0  0  0  0  0
  1  2  2  0
  2  3  1  0
  3  4  1  0
  4  5  2  0
  5  6  1  0
  6  7  2  0
  7 14  1  0
 14 16  1  0
 16 17  1  0
 17 18  1  0
 18 19  1  0
 19 20  1  0
 20 21  1  0
  7  8  1  0
  8  9  2  0
  9 10  1  0
  9 11  1  0
 11 12  2  0
 12  2  1  0
 12  6  1  0
 21 16  1  0
  3 13  1  0
 14 15  1  0
M  END
> <minimizedAffinity>
-7.11843

> <CNNscore>
0.8570641279

> <CNNaffinity>
6.7654862404

> <CNN_VS>
5.7984557152

> <CNNaffinity_variance>
0.2799884975

$$$$



 21 23  0  0  0  0  0  0  0  0999 V2000
    8.2240   60.6813   -0.7944 O   0  0  0  0  0  0  0  0  0  0  0  0
    8.2647   59.4684   -0.6204 C   0  0  0  0  0  0  0  0  0  0  0  0
    9.3457   58.7272   -1.0617 N   0  0  0  0  0  0  0  0  0  0  0  0
    9.4745   57.3755   -0.8987 C   0  0  0  0  0  0  0  0  0  0  0  0
    8.5208   56.6559   -0.2980 C   0  0  0  0  0  0  0  0  0  0  0  0
    7.3111   57.3289    0.1920 C   0  0  0  0  0  0  0  0  0  0  0  0
    6.2474   56.6898    0.8191 C   0  0  0  0  0  0  0  0  0  0  0  0
    5.1914   57.3792    1.2868 N   0  0  0  0  0  0  0  0  0  0  0  0
    5.1737   58.7113    1.1149 C   0  0  0  0  0  0  0  0  0  0  0  0
    3.6658   59.6493    1.7829 Br  0  0  0  0  0  0  0  0  0  0  0  0
    6.1218   59.4213    0.5075 N   0  0  0  0  0  0  0  0  0  0  0  0
    7.1736   58.7036    0.0645 C   0  0  0  0  0  0  0  0  0  0  0  0
   10.0715   59.2049   -1.5245 H   0  0  0  0  0  0  0  0  0  0  0  0
    6.2842   55.2893    0.9922 N   0  0  0  0  0  0  0  0  0  0  0  0
    6.0719   54.6734    0.2540 H   0  0  0  0  0  0  0  0  0  0  0  0
    6.6552   54.7914    2.3296 C   0  0  0  0  0  0  0  0  0  0  0  0
    5.5162   53.9039    2.8557 C   0  0  0  0  0  0  0  0  0  0  0  0
    5.2960   52.6421    2.0158 C   0  0  0  0  0  0  0  0  0  0  0  0
    6.5786   52.0889    1.3959 C   0  0  0  0  0  0  0  0  0  0  0  0
    7.8088   52.4823    2.1986 C   0  0  0  0  0  0  0  0  0  0  0  0
    7.9807   54.0028    2.2776 C   0  0  0  0  0  0  0  0  0  0  0  0
  1  2  2  0
  2  3  1  0
  3  4  1  0
  4  5  2  0
  5  6  1  0
  6  7  2  0
  7 14  1  0
 14 16  1  0
 16 17  1  0
 17 18  1  0
 18 19  1  0
 19 20  1  0
 20 21  1  0
  7  8  1  0
  8  9  2  0
  9 10  1  0
  9 11  1  0
 11 12  2  0
 12  2  1  0
 12  6  1  0
 21 16  1  0
  3 13  1  0
 14 15  1  0
M  END
> <minimizedAffinity>
-7.00579

> <CNNscore>
0.8543015122

> <CNNaffinity>
6.4954485893

> <CNN_VS>
5.5490717888

> <CNNaffinity_variance>
0.0607494004

$$$$



 21 23  0  0  0  0  0  0  0  0999 V2000
   13.8365   51.7013    1.7813 O   0  0  0  0  0  0  0  0  0  0  0  0
   12.6594   52.0359    1.7068 C   0  0  0  0  0  0  0  0  0  0  0  0
   12.3114   53.3648    1.5470 N   0  0  0  0  0  0  0  0  0  0  0  0
   11.0260   53.8203    1.4444 C   0  0  0  0  0  0  0  0  0  0  0  0
    9.9862   52.9825    1.5139 C   0  0  0  0  0  0  0  0  0  0  0  0
   10.2288   51.5473    1.7079 C   0  0  0  0  0  0  0  0  0  0  0  0
    9.2334   50.5818    1.8088 C   0  0  0  0  0  0  0  0  0  0  0  0
    9.5320   49.2765    1.9369 N   0  0  0  0  0  0  0  0  0  0  0  0
   10.8265   48.9214    1.9882 C   0  0  0  0  0  0  0  0  0  0  0  0
   11.2091   47.0724    2.1747 Br  0  0  0  0  0  0  0  0  0  0  0  0
   11.8577   49.7611    1.9281 N   0  0  0  0  0  0  0  0  0  0  0  0
   11.5255   51.0598    1.7837 C   0  0  0  0  0  0  0  0  0  0  0  0
   13.0381   54.0276    1.5042 H   0  0  0  0  0  0  0  0  0  0  0  0
    7.8785   50.9736    1.7515 N   0  0  0  0  0  0  0  0  0  0  0  0
    7.4077   51.0751    0.8928 H   0  0  0  0  0  0  0  0  0  0  0  0
    7.2009   51.2237    3.0369 C   0  0  0  0  0  0  0  0  0  0  0  0
    6.3221   52.4761    2.8924 C   0  0  0  0  0  0  0  0  0  0  0  0
    5.1868   52.3041    1.8787 C   0  0  0  0  0  0  0  0  0  0  0  0
    4.6413   50.8783    1.8081 C   0  0  0  0  0  0  0  0  0  0  0  0
    4.8631   50.1239    3.1097 C   0  0  0  0  0  0  0  0  0  0  0  0
    6.3503   50.0073    3.4593 C   0  0  0  0  0  0  0  0  0  0  0  0
  1  2  2  0
  2  3  1  0
  3  4  1  0
  4  5  2  0
  5  6  1  0
  6  7  2  0
  7 14  1  0
 14 16  1  0
 16 17  1  0
 17 18  1  0
 18 19  1  0
 19 20  1  0
 20 21  1  0
  7  8  1  0
  8  9  2  0
  9 10  1  0
  9 11  1  0
 11 12  2  0
 12  2  1  0
 12  6  1  0
 21 16  1  0
  3 13  1  0
 14 15  1  0
M  END
> <minimizedAffinity>
-5.43872

> <CNNscore>
0.3828465641

> <CNNaffinity>
5.0344367027

> <CNN_VS>
1.9274168015

> <CNNaffinity_variance>
0.2855123281

$$$$



 21 23  0  0  0  0  0  0  0  0999 V2000
    4.0521   58.6175    1.1831 O   0  0  0  0  0  0  0  0  0  0  0  0
    4.6893   57.6180    1.4963 C   0  0  0  0  0  0  0  0  0  0  0  0
    4.1023   56.6102    2.2396 N   0  0  0  0  0  0  0  0  0  0  0  0
    4.7375   55.4606    2.6208 C   0  0  0  0  0  0  0  0  0  0  0  0
    6.0176   55.2386    2.3046 C   0  0  0  0  0  0  0  0  0  0  0  0
    6.7562   56.2495    1.5372 C   0  0  0  0  0  0  0  0  0  0  0  0
    8.0901   56.1402    1.1604 C   0  0  0  0  0  0  0  0  0  0  0  0
    8.6884   57.0859    0.4141 N   0  0  0  0  0  0  0  0  0  0  0  0
    7.9697   58.1619    0.0537 C   0  0  0  0  0  0  0  0  0  0  0  0
    8.8486   59.4773   -0.9940 Br  0  0  0  0  0  0  0  0  0  0  0  0
    6.6980   58.3822    0.3796 N   0  0  0  0  0  0  0  0  0  0  0  0
    6.1226   57.4090    1.1139 C   0  0  0  0  0  0  0  0  0  0  0  0
    3.1639   56.7282    2.5127 H   0  0  0  0  0  0  0  0  0  0  0  0
    8.8292   55.0014    1.5472 N   0  0  0  0  0  0  0  0  0  0  0  0
    9.2046   54.9144    2.4531 H   0  0  0  0  0  0  0  0  0  0  0  0
    9.0129   53.9482    0.5317 C   0  0  0  0  0  0  0  0  0  0  0  0
   10.5093   53.6099    0.4415 C   0  0  0  0  0  0  0  0  0  0  0  0
   11.0723   53.0101    1.7335 C   0  0  0  0  0  0  0  0  0  0  0  0
   10.0612   52.1632    2.5055 C   0  0  0  0  0  0  0  0  0  0  0  0
    8.9893   51.5909    1.5912 C   0  0  0  0  0  0  0  0  0  0  0  0
    8.1905   52.6909    0.8844 C   0  0  0  0  0  0  0  0  0  0  0  0
  1  2  2  0
  2  3  1  0
  3  4  1  0
  4  5  2  0
  5  6  1  0
  6  7  2  0
  7 14  1  0
 14 16  1  0
 16 17  1  0
 17 18  1  0
 18 19  1  0
 19 20  1  0
 20 21  1  0
  7  8  1  0
  8  9  2  0
  9 10  1  0
  9 11  1  0
 11 12  2  0
 12  2  1  0
 12  6  1  0
 21 16  1  0
  3 13  1  0
 14 15  1  0
M  END
> <minimizedAffinity>
-6.99673

> <CNNscore>
0.3378656209

> <CNNaffinity>
5.8441543579

> <CNN_VS>
1.9745388031

> <CNNaffinity_variance>
0.0148493871

$$$$



 21 23  0  0  0  0  0  0  0  0999 V2000
    4.2423   58.6863    1.7890 O   0  0  0  0  0  0  0  0  0  0  0  0
    4.7831   57.5869    1.7453 C   0  0  0  0  0  0  0  0  0  0  0  0
    4.1990   56.4878    2.3481 N   0  0  0  0  0  0  0  0  0  0  0  0
    4.7291   55.2272    2.3368 C   0  0  0  0  0  0  0  0  0  0  0  0
    5.8969   54.9718    1.7375 C   0  0  0  0  0  0  0  0  0  0  0  0
    6.6255   56.0659    1.0829 C   0  0  0  0  0  0  0  0  0  0  0  0
    7.8507   55.9291    0.4401 C   0  0  0  0  0  0  0  0  0  0  0  0
    8.4372   56.9678   -0.1815 N   0  0  0  0  0  0  0  0  0  0  0  0
    7.8191   58.1601   -0.1502 C   0  0  0  0  0  0  0  0  0  0  0  0
    8.6786   59.6029   -1.0331 Br  0  0  0  0  0  0  0  0  0  0  0  0
    6.6609   58.4107    0.4563 N   0  0  0  0  0  0  0  0  0  0  0  0
    6.0912   57.3460    1.0559 C   0  0  0  0  0  0  0  0  0  0  0  0
    3.3438   56.6219    2.8171 H   0  0  0  0  0  0  0  0  0  0  0  0
    8.4847   54.6680    0.4164 N   0  0  0  0  0  0  0  0  0  0  0  0
    8.3393   54.0324   -0.3212 H   0  0  0  0  0  0  0  0  0  0  0  0
    9.3748   54.3469    1.5472 C   0  0  0  0  0  0  0  0  0  0  0  0
    8.8785   53.0520    2.2094 C   0  0  0  0  0  0  0  0  0  0  0  0
    8.9613   51.8316    1.2875 C   0  0  0  0  0  0  0  0  0  0  0  0
   10.1346   51.8826    0.3097 C   0  0  0  0  0  0  0  0  0  0  0  0
   11.2725   52.7421    0.8379 C   0  0  0  0  0  0  0  0  0  0  0  0
   10.8355   54.1915    1.0739 C   0  0  0  0  0  0  0  0  0  0  0  0
  1  2  2  0
  2  3  1  0
  3  4  1  0
  4  5  2  0
  5  6  1  0
  6  7  2  0
  7 14  1  0
 14 16  1  0
 16 17  1  0
 17 18  1  0
 18 19  1  0
 19 20  1  0
 20 21  1  0
  7  8  1  0
  8  9  2  0
  9 10  1  0
  9 11  1  0
 11 12  2  0
 12  2  1  0
 12  6  1  0
 21 16  1  0
  3 13  1  0
 14 15  1  0
M  END
> <minimizedAffinity>
-7.42100

> <CNNscore>
0.3069258034

> <CNNaffinity>
5.7671408653

> <CNN_VS>
1.7700843811

> <CNNaffinity_variance>
0.0244342592

$$$$



 21 23  0  0  0  0  0  0  0  0999 V2000
   10.5136   61.1612   -2.8714 O   0  0  0  0  0  0  0  0  0  0  0  0
   10.5823   59.9951   -2.4992 C   0  0  0  0  0  0  0  0  0  0  0  0
   11.6393   59.1913   -2.8856 N   0  0  0  0  0  0  0  0  0  0  0  0
   11.7970   57.8867   -2.5070 C   0  0  0  0  0  0  0  0  0  0  0  0
   10.8974   57.2777   -1.7273 C   0  0  0  0  0  0  0  0  0  0  0  0
    9.7163   58.0224   -1.2724 C   0  0  0  0  0  0  0  0  0  0  0  0
    8.7078   57.4970   -0.4724 C   0  0  0  0  0  0  0  0  0  0  0  0
    7.6782   58.2543   -0.0531 N   0  0  0  0  0  0  0  0  0  0  0  0
    7.6310   59.5383   -0.4451 C   0  0  0  0  0  0  0  0  0  0  0  0
    6.1614   60.5739    0.1615 Br  0  0  0  0  0  0  0  0  0  0  0  0
    8.5247   60.1367   -1.2294 N   0  0  0  0  0  0  0  0  0  0  0  0
    9.5522   59.3557   -1.6193 C   0  0  0  0  0  0  0  0  0  0  0  0
   12.3245   59.5848   -3.4728 H   0  0  0  0  0  0  0  0  0  0  0  0
    8.7750   56.1459   -0.0692 N   0  0  0  0  0  0  0  0  0  0  0  0
    8.4210   55.4216   -0.6343 H   0  0  0  0  0  0  0  0  0  0  0  0
    9.3999   55.8694    1.2374 C   0  0  0  0  0  0  0  0  0  0  0  0
    8.2923   55.5405    2.2507 C   0  0  0  0  0  0  0  0  0  0  0  0
    7.5200   54.2628    1.9083 C   0  0  0  0  0  0  0  0  0  0  0  0
    8.3726   53.2001    1.2162 C   0  0  0  0  0  0  0  0  0  0  0  0
    9.8461   53.3446    1.5632 C   0  0  0  0  0  0  0  0  0  0  0  0
   10.4064   54.7043    1.1332 C   0  0  0  0  0  0  0  0  0  0  0  0
  1  2  2  0
  2  3  1  0
  3  4  1  0
  4  5  2  0
  5  6  1  0
  6  7  2  0
  7 14  1  0
 14 16  1  0
 16 17  1  0
 17 18  1  0
 18 19  1  0
 19 20  1  0
 20 21  1  0
  7  8  1  0
  8  9  2  0
  9 10  1  0
  9 11  1  0
 11 12  2  0
 12  2  1  0
 12  6  1  0
 21 16  1  0
  3 13  1  0
 14 15  1  0
M  END
> <minimizedAffinity>
-6.61577

> <CNNscore>
0.2946719527

> <CNNaffinity>
5.3150486946

> <CNN_VS>
1.5661957264

> <CNNaffinity_variance>
0.5581051707

$$$$
