


 31 33  0  0  0  0  0  0  0  0999 V2000
   21.3637   44.3083   55.3969 C   0  0  0  0  0  0  0  0  0  0  0  0
   20.2329   44.0846   54.6290 C   0  0  0  0  0  0  0  0  0  0  0  0
   20.4067   43.6401   53.3272 C   0  0  0  0  0  0  0  0  0  0  0  0
   21.6310   43.4463   52.8171 N   0  0  0  0  0  0  0  0  0  0  0  0
   22.6678   43.6885   53.6253 C   0  0  0  0  0  0  0  0  0  0  0  0
   22.5986   44.1115   54.8927 N   0  0  0  0  0  0  0  0  0  0  0  0
   20.9347   44.3898   59.2008 C   0  0  0  0  0  0  0  0  0  0  0  0
   21.2564   45.7165   59.4830 C   0  0  0  0  0  0  0  0  0  0  0  0
   21.5978   46.5624   58.4378 C   0  0  0  0  0  0  0  0  0  0  0  0
   21.9080   47.8378   58.7046 F   0  0  0  0  0  0  0  0  0  0  0  0
   21.6269   46.1132   57.1202 C   0  0  0  0  0  0  0  0  0  0  0  0
   21.3167   44.7793   56.8001 C   0  0  0  0  0  0  0  0  0  0  0  0
   20.9795   43.9287   57.8714 C   0  0  0  0  0  0  0  0  0  0  0  0
   19.2419   43.2908   60.5835 N   0  0  0  0  0  0  0  0  0  0  0  0
   20.5643   43.4177   60.2640 C   0  0  0  0  0  0  0  0  0  0  0  0
   21.4099   42.7239   60.8148 O   0  0  0  0  0  0  0  0  0  0  0  0
   18.9631   42.6562   61.2827 H   0  0  0  0  0  0  0  0  0  0  0  0
   18.5679   43.8339   60.1145 H   0  0  0  0  0  0  0  0  0  0  0  0
   19.2410   43.4228   52.5511 N   0  0  0  0  0  0  0  0  0  0  0  0
   18.6461   44.2009   52.4518 H   0  0  0  0  0  0  0  0  0  0  0  0
   18.8155   42.2445   51.9009 C   0  0  0  0  0  0  0  0  0  0  0  0
   17.5551   41.6759   52.0971 C   0  0  0  0  0  0  0  0  0  0  0  0
   17.2032   40.4701   51.4790 C   0  0  0  0  0  0  0  0  0  0  0  0
   18.1121   39.7881   50.6690 C   0  0  0  0  0  0  0  0  0  0  0  0
   19.3849   40.3246   50.4927 C   0  0  0  0  0  0  0  0  0  0  0  0
   19.7325   41.5334   51.1130 C   0  0  0  0  0  0  0  0  0  0  0  0
   17.6345   38.6281   50.1318 O   0  0  0  0  0  0  0  0  0  0  0  0
   16.9082   38.7129   48.9189 C   0  0  0  0  0  0  0  0  0  0  0  0
   17.3011   39.8223   48.2542 F   0  0  0  0  0  0  0  0  0  0  0  0
   15.5812   38.8123   49.1499 F   0  0  0  0  0  0  0  0  0  0  0  0
   17.1479   37.6447   48.1284 F   0  0  0  0  0  0  0  0  0  0  0  0
 14 15  1  0
 15 16  2  0
 15  7  1  0
  7  8  2  0
  8  9  1  0
  9 10  1  0
  9 11  2  0
 11 12  1  0
 12  1  1  0
  1  2  2  0
  2  3  1  0
  3 19  1  0
 19 21  1  0
 21 22  2  0
 22 23  1  0
 23 24  2  0
 24 27  1  0
 27 28  1  0
 28 29  1  0
 28 30  1  0
 28 31  1  0
 24 25  1  0
 25 26  2  0
  3  4  2  0
  4  5  1  0
  5  6  2  0
 12 13  2  0
 13  7  1  0
  6  1  1  0
 26 21  1  0
 14 17  1  0
 14 18  1  0
 19 20  1  0
M  END
> <minimizedAffinity>
-10.07641

> <CNNscore>
0.8631032109

> <CNNaffinity>
6.6351380348

> <CNN_VS>
5.7268090248

> <CNNaffinity_variance>
0.2223262638

$$$$



 31 33  0  0  0  0  0  0  0  0999 V2000
   21.3927   44.4973   56.0495 C   0  0  0  0  0  0  0  0  0  0  0  0
   20.2917   44.3205   55.2280 C   0  0  0  0  0  0  0  0  0  0  0  0
   20.5163   44.0299   53.8910 C   0  0  0  0  0  0  0  0  0  0  0  0
   21.7599   43.9373   53.3997 N   0  0  0  0  0  0  0  0  0  0  0  0
   22.7653   44.1248   54.2605 C   0  0  0  0  0  0  0  0  0  0  0  0
   22.6470   44.4016   55.5641 N   0  0  0  0  0  0  0  0  0  0  0  0
   20.6279   44.2202   59.7910 C   0  0  0  0  0  0  0  0  0  0  0  0
   21.1320   45.4313   60.2627 C   0  0  0  0  0  0  0  0  0  0  0  0
   21.7021   46.3187   59.3615 C   0  0  0  0  0  0  0  0  0  0  0  0
   22.1880   47.4833   59.8106 F   0  0  0  0  0  0  0  0  0  0  0  0
   21.7816   46.0232   58.0032 C   0  0  0  0  0  0  0  0  0  0  0  0
   21.2911   44.8075   57.4940 C   0  0  0  0  0  0  0  0  0  0  0  0
   20.7219   43.9117   58.4206 C   0  0  0  0  0  0  0  0  0  0  0  0
   20.8347   42.3581   61.3642 N   0  0  0  0  0  0  0  0  0  0  0  0
   20.0071   43.2122   60.6917 C   0  0  0  0  0  0  0  0  0  0  0  0
   18.7944   43.1674   60.8569 O   0  0  0  0  0  0  0  0  0  0  0  0
   20.4558   41.6792   61.9682 H   0  0  0  0  0  0  0  0  0  0  0  0
   21.8099   42.4215   61.2449 H   0  0  0  0  0  0  0  0  0  0  0  0
   19.3804   43.8591   53.0609 N   0  0  0  0  0  0  0  0  0  0  0  0
   18.7399   44.6068   53.0589 H   0  0  0  0  0  0  0  0  0  0  0  0
   19.0408   42.7647   52.2368 C   0  0  0  0  0  0  0  0  0  0  0  0
   19.9771   42.0612   51.4760 C   0  0  0  0  0  0  0  0  0  0  0  0
   19.5814   41.0238   50.6234 C   0  0  0  0  0  0  0  0  0  0  0  0
   18.2356   40.6802   50.4896 C   0  0  0  0  0  0  0  0  0  0  0  0
   17.2867   41.3964   51.2147 C   0  0  0  0  0  0  0  0  0  0  0  0
   17.6880   42.4340   52.0686 C   0  0  0  0  0  0  0  0  0  0  0  0
   17.9956   39.6514   49.6256 O   0  0  0  0  0  0  0  0  0  0  0  0
   17.1433   38.6083   50.0628 C   0  0  0  0  0  0  0  0  0  0  0  0
   17.9034   37.5585   50.4466 F   0  0  0  0  0  0  0  0  0  0  0  0
   16.3293   38.1932   49.0682 F   0  0  0  0  0  0  0  0  0  0  0  0
   16.3988   38.9946   51.1211 F   0  0  0  0  0  0  0  0  0  0  0  0
 14 15  1  0
 15 16  2  0
 15  7  1  0
  7  8  2  0
  8  9  1  0
  9 10  1  0
  9 11  2  0
 11 12  1  0
 12  1  1  0
  1  2  2  0
  2  3  1  0
  3 19  1  0
 19 21  1  0
 21 22  2  0
 22 23  1  0
 23 24  2  0
 24 27  1  0
 27 28  1  0
 28 29  1  0
 28 30  1  0
 28 31  1  0
 24 25  1  0
 25 26  2  0
  3  4  2  0
  4  5  1  0
  5  6  2  0
 12 13  2  0
 13  7  1  0
  6  1  1  0
 26 21  1  0
 14 17  1  0
 14 18  1  0
 19 20  1  0
M  END
> <minimizedAffinity>
-9.78474

> <CNNscore>
0.8617051244

> <CNNaffinity>
6.4595475197

> <CNN_VS>
5.5662250519

> <CNNaffinity_variance>
0.1296410412

$$$$



 31 33  0  0  0  0  0  0  0  0999 V2000
   22.5011   44.8962   55.3231 C   0  0  0  0  0  0  0  0  0  0  0  0
   21.2245   44.3793   55.1769 C   0  0  0  0  0  0  0  0  0  0  0  0
   20.9840   43.5294   54.1081 C   0  0  0  0  0  0  0  0  0  0  0  0
   21.9508   43.2263   53.2306 N   0  0  0  0  0  0  0  0  0  0  0  0
   23.1531   43.7703   53.4440 C   0  0  0  0  0  0  0  0  0  0  0  0
   23.4803   44.5928   54.4472 N   0  0  0  0  0  0  0  0  0  0  0  0
   24.4751   47.3694   57.4787 C   0  0  0  0  0  0  0  0  0  0  0  0
   23.5923   47.5726   58.5382 C   0  0  0  0  0  0  0  0  0  0  0  0
   22.3790   46.8999   58.5407 C   0  0  0  0  0  0  0  0  0  0  0  0
   21.5276   47.0926   59.5567 F   0  0  0  0  0  0  0  0  0  0  0  0
   22.0277   46.0325   57.5097 C   0  0  0  0  0  0  0  0  0  0  0  0
   22.8901   45.8105   56.4211 C   0  0  0  0  0  0  0  0  0  0  0  0
   24.1155   46.5058   56.4267 C   0  0  0  0  0  0  0  0  0  0  0  0
   26.8555   47.4797   58.0326 N   0  0  0  0  0  0  0  0  0  0  0  0
   25.7920   48.0564   57.3977 C   0  0  0  0  0  0  0  0  0  0  0  0
   25.9329   49.0886   56.7537 O   0  0  0  0  0  0  0  0  0  0  0  0
   27.7410   47.9087   57.9984 H   0  0  0  0  0  0  0  0  0  0  0  0
   26.7364   46.6351   58.5242 H   0  0  0  0  0  0  0  0  0  0  0  0
   19.6714   43.0142   53.9670 N   0  0  0  0  0  0  0  0  0  0  0  0
   19.0688   43.1731   54.7291 H   0  0  0  0  0  0  0  0  0  0  0  0
   19.1088   42.3047   52.8842 C   0  0  0  0  0  0  0  0  0  0  0  0
   19.8738   41.7298   51.8670 C   0  0  0  0  0  0  0  0  0  0  0  0
   19.2658   41.0918   50.7794 C   0  0  0  0  0  0  0  0  0  0  0  0
   17.8761   41.0349   50.6674 C   0  0  0  0  0  0  0  0  0  0  0  0
   17.0999   41.6348   51.6557 C   0  0  0  0  0  0  0  0  0  0  0  0
   17.7135   42.2718   52.7441 C   0  0  0  0  0  0  0  0  0  0  0  0
   17.4222   40.3827   49.5579 O   0  0  0  0  0  0  0  0  0  0  0  0
   17.1160   39.0055   49.6815 C   0  0  0  0  0  0  0  0  0  0  0  0
   16.1681   38.8551   50.6333 F   0  0  0  0  0  0  0  0  0  0  0  0
   18.2017   38.2953   50.0573 F   0  0  0  0  0  0  0  0  0  0  0  0
   16.6304   38.5056   48.5249 F   0  0  0  0  0  0  0  0  0  0  0  0
 14 15  1  0
 15 16  2  0
 15  7  1  0
  7  8  2  0
  8  9  1  0
  9 10  1  0
  9 11  2  0
 11 12  1  0
 12  1  1  0
  1  2  2  0
  2  3  1  0
  3 19  1  0
 19 21  1  0
 21 22  2  0
 22 23  1  0
 23 24  2  0
 24 27  1  0
 27 28  1  0
 28 29  1  0
 28 30  1  0
 28 31  1  0
 24 25  1  0
 25 26  2  0
  3  4  2  0
  4  5  1  0
  5  6  2  0
 12 13  2  0
 13  7  1  0
  6  1  1  0
 26 21  1  0
 14 17  1  0
 14 18  1  0
 19 20  1  0
M  END
> <minimizedAffinity>
-8.63008

> <CNNscore>
0.8447816968

> <CNNaffinity>
6.7209916115

> <CNN_VS>
5.6777706146

> <CNNaffinity_variance>
0.0233949963

$$$$



 31 33  0  0  0  0  0  0  0  0999 V2000
   23.7451   45.4958   55.1039 C   0  0  0  0  0  0  0  0  0  0  0  0
   22.3914   45.2052   55.0679 C   0  0  0  0  0  0  0  0  0  0  0  0
   21.9645   44.1929   54.2220 C   0  0  0  0  0  0  0  0  0  0  0  0
   22.8301   43.5231   53.4482 N   0  0  0  0  0  0  0  0  0  0  0  0
   24.1179   43.8688   53.5426 C   0  0  0  0  0  0  0  0  0  0  0  0
   24.6229   44.8237   54.3320 N   0  0  0  0  0  0  0  0  0  0  0  0
   24.3224   47.9276   58.0044 C   0  0  0  0  0  0  0  0  0  0  0  0
   25.4959   48.5617   57.5991 C   0  0  0  0  0  0  0  0  0  0  0  0
   26.0742   48.1975   56.3918 C   0  0  0  0  0  0  0  0  0  0  0  0
   27.2020   48.8040   55.9988 F   0  0  0  0  0  0  0  0  0  0  0  0
   25.5090   47.2149   55.5832 C   0  0  0  0  0  0  0  0  0  0  0  0
   24.3307   46.5487   55.9649 C   0  0  0  0  0  0  0  0  0  0  0  0
   23.7579   46.9222   57.1968 C   0  0  0  0  0  0  0  0  0  0  0  0
   22.9838   49.4487   59.3755 N   0  0  0  0  0  0  0  0  0  0  0  0
   23.6433   48.2554   59.2866 C   0  0  0  0  0  0  0  0  0  0  0  0
   23.6416   47.4686   60.2252 O   0  0  0  0  0  0  0  0  0  0  0  0
   22.5240   49.6960   60.2102 H   0  0  0  0  0  0  0  0  0  0  0  0
   22.9685   50.0612   58.6050 H   0  0  0  0  0  0  0  0  0  0  0  0
   20.5759   43.9118   54.1901 N   0  0  0  0  0  0  0  0  0  0  0  0
   20.0475   44.2989   54.9251 H   0  0  0  0  0  0  0  0  0  0  0  0
   19.8459   43.1535   53.2497 C   0  0  0  0  0  0  0  0  0  0  0  0
   20.3683   42.7569   52.0167 C   0  0  0  0  0  0  0  0  0  0  0  0
   19.5828   42.0611   51.0902 C   0  0  0  0  0  0  0  0  0  0  0  0
   18.2461   41.7665   51.3620 C   0  0  0  0  0  0  0  0  0  0  0  0
   17.7010   42.1868   52.5725 C   0  0  0  0  0  0  0  0  0  0  0  0
   18.4922   42.8825   53.4981 C   0  0  0  0  0  0  0  0  0  0  0  0
   17.6022   41.0845   50.3708 O   0  0  0  0  0  0  0  0  0  0  0  0
   17.5729   39.6710   50.4545 C   0  0  0  0  0  0  0  0  0  0  0  0
   16.3968   39.2928   51.0028 F   0  0  0  0  0  0  0  0  0  0  0  0
   18.5686   39.2073   51.2403 F   0  0  0  0  0  0  0  0  0  0  0  0
   17.6652   39.1056   49.2316 F   0  0  0  0  0  0  0  0  0  0  0  0
 14 15  1  0
 15 16  2  0
 15  7  1  0
  7  8  2  0
  8  9  1  0
  9 10  1  0
  9 11  2  0
 11 12  1  0
 12  1  1  0
  1  2  2  0
  2  3  1  0
  3 19  1  0
 19 21  1  0
 21 22  2  0
 22 23  1  0
 23 24  2  0
 24 27  1  0
 27 28  1  0
 28 29  1  0
 28 30  1  0
 28 31  1  0
 24 25  1  0
 25 26  2  0
  3  4  2  0
  4  5  1  0
  5  6  2  0
 12 13  2  0
 13  7  1  0
  6  1  1  0
 26 21  1  0
 14 17  1  0
 14 18  1  0
 19 20  1  0
M  END
> <minimizedAffinity>
-8.01138

> <CNNscore>
0.8441545963

> <CNNaffinity>
6.4952893257

> <CNN_VS>
5.4830284119

> <CNNaffinity_variance>
0.0153089715

$$$$



 31 33  0  0  0  0  0  0  0  0999 V2000
   22.8199   44.3910   54.2863 C   0  0  0  0  0  0  0  0  0  0  0  0
   21.6661   44.1988   53.5446 C   0  0  0  0  0  0  0  0  0  0  0  0
   20.4714   44.0345   54.2287 C   0  0  0  0  0  0  0  0  0  0  0  0
   20.4312   44.0446   55.5685 N   0  0  0  0  0  0  0  0  0  0  0  0
   21.5906   44.2331   56.2066 C   0  0  0  0  0  0  0  0  0  0  0  0
   22.7873   44.4068   55.6342 N   0  0  0  0  0  0  0  0  0  0  0  0
   25.6082   45.2975   51.8238 C   0  0  0  0  0  0  0  0  0  0  0  0
   26.7424   44.9522   52.5571 C   0  0  0  0  0  0  0  0  0  0  0  0
   26.5847   44.4248   53.8305 C   0  0  0  0  0  0  0  0  0  0  0  0
   27.6719   44.0920   54.5386 F   0  0  0  0  0  0  0  0  0  0  0  0
   25.3224   44.2370   54.3873 C   0  0  0  0  0  0  0  0  0  0  0  0
   24.1572   44.5823   53.6796 C   0  0  0  0  0  0  0  0  0  0  0  0
   24.3314   45.1243   52.3908 C   0  0  0  0  0  0  0  0  0  0  0  0
   24.9916   47.0195   50.1990 N   0  0  0  0  0  0  0  0  0  0  0  0
   25.6910   45.8741   50.4551 C   0  0  0  0  0  0  0  0  0  0  0  0
   26.3910   45.3624   49.5902 O   0  0  0  0  0  0  0  0  0  0  0  0
   25.0250   47.4269   49.3034 H   0  0  0  0  0  0  0  0  0  0  0  0
   24.4541   47.4375   50.9102 H   0  0  0  0  0  0  0  0  0  0  0  0
   19.3004   43.8313   53.4569 N   0  0  0  0  0  0  0  0  0  0  0  0
   18.6029   44.5192   53.5547 H   0  0  0  0  0  0  0  0  0  0  0  0
   18.9962   42.7786   52.5673 C   0  0  0  0  0  0  0  0  0  0  0  0
   19.9465   42.1813   51.7363 C   0  0  0  0  0  0  0  0  0  0  0  0
   19.5825   41.1842   50.8236 C   0  0  0  0  0  0  0  0  0  0  0  0
   18.2536   40.7768   50.6997 C   0  0  0  0  0  0  0  0  0  0  0  0
   17.2890   41.3885   51.4963 C   0  0  0  0  0  0  0  0  0  0  0  0
   17.6587   42.3860   52.4101 C   0  0  0  0  0  0  0  0  0  0  0  0
   18.0442   39.7977   49.7725 O   0  0  0  0  0  0  0  0  0  0  0  0
   17.1475   38.7537   50.1068 C   0  0  0  0  0  0  0  0  0  0  0  0
   17.8589   37.6284   50.3407 F   0  0  0  0  0  0  0  0  0  0  0  0
   16.2901   38.5029   49.0938 F   0  0  0  0  0  0  0  0  0  0  0  0
   16.4489   39.0467   51.2246 F   0  0  0  0  0  0  0  0  0  0  0  0
 14 15  1  0
 15 16  2  0
 15  7  1  0
  7  8  2  0
  8  9  1  0
  9 10  1  0
  9 11  2  0
 11 12  1  0
 12  1  1  0
  1  2  2  0
  2  3  1  0
  3 19  1  0
 19 21  1  0
 21 22  2  0
 22 23  1  0
 23 24  2  0
 24 27  1  0
 27 28  1  0
 28 29  1  0
 28 30  1  0
 28 31  1  0
 24 25  1  0
 25 26  2  0
  3  4  2  0
  4  5  1  0
  5  6  2  0
 12 13  2  0
 13  7  1  0
  6  1  1  0
 26 21  1  0
 14 17  1  0
 14 18  1  0
 19 20  1  0
M  END
> <minimizedAffinity>
-9.94896

> <CNNscore>
0.8069831729

> <CNNaffinity>
6.7147021294

> <CNN_VS>
5.4186515808

> <CNNaffinity_variance>
0.1186183691

$$$$



 31 33  0  0  0  0  0  0  0  0999 V2000
   22.0476   44.3510   55.9588 C   0  0  0  0  0  0  0  0  0  0  0  0
   20.8335   44.3067   55.2937 C   0  0  0  0  0  0  0  0  0  0  0  0
   20.8485   44.0971   53.9232 C   0  0  0  0  0  0  0  0  0  0  0  0
   22.0017   43.9568   53.2546 N   0  0  0  0  0  0  0  0  0  0  0  0
   23.1277   44.0153   53.9727 C   0  0  0  0  0  0  0  0  0  0  0  0
   23.2119   44.2064   55.2942 N   0  0  0  0  0  0  0  0  0  0  0  0
   23.4079   45.3624   59.3920 C   0  0  0  0  0  0  0  0  0  0  0  0
   22.3604   44.9738   60.2255 C   0  0  0  0  0  0  0  0  0  0  0  0
   21.2373   44.3843   59.6635 C   0  0  0  0  0  0  0  0  0  0  0  0
   20.2283   44.0098   60.4608 F   0  0  0  0  0  0  0  0  0  0  0  0
   21.1367   44.1768   58.2904 C   0  0  0  0  0  0  0  0  0  0  0  0
   22.1704   44.5642   57.4191 C   0  0  0  0  0  0  0  0  0  0  0  0
   23.3018   45.1689   58.0016 C   0  0  0  0  0  0  0  0  0  0  0  0
   25.7635   45.2344   60.0405 N   0  0  0  0  0  0  0  0  0  0  0  0
   24.6431   46.0062   59.9141 C   0  0  0  0  0  0  0  0  0  0  0  0
   24.6711   47.1990   60.1904 O   0  0  0  0  0  0  0  0  0  0  0  0
   26.5975   45.6298   60.3830 H   0  0  0  0  0  0  0  0  0  0  0  0
   25.7367   44.2830   59.7891 H   0  0  0  0  0  0  0  0  0  0  0  0
   19.5992   44.0617   53.2551 N   0  0  0  0  0  0  0  0  0  0  0  0
   19.0351   44.8607   53.3674 H   0  0  0  0  0  0  0  0  0  0  0  0
   19.0523   43.0388   52.4509 C   0  0  0  0  0  0  0  0  0  0  0  0
   19.7034   42.5161   51.3314 C   0  0  0  0  0  0  0  0  0  0  0  0
   19.0912   41.5474   50.5273 C   0  0  0  0  0  0  0  0  0  0  0  0
   17.8011   41.0951   50.8068 C   0  0  0  0  0  0  0  0  0  0  0  0
   17.1253   41.6332   51.8991 C   0  0  0  0  0  0  0  0  0  0  0  0
   17.7431   42.6025   52.7025 C   0  0  0  0  0  0  0  0  0  0  0  0
   17.3305   40.1510   49.9411 O   0  0  0  0  0  0  0  0  0  0  0  0
   17.2742   38.8103   50.3942 C   0  0  0  0  0  0  0  0  0  0  0  0
   18.5306   38.3884   50.6592 F   0  0  0  0  0  0  0  0  0  0  0  0
   16.7506   37.9975   49.4512 F   0  0  0  0  0  0  0  0  0  0  0  0
   16.5500   38.7066   51.5293 F   0  0  0  0  0  0  0  0  0  0  0  0
 14 15  1  0
 15 16  2  0
 15  7  1  0
  7  8  2  0
  8  9  1  0
  9 10  1  0
  9 11  2  0
 11 12  1  0
 12  1  1  0
  1  2  2  0
  2  3  1  0
  3 19  1  0
 19 21  1  0
 21 22  2  0
 22 23  1  0
 23 24  2  0
 24 27  1  0
 27 28  1  0
 28 29  1  0
 28 30  1  0
 28 31  1  0
 24 25  1  0
 25 26  2  0
  3  4  2  0
  4  5  1  0
  5  6  2  0
 12 13  2  0
 13  7  1  0
  6  1  1  0
 26 21  1  0
 14 17  1  0
 14 18  1  0
 19 20  1  0
M  END
> <minimizedAffinity>
-8.68786

> <CNNscore>
0.7985093594

> <CNNaffinity>
6.4085807800

> <CNN_VS>
5.1173119545

> <CNNaffinity_variance>
0.2447272986

$$$$



 31 33  0  0  0  0  0  0  0  0999 V2000
   25.4109   46.0972   52.8043 C   0  0  0  0  0  0  0  0  0  0  0  0
   24.2406   45.7967   53.4814 C   0  0  0  0  0  0  0  0  0  0  0  0
   24.1051   44.5243   54.0154 C   0  0  0  0  0  0  0  0  0  0  0  0
   25.0684   43.6037   53.8699 N   0  0  0  0  0  0  0  0  0  0  0  0
   26.1639   43.9759   53.2003 C   0  0  0  0  0  0  0  0  0  0  0  0
   26.3866   45.1782   52.6573 N   0  0  0  0  0  0  0  0  0  0  0  0
   26.4438   48.8143   50.3122 C   0  0  0  0  0  0  0  0  0  0  0  0
   26.1721   49.9707   51.0416 C   0  0  0  0  0  0  0  0  0  0  0  0
   25.6681   49.8509   52.3285 C   0  0  0  0  0  0  0  0  0  0  0  0
   25.4053   50.9595   53.0327 F   0  0  0  0  0  0  0  0  0  0  0  0
   25.4280   48.6046   52.9010 C   0  0  0  0  0  0  0  0  0  0  0  0
   25.6823   47.4175   52.1910 C   0  0  0  0  0  0  0  0  0  0  0  0
   26.1864   47.5531   50.8824 C   0  0  0  0  0  0  0  0  0  0  0  0
   26.4363   49.7595   48.0556 N   0  0  0  0  0  0  0  0  0  0  0  0
   26.9794   48.8562   48.9251 C   0  0  0  0  0  0  0  0  0  0  0  0
   27.9027   48.1306   48.5771 O   0  0  0  0  0  0  0  0  0  0  0  0
   26.7682   49.8129   47.1303 H   0  0  0  0  0  0  0  0  0  0  0  0
   25.7132   50.3570   48.3545 H   0  0  0  0  0  0  0  0  0  0  0  0
   22.8993   44.2288   54.6989 N   0  0  0  0  0  0  0  0  0  0  0  0
   22.9530   44.2477   55.6818 H   0  0  0  0  0  0  0  0  0  0  0  0
   21.6320   43.9112   54.1648 C   0  0  0  0  0  0  0  0  0  0  0  0
   20.4404   44.0766   54.8739 C   0  0  0  0  0  0  0  0  0  0  0  0
   19.2134   43.6859   54.3246 C   0  0  0  0  0  0  0  0  0  0  0  0
   19.1492   43.0955   53.0619 C   0  0  0  0  0  0  0  0  0  0  0  0
   20.3330   42.8913   52.3576 C   0  0  0  0  0  0  0  0  0  0  0  0
   21.5596   43.2855   52.9115 C   0  0  0  0  0  0  0  0  0  0  0  0
   17.8897   42.7661   52.6527 O   0  0  0  0  0  0  0  0  0  0  0  0
   17.7239   41.5537   51.9397 C   0  0  0  0  0  0  0  0  0  0  0  0
   16.4323   41.1668   52.0353 F   0  0  0  0  0  0  0  0  0  0  0  0
   18.4934   40.5725   52.4585 F   0  0  0  0  0  0  0  0  0  0  0  0
   18.0176   41.7106   50.6310 F   0  0  0  0  0  0  0  0  0  0  0  0
 14 15  1  0
 15 16  2  0
 15  7  1  0
  7  8  2  0
  8  9  1  0
  9 10  1  0
  9 11  2  0
 11 12  1  0
 12  1  1  0
  1  2  2  0
  2  3  1  0
  3 19  1  0
 19 21  1  0
 21 22  2  0
 22 23  1  0
 23 24  2  0
 24 27  1  0
 27 28  1  0
 28 29  1  0
 28 30  1  0
 28 31  1  0
 24 25  1  0
 25 26  2  0
  3  4  2  0
  4  5  1  0
  5  6  2  0
 12 13  2  0
 13  7  1  0
  6  1  1  0
 26 21  1  0
 14 17  1  0
 14 18  1  0
 19 20  1  0
M  END
> <minimizedAffinity>
-8.27262

> <CNNscore>
0.7807766199

> <CNNaffinity>
6.4326090813

> <CNN_VS>
5.0224308968

> <CNNaffinity_variance>
0.2629615366

$$$$



 31 33  0  0  0  0  0  0  0  0999 V2000
   25.7557   45.2857   53.4114 C   0  0  0  0  0  0  0  0  0  0  0  0
   24.4525   45.1495   53.8602 C   0  0  0  0  0  0  0  0  0  0  0  0
   24.2438   44.5041   55.0695 C   0  0  0  0  0  0  0  0  0  0  0  0
   25.2682   44.0108   55.7794 N   0  0  0  0  0  0  0  0  0  0  0  0
   26.4932   44.1831   55.2727 C   0  0  0  0  0  0  0  0  0  0  0  0
   26.7921   44.7961   54.1217 N   0  0  0  0  0  0  0  0  0  0  0  0
   27.3137   46.0177   49.9914 C   0  0  0  0  0  0  0  0  0  0  0  0
   26.7653   47.2666   49.7037 C   0  0  0  0  0  0  0  0  0  0  0  0
   25.9088   47.8528   50.6242 C   0  0  0  0  0  0  0  0  0  0  0  0
   25.3793   49.0526   50.3516 F   0  0  0  0  0  0  0  0  0  0  0  0
   25.5870   47.2200   51.8219 C   0  0  0  0  0  0  0  0  0  0  0  0
   26.1150   45.9560   52.1408 C   0  0  0  0  0  0  0  0  0  0  0  0
   26.9770   45.3681   51.1941 C   0  0  0  0  0  0  0  0  0  0  0  0
   29.5625   45.6383   49.1058 N   0  0  0  0  0  0  0  0  0  0  0  0
   28.2350   45.3189   49.0557 C   0  0  0  0  0  0  0  0  0  0  0  0
   27.8279   44.4573   48.2864 O   0  0  0  0  0  0  0  0  0  0  0  0
   30.1989   45.1940   48.5000 H   0  0  0  0  0  0  0  0  0  0  0  0
   29.8827   46.3126   49.7476 H   0  0  0  0  0  0  0  0  0  0  0  0
   22.9048   44.3655   55.5123 N   0  0  0  0  0  0  0  0  0  0  0  0
   22.7628   44.4864   56.4790 H   0  0  0  0  0  0  0  0  0  0  0  0
   21.7467   44.0780   54.7584 C   0  0  0  0  0  0  0  0  0  0  0  0
   20.4515   44.2867   55.2374 C   0  0  0  0  0  0  0  0  0  0  0  0
   19.3336   43.9247   54.4765 C   0  0  0  0  0  0  0  0  0  0  0  0
   19.4820   43.3206   53.2274 C   0  0  0  0  0  0  0  0  0  0  0  0
   20.7674   43.0736   52.7520 C   0  0  0  0  0  0  0  0  0  0  0  0
   21.8843   43.4390   53.5173 C   0  0  0  0  0  0  0  0  0  0  0  0
   18.3085   43.0227   52.5978 O   0  0  0  0  0  0  0  0  0  0  0  0
   18.2021   41.7608   51.9638 C   0  0  0  0  0  0  0  0  0  0  0  0
   18.7940   40.8306   52.7457 F   0  0  0  0  0  0  0  0  0  0  0  0
   18.8286   41.7608   50.7673 F   0  0  0  0  0  0  0  0  0  0  0  0
   16.9106   41.4046   51.7948 F   0  0  0  0  0  0  0  0  0  0  0  0
 14 15  1  0
 15 16  2  0
 15  7  1  0
  7  8  2  0
  8  9  1  0
  9 10  1  0
  9 11  2  0
 11 12  1  0
 12  1  1  0
  1  2  2  0
  2  3  1  0
  3 19  1  0
 19 21  1  0
 21 22  2  0
 22 23  1  0
 23 24  2  0
 24 27  1  0
 27 28  1  0
 28 29  1  0
 28 30  1  0
 28 31  1  0
 24 25  1  0
 25 26  2  0
  3  4  2  0
  4  5  1  0
  5  6  2  0
 12 13  2  0
 13  7  1  0
  6  1  1  0
 26 21  1  0
 14 17  1  0
 14 18  1  0
 19 20  1  0
M  END
> <minimizedAffinity>
-8.18355

> <CNNscore>
0.6800849438

> <CNNaffinity>
6.1903491020

> <CNN_VS>
4.2099633217

> <CNNaffinity_variance>
0.2752455175

$$$$



 31 33  0  0  0  0  0  0  0  0999 V2000
   24.0778   45.4377   54.6356 C   0  0  0  0  0  0  0  0  0  0  0  0
   22.8163   44.8789   54.5143 C   0  0  0  0  0  0  0  0  0  0  0  0
   21.9127   45.0797   55.5466 C   0  0  0  0  0  0  0  0  0  0  0  0
   22.2501   45.7797   56.6387 N   0  0  0  0  0  0  0  0  0  0  0  0
   23.4883   46.2820   56.6760 C   0  0  0  0  0  0  0  0  0  0  0  0
   24.4237   46.1469   55.7290 N   0  0  0  0  0  0  0  0  0  0  0  0
   27.4607   44.8571   52.9388 C   0  0  0  0  0  0  0  0  0  0  0  0
   27.1256   45.0294   51.5967 C   0  0  0  0  0  0  0  0  0  0  0  0
   25.8143   45.3385   51.2655 C   0  0  0  0  0  0  0  0  0  0  0  0
   25.4879   45.5045   49.9771 F   0  0  0  0  0  0  0  0  0  0  0  0
   24.8321   45.4768   52.2427 C   0  0  0  0  0  0  0  0  0  0  0  0
   25.1328   45.3014   53.6053 C   0  0  0  0  0  0  0  0  0  0  0  0
   26.4662   44.9800   53.9275 C   0  0  0  0  0  0  0  0  0  0  0  0
   29.6108   43.7597   52.5408 N   0  0  0  0  0  0  0  0  0  0  0  0
   28.8414   44.5187   53.3768 C   0  0  0  0  0  0  0  0  0  0  0  0
   29.2927   44.9343   54.4368 O   0  0  0  0  0  0  0  0  0  0  0  0
   30.5291   43.5181   52.8008 H   0  0  0  0  0  0  0  0  0  0  0  0
   29.2468   43.4544   51.6785 H   0  0  0  0  0  0  0  0  0  0  0  0
   20.6284   44.4957   55.4121 N   0  0  0  0  0  0  0  0  0  0  0  0
   20.0312   44.6004   56.1877 H   0  0  0  0  0  0  0  0  0  0  0  0
   20.0876   43.7847   54.3193 C   0  0  0  0  0  0  0  0  0  0  0  0
   20.8408   43.4052   53.2062 C   0  0  0  0  0  0  0  0  0  0  0  0
   20.2442   42.7580   52.1176 C   0  0  0  0  0  0  0  0  0  0  0  0
   18.8735   42.4968   52.1026 C   0  0  0  0  0  0  0  0  0  0  0  0
   18.1032   42.9013   53.1899 C   0  0  0  0  0  0  0  0  0  0  0  0
   18.7056   43.5483   54.2787 C   0  0  0  0  0  0  0  0  0  0  0  0
   18.4291   41.8608   50.9800 O   0  0  0  0  0  0  0  0  0  0  0  0
   18.6473   40.4648   50.8827 C   0  0  0  0  0  0  0  0  0  0  0  0
   17.5474   39.8896   50.3478 F   0  0  0  0  0  0  0  0  0  0  0  0
   18.8556   39.9169   52.0995 F   0  0  0  0  0  0  0  0  0  0  0  0
   19.6968   40.1876   50.0795 F   0  0  0  0  0  0  0  0  0  0  0  0
 14 15  1  0
 15 16  2  0
 15  7  1  0
  7  8  2  0
  8  9  1  0
  9 10  1  0
  9 11  2  0
 11 12  1  0
 12  1  1  0
  1  2  2  0
  2  3  1  0
  3 19  1  0
 19 21  1  0
 21 22  2  0
 22 23  1  0
 23 24  2  0
 24 27  1  0
 27 28  1  0
 28 29  1  0
 28 30  1  0
 28 31  1  0
 24 25  1  0
 25 26  2  0
  3  4  2  0
  4  5  1  0
  5  6  2  0
 12 13  2  0
 13  7  1  0
  6  1  1  0
 26 21  1  0
 14 17  1  0
 14 18  1  0
 19 20  1  0
M  END
> <minimizedAffinity>
-8.54032

> <CNNscore>
0.6517605782

> <CNNaffinity>
6.3523516655

> <CNN_VS>
4.1402125359

> <CNNaffinity_variance>
0.1397209316

$$$$
