


 31 32  0  0  0  0  0  0  0  0999 V2000
   28.1172    1.5095    3.6681 C   0  0  0  0  0  0  0  0  0  0  0  0
   26.9986    1.0523    3.8702 O   0  0  0  0  0  0  0  0  0  0  0  0
   28.4076    2.8433    3.4008 N   0  0  0  0  0  0  0  0  0  0  0  0
   29.3313    3.0569    3.1354 H   0  0  0  0  0  0  0  0  0  0  0  0
   27.4965    3.9164    3.4762 C   0  0  0  0  0  0  0  0  0  0  0  0
   26.1813    3.6154    3.8511 C   0  0  0  0  0  0  0  0  0  0  0  0
   25.2073    4.6287    3.9844 C   0  0  0  0  0  0  0  0  0  0  0  0
   25.5653    5.9615    3.7081 C   0  0  0  0  0  0  0  0  0  0  0  0
   26.8671    6.2590    3.2929 C   0  0  0  0  0  0  0  0  0  0  0  0
   27.8157    5.2441    3.1717 C   0  0  0  0  0  0  0  0  0  0  0  0
   29.0145    5.5801    2.6760 F   0  0  0  0  0  0  0  0  0  0  0  0
   23.8055    4.2776    4.4263 C   0  0  0  0  0  0  0  0  0  0  0  0
   23.3235    3.1539    3.8239 F   0  0  0  0  0  0  0  0  0  0  0  0
   22.9097    5.2584    4.1449 F   0  0  0  0  0  0  0  0  0  0  0  0
   23.7242    4.0449    5.7616 F   0  0  0  0  0  0  0  0  0  0  0  0
   24.6202    7.0373    3.8267 C   0  0  0  0  0  0  0  0  0  0  0  0
   23.8559    7.9044    3.9201 N   0  0  0  0  0  0  0  0  0  0  0  0
   29.2702   -0.3975    2.4428 C   0  0  0  0  0  0  0  0  0  0  0  0
   29.3807    0.6193    3.5802 C   0  0  0  0  0  0  0  0  0  0  0  0
   30.5011    1.4924    3.3198 O   0  0  0  0  0  0  0  0  0  0  0  0
   31.3136    0.9662    3.2582 H   0  0  0  0  0  0  0  0  0  0  0  0
   29.6236   -0.0750    4.9348 C   0  0  0  0  0  0  0  0  0  0  0  0
   30.4728    0.7272    5.7650 O   0  0  0  0  0  0  0  0  0  0  0  0
   30.0342    0.7134    7.0602 C   0  0  0  0  0  0  0  0  0  0  0  0
   29.4881    1.8680    7.6255 C   0  0  0  0  0  0  0  0  0  0  0  0
   29.0755    1.8548    8.9606 C   0  0  0  0  0  0  0  0  0  0  0  0
   29.2214    0.6904    9.7188 C   0  0  0  0  0  0  0  0  0  0  0  0
   28.6882    0.6754   11.3557 Cl  0  0  0  0  0  0  0  0  0  0  0  0
   29.7916   -0.4482    9.1460 C   0  0  0  0  0  0  0  0  0  0  0  0
   29.9439   -1.5723    9.8631 F   0  0  0  0  0  0  0  0  0  0  0  0
   30.2114   -0.4408    7.8189 C   0  0  0  0  0  0  0  0  0  0  0  0
 19 18  1  0
 19 20  1  0
 19 22  1  0
 22 23  1  0
 23 24  1  0
 24 25  2  0
 25 26  1  0
 26 27  2  0
 27 28  1  0
 27 29  1  0
 29 30  1  0
 29 31  2  0
 19  1  1  0
  1  2  2  0
  1  3  1  0
  3  5  1  0
  5  6  2  0
  6  7  1  0
  7 12  1  0
 12 13  1  0
 12 14  1  0
 12 15  1  0
  7  8  2  0
  8 16  1  0
 16 17  3  0
  8  9  1  0
  9 10  2  0
 10 11  1  0
 31 24  1  0
 10  5  1  0
 20 21  1  0
  3  4  1  0
M  END
> <minimizedAffinity>
-11.04357

> <CNNscore>
0.9059882760

> <CNNaffinity>
8.6902322769

> <CNN_VS>
7.8732485771

> <CNNaffinity_variance>
0.2377417088

$$$$



 31 32  0  0  0  0  0  0  0  0999 V2000
   28.5565    0.4320    3.8602 C   0  0  0  0  0  0  0  0  0  0  0  0
   27.6702   -0.4118    3.7998 O   0  0  0  0  0  0  0  0  0  0  0  0
   28.3667    1.8081    3.7888 N   0  0  0  0  0  0  0  0  0  0  0  0
   29.1730    2.3695    3.7260 H   0  0  0  0  0  0  0  0  0  0  0  0
   27.1221    2.4702    3.7985 C   0  0  0  0  0  0  0  0  0  0  0  0
   27.1402    3.8697    3.7532 C   0  0  0  0  0  0  0  0  0  0  0  0
   25.9430    4.6174    3.7268 C   0  0  0  0  0  0  0  0  0  0  0  0
   24.7114    3.9377    3.7737 C   0  0  0  0  0  0  0  0  0  0  0  0
   24.6914    2.5422    3.8614 C   0  0  0  0  0  0  0  0  0  0  0  0
   25.8852    1.8218    3.8817 C   0  0  0  0  0  0  0  0  0  0  0  0
   25.7999    0.4972    4.0658 F   0  0  0  0  0  0  0  0  0  0  0  0
   25.9941    6.1253    3.6407 C   0  0  0  0  0  0  0  0  0  0  0  0
   25.6137    6.6016    2.4216 F   0  0  0  0  0  0  0  0  0  0  0  0
   27.2414    6.6172    3.8546 F   0  0  0  0  0  0  0  0  0  0  0  0
   25.1766    6.7256    4.5436 F   0  0  0  0  0  0  0  0  0  0  0  0
   23.4591    4.6417    3.7486 C   0  0  0  0  0  0  0  0  0  0  0  0
   22.4498    5.2123    3.7274 N   0  0  0  0  0  0  0  0  0  0  0  0
   30.3313   -1.2875    3.2598 C   0  0  0  0  0  0  0  0  0  0  0  0
   30.0587    0.0634    3.9236 C   0  0  0  0  0  0  0  0  0  0  0  0
   30.7809    1.0897    3.2091 O   0  0  0  0  0  0  0  0  0  0  0  0
   31.7300    0.8903    3.2284 H   0  0  0  0  0  0  0  0  0  0  0  0
   30.5368    0.0777    5.3889 C   0  0  0  0  0  0  0  0  0  0  0  0
   30.0793    1.2614    6.0547 O   0  0  0  0  0  0  0  0  0  0  0  0
   29.8031    1.0001    7.3683 C   0  0  0  0  0  0  0  0  0  0  0  0
   29.2792    2.0044    8.1855 C   0  0  0  0  0  0  0  0  0  0  0  0
   29.0337    1.7388    9.5353 C   0  0  0  0  0  0  0  0  0  0  0  0
   29.3228    0.4748   10.0559 C   0  0  0  0  0  0  0  0  0  0  0  0
   28.9947    0.1485   11.7141 Cl  0  0  0  0  0  0  0  0  0  0  0  0
   29.8690   -0.5108    9.2315 C   0  0  0  0  0  0  0  0  0  0  0  0
   30.1578   -1.7278    9.7182 F   0  0  0  0  0  0  0  0  0  0  0  0
   30.1230   -0.2517    7.8877 C   0  0  0  0  0  0  0  0  0  0  0  0
 19 18  1  0
 19 20  1  0
 19 22  1  0
 22 23  1  0
 23 24  1  0
 24 25  2  0
 25 26  1  0
 26 27  2  0
 27 28  1  0
 27 29  1  0
 29 30  1  0
 29 31  2  0
 19  1  1  0
  1  2  2  0
  1  3  1  0
  3  5  1  0
  5  6  2  0
  6  7  1  0
  7 12  1  0
 12 13  1  0
 12 14  1  0
 12 15  1  0
  7  8  2  0
  8 16  1  0
 16 17  3  0
  8  9  1  0
  9 10  2  0
 10 11  1  0
 31 24  1  0
 10  5  1  0
 20 21  1  0
  3  4  1  0
M  END
> <minimizedAffinity>
-10.26742

> <CNNscore>
0.5915635824

> <CNNaffinity>
8.1270265579

> <CNN_VS>
4.8076529503

> <CNNaffinity_variance>
0.0289904773

$$$$



 31 32  0  0  0  0  0  0  0  0999 V2000
   23.1033    0.1933   14.5689 C   0  0  0  0  0  0  0  0  0  0  0  0
   23.2365   -0.1332   15.7423 O   0  0  0  0  0  0  0  0  0  0  0  0
   24.1396    0.3725   13.6586 N   0  0  0  0  0  0  0  0  0  0  0  0
   23.9056    0.7547   12.7820 H   0  0  0  0  0  0  0  0  0  0  0  0
   25.4952    0.0554   13.8799 C   0  0  0  0  0  0  0  0  0  0  0  0
   26.4249    0.5286   12.9457 C   0  0  0  0  0  0  0  0  0  0  0  0
   27.8073    0.2880   13.1013 C   0  0  0  0  0  0  0  0  0  0  0  0
   28.2501   -0.4651   14.2049 C   0  0  0  0  0  0  0  0  0  0  0  0
   27.3196   -0.9744   15.1163 C   0  0  0  0  0  0  0  0  0  0  0  0
   25.9588   -0.7217   14.9470 C   0  0  0  0  0  0  0  0  0  0  0  0
   25.1129   -1.3189   15.7976 F   0  0  0  0  0  0  0  0  0  0  0  0
   28.7901    0.8429   12.0964 C   0  0  0  0  0  0  0  0  0  0  0  0
   28.2588    1.8315   11.3229 F   0  0  0  0  0  0  0  0  0  0  0  0
   29.2377   -0.1014   11.2296 F   0  0  0  0  0  0  0  0  0  0  0  0
   29.8869    1.3842   12.6861 F   0  0  0  0  0  0  0  0  0  0  0  0
   29.6435   -0.7428   14.4193 C   0  0  0  0  0  0  0  0  0  0  0  0
   30.7680   -0.9687   14.5901 N   0  0  0  0  0  0  0  0  0  0  0  0
   21.0411    1.6708   14.7467 C   0  0  0  0  0  0  0  0  0  0  0  0
   21.7306    0.5592   13.9538 C   0  0  0  0  0  0  0  0  0  0  0  0
   21.9758    1.0266   12.6096 O   0  0  0  0  0  0  0  0  0  0  0  0
   21.1338    1.2658   12.1918 H   0  0  0  0  0  0  0  0  0  0  0  0
   20.8472   -0.7009   13.8655 C   0  0  0  0  0  0  0  0  0  0  0  0
   21.6256   -1.8319   13.4545 O   0  0  0  0  0  0  0  0  0  0  0  0
   21.3069   -2.9335   14.1996 C   0  0  0  0  0  0  0  0  0  0  0  0
   20.3328   -3.8258   13.7463 C   0  0  0  0  0  0  0  0  0  0  0  0
   19.9881   -4.9295   14.5311 C   0  0  0  0  0  0  0  0  0  0  0  0
   20.6145   -5.1244   15.7648 C   0  0  0  0  0  0  0  0  0  0  0  0
   20.2015   -6.4998   16.7143 Cl  0  0  0  0  0  0  0  0  0  0  0  0
   21.5688   -4.2099   16.2147 C   0  0  0  0  0  0  0  0  0  0  0  0
   22.1748   -4.3802   17.4000 F   0  0  0  0  0  0  0  0  0  0  0  0
   21.9124   -3.1044   15.4419 C   0  0  0  0  0  0  0  0  0  0  0  0
 19 18  1  0
 19 20  1  0
 19 22  1  0
 22 23  1  0
 23 24  1  0
 24 25  2  0
 25 26  1  0
 26 27  2  0
 27 28  1  0
 27 29  1  0
 29 30  1  0
 29 31  2  0
 19  1  1  0
  1  2  2  0
  1  3  1  0
  3  5  1  0
  5  6  2  0
  6  7  1  0
  7 12  1  0
 12 13  1  0
 12 14  1  0
 12 15  1  0
  7  8  2  0
  8 16  1  0
 16 17  3  0
  8  9  1  0
  9 10  2  0
 10 11  1  0
 31 24  1  0
 10  5  1  0
 20 21  1  0
  3  4  1  0
M  END
> <minimizedAffinity>
15.84770

> <CNNscore>
0.5293735862

> <CNNaffinity>
5.7485566139

> <CNN_VS>
3.0431339741

> <CNNaffinity_variance>
1.6889625788

$$$$



 31 32  0  0  0  0  0  0  0  0999 V2000
   28.7764    0.0176    4.5544 C   0  0  0  0  0  0  0  0  0  0  0  0
   27.8012   -0.6290    4.9174 O   0  0  0  0  0  0  0  0  0  0  0  0
   29.6342    0.7230    5.3919 N   0  0  0  0  0  0  0  0  0  0  0  0
   30.3059    1.3007    4.9625 H   0  0  0  0  0  0  0  0  0  0  0  0
   29.6271    0.6840    6.8010 C   0  0  0  0  0  0  0  0  0  0  0  0
   29.4814   -0.5701    7.4068 C   0  0  0  0  0  0  0  0  0  0  0  0
   29.4948   -0.7113    8.8115 C   0  0  0  0  0  0  0  0  0  0  0  0
   29.6312    0.4379    9.6127 C   0  0  0  0  0  0  0  0  0  0  0  0
   29.7346    1.6959    9.0106 C   0  0  0  0  0  0  0  0  0  0  0  0
   29.7237    1.8134    7.6212 C   0  0  0  0  0  0  0  0  0  0  0  0
   29.7271    3.0520    7.1097 F   0  0  0  0  0  0  0  0  0  0  0  0
   29.3724   -2.0821    9.4357 C   0  0  0  0  0  0  0  0  0  0  0  0
   30.5551   -2.7590    9.4687 F   0  0  0  0  0  0  0  0  0  0  0  0
   28.5080   -2.8850    8.7637 F   0  0  0  0  0  0  0  0  0  0  0  0
   28.9399   -2.0310   10.7218 F   0  0  0  0  0  0  0  0  0  0  0  0
   29.6533    0.3598   11.0473 C   0  0  0  0  0  0  0  0  0  0  0  0
   29.6700    0.2995   12.2052 N   0  0  0  0  0  0  0  0  0  0  0  0
   30.5483    0.7836    2.8989 C   0  0  0  0  0  0  0  0  0  0  0  0
   29.1339    0.2245    3.0624 C   0  0  0  0  0  0  0  0  0  0  0  0
   29.0655   -1.0688    2.4235 O   0  0  0  0  0  0  0  0  0  0  0  0
   29.2847   -0.9768    1.4830 H   0  0  0  0  0  0  0  0  0  0  0  0
   28.0862    1.1394    2.3981 C   0  0  0  0  0  0  0  0  0  0  0  0
   28.1369    2.4547    2.9648 O   0  0  0  0  0  0  0  0  0  0  0  0
   26.8777    2.9076    3.2467 C   0  0  0  0  0  0  0  0  0  0  0  0
   25.7918    2.0307    3.1950 C   0  0  0  0  0  0  0  0  0  0  0  0
   24.5041    2.5101    3.4495 C   0  0  0  0  0  0  0  0  0  0  0  0
   24.3146    3.8627    3.7443 C   0  0  0  0  0  0  0  0  0  0  0  0
   22.7280    4.4402    4.0805 Cl  0  0  0  0  0  0  0  0  0  0  0  0
   25.4076    4.7312    3.7682 C   0  0  0  0  0  0  0  0  0  0  0  0
   25.2410    6.0341    4.0437 F   0  0  0  0  0  0  0  0  0  0  0  0
   26.6924    4.2626    3.5089 C   0  0  0  0  0  0  0  0  0  0  0  0
 19 18  1  0
 19 20  1  0
 19 22  1  0
 22 23  1  0
 23 24  1  0
 24 25  2  0
 25 26  1  0
 26 27  2  0
 27 28  1  0
 27 29  1  0
 29 30  1  0
 29 31  2  0
 19  1  1  0
  1  2  2  0
  1  3  1  0
  3  5  1  0
  5  6  2  0
  6  7  1  0
  7 12  1  0
 12 13  1  0
 12 14  1  0
 12 15  1  0
  7  8  2  0
  8 16  1  0
 16 17  3  0
  8  9  1  0
  9 10  2  0
 10 11  1  0
 31 24  1  0
 10  5  1  0
 20 21  1  0
  3  4  1  0
M  END
> <minimizedAffinity>
-8.08355

> <CNNscore>
0.5150468349

> <CNNaffinity>
7.7079582214

> <CNN_VS>
3.9699594975

> <CNNaffinity_variance>
0.0546560697

$$$$



 31 32  0  0  0  0  0  0  0  0999 V2000
   37.7262   10.5951   10.4077 C   0  0  0  0  0  0  0  0  0  0  0  0
   36.6159   11.0922   10.2620 O   0  0  0  0  0  0  0  0  0  0  0  0
   38.3888   10.4421   11.6211 N   0  0  0  0  0  0  0  0  0  0  0  0
   39.3255   10.1411   11.5858 H   0  0  0  0  0  0  0  0  0  0  0  0
   37.8381   10.6797   12.8968 C   0  0  0  0  0  0  0  0  0  0  0  0
   36.8671    9.7799   13.3535 C   0  0  0  0  0  0  0  0  0  0  0  0
   36.2826    9.9188   14.6310 C   0  0  0  0  0  0  0  0  0  0  0  0
   36.6686   10.9998   15.4455 C   0  0  0  0  0  0  0  0  0  0  0  0
   37.6072   11.9235   14.9746 C   0  0  0  0  0  0  0  0  0  0  0  0
   38.1761   11.7658   13.7113 C   0  0  0  0  0  0  0  0  0  0  0  0
   38.9931   12.7367   13.2804 F   0  0  0  0  0  0  0  0  0  0  0  0
   35.2642    8.9108   15.1111 C   0  0  0  0  0  0  0  0  0  0  0  0
   35.5228    8.4506   16.3678 F   0  0  0  0  0  0  0  0  0  0  0  0
   35.2094    7.8086   14.3202 F   0  0  0  0  0  0  0  0  0  0  0  0
   34.0073    9.4228   15.1565 F   0  0  0  0  0  0  0  0  0  0  0  0
   36.1115   11.1949   16.7555 C   0  0  0  0  0  0  0  0  0  0  0  0
   35.6628   11.3551   17.8127 N   0  0  0  0  0  0  0  0  0  0  0  0
   39.6145    9.0792    9.6310 C   0  0  0  0  0  0  0  0  0  0  0  0
   38.6067   10.1517    9.2141 C   0  0  0  0  0  0  0  0  0  0  0  0
   37.7235    9.5999    8.2136 O   0  0  0  0  0  0  0  0  0  0  0  0
   38.2435    9.3104    7.4476 H   0  0  0  0  0  0  0  0  0  0  0  0
   39.3107   11.3790    8.6024 C   0  0  0  0  0  0  0  0  0  0  0  0
   40.1880   10.9779    7.5425 O   0  0  0  0  0  0  0  0  0  0  0  0
   39.8756   11.6330    6.3835 C   0  0  0  0  0  0  0  0  0  0  0  0
   39.8117   10.9296    5.1785 C   0  0  0  0  0  0  0  0  0  0  0  0
   39.5271   11.6135    3.9936 C   0  0  0  0  0  0  0  0  0  0  0  0
   39.3181   12.9947    4.0245 C   0  0  0  0  0  0  0  0  0  0  0  0
   38.9440   13.8257    2.5640 Cl  0  0  0  0  0  0  0  0  0  0  0  0
   39.4096   13.6870    5.2336 C   0  0  0  0  0  0  0  0  0  0  0  0
   39.2175   15.0146    5.2786 F   0  0  0  0  0  0  0  0  0  0  0  0
   39.6996   13.0140    6.4169 C   0  0  0  0  0  0  0  0  0  0  0  0
 19 18  1  0
 19 20  1  0
 19 22  1  0
 22 23  1  0
 23 24  1  0
 24 25  2  0
 25 26  1  0
 26 27  2  0
 27 28  1  0
 27 29  1  0
 29 30  1  0
 29 31  2  0
 19  1  1  0
  1  2  2  0
  1  3  1  0
  3  5  1  0
  5  6  2  0
  6  7  1  0
  7 12  1  0
 12 13  1  0
 12 14  1  0
 12 15  1  0
  7  8  2  0
  8 16  1  0
 16 17  3  0
  8  9  1  0
  9 10  2  0
 10 11  1  0
 31 24  1  0
 10  5  1  0
 20 21  1  0
  3  4  1  0
M  END
> <minimizedAffinity>
-1.23443

> <CNNscore>
0.5087790489

> <CNNaffinity>
4.7771859169

> <CNN_VS>
2.4305322170

> <CNNaffinity_variance>
0.5763509870

$$$$



 31 32  0  0  0  0  0  0  0  0999 V2000
   29.3913    0.5521    5.6962 C   0  0  0  0  0  0  0  0  0  0  0  0
   28.8019    1.5654    6.0525 O   0  0  0  0  0  0  0  0  0  0  0  0
   29.9254   -0.4115    6.5453 N   0  0  0  0  0  0  0  0  0  0  0  0
   30.4810   -1.1129    6.1348 H   0  0  0  0  0  0  0  0  0  0  0  0
   29.7416   -0.4728    7.9417 C   0  0  0  0  0  0  0  0  0  0  0  0
   30.7979   -0.0298    8.7472 C   0  0  0  0  0  0  0  0  0  0  0  0
   30.6930   -0.0238   10.1551 C   0  0  0  0  0  0  0  0  0  0  0  0
   29.5112   -0.4982   10.7545 C   0  0  0  0  0  0  0  0  0  0  0  0
   28.4714   -0.9804    9.9533 C   0  0  0  0  0  0  0  0  0  0  0  0
   28.5931   -0.9736    8.5641 C   0  0  0  0  0  0  0  0  0  0  0  0
   27.6040   -1.5388    7.8585 F   0  0  0  0  0  0  0  0  0  0  0  0
   31.8358    0.4948   10.9971 C   0  0  0  0  0  0  0  0  0  0  0  0
   31.4363    1.3949   11.9395 F   0  0  0  0  0  0  0  0  0  0  0  0
   32.7802    1.1312   10.2579 F   0  0  0  0  0  0  0  0  0  0  0  0
   32.4714   -0.4942   11.6765 F   0  0  0  0  0  0  0  0  0  0  0  0
   29.3431   -0.5165   12.1814 C   0  0  0  0  0  0  0  0  0  0  0  0
   29.2098   -0.5327   13.3332 N   0  0  0  0  0  0  0  0  0  0  0  0
   30.4684    1.4156    3.5605 C   0  0  0  0  0  0  0  0  0  0  0  0
   29.7181    0.2531    4.2128 C   0  0  0  0  0  0  0  0  0  0  0  0
   30.5607   -0.9194    4.1890 O   0  0  0  0  0  0  0  0  0  0  0  0
   30.7863   -1.1369    3.2710 H   0  0  0  0  0  0  0  0  0  0  0  0
   28.4201   -0.0782    3.4503 C   0  0  0  0  0  0  0  0  0  0  0  0
   28.1406    0.9315    2.4726 O   0  0  0  0  0  0  0  0  0  0  0  0
   27.1240    1.7432    2.8940 C   0  0  0  0  0  0  0  0  0  0  0  0
   25.9509    1.1849    3.4071 C   0  0  0  0  0  0  0  0  0  0  0  0
   24.9032    2.0211    3.8020 C   0  0  0  0  0  0  0  0  0  0  0  0
   25.0358    3.4059    3.6716 C   0  0  0  0  0  0  0  0  0  0  0  0
   23.7499    4.4298    4.1831 Cl  0  0  0  0  0  0  0  0  0  0  0  0
   26.2053    3.9471    3.1342 C   0  0  0  0  0  0  0  0  0  0  0  0
   26.3453    5.2748    2.9970 F   0  0  0  0  0  0  0  0  0  0  0  0
   27.2505    3.1205    2.7320 C   0  0  0  0  0  0  0  0  0  0  0  0
 19 18  1  0
 19 20  1  0
 19 22  1  0
 22 23  1  0
 23 24  1  0
 24 25  2  0
 25 26  1  0
 26 27  2  0
 27 28  1  0
 27 29  1  0
 29 30  1  0
 29 31  2  0
 19  1  1  0
  1  2  2  0
  1  3  1  0
  3  5  1  0
  5  6  2  0
  6  7  1  0
  7 12  1  0
 12 13  1  0
 12 14  1  0
 12 15  1  0
  7  8  2  0
  8 16  1  0
 16 17  3  0
  8  9  1  0
  9 10  2  0
 10 11  1  0
 31 24  1  0
 10  5  1  0
 20 21  1  0
  3  4  1  0
M  END
> <minimizedAffinity>
-1.41847

> <CNNscore>
0.4651802182

> <CNNaffinity>
7.5613403320

> <CNN_VS>
3.5173859596

> <CNNaffinity_variance>
0.2384595871

$$$$



 31 32  0  0  0  0  0  0  0  0999 V2000
   28.6967    2.3299    5.4479 C   0  0  0  0  0  0  0  0  0  0  0  0
   28.0571    2.5291    6.4737 O   0  0  0  0  0  0  0  0  0  0  0  0
   28.4592    2.9356    4.2184 N   0  0  0  0  0  0  0  0  0  0  0  0
   28.9662    2.5962    3.4458 H   0  0  0  0  0  0  0  0  0  0  0  0
   27.5569    3.9923    3.9807 C   0  0  0  0  0  0  0  0  0  0  0  0
   26.2016    3.7469    4.2333 C   0  0  0  0  0  0  0  0  0  0  0  0
   25.2289    4.7545    4.0549 C   0  0  0  0  0  0  0  0  0  0  0  0
   25.6328    6.0197    3.5888 C   0  0  0  0  0  0  0  0  0  0  0  0
   26.9800    6.2541    3.2958 C   0  0  0  0  0  0  0  0  0  0  0  0
   27.9259    5.2468    3.4831 C   0  0  0  0  0  0  0  0  0  0  0  0
   29.1815    5.5031    3.0915 F   0  0  0  0  0  0  0  0  0  0  0  0
   23.7786    4.4709    4.3708 C   0  0  0  0  0  0  0  0  0  0  0  0
   23.0187    5.6004    4.4402 F   0  0  0  0  0  0  0  0  0  0  0  0
   23.6184    3.8462    5.5656 F   0  0  0  0  0  0  0  0  0  0  0  0
   23.1869    3.6843    3.4355 F   0  0  0  0  0  0  0  0  0  0  0  0
   24.6913    7.0864    3.3883 C   0  0  0  0  0  0  0  0  0  0  0  0
   23.9324    7.9476    3.2239 N   0  0  0  0  0  0  0  0  0  0  0  0
   30.9764    1.7558    4.4782 C   0  0  0  0  0  0  0  0  0  0  0  0
   29.8221    1.2708    5.3569 C   0  0  0  0  0  0  0  0  0  0  0  0
   30.3139    1.0539    6.6973 O   0  0  0  0  0  0  0  0  0  0  0  0
   31.0236    0.3929    6.6783 H   0  0  0  0  0  0  0  0  0  0  0  0
   29.2429   -0.0613    4.8414 C   0  0  0  0  0  0  0  0  0  0  0  0
   27.8215   -0.0938    5.0214 O   0  0  0  0  0  0  0  0  0  0  0  0
   27.1805    0.2633    3.8674 C   0  0  0  0  0  0  0  0  0  0  0  0
   27.9008    0.3852    2.6769 C   0  0  0  0  0  0  0  0  0  0  0  0
   27.2441    0.7854    1.5101 C   0  0  0  0  0  0  0  0  0  0  0  0
   25.8763    1.0680    1.5477 C   0  0  0  0  0  0  0  0  0  0  0  0
   25.0701    1.5369    0.1006 Cl  0  0  0  0  0  0  0  0  0  0  0  0
   25.1755    0.9649    2.7509 C   0  0  0  0  0  0  0  0  0  0  0  0
   23.8628    1.2388    2.8044 F   0  0  0  0  0  0  0  0  0  0  0  0
   25.8240    0.5737    3.9188 C   0  0  0  0  0  0  0  0  0  0  0  0
 19 18  1  0
 19 20  1  0
 19 22  1  0
 22 23  1  0
 23 24  1  0
 24 25  2  0
 25 26  1  0
 26 27  2  0
 27 28  1  0
 27 29  1  0
 29 30  1  0
 29 31  2  0
 19  1  1  0
  1  2  2  0
  1  3  1  0
  3  5  1  0
  5  6  2  0
  6  7  1  0
  7 12  1  0
 12 13  1  0
 12 14  1  0
 12 15  1  0
  7  8  2  0
  8 16  1  0
 16 17  3  0
  8  9  1  0
  9 10  2  0
 10 11  1  0
 31 24  1  0
 10  5  1  0
 20 21  1  0
  3  4  1  0
M  END
> <minimizedAffinity>
-4.37046

> <CNNscore>
0.3945865631

> <CNNaffinity>
7.9088168144

> <CNN_VS>
3.1207127571

> <CNNaffinity_variance>
0.1763872355

$$$$



 31 32  0  0  0  0  0  0  0  0999 V2000
   29.5316    0.5319    5.4289 C   0  0  0  0  0  0  0  0  0  0  0  0
   28.6039   -0.2599    5.5448 O   0  0  0  0  0  0  0  0  0  0  0  0
   30.0788    1.2901    6.4588 N   0  0  0  0  0  0  0  0  0  0  0  0
   30.7374    1.9777    6.2085 H   0  0  0  0  0  0  0  0  0  0  0  0
   29.7739    1.1611    7.8290 C   0  0  0  0  0  0  0  0  0  0  0  0
   30.0022   -0.0869    8.4218 C   0  0  0  0  0  0  0  0  0  0  0  0
   29.7569   -0.3014    9.7955 C   0  0  0  0  0  0  0  0  0  0  0  0
   29.2481    0.7563   10.5723 C   0  0  0  0  0  0  0  0  0  0  0  0
   28.9795    1.9911    9.9733 C   0  0  0  0  0  0  0  0  0  0  0  0
   29.2331    2.1839    8.6157 C   0  0  0  0  0  0  0  0  0  0  0  0
   28.8628    3.3562    8.0825 F   0  0  0  0  0  0  0  0  0  0  0  0
   30.0478   -1.6487   10.4149 C   0  0  0  0  0  0  0  0  0  0  0  0
   28.9266   -2.4002   10.6046 F   0  0  0  0  0  0  0  0  0  0  0  0
   30.6318   -1.5452   11.6363 F   0  0  0  0  0  0  0  0  0  0  0  0
   30.8748   -2.4056    9.6487 F   0  0  0  0  0  0  0  0  0  0  0  0
   28.9790    0.6011   11.9752 C   0  0  0  0  0  0  0  0  0  0  0  0
   28.7599    0.4781   13.1073 N   0  0  0  0  0  0  0  0  0  0  0  0
   31.2476    1.9536    4.2037 C   0  0  0  0  0  0  0  0  0  0  0  0
   30.1687    0.8786    4.0613 C   0  0  0  0  0  0  0  0  0  0  0  0
   30.7763   -0.3295    3.5545 O   0  0  0  0  0  0  0  0  0  0  0  0
   31.1872   -0.1487    2.6947 H   0  0  0  0  0  0  0  0  0  0  0  0
   29.0704    1.3107    3.0699 C   0  0  0  0  0  0  0  0  0  0  0  0
   28.6303    2.6438    3.3580 O   0  0  0  0  0  0  0  0  0  0  0  0
   27.2662    2.6943    3.4414 C   0  0  0  0  0  0  0  0  0  0  0  0
   26.4833    2.1925    2.3992 C   0  0  0  0  0  0  0  0  0  0  0  0
   25.0909    2.2808    2.4769 C   0  0  0  0  0  0  0  0  0  0  0  0
   24.4961    2.8776    3.5914 C   0  0  0  0  0  0  0  0  0  0  0  0
   22.7794    2.9605    3.6904 Cl  0  0  0  0  0  0  0  0  0  0  0  0
   25.2935    3.3963    4.6135 C   0  0  0  0  0  0  0  0  0  0  0  0
   24.7372    3.9779    5.6876 F   0  0  0  0  0  0  0  0  0  0  0  0
   26.6813    3.3185    4.5402 C   0  0  0  0  0  0  0  0  0  0  0  0
 19 18  1  0
 19 20  1  0
 19 22  1  0
 22 23  1  0
 23 24  1  0
 24 25  2  0
 25 26  1  0
 26 27  2  0
 27 28  1  0
 27 29  1  0
 29 30  1  0
 29 31  2  0
 19  1  1  0
  1  2  2  0
  1  3  1  0
  3  5  1  0
  5  6  2  0
  6  7  1  0
  7 12  1  0
 12 13  1  0
 12 14  1  0
 12 15  1  0
  7  8  2  0
  8 16  1  0
 16 17  3  0
  8  9  1  0
  9 10  2  0
 10 11  1  0
 31 24  1  0
 10  5  1  0
 20 21  1  0
  3  4  1  0
M  END
> <minimizedAffinity>
-3.78932

> <CNNscore>
0.3895591497

> <CNNaffinity>
7.8480148315

> <CNN_VS>
3.0572659969

> <CNNaffinity_variance>
0.1005490944

$$$$



 31 32  0  0  0  0  0  0  0  0999 V2000
   28.1422    1.4637    3.7525 C   0  0  0  0  0  0  0  0  0  0  0  0
   28.9154    2.2819    3.2690 O   0  0  0  0  0  0  0  0  0  0  0  0
   26.8999    1.7561    4.3057 N   0  0  0  0  0  0  0  0  0  0  0  0
   26.4324    1.0248    4.7704 H   0  0  0  0  0  0  0  0  0  0  0  0
   26.2509    3.0067    4.2598 C   0  0  0  0  0  0  0  0  0  0  0  0
   27.0203    4.1146    3.8835 C   0  0  0  0  0  0  0  0  0  0  0  0
   26.4492    5.4015    3.7786 C   0  0  0  0  0  0  0  0  0  0  0  0
   25.0861    5.5716    4.0851 C   0  0  0  0  0  0  0  0  0  0  0  0
   24.3259    4.4742    4.5018 C   0  0  0  0  0  0  0  0  0  0  0  0
   24.9079    3.2103    4.5946 C   0  0  0  0  0  0  0  0  0  0  0  0
   24.1528    2.2219    5.0931 F   0  0  0  0  0  0  0  0  0  0  0  0
   27.2963    6.5715    3.3344 C   0  0  0  0  0  0  0  0  0  0  0  0
   27.7672    7.3132    4.3765 F   0  0  0  0  0  0  0  0  0  0  0  0
   26.6127    7.4393    2.5450 F   0  0  0  0  0  0  0  0  0  0  0  0
   28.3917    6.1834    2.6322 F   0  0  0  0  0  0  0  0  0  0  0  0
   24.4467    6.8552    3.9963 C   0  0  0  0  0  0  0  0  0  0  0  0
   23.9280    7.8899    3.9244 N   0  0  0  0  0  0  0  0  0  0  0  0
   27.2836   -0.8590    4.3311 C   0  0  0  0  0  0  0  0  0  0  0  0
   28.5005   -0.0343    3.9083 C   0  0  0  0  0  0  0  0  0  0  0  0
   28.9567   -0.5006    2.6199 O   0  0  0  0  0  0  0  0  0  0  0  0
   29.1909   -1.4400    2.6804 H   0  0  0  0  0  0  0  0  0  0  0  0
   29.6622   -0.1904    4.9093 C   0  0  0  0  0  0  0  0  0  0  0  0
   29.8984    1.0427    5.6004 O   0  0  0  0  0  0  0  0  0  0  0  0
   29.7246    0.8820    6.9473 C   0  0  0  0  0  0  0  0  0  0  0  0
   29.3653    1.9738    7.7408 C   0  0  0  0  0  0  0  0  0  0  0  0
   29.2249    1.8081    9.1212 C   0  0  0  0  0  0  0  0  0  0  0  0
   29.4537    0.5548    9.6949 C   0  0  0  0  0  0  0  0  0  0  0  0
   29.2549    0.3536   11.3930 Cl  0  0  0  0  0  0  0  0  0  0  0  0
   29.8359   -0.5210    8.8910 C   0  0  0  0  0  0  0  0  0  0  0  0
   30.0652   -1.7294    9.4280 F   0  0  0  0  0  0  0  0  0  0  0  0
   29.9847   -0.3622    7.5162 C   0  0  0  0  0  0  0  0  0  0  0  0
 19 18  1  0
 19 20  1  0
 19 22  1  0
 22 23  1  0
 23 24  1  0
 24 25  2  0
 25 26  1  0
 26 27  2  0
 27 28  1  0
 27 29  1  0
 29 30  1  0
 29 31  2  0
 19  1  1  0
  1  2  2  0
  1  3  1  0
  3  5  1  0
  5  6  2  0
  6  7  1  0
  7 12  1  0
 12 13  1  0
 12 14  1  0
 12 15  1  0
  7  8  2  0
  8 16  1  0
 16 17  3  0
  8  9  1  0
  9 10  2  0
 10 11  1  0
 31 24  1  0
 10  5  1  0
 20 21  1  0
  3  4  1  0
M  END
> <minimizedAffinity>
-8.92128

> <CNNscore>
0.3544070721

> <CNNaffinity>
7.7934031487

> <CNN_VS>
2.7620372772

> <CNNaffinity_variance>
0.1953746676

$$$$
