


 32 36  0  0  0  0  0  0  0  0999 V2000
   14.6390  -26.7932  -20.3556 C   0  0  0  0  0  0  0  0  0  0  0  0
   15.6501  -27.6660  -20.1482 C   0  0  0  0  0  0  0  0  0  0  0  0
   15.3695  -28.9787  -19.5904 C   0  0  0  0  0  0  0  0  0  0  0  0
   14.1168  -29.3548  -19.2775 C   0  0  0  0  0  0  0  0  0  0  0  0
   13.0400  -28.4538  -19.4925 C   0  0  0  0  0  0  0  0  0  0  0  0
   11.7518  -28.5690  -19.2778 N   0  0  0  0  0  0  0  0  0  0  0  0
   11.2495  -27.3682  -19.6837 C   0  0  0  0  0  0  0  0  0  0  0  0
   12.1597  -26.5089  -20.1442 N   0  0  0  0  0  0  0  0  0  0  0  0
   13.3257  -27.1951  -20.0271 N   0  0  0  0  0  0  0  0  0  0  0  0
   15.4767  -22.9242  -22.0214 C   0  0  0  0  0  0  0  0  0  0  0  0
   16.4419  -23.6000  -21.2721 C   0  0  0  0  0  0  0  0  0  0  0  0
   16.1744  -24.8616  -20.7328 C   0  0  0  0  0  0  0  0  0  0  0  0
   14.9292  -25.4676  -20.9332 C   0  0  0  0  0  0  0  0  0  0  0  0
   13.9633  -24.7866  -21.6876 C   0  0  0  0  0  0  0  0  0  0  0  0
   14.2347  -23.5232  -22.2282 C   0  0  0  0  0  0  0  0  0  0  0  0
   17.0313  -21.6669  -23.3068 C   0  0  0  0  0  0  0  0  0  0  0  0
   15.8687  -21.7006  -22.4889 O   0  0  0  0  0  0  0  0  0  0  0  0
    9.9400  -27.0665  -19.6220 N   0  0  0  0  0  0  0  0  0  0  0  0
    9.4091  -27.7319  -19.1274 H   0  0  0  0  0  0  0  0  0  0  0  0
    9.1729  -25.9980  -20.1173 C   0  0  0  0  0  0  0  0  0  0  0  0
    9.8306  -24.9070  -20.6966 C   0  0  0  0  0  0  0  0  0  0  0  0
    9.1205  -23.8075  -21.2055 C   0  0  0  0  0  0  0  0  0  0  0  0
    7.7221  -23.7403  -21.1619 C   0  0  0  0  0  0  0  0  0  0  0  0
    7.0767  -24.8352  -20.5731 C   0  0  0  0  0  0  0  0  0  0  0  0
    7.7824  -25.9393  -20.0632 C   0  0  0  0  0  0  0  0  0  0  0  0
    7.0264  -22.6525  -21.6599 N   0  0  0  0  0  0  0  0  0  0  0  0
    6.5178  -21.5935  -20.7719 C   0  0  0  0  0  0  0  0  0  0  0  0
    6.4643  -20.2270  -21.4969 C   0  0  0  0  0  0  0  0  0  0  0  0
    5.6979  -20.1951  -22.7602 N   0  0  0  0  0  0  0  0  0  0  0  0
    4.3479  -19.6745  -22.5647 C   0  0  0  0  0  0  0  0  0  0  0  0
    5.6520  -21.5316  -23.3935 C   0  0  0  0  0  0  0  0  0  0  0  0
    6.8894  -22.4135  -23.1062 C   0  0  0  0  0  0  0  0  0  0  0  0
 16 17  1  0
 17 10  1  0
 10 11  2  0
 11 12  1  0
 12 13  2  0
 13  1  1  0
  1  2  2  0
  2  3  1  0
  3  4  2  0
  4  5  1  0
  5  6  2  0
  6  7  1  0
  7 18  1  0
 18 20  1  0
 20 21  2  0
 21 22  1  0
 22 23  2  0
 23 26  1  0
 26 27  1  0
 27 28  1  0
 28 29  1  0
 29 30  1  0
 29 31  1  0
 31 32  1  0
 23 24  1  0
 24 25  2  0
  7  8  2  0
  8  9  1  0
 13 14  1  0
 14 15  2  0
 15 10  1  0
  9  1  1  0
  9  5  1  0
 25 20  1  0
 32 26  1  0
 18 19  1  0
M  END
> <minimizedAffinity>
-9.63593

> <CNNscore>
0.9790406823

> <CNNaffinity>
7.4096527100

> <CNN_VS>
7.2543516159

> <CNNaffinity_variance>
0.0035097499

$$$$



 32 36  0  0  0  0  0  0  0  0999 V2000
   15.6069  -27.1215  -20.2773 C   0  0  0  0  0  0  0  0  0  0  0  0
   15.9639  -28.3284  -19.7842 C   0  0  0  0  0  0  0  0  0  0  0  0
   14.9413  -29.2515  -19.3203 C   0  0  0  0  0  0  0  0  0  0  0  0
   13.6350  -28.9364  -19.3747 C   0  0  0  0  0  0  0  0  0  0  0  0
   13.2392  -27.6751  -19.8940 C   0  0  0  0  0  0  0  0  0  0  0  0
   12.0570  -27.1313  -20.0545 N   0  0  0  0  0  0  0  0  0  0  0  0
   12.3351  -25.9110  -20.5953 C   0  0  0  0  0  0  0  0  0  0  0  0
   13.6326  -25.6659  -20.7833 N   0  0  0  0  0  0  0  0  0  0  0  0
   14.2335  -26.7978  -20.3339 N   0  0  0  0  0  0  0  0  0  0  0  0
   18.6334  -24.4237  -21.6941 C   0  0  0  0  0  0  0  0  0  0  0  0
   17.4280  -23.9362  -21.1854 C   0  0  0  0  0  0  0  0  0  0  0  0
   16.4428  -24.8113  -20.7186 C   0  0  0  0  0  0  0  0  0  0  0  0
   16.6487  -26.1947  -20.7576 C   0  0  0  0  0  0  0  0  0  0  0  0
   17.8612  -26.6803  -21.2675 C   0  0  0  0  0  0  0  0  0  0  0  0
   18.8473  -25.8010  -21.7330 C   0  0  0  0  0  0  0  0  0  0  0  0
   19.0849  -22.6368  -23.1951 C   0  0  0  0  0  0  0  0  0  0  0  0
   19.5075  -23.4607  -22.1161 O   0  0  0  0  0  0  0  0  0  0  0  0
   11.3800  -25.0181  -20.9114 N   0  0  0  0  0  0  0  0  0  0  0  0
   11.7233  -24.2363  -21.4015 H   0  0  0  0  0  0  0  0  0  0  0  0
    9.9933  -24.9700  -20.6870 C   0  0  0  0  0  0  0  0  0  0  0  0
    9.3143  -23.7678  -20.9151 C   0  0  0  0  0  0  0  0  0  0  0  0
    7.9304  -23.6551  -20.7051 C   0  0  0  0  0  0  0  0  0  0  0  0
    7.1557  -24.7327  -20.2575 C   0  0  0  0  0  0  0  0  0  0  0  0
    7.8486  -25.9279  -20.0263 C   0  0  0  0  0  0  0  0  0  0  0  0
    9.2339  -26.0469  -20.2361 C   0  0  0  0  0  0  0  0  0  0  0  0
    5.7928  -24.6160  -20.0470 N   0  0  0  0  0  0  0  0  0  0  0  0
    5.2535  -23.8409  -18.9168 C   0  0  0  0  0  0  0  0  0  0  0  0
    3.8697  -23.2364  -19.2569 C   0  0  0  0  0  0  0  0  0  0  0  0
    2.8394  -24.1944  -19.7096 N   0  0  0  0  0  0  0  0  0  0  0  0
    1.9406  -24.5797  -18.6253 C   0  0  0  0  0  0  0  0  0  0  0  0
    3.4536  -25.3918  -20.3246 C   0  0  0  0  0  0  0  0  0  0  0  0
    4.8100  -25.1249  -21.0178 C   0  0  0  0  0  0  0  0  0  0  0  0
 16 17  1  0
 17 10  1  0
 10 11  2  0
 11 12  1  0
 12 13  2  0
 13  1  1  0
  1  2  2  0
  2  3  1  0
  3  4  2  0
  4  5  1  0
  5  6  2  0
  6  7  1  0
  7 18  1  0
 18 20  1  0
 20 21  2  0
 21 22  1  0
 22 23  2  0
 23 26  1  0
 26 27  1  0
 27 28  1  0
 28 29  1  0
 29 30  1  0
 29 31  1  0
 31 32  1  0
 23 24  1  0
 24 25  2  0
  7  8  2  0
  8  9  1  0
 13 14  1  0
 14 15  2  0
 15 10  1  0
  9  1  1  0
  9  5  1  0
 25 20  1  0
 32 26  1  0
 18 19  1  0
M  END
> <minimizedAffinity>
-9.49981

> <CNNscore>
0.8235253692

> <CNNaffinity>
7.0984935760

> <CNN_VS>
5.8457894325

> <CNNaffinity_variance>
0.0947473273

$$$$



 32 36  0  0  0  0  0  0  0  0999 V2000
   17.5310  -27.1637  -19.8045 C   0  0  0  0  0  0  0  0  0  0  0  0
   18.3166  -27.9800  -19.0672 C   0  0  0  0  0  0  0  0  0  0  0  0
   19.7404  -27.7085  -18.9575 C   0  0  0  0  0  0  0  0  0  0  0  0
   20.3024  -26.6520  -19.5713 C   0  0  0  0  0  0  0  0  0  0  0  0
   19.4931  -25.7796  -20.3466 C   0  0  0  0  0  0  0  0  0  0  0  0
   19.7845  -24.7013  -21.0331 N   0  0  0  0  0  0  0  0  0  0  0  0
   18.5845  -24.3182  -21.5549 C   0  0  0  0  0  0  0  0  0  0  0  0
   17.5567  -25.1023  -21.2266 N   0  0  0  0  0  0  0  0  0  0  0  0
   18.1269  -26.0549  -20.4445 N   0  0  0  0  0  0  0  0  0  0  0  0
   13.3231  -27.9689  -20.1059 C   0  0  0  0  0  0  0  0  0  0  0  0
   14.2012  -28.9438  -19.6283 C   0  0  0  0  0  0  0  0  0  0  0  0
   15.5707  -28.6834  -19.5240 C   0  0  0  0  0  0  0  0  0  0  0  0
   16.0852  -27.4382  -19.9016 C   0  0  0  0  0  0  0  0  0  0  0  0
   15.2000  -26.4612  -20.3790 C   0  0  0  0  0  0  0  0  0  0  0  0
   13.8280  -26.7244  -20.4808 C   0  0  0  0  0  0  0  0  0  0  0  0
   11.0412  -27.3841  -19.7885 C   0  0  0  0  0  0  0  0  0  0  0  0
   12.0124  -28.3550  -20.1568 O   0  0  0  0  0  0  0  0  0  0  0  0
   18.4433  -23.2380  -22.3441 N   0  0  0  0  0  0  0  0  0  0  0  0
   18.7607  -23.3831  -23.2647 H   0  0  0  0  0  0  0  0  0  0  0  0
   17.9365  -21.9452  -22.1266 C   0  0  0  0  0  0  0  0  0  0  0  0
   18.7026  -21.0357  -21.3888 C   0  0  0  0  0  0  0  0  0  0  0  0
   18.2494  -19.7312  -21.1339 C   0  0  0  0  0  0  0  0  0  0  0  0
   17.0121  -19.2691  -21.6003 C   0  0  0  0  0  0  0  0  0  0  0  0
   16.2524  -20.1915  -22.3311 C   0  0  0  0  0  0  0  0  0  0  0  0
   16.7017  -21.4984  -22.5905 C   0  0  0  0  0  0  0  0  0  0  0  0
   16.5670  -17.9843  -21.3425 N   0  0  0  0  0  0  0  0  0  0  0  0
   17.3041  -16.8043  -21.8253 C   0  0  0  0  0  0  0  0  0  0  0  0
   16.3510  -15.6140  -22.0916 C   0  0  0  0  0  0  0  0  0  0  0  0
   15.4934  -15.2068  -20.9589 N   0  0  0  0  0  0  0  0  0  0  0  0
   16.0478  -14.0629  -20.2405 C   0  0  0  0  0  0  0  0  0  0  0  0
   15.2564  -16.3359  -20.0325 C   0  0  0  0  0  0  0  0  0  0  0  0
   15.2627  -17.7258  -20.7105 C   0  0  0  0  0  0  0  0  0  0  0  0
 16 17  1  0
 17 10  1  0
 10 11  2  0
 11 12  1  0
 12 13  2  0
 13  1  1  0
  1  2  2  0
  2  3  1  0
  3  4  2  0
  4  5  1  0
  5  6  2  0
  6  7  1  0
  7 18  1  0
 18 20  1  0
 20 21  2  0
 21 22  1  0
 22 23  2  0
 23 26  1  0
 26 27  1  0
 27 28  1  0
 28 29  1  0
 29 30  1  0
 29 31  1  0
 31 32  1  0
 23 24  1  0
 24 25  2  0
  7  8  2  0
  8  9  1  0
 13 14  1  0
 14 15  2  0
 15 10  1  0
  9  1  1  0
  9  5  1  0
 25 20  1  0
 32 26  1  0
 18 19  1  0
M  END
> <minimizedAffinity>
-8.14404

> <CNNscore>
0.6018692255

> <CNNaffinity>
6.5522046089

> <CNN_VS>
3.9435703754

> <CNNaffinity_variance>
0.0678954497

$$$$



 32 36  0  0  0  0  0  0  0  0999 V2000
   14.1393  -27.0258  -20.1430 C   0  0  0  0  0  0  0  0  0  0  0  0
   14.3097  -28.2985  -19.7208 C   0  0  0  0  0  0  0  0  0  0  0  0
   13.1512  -29.1137  -19.3944 C   0  0  0  0  0  0  0  0  0  0  0  0
   11.9005  -28.6326  -19.5084 C   0  0  0  0  0  0  0  0  0  0  0  0
   11.7002  -27.2993  -19.9550 C   0  0  0  0  0  0  0  0  0  0  0  0
   10.6079  -26.6006  -20.1492 N   0  0  0  0  0  0  0  0  0  0  0  0
   11.0713  -25.3918  -20.5771 C   0  0  0  0  0  0  0  0  0  0  0  0
   12.3992  -25.3011  -20.6626 N   0  0  0  0  0  0  0  0  0  0  0  0
   12.8233  -26.5276  -20.2627 N   0  0  0  0  0  0  0  0  0  0  0  0
   17.5789  -24.6456  -21.1171 C   0  0  0  0  0  0  0  0  0  0  0  0
   17.6302  -26.0383  -21.2038 C   0  0  0  0  0  0  0  0  0  0  0  0
   16.5110  -26.8158  -20.8924 C   0  0  0  0  0  0  0  0  0  0  0  0
   15.3185  -26.2084  -20.4840 C   0  0  0  0  0  0  0  0  0  0  0  0
   15.2704  -24.8096  -20.3999 C   0  0  0  0  0  0  0  0  0  0  0  0
   16.3930  -24.0329  -20.7141 C   0  0  0  0  0  0  0  0  0  0  0  0
   19.8652  -24.2407  -20.6084 C   0  0  0  0  0  0  0  0  0  0  0  0
   18.7423  -24.0085  -21.4491 O   0  0  0  0  0  0  0  0  0  0  0  0
   10.2577  -24.3658  -20.8852 N   0  0  0  0  0  0  0  0  0  0  0  0
   10.7413  -23.5438  -21.1291 H   0  0  0  0  0  0  0  0  0  0  0  0
    8.8600  -24.2244  -20.9310 C   0  0  0  0  0  0  0  0  0  0  0  0
    8.0611  -25.2442  -20.4017 C   0  0  0  0  0  0  0  0  0  0  0  0
    6.6593  -25.1637  -20.4216 C   0  0  0  0  0  0  0  0  0  0  0  0
    5.9849  -24.0651  -20.9695 C   0  0  0  0  0  0  0  0  0  0  0  0
    6.7961  -23.0550  -21.5022 C   0  0  0  0  0  0  0  0  0  0  0  0
    8.2001  -23.1296  -21.4838 C   0  0  0  0  0  0  0  0  0  0  0  0
    4.6031  -23.9921  -20.9916 N   0  0  0  0  0  0  0  0  0  0  0  0
    3.9038  -22.7039  -21.1343 C   0  0  0  0  0  0  0  0  0  0  0  0
    2.5421  -22.8775  -21.8495 C   0  0  0  0  0  0  0  0  0  0  0  0
    1.6145  -23.8562  -21.2446 N   0  0  0  0  0  0  0  0  0  0  0  0
    0.6161  -23.2086  -20.3985 C   0  0  0  0  0  0  0  0  0  0  0  0
    2.3482  -24.8905  -20.4824 C   0  0  0  0  0  0  0  0  0  0  0  0
    3.7615  -25.1995  -21.0291 C   0  0  0  0  0  0  0  0  0  0  0  0
 16 17  1  0
 17 10  1  0
 10 11  2  0
 11 12  1  0
 12 13  2  0
 13  1  1  0
  1  2  2  0
  2  3  1  0
  3  4  2  0
  4  5  1  0
  5  6  2  0
  6  7  1  0
  7 18  1  0
 18 20  1  0
 20 21  2  0
 21 22  1  0
 22 23  2  0
 23 26  1  0
 26 27  1  0
 27 28  1  0
 28 29  1  0
 29 30  1  0
 29 31  1  0
 31 32  1  0
 23 24  1  0
 24 25  2  0
  7  8  2  0
  8  9  1  0
 13 14  1  0
 14 15  2  0
 15 10  1  0
  9  1  1  0
  9  5  1  0
 25 20  1  0
 32 26  1  0
 18 19  1  0
M  END
> <minimizedAffinity>
-8.42564

> <CNNscore>
0.4416607022

> <CNNaffinity>
6.6867041588

> <CNN_VS>
2.9532544613

> <CNNaffinity_variance>
0.0365888588

$$$$



 32 36  0  0  0  0  0  0  0  0999 V2000
   17.2988  -26.1997  -20.4401 C   0  0  0  0  0  0  0  0  0  0  0  0
   18.4468  -26.9082  -20.3549 C   0  0  0  0  0  0  0  0  0  0  0  0
   19.7268  -26.2263  -20.4539 C   0  0  0  0  0  0  0  0  0  0  0  0
   19.8007  -24.8943  -20.6235 C   0  0  0  0  0  0  0  0  0  0  0  0
   18.6059  -24.1313  -20.7104 C   0  0  0  0  0  0  0  0  0  0  0  0
   18.4028  -22.8462  -20.8721 N   0  0  0  0  0  0  0  0  0  0  0  0
   17.0441  -22.7335  -20.8779 C   0  0  0  0  0  0  0  0  0  0  0  0
   16.3875  -23.8843  -20.7252 N   0  0  0  0  0  0  0  0  0  0  0  0
   17.3834  -24.8010  -20.6158 N   0  0  0  0  0  0  0  0  0  0  0  0
   13.5248  -28.2198  -20.0920 C   0  0  0  0  0  0  0  0  0  0  0  0
   13.6093  -26.9731  -20.7151 C   0  0  0  0  0  0  0  0  0  0  0  0
   14.8368  -26.3151  -20.8347 C   0  0  0  0  0  0  0  0  0  0  0  0
   16.0039  -26.8962  -20.3266 C   0  0  0  0  0  0  0  0  0  0  0  0
   15.9153  -28.1490  -19.7032 C   0  0  0  0  0  0  0  0  0  0  0  0
   14.6841  -28.8068  -19.5863 C   0  0  0  0  0  0  0  0  0  0  0  0
   11.1933  -27.8432  -19.8238 C   0  0  0  0  0  0  0  0  0  0  0  0
   12.2657  -28.7506  -20.0427 O   0  0  0  0  0  0  0  0  0  0  0  0
   16.4100  -21.5570  -21.0307 N   0  0  0  0  0  0  0  0  0  0  0  0
   15.4914  -21.6502  -21.3723 H   0  0  0  0  0  0  0  0  0  0  0  0
   16.7873  -20.2223  -20.8036 C   0  0  0  0  0  0  0  0  0  0  0  0
   16.5941  -19.2837  -21.8235 C   0  0  0  0  0  0  0  0  0  0  0  0
   16.9544  -17.9364  -21.6593 C   0  0  0  0  0  0  0  0  0  0  0  0
   17.5248  -17.4582  -20.4728 C   0  0  0  0  0  0  0  0  0  0  0  0
   17.7194  -18.4091  -19.4628 C   0  0  0  0  0  0  0  0  0  0  0  0
   17.3593  -19.7591  -19.6212 C   0  0  0  0  0  0  0  0  0  0  0  0
   17.8832  -16.1306  -20.3170 N   0  0  0  0  0  0  0  0  0  0  0  0
   19.2681  -15.6782  -20.5318 C   0  0  0  0  0  0  0  0  0  0  0  0
   19.3122  -14.2122  -21.0268 C   0  0  0  0  0  0  0  0  0  0  0  0
   18.6161  -13.2224  -20.1783 N   0  0  0  0  0  0  0  0  0  0  0  0
   19.5409  -12.5148  -19.2974 C   0  0  0  0  0  0  0  0  0  0  0  0
   17.5336  -13.8557  -19.3932 C   0  0  0  0  0  0  0  0  0  0  0  0
   16.8816  -15.0778  -20.0809 C   0  0  0  0  0  0  0  0  0  0  0  0
 16 17  1  0
 17 10  1  0
 10 11  2  0
 11 12  1  0
 12 13  2  0
 13  1  1  0
  1  2  2  0
  2  3  1  0
  3  4  2  0
  4  5  1  0
  5  6  2  0
  6  7  1  0
  7 18  1  0
 18 20  1  0
 20 21  2  0
 21 22  1  0
 22 23  2  0
 23 26  1  0
 26 27  1  0
 27 28  1  0
 28 29  1  0
 29 30  1  0
 29 31  1  0
 31 32  1  0
 23 24  1  0
 24 25  2  0
  7  8  2  0
  8  9  1  0
 13 14  1  0
 14 15  2  0
 15 10  1  0
  9  1  1  0
  9  5  1  0
 25 20  1  0
 32 26  1  0
 18 19  1  0
M  END
> <minimizedAffinity>
-7.74213

> <CNNscore>
0.3680236936

> <CNNaffinity>
6.2632775307

> <CNN_VS>
2.3050346375

> <CNNaffinity_variance>
0.0414666831

$$$$



 32 36  0  0  0  0  0  0  0  0999 V2000
   15.2788  -27.4943  -20.0214 C   0  0  0  0  0  0  0  0  0  0  0  0
   14.6747  -28.5882  -19.5059 C   0  0  0  0  0  0  0  0  0  0  0  0
   13.2354  -28.7474  -19.6338 C   0  0  0  0  0  0  0  0  0  0  0  0
   12.4812  -27.8290  -20.2633 C   0  0  0  0  0  0  0  0  0  0  0  0
   13.0978  -26.6751  -20.8161 C   0  0  0  0  0  0  0  0  0  0  0  0
   12.6026  -25.6497  -21.4658 N   0  0  0  0  0  0  0  0  0  0  0  0
   13.6951  -24.8776  -21.7289 C   0  0  0  0  0  0  0  0  0  0  0  0
   14.8493  -25.3709  -21.2780 N   0  0  0  0  0  0  0  0  0  0  0  0
   14.4814  -26.5350  -20.6833 N   0  0  0  0  0  0  0  0  0  0  0  0
   19.5340  -27.0411  -19.6572 C   0  0  0  0  0  0  0  0  0  0  0  0
   18.7857  -27.5913  -18.6147 C   0  0  0  0  0  0  0  0  0  0  0  0
   17.4013  -27.7450  -18.7318 C   0  0  0  0  0  0  0  0  0  0  0  0
   16.7408  -27.3450  -19.8987 C   0  0  0  0  0  0  0  0  0  0  0  0
   17.4960  -26.7946  -20.9441 C   0  0  0  0  0  0  0  0  0  0  0  0
   18.8834  -26.6433  -20.8245 C   0  0  0  0  0  0  0  0  0  0  0  0
   21.4805  -28.0348  -18.7225 C   0  0  0  0  0  0  0  0  0  0  0  0
   20.8758  -26.9478  -19.4111 O   0  0  0  0  0  0  0  0  0  0  0  0
   13.6199  -23.7065  -22.3866 N   0  0  0  0  0  0  0  0  0  0  0  0
   13.1209  -23.7657  -23.2332 H   0  0  0  0  0  0  0  0  0  0  0  0
   14.1063  -22.4160  -22.1155 C   0  0  0  0  0  0  0  0  0  0  0  0
   15.2585  -21.9765  -22.7771 C   0  0  0  0  0  0  0  0  0  0  0  0
   15.7959  -20.6999  -22.5461 C   0  0  0  0  0  0  0  0  0  0  0  0
   15.2133  -19.7994  -21.6452 C   0  0  0  0  0  0  0  0  0  0  0  0
   14.0650  -20.2543  -20.9845 C   0  0  0  0  0  0  0  0  0  0  0  0
   13.5217  -21.5309  -21.2129 C   0  0  0  0  0  0  0  0  0  0  0  0
   15.7490  -18.5440  -21.4166 N   0  0  0  0  0  0  0  0  0  0  0  0
   17.1681  -18.3665  -21.0653 C   0  0  0  0  0  0  0  0  0  0  0  0
   17.7066  -17.0039  -21.5648 C   0  0  0  0  0  0  0  0  0  0  0  0
   16.9556  -15.8106  -21.1220 N   0  0  0  0  0  0  0  0  0  0  0  0
   17.5852  -15.1669  -19.9726 C   0  0  0  0  0  0  0  0  0  0  0  0
   15.5459  -16.1449  -20.8216 C   0  0  0  0  0  0  0  0  0  0  0  0
   14.9778  -17.3138  -21.6599 C   0  0  0  0  0  0  0  0  0  0  0  0
 16 17  1  0
 17 10  1  0
 10 11  2  0
 11 12  1  0
 12 13  2  0
 13  1  1  0
  1  2  2  0
  2  3  1  0
  3  4  2  0
  4  5  1  0
  5  6  2  0
  6  7  1  0
  7 18  1  0
 18 20  1  0
 20 21  2  0
 21 22  1  0
 22 23  2  0
 23 26  1  0
 26 27  1  0
 27 28  1  0
 28 29  1  0
 29 30  1  0
 29 31  1  0
 31 32  1  0
 23 24  1  0
 24 25  2  0
  7  8  2  0
  8  9  1  0
 13 14  1  0
 14 15  2  0
 15 10  1  0
  9  1  1  0
  9  5  1  0
 25 20  1  0
 32 26  1  0
 18 19  1  0
M  END
> <minimizedAffinity>
-8.77969

> <CNNscore>
0.3623811007

> <CNNaffinity>
6.3648524284

> <CNN_VS>
2.3065023422

> <CNNaffinity_variance>
0.3038460910

$$$$



 32 36  0  0  0  0  0  0  0  0999 V2000
   13.7256  -26.6471  -20.2204 C   0  0  0  0  0  0  0  0  0  0  0  0
   14.0261  -27.8873  -19.7748 C   0  0  0  0  0  0  0  0  0  0  0  0
   12.9577  -28.8099  -19.4278 C   0  0  0  0  0  0  0  0  0  0  0  0
   11.6641  -28.4614  -19.5454 C   0  0  0  0  0  0  0  0  0  0  0  0
   11.3276  -27.1645  -20.0166 C   0  0  0  0  0  0  0  0  0  0  0  0
   10.1693  -26.5848  -20.2193 N   0  0  0  0  0  0  0  0  0  0  0  0
   10.5057  -25.3436  -20.6723 C   0  0  0  0  0  0  0  0  0  0  0  0
   11.8172  -25.1195  -20.7653 N   0  0  0  0  0  0  0  0  0  0  0  0
   12.3653  -26.2883  -20.3439 N   0  0  0  0  0  0  0  0  0  0  0  0
   16.8973  -23.9568  -21.2918 C   0  0  0  0  0  0  0  0  0  0  0  0
   15.5631  -23.6025  -21.5013 C   0  0  0  0  0  0  0  0  0  0  0  0
   14.5281  -24.4735  -21.1490 C   0  0  0  0  0  0  0  0  0  0  0  0
   14.8143  -25.7204  -20.5822 C   0  0  0  0  0  0  0  0  0  0  0  0
   16.1552  -26.0719  -20.3718 C   0  0  0  0  0  0  0  0  0  0  0  0
   17.1903  -25.1963  -20.7243 C   0  0  0  0  0  0  0  0  0  0  0  0
   19.1511  -23.2027  -21.2561 C   0  0  0  0  0  0  0  0  0  0  0  0
   17.8076  -23.0139  -21.6815 O   0  0  0  0  0  0  0  0  0  0  0  0
    9.5908  -24.4122  -20.9964 N   0  0  0  0  0  0  0  0  0  0  0  0
    9.8281  -23.8948  -21.7996 H   0  0  0  0  0  0  0  0  0  0  0  0
    8.3661  -24.0248  -20.4258 C   0  0  0  0  0  0  0  0  0  0  0  0
    8.2151  -22.7055  -19.9841 C   0  0  0  0  0  0  0  0  0  0  0  0
    7.0179  -22.2588  -19.4016 C   0  0  0  0  0  0  0  0  0  0  0  0
    5.9137  -23.1033  -19.2301 C   0  0  0  0  0  0  0  0  0  0  0  0
    6.0805  -24.4227  -19.6699 C   0  0  0  0  0  0  0  0  0  0  0  0
    7.2764  -24.8751  -20.2550 C   0  0  0  0  0  0  0  0  0  0  0  0
    4.7374  -22.6604  -18.6510 N   0  0  0  0  0  0  0  0  0  0  0  0
    3.8862  -23.5607  -17.8550 C   0  0  0  0  0  0  0  0  0  0  0  0
    3.1152  -22.7856  -16.7592 C   0  0  0  0  0  0  0  0  0  0  0  0
    2.2952  -21.6486  -17.2274 N   0  0  0  0  0  0  0  0  0  0  0  0
    0.8892  -22.0148  -17.3718 C   0  0  0  0  0  0  0  0  0  0  0  0
    2.8200  -21.0950  -18.4952 C   0  0  0  0  0  0  0  0  0  0  0  0
    4.3501  -21.2401  -18.6666 C   0  0  0  0  0  0  0  0  0  0  0  0
 16 17  1  0
 17 10  1  0
 10 11  2  0
 11 12  1  0
 12 13  2  0
 13  1  1  0
  1  2  2  0
  2  3  1  0
  3  4  2  0
  4  5  1  0
  5  6  2  0
  6  7  1  0
  7 18  1  0
 18 20  1  0
 20 21  2  0
 21 22  1  0
 22 23  2  0
 23 26  1  0
 26 27  1  0
 27 28  1  0
 28 29  1  0
 29 30  1  0
 29 31  1  0
 31 32  1  0
 23 24  1  0
 24 25  2  0
  7  8  2  0
  8  9  1  0
 13 14  1  0
 14 15  2  0
 15 10  1  0
  9  1  1  0
  9  5  1  0
 25 20  1  0
 32 26  1  0
 18 19  1  0
M  END
> <minimizedAffinity>
-8.83687

> <CNNscore>
0.3384897113

> <CNNaffinity>
6.5224347115

> <CNN_VS>
2.2077770233

> <CNNaffinity_variance>
0.0166364368

$$$$



 32 36  0  0  0  0  0  0  0  0999 V2000
   17.4792  -26.3205  -20.3407 C   0  0  0  0  0  0  0  0  0  0  0  0
   18.5074  -27.0730  -19.8893 C   0  0  0  0  0  0  0  0  0  0  0  0
   19.8544  -26.5265  -19.8803 C   0  0  0  0  0  0  0  0  0  0  0  0
   20.1072  -25.2767  -20.3078 C   0  0  0  0  0  0  0  0  0  0  0  0
   19.0396  -24.4684  -20.7812 C   0  0  0  0  0  0  0  0  0  0  0  0
   19.0147  -23.2421  -21.2446 N   0  0  0  0  0  0  0  0  0  0  0  0
   17.6989  -23.0350  -21.5356 C   0  0  0  0  0  0  0  0  0  0  0  0
   16.8994  -24.0702  -21.2747 N   0  0  0  0  0  0  0  0  0  0  0  0
   17.7511  -25.0082  -20.7858 N   0  0  0  0  0  0  0  0  0  0  0  0
   13.4989  -27.9334  -20.3079 C   0  0  0  0  0  0  0  0  0  0  0  0
   13.7489  -26.6676  -20.8417 C   0  0  0  0  0  0  0  0  0  0  0  0
   15.0440  -26.1418  -20.8587 C   0  0  0  0  0  0  0  0  0  0  0  0
   16.1135  -26.8769  -20.3356 C   0  0  0  0  0  0  0  0  0  0  0  0
   15.8587  -28.1483  -19.8021 C   0  0  0  0  0  0  0  0  0  0  0  0
   14.5601  -28.6734  -19.7879 C   0  0  0  0  0  0  0  0  0  0  0  0
   11.2990  -27.7015  -19.4380 C   0  0  0  0  0  0  0  0  0  0  0  0
   12.1898  -28.3254  -20.3540 O   0  0  0  0  0  0  0  0  0  0  0  0
   17.2383  -21.8808  -22.0508 N   0  0  0  0  0  0  0  0  0  0  0  0
   17.6083  -21.6750  -22.9395 H   0  0  0  0  0  0  0  0  0  0  0  0
   16.3382  -20.9080  -21.5829 C   0  0  0  0  0  0  0  0  0  0  0  0
   15.3808  -20.3948  -22.4653 C   0  0  0  0  0  0  0  0  0  0  0  0
   14.4570  -19.4183  -22.0593 C   0  0  0  0  0  0  0  0  0  0  0  0
   14.4415  -18.9049  -20.7562 C   0  0  0  0  0  0  0  0  0  0  0  0
   15.4093  -19.4217  -19.8853 C   0  0  0  0  0  0  0  0  0  0  0  0
   16.3359  -20.4005  -20.2859 C   0  0  0  0  0  0  0  0  0  0  0  0
   13.5326  -17.9389  -20.3615 N   0  0  0  0  0  0  0  0  0  0  0  0
   12.3179  -18.2894  -19.6063 C   0  0  0  0  0  0  0  0  0  0  0  0
   11.8776  -17.1320  -18.6775 C   0  0  0  0  0  0  0  0  0  0  0  0
   11.6686  -15.8229  -19.3307 N   0  0  0  0  0  0  0  0  0  0  0  0
   10.2580  -15.5761  -19.6158 C   0  0  0  0  0  0  0  0  0  0  0  0
   12.4757  -15.7044  -20.5651 C   0  0  0  0  0  0  0  0  0  0  0  0
   13.8005  -16.5019  -20.5367 C   0  0  0  0  0  0  0  0  0  0  0  0
 16 17  1  0
 17 10  1  0
 10 11  2  0
 11 12  1  0
 12 13  2  0
 13  1  1  0
  1  2  2  0
  2  3  1  0
  3  4  2  0
  4  5  1  0
  5  6  2  0
  6  7  1  0
  7 18  1  0
 18 20  1  0
 20 21  2  0
 21 22  1  0
 22 23  2  0
 23 26  1  0
 26 27  1  0
 27 28  1  0
 28 29  1  0
 29 30  1  0
 29 31  1  0
 31 32  1  0
 23 24  1  0
 24 25  2  0
  7  8  2  0
  8  9  1  0
 13 14  1  0
 14 15  2  0
 15 10  1  0
  9  1  1  0
  9  5  1  0
 25 20  1  0
 32 26  1  0
 18 19  1  0
M  END
> <minimizedAffinity>
-8.17097

> <CNNscore>
0.3170211613

> <CNNaffinity>
6.0823116302

> <CNN_VS>
1.9282214642

> <CNNaffinity_variance>
0.0854048505

$$$$



 32 36  0  0  0  0  0  0  0  0999 V2000
   16.2862  -24.0311  -21.2516 C   0  0  0  0  0  0  0  0  0  0  0  0
   16.8373  -22.9538  -21.8539 C   0  0  0  0  0  0  0  0  0  0  0  0
   15.9877  -21.9978  -22.5448 C   0  0  0  0  0  0  0  0  0  0  0  0
   14.6530  -22.1545  -22.5962 C   0  0  0  0  0  0  0  0  0  0  0  0
   14.0542  -23.2773  -21.9653 C   0  0  0  0  0  0  0  0  0  0  0  0
   12.8032  -23.6577  -21.8687 N   0  0  0  0  0  0  0  0  0  0  0  0
   12.8731  -24.8123  -21.1468 C   0  0  0  0  0  0  0  0  0  0  0  0
   14.1056  -25.1711  -20.7850 N   0  0  0  0  0  0  0  0  0  0  0  0
   14.8839  -24.1885  -21.3072 N   0  0  0  0  0  0  0  0  0  0  0  0
   18.8238  -26.8113  -19.1836 C   0  0  0  0  0  0  0  0  0  0  0  0
   17.8899  -26.0446  -18.4839 C   0  0  0  0  0  0  0  0  0  0  0  0
   17.0589  -25.1425  -19.1544 C   0  0  0  0  0  0  0  0  0  0  0  0
   17.1528  -24.9906  -20.5422 C   0  0  0  0  0  0  0  0  0  0  0  0
   18.0906  -25.7635  -21.2416 C   0  0  0  0  0  0  0  0  0  0  0  0
   18.9209  -26.6679  -20.5672 C   0  0  0  0  0  0  0  0  0  0  0  0
   20.8227  -28.0731  -18.9344 C   0  0  0  0  0  0  0  0  0  0  0  0
   19.5715  -27.6519  -18.4065 O   0  0  0  0  0  0  0  0  0  0  0  0
   11.7876  -25.5393  -20.8262 N   0  0  0  0  0  0  0  0  0  0  0  0
   11.9913  -26.4850  -20.6434 H   0  0  0  0  0  0  0  0  0  0  0  0
   10.4229  -25.2285  -20.6983 C   0  0  0  0  0  0  0  0  0  0  0  0
    9.5466  -26.2162  -20.2344 C   0  0  0  0  0  0  0  0  0  0  0  0
    8.1720  -25.9686  -20.0891 C   0  0  0  0  0  0  0  0  0  0  0  0
    7.6030  -24.7268  -20.3988 C   0  0  0  0  0  0  0  0  0  0  0  0
    8.4897  -23.7495  -20.8686 C   0  0  0  0  0  0  0  0  0  0  0  0
    9.8670  -23.9913  -21.0149 C   0  0  0  0  0  0  0  0  0  0  0  0
    6.2469  -24.4886  -20.2589 N   0  0  0  0  0  0  0  0  0  0  0  0
    5.2816  -24.9165  -21.2855 C   0  0  0  0  0  0  0  0  0  0  0  0
    3.9001  -25.2336  -20.6634 C   0  0  0  0  0  0  0  0  0  0  0  0
    3.2901  -24.1537  -19.8596 N   0  0  0  0  0  0  0  0  0  0  0  0
    2.3060  -23.3945  -20.6259 C   0  0  0  0  0  0  0  0  0  0  0  0
    4.3219  -23.2516  -19.3022 C   0  0  0  0  0  0  0  0  0  0  0  0
    5.6786  -23.9373  -19.0177 C   0  0  0  0  0  0  0  0  0  0  0  0
 16 17  1  0
 17 10  1  0
 10 11  2  0
 11 12  1  0
 12 13  2  0
 13  1  1  0
  1  2  2  0
  2  3  1  0
  3  4  2  0
  4  5  1  0
  5  6  2  0
  6  7  1  0
  7 18  1  0
 18 20  1  0
 20 21  2  0
 21 22  1  0
 22 23  2  0
 23 26  1  0
 26 27  1  0
 27 28  1  0
 28 29  1  0
 29 30  1  0
 29 31  1  0
 31 32  1  0
 23 24  1  0
 24 25  2  0
  7  8  2  0
  8  9  1  0
 13 14  1  0
 14 15  2  0
 15 10  1  0
  9  1  1  0
  9  5  1  0
 25 20  1  0
 32 26  1  0
 18 19  1  0
M  END
> <minimizedAffinity>
-8.65004

> <CNNscore>
0.2120261490

> <CNNaffinity>
6.1950478554

> <CNN_VS>
1.3135120869

> <CNNaffinity_variance>
0.4070360959

$$$$
