


 59 63  0  0  0  0  0  0  0  0999 V2000
  -30.1977  -29.9121   17.2047 P   0  0  0  0  0  0  0  0  0  0  0  0
  -29.9378  -30.6721   15.9363 O   0  0  0  0  0  0  0  0  0  0  0  0
  -31.2833  -30.3236   18.1803 O   0  0  0  0  0  0  0  0  0  0  0  0
  -28.8463  -29.5600   17.9948 O   0  0  0  0  0  0  0  0  0  0  0  0
  -27.7254  -30.5818   18.4900 P   0  0  0  0  0  0  0  0  0  0  0  0
  -28.3737  -31.7632   19.1962 O   0  0  0  0  0  0  0  0  0  0  0  0
  -26.5431  -29.8455   19.0608 O   0  0  0  0  0  0  0  0  0  0  0  0
  -27.2739  -31.1384   17.0154 O   0  0  0  0  0  0  0  0  0  0  0  0
  -25.0454  -33.7077   18.2427 C   0  0  0  0  0  0  0  0  0  0  0  0
  -25.5459  -32.2695   18.2406 C   0  0  0  0  0  0  0  0  0  0  0  0
  -26.3780  -32.2274   16.9813 C   0  0  0  0  0  0  0  0  0  0  0  0
  -27.0367  -33.6010   17.0189 C   0  0  0  0  0  0  0  0  0  0  0  0
  -26.0195  -34.5007   17.5426 O   0  0  0  0  0  0  0  0  0  0  0  0
  -22.2002  -34.0673   14.1622 C   0  0  0  0  0  0  0  0  0  0  0  0
  -22.3824  -34.0151   15.6402 C   0  0  0  0  0  0  0  0  0  0  0  0
  -23.5723  -33.9213   16.2453 C   0  0  0  0  0  0  0  0  0  0  0  0
  -23.7202  -33.8623   17.6236 N   0  0  0  0  0  0  0  0  0  0  0  0
  -22.6161  -33.8538   18.4653 C   0  0  0  0  0  0  0  0  0  0  0  0
  -22.6695  -33.7655   19.6920 O   0  0  0  0  0  0  0  0  0  0  0  0
  -21.3990  -33.9652   17.8418 N   0  0  0  0  0  0  0  0  0  0  0  0
  -21.1785  -34.0744   16.4960 C   0  0  0  0  0  0  0  0  0  0  0  0
  -20.0515  -34.2260   16.0362 O   0  0  0  0  0  0  0  0  0  0  0  0
  -20.6035  -33.9666   18.4218 H   0  0  0  0  0  0  0  0  0  0  0  0
  -27.5321  -34.1230   15.6741 C   0  0  0  0  0  0  0  0  0  0  0  0
  -27.8497  -35.5076   15.8000 O   0  0  0  0  0  0  0  0  0  0  0  0
  -27.0896  -36.5254   14.8247 P   0  0  0  0  0  0  0  0  0  0  0  0
  -27.8921  -37.1650   13.7411 O   0  0  0  0  0  0  0  0  0  0  0  0
  -25.9997  -35.5455   14.1677 O   0  0  0  0  0  0  0  0  0  0  0  0
  -26.1660  -37.4417   15.7375 O   0  0  0  0  0  0  0  0  0  0  0  0
  -26.4435  -34.9203   13.5735 H   0  0  0  0  0  0  0  0  0  0  0  0
  -26.7147  -38.0933   16.2014 H   0  0  0  0  0  0  0  0  0  0  0  0
  -30.5780  -28.3900   16.7546 O   0  0  0  0  0  0  0  0  0  0  0  0
  -29.9658  -27.3535   17.4981 C   0  0  0  0  0  0  0  0  0  0  0  0
  -30.9703  -26.2900   17.9839 C   0  0  0  0  0  0  0  0  0  0  0  0
  -30.3130  -24.9929   17.8855 O   0  0  0  0  0  0  0  0  0  0  0  0
  -30.8204  -24.3200   16.7054 C   0  0  0  0  0  0  0  0  0  0  0  0
  -31.7125  -25.3365   15.9717 C   0  0  0  0  0  0  0  0  0  0  0  0
  -32.6993  -24.7180   15.1506 O   0  0  0  0  0  0  0  0  0  0  0  0
  -32.2352  -26.1746   17.1302 C   0  0  0  0  0  0  0  0  0  0  0  0
  -33.2466  -24.1278   15.6919 H   0  0  0  0  0  0  0  0  0  0  0  0
  -29.6880  -23.7979   15.9481 N   0  0  0  0  0  0  0  0  0  0  0  0
  -29.1228  -22.5513   16.0554 C   0  0  0  0  0  0  0  0  0  0  0  0
  -28.1308  -22.3718   15.2012 N   0  0  0  0  0  0  0  0  0  0  0  0
  -28.0335  -23.5736   14.5340 C   0  0  0  0  0  0  0  0  0  0  0  0
  -27.1877  -24.0100   13.4974 C   0  0  0  0  0  0  0  0  0  0  0  0
  -26.2433  -23.1809   12.8971 N   0  0  0  0  0  0  0  0  0  0  0  0
  -27.2735  -25.2939   13.0846 N   0  0  0  0  0  0  0  0  0  0  0  0
  -28.2024  -26.0854   13.6695 C   0  0  0  0  0  0  0  0  0  0  0  0
  -29.0636  -25.7764   14.6533 N   0  0  0  0  0  0  0  0  0  0  0  0
  -28.9430  -24.4919   15.0266 C   0  0  0  0  0  0  0  0  0  0  0  0
  -26.1617  -22.2416   13.1807 H   0  0  0  0  0  0  0  0  0  0  0  0
  -25.6573  -23.5340   12.1892 H   0  0  0  0  0  0  0  0  0  0  0  0
  -33.2285  -25.4583   17.8585 O   0  0  0  0  0  0  0  0  0  0  0  0
  -34.6879  -26.1051   18.0054 P   0  0  0  0  0  0  0  0  0  0  0  0
  -35.7235  -25.3516   18.7686 O   0  0  0  0  0  0  0  0  0  0  0  0
  -35.1732  -26.0547   16.4701 O   0  0  0  0  0  0  0  0  0  0  0  0
  -34.5746  -27.6799   18.1639 O   0  0  0  0  0  0  0  0  0  0  0  0
  -35.2955  -25.1312   16.1998 H   0  0  0  0  0  0  0  0  0  0  0  0
  -34.2828  -27.8942   19.0637 H   0  0  0  0  0  0  0  0  0  0  0  0
 14 15  1  0
 15 16  2  0
 16 17  1  0
  9 17  1  0
  9 10  1  0
 10 11  1  0
 11  8  1  0
  8  5  1  0
  5  6  2  0
  5  7  1  0
  5  4  1  0
  4  1  1  0
  1  2  2  0
  1  3  1  0
  1 32  1  0
 32 33  1  0
 34 33  1  0
 34 35  1  0
 35 36  1  0
 36 41  1  0
 41 42  1  0
 42 43  2  0
 43 44  1  0
 44 45  2  0
 45 46  1  0
 45 47  1  0
 47 48  2  0
 48 49  1  0
 49 50  2  0
 36 37  1  0
 37 38  1  0
 37 39  1  0
 39 53  1  0
 53 54  1  0
 54 55  2  0
 54 56  1  0
 54 57  1  0
 11 12  1  0
 12 24  1  0
 24 25  1  0
 25 26  1  0
 26 27  2  0
 26 28  1  0
 26 29  1  0
 12 13  1  0
 17 18  1  0
 18 19  2  0
 18 20  1  0
 20 21  1  0
 21 22  2  0
 21 15  1  0
 13  9  1  0
 39 34  1  0
 50 41  1  0
 50 44  1  0
 46 51  1  0
 46 52  1  0
 38 40  1  0
 56 58  1  0
 57 59  1  0
 28 30  1  0
 29 31  1  0
 20 23  1  0
M  CHG 1   3  -1
M  CHG 1   7  -1
M  END
> <minimizedAffinity>
-8.71332

> <CNNscore>
0.9305786490

> <CNNaffinity>
5.6627612114

> <CNN_VS>
5.2696447372

> <CNNaffinity_variance>
1.0374683142

$$$$



 59 63  0  0  0  0  0  0  0  0999 V2000
  -30.1212  -28.8122   18.7447 P   0  0  0  0  0  0  0  0  0  0  0  0
  -31.3464  -29.4087   18.1146 O   0  0  0  0  0  0  0  0  0  0  0  0
  -29.9450  -28.7399   20.2491 O   0  0  0  0  0  0  0  0  0  0  0  0
  -28.7668  -29.3222   18.0516 O   0  0  0  0  0  0  0  0  0  0  0  0
  -27.7895  -30.4698   18.5745 P   0  0  0  0  0  0  0  0  0  0  0  0
  -28.5654  -31.4682   19.4207 O   0  0  0  0  0  0  0  0  0  0  0  0
  -26.4689  -29.8927   19.0088 O   0  0  0  0  0  0  0  0  0  0  0  0
  -27.5357  -31.2104   17.1339 O   0  0  0  0  0  0  0  0  0  0  0  0
  -25.1435  -33.6263   18.3645 C   0  0  0  0  0  0  0  0  0  0  0  0
  -25.6621  -32.1979   18.2656 C   0  0  0  0  0  0  0  0  0  0  0  0
  -26.6338  -32.2946   17.1138 C   0  0  0  0  0  0  0  0  0  0  0  0
  -27.2635  -33.6575   17.3750 C   0  0  0  0  0  0  0  0  0  0  0  0
  -26.1797  -34.4928   17.8712 O   0  0  0  0  0  0  0  0  0  0  0  0
  -22.7440  -34.1328   14.0215 C   0  0  0  0  0  0  0  0  0  0  0  0
  -22.7736  -34.0664   15.5099 C   0  0  0  0  0  0  0  0  0  0  0  0
  -23.8907  -33.9154   16.2308 C   0  0  0  0  0  0  0  0  0  0  0  0
  -23.8960  -33.8443   17.6164 N   0  0  0  0  0  0  0  0  0  0  0  0
  -22.7133  -33.8834   18.3426 C   0  0  0  0  0  0  0  0  0  0  0  0
  -22.6385  -33.7878   19.5677 O   0  0  0  0  0  0  0  0  0  0  0  0
  -21.5717  -34.0532   17.6008 N   0  0  0  0  0  0  0  0  0  0  0  0
  -21.4933  -34.1778   16.2406 C   0  0  0  0  0  0  0  0  0  0  0  0
  -20.4266  -34.3830   15.6710 O   0  0  0  0  0  0  0  0  0  0  0  0
  -20.7226  -34.0890   18.0978 H   0  0  0  0  0  0  0  0  0  0  0  0
  -27.9021  -34.3235   16.1605 C   0  0  0  0  0  0  0  0  0  0  0  0
  -26.8773  -34.8927   15.3484 O   0  0  0  0  0  0  0  0  0  0  0  0
  -27.0884  -36.4006   14.8520 P   0  0  0  0  0  0  0  0  0  0  0  0
  -28.4758  -36.8157   14.4913 O   0  0  0  0  0  0  0  0  0  0  0  0
  -26.1742  -36.4067   13.5313 O   0  0  0  0  0  0  0  0  0  0  0  0
  -26.2362  -37.3316   15.8178 O   0  0  0  0  0  0  0  0  0  0  0  0
  -26.5919  -35.8613   12.8464 H   0  0  0  0  0  0  0  0  0  0  0  0
  -26.6894  -37.4124   16.6716 H   0  0  0  0  0  0  0  0  0  0  0  0
  -30.0496  -27.2656   18.2281 O   0  0  0  0  0  0  0  0  0  0  0  0
  -31.2890  -26.5927   18.1155 C   0  0  0  0  0  0  0  0  0  0  0  0
  -31.1307  -25.0696   17.9384 C   0  0  0  0  0  0  0  0  0  0  0  0
  -29.8977  -24.8435   17.1948 O   0  0  0  0  0  0  0  0  0  0  0  0
  -30.2502  -24.5384   15.8217 C   0  0  0  0  0  0  0  0  0  0  0  0
  -31.7695  -24.7497   15.7027 C   0  0  0  0  0  0  0  0  0  0  0  0
  -32.3546  -23.9907   14.6482 O   0  0  0  0  0  0  0  0  0  0  0  0
  -32.2355  -24.4084   17.1113 C   0  0  0  0  0  0  0  0  0  0  0  0
  -32.1610  -23.0496   14.7813 H   0  0  0  0  0  0  0  0  0  0  0  0
  -29.4195  -25.3512   14.9398 N   0  0  0  0  0  0  0  0  0  0  0  0
  -29.6408  -26.6513   14.5580 C   0  0  0  0  0  0  0  0  0  0  0  0
  -28.6814  -27.1186   13.7789 N   0  0  0  0  0  0  0  0  0  0  0  0
  -27.8171  -26.0561   13.6272 C   0  0  0  0  0  0  0  0  0  0  0  0
  -26.6013  -25.9224   12.9315 C   0  0  0  0  0  0  0  0  0  0  0  0
  -26.0043  -26.9797   12.2492 N   0  0  0  0  0  0  0  0  0  0  0  0
  -26.0001  -24.7126   12.8984 N   0  0  0  0  0  0  0  0  0  0  0  0
  -26.5858  -23.6968   13.5742 C   0  0  0  0  0  0  0  0  0  0  0  0
  -27.7317  -23.7108   14.2755 N   0  0  0  0  0  0  0  0  0  0  0  0
  -28.2889  -24.9329   14.2821 C   0  0  0  0  0  0  0  0  0  0  0  0
  -26.4231  -27.8706   12.2584 H   0  0  0  0  0  0  0  0  0  0  0  0
  -25.1634  -26.8361   11.7577 H   0  0  0  0  0  0  0  0  0  0  0  0
  -32.2003  -22.9999   17.3231 O   0  0  0  0  0  0  0  0  0  0  0  0
  -33.1390  -22.3711   18.4603 P   0  0  0  0  0  0  0  0  0  0  0  0
  -33.8453  -23.2988   19.3894 O   0  0  0  0  0  0  0  0  0  0  0  0
  -32.0288  -21.6314   19.3635 O   0  0  0  0  0  0  0  0  0  0  0  0
  -33.8842  -21.0849   17.9049 O   0  0  0  0  0  0  0  0  0  0  0  0
  -31.4659  -22.2952   19.7919 H   0  0  0  0  0  0  0  0  0  0  0  0
  -34.6091  -21.3580   17.3211 H   0  0  0  0  0  0  0  0  0  0  0  0
 14 15  1  0
 15 16  2  0
 16 17  1  0
  9 17  1  0
  9 10  1  0
 10 11  1  0
 11  8  1  0
  8  5  1  0
  5  6  2  0
  5  7  1  0
  5  4  1  0
  4  1  1  0
  1  2  2  0
  1  3  1  0
  1 32  1  0
 32 33  1  0
 34 33  1  0
 34 35  1  0
 35 36  1  0
 36 41  1  0
 41 42  1  0
 42 43  2  0
 43 44  1  0
 44 45  2  0
 45 46  1  0
 45 47  1  0
 47 48  2  0
 48 49  1  0
 49 50  2  0
 36 37  1  0
 37 38  1  0
 37 39  1  0
 39 53  1  0
 53 54  1  0
 54 55  2  0
 54 56  1  0
 54 57  1  0
 11 12  1  0
 12 24  1  0
 24 25  1  0
 25 26  1  0
 26 27  2  0
 26 28  1  0
 26 29  1  0
 12 13  1  0
 17 18  1  0
 18 19  2  0
 18 20  1  0
 20 21  1  0
 21 22  2  0
 21 15  1  0
 13  9  1  0
 39 34  1  0
 50 41  1  0
 50 44  1  0
 46 51  1  0
 46 52  1  0
 38 40  1  0
 56 58  1  0
 57 59  1  0
 28 30  1  0
 29 31  1  0
 20 23  1  0
M  CHG 1   3  -1
M  CHG 1   7  -1
M  END
> <minimizedAffinity>
-9.49108

> <CNNscore>
0.8412329555

> <CNNaffinity>
5.5487055779

> <CNN_VS>
4.6677541733

> <CNNaffinity_variance>
0.6200050116

$$$$



 59 63  0  0  0  0  0  0  0  0999 V2000
  -28.7311  -34.1447   13.8236 P   0  0  0  0  0  0  0  0  0  0  0  0
  -28.9734  -35.4121   14.5911 O   0  0  0  0  0  0  0  0  0  0  0  0
  -28.1793  -34.1533   12.4112 O   0  0  0  0  0  0  0  0  0  0  0  0
  -29.9600  -33.1189   13.9327 O   0  0  0  0  0  0  0  0  0  0  0  0
  -29.9082  -31.5323   13.7724 P   0  0  0  0  0  0  0  0  0  0  0  0
  -28.9661  -30.9353   14.8073 O   0  0  0  0  0  0  0  0  0  0  0  0
  -31.2813  -30.9748   13.5089 O   0  0  0  0  0  0  0  0  0  0  0  0
  -29.0936  -31.4855   12.3502 O   0  0  0  0  0  0  0  0  0  0  0  0
  -26.6607  -28.9972   11.3687 C   0  0  0  0  0  0  0  0  0  0  0  0
  -27.1211  -30.1171   12.2922 C   0  0  0  0  0  0  0  0  0  0  0  0
  -28.5839  -30.2368   11.9373 C   0  0  0  0  0  0  0  0  0  0  0  0
  -28.5374  -30.0306   10.4282 C   0  0  0  0  0  0  0  0  0  0  0  0
  -27.5115  -29.0214   10.2096 O   0  0  0  0  0  0  0  0  0  0  0  0
  -29.0387  -25.5970   14.1363 C   0  0  0  0  0  0  0  0  0  0  0  0
  -27.8634  -26.0667   13.3498 C   0  0  0  0  0  0  0  0  0  0  0  0
  -27.8064  -27.2460   12.7201 C   0  0  0  0  0  0  0  0  0  0  0  0
  -26.6976  -27.6702   12.0020 N   0  0  0  0  0  0  0  0  0  0  0  0
  -25.5471  -26.8962   11.9327 C   0  0  0  0  0  0  0  0  0  0  0  0
  -24.5148  -27.2241   11.3475 O   0  0  0  0  0  0  0  0  0  0  0  0
  -25.6150  -25.6815   12.5670 N   0  0  0  0  0  0  0  0  0  0  0  0
  -26.6865  -25.1774   13.2522 C   0  0  0  0  0  0  0  0  0  0  0  0
  -26.6700  -24.0523   13.7403 O   0  0  0  0  0  0  0  0  0  0  0  0
  -24.8109  -25.1151   12.5248 H   0  0  0  0  0  0  0  0  0  0  0  0
  -29.8454  -29.5701    9.7929 C   0  0  0  0  0  0  0  0  0  0  0  0
  -29.8396  -29.9178    8.4099 O   0  0  0  0  0  0  0  0  0  0  0  0
  -29.4023  -28.7808    7.3703 P   0  0  0  0  0  0  0  0  0  0  0  0
  -30.2721  -28.5733    6.1754 O   0  0  0  0  0  0  0  0  0  0  0  0
  -29.4744  -27.4796    8.3093 O   0  0  0  0  0  0  0  0  0  0  0  0
  -27.8331  -28.9205    7.1614 O   0  0  0  0  0  0  0  0  0  0  0  0
  -30.4010  -27.2810    8.5160 H   0  0  0  0  0  0  0  0  0  0  0  0
  -27.6490  -29.6881    6.5976 H   0  0  0  0  0  0  0  0  0  0  0  0
  -27.6594  -33.2792   14.6990 O   0  0  0  0  0  0  0  0  0  0  0  0
  -26.8938  -34.0098   15.6381 C   0  0  0  0  0  0  0  0  0  0  0  0
  -27.3267  -33.7522   17.0950 C   0  0  0  0  0  0  0  0  0  0  0  0
  -26.2639  -34.2493   17.9596 O   0  0  0  0  0  0  0  0  0  0  0  0
  -25.5000  -33.1113   18.4329 C   0  0  0  0  0  0  0  0  0  0  0  0
  -26.0388  -31.8803   17.6835 C   0  0  0  0  0  0  0  0  0  0  0  0
  -25.8233  -30.6619   18.3901 O   0  0  0  0  0  0  0  0  0  0  0  0
  -27.4918  -32.2743   17.4563 C   0  0  0  0  0  0  0  0  0  0  0  0
  -26.2327  -30.7203   19.2676 H   0  0  0  0  0  0  0  0  0  0  0  0
  -24.0812  -33.4000   18.2533 N   0  0  0  0  0  0  0  0  0  0  0  0
  -23.2102  -33.8940   19.1927 C   0  0  0  0  0  0  0  0  0  0  0  0
  -21.9790  -34.0105   18.7273 N   0  0  0  0  0  0  0  0  0  0  0  0
  -22.0703  -33.6007   17.4148 C   0  0  0  0  0  0  0  0  0  0  0  0
  -21.1064  -33.4781   16.3968 C   0  0  0  0  0  0  0  0  0  0  0  0
  -19.7552  -33.7452   16.6035 N   0  0  0  0  0  0  0  0  0  0  0  0
  -21.5094  -33.1137   15.1595 N   0  0  0  0  0  0  0  0  0  0  0  0
  -22.8235  -32.8474   14.9754 C   0  0  0  0  0  0  0  0  0  0  0  0
  -23.8241  -32.9207   15.8690 N   0  0  0  0  0  0  0  0  0  0  0  0
  -23.3745  -33.2824   17.0818 C   0  0  0  0  0  0  0  0  0  0  0  0
  -19.4371  -34.0124   17.4961 H   0  0  0  0  0  0  0  0  0  0  0  0
  -19.1181  -33.6667   15.8570 H   0  0  0  0  0  0  0  0  0  0  0  0
  -28.2348  -32.1680   18.6674 O   0  0  0  0  0  0  0  0  0  0  0  0
  -28.7393  -30.7196   19.1335 P   0  0  0  0  0  0  0  0  0  0  0  0
  -28.8048  -29.6308   18.1172 O   0  0  0  0  0  0  0  0  0  0  0  0
  -30.2733  -31.0581   19.4907 O   0  0  0  0  0  0  0  0  0  0  0  0
  -28.2210  -30.4058   20.6001 O   0  0  0  0  0  0  0  0  0  0  0  0
  -30.7532  -31.2802   18.6775 H   0  0  0  0  0  0  0  0  0  0  0  0
  -27.2795  -30.1746   20.5678 H   0  0  0  0  0  0  0  0  0  0  0  0
 14 15  1  0
 15 16  2  0
 16 17  1  0
  9 17  1  0
  9 10  1  0
 10 11  1  0
 11  8  1  0
  8  5  1  0
  5  6  2  0
  5  7  1  0
  5  4  1  0
  4  1  1  0
  1  2  2  0
  1  3  1  0
  1 32  1  0
 32 33  1  0
 34 33  1  0
 34 35  1  0
 35 36  1  0
 36 41  1  0
 41 42  1  0
 42 43  2  0
 43 44  1  0
 44 45  2  0
 45 46  1  0
 45 47  1  0
 47 48  2  0
 48 49  1  0
 49 50  2  0
 36 37  1  0
 37 38  1  0
 37 39  1  0
 39 53  1  0
 53 54  1  0
 54 55  2  0
 54 56  1  0
 54 57  1  0
 11 12  1  0
 12 24  1  0
 24 25  1  0
 25 26  1  0
 26 27  2  0
 26 28  1  0
 26 29  1  0
 12 13  1  0
 17 18  1  0
 18 19  2  0
 18 20  1  0
 20 21  1  0
 21 22  2  0
 21 15  1  0
 13  9  1  0
 39 34  1  0
 50 41  1  0
 50 44  1  0
 46 51  1  0
 46 52  1  0
 38 40  1  0
 56 58  1  0
 57 59  1  0
 28 30  1  0
 29 31  1  0
 20 23  1  0
M  CHG 1   3  -1
M  CHG 1   7  -1
M  END
> <minimizedAffinity>
-8.73731

> <CNNscore>
0.7853777409

> <CNNaffinity>
6.1714749336

> <CNN_VS>
4.8469390869

> <CNNaffinity_variance>
0.3306860328

$$$$



 59 63  0  0  0  0  0  0  0  0999 V2000
  -28.7872  -29.7179   18.9611 P   0  0  0  0  0  0  0  0  0  0  0  0
  -29.8463  -29.8519   20.0166 O   0  0  0  0  0  0  0  0  0  0  0  0
  -27.3219  -29.5431   19.3101 O   0  0  0  0  0  0  0  0  0  0  0  0
  -28.9526  -30.7997   17.7876 O   0  0  0  0  0  0  0  0  0  0  0  0
  -28.0547  -32.0945   17.5369 P   0  0  0  0  0  0  0  0  0  0  0  0
  -28.5487  -32.8398   16.3059 O   0  0  0  0  0  0  0  0  0  0  0  0
  -27.7425  -32.7901   18.8347 O   0  0  0  0  0  0  0  0  0  0  0  0
  -26.6866  -31.3213   17.0692 O   0  0  0  0  0  0  0  0  0  0  0  0
  -24.6116  -34.2505   16.6357 C   0  0  0  0  0  0  0  0  0  0  0  0
  -25.4071  -33.3021   17.5227 C   0  0  0  0  0  0  0  0  0  0  0  0
  -25.6179  -32.1185   16.6090 C   0  0  0  0  0  0  0  0  0  0  0  0
  -25.8657  -32.8166   15.2773 C   0  0  0  0  0  0  0  0  0  0  0  0
  -24.9715  -33.9650   15.2730 O   0  0  0  0  0  0  0  0  0  0  0  0
  -20.0853  -33.3495   14.7447 C   0  0  0  0  0  0  0  0  0  0  0  0
  -20.9990  -33.6757   15.8757 C   0  0  0  0  0  0  0  0  0  0  0  0
  -22.3210  -33.8385   15.7475 C   0  0  0  0  0  0  0  0  0  0  0  0
  -23.1567  -34.1309   16.8157 N   0  0  0  0  0  0  0  0  0  0  0  0
  -22.6621  -34.2297   18.1093 C   0  0  0  0  0  0  0  0  0  0  0  0
  -23.3478  -34.4483   19.1081 O   0  0  0  0  0  0  0  0  0  0  0  0
  -21.3044  -34.0769   18.2342 N   0  0  0  0  0  0  0  0  0  0  0  0
  -20.4140  -33.8346   17.2240 C   0  0  0  0  0  0  0  0  0  0  0  0
  -19.2065  -33.7686   17.4291 O   0  0  0  0  0  0  0  0  0  0  0  0
  -20.9330  -34.1489   19.1431 H   0  0  0  0  0  0  0  0  0  0  0  0
  -25.6056  -31.9664   14.0378 C   0  0  0  0  0  0  0  0  0  0  0  0
  -24.3298  -32.3065   13.4988 O   0  0  0  0  0  0  0  0  0  0  0  0
  -23.5411  -31.1612   12.7044 P   0  0  0  0  0  0  0  0  0  0  0  0
  -22.1975  -31.5086   12.1555 O   0  0  0  0  0  0  0  0  0  0  0  0
  -24.5561  -30.8937   11.4886 O   0  0  0  0  0  0  0  0  0  0  0  0
  -23.7044  -29.8192   13.5398 O   0  0  0  0  0  0  0  0  0  0  0  0
  -24.5514  -31.6566   10.8896 H   0  0  0  0  0  0  0  0  0  0  0  0
  -23.1303  -29.8527   14.3210 H   0  0  0  0  0  0  0  0  0  0  0  0
  -29.1812  -28.3985   18.0846 O   0  0  0  0  0  0  0  0  0  0  0  0
  -30.5040  -28.3604   17.5841 C   0  0  0  0  0  0  0  0  0  0  0  0
  -31.3724  -27.2847   18.2659 C   0  0  0  0  0  0  0  0  0  0  0  0
  -30.6347  -26.0290   18.2093 O   0  0  0  0  0  0  0  0  0  0  0  0
  -31.2090  -25.2174   17.1537 C   0  0  0  0  0  0  0  0  0  0  0  0
  -32.2438  -26.1012   16.4360 C   0  0  0  0  0  0  0  0  0  0  0  0
  -33.2610  -25.3465   15.7832 O   0  0  0  0  0  0  0  0  0  0  0  0
  -32.7059  -27.0089   17.5676 C   0  0  0  0  0  0  0  0  0  0  0  0
  -33.7052  -24.7756   16.4295 H   0  0  0  0  0  0  0  0  0  0  0  0
  -30.1244  -24.7004   16.3261 N   0  0  0  0  0  0  0  0  0  0  0  0
  -29.5307  -23.4655   16.4139 C   0  0  0  0  0  0  0  0  0  0  0  0
  -28.5993  -23.2870   15.4938 N   0  0  0  0  0  0  0  0  0  0  0  0
  -28.5716  -24.4777   14.8008 C   0  0  0  0  0  0  0  0  0  0  0  0
  -27.8102  -24.9090   13.6988 C   0  0  0  0  0  0  0  0  0  0  0  0
  -26.8963  -24.0849   13.0465 N   0  0  0  0  0  0  0  0  0  0  0  0
  -27.9483  -26.1835   13.2711 N   0  0  0  0  0  0  0  0  0  0  0  0
  -28.8472  -26.9700   13.9076 C   0  0  0  0  0  0  0  0  0  0  0  0
  -29.6301  -26.6648   14.9559 N   0  0  0  0  0  0  0  0  0  0  0  0
  -29.4600  -25.3896   15.3416 C   0  0  0  0  0  0  0  0  0  0  0  0
  -26.7777  -23.1526   13.3396 H   0  0  0  0  0  0  0  0  0  0  0  0
  -26.3690  -24.4347   12.2923 H   0  0  0  0  0  0  0  0  0  0  0  0
  -33.5640  -26.3016   18.4583 O   0  0  0  0  0  0  0  0  0  0  0  0
  -32.9034  -25.3538   19.5696 P   0  0  0  0  0  0  0  0  0  0  0  0
  -32.4857  -23.9792   19.1714 O   0  0  0  0  0  0  0  0  0  0  0  0
  -34.1662  -25.1458   20.5481 O   0  0  0  0  0  0  0  0  0  0  0  0
  -31.9897  -26.2094   20.5450 O   0  0  0  0  0  0  0  0  0  0  0  0
  -34.8450  -24.6231   20.0932 H   0  0  0  0  0  0  0  0  0  0  0  0
  -31.1573  -26.4295   20.0982 H   0  0  0  0  0  0  0  0  0  0  0  0
 14 15  1  0
 15 16  2  0
 16 17  1  0
  9 17  1  0
  9 10  1  0
 10 11  1  0
 11  8  1  0
  8  5  1  0
  5  6  2  0
  5  7  1  0
  5  4  1  0
  4  1  1  0
  1  2  2  0
  1  3  1  0
  1 32  1  0
 32 33  1  0
 34 33  1  0
 34 35  1  0
 35 36  1  0
 36 41  1  0
 41 42  1  0
 42 43  2  0
 43 44  1  0
 44 45  2  0
 45 46  1  0
 45 47  1  0
 47 48  2  0
 48 49  1  0
 49 50  2  0
 36 37  1  0
 37 38  1  0
 37 39  1  0
 39 53  1  0
 53 54  1  0
 54 55  2  0
 54 56  1  0
 54 57  1  0
 11 12  1  0
 12 24  1  0
 24 25  1  0
 25 26  1  0
 26 27  2  0
 26 28  1  0
 26 29  1  0
 12 13  1  0
 17 18  1  0
 18 19  2  0
 18 20  1  0
 20 21  1  0
 21 22  2  0
 21 15  1  0
 13  9  1  0
 39 34  1  0
 50 41  1  0
 50 44  1  0
 46 51  1  0
 46 52  1  0
 38 40  1  0
 56 58  1  0
 57 59  1  0
 28 30  1  0
 29 31  1  0
 20 23  1  0
M  CHG 1   3  -1
M  CHG 1   7  -1
M  END
> <minimizedAffinity>
-8.71491

> <CNNscore>
0.7057006359

> <CNNaffinity>
5.7907547951

> <CNN_VS>
4.0865392685

> <CNNaffinity_variance>
0.2381848842

$$$$



 59 63  0  0  0  0  0  0  0  0999 V2000
  -30.4312  -28.3418   17.5772 P   0  0  0  0  0  0  0  0  0  0  0  0
  -31.6651  -28.4525   16.7291 O   0  0  0  0  0  0  0  0  0  0  0  0
  -30.4937  -28.3507   19.0923 O   0  0  0  0  0  0  0  0  0  0  0  0
  -29.2491  -29.2985   17.0653 O   0  0  0  0  0  0  0  0  0  0  0  0
  -28.5322  -30.4664   17.8824 P   0  0  0  0  0  0  0  0  0  0  0  0
  -29.5497  -31.5274   18.2745 O   0  0  0  0  0  0  0  0  0  0  0  0
  -27.5318  -29.9035   18.8562 O   0  0  0  0  0  0  0  0  0  0  0  0
  -27.6781  -31.1076   16.6385 O   0  0  0  0  0  0  0  0  0  0  0  0
  -25.4583  -33.2061   18.5731 C   0  0  0  0  0  0  0  0  0  0  0  0
  -25.9314  -31.8318   18.1187 C   0  0  0  0  0  0  0  0  0  0  0  0
  -26.8045  -32.1745   16.9354 C   0  0  0  0  0  0  0  0  0  0  0  0
  -27.4873  -33.4430   17.4323 C   0  0  0  0  0  0  0  0  0  0  0  0
  -26.4702  -34.1544   18.1924 O   0  0  0  0  0  0  0  0  0  0  0  0
  -22.6092  -34.2122   14.6050 C   0  0  0  0  0  0  0  0  0  0  0  0
  -22.8143  -34.0508   16.0721 C   0  0  0  0  0  0  0  0  0  0  0  0
  -23.9898  -33.7476   16.6351 C   0  0  0  0  0  0  0  0  0  0  0  0
  -24.1579  -33.5902   18.0033 N   0  0  0  0  0  0  0  0  0  0  0  0
  -23.0839  -33.6986   18.8766 C   0  0  0  0  0  0  0  0  0  0  0  0
  -23.1507  -33.5348   20.0948 O   0  0  0  0  0  0  0  0  0  0  0  0
  -21.8837  -34.0242   18.2969 N   0  0  0  0  0  0  0  0  0  0  0  0
  -21.6522  -34.2402   16.9659 C   0  0  0  0  0  0  0  0  0  0  0  0
  -20.5508  -34.5830   16.5491 O   0  0  0  0  0  0  0  0  0  0  0  0
  -21.1105  -34.1112   18.9001 H   0  0  0  0  0  0  0  0  0  0  0  0
  -28.0374  -34.3567   16.3418 C   0  0  0  0  0  0  0  0  0  0  0  0
  -29.1657  -33.7306   15.7346 O   0  0  0  0  0  0  0  0  0  0  0  0
  -30.6028  -34.3792   16.0153 P   0  0  0  0  0  0  0  0  0  0  0  0
  -31.6101  -34.3159   14.9159 O   0  0  0  0  0  0  0  0  0  0  0  0
  -30.1906  -35.9110   16.2674 O   0  0  0  0  0  0  0  0  0  0  0  0
  -31.0358  -33.9345   17.4783 O   0  0  0  0  0  0  0  0  0  0  0  0
  -29.8997  -36.3093   15.4321 H   0  0  0  0  0  0  0  0  0  0  0  0
  -31.3142  -33.0054   17.4647 H   0  0  0  0  0  0  0  0  0  0  0  0
  -29.7332  -26.9199   17.1835 O   0  0  0  0  0  0  0  0  0  0  0  0
  -29.8864  -26.5066   15.8391 C   0  0  0  0  0  0  0  0  0  0  0  0
  -29.7472  -24.9818   15.6609 C   0  0  0  0  0  0  0  0  0  0  0  0
  -28.3661  -24.7119   15.2815 O   0  0  0  0  0  0  0  0  0  0  0  0
  -28.3338  -24.4539   13.8549 C   0  0  0  0  0  0  0  0  0  0  0  0
  -29.7498  -24.7414   13.3261 C   0  0  0  0  0  0  0  0  0  0  0  0
  -30.0481  -24.0347   12.1253 O   0  0  0  0  0  0  0  0  0  0  0  0
  -30.6036  -24.3930   14.5376 C   0  0  0  0  0  0  0  0  0  0  0  0
  -29.9378  -23.0826   12.2746 H   0  0  0  0  0  0  0  0  0  0  0  0
  -27.2578  -25.2441   13.2665 N   0  0  0  0  0  0  0  0  0  0  0  0
  -25.9562  -24.8546   13.0680 C   0  0  0  0  0  0  0  0  0  0  0  0
  -25.2343  -25.7902   12.4768 N   0  0  0  0  0  0  0  0  0  0  0  0
  -26.1073  -26.8442   12.3161 C   0  0  0  0  0  0  0  0  0  0  0  0
  -25.9505  -28.1178   11.7386 C   0  0  0  0  0  0  0  0  0  0  0  0
  -24.7634  -28.5315   11.1389 N   0  0  0  0  0  0  0  0  0  0  0  0
  -26.9831  -28.9880   11.7916 N   0  0  0  0  0  0  0  0  0  0  0  0
  -28.1338  -28.5693   12.3680 C   0  0  0  0  0  0  0  0  0  0  0  0
  -28.3988  -27.3821   12.9384 N   0  0  0  0  0  0  0  0  0  0  0  0
  -27.3459  -26.5521   12.8580 C   0  0  0  0  0  0  0  0  0  0  0  0
  -23.9970  -27.9157   11.0881 H   0  0  0  0  0  0  0  0  0  0  0  0
  -24.6908  -29.4396   10.7658 H   0  0  0  0  0  0  0  0  0  0  0  0
  -30.6863  -22.9802   14.7024 O   0  0  0  0  0  0  0  0  0  0  0  0
  -29.3269  -22.1315   14.7424 P   0  0  0  0  0  0  0  0  0  0  0  0
  -29.4003  -20.6634   14.4937 O   0  0  0  0  0  0  0  0  0  0  0  0
  -28.9500  -22.2784   16.3019 O   0  0  0  0  0  0  0  0  0  0  0  0
  -28.1337  -22.9811   14.1320 O   0  0  0  0  0  0  0  0  0  0  0  0
  -29.6016  -21.8004   16.8384 H   0  0  0  0  0  0  0  0  0  0  0  0
  -28.2096  -22.9968   13.1651 H   0  0  0  0  0  0  0  0  0  0  0  0
 14 15  1  0
 15 16  2  0
 16 17  1  0
  9 17  1  0
  9 10  1  0
 10 11  1  0
 11  8  1  0
  8  5  1  0
  5  6  2  0
  5  7  1  0
  5  4  1  0
  4  1  1  0
  1  2  2  0
  1  3  1  0
  1 32  1  0
 32 33  1  0
 34 33  1  0
 34 35  1  0
 35 36  1  0
 36 41  1  0
 41 42  1  0
 42 43  2  0
 43 44  1  0
 44 45  2  0
 45 46  1  0
 45 47  1  0
 47 48  2  0
 48 49  1  0
 49 50  2  0
 36 37  1  0
 37 38  1  0
 37 39  1  0
 39 53  1  0
 53 54  1  0
 54 55  2  0
 54 56  1  0
 54 57  1  0
 11 12  1  0
 12 24  1  0
 24 25  1  0
 25 26  1  0
 26 27  2  0
 26 28  1  0
 26 29  1  0
 12 13  1  0
 17 18  1  0
 18 19  2  0
 18 20  1  0
 20 21  1  0
 21 22  2  0
 21 15  1  0
 13  9  1  0
 39 34  1  0
 50 41  1  0
 50 44  1  0
 46 51  1  0
 46 52  1  0
 38 40  1  0
 56 58  1  0
 57 59  1  0
 28 30  1  0
 29 31  1  0
 20 23  1  0
M  CHG 1   3  -1
M  CHG 1   7  -1
M  END
> <minimizedAffinity>
-8.95335

> <CNNscore>
0.6301749945

> <CNNaffinity>
5.6354980469

> <CNN_VS>
3.5513498783

> <CNNaffinity_variance>
0.5366494060

$$$$



 59 63  0  0  0  0  0  0  0  0999 V2000
  -27.5909  -34.0369   12.9148 P   0  0  0  0  0  0  0  0  0  0  0  0
  -28.7384  -33.0912   13.1208 O   0  0  0  0  0  0  0  0  0  0  0  0
  -27.7941  -35.4458   12.3920 O   0  0  0  0  0  0  0  0  0  0  0  0
  -26.3517  -33.3420   12.1689 O   0  0  0  0  0  0  0  0  0  0  0  0
  -25.0893  -34.0678   11.5168 P   0  0  0  0  0  0  0  0  0  0  0  0
  -25.4972  -34.7605   10.2251 O   0  0  0  0  0  0  0  0  0  0  0  0
  -24.2561  -34.7451   12.5717 O   0  0  0  0  0  0  0  0  0  0  0  0
  -24.2766  -32.7189   11.0605 O   0  0  0  0  0  0  0  0  0  0  0  0
  -24.9926  -29.1904   10.7284 C   0  0  0  0  0  0  0  0  0  0  0  0
  -24.3149  -30.3493   11.4473 C   0  0  0  0  0  0  0  0  0  0  0  0
  -25.0316  -31.5438   10.8645 C   0  0  0  0  0  0  0  0  0  0  0  0
  -25.1832  -31.1141    9.4103 C   0  0  0  0  0  0  0  0  0  0  0  0
  -25.4510  -29.6842    9.4581 O   0  0  0  0  0  0  0  0  0  0  0  0
  -29.4888  -29.6722   12.8326 C   0  0  0  0  0  0  0  0  0  0  0  0
  -28.2677  -28.8854   12.5003 C   0  0  0  0  0  0  0  0  0  0  0  0
  -27.2469  -29.3574   11.7752 C   0  0  0  0  0  0  0  0  0  0  0  0
  -26.1127  -28.6122   11.4863 N   0  0  0  0  0  0  0  0  0  0  0  0
  -25.9535  -27.3246   11.9807 C   0  0  0  0  0  0  0  0  0  0  0  0
  -24.9605  -26.6203   11.7974 O   0  0  0  0  0  0  0  0  0  0  0  0
  -27.0086  -26.8392   12.7110 N   0  0  0  0  0  0  0  0  0  0  0  0
  -28.1746  -27.4958   12.9961 C   0  0  0  0  0  0  0  0  0  0  0  0
  -29.0866  -26.9549   13.6126 O   0  0  0  0  0  0  0  0  0  0  0  0
  -26.9175  -25.9254   13.0660 H   0  0  0  0  0  0  0  0  0  0  0  0
  -26.2966  -31.8133    8.6371 C   0  0  0  0  0  0  0  0  0  0  0  0
  -26.4187  -31.2118    7.3498 O   0  0  0  0  0  0  0  0  0  0  0  0
  -27.5485  -31.7920    6.3741 P   0  0  0  0  0  0  0  0  0  0  0  0
  -28.8920  -32.0619    6.9651 O   0  0  0  0  0  0  0  0  0  0  0  0
  -27.6682  -30.5906    5.3148 O   0  0  0  0  0  0  0  0  0  0  0  0
  -26.8621  -32.9162    5.4849 O   0  0  0  0  0  0  0  0  0  0  0  0
  -28.0815  -29.8235    5.7412 H   0  0  0  0  0  0  0  0  0  0  0  0
  -26.7304  -33.7152    6.0189 H   0  0  0  0  0  0  0  0  0  0  0  0
  -26.8810  -34.2173   14.3734 O   0  0  0  0  0  0  0  0  0  0  0  0
  -26.7165  -33.0346   15.1322 C   0  0  0  0  0  0  0  0  0  0  0  0
  -27.3532  -33.1272   16.5329 C   0  0  0  0  0  0  0  0  0  0  0  0
  -26.4452  -33.8968   17.3741 O   0  0  0  0  0  0  0  0  0  0  0  0
  -25.7276  -32.9694   18.2271 C   0  0  0  0  0  0  0  0  0  0  0  0
  -26.1136  -31.5556   17.7587 C   0  0  0  0  0  0  0  0  0  0  0  0
  -25.9704  -30.5735   18.7811 O   0  0  0  0  0  0  0  0  0  0  0  0
  -27.5275  -31.7819   17.2413 C   0  0  0  0  0  0  0  0  0  0  0  0
  -26.5070  -30.8256   19.5489 H   0  0  0  0  0  0  0  0  0  0  0  0
  -24.3068  -33.2962   18.1730 N   0  0  0  0  0  0  0  0  0  0  0  0
  -23.5354  -33.8114   19.1853 C   0  0  0  0  0  0  0  0  0  0  0  0
  -22.2716  -33.9617   18.8300 N   0  0  0  0  0  0  0  0  0  0  0  0
  -22.2359  -33.5524   17.5147 C   0  0  0  0  0  0  0  0  0  0  0  0
  -21.1833  -33.4577   16.5856 C   0  0  0  0  0  0  0  0  0  0  0  0
  -19.8632  -33.7604   16.9103 N   0  0  0  0  0  0  0  0  0  0  0  0
  -21.4660  -33.0854   15.3176 N   0  0  0  0  0  0  0  0  0  0  0  0
  -22.7512  -32.7844   15.0187 C   0  0  0  0  0  0  0  0  0  0  0  0
  -23.8281  -32.8290   15.8207 N   0  0  0  0  0  0  0  0  0  0  0  0
  -23.4968  -33.2001   17.0683 C   0  0  0  0  0  0  0  0  0  0  0  0
  -19.6322  -34.0341   17.8273 H   0  0  0  0  0  0  0  0  0  0  0  0
  -19.1610  -33.7006   16.2228 H   0  0  0  0  0  0  0  0  0  0  0  0
  -28.4387  -31.9377   18.3255 O   0  0  0  0  0  0  0  0  0  0  0  0
  -30.0013  -32.0853   17.9995 P   0  0  0  0  0  0  0  0  0  0  0  0
  -30.5375  -31.4146   16.7808 O   0  0  0  0  0  0  0  0  0  0  0  0
  -30.0739  -33.6629   17.6813 O   0  0  0  0  0  0  0  0  0  0  0  0
  -30.8435  -32.0785   19.3445 O   0  0  0  0  0  0  0  0  0  0  0  0
  -29.5916  -33.8497   16.8607 H   0  0  0  0  0  0  0  0  0  0  0  0
  -30.9009  -31.1723   19.6855 H   0  0  0  0  0  0  0  0  0  0  0  0
 14 15  1  0
 15 16  2  0
 16 17  1  0
  9 17  1  0
  9 10  1  0
 10 11  1  0
 11  8  1  0
  8  5  1  0
  5  6  2  0
  5  7  1  0
  5  4  1  0
  4  1  1  0
  1  2  2  0
  1  3  1  0
  1 32  1  0
 32 33  1  0
 34 33  1  0
 34 35  1  0
 35 36  1  0
 36 41  1  0
 41 42  1  0
 42 43  2  0
 43 44  1  0
 44 45  2  0
 45 46  1  0
 45 47  1  0
 47 48  2  0
 48 49  1  0
 49 50  2  0
 36 37  1  0
 37 38  1  0
 37 39  1  0
 39 53  1  0
 53 54  1  0
 54 55  2  0
 54 56  1  0
 54 57  1  0
 11 12  1  0
 12 24  1  0
 24 25  1  0
 25 26  1  0
 26 27  2  0
 26 28  1  0
 26 29  1  0
 12 13  1  0
 17 18  1  0
 18 19  2  0
 18 20  1  0
 20 21  1  0
 21 22  2  0
 21 15  1  0
 13  9  1  0
 39 34  1  0
 50 41  1  0
 50 44  1  0
 46 51  1  0
 46 52  1  0
 38 40  1  0
 56 58  1  0
 57 59  1  0
 28 30  1  0
 29 31  1  0
 20 23  1  0
M  CHG 1   3  -1
M  CHG 1   7  -1
M  END
> <minimizedAffinity>
-8.46316

> <CNNscore>
0.4923707843

> <CNNaffinity>
5.9516816139

> <CNN_VS>
2.9304342270

> <CNNaffinity_variance>
0.1614261121

$$$$



 59 63  0  0  0  0  0  0  0  0999 V2000
  -31.2366  -28.6321   17.5387 P   0  0  0  0  0  0  0  0  0  0  0  0
  -30.7484  -29.3241   16.2991 O   0  0  0  0  0  0  0  0  0  0  0  0
  -32.5953  -28.9291   18.1430 O   0  0  0  0  0  0  0  0  0  0  0  0
  -30.1187  -28.5756   18.6884 O   0  0  0  0  0  0  0  0  0  0  0  0
  -29.0829  -29.7234   19.0828 P   0  0  0  0  0  0  0  0  0  0  0  0
  -29.8313  -30.9502   19.5825 O   0  0  0  0  0  0  0  0  0  0  0  0
  -27.8948  -29.1481   19.8062 O   0  0  0  0  0  0  0  0  0  0  0  0
  -28.5837  -30.0944   17.5658 O   0  0  0  0  0  0  0  0  0  0  0  0
  -26.4265  -32.8939   18.3291 C   0  0  0  0  0  0  0  0  0  0  0  0
  -26.7016  -31.3966   18.2927 C   0  0  0  0  0  0  0  0  0  0  0  0
  -27.9085  -31.3200   17.3884 C   0  0  0  0  0  0  0  0  0  0  0  0
  -28.6874  -32.5516   17.8339 C   0  0  0  0  0  0  0  0  0  0  0  0
  -27.6795  -33.5646   18.1101 O   0  0  0  0  0  0  0  0  0  0  0  0
  -25.3544  -34.7681   13.8332 C   0  0  0  0  0  0  0  0  0  0  0  0
  -24.9566  -34.2139   15.1580 C   0  0  0  0  0  0  0  0  0  0  0  0
  -25.8248  -33.8515   16.1095 C   0  0  0  0  0  0  0  0  0  0  0  0
  -25.4345  -33.3264   17.3330 N   0  0  0  0  0  0  0  0  0  0  0  0
  -24.0955  -33.1039   17.6254 C   0  0  0  0  0  0  0  0  0  0  0  0
  -23.6789  -32.6075   18.6721 O   0  0  0  0  0  0  0  0  0  0  0  0
  -23.2080  -33.4906   16.6533 N   0  0  0  0  0  0  0  0  0  0  0  0
  -23.5152  -34.0566   15.4462 C   0  0  0  0  0  0  0  0  0  0  0  0
  -22.6443  -34.4210   14.6631 O   0  0  0  0  0  0  0  0  0  0  0  0
  -22.2529  -33.3462   16.8437 H   0  0  0  0  0  0  0  0  0  0  0  0
  -29.6863  -33.0939   16.8166 C   0  0  0  0  0  0  0  0  0  0  0  0
  -30.9172  -32.3860   16.9492 O   0  0  0  0  0  0  0  0  0  0  0  0
  -32.1202  -33.1402   17.6898 P   0  0  0  0  0  0  0  0  0  0  0  0
  -32.1595  -34.6289   17.5922 O   0  0  0  0  0  0  0  0  0  0  0  0
  -31.8393  -32.7173   19.2137 O   0  0  0  0  0  0  0  0  0  0  0  0
  -33.4443  -32.3166   17.3831 O   0  0  0  0  0  0  0  0  0  0  0  0
  -31.0377  -33.1624   19.5303 H   0  0  0  0  0  0  0  0  0  0  0  0
  -33.7273  -32.4873   16.4712 H   0  0  0  0  0  0  0  0  0  0  0  0
  -31.2591  -27.0373   17.1920 O   0  0  0  0  0  0  0  0  0  0  0  0
  -30.8965  -26.1691   18.2486 C   0  0  0  0  0  0  0  0  0  0  0  0
  -31.0028  -24.6800   17.8646 C   0  0  0  0  0  0  0  0  0  0  0  0
  -29.8724  -24.3720   16.9975 O   0  0  0  0  0  0  0  0  0  0  0  0
  -30.3548  -24.3211   15.6310 C   0  0  0  0  0  0  0  0  0  0  0  0
  -31.8229  -24.7800   15.6677 C   0  0  0  0  0  0  0  0  0  0  0  0
  -32.5894  -24.2764   14.5771 O   0  0  0  0  0  0  0  0  0  0  0  0
  -32.2506  -24.3208   17.0548 C   0  0  0  0  0  0  0  0  0  0  0  0
  -32.5458  -23.3074   14.5714 H   0  0  0  0  0  0  0  0  0  0  0  0
  -29.4578  -25.1109   14.7943 N   0  0  0  0  0  0  0  0  0  0  0  0
  -29.6542  -26.3951   14.3502 C   0  0  0  0  0  0  0  0  0  0  0  0
  -28.6353  -26.8444   13.6389 N   0  0  0  0  0  0  0  0  0  0  0  0
  -27.7547  -25.7853   13.5977 C   0  0  0  0  0  0  0  0  0  0  0  0
  -26.4835  -25.6392   13.0120 C   0  0  0  0  0  0  0  0  0  0  0  0
  -25.8377  -26.6780   12.3460 N   0  0  0  0  0  0  0  0  0  0  0  0
  -25.8740  -24.4345   13.0718 N   0  0  0  0  0  0  0  0  0  0  0  0
  -26.5084  -23.4371   13.7308 C   0  0  0  0  0  0  0  0  0  0  0  0
  -27.7095  -23.4645   14.3322 N   0  0  0  0  0  0  0  0  0  0  0  0
  -28.2730  -24.6808   14.2493 C   0  0  0  0  0  0  0  0  0  0  0  0
  -26.2614  -27.5648   12.2889 H   0  0  0  0  0  0  0  0  0  0  0  0
  -24.9574  -26.5255   11.9324 H   0  0  0  0  0  0  0  0  0  0  0  0
  -32.4352  -22.9082   17.0801 O   0  0  0  0  0  0  0  0  0  0  0  0
  -33.3155  -22.2702   18.2581 P   0  0  0  0  0  0  0  0  0  0  0  0
  -34.0619  -23.1903   19.1632 O   0  0  0  0  0  0  0  0  0  0  0  0
  -32.1481  -21.6353   19.1688 O   0  0  0  0  0  0  0  0  0  0  0  0
  -33.9901  -20.9204   17.7671 O   0  0  0  0  0  0  0  0  0  0  0  0
  -31.6197  -22.3482   19.5605 H   0  0  0  0  0  0  0  0  0  0  0  0
  -34.7395  -21.1259   17.1866 H   0  0  0  0  0  0  0  0  0  0  0  0
 14 15  1  0
 15 16  2  0
 16 17  1  0
  9 17  1  0
  9 10  1  0
 10 11  1  0
 11  8  1  0
  8  5  1  0
  5  6  2  0
  5  7  1  0
  5  4  1  0
  4  1  1  0
  1  2  2  0
  1  3  1  0
  1 32  1  0
 32 33  1  0
 34 33  1  0
 34 35  1  0
 35 36  1  0
 36 41  1  0
 41 42  1  0
 42 43  2  0
 43 44  1  0
 44 45  2  0
 45 46  1  0
 45 47  1  0
 47 48  2  0
 48 49  1  0
 49 50  2  0
 36 37  1  0
 37 38  1  0
 37 39  1  0
 39 53  1  0
 53 54  1  0
 54 55  2  0
 54 56  1  0
 54 57  1  0
 11 12  1  0
 12 24  1  0
 24 25  1  0
 25 26  1  0
 26 27  2  0
 26 28  1  0
 26 29  1  0
 12 13  1  0
 17 18  1  0
 18 19  2  0
 18 20  1  0
 20 21  1  0
 21 22  2  0
 21 15  1  0
 13  9  1  0
 39 34  1  0
 50 41  1  0
 50 44  1  0
 46 51  1  0
 46 52  1  0
 38 40  1  0
 56 58  1  0
 57 59  1  0
 28 30  1  0
 29 31  1  0
 20 23  1  0
M  CHG 1   3  -1
M  CHG 1   7  -1
M  END
> <minimizedAffinity>
-8.31734

> <CNNscore>
0.4848968387

> <CNNaffinity>
5.4869341850

> <CNN_VS>
2.6605970860

> <CNNaffinity_variance>
0.4266082346

$$$$



 59 63  0  0  0  0  0  0  0  0999 V2000
  -29.4068  -31.2161   18.6362 P   0  0  0  0  0  0  0  0  0  0  0  0
  -29.9037  -30.2543   19.6763 O   0  0  0  0  0  0  0  0  0  0  0  0
  -29.5336  -30.9316   17.1521 O   0  0  0  0  0  0  0  0  0  0  0  0
  -27.9403  -31.7750   18.9704 O   0  0  0  0  0  0  0  0  0  0  0  0
  -27.1157  -32.8682   18.1515 P   0  0  0  0  0  0  0  0  0  0  0  0
  -27.8769  -33.2592   16.8935 O   0  0  0  0  0  0  0  0  0  0  0  0
  -26.5054  -33.8849   19.0786 O   0  0  0  0  0  0  0  0  0  0  0  0
  -25.8996  -31.8900   17.6493 O   0  0  0  0  0  0  0  0  0  0  0  0
  -23.6023  -34.4620   16.5626 C   0  0  0  0  0  0  0  0  0  0  0  0
  -24.3438  -33.7191   17.6659 C   0  0  0  0  0  0  0  0  0  0  0  0
  -24.8372  -32.4897   16.9413 C   0  0  0  0  0  0  0  0  0  0  0  0
  -25.2200  -33.0799   15.5895 C   0  0  0  0  0  0  0  0  0  0  0  0
  -24.2130  -34.0939   15.3138 O   0  0  0  0  0  0  0  0  0  0  0  0
  -19.5545  -32.9426   14.0762 C   0  0  0  0  0  0  0  0  0  0  0  0
  -20.2404  -33.4183   15.3106 C   0  0  0  0  0  0  0  0  0  0  0  0
  -21.5382  -33.7391   15.3699 C   0  0  0  0  0  0  0  0  0  0  0  0
  -22.1612  -34.1693   16.5326 N   0  0  0  0  0  0  0  0  0  0  0  0
  -21.4670  -34.2506   17.7323 C   0  0  0  0  0  0  0  0  0  0  0  0
  -21.9619  -34.5867   18.8082 O   0  0  0  0  0  0  0  0  0  0  0  0
  -20.1335  -33.9352   17.6639 N   0  0  0  0  0  0  0  0  0  0  0  0
  -19.4422  -33.5498   16.5479 C   0  0  0  0  0  0  0  0  0  0  0  0
  -18.2338  -33.3418   16.5762 O   0  0  0  0  0  0  0  0  0  0  0  0
  -19.6221  -33.9919   18.5032 H   0  0  0  0  0  0  0  0  0  0  0  0
  -25.2678  -32.0850   14.4343 C   0  0  0  0  0  0  0  0  0  0  0  0
  -23.9435  -31.6408   14.1467 O   0  0  0  0  0  0  0  0  0  0  0  0
  -23.6677  -31.0600   12.6800 P   0  0  0  0  0  0  0  0  0  0  0  0
  -24.5888  -31.4909   11.5877 O   0  0  0  0  0  0  0  0  0  0  0  0
  -23.8602  -29.4875   12.9447 O   0  0  0  0  0  0  0  0  0  0  0  0
  -22.0993  -31.1391   12.4360 O   0  0  0  0  0  0  0  0  0  0  0  0
  -24.7972  -29.3000   13.1115 H   0  0  0  0  0  0  0  0  0  0  0  0
  -21.8454  -32.0587   12.2603 H   0  0  0  0  0  0  0  0  0  0  0  0
  -30.2206  -32.6101   18.8781 O   0  0  0  0  0  0  0  0  0  0  0  0
  -31.5486  -32.6440   18.3912 C   0  0  0  0  0  0  0  0  0  0  0  0
  -31.6566  -33.2703   16.9868 C   0  0  0  0  0  0  0  0  0  0  0  0
  -31.6719  -34.7179   17.1554 O   0  0  0  0  0  0  0  0  0  0  0  0
  -33.0395  -35.1743   16.9999 C   0  0  0  0  0  0  0  0  0  0  0  0
  -33.9122  -33.9120   16.8895 C   0  0  0  0  0  0  0  0  0  0  0  0
  -35.1355  -34.1417   16.1959 O   0  0  0  0  0  0  0  0  0  0  0  0
  -32.9473  -32.9309   16.2379 C   0  0  0  0  0  0  0  0  0  0  0  0
  -34.9449  -34.4903   15.3110 H   0  0  0  0  0  0  0  0  0  0  0  0
  -33.3542  -36.0760   18.1027 N   0  0  0  0  0  0  0  0  0  0  0  0
  -33.4325  -37.4460   18.0571 C   0  0  0  0  0  0  0  0  0  0  0  0
  -33.7757  -37.9707   19.2202 N   0  0  0  0  0  0  0  0  0  0  0  0
  -33.8930  -36.8864   20.0624 C   0  0  0  0  0  0  0  0  0  0  0  0
  -34.2480  -36.7819   21.4201 C   0  0  0  0  0  0  0  0  0  0  0  0
  -34.6151  -37.8836   22.1891 N   0  0  0  0  0  0  0  0  0  0  0  0
  -34.2048  -35.5680   22.0125 N   0  0  0  0  0  0  0  0  0  0  0  0
  -33.8564  -34.5049   21.2509 C   0  0  0  0  0  0  0  0  0  0  0  0
  -33.5099  -34.4845   19.9530 N   0  0  0  0  0  0  0  0  0  0  0  0
  -33.5714  -35.7107   19.4085 C   0  0  0  0  0  0  0  0  0  0  0  0
  -34.6539  -38.7783   21.7802 H   0  0  0  0  0  0  0  0  0  0  0  0
  -34.8356  -37.7676   23.1415 H   0  0  0  0  0  0  0  0  0  0  0  0
  -32.7811  -33.2350   14.8559 O   0  0  0  0  0  0  0  0  0  0  0  0
  -32.1803  -32.1066   13.8887 P   0  0  0  0  0  0  0  0  0  0  0  0
  -32.5464  -32.1430   12.4440 O   0  0  0  0  0  0  0  0  0  0  0  0
  -32.9225  -30.8050   14.4809 O   0  0  0  0  0  0  0  0  0  0  0  0
  -30.6966  -31.7479   14.3225 O   0  0  0  0  0  0  0  0  0  0  0  0
  -33.8731  -30.8631   14.2967 H   0  0  0  0  0  0  0  0  0  0  0  0
  -30.0960  -32.4527   14.0337 H   0  0  0  0  0  0  0  0  0  0  0  0
 14 15  1  0
 15 16  2  0
 16 17  1  0
  9 17  1  0
  9 10  1  0
 10 11  1  0
 11  8  1  0
  8  5  1  0
  5  6  2  0
  5  7  1  0
  5  4  1  0
  4  1  1  0
  1  2  2  0
  1  3  1  0
  1 32  1  0
 32 33  1  0
 34 33  1  0
 34 35  1  0
 35 36  1  0
 36 41  1  0
 41 42  1  0
 42 43  2  0
 43 44  1  0
 44 45  2  0
 45 46  1  0
 45 47  1  0
 47 48  2  0
 48 49  1  0
 49 50  2  0
 36 37  1  0
 37 38  1  0
 37 39  1  0
 39 53  1  0
 53 54  1  0
 54 55  2  0
 54 56  1  0
 54 57  1  0
 11 12  1  0
 12 24  1  0
 24 25  1  0
 25 26  1  0
 26 27  2  0
 26 28  1  0
 26 29  1  0
 12 13  1  0
 17 18  1  0
 18 19  2  0
 18 20  1  0
 20 21  1  0
 21 22  2  0
 21 15  1  0
 13  9  1  0
 39 34  1  0
 50 41  1  0
 50 44  1  0
 46 51  1  0
 46 52  1  0
 38 40  1  0
 56 58  1  0
 57 59  1  0
 28 30  1  0
 29 31  1  0
 20 23  1  0
M  CHG 1   3  -1
M  CHG 1   7  -1
M  END
> <minimizedAffinity>
-8.41620

> <CNNscore>
0.4348685145

> <CNNaffinity>
5.1311430931

> <CNN_VS>
2.2313725948

> <CNNaffinity_variance>
1.2002915144

$$$$



 59 63  0  0  0  0  0  0  0  0999 V2000
  -26.3561  -31.6164   13.0557 P   0  0  0  0  0  0  0  0  0  0  0  0
  -26.5854  -32.8951   12.3032 O   0  0  0  0  0  0  0  0  0  0  0  0
  -24.9712  -31.0241   13.2310 O   0  0  0  0  0  0  0  0  0  0  0  0
  -27.4019  -30.4701   12.6473 O   0  0  0  0  0  0  0  0  0  0  0  0
  -27.3463  -29.5290   11.3601 P   0  0  0  0  0  0  0  0  0  0  0  0
  -27.1407  -30.3702   10.1091 O   0  0  0  0  0  0  0  0  0  0  0  0
  -26.5478  -28.2841   11.6401 O   0  0  0  0  0  0  0  0  0  0  0  0
  -28.9257  -29.0892   11.3456 O   0  0  0  0  0  0  0  0  0  0  0  0
  -30.6574  -26.1616   12.5718 C   0  0  0  0  0  0  0  0  0  0  0  0
  -29.8553  -26.8802   11.4951 C   0  0  0  0  0  0  0  0  0  0  0  0
  -29.3242  -28.0784   12.2450 C   0  0  0  0  0  0  0  0  0  0  0  0
  -30.5221  -28.4326   13.1179 C   0  0  0  0  0  0  0  0  0  0  0  0
  -31.1030  -27.1568   13.5092 O   0  0  0  0  0  0  0  0  0  0  0  0
  -26.3018  -23.9579   13.5954 C   0  0  0  0  0  0  0  0  0  0  0  0
  -27.7824  -24.0701   13.7204 C   0  0  0  0  0  0  0  0  0  0  0  0
  -28.5117  -25.0334   13.1453 C   0  0  0  0  0  0  0  0  0  0  0  0
  -29.8917  -25.1139   13.2643 N   0  0  0  0  0  0  0  0  0  0  0  0
  -30.6099  -24.1545   13.9654 C   0  0  0  0  0  0  0  0  0  0  0  0
  -31.8354  -24.1406   14.0807 O   0  0  0  0  0  0  0  0  0  0  0  0
  -29.8571  -23.1771   14.5658 N   0  0  0  0  0  0  0  0  0  0  0  0
  -28.4944  -23.0601   14.5318 C   0  0  0  0  0  0  0  0  0  0  0  0
  -27.9060  -22.1788   15.1494 O   0  0  0  0  0  0  0  0  0  0  0  0
  -30.3474  -22.4901   15.0726 H   0  0  0  0  0  0  0  0  0  0  0  0
  -30.2001  -29.2478   14.3662 C   0  0  0  0  0  0  0  0  0  0  0  0
  -29.5428  -28.4089   15.3139 O   0  0  0  0  0  0  0  0  0  0  0  0
  -30.3115  -28.1123   16.6872 P   0  0  0  0  0  0  0  0  0  0  0  0
  -29.5247  -28.2218   17.9506 O   0  0  0  0  0  0  0  0  0  0  0  0
  -30.7384  -26.5805   16.4610 O   0  0  0  0  0  0  0  0  0  0  0  0
  -31.7219  -28.8392   16.5969 O   0  0  0  0  0  0  0  0  0  0  0  0
  -29.9497  -26.0168   16.4936 H   0  0  0  0  0  0  0  0  0  0  0  0
  -31.6021  -29.7939   16.7199 H   0  0  0  0  0  0  0  0  0  0  0  0
  -26.9093  -31.8727   14.5697 O   0  0  0  0  0  0  0  0  0  0  0  0
  -26.5368  -33.1010   15.1651 C   0  0  0  0  0  0  0  0  0  0  0  0
  -27.1271  -33.2864   16.5770 C   0  0  0  0  0  0  0  0  0  0  0  0
  -26.1683  -34.0646   17.3512 O   0  0  0  0  0  0  0  0  0  0  0  0
  -25.4570  -33.1563   18.2297 C   0  0  0  0  0  0  0  0  0  0  0  0
  -25.9050  -31.7354   17.8456 C   0  0  0  0  0  0  0  0  0  0  0  0
  -25.7642  -30.8015   18.9126 O   0  0  0  0  0  0  0  0  0  0  0  0
  -27.3254  -31.9855   17.3581 C   0  0  0  0  0  0  0  0  0  0  0  0
  -26.2683  -31.1106   19.6815 H   0  0  0  0  0  0  0  0  0  0  0  0
  -24.0282  -33.4294   18.1182 N   0  0  0  0  0  0  0  0  0  0  0  0
  -23.1937  -33.8951   19.1040 C   0  0  0  0  0  0  0  0  0  0  0  0
  -21.9417  -34.0036   18.6956 N   0  0  0  0  0  0  0  0  0  0  0  0
  -21.9797  -33.6184   17.3730 C   0  0  0  0  0  0  0  0  0  0  0  0
  -20.9732  -33.5012   16.3966 C   0  0  0  0  0  0  0  0  0  0  0  0
  -19.6293  -33.7467   16.6675 N   0  0  0  0  0  0  0  0  0  0  0  0
  -21.3255  -33.1641   15.1362 N   0  0  0  0  0  0  0  0  0  0  0  0
  -22.6333  -32.9185   14.8894 C   0  0  0  0  0  0  0  0  0  0  0  0
  -23.6715  -32.9891   15.7392 N   0  0  0  0  0  0  0  0  0  0  0  0
  -23.2717  -33.3233   16.9771 C   0  0  0  0  0  0  0  0  0  0  0  0
  -19.3479  -33.9938   17.5780 H   0  0  0  0  0  0  0  0  0  0  0  0
  -18.9608  -33.6731   15.9486 H   0  0  0  0  0  0  0  0  0  0  0  0
  -28.1973  -32.2278   18.4586 O   0  0  0  0  0  0  0  0  0  0  0  0
  -29.7738  -32.0281   18.2471 P   0  0  0  0  0  0  0  0  0  0  0  0
  -30.5073  -31.1329   19.1869 O   0  0  0  0  0  0  0  0  0  0  0  0
  -29.7715  -31.2501   16.8363 O   0  0  0  0  0  0  0  0  0  0  0  0
  -30.4372  -33.3865   17.7645 O   0  0  0  0  0  0  0  0  0  0  0  0
  -29.3846  -30.3684   16.9540 H   0  0  0  0  0  0  0  0  0  0  0  0
  -30.5166  -33.9929   18.5174 H   0  0  0  0  0  0  0  0  0  0  0  0
 14 15  1  0
 15 16  2  0
 16 17  1  0
  9 17  1  0
  9 10  1  0
 10 11  1  0
 11  8  1  0
  8  5  1  0
  5  6  2  0
  5  7  1  0
  5  4  1  0
  4  1  1  0
  1  2  2  0
  1  3  1  0
  1 32  1  0
 32 33  1  0
 34 33  1  0
 34 35  1  0
 35 36  1  0
 36 41  1  0
 41 42  1  0
 42 43  2  0
 43 44  1  0
 44 45  2  0
 45 46  1  0
 45 47  1  0
 47 48  2  0
 48 49  1  0
 49 50  2  0
 36 37  1  0
 37 38  1  0
 37 39  1  0
 39 53  1  0
 53 54  1  0
 54 55  2  0
 54 56  1  0
 54 57  1  0
 11 12  1  0
 12 24  1  0
 24 25  1  0
 25 26  1  0
 26 27  2  0
 26 28  1  0
 26 29  1  0
 12 13  1  0
 17 18  1  0
 18 19  2  0
 18 20  1  0
 20 21  1  0
 21 22  2  0
 21 15  1  0
 13  9  1  0
 39 34  1  0
 50 41  1  0
 50 44  1  0
 46 51  1  0
 46 52  1  0
 38 40  1  0
 56 58  1  0
 57 59  1  0
 28 30  1  0
 29 31  1  0
 20 23  1  0
M  CHG 1   3  -1
M  CHG 1   7  -1
M  END
> <minimizedAffinity>
-7.66688

> <CNNscore>
0.3727343082

> <CNNaffinity>
5.9110808372

> <CNN_VS>
2.2032625675

> <CNNaffinity_variance>
0.1912461072

$$$$
