


 24 26  0  0  0  0  0  0  0  0999 V2000
   -2.0218   53.7260   13.0362 O   0  0  0  0  0  0  0  0  0  0  0  0
   -2.4111   53.1247   12.0440 C   0  0  0  0  0  0  0  0  0  0  0  0
   -3.7197   52.8204   11.7155 N   0  0  0  0  0  0  0  0  0  0  0  0
   -3.8516   52.2578   10.9184 H   0  0  0  0  0  0  0  0  0  0  0  0
   -1.3874   52.6078   11.0943 C   0  0  0  0  0  0  0  0  0  0  0  0
   -1.2334   51.2211   10.9708 C   0  0  0  0  0  0  0  0  0  0  0  0
   -0.2804   50.7077   10.0931 C   0  0  0  0  0  0  0  0  0  0  0  0
   -0.0829   48.8360    9.9153 Br  0  0  0  0  0  0  0  0  0  0  0  0
    0.5287   51.5600    9.3439 C   0  0  0  0  0  0  0  0  0  0  0  0
    0.3835   52.9388    9.4871 C   0  0  0  0  0  0  0  0  0  0  0  0
    1.4905   54.1038    8.4903 Br  0  0  0  0  0  0  0  0  0  0  0  0
   -0.5653   53.4719   10.3601 C   0  0  0  0  0  0  0  0  0  0  0  0
   -4.8870   53.2275   12.3971 C   0  0  0  0  0  0  0  0  0  0  0  0
   -5.1859   52.5673   13.5940 C   0  0  0  0  0  0  0  0  0  0  0  0
   -6.3238   52.9047   14.3268 C   0  0  0  0  0  0  0  0  0  0  0  0
   -7.1790   53.9068   13.8681 C   0  0  0  0  0  0  0  0  0  0  0  0
   -6.9050   54.5808   12.6695 C   0  0  0  0  0  0  0  0  0  0  0  0
   -5.7549   54.2246   11.9408 C   0  0  0  0  0  0  0  0  0  0  0  0
   -7.7856   55.6274   12.1550 C   0  0  0  0  0  0  0  0  0  0  0  0
   -8.8692   56.1243   12.7233 N   0  0  0  0  0  0  0  0  0  0  0  0
   -9.3622   57.0797   11.8684 N   0  0  0  0  0  0  0  0  0  0  0  0
   -8.6116   57.1750   10.7822 N   0  0  0  0  0  0  0  0  0  0  0  0
   -7.6408   56.2703   10.9551 N   0  0  0  0  0  0  0  0  0  0  0  0
   -6.9209   56.0915   10.3078 H   0  0  0  0  0  0  0  0  0  0  0  0
  1  2  2  0
  2  3  1  0
  3 13  1  0
 13 14  2  0
 14 15  1  0
 15 16  2  0
 16 17  1  0
 17 19  1  0
 19 20  2  0
 20 21  1  0
 21 22  2  0
 22 23  1  0
 17 18  2  0
  2  5  1  0
  5  6  2  0
  6  7  1  0
  7  8  1  0
  7  9  2  0
  9 10  1  0
 10 11  1  0
 10 12  2  0
 18 13  1  0
 12  5  1  0
 23 19  1  0
  3  4  1  0
 23 24  1  0
M  END
> <minimizedAffinity>
-7.99745

> <CNNscore>
0.6001251936

> <CNNaffinity>
5.3338227272

> <CNN_VS>
3.2009613514

> <CNNaffinity_variance>
0.2275061756

$$$$



 24 26  0  0  0  0  0  0  0  0999 V2000
   -2.2023   53.5762   13.0765 O   0  0  0  0  0  0  0  0  0  0  0  0
   -2.5777   52.9802   12.0758 C   0  0  0  0  0  0  0  0  0  0  0  0
   -3.8836   52.7123   11.7076 N   0  0  0  0  0  0  0  0  0  0  0  0
   -4.0069   52.1487   10.9098 H   0  0  0  0  0  0  0  0  0  0  0  0
   -1.5401   52.4273   11.1620 C   0  0  0  0  0  0  0  0  0  0  0  0
   -0.7642   53.3233   10.4156 C   0  0  0  0  0  0  0  0  0  0  0  0
    0.2117   52.8352    9.5487 C   0  0  0  0  0  0  0  0  0  0  0  0
    1.2692   54.0449    8.5526 Br  0  0  0  0  0  0  0  0  0  0  0  0
    0.4172   51.4639    9.4087 C   0  0  0  0  0  0  0  0  0  0  0  0
   -0.3725   50.5779   10.1396 C   0  0  0  0  0  0  0  0  0  0  0  0
   -0.1156   48.7149    9.9415 Br  0  0  0  0  0  0  0  0  0  0  0  0
   -1.3541   51.0471   11.0130 C   0  0  0  0  0  0  0  0  0  0  0  0
   -5.0594   53.1580   12.3495 C   0  0  0  0  0  0  0  0  0  0  0  0
   -5.4083   52.5233   13.5466 C   0  0  0  0  0  0  0  0  0  0  0  0
   -6.5578   52.8992   14.2416 C   0  0  0  0  0  0  0  0  0  0  0  0
   -7.3746   53.9148   13.7442 C   0  0  0  0  0  0  0  0  0  0  0  0
   -7.0502   54.5639   12.5445 C   0  0  0  0  0  0  0  0  0  0  0  0
   -5.8891   54.1689   11.8542 C   0  0  0  0  0  0  0  0  0  0  0  0
   -7.8896   55.6237   11.9899 C   0  0  0  0  0  0  0  0  0  0  0  0
   -8.9572   56.1783   12.5347 N   0  0  0  0  0  0  0  0  0  0  0  0
   -9.4111   57.1216   11.6454 N   0  0  0  0  0  0  0  0  0  0  0  0
   -8.6521   57.1532   10.5612 N   0  0  0  0  0  0  0  0  0  0  0  0
   -7.7157   56.2203   10.7701 N   0  0  0  0  0  0  0  0  0  0  0  0
   -6.9996   55.9940   10.1336 H   0  0  0  0  0  0  0  0  0  0  0  0
  1  2  2  0
  2  3  1  0
  3 13  1  0
 13 14  2  0
 14 15  1  0
 15 16  2  0
 16 17  1  0
 17 19  1  0
 19 20  2  0
 20 21  1  0
 21 22  2  0
 22 23  1  0
 17 18  2  0
  2  5  1  0
  5  6  2  0
  6  7  1  0
  7  8  1  0
  7  9  2  0
  9 10  1  0
 10 11  1  0
 10 12  2  0
 18 13  1  0
 12  5  1  0
 23 19  1  0
  3  4  1  0
 23 24  1  0
M  END
> <minimizedAffinity>
-7.74411

> <CNNscore>
0.5664957762

> <CNNaffinity>
5.3209280968

> <CNN_VS>
3.0142831802

> <CNNaffinity_variance>
0.2845765054

$$$$



 24 26  0  0  0  0  0  0  0  0999 V2000
   -1.6383   50.1592   12.3296 O   0  0  0  0  0  0  0  0  0  0  0  0
   -2.6585   49.5191   12.1130 C   0  0  0  0  0  0  0  0  0  0  0  0
   -2.7479   48.1716   11.8145 N   0  0  0  0  0  0  0  0  0  0  0  0
   -3.6436   47.8318   11.5875 H   0  0  0  0  0  0  0  0  0  0  0  0
   -3.9553   50.2509   12.1137 C   0  0  0  0  0  0  0  0  0  0  0  0
   -4.1125   51.3267   12.9967 C   0  0  0  0  0  0  0  0  0  0  0  0
   -5.3166   52.0279   13.0231 C   0  0  0  0  0  0  0  0  0  0  0  0
   -5.5235   53.4894   14.2044 Br  0  0  0  0  0  0  0  0  0  0  0  0
   -6.3702   51.6637   12.1867 C   0  0  0  0  0  0  0  0  0  0  0  0
   -6.2133   50.5795   11.3250 C   0  0  0  0  0  0  0  0  0  0  0  0
   -7.6441   50.0644   10.2008 Br  0  0  0  0  0  0  0  0  0  0  0  0
   -5.0155   49.8654   11.2836 C   0  0  0  0  0  0  0  0  0  0  0  0
   -1.6964   47.2297   11.7994 C   0  0  0  0  0  0  0  0  0  0  0  0
   -1.6410   46.3234   12.8640 C   0  0  0  0  0  0  0  0  0  0  0  0
   -0.6308   45.3637   12.9285 C   0  0  0  0  0  0  0  0  0  0  0  0
    0.3393   45.3015   11.9280 C   0  0  0  0  0  0  0  0  0  0  0  0
    0.3093   46.2008   10.8527 C   0  0  0  0  0  0  0  0  0  0  0  0
   -0.7145   47.1653   10.8058 C   0  0  0  0  0  0  0  0  0  0  0  0
    1.3162   46.1704    9.7940 C   0  0  0  0  0  0  0  0  0  0  0  0
    1.1180   46.1915    8.4885 N   0  0  0  0  0  0  0  0  0  0  0  0
    2.3577   46.1443    7.8988 N   0  0  0  0  0  0  0  0  0  0  0  0
    3.3139   46.0847    8.8123 N   0  0  0  0  0  0  0  0  0  0  0  0
    2.6695   46.0919    9.9851 N   0  0  0  0  0  0  0  0  0  0  0  0
    3.1087   46.0470   10.8651 H   0  0  0  0  0  0  0  0  0  0  0  0
  1  2  2  0
  2  3  1  0
  3 13  1  0
 13 14  2  0
 14 15  1  0
 15 16  2  0
 16 17  1  0
 17 19  1  0
 19 20  2  0
 20 21  1  0
 21 22  2  0
 22 23  1  0
 17 18  2  0
  2  5  1  0
  5  6  2  0
  6  7  1  0
  7  8  1  0
  7  9  2  0
  9 10  1  0
 10 11  1  0
 10 12  2  0
 18 13  1  0
 12  5  1  0
 23 19  1  0
  3  4  1  0
 23 24  1  0
M  END
> <minimizedAffinity>
-6.93060

> <CNNscore>
0.4956585467

> <CNNaffinity>
4.7914977074

> <CNN_VS>
2.3749468327

> <CNNaffinity_variance>
0.0917601511

$$$$



 24 26  0  0  0  0  0  0  0  0999 V2000
   -8.8263   55.8852   13.4707 O   0  0  0  0  0  0  0  0  0  0  0  0
   -8.4620   55.8746   12.3025 C   0  0  0  0  0  0  0  0  0  0  0  0
   -7.3581   55.2249   11.7809 N   0  0  0  0  0  0  0  0  0  0  0  0
   -7.1630   55.3877   10.8298 H   0  0  0  0  0  0  0  0  0  0  0  0
   -9.2406   56.6793   11.3209 C   0  0  0  0  0  0  0  0  0  0  0  0
   -9.1092   56.3779    9.9594 C   0  0  0  0  0  0  0  0  0  0  0  0
   -9.8221   57.1165    9.0168 C   0  0  0  0  0  0  0  0  0  0  0  0
   -9.6563   56.7001    7.1803 Br  0  0  0  0  0  0  0  0  0  0  0  0
  -10.6572   58.1592    9.4140 C   0  0  0  0  0  0  0  0  0  0  0  0
  -10.7674   58.4662   10.7692 C   0  0  0  0  0  0  0  0  0  0  0  0
  -11.8820   59.8924   11.3169 Br  0  0  0  0  0  0  0  0  0  0  0  0
  -10.0623   57.7380   11.7278 C   0  0  0  0  0  0  0  0  0  0  0  0
   -6.4802   54.3540   12.4620 C   0  0  0  0  0  0  0  0  0  0  0  0
   -6.9812   53.7083   13.5977 C   0  0  0  0  0  0  0  0  0  0  0  0
   -6.1779   52.8357   14.3317 C   0  0  0  0  0  0  0  0  0  0  0  0
   -4.8602   52.6008   13.9387 C   0  0  0  0  0  0  0  0  0  0  0  0
   -4.3320   53.2386   12.8072 C   0  0  0  0  0  0  0  0  0  0  0  0
   -5.1553   54.1191   12.0809 C   0  0  0  0  0  0  0  0  0  0  0  0
   -2.9528   53.0236   12.3746 C   0  0  0  0  0  0  0  0  0  0  0  0
   -2.2462   53.7548   11.5319 N   0  0  0  0  0  0  0  0  0  0  0  0
   -1.0101   53.1637   11.4348 N   0  0  0  0  0  0  0  0  0  0  0  0
   -0.9435   52.0796   12.1915 N   0  0  0  0  0  0  0  0  0  0  0  0
   -2.1484   51.9875   12.7664 N   0  0  0  0  0  0  0  0  0  0  0  0
   -2.4193   51.2724   13.3865 H   0  0  0  0  0  0  0  0  0  0  0  0
  1  2  2  0
  2  3  1  0
  3 13  1  0
 13 14  2  0
 14 15  1  0
 15 16  2  0
 16 17  1  0
 17 19  1  0
 19 20  2  0
 20 21  1  0
 21 22  2  0
 22 23  1  0
 17 18  2  0
  2  5  1  0
  5  6  2  0
  6  7  1  0
  7  8  1  0
  7  9  2  0
  9 10  1  0
 10 11  1  0
 10 12  2  0
 18 13  1  0
 12  5  1  0
 23 19  1  0
  3  4  1  0
 23 24  1  0
M  END
> <minimizedAffinity>
-8.55185

> <CNNscore>
0.4596982598

> <CNNaffinity>
5.0496234894

> <CNN_VS>
2.3213031292

> <CNNaffinity_variance>
0.5077256560

$$$$



 24 26  0  0  0  0  0  0  0  0999 V2000
   -8.9956   56.0365   13.5576 O   0  0  0  0  0  0  0  0  0  0  0  0
   -8.7570   55.9124   12.3639 C   0  0  0  0  0  0  0  0  0  0  0  0
   -7.7026   55.2228   11.7932 N   0  0  0  0  0  0  0  0  0  0  0  0
   -7.6124   55.2915   10.8153 H   0  0  0  0  0  0  0  0  0  0  0  0
   -9.6501   56.6088   11.3971 C   0  0  0  0  0  0  0  0  0  0  0  0
  -10.3026   57.7757   11.8147 C   0  0  0  0  0  0  0  0  0  0  0  0
  -11.1482   58.4469   10.9334 C   0  0  0  0  0  0  0  0  0  0  0  0
  -12.0172   60.0301   11.4920 Br  0  0  0  0  0  0  0  0  0  0  0  0
  -11.3595   57.9636    9.6434 C   0  0  0  0  0  0  0  0  0  0  0  0
  -10.7224   56.7908    9.2417 C   0  0  0  0  0  0  0  0  0  0  0  0
  -11.0186   56.1155    7.5003 Br  0  0  0  0  0  0  0  0  0  0  0  0
   -9.8718   56.1049   10.1092 C   0  0  0  0  0  0  0  0  0  0  0  0
   -6.7413   54.4314   12.4585 C   0  0  0  0  0  0  0  0  0  0  0  0
   -7.1787   53.7021   13.5696 C   0  0  0  0  0  0  0  0  0  0  0  0
   -6.2918   52.8993   14.2870 C   0  0  0  0  0  0  0  0  0  0  0  0
   -4.9535   52.8190   13.9017 C   0  0  0  0  0  0  0  0  0  0  0  0
   -4.4883   53.5432   12.7948 C   0  0  0  0  0  0  0  0  0  0  0  0
   -5.3960   54.3514   12.0852 C   0  0  0  0  0  0  0  0  0  0  0  0
   -3.0907   53.4904   12.3712 C   0  0  0  0  0  0  0  0  0  0  0  0
   -2.0128   53.6483   13.1177 N   0  0  0  0  0  0  0  0  0  0  0  0
   -0.9300   53.5163   12.2829 N   0  0  0  0  0  0  0  0  0  0  0  0
   -1.3178   53.2903   11.0376 N   0  0  0  0  0  0  0  0  0  0  0  0
   -2.6549   53.2830   11.0901 N   0  0  0  0  0  0  0  0  0  0  0  0
   -3.2447   53.1470   10.3136 H   0  0  0  0  0  0  0  0  0  0  0  0
  1  2  2  0
  2  3  1  0
  3 13  1  0
 13 14  2  0
 14 15  1  0
 15 16  2  0
 16 17  1  0
 17 19  1  0
 19 20  2  0
 20 21  1  0
 21 22  2  0
 22 23  1  0
 17 18  2  0
  2  5  1  0
  5  6  2  0
  6  7  1  0
  7  8  1  0
  7  9  2  0
  9 10  1  0
 10 11  1  0
 10 12  2  0
 18 13  1  0
 12  5  1  0
 23 19  1  0
  3  4  1  0
 23 24  1  0
M  END
> <minimizedAffinity>
-8.34430

> <CNNscore>
0.4487889111

> <CNNaffinity>
5.0305023193

> <CNN_VS>
2.2576336861

> <CNNaffinity_variance>
0.6935530305

$$$$



 24 26  0  0  0  0  0  0  0  0999 V2000
   -5.3749   46.6188    9.7873 O   0  0  0  0  0  0  0  0  0  0  0  0
   -4.3001   47.0342   10.1992 C   0  0  0  0  0  0  0  0  0  0  0  0
   -4.0400   48.2831   10.7334 N   0  0  0  0  0  0  0  0  0  0  0  0
   -3.0988   48.4831   10.9415 H   0  0  0  0  0  0  0  0  0  0  0  0
   -3.1143   46.1415   10.0798 C   0  0  0  0  0  0  0  0  0  0  0  0
   -2.9353   45.4277    8.8881 C   0  0  0  0  0  0  0  0  0  0  0  0
   -1.8372   44.5810    8.7487 C   0  0  0  0  0  0  0  0  0  0  0  0
   -1.5874   43.6291    7.1346 Br  0  0  0  0  0  0  0  0  0  0  0  0
   -0.9200   44.4291    9.7870 C   0  0  0  0  0  0  0  0  0  0  0  0
   -1.1158   45.1273   10.9774 C   0  0  0  0  0  0  0  0  0  0  0  0
    0.1117   44.9123   12.3998 Br  0  0  0  0  0  0  0  0  0  0  0  0
   -2.2085   45.9800   11.1358 C   0  0  0  0  0  0  0  0  0  0  0  0
   -4.9755   49.3028   11.0133 C   0  0  0  0  0  0  0  0  0  0  0  0
   -6.1768   49.2761   10.2965 C   0  0  0  0  0  0  0  0  0  0  0  0
   -7.1526   50.2500   10.5082 C   0  0  0  0  0  0  0  0  0  0  0  0
   -6.9361   51.2657   11.4397 C   0  0  0  0  0  0  0  0  0  0  0  0
   -5.7391   51.3180   12.1681 C   0  0  0  0  0  0  0  0  0  0  0  0
   -4.7638   50.3298   11.9386 C   0  0  0  0  0  0  0  0  0  0  0  0
   -5.4756   52.3742   13.1430 C   0  0  0  0  0  0  0  0  0  0  0  0
   -6.3170   53.2868   13.5940 N   0  0  0  0  0  0  0  0  0  0  0  0
   -5.6196   54.0606   14.4894 N   0  0  0  0  0  0  0  0  0  0  0  0
   -4.3652   53.6505   14.5922 N   0  0  0  0  0  0  0  0  0  0  0  0
   -4.2732   52.6125   13.7526 N   0  0  0  0  0  0  0  0  0  0  0  0
   -3.4530   52.0913   13.5949 H   0  0  0  0  0  0  0  0  0  0  0  0
  1  2  2  0
  2  3  1  0
  3 13  1  0
 13 14  2  0
 14 15  1  0
 15 16  2  0
 16 17  1  0
 17 19  1  0
 19 20  2  0
 20 21  1  0
 21 22  2  0
 22 23  1  0
 17 18  2  0
  2  5  1  0
  5  6  2  0
  6  7  1  0
  7  8  1  0
  7  9  2  0
  9 10  1  0
 10 11  1  0
 10 12  2  0
 18 13  1  0
 12  5  1  0
 23 19  1  0
  3  4  1  0
 23 24  1  0
M  END
> <minimizedAffinity>
-6.04845

> <CNNscore>
0.3961356878

> <CNNaffinity>
5.0534501076

> <CNN_VS>
2.0018520355

> <CNNaffinity_variance>
0.2957350910

$$$$



 24 26  0  0  0  0  0  0  0  0999 V2000
  -11.1891   51.7114    9.1410 O   0  0  0  0  0  0  0  0  0  0  0  0
  -11.5933   51.4118   10.2564 C   0  0  0  0  0  0  0  0  0  0  0  0
  -10.8297   51.2082   11.3914 N   0  0  0  0  0  0  0  0  0  0  0  0
  -11.3091   50.8917   12.1910 H   0  0  0  0  0  0  0  0  0  0  0  0
  -13.0545   51.1854   10.4322 C   0  0  0  0  0  0  0  0  0  0  0  0
  -13.8455   52.2533   10.8747 C   0  0  0  0  0  0  0  0  0  0  0  0
  -15.2155   52.0704   11.0526 C   0  0  0  0  0  0  0  0  0  0  0  0
  -16.2855   53.5158   11.6354 Br  0  0  0  0  0  0  0  0  0  0  0  0
  -15.8059   50.8325   10.8045 C   0  0  0  0  0  0  0  0  0  0  0  0
  -15.0091   49.7691   10.3837 C   0  0  0  0  0  0  0  0  0  0  0  0
  -15.7972   48.0800   10.0641 Br  0  0  0  0  0  0  0  0  0  0  0  0
  -13.6359   49.9326   10.1993 C   0  0  0  0  0  0  0  0  0  0  0  0
   -9.4384   51.4041   11.5299 C   0  0  0  0  0  0  0  0  0  0  0  0
   -8.6011   50.4936   10.8759 C   0  0  0  0  0  0  0  0  0  0  0  0
   -7.2143   50.6121   10.9658 C   0  0  0  0  0  0  0  0  0  0  0  0
   -6.6479   51.6436   11.7151 C   0  0  0  0  0  0  0  0  0  0  0  0
   -7.4644   52.5667   12.3839 C   0  0  0  0  0  0  0  0  0  0  0  0
   -8.8615   52.4295   12.2858 C   0  0  0  0  0  0  0  0  0  0  0  0
   -6.9039   53.6520   13.1861 C   0  0  0  0  0  0  0  0  0  0  0  0
   -7.3895   54.8689   13.3524 N   0  0  0  0  0  0  0  0  0  0  0  0
   -6.5212   55.5315   14.1853 N   0  0  0  0  0  0  0  0  0  0  0  0
   -5.5069   54.7526   14.5274 N   0  0  0  0  0  0  0  0  0  0  0  0
   -5.7388   53.5923   13.9023 N   0  0  0  0  0  0  0  0  0  0  0  0
   -5.1516   52.8036   13.9508 H   0  0  0  0  0  0  0  0  0  0  0  0
  1  2  2  0
  2  3  1  0
  3 13  1  0
 13 14  2  0
 14 15  1  0
 15 16  2  0
 16 17  1  0
 17 19  1  0
 19 20  2  0
 20 21  1  0
 21 22  2  0
 22 23  1  0
 17 18  2  0
  2  5  1  0
  5  6  2  0
  6  7  1  0
  7  8  1  0
  7  9  2  0
  9 10  1  0
 10 11  1  0
 10 12  2  0
 18 13  1  0
 12  5  1  0
 23 19  1  0
  3  4  1  0
 23 24  1  0
M  END
> <minimizedAffinity>
-5.75976

> <CNNscore>
0.3520430028

> <CNNaffinity>
4.7896447182

> <CNN_VS>
1.6861609221

> <CNNaffinity_variance>
0.2279261798

$$$$



 24 26  0  0  0  0  0  0  0  0999 V2000
   -2.1241   50.4487   10.8768 O   0  0  0  0  0  0  0  0  0  0  0  0
   -2.6578   49.4788   11.3981 C   0  0  0  0  0  0  0  0  0  0  0  0
   -3.9462   49.4052   11.8957 N   0  0  0  0  0  0  0  0  0  0  0  0
   -4.1903   48.5708   12.3576 H   0  0  0  0  0  0  0  0  0  0  0  0
   -1.8430   48.2453   11.5765 C   0  0  0  0  0  0  0  0  0  0  0  0
   -0.8325   47.9741   10.6452 C   0  0  0  0  0  0  0  0  0  0  0  0
   -0.0563   46.8250   10.7837 C   0  0  0  0  0  0  0  0  0  0  0  0
    1.3174   46.4667    9.5354 Br  0  0  0  0  0  0  0  0  0  0  0  0
   -0.2815   45.9369   11.8340 C   0  0  0  0  0  0  0  0  0  0  0  0
   -1.3021   46.2032   12.7452 C   0  0  0  0  0  0  0  0  0  0  0  0
   -1.6292   44.9939   14.1619 Br  0  0  0  0  0  0  0  0  0  0  0  0
   -2.0894   47.3485   12.6238 C   0  0  0  0  0  0  0  0  0  0  0  0
   -4.9498   50.3947   11.8141 C   0  0  0  0  0  0  0  0  0  0  0  0
   -6.0630   50.1055   11.0172 C   0  0  0  0  0  0  0  0  0  0  0  0
   -7.0972   51.0309   10.8781 C   0  0  0  0  0  0  0  0  0  0  0  0
   -7.0283   52.2602   11.5338 C   0  0  0  0  0  0  0  0  0  0  0  0
   -5.9218   52.5769   12.3348 C   0  0  0  0  0  0  0  0  0  0  0  0
   -4.8855   51.6331   12.4605 C   0  0  0  0  0  0  0  0  0  0  0  0
   -5.8128   53.8596   13.0264 C   0  0  0  0  0  0  0  0  0  0  0  0
   -6.5183   54.2844   14.0587 N   0  0  0  0  0  0  0  0  0  0  0  0
   -6.0632   55.5454   14.3577 N   0  0  0  0  0  0  0  0  0  0  0  0
   -5.0998   55.9099   13.5262 N   0  0  0  0  0  0  0  0  0  0  0  0
   -4.9505   54.8705   12.6966 N   0  0  0  0  0  0  0  0  0  0  0  0
   -4.3084   54.8374   11.9511 H   0  0  0  0  0  0  0  0  0  0  0  0
  1  2  2  0
  2  3  1  0
  3 13  1  0
 13 14  2  0
 14 15  1  0
 15 16  2  0
 16 17  1  0
 17 19  1  0
 19 20  2  0
 20 21  1  0
 21 22  2  0
 22 23  1  0
 17 18  2  0
  2  5  1  0
  5  6  2  0
  6  7  1  0
  7  8  1  0
  7  9  2  0
  9 10  1  0
 10 11  1  0
 10 12  2  0
 18 13  1  0
 12  5  1  0
 23 19  1  0
  3  4  1  0
 23 24  1  0
M  END
> <minimizedAffinity>
-7.25135

> <CNNscore>
0.3480556607

> <CNNaffinity>
4.9161353111

> <CNN_VS>
1.7110887766

> <CNNaffinity_variance>
0.3908780813

$$$$



 24 26  0  0  0  0  0  0  0  0999 V2000
   -0.6669   48.7529   10.1220 O   0  0  0  0  0  0  0  0  0  0  0  0
   -1.2901   48.4330   11.1253 C   0  0  0  0  0  0  0  0  0  0  0  0
   -1.8867   49.2815   12.0402 N   0  0  0  0  0  0  0  0  0  0  0  0
   -2.2801   48.8589   12.8377 H   0  0  0  0  0  0  0  0  0  0  0  0
   -1.3920   46.9838   11.4516 C   0  0  0  0  0  0  0  0  0  0  0  0
   -1.2997   46.0574   10.4052 C   0  0  0  0  0  0  0  0  0  0  0  0
   -1.3958   44.6944   10.6793 C   0  0  0  0  0  0  0  0  0  0  0  0
   -1.2562   43.4433    9.2689 Br  0  0  0  0  0  0  0  0  0  0  0  0
   -1.5930   44.2433   11.9831 C   0  0  0  0  0  0  0  0  0  0  0  0
   -1.7040   45.1720   13.0165 C   0  0  0  0  0  0  0  0  0  0  0  0
   -1.9922   44.5711   14.7863 Br  0  0  0  0  0  0  0  0  0  0  0  0
   -1.6099   46.5406   12.7623 C   0  0  0  0  0  0  0  0  0  0  0  0
   -1.9939   50.6867   11.9566 C   0  0  0  0  0  0  0  0  0  0  0  0
   -1.0571   51.3480   11.1549 C   0  0  0  0  0  0  0  0  0  0  0  0
   -1.0889   52.7362   11.0223 C   0  0  0  0  0  0  0  0  0  0  0  0
   -2.0588   53.4805   11.6941 C   0  0  0  0  0  0  0  0  0  0  0  0
   -3.0064   52.8429   12.5074 C   0  0  0  0  0  0  0  0  0  0  0  0
   -2.9569   51.4421   12.6331 C   0  0  0  0  0  0  0  0  0  0  0  0
   -4.0286   53.5934   13.2337 C   0  0  0  0  0  0  0  0  0  0  0  0
   -4.5235   54.7813   12.9370 N   0  0  0  0  0  0  0  0  0  0  0  0
   -5.4520   55.0767   13.9051 N   0  0  0  0  0  0  0  0  0  0  0  0
   -5.5326   54.1012   14.7964 N   0  0  0  0  0  0  0  0  0  0  0  0
   -4.6456   53.1870   14.3862 N   0  0  0  0  0  0  0  0  0  0  0  0
   -4.4618   52.3382   14.8499 H   0  0  0  0  0  0  0  0  0  0  0  0
  1  2  2  0
  2  3  1  0
  3 13  1  0
 13 14  2  0
 14 15  1  0
 15 16  2  0
 16 17  1  0
 17 19  1  0
 19 20  2  0
 20 21  1  0
 21 22  2  0
 22 23  1  0
 17 18  2  0
  2  5  1  0
  5  6  2  0
  6  7  1  0
  7  8  1  0
  7  9  2  0
  9 10  1  0
 10 11  1  0
 10 12  2  0
 18 13  1  0
 12  5  1  0
 23 19  1  0
  3  4  1  0
 23 24  1  0
M  END
> <minimizedAffinity>
-6.85385

> <CNNscore>
0.3476662338

> <CNNaffinity>
5.4047217369

> <CNN_VS>
1.8790392876

> <CNNaffinity_variance>
0.5096648335

$$$$
