


 46 48  0  0  0  0  0  0  0  0999 V2000
   12.7960   53.7965   91.7868 C   0  0  0  0  0  0  0  0  0  0  0  0
   13.5934   53.5442   92.6992 O   0  0  0  0  0  0  0  0  0  0  0  0
   13.2373   54.2550   90.5679 N   0  0  0  0  0  0  0  0  0  0  0  0
   14.6195   54.6536   90.3727 C   0  0  0  0  0  0  0  0  0  0  0  0
   14.5411   55.6491   89.2185 C   0  0  0  0  0  0  0  0  0  0  0  0
   14.1093   56.9357   89.6666 O   0  0  0  0  0  0  0  0  0  0  0  0
   13.4459   55.0661   88.3355 C   0  0  0  0  0  0  0  0  0  0  0  0
   12.4654   54.4195   89.3324 C   0  0  0  0  0  0  0  0  0  0  0  0
   13.2491   56.8527   90.1072 H   0  0  0  0  0  0  0  0  0  0  0  0
   11.9957   53.0723   88.7458 C   0  0  0  0  0  0  0  0  0  0  0  0
   12.2924   51.9898   89.2396 O   0  0  0  0  0  0  0  0  0  0  0  0
   11.2301   53.2073   87.6068 N   0  0  0  0  0  0  0  0  0  0  0  0
   10.9651   54.1077   87.3096 H   0  0  0  0  0  0  0  0  0  0  0  0
   10.8078   52.0584   86.8393 C   0  0  0  0  0  0  0  0  0  0  0  0
   11.5946   51.9370   85.5572 C   0  0  0  0  0  0  0  0  0  0  0  0
   11.6702   50.7105   84.8874 C   0  0  0  0  0  0  0  0  0  0  0  0
   12.3930   50.5916   83.6949 C   0  0  0  0  0  0  0  0  0  0  0  0
   13.0705   51.6918   83.1499 C   0  0  0  0  0  0  0  0  0  0  0  0
   12.9973   52.9169   83.8273 C   0  0  0  0  0  0  0  0  0  0  0  0
   12.2618   53.0419   85.0109 C   0  0  0  0  0  0  0  0  0  0  0  0
   13.8319   51.5785   81.9006 C   0  0  0  0  0  0  0  0  0  0  0  0
   15.3602   52.3648   81.7390 S   0  0  0  0  0  0  0  0  0  0  0  0
   15.4833   51.7835   80.1446 C   0  0  0  0  0  0  0  0  0  0  0  0
   16.5499   52.0552   79.3701 F   0  0  0  0  0  0  0  0  0  0  0  0
   14.4839   51.0568   79.7072 N   0  0  0  0  0  0  0  0  0  0  0  0
   13.5334   50.9222   80.7094 C   0  0  0  0  0  0  0  0  0  0  0  0
   12.3311   50.1003   80.4044 C   0  0  0  0  0  0  0  0  0  0  0  0
   11.2743   53.6023   92.0126 C   0  0  0  0  0  0  0  0  0  0  0  0
   11.8035   51.1954   92.4444 C   0  0  0  0  0  0  0  0  0  0  0  0
   12.7848   51.4760   93.1234 O   0  0  0  0  0  0  0  0  0  0  0  0
   11.0477   52.1700   91.8242 N   0  0  0  0  0  0  0  0  0  0  0  0
   10.3198   51.8866   91.2251 H   0  0  0  0  0  0  0  0  0  0  0  0
   11.2411   49.7524   92.2627 C   0  0  0  0  0  0  0  0  0  0  0  0
   13.3253   48.6379   89.2637 C   0  0  0  0  0  0  0  0  0  0  0  0
   13.0537   49.2504   90.6117 C   0  0  0  0  0  0  0  0  0  0  0  0
   13.9420   49.7323   91.3045 O   0  0  0  0  0  0  0  0  0  0  0  0
   11.7266   49.2407   90.9671 N   0  0  0  0  0  0  0  0  0  0  0  0
   11.0710   48.8763   90.3294 H   0  0  0  0  0  0  0  0  0  0  0  0
   11.5574   48.7702   93.4386 C   0  0  0  0  0  0  0  0  0  0  0  0
   12.7675   49.2649   94.2597 C   0  0  0  0  0  0  0  0  0  0  0  0
   10.3600   48.6965   94.4159 C   0  0  0  0  0  0  0  0  0  0  0  0
   11.8432   47.3460   92.9289 C   0  0  0  0  0  0  0  0  0  0  0  0
   10.7987   54.1097   93.4164 C   0  0  0  0  0  0  0  0  0  0  0  0
    9.3042   54.4997   93.3650 C   0  0  0  0  0  0  0  0  0  0  0  0
   11.5865   55.3711   93.8255 C   0  0  0  0  0  0  0  0  0  0  0  0
   10.9731   53.0463   94.5207 C   0  0  0  0  0  0  0  0  0  0  0  0
 34 35  1  0
 35 36  2  0
 35 37  1  0
 33 37  1  0
 33 29  1  0
 29 30  2  0
 29 31  1  0
 28 31  1  0
 28  1  1  0
  1  2  2  0
  1  3  1  0
  3  4  1  0
  4  5  1  0
  5  6  1  0
  5  7  1  0
  7  8  1  0
  8 10  1  0
 10 11  2  0
 10 12  1  0
 12 14  1  0
 14 15  1  0
 15 16  2  0
 16 17  1  0
 17 18  2  0
 18 21  1  0
 21 22  1  0
 22 23  1  0
 23 24  1  0
 23 25  2  0
 25 26  1  0
 26 27  1  0
 18 19  1  0
 19 20  2  0
 28 43  1  0
 43 44  1  0
 43 45  1  0
 43 46  1  0
 33 39  1  0
 39 40  1  0
 39 41  1  0
 39 42  1  0
  8  3  1  0
 20 15  1  0
 26 21  2  0
 37 38  1  0
 31 32  1  0
  6  9  1  0
 12 13  1  0
M  END
> <minimizedAffinity>
-8.41292

> <CNNscore>
0.9307468534

> <CNNaffinity>
7.2709708214

> <CNN_VS>
6.7674331665

> <CNNaffinity_variance>
0.4089073241

$$$$



 46 48  0  0  0  0  0  0  0  0999 V2000
   12.7770   53.8257   91.7822 C   0  0  0  0  0  0  0  0  0  0  0  0
   13.5446   53.5173   92.7029 O   0  0  0  0  0  0  0  0  0  0  0  0
   13.2625   54.2690   90.5744 N   0  0  0  0  0  0  0  0  0  0  0  0
   14.6687   54.5863   90.4029 C   0  0  0  0  0  0  0  0  0  0  0  0
   14.6666   55.5960   89.2584 C   0  0  0  0  0  0  0  0  0  0  0  0
   14.3056   56.9016   89.7141 O   0  0  0  0  0  0  0  0  0  0  0  0
   13.5516   55.0881   88.3540 C   0  0  0  0  0  0  0  0  0  0  0  0
   12.5199   54.4914   89.3301 C   0  0  0  0  0  0  0  0  0  0  0  0
   13.4357   56.8657   90.1418 H   0  0  0  0  0  0  0  0  0  0  0  0
   11.9795   53.1805   88.7227 C   0  0  0  0  0  0  0  0  0  0  0  0
   12.2489   52.0737   89.1768 O   0  0  0  0  0  0  0  0  0  0  0  0
   11.1842   53.3771   87.6134 N   0  0  0  0  0  0  0  0  0  0  0  0
   10.9455   54.2951   87.3497 H   0  0  0  0  0  0  0  0  0  0  0  0
   10.6931   52.2676   86.8290 C   0  0  0  0  0  0  0  0  0  0  0  0
   11.4951   52.0950   85.5623 C   0  0  0  0  0  0  0  0  0  0  0  0
   12.3116   53.1314   85.0956 C   0  0  0  0  0  0  0  0  0  0  0  0
   13.0627   52.9765   83.9249 C   0  0  0  0  0  0  0  0  0  0  0  0
   13.0051   51.7876   83.1835 C   0  0  0  0  0  0  0  0  0  0  0  0
   12.1813   50.7544   83.6513 C   0  0  0  0  0  0  0  0  0  0  0  0
   11.4422   50.9010   84.8301 C   0  0  0  0  0  0  0  0  0  0  0  0
   13.7879   51.6145   81.9544 C   0  0  0  0  0  0  0  0  0  0  0  0
   15.3139   52.4018   81.7769 S   0  0  0  0  0  0  0  0  0  0  0  0
   15.4670   51.7390   80.2172 C   0  0  0  0  0  0  0  0  0  0  0  0
   16.5447   51.9773   79.4471 F   0  0  0  0  0  0  0  0  0  0  0  0
   14.4793   50.9838   79.8022 N   0  0  0  0  0  0  0  0  0  0  0  0
   13.5131   50.8951   80.7944 C   0  0  0  0  0  0  0  0  0  0  0  0
   12.3210   50.0503   80.5131 C   0  0  0  0  0  0  0  0  0  0  0  0
   11.2433   53.7204   91.9846 C   0  0  0  0  0  0  0  0  0  0  0  0
   11.6812   51.2969   92.4251 C   0  0  0  0  0  0  0  0  0  0  0  0
   12.7065   51.5394   93.0518 O   0  0  0  0  0  0  0  0  0  0  0  0
   10.9419   52.2981   91.8281 N   0  0  0  0  0  0  0  0  0  0  0  0
   10.1731   52.0418   91.2690 H   0  0  0  0  0  0  0  0  0  0  0  0
   11.0445   49.8796   92.2917 C   0  0  0  0  0  0  0  0  0  0  0  0
    7.2281   49.8801   92.4133 C   0  0  0  0  0  0  0  0  0  0  0  0
    8.6283   49.5372   92.8466 C   0  0  0  0  0  0  0  0  0  0  0  0
    8.8594   48.8363   93.8247 O   0  0  0  0  0  0  0  0  0  0  0  0
    9.6036   50.0571   92.0304 N   0  0  0  0  0  0  0  0  0  0  0  0
    9.3288   50.5704   91.2366 H   0  0  0  0  0  0  0  0  0  0  0  0
   11.7241   48.9503   91.2324 C   0  0  0  0  0  0  0  0  0  0  0  0
   11.7294   47.4822   91.7095 C   0  0  0  0  0  0  0  0  0  0  0  0
   10.9330   48.9805   89.9028 C   0  0  0  0  0  0  0  0  0  0  0  0
   13.1696   49.3884   90.9354 C   0  0  0  0  0  0  0  0  0  0  0  0
   10.7723   54.2894   93.3661 C   0  0  0  0  0  0  0  0  0  0  0  0
   10.9476   53.2228   94.4707 C   0  0  0  0  0  0  0  0  0  0  0  0
    9.2739   54.6515   93.3139 C   0  0  0  0  0  0  0  0  0  0  0  0
   11.5629   55.5447   93.7901 C   0  0  0  0  0  0  0  0  0  0  0  0
 34 35  1  0
 35 36  2  0
 35 37  1  0
 33 37  1  0
 33 29  1  0
 29 30  2  0
 29 31  1  0
 28 31  1  0
 28  1  1  0
  1  2  2  0
  1  3  1  0
  3  4  1  0
  4  5  1  0
  5  6  1  0
  5  7  1  0
  7  8  1  0
  8 10  1  0
 10 11  2  0
 10 12  1  0
 12 14  1  0
 14 15  1  0
 15 16  2  0
 16 17  1  0
 17 18  2  0
 18 21  1  0
 21 22  1  0
 22 23  1  0
 23 24  1  0
 23 25  2  0
 25 26  1  0
 26 27  1  0
 18 19  1  0
 19 20  2  0
 28 43  1  0
 43 44  1  0
 43 45  1  0
 43 46  1  0
 33 39  1  0
 39 40  1  0
 39 41  1  0
 39 42  1  0
  8  3  1  0
 20 15  1  0
 26 21  2  0
 37 38  1  0
 31 32  1  0
  6  9  1  0
 12 13  1  0
M  END
> <minimizedAffinity>
-7.90895

> <CNNscore>
0.8764703870

> <CNNaffinity>
7.2086577415

> <CNN_VS>
6.3181748390

> <CNNaffinity_variance>
0.4179809093

$$$$



 46 48  0  0  0  0  0  0  0  0999 V2000
    9.1974   53.1357   90.0623 C   0  0  0  0  0  0  0  0  0  0  0  0
    8.9184   54.0568   90.8406 O   0  0  0  0  0  0  0  0  0  0  0  0
    8.8476   53.2011   88.7341 N   0  0  0  0  0  0  0  0  0  0  0  0
    7.9668   54.2447   88.2415 C   0  0  0  0  0  0  0  0  0  0  0  0
    7.3373   53.6195   86.9997 C   0  0  0  0  0  0  0  0  0  0  0  0
    6.2781   52.7243   87.3451 O   0  0  0  0  0  0  0  0  0  0  0  0
    8.4769   52.7966   86.4138 C   0  0  0  0  0  0  0  0  0  0  0  0
    9.2579   52.3061   87.6478 C   0  0  0  0  0  0  0  0  0  0  0  0
    6.6165   52.0377   87.9411 H   0  0  0  0  0  0  0  0  0  0  0  0
   10.7658   52.4058   87.3383 C   0  0  0  0  0  0  0  0  0  0  0  0
   11.5966   51.6386   87.8125 O   0  0  0  0  0  0  0  0  0  0  0  0
   11.0847   53.4499   86.4957 N   0  0  0  0  0  0  0  0  0  0  0  0
   10.3601   53.9786   86.0899 H   0  0  0  0  0  0  0  0  0  0  0  0
   12.4572   53.7860   86.1945 C   0  0  0  0  0  0  0  0  0  0  0  0
   12.8927   53.1844   84.8808 C   0  0  0  0  0  0  0  0  0  0  0  0
   14.0772   53.6077   84.2673 C   0  0  0  0  0  0  0  0  0  0  0  0
   14.4906   53.0503   83.0520 C   0  0  0  0  0  0  0  0  0  0  0  0
   13.7230   52.0665   82.4121 C   0  0  0  0  0  0  0  0  0  0  0  0
   12.5342   51.6498   83.0269 C   0  0  0  0  0  0  0  0  0  0  0  0
   12.1274   52.1940   84.2500 C   0  0  0  0  0  0  0  0  0  0  0  0
   14.1464   51.4756   81.1374 C   0  0  0  0  0  0  0  0  0  0  0  0
   15.5680   52.0482   80.3429 S   0  0  0  0  0  0  0  0  0  0  0  0
   15.2965   50.9450   79.0762 C   0  0  0  0  0  0  0  0  0  0  0  0
   16.1272   50.8569   78.0210 F   0  0  0  0  0  0  0  0  0  0  0  0
   14.2341   50.1843   79.1796 N   0  0  0  0  0  0  0  0  0  0  0  0
   13.5703   50.4712   80.3641 C   0  0  0  0  0  0  0  0  0  0  0  0
   12.3470   49.6812   80.6701 C   0  0  0  0  0  0  0  0  0  0  0  0
    9.9468   51.8821   90.5831 C   0  0  0  0  0  0  0  0  0  0  0  0
   12.3085   52.0178   91.3976 C   0  0  0  0  0  0  0  0  0  0  0  0
   12.6777   51.1239   90.6445 O   0  0  0  0  0  0  0  0  0  0  0  0
   10.9861   52.4078   91.4673 N   0  0  0  0  0  0  0  0  0  0  0  0
   10.7299   53.0730   92.1463 H   0  0  0  0  0  0  0  0  0  0  0  0
   13.2632   52.8686   92.2901 C   0  0  0  0  0  0  0  0  0  0  0  0
   14.5150   55.2972   89.6227 C   0  0  0  0  0  0  0  0  0  0  0  0
   13.5158   54.4586   90.3740 C   0  0  0  0  0  0  0  0  0  0  0  0
   12.3291   54.4232   90.0710 O   0  0  0  0  0  0  0  0  0  0  0  0
   14.0660   53.7268   91.3984 N   0  0  0  0  0  0  0  0  0  0  0  0
   15.0384   53.7773   91.5437 H   0  0  0  0  0  0  0  0  0  0  0  0
   12.5527   53.6915   93.4150 C   0  0  0  0  0  0  0  0  0  0  0  0
   11.0499   53.3456   93.4855 C   0  0  0  0  0  0  0  0  0  0  0  0
   13.1524   53.3426   94.7982 C   0  0  0  0  0  0  0  0  0  0  0  0
   12.7108   55.2072   93.1971 C   0  0  0  0  0  0  0  0  0  0  0  0
    8.9993   50.8633   91.3031 C   0  0  0  0  0  0  0  0  0  0  0  0
    9.7975   49.6197   91.7555 C   0  0  0  0  0  0  0  0  0  0  0  0
    7.9023   50.3751   90.3350 C   0  0  0  0  0  0  0  0  0  0  0  0
    8.3173   51.4672   92.5484 C   0  0  0  0  0  0  0  0  0  0  0  0
 34 35  1  0
 35 36  2  0
 35 37  1  0
 33 37  1  0
 33 29  1  0
 29 30  2  0
 29 31  1  0
 28 31  1  0
 28  1  1  0
  1  2  2  0
  1  3  1  0
  3  4  1  0
  4  5  1  0
  5  6  1  0
  5  7  1  0
  7  8  1  0
  8 10  1  0
 10 11  2  0
 10 12  1  0
 12 14  1  0
 14 15  1  0
 15 16  2  0
 16 17  1  0
 17 18  2  0
 18 21  1  0
 21 22  1  0
 22 23  1  0
 23 24  1  0
 23 25  2  0
 25 26  1  0
 26 27  1  0
 18 19  1  0
 19 20  2  0
 28 43  1  0
 43 44  1  0
 43 45  1  0
 43 46  1  0
 33 39  1  0
 39 40  1  0
 39 41  1  0
 39 42  1  0
  8  3  1  0
 20 15  1  0
 26 21  2  0
 37 38  1  0
 31 32  1  0
  6  9  1  0
 12 13  1  0
M  END
> <minimizedAffinity>
-8.82454

> <CNNscore>
0.7018496394

> <CNNaffinity>
7.1841030121

> <CNN_VS>
5.0421600342

> <CNNaffinity_variance>
0.2639468610

$$$$



 46 48  0  0  0  0  0  0  0  0999 V2000
   10.3154   50.3757   91.5303 C   0  0  0  0  0  0  0  0  0  0  0  0
    9.9013   50.9521   92.5444 O   0  0  0  0  0  0  0  0  0  0  0  0
    9.4955   50.1777   90.4443 N   0  0  0  0  0  0  0  0  0  0  0  0
    8.0713   50.4481   90.5212 C   0  0  0  0  0  0  0  0  0  0  0  0
    7.4795   49.5357   89.4504 C   0  0  0  0  0  0  0  0  0  0  0  0
    7.3693   48.1885   89.9145 O   0  0  0  0  0  0  0  0  0  0  0  0
    8.5316   49.5698   88.3500 C   0  0  0  0  0  0  0  0  0  0  0  0
    9.8655   49.6944   89.1106 C   0  0  0  0  0  0  0  0  0  0  0  0
    8.2422   47.8699   90.1928 H   0  0  0  0  0  0  0  0  0  0  0  0
   10.7659   50.6899   88.3505 C   0  0  0  0  0  0  0  0  0  0  0  0
   11.9820   50.5586   88.2647 O   0  0  0  0  0  0  0  0  0  0  0  0
   10.0715   51.7456   87.7979 N   0  0  0  0  0  0  0  0  0  0  0  0
    9.0879   51.7477   87.8382 H   0  0  0  0  0  0  0  0  0  0  0  0
   10.7538   52.8485   87.1611 C   0  0  0  0  0  0  0  0  0  0  0  0
   11.3778   52.4251   85.8539 C   0  0  0  0  0  0  0  0  0  0  0  0
   12.3996   53.1887   85.2781 C   0  0  0  0  0  0  0  0  0  0  0  0
   12.9871   52.7993   84.0690 C   0  0  0  0  0  0  0  0  0  0  0  0
   12.5580   51.6452   83.3979 C   0  0  0  0  0  0  0  0  0  0  0  0
   11.5302   50.8867   83.9750 C   0  0  0  0  0  0  0  0  0  0  0  0
   10.9527   51.2653   85.1918 C   0  0  0  0  0  0  0  0  0  0  0  0
   13.1665   51.2278   82.1294 C   0  0  0  0  0  0  0  0  0  0  0  0
   12.2920   50.2180   81.0360 S   0  0  0  0  0  0  0  0  0  0  0  0
   13.6265   50.2165   79.9804 C   0  0  0  0  0  0  0  0  0  0  0  0
   13.6054   49.5519   78.8103 F   0  0  0  0  0  0  0  0  0  0  0  0
   14.6790   50.8960   80.3659 N   0  0  0  0  0  0  0  0  0  0  0  0
   14.4244   51.4907   81.5936 C   0  0  0  0  0  0  0  0  0  0  0  0
   15.5017   52.3324   82.1812 C   0  0  0  0  0  0  0  0  0  0  0  0
   11.7765   49.8598   91.4751 C   0  0  0  0  0  0  0  0  0  0  0  0
   12.7752   52.1519   91.3842 C   0  0  0  0  0  0  0  0  0  0  0  0
   12.3627   52.3464   90.2464 O   0  0  0  0  0  0  0  0  0  0  0  0
   12.5792   50.9483   92.0311 N   0  0  0  0  0  0  0  0  0  0  0  0
   13.0008   50.8162   92.9109 H   0  0  0  0  0  0  0  0  0  0  0  0
   13.4811   53.2304   92.2619 C   0  0  0  0  0  0  0  0  0  0  0  0
   14.5729   55.7681   89.6261 C   0  0  0  0  0  0  0  0  0  0  0  0
   13.6196   54.8988   90.4018 C   0  0  0  0  0  0  0  0  0  0  0  0
   12.4165   54.8760   90.1710 O   0  0  0  0  0  0  0  0  0  0  0  0
   14.2298   54.1250   91.3592 N   0  0  0  0  0  0  0  0  0  0  0  0
   15.2094   54.1695   91.4464 H   0  0  0  0  0  0  0  0  0  0  0  0
   12.5318   54.0226   93.2204 C   0  0  0  0  0  0  0  0  0  0  0  0
   12.4645   53.3509   94.6087 C   0  0  0  0  0  0  0  0  0  0  0  0
   13.0696   55.4557   93.4479 C   0  0  0  0  0  0  0  0  0  0  0  0
   11.1081   54.1349   92.6459 C   0  0  0  0  0  0  0  0  0  0  0  0
   11.9736   48.5096   92.2448 C   0  0  0  0  0  0  0  0  0  0  0  0
   10.6754   47.6725   92.1955 C   0  0  0  0  0  0  0  0  0  0  0  0
   12.2867   48.7804   93.7306 C   0  0  0  0  0  0  0  0  0  0  0  0
   13.1127   47.6524   91.6547 C   0  0  0  0  0  0  0  0  0  0  0  0
 34 35  1  0
 35 36  2  0
 35 37  1  0
 33 37  1  0
 33 29  1  0
 29 30  2  0
 29 31  1  0
 28 31  1  0
 28  1  1  0
  1  2  2  0
  1  3  1  0
  3  4  1  0
  4  5  1  0
  5  6  1  0
  5  7  1  0
  7  8  1  0
  8 10  1  0
 10 11  2  0
 10 12  1  0
 12 14  1  0
 14 15  1  0
 15 16  2  0
 16 17  1  0
 17 18  2  0
 18 21  1  0
 21 22  1  0
 22 23  1  0
 23 24  1  0
 23 25  2  0
 25 26  1  0
 26 27  1  0
 18 19  1  0
 19 20  2  0
 28 43  1  0
 43 44  1  0
 43 45  1  0
 43 46  1  0
 33 39  1  0
 39 40  1  0
 39 41  1  0
 39 42  1  0
  8  3  1  0
 20 15  1  0
 26 21  2  0
 37 38  1  0
 31 32  1  0
  6  9  1  0
 12 13  1  0
M  END
> <minimizedAffinity>
-7.45337

> <CNNscore>
0.4945803583

> <CNNaffinity>
6.6375479698

> <CNN_VS>
3.2828009129

> <CNNaffinity_variance>
0.3575870097

$$$$



 46 48  0  0  0  0  0  0  0  0999 V2000
   11.0633   50.7136   89.5912 C   0  0  0  0  0  0  0  0  0  0  0  0
   11.2351   49.9647   90.5616 O   0  0  0  0  0  0  0  0  0  0  0  0
   10.7021   52.0286   89.7673 N   0  0  0  0  0  0  0  0  0  0  0  0
   10.3109   52.5301   91.0722 C   0  0  0  0  0  0  0  0  0  0  0  0
    9.4129   53.7186   90.7400 C   0  0  0  0  0  0  0  0  0  0  0  0
    8.0973   53.2941   90.3773 O   0  0  0  0  0  0  0  0  0  0  0  0
   10.0732   54.3133   89.5033 C   0  0  0  0  0  0  0  0  0  0  0  0
   10.6438   53.0912   88.7589 C   0  0  0  0  0  0  0  0  0  0  0  0
    8.1503   52.6833   89.6256 H   0  0  0  0  0  0  0  0  0  0  0  0
   12.0374   53.4636   88.2123 C   0  0  0  0  0  0  0  0  0  0  0  0
   13.0376   53.5224   88.9192 O   0  0  0  0  0  0  0  0  0  0  0  0
   12.0404   53.7407   86.8613 N   0  0  0  0  0  0  0  0  0  0  0  0
   11.2178   53.5982   86.3396 H   0  0  0  0  0  0  0  0  0  0  0  0
   13.2225   54.2352   86.1938 C   0  0  0  0  0  0  0  0  0  0  0  0
   13.4614   53.5081   84.8931 C   0  0  0  0  0  0  0  0  0  0  0  0
   14.5613   53.8352   84.0919 C   0  0  0  0  0  0  0  0  0  0  0  0
   14.7927   53.1615   82.8873 C   0  0  0  0  0  0  0  0  0  0  0  0
   13.9224   52.1542   82.4461 C   0  0  0  0  0  0  0  0  0  0  0  0
   12.8186   51.8339   83.2487 C   0  0  0  0  0  0  0  0  0  0  0  0
   12.5946   52.4950   84.4612 C   0  0  0  0  0  0  0  0  0  0  0  0
   14.1549   51.4416   81.1846 C   0  0  0  0  0  0  0  0  0  0  0  0
   15.6089   51.7050   80.2921 S   0  0  0  0  0  0  0  0  0  0  0  0
   15.0657   50.6197   79.0995 C   0  0  0  0  0  0  0  0  0  0  0  0
   15.8032   50.3339   78.0106 F   0  0  0  0  0  0  0  0  0  0  0  0
   13.8893   50.0756   79.2947 N   0  0  0  0  0  0  0  0  0  0  0  0
   13.3598   50.5308   80.4941 C   0  0  0  0  0  0  0  0  0  0  0  0
   12.0319   49.9966   80.9008 C   0  0  0  0  0  0  0  0  0  0  0  0
   11.2493   50.1699   88.1510 C   0  0  0  0  0  0  0  0  0  0  0  0
   12.6250   48.2249   87.3867 C   0  0  0  0  0  0  0  0  0  0  0  0
   12.8393   48.7357   86.2932 O   0  0  0  0  0  0  0  0  0  0  0  0
   11.8167   48.8335   88.3258 N   0  0  0  0  0  0  0  0  0  0  0  0
   11.6120   48.3434   89.1547 H   0  0  0  0  0  0  0  0  0  0  0  0
   13.2822   46.9015   87.8851 C   0  0  0  0  0  0  0  0  0  0  0  0
   10.8959   44.0541   87.0033 C   0  0  0  0  0  0  0  0  0  0  0  0
   11.5028   45.1421   87.8483 C   0  0  0  0  0  0  0  0  0  0  0  0
   11.0919   45.4066   88.9719 O   0  0  0  0  0  0  0  0  0  0  0  0
   12.5654   45.7779   87.2530 N   0  0  0  0  0  0  0  0  0  0  0  0
   12.8612   45.4702   86.3659 H   0  0  0  0  0  0  0  0  0  0  0  0
   14.8283   46.8112   87.6644 C   0  0  0  0  0  0  0  0  0  0  0  0
   15.3378   45.3754   87.9134 C   0  0  0  0  0  0  0  0  0  0  0  0
   15.1847   47.1592   86.1993 C   0  0  0  0  0  0  0  0  0  0  0  0
   15.5917   47.7825   88.5828 C   0  0  0  0  0  0  0  0  0  0  0  0
    9.9155   50.1572   87.3294 C   0  0  0  0  0  0  0  0  0  0  0  0
    8.7374   50.6194   88.2165 C   0  0  0  0  0  0  0  0  0  0  0  0
    9.5939   48.7264   86.8515 C   0  0  0  0  0  0  0  0  0  0  0  0
    9.9711   51.0824   86.0959 C   0  0  0  0  0  0  0  0  0  0  0  0
 34 35  1  0
 35 36  2  0
 35 37  1  0
 33 37  1  0
 33 29  1  0
 29 30  2  0
 29 31  1  0
 28 31  1  0
 28  1  1  0
  1  2  2  0
  1  3  1  0
  3  4  1  0
  4  5  1  0
  5  6  1  0
  5  7  1  0
  7  8  1  0
  8 10  1  0
 10 11  2  0
 10 12  1  0
 12 14  1  0
 14 15  1  0
 15 16  2  0
 16 17  1  0
 17 18  2  0
 18 21  1  0
 21 22  1  0
 22 23  1  0
 23 24  1  0
 23 25  2  0
 25 26  1  0
 26 27  1  0
 18 19  1  0
 19 20  2  0
 28 43  1  0
 43 44  1  0
 43 45  1  0
 43 46  1  0
 33 39  1  0
 39 40  1  0
 39 41  1  0
 39 42  1  0
  8  3  1  0
 20 15  1  0
 26 21  2  0
 37 38  1  0
 31 32  1  0
  6  9  1  0
 12 13  1  0
M  END
> <minimizedAffinity>
-7.80288

> <CNNscore>
0.4243595302

> <CNNaffinity>
6.8691654205

> <CNN_VS>
2.9149959087

> <CNNaffinity_variance>
0.2327207178

$$$$



 46 48  0  0  0  0  0  0  0  0999 V2000
    9.8714   50.5482   88.3250 C   0  0  0  0  0  0  0  0  0  0  0  0
    9.7518   49.6183   89.1332 O   0  0  0  0  0  0  0  0  0  0  0  0
    9.7679   51.8574   88.7323 N   0  0  0  0  0  0  0  0  0  0  0  0
    9.3143   52.1925   90.0700 C   0  0  0  0  0  0  0  0  0  0  0  0
    8.7337   53.5944   89.9060 C   0  0  0  0  0  0  0  0  0  0  0  0
    7.4208   53.5537   89.3428 O   0  0  0  0  0  0  0  0  0  0  0  0
    9.6643   54.2346   88.8846 C   0  0  0  0  0  0  0  0  0  0  0  0
   10.0672   53.0684   87.9621 C   0  0  0  0  0  0  0  0  0  0  0  0
    7.4489   53.0919   88.4902 H   0  0  0  0  0  0  0  0  0  0  0  0
   11.5687   53.2046   87.6360 C   0  0  0  0  0  0  0  0  0  0  0  0
   12.4540   52.8983   88.4273 O   0  0  0  0  0  0  0  0  0  0  0  0
   11.8126   53.7206   86.3805 N   0  0  0  0  0  0  0  0  0  0  0  0
   11.0569   53.8715   85.7678 H   0  0  0  0  0  0  0  0  0  0  0  0
   13.1509   54.0447   85.9433 C   0  0  0  0  0  0  0  0  0  0  0  0
   13.4775   53.3705   84.6332 C   0  0  0  0  0  0  0  0  0  0  0  0
   12.6065   52.4183   84.0917 C   0  0  0  0  0  0  0  0  0  0  0  0
   12.8998   51.7931   82.8743 C   0  0  0  0  0  0  0  0  0  0  0  0
   14.0778   52.0932   82.1753 C   0  0  0  0  0  0  0  0  0  0  0  0
   14.9503   53.0431   82.7244 C   0  0  0  0  0  0  0  0  0  0  0  0
   14.6512   53.6812   83.9331 C   0  0  0  0  0  0  0  0  0  0  0  0
   14.3957   51.4435   80.8985 C   0  0  0  0  0  0  0  0  0  0  0  0
   15.7910   51.9229   80.0023 S   0  0  0  0  0  0  0  0  0  0  0  0
   15.3930   50.7951   78.7920 C   0  0  0  0  0  0  0  0  0  0  0  0
   16.1532   50.6349   77.6930 F   0  0  0  0  0  0  0  0  0  0  0  0
   14.3052   50.0893   78.9838 N   0  0  0  0  0  0  0  0  0  0  0  0
   13.7285   50.4441   80.1952 C   0  0  0  0  0  0  0  0  0  0  0  0
   12.4913   49.7231   80.5997 C   0  0  0  0  0  0  0  0  0  0  0  0
   10.1359   50.2437   86.8278 C   0  0  0  0  0  0  0  0  0  0  0  0
   11.9061   48.6115   86.1484 C   0  0  0  0  0  0  0  0  0  0  0  0
   12.4678   49.4340   85.4338 O   0  0  0  0  0  0  0  0  0  0  0  0
   10.7361   48.9104   86.8173 N   0  0  0  0  0  0  0  0  0  0  0  0
   10.2831   48.1897   87.3120 H   0  0  0  0  0  0  0  0  0  0  0  0
   12.4623   47.1881   86.4587 C   0  0  0  0  0  0  0  0  0  0  0  0
   12.4139   44.8283   83.4572 C   0  0  0  0  0  0  0  0  0  0  0  0
   12.0709   45.3225   84.8372 C   0  0  0  0  0  0  0  0  0  0  0  0
   11.3282   44.7036   85.5900 O   0  0  0  0  0  0  0  0  0  0  0  0
   12.6882   46.5034   85.1718 N   0  0  0  0  0  0  0  0  0  0  0  0
   13.3083   46.9104   84.5245 H   0  0  0  0  0  0  0  0  0  0  0  0
   13.7342   47.1629   87.3692 C   0  0  0  0  0  0  0  0  0  0  0  0
   13.6191   48.2011   88.5059 C   0  0  0  0  0  0  0  0  0  0  0  0
   13.8846   45.7799   88.0468 C   0  0  0  0  0  0  0  0  0  0  0  0
   15.0163   47.4391   86.5632 C   0  0  0  0  0  0  0  0  0  0  0  0
    8.8397   50.3298   85.9521 C   0  0  0  0  0  0  0  0  0  0  0  0
    9.2093   50.6045   84.4769 C   0  0  0  0  0  0  0  0  0  0  0  0
    7.9497   51.4972   86.4254 C   0  0  0  0  0  0  0  0  0  0  0  0
    8.0069   49.0318   85.9980 C   0  0  0  0  0  0  0  0  0  0  0  0
 34 35  1  0
 35 36  2  0
 35 37  1  0
 33 37  1  0
 33 29  1  0
 29 30  2  0
 29 31  1  0
 28 31  1  0
 28  1  1  0
  1  2  2  0
  1  3  1  0
  3  4  1  0
  4  5  1  0
  5  6  1  0
  5  7  1  0
  7  8  1  0
  8 10  1  0
 10 11  2  0
 10 12  1  0
 12 14  1  0
 14 15  1  0
 15 16  2  0
 16 17  1  0
 17 18  2  0
 18 21  1  0
 21 22  1  0
 22 23  1  0
 23 24  1  0
 23 25  2  0
 25 26  1  0
 26 27  1  0
 18 19  1  0
 19 20  2  0
 28 43  1  0
 43 44  1  0
 43 45  1  0
 43 46  1  0
 33 39  1  0
 39 40  1  0
 39 41  1  0
 39 42  1  0
  8  3  1  0
 20 15  1  0
 26 21  2  0
 37 38  1  0
 31 32  1  0
  6  9  1  0
 12 13  1  0
M  END
> <minimizedAffinity>
-8.38353

> <CNNscore>
0.2869716287

> <CNNaffinity>
6.4840159416

> <CNN_VS>
1.8607286215

> <CNNaffinity_variance>
0.5896063447

$$$$



 46 48  0  0  0  0  0  0  0  0999 V2000
   10.7412   49.3808   91.4273 C   0  0  0  0  0  0  0  0  0  0  0  0
    9.7218   49.1706   92.0972 O   0  0  0  0  0  0  0  0  0  0  0  0
   11.0409   48.6049   90.3323 N   0  0  0  0  0  0  0  0  0  0  0  0
   10.2935   47.3942   90.0444 C   0  0  0  0  0  0  0  0  0  0  0  0
   11.2807   46.5513   89.2419 C   0  0  0  0  0  0  0  0  0  0  0  0
   12.2290   45.9049   90.0936 O   0  0  0  0  0  0  0  0  0  0  0  0
   12.0242   47.5895   88.4122 C   0  0  0  0  0  0  0  0  0  0  0  0
   12.0854   48.8270   89.3278 C   0  0  0  0  0  0  0  0  0  0  0  0
   12.6964   46.5712   90.6214 H   0  0  0  0  0  0  0  0  0  0  0  0
   11.8207   50.0799   88.4679 C   0  0  0  0  0  0  0  0  0  0  0  0
   12.2870   51.1825   88.7337 O   0  0  0  0  0  0  0  0  0  0  0  0
   10.9966   49.8401   87.3885 N   0  0  0  0  0  0  0  0  0  0  0  0
   10.7213   48.9160   87.1898 H   0  0  0  0  0  0  0  0  0  0  0  0
   10.5276   50.9132   86.5423 C   0  0  0  0  0  0  0  0  0  0  0  0
   11.3727   51.0389   85.2983 C   0  0  0  0  0  0  0  0  0  0  0  0
   11.9674   49.9066   84.7301 C   0  0  0  0  0  0  0  0  0  0  0  0
   12.7476   50.0145   83.5732 C   0  0  0  0  0  0  0  0  0  0  0  0
   12.9650   51.2586   82.9639 C   0  0  0  0  0  0  0  0  0  0  0  0
   12.3725   52.3910   83.5398 C   0  0  0  0  0  0  0  0  0  0  0  0
   11.5788   52.2831   84.6869 C   0  0  0  0  0  0  0  0  0  0  0  0
   13.7816   51.3835   81.7511 C   0  0  0  0  0  0  0  0  0  0  0  0
   15.2420   52.3037   81.7767 S   0  0  0  0  0  0  0  0  0  0  0  0
   15.4768   51.9648   80.1259 C   0  0  0  0  0  0  0  0  0  0  0  0
   16.5457   52.4270   79.4513 F   0  0  0  0  0  0  0  0  0  0  0  0
   14.5613   51.2301   79.5428 N   0  0  0  0  0  0  0  0  0  0  0  0
   13.5873   50.8803   80.4674 C   0  0  0  0  0  0  0  0  0  0  0  0
   12.4728   50.0168   79.9918 C   0  0  0  0  0  0  0  0  0  0  0  0
   11.7046   50.5294   91.8232 C   0  0  0  0  0  0  0  0  0  0  0  0
   11.1088   52.9552   91.6807 C   0  0  0  0  0  0  0  0  0  0  0  0
   12.1635   53.2381   91.1237 O   0  0  0  0  0  0  0  0  0  0  0  0
   10.8329   51.6699   92.1020 N   0  0  0  0  0  0  0  0  0  0  0  0
   10.0079   51.5132   92.6159 H   0  0  0  0  0  0  0  0  0  0  0  0
    9.9354   53.9571   91.9069 C   0  0  0  0  0  0  0  0  0  0  0  0
    8.4624   53.8655   88.3853 C   0  0  0  0  0  0  0  0  0  0  0  0
    9.0943   53.3194   89.6378 C   0  0  0  0  0  0  0  0  0  0  0  0
    9.3670   52.1324   89.7713 O   0  0  0  0  0  0  0  0  0  0  0  0
    9.3564   54.2762   90.5883 N   0  0  0  0  0  0  0  0  0  0  0  0
    9.1488   55.2158   90.3802 H   0  0  0  0  0  0  0  0  0  0  0  0
    8.8490   53.4784   92.9257 C   0  0  0  0  0  0  0  0  0  0  0  0
    9.3698   52.2975   93.7728 C   0  0  0  0  0  0  0  0  0  0  0  0
    8.5021   54.6148   93.9171 C   0  0  0  0  0  0  0  0  0  0  0  0
    7.5507   53.0545   92.2156 C   0  0  0  0  0  0  0  0  0  0  0  0
   12.6236   50.1605   93.0370 C   0  0  0  0  0  0  0  0  0  0  0  0
   13.9112   51.0148   93.0110 C   0  0  0  0  0  0  0  0  0  0  0  0
   13.0545   48.6818   92.9531 C   0  0  0  0  0  0  0  0  0  0  0  0
   11.9302   50.3900   94.3960 C   0  0  0  0  0  0  0  0  0  0  0  0
 34 35  1  0
 35 36  2  0
 35 37  1  0
 33 37  1  0
 33 29  1  0
 29 30  2  0
 29 31  1  0
 28 31  1  0
 28  1  1  0
  1  2  2  0
  1  3  1  0
  3  4  1  0
  4  5  1  0
  5  6  1  0
  5  7  1  0
  7  8  1  0
  8 10  1  0
 10 11  2  0
 10 12  1  0
 12 14  1  0
 14 15  1  0
 15 16  2  0
 16 17  1  0
 17 18  2  0
 18 21  1  0
 21 22  1  0
 22 23  1  0
 23 24  1  0
 23 25  2  0
 25 26  1  0
 26 27  1  0
 18 19  1  0
 19 20  2  0
 28 43  1  0
 43 44  1  0
 43 45  1  0
 43 46  1  0
 33 39  1  0
 39 40  1  0
 39 41  1  0
 39 42  1  0
  8  3  1  0
 20 15  1  0
 26 21  2  0
 37 38  1  0
 31 32  1  0
  6  9  1  0
 12 13  1  0
M  END
> <minimizedAffinity>
-6.43124

> <CNNscore>
0.2761960030

> <CNNaffinity>
5.8978767395

> <CNN_VS>
1.6289700270

> <CNNaffinity_variance>
0.4417490065

$$$$



 46 48  0  0  0  0  0  0  0  0999 V2000
   10.3147   51.5378   89.8988 C   0  0  0  0  0  0  0  0  0  0  0  0
   11.4616   51.9328   90.1451 O   0  0  0  0  0  0  0  0  0  0  0  0
    9.5090   52.2127   89.0121 N   0  0  0  0  0  0  0  0  0  0  0  0
    9.8903   53.5139   88.4937 C   0  0  0  0  0  0  0  0  0  0  0  0
    8.5536   54.1579   88.1360 C   0  0  0  0  0  0  0  0  0  0  0  0
    7.8984   54.6795   89.2941 O   0  0  0  0  0  0  0  0  0  0  0  0
    7.7333   52.9833   87.6200 C   0  0  0  0  0  0  0  0  0  0  0  0
    8.2168   51.7889   88.4644 C   0  0  0  0  0  0  0  0  0  0  0  0
    7.7744   53.9691   89.9429 H   0  0  0  0  0  0  0  0  0  0  0  0
    8.3417   50.5604   87.5398 C   0  0  0  0  0  0  0  0  0  0  0  0
    7.9286   49.4480   87.8486 O   0  0  0  0  0  0  0  0  0  0  0  0
    8.9781   50.8341   86.3473 N   0  0  0  0  0  0  0  0  0  0  0  0
    9.2143   51.7651   86.1312 H   0  0  0  0  0  0  0  0  0  0  0  0
    9.3062   49.7867   85.4079 C   0  0  0  0  0  0  0  0  0  0  0  0
   10.4287   50.2059   84.4904 C   0  0  0  0  0  0  0  0  0  0  0  0
   11.2199   51.3171   84.8030 C   0  0  0  0  0  0  0  0  0  0  0  0
   12.2664   51.7084   83.9601 C   0  0  0  0  0  0  0  0  0  0  0  0
   12.5386   51.0078   82.7762 C   0  0  0  0  0  0  0  0  0  0  0  0
   11.7398   49.8991   82.4638 C   0  0  0  0  0  0  0  0  0  0  0  0
   10.7036   49.4965   83.3133 C   0  0  0  0  0  0  0  0  0  0  0  0
   13.6328   51.4095   81.8847 C   0  0  0  0  0  0  0  0  0  0  0  0
   13.7605   50.7292   80.3032 S   0  0  0  0  0  0  0  0  0  0  0  0
   15.1731   51.6386   80.0333 C   0  0  0  0  0  0  0  0  0  0  0  0
   15.8474   51.5744   78.8703 F   0  0  0  0  0  0  0  0  0  0  0  0
   15.5729   52.4058   81.0179 N   0  0  0  0  0  0  0  0  0  0  0  0
   14.6913   52.2920   82.0836 C   0  0  0  0  0  0  0  0  0  0  0  0
   14.9684   53.1172   83.2904 C   0  0  0  0  0  0  0  0  0  0  0  0
    9.7659   50.2679   90.5991 C   0  0  0  0  0  0  0  0  0  0  0  0
   11.6611   49.0464   89.5149 C   0  0  0  0  0  0  0  0  0  0  0  0
   12.4563   49.9448   89.7660 O   0  0  0  0  0  0  0  0  0  0  0  0
   10.3231   49.1504   89.8382 N   0  0  0  0  0  0  0  0  0  0  0  0
    9.7135   48.4365   89.5417 H   0  0  0  0  0  0  0  0  0  0  0  0
   12.0530   47.6712   88.8927 C   0  0  0  0  0  0  0  0  0  0  0  0
   13.3321   48.0317   85.3130 C   0  0  0  0  0  0  0  0  0  0  0  0
   12.3851   47.6312   86.4125 C   0  0  0  0  0  0  0  0  0  0  0  0
   11.3233   47.0620   86.1890 O   0  0  0  0  0  0  0  0  0  0  0  0
   12.8385   47.9373   87.6728 N   0  0  0  0  0  0  0  0  0  0  0  0
   13.7264   48.3523   87.7658 H   0  0  0  0  0  0  0  0  0  0  0  0
   12.7921   46.6953   89.8668 C   0  0  0  0  0  0  0  0  0  0  0  0
   14.2406   47.1639   90.1226 C   0  0  0  0  0  0  0  0  0  0  0  0
   12.0856   46.6704   91.2433 C   0  0  0  0  0  0  0  0  0  0  0  0
   12.8177   45.2567   89.3196 C   0  0  0  0  0  0  0  0  0  0  0  0
   10.1341   50.2061   92.1206 C   0  0  0  0  0  0  0  0  0  0  0  0
    9.5138   51.4075   92.8693 C   0  0  0  0  0  0  0  0  0  0  0  0
   11.6629   50.2918   92.3061 C   0  0  0  0  0  0  0  0  0  0  0  0
    9.6321   48.9146   92.7993 C   0  0  0  0  0  0  0  0  0  0  0  0
 34 35  1  0
 35 36  2  0
 35 37  1  0
 33 37  1  0
 33 29  1  0
 29 30  2  0
 29 31  1  0
 28 31  1  0
 28  1  1  0
  1  2  2  0
  1  3  1  0
  3  4  1  0
  4  5  1  0
  5  6  1  0
  5  7  1  0
  7  8  1  0
  8 10  1  0
 10 11  2  0
 10 12  1  0
 12 14  1  0
 14 15  1  0
 15 16  2  0
 16 17  1  0
 17 18  2  0
 18 21  1  0
 21 22  1  0
 22 23  1  0
 23 24  1  0
 23 25  2  0
 25 26  1  0
 26 27  1  0
 18 19  1  0
 19 20  2  0
 28 43  1  0
 43 44  1  0
 43 45  1  0
 43 46  1  0
 33 39  1  0
 39 40  1  0
 39 41  1  0
 39 42  1  0
  8  3  1  0
 20 15  1  0
 26 21  2  0
 37 38  1  0
 31 32  1  0
  6  9  1  0
 12 13  1  0
M  END
> <minimizedAffinity>
-6.26289

> <CNNscore>
0.2525838315

> <CNNaffinity>
5.5822033882

> <CNN_VS>
1.4099743366

> <CNNaffinity_variance>
0.9883852005

$$$$



 46 48  0  0  0  0  0  0  0  0999 V2000
    9.5287   50.7716   88.3592 C   0  0  0  0  0  0  0  0  0  0  0  0
    8.8989   50.5385   89.3990 O   0  0  0  0  0  0  0  0  0  0  0  0
    9.2252   51.8612   87.5772 N   0  0  0  0  0  0  0  0  0  0  0  0
    8.0351   52.6543   87.8263 C   0  0  0  0  0  0  0  0  0  0  0  0
    7.7279   53.2691   86.4637 C   0  0  0  0  0  0  0  0  0  0  0  0
    7.0698   52.3349   85.6053 O   0  0  0  0  0  0  0  0  0  0  0  0
    9.1119   53.5416   85.8896 C   0  0  0  0  0  0  0  0  0  0  0  0
    9.9773   52.3898   86.4352 C   0  0  0  0  0  0  0  0  0  0  0  0
    7.6201   51.5420   85.5079 H   0  0  0  0  0  0  0  0  0  0  0  0
   11.3478   52.9660   86.8465 C   0  0  0  0  0  0  0  0  0  0  0  0
   12.3348   52.9238   86.1200 O   0  0  0  0  0  0  0  0  0  0  0  0
   11.3554   53.5119   88.1129 N   0  0  0  0  0  0  0  0  0  0  0  0
   10.5090   53.5828   88.6109 H   0  0  0  0  0  0  0  0  0  0  0  0
   12.5761   53.9825   88.7260 C   0  0  0  0  0  0  0  0  0  0  0  0
   12.4025   54.1779   90.2123 C   0  0  0  0  0  0  0  0  0  0  0  0
   13.4730   54.6217   90.9969 C   0  0  0  0  0  0  0  0  0  0  0  0
   13.3180   54.8108   92.3749 C   0  0  0  0  0  0  0  0  0  0  0  0
   12.0935   54.5471   93.0054 C   0  0  0  0  0  0  0  0  0  0  0  0
   11.0256   54.0969   92.2168 C   0  0  0  0  0  0  0  0  0  0  0  0
   11.1738   53.9228   90.8365 C   0  0  0  0  0  0  0  0  0  0  0  0
   11.9198   54.7413   94.4496 C   0  0  0  0  0  0  0  0  0  0  0  0
   12.0808   53.4065   95.5323 S   0  0  0  0  0  0  0  0  0  0  0  0
   11.7237   54.4335   96.8411 C   0  0  0  0  0  0  0  0  0  0  0  0
   11.6862   53.9819   98.1083 F   0  0  0  0  0  0  0  0  0  0  0  0
   11.4851   55.6895   96.5519 N   0  0  0  0  0  0  0  0  0  0  0  0
   11.6050   55.8823   95.1828 C   0  0  0  0  0  0  0  0  0  0  0  0
   11.3958   57.2621   94.6666 C   0  0  0  0  0  0  0  0  0  0  0  0
   10.6747   49.8243   87.9192 C   0  0  0  0  0  0  0  0  0  0  0  0
   11.9221   49.7601   90.0870 C   0  0  0  0  0  0  0  0  0  0  0  0
   12.4210   50.8633   89.8960 O   0  0  0  0  0  0  0  0  0  0  0  0
   11.1052   49.1610   89.1492 N   0  0  0  0  0  0  0  0  0  0  0  0
   10.7970   48.2412   89.3169 H   0  0  0  0  0  0  0  0  0  0  0  0
   12.0673   48.9441   91.4080 C   0  0  0  0  0  0  0  0  0  0  0  0
   14.6579   46.4414   90.1410 C   0  0  0  0  0  0  0  0  0  0  0  0
   13.9557   47.7674   90.2624 C   0  0  0  0  0  0  0  0  0  0  0  0
   14.3125   48.7585   89.6365 O   0  0  0  0  0  0  0  0  0  0  0  0
   12.8745   47.7460   91.1098 N   0  0  0  0  0  0  0  0  0  0  0  0
   12.6276   46.8939   91.5366 H   0  0  0  0  0  0  0  0  0  0  0  0
   12.6387   49.7513   92.6202 C   0  0  0  0  0  0  0  0  0  0  0  0
   13.6307   50.8338   92.1433 C   0  0  0  0  0  0  0  0  0  0  0  0
   11.4987   50.4910   93.3603 C   0  0  0  0  0  0  0  0  0  0  0  0
   13.3452   48.8323   93.6332 C   0  0  0  0  0  0  0  0  0  0  0  0
   10.2330   48.8111   86.8091 C   0  0  0  0  0  0  0  0  0  0  0  0
    8.6997   48.8590   86.6219 C   0  0  0  0  0  0  0  0  0  0  0  0
   10.5983   47.3706   87.2221 C   0  0  0  0  0  0  0  0  0  0  0  0
   10.8865   49.1073   85.4431 C   0  0  0  0  0  0  0  0  0  0  0  0
 34 35  1  0
 35 36  2  0
 35 37  1  0
 33 37  1  0
 33 29  1  0
 29 30  2  0
 29 31  1  0
 28 31  1  0
 28  1  1  0
  1  2  2  0
  1  3  1  0
  3  4  1  0
  4  5  1  0
  5  6  1  0
  5  7  1  0
  7  8  1  0
  8 10  1  0
 10 11  2  0
 10 12  1  0
 12 14  1  0
 14 15  1  0
 15 16  2  0
 16 17  1  0
 17 18  2  0
 18 21  1  0
 21 22  1  0
 22 23  1  0
 23 24  1  0
 23 25  2  0
 25 26  1  0
 26 27  1  0
 18 19  1  0
 19 20  2  0
 28 43  1  0
 43 44  1  0
 43 45  1  0
 43 46  1  0
 33 39  1  0
 39 40  1  0
 39 41  1  0
 39 42  1  0
  8  3  1  0
 20 15  1  0
 26 21  2  0
 37 38  1  0
 31 32  1  0
  6  9  1  0
 12 13  1  0
M  END
> <minimizedAffinity>
-6.46883

> <CNNscore>
0.2430174202

> <CNNaffinity>
5.9666724205

> <CNN_VS>
1.4500052929

> <CNNaffinity_variance>
0.4271980822

$$$$
