


 22 22  0  0  0  0  0  0  0  0999 V2000
   -0.9072   -3.2564   -5.3557 N   0  0  0  0  0  0  0  0  0  0  0  0
   -0.1102   -2.9381   -5.9069 H   0  0  0  0  0  0  0  0  0  0  0  0
   -0.7845   -4.9195   -5.2637 S   0  0  0  0  0  0  0  0  0  0  0  0
   -1.1836   -5.2874   -3.9236 O   0  0  0  0  0  0  0  0  0  0  0  0
    0.4949   -5.3068   -5.8147 O   0  0  0  0  0  0  0  0  0  0  0  0
   -2.0681   -5.4471   -6.3678 C   0  0  0  0  0  0  0  0  0  0  0  0
   -1.7858   -5.6661   -7.7180 C   0  0  0  0  0  0  0  0  0  0  0  0
   -2.8088   -6.0700   -8.5825 C   0  0  0  0  0  0  0  0  0  0  0  0
   -4.1057   -6.2581   -8.0977 C   0  0  0  0  0  0  0  0  0  0  0  0
   -4.3713   -6.0455   -6.7404 C   0  0  0  0  0  0  0  0  0  0  0  0
   -3.3572   -5.6438   -5.8699 C   0  0  0  0  0  0  0  0  0  0  0  0
   -5.1907   -6.6439   -8.8353 O   0  0  0  0  0  0  0  0  0  0  0  0
   -6.3836   -6.9407   -8.1202 C   0  0  0  0  0  0  0  0  0  0  0  0
   -0.9334   -2.4261   -4.1449 C   0  0  0  0  0  0  0  0  0  0  0  0
   -1.9607   -1.3166   -4.3695 C   0  0  0  0  0  0  0  0  0  0  0  0
    0.4909   -1.8685   -3.9244 C   0  0  0  0  0  0  0  0  0  0  0  0
    0.9004   -1.4853   -2.4595 C   0  0  0  0  0  0  0  0  0  0  0  0
    0.6741    0.0172   -2.2243 C   0  0  0  0  0  0  0  0  0  0  0  0
    0.0557   -2.2913   -1.4563 C   0  0  0  0  0  0  0  0  0  0  0  0
    2.4171   -1.8427   -2.3210 C   0  0  0  0  0  0  0  0  0  0  0  0
    4.9243   -1.2457   -2.5344 C   0  0  0  0  0  0  0  0  0  0  0  0
    3.4831   -0.7778   -2.6165 C   0  0  0  0  0  0  0  0  0  0  0  0
 21 22  1  0
 22 20  1  0
 20 17  1  0
 17 18  1  0
 17 19  1  0
 17 16  1  0
 16 14  1  0
 14 15  1  0
 14  1  1  0
  1  3  1  0
  3  4  2  0
  3  5  2  0
  3  6  1  0
  6  7  2  0
  7  8  1  0
  8  9  2  0
  9 12  1  0
 12 13  1  0
  9 10  1  0
 10 11  2  0
 11  6  1  0
  1  2  1  0
M  END
> <minimizedAffinity>
-7.29622

> <CNNscore>
0.9477698207

> <CNNaffinity>
5.7815661430

> <CNN_VS>
5.4795937538

> <CNNaffinity_variance>
0.1244302616

$$$$



 22 22  0  0  0  0  0  0  0  0999 V2000
   -0.4051   -3.8167   -5.1614 N   0  0  0  0  0  0  0  0  0  0  0  0
    0.6081   -3.8187   -5.2797 H   0  0  0  0  0  0  0  0  0  0  0  0
   -0.8493   -5.3985   -4.8614 S   0  0  0  0  0  0  0  0  0  0  0  0
   -1.5394   -5.3975   -3.5909 O   0  0  0  0  0  0  0  0  0  0  0  0
    0.2988   -6.2421   -5.1081 O   0  0  0  0  0  0  0  0  0  0  0  0
   -2.0577   -5.6899   -6.1262 C   0  0  0  0  0  0  0  0  0  0  0  0
   -3.4032   -5.8494   -5.7875 C   0  0  0  0  0  0  0  0  0  0  0  0
   -4.3461   -6.0913   -6.7922 C   0  0  0  0  0  0  0  0  0  0  0  0
   -3.9455   -6.1685   -8.1285 C   0  0  0  0  0  0  0  0  0  0  0  0
   -2.5956   -5.9957   -8.4540 C   0  0  0  0  0  0  0  0  0  0  0  0
   -1.6477   -5.7527   -7.4590 C   0  0  0  0  0  0  0  0  0  0  0  0
   -4.7625   -6.4043   -9.1996 O   0  0  0  0  0  0  0  0  0  0  0  0
   -6.0777   -6.8661   -8.9176 C   0  0  0  0  0  0  0  0  0  0  0  0
   -0.7098   -2.7451   -4.2050 C   0  0  0  0  0  0  0  0  0  0  0  0
   -1.8237   -1.8907   -4.8100 C   0  0  0  0  0  0  0  0  0  0  0  0
    0.5868   -1.9369   -3.9731 C   0  0  0  0  0  0  0  0  0  0  0  0
    0.9107   -1.4920   -2.5042 C   0  0  0  0  0  0  0  0  0  0  0  0
    0.2191   -2.4323   -1.5035 C   0  0  0  0  0  0  0  0  0  0  0  0
    2.4321   -1.5314   -2.2732 C   0  0  0  0  0  0  0  0  0  0  0  0
    0.3649   -0.0332   -2.3580 C   0  0  0  0  0  0  0  0  0  0  0  0
    0.6845    2.5317   -2.4390 C   0  0  0  0  0  0  0  0  0  0  0  0
    1.3276    1.1576   -2.4707 C   0  0  0  0  0  0  0  0  0  0  0  0
 21 22  1  0
 22 20  1  0
 20 17  1  0
 17 18  1  0
 17 19  1  0
 17 16  1  0
 16 14  1  0
 14 15  1  0
 14  1  1  0
  1  3  1  0
  3  4  2  0
  3  5  2  0
  3  6  1  0
  6  7  2  0
  7  8  1  0
  8  9  2  0
  9 12  1  0
 12 13  1  0
  9 10  1  0
 10 11  2  0
 11  6  1  0
  1  2  1  0
M  END
> <minimizedAffinity>
-6.70336

> <CNNscore>
0.9025567770

> <CNNaffinity>
5.7287731171

> <CNN_VS>
5.1705431938

> <CNNaffinity_variance>
0.1968865991

$$$$



 22 22  0  0  0  0  0  0  0  0999 V2000
   -1.1184   -3.8467   -5.7287 N   0  0  0  0  0  0  0  0  0  0  0  0
   -0.3573   -3.2127   -5.9720 H   0  0  0  0  0  0  0  0  0  0  0  0
   -0.8945   -5.2269   -6.6420 S   0  0  0  0  0  0  0  0  0  0  0  0
   -0.3584   -6.2286   -5.7480 O   0  0  0  0  0  0  0  0  0  0  0  0
   -0.2195   -4.8521   -7.8645 O   0  0  0  0  0  0  0  0  0  0  0  0
   -2.5624   -5.6909   -7.0267 C   0  0  0  0  0  0  0  0  0  0  0  0
   -3.5154   -5.7887   -6.0105 C   0  0  0  0  0  0  0  0  0  0  0  0
   -4.8251   -6.1677   -6.3237 C   0  0  0  0  0  0  0  0  0  0  0  0
   -5.1801   -6.4426   -7.6468 C   0  0  0  0  0  0  0  0  0  0  0  0
   -4.2173   -6.3297   -8.6560 C   0  0  0  0  0  0  0  0  0  0  0  0
   -2.9086   -5.9510   -8.3537 C   0  0  0  0  0  0  0  0  0  0  0  0
   -6.4181   -6.8262   -8.0831 O   0  0  0  0  0  0  0  0  0  0  0  0
   -6.5486   -7.1300   -9.4662 C   0  0  0  0  0  0  0  0  0  0  0  0
   -1.1606   -3.9020   -4.2620 C   0  0  0  0  0  0  0  0  0  0  0  0
   -2.2802   -2.9703   -3.7979 C   0  0  0  0  0  0  0  0  0  0  0  0
    0.2233   -3.4618   -3.7334 C   0  0  0  0  0  0  0  0  0  0  0  0
    0.3711   -1.9824   -3.2335 C   0  0  0  0  0  0  0  0  0  0  0  0
    1.8571   -1.6343   -3.0474 C   0  0  0  0  0  0  0  0  0  0  0  0
   -0.2526   -1.0218   -4.2620 C   0  0  0  0  0  0  0  0  0  0  0  0
   -0.3888   -1.9034   -1.8683 C   0  0  0  0  0  0  0  0  0  0  0  0
   -0.9426   -3.9170   -0.3431 C   0  0  0  0  0  0  0  0  0  0  0  0
    0.0331   -2.8128   -0.7053 C   0  0  0  0  0  0  0  0  0  0  0  0
 21 22  1  0
 22 20  1  0
 20 17  1  0
 17 18  1  0
 17 19  1  0
 17 16  1  0
 16 14  1  0
 14 15  1  0
 14  1  1  0
  1  3  1  0
  3  4  2  0
  3  5  2  0
  3  6  1  0
  6  7  2  0
  7  8  1  0
  8  9  2  0
  9 12  1  0
 12 13  1  0
  9 10  1  0
 10 11  2  0
 11  6  1  0
  1  2  1  0
M  END
> <minimizedAffinity>
-7.32207

> <CNNscore>
0.8966161609

> <CNNaffinity>
6.0537719727

> <CNN_VS>
5.4279098511

> <CNNaffinity_variance>
0.0258812401

$$$$



 22 22  0  0  0  0  0  0  0  0999 V2000
   -7.8593   -7.4416   -7.7226 N   0  0  0  0  0  0  0  0  0  0  0  0
   -7.4113   -8.0471   -7.0349 H   0  0  0  0  0  0  0  0  0  0  0  0
   -6.8898   -7.4719   -9.0822 S   0  0  0  0  0  0  0  0  0  0  0  0
   -7.4904   -6.5657  -10.0353 O   0  0  0  0  0  0  0  0  0  0  0  0
   -6.6157   -8.8537   -9.4078 O   0  0  0  0  0  0  0  0  0  0  0  0
   -5.3989   -6.7152   -8.4908 C   0  0  0  0  0  0  0  0  0  0  0  0
   -5.2265   -6.4781   -7.1253 C   0  0  0  0  0  0  0  0  0  0  0  0
   -4.0518   -5.8692   -6.6712 C   0  0  0  0  0  0  0  0  0  0  0  0
   -3.0534   -5.5040   -7.5779 C   0  0  0  0  0  0  0  0  0  0  0  0
   -3.2352   -5.7579   -8.9419 C   0  0  0  0  0  0  0  0  0  0  0  0
   -4.4031   -6.3660   -9.4044 C   0  0  0  0  0  0  0  0  0  0  0  0
   -1.8668   -4.9000   -7.2656 O   0  0  0  0  0  0  0  0  0  0  0  0
   -1.6396   -4.5955   -5.8952 C   0  0  0  0  0  0  0  0  0  0  0  0
   -9.2681   -7.8510   -7.7820 C   0  0  0  0  0  0  0  0  0  0  0  0
   -9.3647   -9.2565   -7.1887 C   0  0  0  0  0  0  0  0  0  0  0  0
   -9.7094   -7.8096   -9.2625 C   0  0  0  0  0  0  0  0  0  0  0  0
  -10.6623   -8.9490   -9.7669 C   0  0  0  0  0  0  0  0  0  0  0  0
   -9.9745   -9.7586  -10.8783 C   0  0  0  0  0  0  0  0  0  0  0  0
  -11.0158   -9.8858   -8.5977 C   0  0  0  0  0  0  0  0  0  0  0  0
  -11.9434   -8.2379  -10.3150 C   0  0  0  0  0  0  0  0  0  0  0  0
  -14.0373   -8.2173  -11.8326 C   0  0  0  0  0  0  0  0  0  0  0  0
  -12.9717   -9.0368  -11.1287 C   0  0  0  0  0  0  0  0  0  0  0  0
 21 22  1  0
 22 20  1  0
 20 17  1  0
 17 18  1  0
 17 19  1  0
 17 16  1  0
 16 14  1  0
 14 15  1  0
 14  1  1  0
  1  3  1  0
  3  4  2  0
  3  5  2  0
  3  6  1  0
  6  7  2  0
  7  8  1  0
  8  9  2  0
  9 12  1  0
 12 13  1  0
  9 10  1  0
 10 11  2  0
 11  6  1  0
  1  2  1  0
M  END
> <minimizedAffinity>
-7.37989

> <CNNscore>
0.8845613003

> <CNNaffinity>
6.2785391808

> <CNN_VS>
5.5537528992

> <CNNaffinity_variance>
0.2853380740

$$$$



 22 22  0  0  0  0  0  0  0  0999 V2000
   -2.1733   -3.7059   -5.9224 N   0  0  0  0  0  0  0  0  0  0  0  0
   -2.1647   -2.9989   -6.6575 H   0  0  0  0  0  0  0  0  0  0  0  0
   -1.6169   -5.1186   -6.6183 S   0  0  0  0  0  0  0  0  0  0  0  0
   -1.3008   -6.0160   -5.5297 O   0  0  0  0  0  0  0  0  0  0  0  0
   -0.6439   -4.7686   -7.6289 O   0  0  0  0  0  0  0  0  0  0  0  0
   -3.0750   -5.7377   -7.4156 C   0  0  0  0  0  0  0  0  0  0  0  0
   -3.0808   -5.9569   -8.7949 C   0  0  0  0  0  0  0  0  0  0  0  0
   -4.2404   -6.4337   -9.4154 C   0  0  0  0  0  0  0  0  0  0  0  0
   -5.3861   -6.6940   -8.6591 C   0  0  0  0  0  0  0  0  0  0  0  0
   -5.3621   -6.4802   -7.2764 C   0  0  0  0  0  0  0  0  0  0  0  0
   -4.2096   -6.0061   -6.6482 C   0  0  0  0  0  0  0  0  0  0  0  0
   -6.5797   -7.1548   -9.1420 O   0  0  0  0  0  0  0  0  0  0  0  0
   -6.5741   -7.7096  -10.4515 C   0  0  0  0  0  0  0  0  0  0  0  0
   -1.4968   -3.1093   -4.7638 C   0  0  0  0  0  0  0  0  0  0  0  0
   -2.0651   -3.7700   -3.5079 C   0  0  0  0  0  0  0  0  0  0  0  0
   -1.7622   -1.5871   -4.7949 C   0  0  0  0  0  0  0  0  0  0  0  0
   -0.8674   -0.6767   -3.8834 C   0  0  0  0  0  0  0  0  0  0  0  0
   -1.5528   -0.4536   -2.5253 C   0  0  0  0  0  0  0  0  0  0  0  0
    0.4995   -1.3485   -3.6604 C   0  0  0  0  0  0  0  0  0  0  0  0
   -0.7015    0.6789   -4.6465 C   0  0  0  0  0  0  0  0  0  0  0  0
   -1.8095    2.8708   -3.8368 C   0  0  0  0  0  0  0  0  0  0  0  0
   -0.5743    1.9896   -3.8568 C   0  0  0  0  0  0  0  0  0  0  0  0
 21 22  1  0
 22 20  1  0
 20 17  1  0
 17 18  1  0
 17 19  1  0
 17 16  1  0
 16 14  1  0
 14 15  1  0
 14  1  1  0
  1  3  1  0
  3  4  2  0
  3  5  2  0
  3  6  1  0
  6  7  2  0
  7  8  1  0
  8  9  2  0
  9 12  1  0
 12 13  1  0
  9 10  1  0
 10 11  2  0
 11  6  1  0
  1  2  1  0
M  END
> <minimizedAffinity>
-7.63840

> <CNNscore>
0.8608022928

> <CNNaffinity>
5.4775810242

> <CNN_VS>
4.7151141167

> <CNNaffinity_variance>
0.6485113502

$$$$



 22 22  0  0  0  0  0  0  0  0999 V2000
   -1.9347   -3.8055   -5.9739 N   0  0  0  0  0  0  0  0  0  0  0  0
   -1.8685   -3.0606   -6.6675 H   0  0  0  0  0  0  0  0  0  0  0  0
   -1.4958   -5.2166   -6.7521 S   0  0  0  0  0  0  0  0  0  0  0  0
   -1.1187   -6.1552   -5.7191 O   0  0  0  0  0  0  0  0  0  0  0  0
   -0.6036   -4.8727   -7.8367 O   0  0  0  0  0  0  0  0  0  0  0  0
   -3.0411   -5.7609   -7.4311 C   0  0  0  0  0  0  0  0  0  0  0  0
   -4.1330   -5.9933   -6.5919 C   0  0  0  0  0  0  0  0  0  0  0  0
   -5.3435   -6.4345   -7.1369 C   0  0  0  0  0  0  0  0  0  0  0  0
   -5.4619   -6.6375   -8.5142 C   0  0  0  0  0  0  0  0  0  0  0  0
   -4.3627   -6.3899   -9.3440 C   0  0  0  0  0  0  0  0  0  0  0  0
   -3.1514   -5.9483   -8.8099 C   0  0  0  0  0  0  0  0  0  0  0  0
   -6.5820   -7.0698   -9.1690 O   0  0  0  0  0  0  0  0  0  0  0  0
   -6.3887   -7.7046  -10.4268 C   0  0  0  0  0  0  0  0  0  0  0  0
   -1.2114   -3.3335   -4.7864 C   0  0  0  0  0  0  0  0  0  0  0  0
   -1.7757   -4.0787   -3.5769 C   0  0  0  0  0  0  0  0  0  0  0  0
   -1.4214   -1.8059   -4.6825 C   0  0  0  0  0  0  0  0  0  0  0  0
   -0.5510   -1.0242   -3.6376 C   0  0  0  0  0  0  0  0  0  0  0  0
   -0.3284    0.4212   -4.1123 C   0  0  0  0  0  0  0  0  0  0  0  0
   -1.2655   -1.0088   -2.2742 C   0  0  0  0  0  0  0  0  0  0  0  0
    0.8104   -1.7890   -3.5420 C   0  0  0  0  0  0  0  0  0  0  0  0
    3.1352   -1.3012   -2.5195 C   0  0  0  0  0  0  0  0  0  0  0  0
    1.6777   -1.6506   -2.2824 C   0  0  0  0  0  0  0  0  0  0  0  0
 21 22  1  0
 22 20  1  0
 20 17  1  0
 17 18  1  0
 17 19  1  0
 17 16  1  0
 16 14  1  0
 14 15  1  0
 14  1  1  0
  1  3  1  0
  3  4  2  0
  3  5  2  0
  3  6  1  0
  6  7  2  0
  7  8  1  0
  8  9  2  0
  9 12  1  0
 12 13  1  0
  9 10  1  0
 10 11  2  0
 11  6  1  0
  1  2  1  0
M  END
> <minimizedAffinity>
-7.50857

> <CNNscore>
0.8550728559

> <CNNaffinity>
5.6562705040

> <CNN_VS>
4.8365235329

> <CNNaffinity_variance>
0.2086663395

$$$$



 22 22  0  0  0  0  0  0  0  0999 V2000
   -0.1668   -7.5456   -4.7591 N   0  0  0  0  0  0  0  0  0  0  0  0
   -0.0224   -7.9249   -5.6949 H   0  0  0  0  0  0  0  0  0  0  0  0
   -0.5823   -5.9403   -4.9583 S   0  0  0  0  0  0  0  0  0  0  0  0
    0.4547   -5.3455   -5.7715 O   0  0  0  0  0  0  0  0  0  0  0  0
   -0.9413   -5.4052   -3.6640 O   0  0  0  0  0  0  0  0  0  0  0  0
   -2.0436   -6.0572   -5.9562 C   0  0  0  0  0  0  0  0  0  0  0  0
   -1.9374   -6.2223   -7.3390 C   0  0  0  0  0  0  0  0  0  0  0  0
   -3.0967   -6.3007   -8.1180 C   0  0  0  0  0  0  0  0  0  0  0  0
   -4.3550   -6.2192   -7.5161 C   0  0  0  0  0  0  0  0  0  0  0  0
   -4.4461   -6.0649   -6.1283 C   0  0  0  0  0  0  0  0  0  0  0  0
   -3.2953   -5.9870   -5.3426 C   0  0  0  0  0  0  0  0  0  0  0  0
   -5.5593   -6.2762   -8.1616 O   0  0  0  0  0  0  0  0  0  0  0  0
   -5.5656   -6.8451   -9.4649 C   0  0  0  0  0  0  0  0  0  0  0  0
   -1.0579   -8.4828   -4.0636 C   0  0  0  0  0  0  0  0  0  0  0  0
   -0.6431   -8.5072   -2.5925 C   0  0  0  0  0  0  0  0  0  0  0  0
   -0.9065   -9.8655   -4.7369 C   0  0  0  0  0  0  0  0  0  0  0  0
   -1.1686  -11.1346   -3.8531 C   0  0  0  0  0  0  0  0  0  0  0  0
   -0.1988  -11.1562   -2.6601 C   0  0  0  0  0  0  0  0  0  0  0  0
   -2.6171  -11.1148   -3.3325 C   0  0  0  0  0  0  0  0  0  0  0  0
   -0.9292  -12.3714   -4.7807 C   0  0  0  0  0  0  0  0  0  0  0  0
   -0.2196  -13.2483   -7.1078 C   0  0  0  0  0  0  0  0  0  0  0  0
   -0.9712  -12.2018   -6.3062 C   0  0  0  0  0  0  0  0  0  0  0  0
 21 22  1  0
 22 20  1  0
 20 17  1  0
 17 18  1  0
 17 19  1  0
 17 16  1  0
 16 14  1  0
 14 15  1  0
 14  1  1  0
  1  3  1  0
  3  4  2  0
  3  5  2  0
  3  6  1  0
  6  7  2  0
  7  8  1  0
  8  9  2  0
  9 12  1  0
 12 13  1  0
  9 10  1  0
 10 11  2  0
 11  6  1  0
  1  2  1  0
M  END
> <minimizedAffinity>
-6.86767

> <CNNscore>
0.6907421947

> <CNNaffinity>
5.2197265625

> <CNN_VS>
3.6054854393

> <CNNaffinity_variance>
0.2273232192

$$$$



 22 22  0  0  0  0  0  0  0  0999 V2000
   -1.7174   -5.7236   -2.6058 N   0  0  0  0  0  0  0  0  0  0  0  0
   -2.5948   -6.1710   -2.3405 H   0  0  0  0  0  0  0  0  0  0  0  0
   -0.8782   -5.4506   -1.1879 S   0  0  0  0  0  0  0  0  0  0  0  0
   -0.3482   -4.1083   -1.2761 O   0  0  0  0  0  0  0  0  0  0  0  0
   -0.0285   -6.5943   -0.9414 O   0  0  0  0  0  0  0  0  0  0  0  0
   -2.1805   -5.4335    0.0158 C   0  0  0  0  0  0  0  0  0  0  0  0
   -2.6699   -4.2194    0.5025 C   0  0  0  0  0  0  0  0  0  0  0  0
   -3.6887   -4.2180    1.4611 C   0  0  0  0  0  0  0  0  0  0  0  0
   -4.2180   -5.4245    1.9263 C   0  0  0  0  0  0  0  0  0  0  0  0
   -3.7255   -6.6330    1.4214 C   0  0  0  0  0  0  0  0  0  0  0  0
   -2.7102   -6.6447    0.4640 C   0  0  0  0  0  0  0  0  0  0  0  0
   -5.2071   -5.5603    2.8609 O   0  0  0  0  0  0  0  0  0  0  0  0
   -5.5625   -4.3966    3.5970 C   0  0  0  0  0  0  0  0  0  0  0  0
   -1.1452   -6.5379   -3.6853 C   0  0  0  0  0  0  0  0  0  0  0  0
   -0.0295   -5.7209   -4.3368 C   0  0  0  0  0  0  0  0  0  0  0  0
   -2.2819   -6.8713   -4.6779 C   0  0  0  0  0  0  0  0  0  0  0  0
   -2.7869   -5.7192   -5.6149 C   0  0  0  0  0  0  0  0  0  0  0  0
   -4.2849   -5.8986   -5.9114 C   0  0  0  0  0  0  0  0  0  0  0  0
   -2.5617   -4.3580   -4.9321 C   0  0  0  0  0  0  0  0  0  0  0  0
   -1.9478   -5.8253   -6.9310 C   0  0  0  0  0  0  0  0  0  0  0  0
   -3.1028   -6.4961   -9.1455 C   0  0  0  0  0  0  0  0  0  0  0  0
   -2.5624   -5.3831   -8.2668 C   0  0  0  0  0  0  0  0  0  0  0  0
 21 22  1  0
 22 20  1  0
 20 17  1  0
 17 18  1  0
 17 19  1  0
 17 16  1  0
 16 14  1  0
 14 15  1  0
 14  1  1  0
  1  3  1  0
  3  4  2  0
  3  5  2  0
  3  6  1  0
  6  7  2  0
  7  8  1  0
  8  9  2  0
  9 12  1  0
 12 13  1  0
  9 10  1  0
 10 11  2  0
 11  6  1  0
  1  2  1  0
M  END
> <minimizedAffinity>
-4.99329

> <CNNscore>
0.5800231099

> <CNNaffinity>
5.1974797249

> <CNN_VS>
3.0146584511

> <CNNaffinity_variance>
0.6702939868

$$$$



 22 22  0  0  0  0  0  0  0  0999 V2000
   -1.4038   -6.1851   -4.5473 N   0  0  0  0  0  0  0  0  0  0  0  0
   -1.3468   -5.6392   -3.6876 H   0  0  0  0  0  0  0  0  0  0  0  0
   -1.2633   -5.0984   -5.8078 S   0  0  0  0  0  0  0  0  0  0  0  0
    0.0002   -5.3781   -6.4524 O   0  0  0  0  0  0  0  0  0  0  0  0
   -1.5917   -3.7829   -5.3055 O   0  0  0  0  0  0  0  0  0  0  0  0
   -2.5521   -5.6326   -6.9026 C   0  0  0  0  0  0  0  0  0  0  0  0
   -3.8332   -5.8857   -6.4073 C   0  0  0  0  0  0  0  0  0  0  0  0
   -4.8390   -6.3188   -7.2777 C   0  0  0  0  0  0  0  0  0  0  0  0
   -4.5656   -6.4930   -8.6369 C   0  0  0  0  0  0  0  0  0  0  0  0
   -3.2803   -6.2249   -9.1208 C   0  0  0  0  0  0  0  0  0  0  0  0
   -2.2706   -5.7913   -8.2605 C   0  0  0  0  0  0  0  0  0  0  0  0
   -5.4540   -6.9146   -9.5872 O   0  0  0  0  0  0  0  0  0  0  0  0
   -6.6929   -7.4376   -9.1245 C   0  0  0  0  0  0  0  0  0  0  0  0
   -0.4615   -7.3008   -4.3945 C   0  0  0  0  0  0  0  0  0  0  0  0
   -1.2645   -8.5982   -4.4893 C   0  0  0  0  0  0  0  0  0  0  0  0
    0.2370   -7.1441   -3.0249 C   0  0  0  0  0  0  0  0  0  0  0  0
   -0.4895   -7.7393   -1.7685 C   0  0  0  0  0  0  0  0  0  0  0  0
   -1.7899   -6.9657   -1.4953 C   0  0  0  0  0  0  0  0  0  0  0  0
   -0.8205   -9.2224   -2.0140 C   0  0  0  0  0  0  0  0  0  0  0  0
    0.5064   -7.5836   -0.5721 C   0  0  0  0  0  0  0  0  0  0  0  0
    2.8424   -8.1779    0.3648 C   0  0  0  0  0  0  0  0  0  0  0  0
    1.5785   -8.6550   -0.3262 C   0  0  0  0  0  0  0  0  0  0  0  0
 21 22  1  0
 22 20  1  0
 20 17  1  0
 17 18  1  0
 17 19  1  0
 17 16  1  0
 16 14  1  0
 14 15  1  0
 14  1  1  0
  1  3  1  0
  3  4  2  0
  3  5  2  0
  3  6  1  0
  6  7  2  0
  7  8  1  0
  8  9  2  0
  9 12  1  0
 12 13  1  0
  9 10  1  0
 10 11  2  0
 11  6  1  0
  1  2  1  0
M  END
> <minimizedAffinity>
-6.61089

> <CNNscore>
0.5763561726

> <CNNaffinity>
5.1029434204

> <CNN_VS>
2.9411129951

> <CNNaffinity_variance>
0.2489615530

$$$$
