


 24 26  0  0  0  0  0  0  0  0999 V2000
  112.3787  135.0480   62.1046 C   0  0  0  0  0  0  0  0  0  0  0  0
  111.1741  135.7711   62.0171 C   0  0  0  0  0  0  0  0  0  0  0  0
  111.1684  137.1433   62.2015 C   0  0  0  0  0  0  0  0  0  0  0  0
  112.3614  137.7970   62.4757 C   0  0  0  0  0  0  0  0  0  0  0  0
  113.5760  137.0991   62.5712 C   0  0  0  0  0  0  0  0  0  0  0  0
  114.7285  137.8464   62.8525 C   0  0  0  0  0  0  0  0  0  0  0  0
  115.9689  137.2395   62.9724 C   0  0  0  0  0  0  0  0  0  0  0  0
  116.0723  135.8686   62.8033 C   0  0  0  0  0  0  0  0  0  0  0  0
  114.9447  135.0806   62.5003 C   0  0  0  0  0  0  0  0  0  0  0  0
  113.6365  135.6847   62.3906 C   0  0  0  0  0  0  0  0  0  0  0  0
  112.7360  132.9658   60.5421 O   0  0  0  0  0  0  0  0  0  0  0  0
  112.2503  133.2896   61.8650 S   0  0  0  0  0  0  0  0  0  0  0  0
  112.7308  132.6289   63.0630 O   0  0  0  0  0  0  0  0  0  0  0  0
  110.6696  132.9642   61.7903 O   0  0  0  0  0  0  0  0  0  0  0  0
  110.5414  132.0116   61.6594 H   0  0  0  0  0  0  0  0  0  0  0  0
  115.1182  133.6801   62.3704 N   0  0  0  0  0  0  0  0  0  0  0  0
  114.2966  133.1744   62.1738 H   0  0  0  0  0  0  0  0  0  0  0  0
  116.2881  132.9001   62.4798 C   0  0  0  0  0  0  0  0  0  0  0  0
  116.2655  131.5024   62.3837 C   0  0  0  0  0  0  0  0  0  0  0  0
  117.4369  130.7523   62.5270 C   0  0  0  0  0  0  0  0  0  0  0  0
  118.6422  131.3985   62.7853 C   0  0  0  0  0  0  0  0  0  0  0  0
  120.2275  130.3885   62.9810 Br  0  0  0  0  0  0  0  0  0  0  0  0
  118.6839  132.7841   62.9109 C   0  0  0  0  0  0  0  0  0  0  0  0
  117.5086  133.5279   62.7671 C   0  0  0  0  0  0  0  0  0  0  0  0
 11 12  2  0
 12 13  2  0
 12 14  1  0
 12  1  1  0
  1  2  2  0
  2  3  1  0
  3  4  2  0
  4  5  1  0
  5  6  2  0
  6  7  1  0
  7  8  2  0
  8  9  1  0
  9 16  1  0
 16 18  1  0
 18 19  2  0
 19 20  1  0
 20 21  2  0
 21 22  1  0
 21 23  1  0
 23 24  2  0
  9 10  2  0
 10  1  1  0
 10  5  1  0
 24 18  1  0
 14 15  1  0
 16 17  1  0
M  END
> <minimizedAffinity>
-10.16394

> <CNNscore>
0.9491719604

> <CNNaffinity>
6.4217743874

> <CNN_VS>
6.0953683853

> <CNNaffinity_variance>
0.1110668555

$$$$



 24 26  0  0  0  0  0  0  0  0999 V2000
  112.4163  134.8073   61.9795 C   0  0  0  0  0  0  0  0  0  0  0  0
  111.1859  135.4679   61.8022 C   0  0  0  0  0  0  0  0  0  0  0  0
  111.0957  136.8371   61.9863 C   0  0  0  0  0  0  0  0  0  0  0  0
  112.2295  137.5502   62.3493 C   0  0  0  0  0  0  0  0  0  0  0  0
  113.4679  136.9152   62.5355 C   0  0  0  0  0  0  0  0  0  0  0  0
  114.5560  137.7195   62.9026 C   0  0  0  0  0  0  0  0  0  0  0  0
  115.8136  137.1767   63.1150 C   0  0  0  0  0  0  0  0  0  0  0  0
  116.0000  135.8137   62.9536 C   0  0  0  0  0  0  0  0  0  0  0  0
  114.9403  134.9701   62.5665 C   0  0  0  0  0  0  0  0  0  0  0  0
  113.6146  135.5066   62.3593 C   0  0  0  0  0  0  0  0  0  0  0  0
  111.0229  132.6071   61.6301 O   0  0  0  0  0  0  0  0  0  0  0  0
  112.3971  133.0457   61.7302 S   0  0  0  0  0  0  0  0  0  0  0  0
  113.4031  132.7132   60.7403 O   0  0  0  0  0  0  0  0  0  0  0  0
  112.9143  132.3938   63.1151 O   0  0  0  0  0  0  0  0  0  0  0  0
  112.9235  131.4273   63.0339 H   0  0  0  0  0  0  0  0  0  0  0  0
  115.1950  133.5808   62.4494 N   0  0  0  0  0  0  0  0  0  0  0  0
  114.4172  133.0342   62.1938 H   0  0  0  0  0  0  0  0  0  0  0  0
  116.3928  132.8619   62.6433 C   0  0  0  0  0  0  0  0  0  0  0  0
  117.5397  133.4546   63.1878 C   0  0  0  0  0  0  0  0  0  0  0  0
  118.7233  132.7257   63.3400 C   0  0  0  0  0  0  0  0  0  0  0  0
  118.7717  131.3963   62.9309 C   0  0  0  0  0  0  0  0  0  0  0  0
  120.3696  130.4077   63.1335 Br  0  0  0  0  0  0  0  0  0  0  0  0
  117.6523  130.7945   62.3632 C   0  0  0  0  0  0  0  0  0  0  0  0
  116.4723  131.5296   62.2132 C   0  0  0  0  0  0  0  0  0  0  0  0
 11 12  2  0
 12 13  2  0
 12 14  1  0
 12  1  1  0
  1  2  2  0
  2  3  1  0
  3  4  2  0
  4  5  1  0
  5  6  2  0
  6  7  1  0
  7  8  2  0
  8  9  1  0
  9 16  1  0
 16 18  1  0
 18 19  2  0
 19 20  1  0
 20 21  2  0
 21 22  1  0
 21 23  1  0
 23 24  2  0
  9 10  2  0
 10  1  1  0
 10  5  1  0
 24 18  1  0
 14 15  1  0
 16 17  1  0
M  END
> <minimizedAffinity>
-10.03774

> <CNNscore>
0.9275313616

> <CNNaffinity>
6.4097542763

> <CNN_VS>
5.9452481270

> <CNNaffinity_variance>
0.0553017557

$$$$



 24 26  0  0  0  0  0  0  0  0999 V2000
  112.4027  134.6302   61.9235 C   0  0  0  0  0  0  0  0  0  0  0  0
  111.0469  134.5648   61.5505 C   0  0  0  0  0  0  0  0  0  0  0  0
  110.2806  135.7167   61.4985 C   0  0  0  0  0  0  0  0  0  0  0  0
  110.8623  136.9349   61.8201 C   0  0  0  0  0  0  0  0  0  0  0  0
  112.2114  137.0274   62.1982 C   0  0  0  0  0  0  0  0  0  0  0  0
  112.7089  138.3017   62.5054 C   0  0  0  0  0  0  0  0  0  0  0  0
  114.0262  138.4857   62.8955 C   0  0  0  0  0  0  0  0  0  0  0  0
  114.8692  137.3895   62.9756 C   0  0  0  0  0  0  0  0  0  0  0  0
  114.4181  136.0935   62.6574 C   0  0  0  0  0  0  0  0  0  0  0  0
  113.0443  135.8706   62.2685 C   0  0  0  0  0  0  0  0  0  0  0  0
  114.2705  133.0775   60.9209 O   0  0  0  0  0  0  0  0  0  0  0  0
  113.2736  133.0793   61.9683 S   0  0  0  0  0  0  0  0  0  0  0  0
  113.5840  132.7691   63.3503 O   0  0  0  0  0  0  0  0  0  0  0  0
  112.2108  131.9575   61.4966 O   0  0  0  0  0  0  0  0  0  0  0  0
  112.6365  131.0860   61.5028 H   0  0  0  0  0  0  0  0  0  0  0  0
  115.3264  135.0138   62.7905 N   0  0  0  0  0  0  0  0  0  0  0  0
  115.0295  134.1667   62.3861 H   0  0  0  0  0  0  0  0  0  0  0  0
  116.5905  134.9675   63.4140 C   0  0  0  0  0  0  0  0  0  0  0  0
  117.5612  134.0192   63.0648 C   0  0  0  0  0  0  0  0  0  0  0  0
  118.7950  133.9771   63.7214 C   0  0  0  0  0  0  0  0  0  0  0  0
  119.0606  134.8780   64.7484 C   0  0  0  0  0  0  0  0  0  0  0  0
  120.7263  134.8238   65.6395 Br  0  0  0  0  0  0  0  0  0  0  0  0
  118.1013  135.8116   65.1299 C   0  0  0  0  0  0  0  0  0  0  0  0
  116.8693  135.8476   64.4695 C   0  0  0  0  0  0  0  0  0  0  0  0
 11 12  2  0
 12 13  2  0
 12 14  1  0
 12  1  1  0
  1  2  2  0
  2  3  1  0
  3  4  2  0
  4  5  1  0
  5  6  2  0
  6  7  1  0
  7  8  2  0
  8  9  1  0
  9 16  1  0
 16 18  1  0
 18 19  2  0
 19 20  1  0
 20 21  2  0
 21 22  1  0
 21 23  1  0
 23 24  2  0
  9 10  2  0
 10  1  1  0
 10  5  1  0
 24 18  1  0
 14 15  1  0
 16 17  1  0
M  END
> <minimizedAffinity>
-8.92671

> <CNNscore>
0.7987273335

> <CNNaffinity>
6.0090198517

> <CNN_VS>
4.7995681763

> <CNNaffinity_variance>
0.0466408543

$$$$



 24 26  0  0  0  0  0  0  0  0999 V2000
  115.5227  133.9391   62.0965 C   0  0  0  0  0  0  0  0  0  0  0  0
  114.2312  134.4757   61.9357 C   0  0  0  0  0  0  0  0  0  0  0  0
  113.8124  135.5353   62.7222 C   0  0  0  0  0  0  0  0  0  0  0  0
  114.6778  136.0607   63.6714 C   0  0  0  0  0  0  0  0  0  0  0  0
  115.9698  135.5421   63.8541 C   0  0  0  0  0  0  0  0  0  0  0  0
  116.7706  136.1386   64.8382 C   0  0  0  0  0  0  0  0  0  0  0  0
  118.0561  135.6864   65.0921 C   0  0  0  0  0  0  0  0  0  0  0  0
  118.5616  134.6295   64.3533 C   0  0  0  0  0  0  0  0  0  0  0  0
  117.8001  134.0127   63.3413 C   0  0  0  0  0  0  0  0  0  0  0  0
  116.4498  134.4503   63.0704 C   0  0  0  0  0  0  0  0  0  0  0  0
  116.3191  131.4460   61.8628 O   0  0  0  0  0  0  0  0  0  0  0  0
  115.9340  132.5694   61.0380 S   0  0  0  0  0  0  0  0  0  0  0  0
  114.9252  132.4745   60.0007 O   0  0  0  0  0  0  0  0  0  0  0  0
  117.3003  132.9846   60.2823 O   0  0  0  0  0  0  0  0  0  0  0  0
  117.5716  132.2678   59.6878 H   0  0  0  0  0  0  0  0  0  0  0  0
  118.3688  132.9169   62.6452 N   0  0  0  0  0  0  0  0  0  0  0  0
  117.9640  132.7240   61.7688 H   0  0  0  0  0  0  0  0  0  0  0  0
  119.4261  132.0606   63.0165 C   0  0  0  0  0  0  0  0  0  0  0  0
  120.6115  132.5419   63.5877 C   0  0  0  0  0  0  0  0  0  0  0  0
  121.6561  131.6728   63.9176 C   0  0  0  0  0  0  0  0  0  0  0  0
  121.5268  130.3109   63.6614 C   0  0  0  0  0  0  0  0  0  0  0  0
  122.9365  129.1328   64.1044 Br  0  0  0  0  0  0  0  0  0  0  0  0
  120.3687  129.8138   63.0704 C   0  0  0  0  0  0  0  0  0  0  0  0
  119.3285  130.6888   62.7425 C   0  0  0  0  0  0  0  0  0  0  0  0
 11 12  2  0
 12 13  2  0
 12 14  1  0
 12  1  1  0
  1  2  2  0
  2  3  1  0
  3  4  2  0
  4  5  1  0
  5  6  2  0
  6  7  1  0
  7  8  2  0
  8  9  1  0
  9 16  1  0
 16 18  1  0
 18 19  2  0
 19 20  1  0
 20 21  2  0
 21 22  1  0
 21 23  1  0
 23 24  2  0
  9 10  2  0
 10  1  1  0
 10  5  1  0
 24 18  1  0
 14 15  1  0
 16 17  1  0
M  END
> <minimizedAffinity>
-8.93405

> <CNNscore>
0.6717939377

> <CNNaffinity>
5.5085215569

> <CNN_VS>
3.7005913258

> <CNNaffinity_variance>
0.1802525073

$$$$



 24 26  0  0  0  0  0  0  0  0999 V2000
  116.1666  133.9746   62.3664 C   0  0  0  0  0  0  0  0  0  0  0  0
  114.9820  134.6802   62.0823 C   0  0  0  0  0  0  0  0  0  0  0  0
  114.6735  135.8358   62.7794 C   0  0  0  0  0  0  0  0  0  0  0  0
  115.5424  136.2893   63.7618 C   0  0  0  0  0  0  0  0  0  0  0  0
  116.7286  135.6028   64.0668 C   0  0  0  0  0  0  0  0  0  0  0  0
  117.5421  136.1380   65.0756 C   0  0  0  0  0  0  0  0  0  0  0  0
  118.7270  135.5225   65.4475 C   0  0  0  0  0  0  0  0  0  0  0  0
  119.1184  134.3599   64.8042 C   0  0  0  0  0  0  0  0  0  0  0  0
  118.3427  133.7972   63.7717 C   0  0  0  0  0  0  0  0  0  0  0  0
  117.0927  134.4067   63.3788 C   0  0  0  0  0  0  0  0  0  0  0  0
  117.5940  132.6988   60.5665 O   0  0  0  0  0  0  0  0  0  0  0  0
  116.4399  132.4968   61.4140 S   0  0  0  0  0  0  0  0  0  0  0  0
  116.3012  131.3532   62.2947 O   0  0  0  0  0  0  0  0  0  0  0  0
  115.2059  132.4010   60.3756 O   0  0  0  0  0  0  0  0  0  0  0  0
  115.3056  131.6072   59.8272 H   0  0  0  0  0  0  0  0  0  0  0  0
  118.7878  132.5899   63.1778 N   0  0  0  0  0  0  0  0  0  0  0  0
  118.1678  132.1933   62.5240 H   0  0  0  0  0  0  0  0  0  0  0  0
  119.9835  131.8700   63.3803 C   0  0  0  0  0  0  0  0  0  0  0  0
  120.0593  130.4824   63.2011 C   0  0  0  0  0  0  0  0  0  0  0  0
  121.2506  129.7900   63.4391 C   0  0  0  0  0  0  0  0  0  0  0  0
  122.3755  130.4834   63.8762 C   0  0  0  0  0  0  0  0  0  0  0  0
  123.9873  129.5515   64.2005 Br  0  0  0  0  0  0  0  0  0  0  0  0
  122.3161  131.8581   64.0862 C   0  0  0  0  0  0  0  0  0  0  0  0
  121.1213  132.5439   63.8469 C   0  0  0  0  0  0  0  0  0  0  0  0
 11 12  2  0
 12 13  2  0
 12 14  1  0
 12  1  1  0
  1  2  2  0
  2  3  1  0
  3  4  2  0
  4  5  1  0
  5  6  2  0
  6  7  1  0
  7  8  2  0
  8  9  1  0
  9 16  1  0
 16 18  1  0
 18 19  2  0
 19 20  1  0
 20 21  2  0
 21 22  1  0
 21 23  1  0
 23 24  2  0
  9 10  2  0
 10  1  1  0
 10  5  1  0
 24 18  1  0
 14 15  1  0
 16 17  1  0
M  END
> <minimizedAffinity>
-8.80158

> <CNNscore>
0.6289239526

> <CNNaffinity>
5.3588576317

> <CNN_VS>
3.3703138828

> <CNNaffinity_variance>
0.3971115053

$$$$



 24 26  0  0  0  0  0  0  0  0999 V2000
  114.3664  133.6829   61.9132 C   0  0  0  0  0  0  0  0  0  0  0  0
  114.8209  132.3907   61.5886 C   0  0  0  0  0  0  0  0  0  0  0  0
  116.1105  132.0029   61.9100 C   0  0  0  0  0  0  0  0  0  0  0  0
  116.9501  132.9016   62.5526 C   0  0  0  0  0  0  0  0  0  0  0  0
  116.5227  134.1972   62.8848 C   0  0  0  0  0  0  0  0  0  0  0  0
  117.4431  135.0335   63.5323 C   0  0  0  0  0  0  0  0  0  0  0  0
  117.1098  136.3305   63.8902 C   0  0  0  0  0  0  0  0  0  0  0  0
  115.8398  136.8065   63.6092 C   0  0  0  0  0  0  0  0  0  0  0  0
  114.8764  135.9955   62.9779 C   0  0  0  0  0  0  0  0  0  0  0  0
  115.2041  134.6469   62.5751 C   0  0  0  0  0  0  0  0  0  0  0  0
  112.2830  133.1274   60.4113 O   0  0  0  0  0  0  0  0  0  0  0  0
  112.6965  134.0645   61.4319 S   0  0  0  0  0  0  0  0  0  0  0  0
  111.9209  134.3142   62.6313 O   0  0  0  0  0  0  0  0  0  0  0  0
  112.7687  135.4796   60.6555 O   0  0  0  0  0  0  0  0  0  0  0  0
  111.8784  135.7369   60.3689 H   0  0  0  0  0  0  0  0  0  0  0  0
  113.6067  136.5570   62.6935 N   0  0  0  0  0  0  0  0  0  0  0  0
  113.0081  135.9859   62.1598 H   0  0  0  0  0  0  0  0  0  0  0  0
  113.0697  137.8090   63.0582 C   0  0  0  0  0  0  0  0  0  0  0  0
  111.7255  137.9683   63.4200 C   0  0  0  0  0  0  0  0  0  0  0  0
  111.2127  139.2274   63.7473 C   0  0  0  0  0  0  0  0  0  0  0  0
  112.0424  140.3438   63.6984 C   0  0  0  0  0  0  0  0  0  0  0  0
  111.3533  142.0475   64.1386 Br  0  0  0  0  0  0  0  0  0  0  0  0
  113.3745  140.2132   63.3163 C   0  0  0  0  0  0  0  0  0  0  0  0
  113.8804  138.9512   62.9896 C   0  0  0  0  0  0  0  0  0  0  0  0
 11 12  2  0
 12 13  2  0
 12 14  1  0
 12  1  1  0
  1  2  2  0
  2  3  1  0
  3  4  2  0
  4  5  1  0
  5  6  2  0
  6  7  1  0
  7  8  2  0
  8  9  1  0
  9 16  1  0
 16 18  1  0
 18 19  2  0
 19 20  1  0
 20 21  2  0
 21 22  1  0
 21 23  1  0
 23 24  2  0
  9 10  2  0
 10  1  1  0
 10  5  1  0
 24 18  1  0
 14 15  1  0
 16 17  1  0
M  END
> <minimizedAffinity>
-6.53018

> <CNNscore>
0.6118370295

> <CNNaffinity>
5.5996761322

> <CNN_VS>
3.4260892868

> <CNNaffinity_variance>
0.2537456751

$$$$



 24 26  0  0  0  0  0  0  0  0999 V2000
  116.7461  133.8175   62.3377 C   0  0  0  0  0  0  0  0  0  0  0  0
  115.6104  134.5433   61.9314 C   0  0  0  0  0  0  0  0  0  0  0  0
  115.2454  135.7000   62.5988 C   0  0  0  0  0  0  0  0  0  0  0  0
  116.0090  136.1345   63.6730 C   0  0  0  0  0  0  0  0  0  0  0  0
  117.1445  135.4276   64.1003 C   0  0  0  0  0  0  0  0  0  0  0  0
  117.8514  135.9445   65.1953 C   0  0  0  0  0  0  0  0  0  0  0  0
  118.9793  135.3083   65.6895 C   0  0  0  0  0  0  0  0  0  0  0  0
  119.4206  134.1431   65.0845 C   0  0  0  0  0  0  0  0  0  0  0  0
  118.7534  133.5982   63.9699 C   0  0  0  0  0  0  0  0  0  0  0  0
  117.5631  134.2295   63.4477 C   0  0  0  0  0  0  0  0  0  0  0  0
  117.2257  131.2340   62.3323 O   0  0  0  0  0  0  0  0  0  0  0  0
  117.0989  132.3406   61.4103 S   0  0  0  0  0  0  0  0  0  0  0  0
  116.2228  132.3058   60.2554 O   0  0  0  0  0  0  0  0  0  0  0  0
  118.5914  132.5300   60.8212 O   0  0  0  0  0  0  0  0  0  0  0  0
  118.8362  131.7474   60.3031 H   0  0  0  0  0  0  0  0  0  0  0  0
  119.2421  132.3871   63.4195 N   0  0  0  0  0  0  0  0  0  0  0  0
  118.6315  131.9382   62.7911 H   0  0  0  0  0  0  0  0  0  0  0  0
  120.4697  131.7269   63.6345 C   0  0  0  0  0  0  0  0  0  0  0  0
  121.6605  132.4245   63.8764 C   0  0  0  0  0  0  0  0  0  0  0  0
  122.8692  131.7446   64.0555 C   0  0  0  0  0  0  0  0  0  0  0  0
  122.8969  130.3553   63.9768 C   0  0  0  0  0  0  0  0  0  0  0  0
  124.5285  129.4323   64.2168 Br  0  0  0  0  0  0  0  0  0  0  0  0
  121.7309  129.6430   63.7113 C   0  0  0  0  0  0  0  0  0  0  0  0
  120.5259  130.3295   63.5325 C   0  0  0  0  0  0  0  0  0  0  0  0
 11 12  2  0
 12 13  2  0
 12 14  1  0
 12  1  1  0
  1  2  2  0
  2  3  1  0
  3  4  2  0
  4  5  1  0
  5  6  2  0
  6  7  1  0
  7  8  2  0
  8  9  1  0
  9 16  1  0
 16 18  1  0
 18 19  2  0
 19 20  1  0
 20 21  2  0
 21 22  1  0
 21 23  1  0
 23 24  2  0
  9 10  2  0
 10  1  1  0
 10  5  1  0
 24 18  1  0
 14 15  1  0
 16 17  1  0
M  END
> <minimizedAffinity>
-8.56095

> <CNNscore>
0.5462216139

> <CNNaffinity>
5.0647034645

> <CNN_VS>
2.7664504051

> <CNNaffinity_variance>
0.5472888350

$$$$



 24 26  0  0  0  0  0  0  0  0999 V2000
  123.4790  133.1606   64.9507 C   0  0  0  0  0  0  0  0  0  0  0  0
  124.7642  132.7600   65.3626 C   0  0  0  0  0  0  0  0  0  0  0  0
  125.1336  131.4272   65.3003 C   0  0  0  0  0  0  0  0  0  0  0  0
  124.2234  130.4910   64.8302 C   0  0  0  0  0  0  0  0  0  0  0  0
  122.9345  130.8636   64.4161 C   0  0  0  0  0  0  0  0  0  0  0  0
  122.0856  129.8465   63.9572 C   0  0  0  0  0  0  0  0  0  0  0  0
  120.7940  130.1217   63.5362 C   0  0  0  0  0  0  0  0  0  0  0  0
  120.3362  131.4287   63.5624 C   0  0  0  0  0  0  0  0  0  0  0  0
  121.1605  132.4852   63.9969 C   0  0  0  0  0  0  0  0  0  0  0  0
  122.5037  132.2234   64.4611 C   0  0  0  0  0  0  0  0  0  0  0  0
  123.0035  135.4585   63.7683 O   0  0  0  0  0  0  0  0  0  0  0  0
  123.1211  134.8974   65.0958 S   0  0  0  0  0  0  0  0  0  0  0  0
  122.1055  135.0711   66.1161 O   0  0  0  0  0  0  0  0  0  0  0  0
  124.4593  135.5802   65.6903 O   0  0  0  0  0  0  0  0  0  0  0  0
  124.3183  136.5347   65.7902 H   0  0  0  0  0  0  0  0  0  0  0  0
  120.6171  133.7938   64.0262 N   0  0  0  0  0  0  0  0  0  0  0  0
  121.2757  134.5164   64.1410 H   0  0  0  0  0  0  0  0  0  0  0  0
  119.2768  134.2187   63.9160 C   0  0  0  0  0  0  0  0  0  0  0  0
  118.4855  133.9120   62.8011 C   0  0  0  0  0  0  0  0  0  0  0  0
  117.1688  134.3730   62.7045 C   0  0  0  0  0  0  0  0  0  0  0  0
  116.6382  135.1619   63.7209 C   0  0  0  0  0  0  0  0  0  0  0  0
  114.8597  135.7882   63.5939 Br  0  0  0  0  0  0  0  0  0  0  0  0
  117.4145  135.5010   64.8254 C   0  0  0  0  0  0  0  0  0  0  0  0
  118.7306  135.0372   64.9151 C   0  0  0  0  0  0  0  0  0  0  0  0
 11 12  2  0
 12 13  2  0
 12 14  1  0
 12  1  1  0
  1  2  2  0
  2  3  1  0
  3  4  2  0
  4  5  1  0
  5  6  2  0
  6  7  1  0
  7  8  2  0
  8  9  1  0
  9 16  1  0
 16 18  1  0
 18 19  2  0
 19 20  1  0
 20 21  2  0
 21 22  1  0
 21 23  1  0
 23 24  2  0
  9 10  2  0
 10  1  1  0
 10  5  1  0
 24 18  1  0
 14 15  1  0
 16 17  1  0
M  END
> <minimizedAffinity>
-7.46333

> <CNNscore>
0.5227652788

> <CNNaffinity>
5.1395034790

> <CNN_VS>
2.6867539883

> <CNNaffinity_variance>
0.4527142346

$$$$



 24 26  0  0  0  0  0  0  0  0999 V2000
  117.0939  132.9707   62.1752 C   0  0  0  0  0  0  0  0  0  0  0  0
  117.9925  131.9103   61.9520 C   0  0  0  0  0  0  0  0  0  0  0  0
  119.1137  131.7653   62.7512 C   0  0  0  0  0  0  0  0  0  0  0  0
  119.3432  132.6770   63.7720 C   0  0  0  0  0  0  0  0  0  0  0  0
  118.4644  133.7451   64.0138 C   0  0  0  0  0  0  0  0  0  0  0  0
  118.7810  134.6145   65.0672 C   0  0  0  0  0  0  0  0  0  0  0  0
  117.9745  135.6998   65.3723 C   0  0  0  0  0  0  0  0  0  0  0  0
  116.8294  135.9248   64.6263 C   0  0  0  0  0  0  0  0  0  0  0  0
  116.4616  135.0664   63.5716 C   0  0  0  0  0  0  0  0  0  0  0  0
  117.2953  133.9400   63.2189 C   0  0  0  0  0  0  0  0  0  0  0  0
  115.6020  134.4050   60.5561 O   0  0  0  0  0  0  0  0  0  0  0  0
  115.7020  133.0572   61.0702 S   0  0  0  0  0  0  0  0  0  0  0  0
  115.7256  131.8880   60.2130 O   0  0  0  0  0  0  0  0  0  0  0  0
  114.3876  132.8945   61.9954 O   0  0  0  0  0  0  0  0  0  0  0  0
  113.5938  132.9347   61.4393 H   0  0  0  0  0  0  0  0  0  0  0  0
  115.2932  135.3736   62.8308 N   0  0  0  0  0  0  0  0  0  0  0  0
  114.9796  134.6587   62.2309 H   0  0  0  0  0  0  0  0  0  0  0  0
  114.5110  136.5471   62.8218 C   0  0  0  0  0  0  0  0  0  0  0  0
  115.0748  137.8215   62.9687 C   0  0  0  0  0  0  0  0  0  0  0  0
  114.2715  138.9659   62.9870 C   0  0  0  0  0  0  0  0  0  0  0  0
  112.8900  138.8405   62.8743 C   0  0  0  0  0  0  0  0  0  0  0  0
  111.8005  140.3845   62.8999 Br  0  0  0  0  0  0  0  0  0  0  0  0
  112.3060  137.5828   62.7538 C   0  0  0  0  0  0  0  0  0  0  0  0
  113.1152  136.4426   62.7370 C   0  0  0  0  0  0  0  0  0  0  0  0
 11 12  2  0
 12 13  2  0
 12 14  1  0
 12  1  1  0
  1  2  2  0
  2  3  1  0
  3  4  2  0
  4  5  1  0
  5  6  2  0
  6  7  1  0
  7  8  2  0
  8  9  1  0
  9 16  1  0
 16 18  1  0
 18 19  2  0
 19 20  1  0
 20 21  2  0
 21 22  1  0
 21 23  1  0
 23 24  2  0
  9 10  2  0
 10  1  1  0
 10  5  1  0
 24 18  1  0
 14 15  1  0
 16 17  1  0
M  END
> <minimizedAffinity>
-8.66401

> <CNNscore>
0.4831664264

> <CNNaffinity>
5.3248982430

> <CNN_VS>
2.5728120804

> <CNNaffinity_variance>
0.4171357155

$$$$
