


 21 24  0  0  0  0  0  0  0  0999 V2000
   16.9644    6.1377   12.2627 C   0  0  0  0  0  0  0  0  0  0  0  0
   16.5738    7.5713   12.1701 C   0  0  0  0  0  0  0  0  0  0  0  0
   17.3658    8.5661   12.5203 N   0  0  0  0  0  0  0  0  0  0  0  0
   16.6494    9.7062   12.2918 C   0  0  0  0  0  0  0  0  0  0  0  0
   16.9897   11.0577   12.4819 C   0  0  0  0  0  0  0  0  0  0  0  0
   16.1334   12.0837   12.1998 N   0  0  0  0  0  0  0  0  0  0  0  0
   14.9354   11.6995   11.7304 C   0  0  0  0  0  0  0  0  0  0  0  0
   13.8974   12.5150   11.3798 N   0  0  0  0  0  0  0  0  0  0  0  0
   12.8345   11.7480   10.9557 C   0  0  0  0  0  0  0  0  0  0  0  0
   13.1974   10.4132   11.0317 C   0  0  0  0  0  0  0  0  0  0  0  0
   14.5261   10.4005   11.5160 C   0  0  0  0  0  0  0  0  0  0  0  0
   15.3956    9.3859   11.7950 C   0  0  0  0  0  0  0  0  0  0  0  0
   15.3392    8.0369   11.7022 N   0  0  0  0  0  0  0  0  0  0  0  0
   13.9072   13.4984   11.4234 H   0  0  0  0  0  0  0  0  0  0  0  0
   14.2939    7.1493   11.2063 C   0  0  0  0  0  0  0  0  0  0  0  0
   14.0349    7.2599    9.7016 C   0  0  0  0  0  0  0  0  0  0  0  0
   13.0766    6.1555    9.2427 C   0  0  0  0  0  0  0  0  0  0  0  0
   12.0632    5.7596   10.2242 N   0  0  0  0  0  0  0  0  0  0  0  0
   11.7779    6.8019   11.2033 C   0  0  0  0  0  0  0  0  0  0  0  0
   13.0069    7.1429   12.0467 C   0  0  0  0  0  0  0  0  0  0  0  0
   12.3960    4.9319   10.7187 H   0  0  0  0  0  0  0  0  0  0  0  0
  1  2  1  0
  2  3  2  0
  3  4  1  0
  4  5  2  0
  5  6  1  0
  6  7  2  0
  7  8  1  0
  8  9  1  0
  9 10  2  0
 10 11  1  0
 11 12  2  0
 12 13  1  0
 13 15  1  0
 15 16  1  0
 16 17  1  0
 17 18  1  0
 18 19  1  0
 19 20  1  0
 13  2  1  0
 20 15  1  0
 12  4  1  0
 11  7  1  0
  8 14  1  0
 18 21  1  0
M  END
> <minimizedAffinity>
-8.29715

> <CNNscore>
0.9932839274

> <CNNaffinity>
7.4215435982

> <CNN_VS>
7.3716998100

> <CNNaffinity_variance>
0.0585287623

$$$$



 21 24  0  0  0  0  0  0  0  0999 V2000
   12.7222   11.4570   10.8281 C   0  0  0  0  0  0  0  0  0  0  0  0
   13.9923   10.8283   11.2839 C   0  0  0  0  0  0  0  0  0  0  0  0
   15.0276   11.5156   11.7258 N   0  0  0  0  0  0  0  0  0  0  0  0
   15.9804   10.5881   12.0376 C   0  0  0  0  0  0  0  0  0  0  0  0
   17.2810   10.7447   12.5501 C   0  0  0  0  0  0  0  0  0  0  0  0
   18.1102    9.6888   12.8008 N   0  0  0  0  0  0  0  0  0  0  0  0
   17.5870    8.4861   12.5136 C   0  0  0  0  0  0  0  0  0  0  0  0
   18.1997    7.2743   12.6601 N   0  0  0  0  0  0  0  0  0  0  0  0
   17.3453    6.2753   12.2480 C   0  0  0  0  0  0  0  0  0  0  0  0
   16.1585    6.8558   11.8315 C   0  0  0  0  0  0  0  0  0  0  0  0
   16.3252    8.2487   12.0110 C   0  0  0  0  0  0  0  0  0  0  0  0
   15.5046    9.3133   11.7730 C   0  0  0  0  0  0  0  0  0  0  0  0
   14.2420    9.4509   11.3060 N   0  0  0  0  0  0  0  0  0  0  0  0
   19.1109    7.1361   13.0066 H   0  0  0  0  0  0  0  0  0  0  0  0
   13.2476    8.4591   10.9135 C   0  0  0  0  0  0  0  0  0  0  0  0
   12.6249    7.6939   12.0842 C   0  0  0  0  0  0  0  0  0  0  0  0
   11.4566    6.8305   11.5959 C   0  0  0  0  0  0  0  0  0  0  0  0
   11.6043    6.2860   10.2436 N   0  0  0  0  0  0  0  0  0  0  0  0
   12.9952    6.1814    9.8182 C   0  0  0  0  0  0  0  0  0  0  0  0
   13.6743    7.5498    9.7500 C   0  0  0  0  0  0  0  0  0  0  0  0
   11.1105    6.8960    9.5921 H   0  0  0  0  0  0  0  0  0  0  0  0
  1  2  1  0
  2  3  2  0
  3  4  1  0
  4  5  2  0
  5  6  1  0
  6  7  2  0
  7  8  1  0
  8  9  1  0
  9 10  2  0
 10 11  1  0
 11 12  2  0
 12 13  1  0
 13 15  1  0
 15 16  1  0
 16 17  1  0
 17 18  1  0
 18 19  1  0
 19 20  1  0
 13  2  1  0
 20 15  1  0
 12  4  1  0
 11  7  1  0
  8 14  1  0
 18 21  1  0
M  END
> <minimizedAffinity>
-7.87030

> <CNNscore>
0.9445223808

> <CNNaffinity>
6.9632663727

> <CNN_VS>
6.5769610405

> <CNNaffinity_variance>
0.0528612249

$$$$



 21 24  0  0  0  0  0  0  0  0999 V2000
   17.9798    9.3960   12.8507 C   0  0  0  0  0  0  0  0  0  0  0  0
   16.6391    9.6244   12.2453 C   0  0  0  0  0  0  0  0  0  0  0  0
   16.1140   10.8214   12.0689 N   0  0  0  0  0  0  0  0  0  0  0  0
   14.8920   10.6077   11.4974 C   0  0  0  0  0  0  0  0  0  0  0  0
   13.8978   11.5156   11.0902 C   0  0  0  0  0  0  0  0  0  0  0  0
   12.7158   11.1184   10.5330 N   0  0  0  0  0  0  0  0  0  0  0  0
   12.5745    9.7889   10.4090 C   0  0  0  0  0  0  0  0  0  0  0  0
   11.4950    9.1280    9.8960 N   0  0  0  0  0  0  0  0  0  0  0  0
   11.7209    7.7700    9.9485 C   0  0  0  0  0  0  0  0  0  0  0  0
   12.9718    7.5536   10.5030 C   0  0  0  0  0  0  0  0  0  0  0  0
   13.4986    8.8361   10.7820 C   0  0  0  0  0  0  0  0  0  0  0  0
   14.6788    9.2484   11.3302 C   0  0  0  0  0  0  0  0  0  0  0  0
   15.7830    8.6148   11.7894 N   0  0  0  0  0  0  0  0  0  0  0  0
   10.6814    9.5557    9.5433 H   0  0  0  0  0  0  0  0  0  0  0  0
   16.1374    7.2007   11.8225 C   0  0  0  0  0  0  0  0  0  0  0  0
   15.4039    6.3924   12.8959 C   0  0  0  0  0  0  0  0  0  0  0  0
   15.6832    4.8958   12.7205 C   0  0  0  0  0  0  0  0  0  0  0  0
   17.0159    4.5644   12.2094 N   0  0  0  0  0  0  0  0  0  0  0  0
   18.0036    5.6047   12.4714 C   0  0  0  0  0  0  0  0  0  0  0  0
   17.6473    6.9173   11.7726 C   0  0  0  0  0  0  0  0  0  0  0  0
   16.9514    4.4244   11.2011 H   0  0  0  0  0  0  0  0  0  0  0  0
  1  2  1  0
  2  3  2  0
  3  4  1  0
  4  5  2  0
  5  6  1  0
  6  7  2  0
  7  8  1  0
  8  9  1  0
  9 10  2  0
 10 11  1  0
 11 12  2  0
 12 13  1  0
 13 15  1  0
 15 16  1  0
 16 17  1  0
 17 18  1  0
 18 19  1  0
 19 20  1  0
 13  2  1  0
 20 15  1  0
 12  4  1  0
 11  7  1  0
  8 14  1  0
 18 21  1  0
M  END
> <minimizedAffinity>
-7.87612

> <CNNscore>
0.8555500507

> <CNNaffinity>
6.5002021790

> <CNN_VS>
5.5612483025

> <CNNaffinity_variance>
0.0123975901

$$$$



 21 24  0  0  0  0  0  0  0  0999 V2000
   11.7552    6.8179   10.1598 C   0  0  0  0  0  0  0  0  0  0  0  0
   12.6957    7.9082   10.5382 C   0  0  0  0  0  0  0  0  0  0  0  0
   12.5058    9.1752   10.2249 N   0  0  0  0  0  0  0  0  0  0  0  0
   13.5760    9.8477   10.7425 C   0  0  0  0  0  0  0  0  0  0  0  0
   13.9013   11.2159   10.7142 C   0  0  0  0  0  0  0  0  0  0  0  0
   15.0333   11.7198   11.2887 N   0  0  0  0  0  0  0  0  0  0  0  0
   15.8164   10.8031   11.8797 C   0  0  0  0  0  0  0  0  0  0  0  0
   17.0022   11.0329   12.5174 N   0  0  0  0  0  0  0  0  0  0  0  0
   17.5117    9.8404   12.9824 C   0  0  0  0  0  0  0  0  0  0  0  0
   16.6346    8.8243   12.6400 C   0  0  0  0  0  0  0  0  0  0  0  0
   15.5690    9.4487   11.9510 C   0  0  0  0  0  0  0  0  0  0  0  0
   14.4296    8.9605   11.3792 C   0  0  0  0  0  0  0  0  0  0  0  0
   13.8776    7.7300   11.2671 N   0  0  0  0  0  0  0  0  0  0  0  0
   17.4270   11.9142   12.6276 H   0  0  0  0  0  0  0  0  0  0  0  0
   14.3042    6.4335   11.7802 C   0  0  0  0  0  0  0  0  0  0  0  0
   15.6672    5.9681   11.2612 C   0  0  0  0  0  0  0  0  0  0  0  0
   16.1198    4.7078   12.0065 C   0  0  0  0  0  0  0  0  0  0  0  0
   15.0425    3.8020   12.4142 N   0  0  0  0  0  0  0  0  0  0  0  0
   13.8393    3.9428   11.6024 C   0  0  0  0  0  0  0  0  0  0  0  0
   13.2270    5.3382   11.7289 C   0  0  0  0  0  0  0  0  0  0  0  0
   14.8033    3.9986   13.3861 H   0  0  0  0  0  0  0  0  0  0  0  0
  1  2  1  0
  2  3  2  0
  3  4  1  0
  4  5  2  0
  5  6  1  0
  6  7  2  0
  7  8  1  0
  8  9  1  0
  9 10  2  0
 10 11  1  0
 11 12  2  0
 12 13  1  0
 13 15  1  0
 15 16  1  0
 16 17  1  0
 17 18  1  0
 18 19  1  0
 19 20  1  0
 13  2  1  0
 20 15  1  0
 12  4  1  0
 11  7  1  0
  8 14  1  0
 18 21  1  0
M  END
> <minimizedAffinity>
-6.99736

> <CNNscore>
0.8484610319

> <CNNaffinity>
6.5961308479

> <CNN_VS>
5.5965600014

> <CNNaffinity_variance>
0.0179296527

$$$$



 21 24  0  0  0  0  0  0  0  0999 V2000
   15.3629    4.8003   11.7826 C   0  0  0  0  0  0  0  0  0  0  0  0
   15.7393    6.2350   11.9100 C   0  0  0  0  0  0  0  0  0  0  0  0
   16.8844    6.6450   12.4200 N   0  0  0  0  0  0  0  0  0  0  0  0
   16.8461    8.0091   12.3637 C   0  0  0  0  0  0  0  0  0  0  0  0
   17.7900    8.9713   12.7660 C   0  0  0  0  0  0  0  0  0  0  0  0
   17.5791   10.3146   12.6372 N   0  0  0  0  0  0  0  0  0  0  0  0
   16.3939   10.6458   12.1000 C   0  0  0  0  0  0  0  0  0  0  0  0
   15.9279   11.9086   11.8687 N   0  0  0  0  0  0  0  0  0  0  0  0
   14.6671   11.8387   11.3181 C   0  0  0  0  0  0  0  0  0  0  0  0
   14.3168   10.5046   11.1894 C   0  0  0  0  0  0  0  0  0  0  0  0
   15.4183    9.7662   11.6811 C   0  0  0  0  0  0  0  0  0  0  0  0
   15.6465    8.4265   11.8086 C   0  0  0  0  0  0  0  0  0  0  0  0
   14.9411    7.3119   11.5061 N   0  0  0  0  0  0  0  0  0  0  0  0
   16.4172   12.7400   12.0652 H   0  0  0  0  0  0  0  0  0  0  0  0
   13.6423    7.1391   10.8661 C   0  0  0  0  0  0  0  0  0  0  0  0
   12.5928    6.4540   11.7452 C   0  0  0  0  0  0  0  0  0  0  0  0
   11.2178    6.5024   11.0703 C   0  0  0  0  0  0  0  0  0  0  0  0
   11.2370    6.4316    9.6068 N   0  0  0  0  0  0  0  0  0  0  0  0
   12.4376    5.7923    9.0811 C   0  0  0  0  0  0  0  0  0  0  0  0
   13.7021    6.5748    9.4376 C   0  0  0  0  0  0  0  0  0  0  0  0
   11.1850    7.3801    9.2351 H   0  0  0  0  0  0  0  0  0  0  0  0
  1  2  1  0
  2  3  2  0
  3  4  1  0
  4  5  2  0
  5  6  1  0
  6  7  2  0
  7  8  1  0
  8  9  1  0
  9 10  2  0
 10 11  1  0
 11 12  2  0
 12 13  1  0
 13 15  1  0
 15 16  1  0
 16 17  1  0
 17 18  1  0
 18 19  1  0
 19 20  1  0
 13  2  1  0
 20 15  1  0
 12  4  1  0
 11  7  1  0
  8 14  1  0
 18 21  1  0
M  END
> <minimizedAffinity>
-7.59677

> <CNNscore>
0.8300808668

> <CNNaffinity>
6.6227836609

> <CNN_VS>
5.4974460602

> <CNNaffinity_variance>
0.0662144795

$$$$



 21 24  0  0  0  0  0  0  0  0999 V2000
   11.7218    8.5150    9.8074 C   0  0  0  0  0  0  0  0  0  0  0  0
   12.8380    9.2732   10.4364 C   0  0  0  0  0  0  0  0  0  0  0  0
   12.8626   10.5884   10.5313 N   0  0  0  0  0  0  0  0  0  0  0  0
   14.0373   10.8913   11.1588 C   0  0  0  0  0  0  0  0  0  0  0  0
   14.5899   12.1325   11.5230 C   0  0  0  0  0  0  0  0  0  0  0  0
   15.7976   12.2499   12.1501 N   0  0  0  0  0  0  0  0  0  0  0  0
   16.4203   11.0843   12.3874 C   0  0  0  0  0  0  0  0  0  0  0  0
   17.6351   10.9165   12.9887 N   0  0  0  0  0  0  0  0  0  0  0  0
   17.9400    9.5740   13.0404 C   0  0  0  0  0  0  0  0  0  0  0  0
   16.8992    8.8643   12.4642 C   0  0  0  0  0  0  0  0  0  0  0  0
   15.9473    9.8304   12.0634 C   0  0  0  0  0  0  0  0  0  0  0  0
   14.7351    9.7282   11.4441 C   0  0  0  0  0  0  0  0  0  0  0  0
   13.9808    8.6952   11.0020 N   0  0  0  0  0  0  0  0  0  0  0  0
   18.2046   11.6425   13.3320 H   0  0  0  0  0  0  0  0  0  0  0  0
   14.1869    7.2534   11.0733 C   0  0  0  0  0  0  0  0  0  0  0  0
   13.5418    6.5842   12.2898 C   0  0  0  0  0  0  0  0  0  0  0  0
   13.6343    5.0591   12.1711 C   0  0  0  0  0  0  0  0  0  0  0  0
   14.8338    4.5563   11.4962 N   0  0  0  0  0  0  0  0  0  0  0  0
   15.9525    5.4902   11.5476 C   0  0  0  0  0  0  0  0  0  0  0  0
   15.6346    6.8001   10.8256 C   0  0  0  0  0  0  0  0  0  0  0  0
   14.6052    4.3770   10.5185 H   0  0  0  0  0  0  0  0  0  0  0  0
  1  2  1  0
  2  3  2  0
  3  4  1  0
  4  5  2  0
  5  6  1  0
  6  7  2  0
  7  8  1  0
  8  9  1  0
  9 10  2  0
 10 11  1  0
 11 12  2  0
 12 13  1  0
 13 15  1  0
 15 16  1  0
 16 17  1  0
 17 18  1  0
 18 19  1  0
 19 20  1  0
 13  2  1  0
 20 15  1  0
 12  4  1  0
 11  7  1  0
  8 14  1  0
 18 21  1  0
M  END
> <minimizedAffinity>
-7.45046

> <CNNscore>
0.6329753399

> <CNNaffinity>
6.3558464050

> <CNN_VS>
4.0230941772

> <CNNaffinity_variance>
0.1516065598

$$$$



 21 24  0  0  0  0  0  0  0  0999 V2000
   17.8768    6.8814   12.8351 C   0  0  0  0  0  0  0  0  0  0  0  0
   16.7423    7.6338   12.2326 C   0  0  0  0  0  0  0  0  0  0  0  0
   16.7941    8.9188   11.9402 N   0  0  0  0  0  0  0  0  0  0  0  0
   15.5713    9.2276   11.4159 C   0  0  0  0  0  0  0  0  0  0  0  0
   15.0609   10.4460   10.9327 C   0  0  0  0  0  0  0  0  0  0  0  0
   13.7931   10.5748   10.4412 N   0  0  0  0  0  0  0  0  0  0  0  0
   13.0681    9.4448   10.4606 C   0  0  0  0  0  0  0  0  0  0  0  0
   11.7774    9.2969   10.0391 N   0  0  0  0  0  0  0  0  0  0  0  0
   11.3790    7.9921   10.2305 C   0  0  0  0  0  0  0  0  0  0  0  0
   12.4354    7.2863   10.7827 C   0  0  0  0  0  0  0  0  0  0  0  0
   13.4937    8.2150   10.9157 C   0  0  0  0  0  0  0  0  0  0  0  0
   14.7660    8.0996   11.3966 C   0  0  0  0  0  0  0  0  0  0  0  0
   15.4999    7.0804   11.9006 N   0  0  0  0  0  0  0  0  0  0  0  0
   11.2184   10.0118    9.6575 H   0  0  0  0  0  0  0  0  0  0  0  0
   15.1901    5.6663   12.0764 C   0  0  0  0  0  0  0  0  0  0  0  0
   16.2987    4.8582   12.7557 C   0  0  0  0  0  0  0  0  0  0  0  0
   15.8053    3.4441   13.0807 C   0  0  0  0  0  0  0  0  0  0  0  0
   14.8454    2.8824   12.1267 N   0  0  0  0  0  0  0  0  0  0  0  0
   14.9377    3.4841   10.8016 C   0  0  0  0  0  0  0  0  0  0  0  0
   14.6110    4.9776   10.8303 C   0  0  0  0  0  0  0  0  0  0  0  0
   13.9032    3.0335   12.4870 H   0  0  0  0  0  0  0  0  0  0  0  0
  1  2  1  0
  2  3  2  0
  3  4  1  0
  4  5  2  0
  5  6  1  0
  6  7  2  0
  7  8  1  0
  8  9  1  0
  9 10  2  0
 10 11  1  0
 11 12  2  0
 12 13  1  0
 13 15  1  0
 15 16  1  0
 16 17  1  0
 17 18  1  0
 18 19  1  0
 19 20  1  0
 13  2  1  0
 20 15  1  0
 12  4  1  0
 11  7  1  0
  8 14  1  0
 18 21  1  0
M  END
> <minimizedAffinity>
-6.77295

> <CNNscore>
0.5267916918

> <CNNaffinity>
6.3144702911

> <CNN_VS>
3.3264105320

> <CNNaffinity_variance>
0.0817352459

$$$$



 21 24  0  0  0  0  0  0  0  0999 V2000
   13.5175    5.2746   10.8834 C   0  0  0  0  0  0  0  0  0  0  0  0
   13.6636    6.7560   10.8980 C   0  0  0  0  0  0  0  0  0  0  0  0
   12.8296    7.5762   10.2887 N   0  0  0  0  0  0  0  0  0  0  0  0
   13.3036    8.8335   10.5334 C   0  0  0  0  0  0  0  0  0  0  0  0
   12.8181   10.0916   10.1332 C   0  0  0  0  0  0  0  0  0  0  0  0
   13.4322   11.2639   10.4709 N   0  0  0  0  0  0  0  0  0  0  0  0
   14.5422   11.1205   11.2126 C   0  0  0  0  0  0  0  0  0  0  0  0
   15.3477   12.1212   11.6767 N   0  0  0  0  0  0  0  0  0  0  0  0
   16.3935   11.5756   12.3883 C   0  0  0  0  0  0  0  0  0  0  0  0
   16.2560   10.1972   12.3848 C   0  0  0  0  0  0  0  0  0  0  0  0
   15.0813    9.9274   11.6448 C   0  0  0  0  0  0  0  0  0  0  0  0
   14.4521    8.7642   11.3063 C   0  0  0  0  0  0  0  0  0  0  0  0
   14.6845    7.4542   11.5539 N   0  0  0  0  0  0  0  0  0  0  0  0
   15.2033   13.0833   11.5259 H   0  0  0  0  0  0  0  0  0  0  0  0
   15.7155    6.7924   12.3448 C   0  0  0  0  0  0  0  0  0  0  0  0
   17.1089    6.8181   11.7113 C   0  0  0  0  0  0  0  0  0  0  0  0
   18.1536    6.2869   12.6989 C   0  0  0  0  0  0  0  0  0  0  0  0
   17.6810    5.2352   13.6031 N   0  0  0  0  0  0  0  0  0  0  0  0
   16.5344    4.5028   13.0784 C   0  0  0  0  0  0  0  0  0  0  0  0
   15.3184    5.4099   12.8866 C   0  0  0  0  0  0  0  0  0  0  0  0
   17.4143    5.6645   14.4891 H   0  0  0  0  0  0  0  0  0  0  0  0
  1  2  1  0
  2  3  2  0
  3  4  1  0
  4  5  2  0
  5  6  1  0
  6  7  2  0
  7  8  1  0
  8  9  1  0
  9 10  2  0
 10 11  1  0
 11 12  2  0
 12 13  1  0
 13 15  1  0
 15 16  1  0
 16 17  1  0
 17 18  1  0
 18 19  1  0
 19 20  1  0
 13  2  1  0
 20 15  1  0
 12  4  1  0
 11  7  1  0
  8 14  1  0
 18 21  1  0
M  END
> <minimizedAffinity>
-7.57363

> <CNNscore>
0.2737546265

> <CNNaffinity>
5.9019942284

> <CNN_VS>
1.6156982183

> <CNNaffinity_variance>
0.0698799565

$$$$



 21 24  0  0  0  0  0  0  0  0999 V2000
    5.7653    3.1668    6.1703 C   0  0  0  0  0  0  0  0  0  0  0  0
    5.4691    4.0314    4.9952 C   0  0  0  0  0  0  0  0  0  0  0  0
    6.0852    5.1731    4.7572 N   0  0  0  0  0  0  0  0  0  0  0  0
    5.5348    5.6562    3.6044 C   0  0  0  0  0  0  0  0  0  0  0  0
    5.8027    6.8332    2.8822 C   0  0  0  0  0  0  0  0  0  0  0  0
    5.1415    7.1640    1.7338 N   0  0  0  0  0  0  0  0  0  0  0  0
    4.2090    6.2774    1.3500 C   0  0  0  0  0  0  0  0  0  0  0  0
    3.4022    6.3667    0.2516 N   0  0  0  0  0  0  0  0  0  0  0  0
    2.5692    5.2705    0.2038 C   0  0  0  0  0  0  0  0  0  0  0  0
    2.8481    4.4586    1.2911 C   0  0  0  0  0  0  0  0  0  0  0  0
    3.8877    5.1046    1.9997 C   0  0  0  0  0  0  0  0  0  0  0  0
    4.5625    4.7832    3.1420 C   0  0  0  0  0  0  0  0  0  0  0  0
    4.5192    3.7440    4.0078 N   0  0  0  0  0  0  0  0  0  0  0  0
    3.4142    7.1007   -0.4045 H   0  0  0  0  0  0  0  0  0  0  0  0
    3.7276    2.5194    4.0026 C   0  0  0  0  0  0  0  0  0  0  0  0
    4.5572    1.2331    3.9731 C   0  0  0  0  0  0  0  0  0  0  0  0
    3.6545    0.0114    4.1766 C   0  0  0  0  0  0  0  0  0  0  0  0
    2.3047    0.1318    3.6194 N   0  0  0  0  0  0  0  0  0  0  0  0
    2.2193    1.1000    2.5323 C   0  0  0  0  0  0  0  0  0  0  0  0
    2.5613    2.5147    3.0014 C   0  0  0  0  0  0  0  0  0  0  0  0
    1.6709    0.4227    4.3638 H   0  0  0  0  0  0  0  0  0  0  0  0
  1  2  1  0
  2  3  2  0
  3  4  1  0
  4  5  2  0
  5  6  1  0
  6  7  2  0
  7  8  1  0
  8  9  1  0
  9 10  2  0
 10 11  1  0
 11 12  2  0
 12 13  1  0
 13 15  1  0
 15 16  1  0
 16 17  1  0
 17 18  1  0
 18 19  1  0
 19 20  1  0
 13  2  1  0
 20 15  1  0
 12  4  1  0
 11  7  1  0
  8 14  1  0
 18 21  1  0
M  END
> <minimizedAffinity>
-6.94696

> <CNNscore>
0.2705802321

> <CNNaffinity>
4.7720026970

> <CNN_VS>
1.2912095785

> <CNNaffinity_variance>
0.6443131566

$$$$
