


 13 13  0  0  0  0  0  0  0  0999 V2000
   34.1465   -2.6088   13.3529 C   0  0  0  0  0  0  0  0  0  0  0  0
   34.2102   -1.8756   14.5427 C   0  0  0  0  0  0  0  0  0  0  0  0
   33.0834   -1.1755   14.9792 C   0  0  0  0  0  0  0  0  0  0  0  0
   31.9105   -1.2071   14.2232 C   0  0  0  0  0  0  0  0  0  0  0  0
   30.5238   -0.3453   14.7647 Cl  0  0  0  0  0  0  0  0  0  0  0  0
   31.8534   -1.9295   13.0300 C   0  0  0  0  0  0  0  0  0  0  0  0
   32.9766   -2.6321   12.5873 C   0  0  0  0  0  0  0  0  0  0  0  0
   35.0277   -4.1757   11.3661 N   0  0  0  0  0  0  0  0  0  0  0  0
   35.5859   -3.4858   12.7964 S   0  0  0  0  0  0  0  0  0  0  0  0
   36.5845   -2.5202   12.3998 O   0  0  0  0  0  0  0  0  0  0  0  0
   35.8583   -4.5505   13.7311 O   0  0  0  0  0  0  0  0  0  0  0  0
   35.7760   -4.7196   10.9363 H   0  0  0  0  0  0  0  0  0  0  0  0
   34.7321   -3.4388   10.7259 H   0  0  0  0  0  0  0  0  0  0  0  0
  8  9  1  0
  9 10  2  0
  9 11  2  0
  9  1  1  0
  1  2  2  0
  2  3  1  0
  3  4  2  0
  4  5  1  0
  4  6  1  0
  6  7  2  0
  7  1  1  0
  8 12  1  0
  8 13  1  0
M  END
> <minimizedAffinity>
-4.81056

> <CNNscore>
0.9315172434

> <CNNaffinity>
3.6048870087

> <CNN_VS>
3.3580143452

> <CNNaffinity_variance>
0.6213006973

$$$$



 13 13  0  0  0  0  0  0  0  0999 V2000
   33.2053   -1.6868   11.8572 C   0  0  0  0  0  0  0  0  0  0  0  0
   32.6454   -2.5563   12.7995 C   0  0  0  0  0  0  0  0  0  0  0  0
   31.7618   -2.0545   13.7574 C   0  0  0  0  0  0  0  0  0  0  0  0
   31.4524   -0.6935   13.7710 C   0  0  0  0  0  0  0  0  0  0  0  0
   30.3620   -0.0790   14.9511 Cl  0  0  0  0  0  0  0  0  0  0  0  0
   32.0218    0.1741   12.8373 C   0  0  0  0  0  0  0  0  0  0  0  0
   32.9064   -0.3209   11.8762 C   0  0  0  0  0  0  0  0  0  0  0  0
   34.4563   -3.9394   11.1228 N   0  0  0  0  0  0  0  0  0  0  0  0
   34.3378   -2.3282   10.6504 S   0  0  0  0  0  0  0  0  0  0  0  0
   33.6760   -2.3460    9.3664 O   0  0  0  0  0  0  0  0  0  0  0  0
   35.6225   -1.7050   10.8571 O   0  0  0  0  0  0  0  0  0  0  0  0
   35.0927   -4.4316   10.4958 H   0  0  0  0  0  0  0  0  0  0  0  0
   33.5346   -4.3744   11.0819 H   0  0  0  0  0  0  0  0  0  0  0  0
  8  9  1  0
  9 10  2  0
  9 11  2  0
  9  1  1  0
  1  2  2  0
  2  3  1  0
  3  4  2  0
  4  5  1  0
  4  6  1  0
  6  7  2  0
  7  1  1  0
  8 12  1  0
  8 13  1  0
M  END
> <minimizedAffinity>
-4.98175

> <CNNscore>
0.9168304801

> <CNNaffinity>
3.3386917114

> <CNN_VS>
3.0610144138

> <CNNaffinity_variance>
0.8693607450

$$$$



 13 13  0  0  0  0  0  0  0  0999 V2000
   33.5192   -0.9261   12.0861 C   0  0  0  0  0  0  0  0  0  0  0  0
   32.7323    0.2243   11.9649 C   0  0  0  0  0  0  0  0  0  0  0  0
   31.7136    0.4602   12.8905 C   0  0  0  0  0  0  0  0  0  0  0  0
   31.4853   -0.4545   13.9198 C   0  0  0  0  0  0  0  0  0  0  0  0
   30.2309   -0.1598   15.0595 Cl  0  0  0  0  0  0  0  0  0  0  0  0
   32.2640   -1.6078   14.0313 C   0  0  0  0  0  0  0  0  0  0  0  0
   33.2847   -1.8502   13.1090 C   0  0  0  0  0  0  0  0  0  0  0  0
   35.4793    0.3062   10.7377 N   0  0  0  0  0  0  0  0  0  0  0  0
   34.8039   -1.2272   10.8989 S   0  0  0  0  0  0  0  0  0  0  0  0
   35.8229   -2.0383   11.5239 O   0  0  0  0  0  0  0  0  0  0  0  0
   34.1878   -1.5798    9.6428 O   0  0  0  0  0  0  0  0  0  0  0  0
   36.2473    0.2706   10.0675 H   0  0  0  0  0  0  0  0  0  0  0  0
   35.8316    0.6194   11.6422 H   0  0  0  0  0  0  0  0  0  0  0  0
  8  9  1  0
  9 10  2  0
  9 11  2  0
  9  1  1  0
  1  2  2  0
  2  3  1  0
  3  4  2  0
  4  5  1  0
  4  6  1  0
  6  7  2  0
  7  1  1  0
  8 12  1  0
  8 13  1  0
M  END
> <minimizedAffinity>
-4.31166

> <CNNscore>
0.7964310646

> <CNNaffinity>
3.1656551361

> <CNN_VS>
2.5212261677

> <CNNaffinity_variance>
0.8209324479

$$$$



 13 13  0  0  0  0  0  0  0  0999 V2000
   28.0524    8.2583   20.2881 C   0  0  0  0  0  0  0  0  0  0  0  0
   26.8567    8.7494   19.7528 C   0  0  0  0  0  0  0  0  0  0  0  0
   26.7450    8.9296   18.3726 C   0  0  0  0  0  0  0  0  0  0  0  0
   27.8260    8.6267   17.5431 C   0  0  0  0  0  0  0  0  0  0  0  0
   27.6843    8.8479   15.8431 Cl  0  0  0  0  0  0  0  0  0  0  0  0
   29.0221    8.1483   18.0810 C   0  0  0  0  0  0  0  0  0  0  0  0
   29.1410    7.9656   19.4607 C   0  0  0  0  0  0  0  0  0  0  0  0
   26.5888    8.1952   22.5314 N   0  0  0  0  0  0  0  0  0  0  0  0
   28.1929    8.0438   22.0444 S   0  0  0  0  0  0  0  0  0  0  0  0
   28.5529    6.6702   22.3098 O   0  0  0  0  0  0  0  0  0  0  0  0
   28.9314    9.1612   22.5806 O   0  0  0  0  0  0  0  0  0  0  0  0
   26.5295    8.0895   23.5442 H   0  0  0  0  0  0  0  0  0  0  0  0
   26.0270    7.4729   22.0808 H   0  0  0  0  0  0  0  0  0  0  0  0
  8  9  1  0
  9 10  2  0
  9 11  2  0
  9  1  1  0
  1  2  2  0
  2  3  1  0
  3  4  2  0
  4  5  1  0
  4  6  1  0
  6  7  2  0
  7  1  1  0
  8 12  1  0
  8 13  1  0
M  END
> <minimizedAffinity>
-3.21482

> <CNNscore>
0.7903198600

> <CNNaffinity>
3.5156908035

> <CNN_VS>
2.7785203457

> <CNNaffinity_variance>
0.2366904765

$$$$



 13 13  0  0  0  0  0  0  0  0999 V2000
   33.6045    0.4965   11.6728 C   0  0  0  0  0  0  0  0  0  0  0  0
   32.3824    0.9783   12.1543 C   0  0  0  0  0  0  0  0  0  0  0  0
   31.5519    0.1305   12.8902 C   0  0  0  0  0  0  0  0  0  0  0  0
   31.9434   -1.1875   13.1312 C   0  0  0  0  0  0  0  0  0  0  0  0
   30.9189   -2.2286   14.0398 Cl  0  0  0  0  0  0  0  0  0  0  0  0
   33.1578   -1.6693   12.6392 C   0  0  0  0  0  0  0  0  0  0  0  0
   33.9935   -0.8269   11.9023 C   0  0  0  0  0  0  0  0  0  0  0  0
   35.2700    2.5799   11.9264 N   0  0  0  0  0  0  0  0  0  0  0  0
   34.6499    1.5749   10.7269 S   0  0  0  0  0  0  0  0  0  0  0  0
   35.7741    0.8099   10.2395 O   0  0  0  0  0  0  0  0  0  0  0  0
   33.8151    2.3723    9.8616 O   0  0  0  0  0  0  0  0  0  0  0  0
   35.9010    3.2620   11.5058 H   0  0  0  0  0  0  0  0  0  0  0  0
   35.7809    2.0197   12.6088 H   0  0  0  0  0  0  0  0  0  0  0  0
  8  9  1  0
  9 10  2  0
  9 11  2  0
  9  1  1  0
  1  2  2  0
  2  3  1  0
  3  4  2  0
  4  5  1  0
  4  6  1  0
  6  7  2  0
  7  1  1  0
  8 12  1  0
  8 13  1  0
M  END
> <minimizedAffinity>
-4.21074

> <CNNscore>
0.7421051264

> <CNNaffinity>
3.5340881348

> <CNN_VS>
2.6226649284

> <CNNaffinity_variance>
0.3801663816

$$$$



 13 13  0  0  0  0  0  0  0  0999 V2000
   28.0812    8.0512   19.8551 C   0  0  0  0  0  0  0  0  0  0  0  0
   27.0285    8.4630   19.0307 C   0  0  0  0  0  0  0  0  0  0  0  0
   27.2669    8.6887   17.6733 C   0  0  0  0  0  0  0  0  0  0  0  0
   28.5504    8.5097   17.1548 C   0  0  0  0  0  0  0  0  0  0  0  0
   28.8402    8.7866   15.4819 Cl  0  0  0  0  0  0  0  0  0  0  0  0
   29.6017    8.1105   17.9820 C   0  0  0  0  0  0  0  0  0  0  0  0
   29.3705    7.8830   19.3406 C   0  0  0  0  0  0  0  0  0  0  0  0
   28.5411    9.1082   22.2737 N   0  0  0  0  0  0  0  0  0  0  0  0
   27.7749    7.7786   21.5820 S   0  0  0  0  0  0  0  0  0  0  0  0
   26.3647    7.9679   21.8316 O   0  0  0  0  0  0  0  0  0  0  0  0
   28.4862    6.5906   21.9872 O   0  0  0  0  0  0  0  0  0  0  0  0
   28.4372    9.0710   23.2878 H   0  0  0  0  0  0  0  0  0  0  0  0
   28.1184    9.9664   21.9199 H   0  0  0  0  0  0  0  0  0  0  0  0
  8  9  1  0
  9 10  2  0
  9 11  2  0
  9  1  1  0
  1  2  2  0
  2  3  1  0
  3  4  2  0
  4  5  1  0
  4  6  1  0
  6  7  2  0
  7  1  1  0
  8 12  1  0
  8 13  1  0
M  END
> <minimizedAffinity>
-3.34332

> <CNNscore>
0.7123196125

> <CNNaffinity>
3.4806268215

> <CNN_VS>
2.4793188572

> <CNNaffinity_variance>
0.1007566079

$$$$



 13 13  0  0  0  0  0  0  0  0999 V2000
   26.5963   -5.2648    4.9242 C   0  0  0  0  0  0  0  0  0  0  0  0
   26.8500   -6.6321    5.0771 C   0  0  0  0  0  0  0  0  0  0  0  0
   27.2353   -7.3874    3.9675 C   0  0  0  0  0  0  0  0  0  0  0  0
   27.3559   -6.7753    2.7189 C   0  0  0  0  0  0  0  0  0  0  0  0
   27.8328   -7.7081    1.3546 Cl  0  0  0  0  0  0  0  0  0  0  0  0
   27.0904   -5.4132    2.5667 C   0  0  0  0  0  0  0  0  0  0  0  0
   26.7045   -4.6515    3.6722 C   0  0  0  0  0  0  0  0  0  0  0  0
   25.2775   -3.0344    5.6060 N   0  0  0  0  0  0  0  0  0  0  0  0
   26.0942   -4.3127    6.3356 S   0  0  0  0  0  0  0  0  0  0  0  0
   25.0877   -5.0583    7.0553 O   0  0  0  0  0  0  0  0  0  0  0  0
   27.2768   -3.7845    6.9710 O   0  0  0  0  0  0  0  0  0  0  0  0
   24.9301   -2.3988    6.3241 H   0  0  0  0  0  0  0  0  0  0  0  0
   24.4929   -3.3970    5.0644 H   0  0  0  0  0  0  0  0  0  0  0  0
  8  9  1  0
  9 10  2  0
  9 11  2  0
  9  1  1  0
  1  2  2  0
  2  3  1  0
  3  4  2  0
  4  5  1  0
  4  6  1  0
  6  7  2  0
  7  1  1  0
  8 12  1  0
  8 13  1  0
M  END
> <minimizedAffinity>
-4.98650

> <CNNscore>
0.7042443156

> <CNNaffinity>
3.5780334473

> <CNN_VS>
2.5198097229

> <CNNaffinity_variance>
0.5059154630

$$$$



 13 13  0  0  0  0  0  0  0  0999 V2000
   26.3057   -6.1915    6.3365 C   0  0  0  0  0  0  0  0  0  0  0  0
   26.7416   -5.8118    5.0623 C   0  0  0  0  0  0  0  0  0  0  0  0
   26.4794   -4.5192    4.6036 C   0  0  0  0  0  0  0  0  0  0  0  0
   25.7804   -3.6233    5.4142 C   0  0  0  0  0  0  0  0  0  0  0  0
   25.4608   -2.0311    4.8469 Cl  0  0  0  0  0  0  0  0  0  0  0  0
   25.3360   -4.0085    6.6803 C   0  0  0  0  0  0  0  0  0  0  0  0
   25.5947   -5.2999    7.1457 C   0  0  0  0  0  0  0  0  0  0  0  0
   28.1778   -7.6746    7.5507 N   0  0  0  0  0  0  0  0  0  0  0  0
   26.6305   -7.8399    6.9088 S   0  0  0  0  0  0  0  0  0  0  0  0
   25.7679   -8.1108    8.0355 O   0  0  0  0  0  0  0  0  0  0  0  0
   26.7120   -8.7110    5.7616 O   0  0  0  0  0  0  0  0  0  0  0  0
   28.4895   -8.5720    7.9220 H   0  0  0  0  0  0  0  0  0  0  0  0
   28.1628   -6.9832    8.3004 H   0  0  0  0  0  0  0  0  0  0  0  0
  8  9  1  0
  9 10  2  0
  9 11  2  0
  9  1  1  0
  1  2  2  0
  2  3  1  0
  3  4  2  0
  4  5  1  0
  4  6  1  0
  6  7  2  0
  7  1  1  0
  8 12  1  0
  8 13  1  0
M  END
> <minimizedAffinity>
-5.51888

> <CNNscore>
0.6834149957

> <CNNaffinity>
3.0928256512

> <CNN_VS>
2.1136834621

> <CNNaffinity_variance>
1.0052063465

$$$$



 13 13  0  0  0  0  0  0  0  0999 V2000
   30.0500   -7.5822    5.5884 C   0  0  0  0  0  0  0  0  0  0  0  0
   29.3920   -6.3518    5.4845 C   0  0  0  0  0  0  0  0  0  0  0  0
   28.3708   -6.1963    4.5447 C   0  0  0  0  0  0  0  0  0  0  0  0
   28.0223   -7.2634    3.7151 C   0  0  0  0  0  0  0  0  0  0  0  0
   26.7626   -7.0691    2.5600 Cl  0  0  0  0  0  0  0  0  0  0  0  0
   28.6887   -8.4863    3.8125 C   0  0  0  0  0  0  0  0  0  0  0  0
   29.7112   -8.6490    4.7502 C   0  0  0  0  0  0  0  0  0  0  0  0
   30.5598   -8.5618    8.0295 N   0  0  0  0  0  0  0  0  0  0  0  0
   31.3560   -7.7697    6.7757 S   0  0  0  0  0  0  0  0  0  0  0  0
   32.3114   -8.7214    6.2577 O   0  0  0  0  0  0  0  0  0  0  0  0
   31.7360   -6.4589    7.2435 O   0  0  0  0  0  0  0  0  0  0  0  0
   31.2140   -8.7332    8.7931 H   0  0  0  0  0  0  0  0  0  0  0  0
   30.1922   -9.4509    7.6908 H   0  0  0  0  0  0  0  0  0  0  0  0
  8  9  1  0
  9 10  2  0
  9 11  2  0
  9  1  1  0
  1  2  2  0
  2  3  1  0
  3  4  2  0
  4  5  1  0
  4  6  1  0
  6  7  2  0
  7  1  1  0
  8 12  1  0
  8 13  1  0
M  END
> <minimizedAffinity>
-3.34672

> <CNNscore>
0.6713227034

> <CNNaffinity>
3.0453710556

> <CNN_VS>
2.0444266796

> <CNNaffinity_variance>
0.3819138110

$$$$
