


 39 42  0  0  0  0  0  0  0  0999 V2000
    2.1733   63.7049   70.5676 C   0  0  0  0  0  0  0  0  0  0  0  0
    3.3247   63.4128   69.5976 C   0  0  0  0  0  0  0  0  0  0  0  0
    4.0671   64.6653   69.1318 C   0  0  0  0  0  0  0  0  0  0  0  0
    3.5203   65.9710   69.7239 C   0  0  0  0  0  0  0  0  0  0  0  0
    2.1218   66.3626   69.2276 C   0  0  0  0  0  0  0  0  0  0  0  0
    2.1641   67.3069   68.0212 C   0  0  0  0  0  0  0  0  0  0  0  0
    3.3292   67.1328   67.1534 N   0  0  0  0  0  0  0  0  0  0  0  0
    3.9894   67.8757   67.3830 H   0  0  0  0  0  0  0  0  0  0  0  0
    4.7857   62.5612   63.0290 O   0  0  0  0  0  0  0  0  0  0  0  0
    4.4268   63.5721   63.6218 C   0  0  0  0  0  0  0  0  0  0  0  0
    3.4969   63.5017   64.7726 C   0  0  0  0  0  0  0  0  0  0  0  0
    3.1281   64.6312   65.3922 C   0  0  0  0  0  0  0  0  0  0  0  0
    3.6267   65.9304   64.9622 C   0  0  0  0  0  0  0  0  0  0  0  0
    4.4699   65.9897   63.9107 C   0  0  0  0  0  0  0  0  0  0  0  0
    4.8507   64.8299   63.2711 N   0  0  0  0  0  0  0  0  0  0  0  0
    5.0449   67.2749   63.3830 C   0  0  0  0  0  0  0  0  0  0  0  0
    4.9357   68.4305   64.3771 C   0  0  0  0  0  0  0  0  0  0  0  0
    3.5509   68.4887   65.0167 C   0  0  0  0  0  0  0  0  0  0  0  0
    3.1291   67.1642   65.6927 C   0  0  0  0  0  0  0  0  0  0  0  0
    5.4698   64.9089   62.5097 H   0  0  0  0  0  0  0  0  0  0  0  0
    1.0383   62.6797   70.4930 C   0  0  0  0  0  0  0  0  0  0  0  0
    0.3576   62.4264   71.8432 C   0  0  0  0  0  0  0  0  0  0  0  0
    1.1062   63.0482   73.0270 C   0  0  0  0  0  0  0  0  0  0  0  0
    1.0048   62.1617   74.2735 C   0  0  0  0  0  0  0  0  0  0  0  0
    2.1847   61.3294   74.4991 N   0  0  0  0  0  0  0  0  0  0  0  0
    2.4283   61.4018   75.4869 H   0  0  0  0  0  0  0  0  0  0  0  0
    2.0642   59.9037   74.1759 C   0  0  0  0  0  0  0  0  0  0  0  0
    0.5872   59.4601   74.2834 C   0  0  0  0  0  0  0  0  0  0  0  0
    0.2695   58.0610   73.7412 C   0  0  0  0  0  0  0  0  0  0  0  0
    1.4016   57.3720   72.9851 C   0  0  0  0  0  0  0  0  0  0  0  0
    2.2971   58.3380   72.2704 C   0  0  0  0  0  0  0  0  0  0  0  0
    2.8037   57.9572   71.0495 N   0  0  0  0  0  0  0  0  0  0  0  0
    3.6584   58.7180   70.2937 C   0  0  0  0  0  0  0  0  0  0  0  0
    4.0869   58.3493   69.2074 O   0  0  0  0  0  0  0  0  0  0  0  0
    4.0456   60.0174   70.8725 C   0  0  0  0  0  0  0  0  0  0  0  0
    3.5468   60.3750   72.0605 C   0  0  0  0  0  0  0  0  0  0  0  0
    3.9346   61.5607   72.5735 F   0  0  0  0  0  0  0  0  0  0  0  0
    2.6242   59.5329   72.8061 C   0  0  0  0  0  0  0  0  0  0  0  0
    2.5345   57.0793   70.6944 H   0  0  0  0  0  0  0  0  0  0  0  0
  9 10  2  0
 10 11  1  0
 11 12  2  0
 12 13  1  0
 13 14  2  0
 14 15  1  0
 14 16  1  0
 16 17  1  0
 17 18  1  0
 18 19  1  0
 19  7  1  0
  7  6  1  0
  6  5  1  0
  5  4  1  0
  4  3  1  0
  3  2  1  0
  2  1  1  0
  1 21  1  0
 21 22  1  0
 22 23  1  0
 23 24  1  0
 24 25  1  0
 27 25  1  0
 27 28  1  0
 28 29  1  0
 29 30  1  0
 30 31  1  0
 31 32  1  0
 32 33  1  0
 33 34  2  0
 33 35  1  0
 35 36  2  0
 36 37  1  0
 36 38  1  0
 15 10  1  0
 38 27  1  0
 19 13  1  0
 38 31  2  0
 15 20  1  0
  7  8  1  0
 25 26  1  0
 32 39  1  0
M  END
> <minimizedAffinity>
-10.20075

> <CNNscore>
0.9649947286

> <CNNaffinity>
8.6606130600

> <CNN_VS>
8.3574457169

> <CNNaffinity_variance>
0.2748403847

$$$$



 39 42  0  0  0  0  0  0  0  0999 V2000
    4.7550   64.5178   69.1698 C   0  0  0  0  0  0  0  0  0  0  0  0
    3.5292   64.7557   70.0601 C   0  0  0  0  0  0  0  0  0  0  0  0
    3.0673   63.5086   70.8140 C   0  0  0  0  0  0  0  0  0  0  0  0
    1.6006   63.1348   70.5619 C   0  0  0  0  0  0  0  0  0  0  0  0
    1.0564   62.0276   71.4748 C   0  0  0  0  0  0  0  0  0  0  0  0
    0.8935   62.4848   72.9285 C   0  0  0  0  0  0  0  0  0  0  0  0
    1.9406   62.0131   73.8352 N   0  0  0  0  0  0  0  0  0  0  0  0
    2.8368   62.2476   73.4082 H   0  0  0  0  0  0  0  0  0  0  0  0
    4.1494   57.3205   70.2114 O   0  0  0  0  0  0  0  0  0  0  0  0
    3.6706   58.0436   71.0775 C   0  0  0  0  0  0  0  0  0  0  0  0
    4.4014   59.2286   71.5831 C   0  0  0  0  0  0  0  0  0  0  0  0
    3.8427   59.9923   72.5320 C   0  0  0  0  0  0  0  0  0  0  0  0
    2.5264   59.6861   73.0753 C   0  0  0  0  0  0  0  0  0  0  0  0
    1.8668   58.6032   72.6148 C   0  0  0  0  0  0  0  0  0  0  0  0
    2.4388   57.8155   71.6393 N   0  0  0  0  0  0  0  0  0  0  0  0
    0.5049   58.1942   73.1038 C   0  0  0  0  0  0  0  0  0  0  0  0
   -0.2295   59.3181   73.8340 C   0  0  0  0  0  0  0  0  0  0  0  0
    0.6872   60.0359   74.8213 C   0  0  0  0  0  0  0  0  0  0  0  0
    1.9823   60.5789   74.1755 C   0  0  0  0  0  0  0  0  0  0  0  0
    1.9288   57.0349   71.3234 H   0  0  0  0  0  0  0  0  0  0  0  0
    4.8320   65.4682   67.9715 C   0  0  0  0  0  0  0  0  0  0  0  0
    3.5394   66.2590   67.7382 C   0  0  0  0  0  0  0  0  0  0  0  0
    3.7593   67.5722   66.9797 C   0  0  0  0  0  0  0  0  0  0  0  0
    2.4240   68.2174   66.5912 C   0  0  0  0  0  0  0  0  0  0  0  0
    1.8461   67.6756   65.3630 N   0  0  0  0  0  0  0  0  0  0  0  0
    1.0644   68.2756   65.0998 H   0  0  0  0  0  0  0  0  0  0  0  0
    2.7344   67.5701   64.2006 C   0  0  0  0  0  0  0  0  0  0  0  0
    3.8834   68.5978   64.3180 C   0  0  0  0  0  0  0  0  0  0  0  0
    5.0233   68.4430   63.3035 C   0  0  0  0  0  0  0  0  0  0  0  0
    4.9791   67.1815   62.4464 C   0  0  0  0  0  0  0  0  0  0  0  0
    4.3571   66.0171   63.1557 C   0  0  0  0  0  0  0  0  0  0  0  0
    4.8805   64.7679   62.9152 N   0  0  0  0  0  0  0  0  0  0  0  0
    4.3994   63.6071   63.4644 C   0  0  0  0  0  0  0  0  0  0  0  0
    4.8933   62.5111   63.2318 O   0  0  0  0  0  0  0  0  0  0  0  0
    3.2335   63.7519   64.3551 C   0  0  0  0  0  0  0  0  0  0  0  0
    2.7338   64.9717   64.5797 C   0  0  0  0  0  0  0  0  0  0  0  0
    1.6550   65.0706   65.3833 F   0  0  0  0  0  0  0  0  0  0  0  0
    3.3030   66.1710   63.9845 C   0  0  0  0  0  0  0  0  0  0  0  0
    5.6525   64.7029   62.3078 H   0  0  0  0  0  0  0  0  0  0  0  0
  9 10  2  0
 10 11  1  0
 11 12  2  0
 12 13  1  0
 13 14  2  0
 14 15  1  0
 14 16  1  0
 16 17  1  0
 17 18  1  0
 18 19  1  0
 19  7  1  0
  7  6  1  0
  6  5  1  0
  5  4  1  0
  4  3  1  0
  3  2  1  0
  2  1  1  0
  1 21  1  0
 21 22  1  0
 22 23  1  0
 23 24  1  0
 24 25  1  0
 27 25  1  0
 27 28  1  0
 28 29  1  0
 29 30  1  0
 30 31  1  0
 31 32  1  0
 32 33  1  0
 33 34  2  0
 33 35  1  0
 35 36  2  0
 36 37  1  0
 36 38  1  0
 15 10  1  0
 38 27  1  0
 19 13  1  0
 38 31  2  0
 15 20  1  0
  7  8  1  0
 25 26  1  0
 32 39  1  0
M  END
> <minimizedAffinity>
-9.57393

> <CNNscore>
0.8822633624

> <CNNaffinity>
8.7129154205

> <CNN_VS>
7.6870861053

> <CNNaffinity_variance>
0.0694168359

$$$$



 39 42  0  0  0  0  0  0  0  0999 V2000
    4.5828   64.5482   68.4523 C   0  0  0  0  0  0  0  0  0  0  0  0
    4.8947   64.2160   69.9166 C   0  0  0  0  0  0  0  0  0  0  0  0
    4.1358   62.9984   70.4445 C   0  0  0  0  0  0  0  0  0  0  0  0
    2.9841   62.5409   69.5397 C   0  0  0  0  0  0  0  0  0  0  0  0
    1.6101   62.5029   70.2226 C   0  0  0  0  0  0  0  0  0  0  0  0
    1.6512   63.0170   71.6658 C   0  0  0  0  0  0  0  0  0  0  0  0
    1.3739   62.0008   72.6814 N   0  0  0  0  0  0  0  0  0  0  0  0
    2.2564   61.7936   73.1490 H   0  0  0  0  0  0  0  0  0  0  0  0
   -3.4654   58.9268   75.3577 O   0  0  0  0  0  0  0  0  0  0  0  0
   -2.5245   59.3250   74.6806 C   0  0  0  0  0  0  0  0  0  0  0  0
   -2.5196   60.6839   74.0914 C   0  0  0  0  0  0  0  0  0  0  0  0
   -1.4716   61.0797   73.3559 C   0  0  0  0  0  0  0  0  0  0  0  0
   -0.3310   60.2033   73.1266 C   0  0  0  0  0  0  0  0  0  0  0  0
   -0.3423   58.9650   73.6617 C   0  0  0  0  0  0  0  0  0  0  0  0
   -1.4188   58.5548   74.4181 N   0  0  0  0  0  0  0  0  0  0  0  0
    0.7799   57.9791   73.4893 C   0  0  0  0  0  0  0  0  0  0  0  0
    2.0833   58.6323   73.0311 C   0  0  0  0  0  0  0  0  0  0  0  0
    1.8418   59.6292   71.9006 C   0  0  0  0  0  0  0  0  0  0  0  0
    0.7975   60.7141   72.2494 C   0  0  0  0  0  0  0  0  0  0  0  0
   -1.3930   57.6463   74.7966 H   0  0  0  0  0  0  0  0  0  0  0  0
    4.1860   66.0104   68.2300 C   0  0  0  0  0  0  0  0  0  0  0  0
    2.8621   66.3907   68.9032 C   0  0  0  0  0  0  0  0  0  0  0  0
    2.2410   67.6736   68.3406 C   0  0  0  0  0  0  0  0  0  0  0  0
    2.9555   68.1190   67.0594 C   0  0  0  0  0  0  0  0  0  0  0  0
    2.2020   67.8372   65.8393 N   0  0  0  0  0  0  0  0  0  0  0  0
    1.5176   68.5842   65.7207 H   0  0  0  0  0  0  0  0  0  0  0  0
    2.9687   67.7369   64.5928 C   0  0  0  0  0  0  0  0  0  0  0  0
    4.1689   68.7106   64.6303 C   0  0  0  0  0  0  0  0  0  0  0  0
    5.1977   68.5452   63.5049 C   0  0  0  0  0  0  0  0  0  0  0  0
    5.0143   67.3186   62.6161 C   0  0  0  0  0  0  0  0  0  0  0  0
    4.4113   66.1563   63.3451 C   0  0  0  0  0  0  0  0  0  0  0  0
    4.8521   64.8958   63.0145 N   0  0  0  0  0  0  0  0  0  0  0  0
    4.3741   63.7370   63.5706 C   0  0  0  0  0  0  0  0  0  0  0  0
    4.7932   62.6305   63.2557 O   0  0  0  0  0  0  0  0  0  0  0  0
    3.3071   63.8981   64.5751 C   0  0  0  0  0  0  0  0  0  0  0  0
    2.8870   65.1288   64.8865 C   0  0  0  0  0  0  0  0  0  0  0  0
    1.8962   65.2434   65.7945 F   0  0  0  0  0  0  0  0  0  0  0  0
    3.4499   66.3240   64.2774 C   0  0  0  0  0  0  0  0  0  0  0  0
    5.5584   64.8206   62.3328 H   0  0  0  0  0  0  0  0  0  0  0  0
  9 10  2  0
 10 11  1  0
 11 12  2  0
 12 13  1  0
 13 14  2  0
 14 15  1  0
 14 16  1  0
 16 17  1  0
 17 18  1  0
 18 19  1  0
 19  7  1  0
  7  6  1  0
  6  5  1  0
  5  4  1  0
  4  3  1  0
  3  2  1  0
  2  1  1  0
  1 21  1  0
 21 22  1  0
 22 23  1  0
 23 24  1  0
 24 25  1  0
 27 25  1  0
 27 28  1  0
 28 29  1  0
 29 30  1  0
 30 31  1  0
 31 32  1  0
 32 33  1  0
 33 34  2  0
 33 35  1  0
 35 36  2  0
 36 37  1  0
 36 38  1  0
 15 10  1  0
 38 27  1  0
 19 13  1  0
 38 31  2  0
 15 20  1  0
  7  8  1  0
 25 26  1  0
 32 39  1  0
M  END
> <minimizedAffinity>
-10.05834

> <CNNscore>
0.8283998966

> <CNNaffinity>
8.6432504654

> <CNN_VS>
7.1600675583

> <CNNaffinity_variance>
0.0429123789

$$$$



 39 42  0  0  0  0  0  0  0  0999 V2000
    4.4409   63.7176   70.0187 C   0  0  0  0  0  0  0  0  0  0  0  0
    4.9094   64.9092   69.1746 C   0  0  0  0  0  0  0  0  0  0  0  0
    3.7704   65.6505   68.4745 C   0  0  0  0  0  0  0  0  0  0  0  0
    2.9790   66.5896   69.3943 C   0  0  0  0  0  0  0  0  0  0  0  0
    2.3086   67.7707   68.6793 C   0  0  0  0  0  0  0  0  0  0  0  0
    1.9223   67.4454   67.2323 C   0  0  0  0  0  0  0  0  0  0  0  0
    3.0391   67.4600   66.2870 N   0  0  0  0  0  0  0  0  0  0  0  0
    3.4476   68.3941   66.3178 H   0  0  0  0  0  0  0  0  0  0  0  0
    4.9364   62.3389   63.0923 O   0  0  0  0  0  0  0  0  0  0  0  0
    4.4649   63.3979   63.4903 C   0  0  0  0  0  0  0  0  0  0  0  0
    3.6116   63.4558   64.6996 C   0  0  0  0  0  0  0  0  0  0  0  0
    3.1147   64.6341   65.0999 C   0  0  0  0  0  0  0  0  0  0  0  0
    3.3999   65.8643   64.3741 C   0  0  0  0  0  0  0  0  0  0  0  0
    4.1739   65.8057   63.2707 C   0  0  0  0  0  0  0  0  0  0  0  0
    4.6862   64.5953   62.8561 N   0  0  0  0  0  0  0  0  0  0  0  0
    4.5321   67.0112   62.4465 C   0  0  0  0  0  0  0  0  0  0  0  0
    4.3061   68.3290   63.1867 C   0  0  0  0  0  0  0  0  0  0  0  0
    2.9599   68.3423   63.9062 C   0  0  0  0  0  0  0  0  0  0  0  0
    2.7660   67.1506   64.8713 C   0  0  0  0  0  0  0  0  0  0  0  0
    5.2499   64.5888   62.0490 H   0  0  0  0  0  0  0  0  0  0  0  0
    3.4733   62.7893   69.2790 C   0  0  0  0  0  0  0  0  0  0  0  0
    2.0799   62.7307   69.9158 C   0  0  0  0  0  0  0  0  0  0  0  0
    1.9781   63.5159   71.2278 C   0  0  0  0  0  0  0  0  0  0  0  0
    1.2543   62.7012   72.3059 C   0  0  0  0  0  0  0  0  0  0  0  0
    2.1528   61.9173   73.1509 N   0  0  0  0  0  0  0  0  0  0  0  0
    2.2607   62.4178   74.0330 H   0  0  0  0  0  0  0  0  0  0  0  0
    1.7397   60.5459   73.4676 C   0  0  0  0  0  0  0  0  0  0  0  0
    0.1980   60.4364   73.4322 C   0  0  0  0  0  0  0  0  0  0  0  0
   -0.3718   59.0142   73.5030 C   0  0  0  0  0  0  0  0  0  0  0  0
    0.6499   57.8862   73.3937 C   0  0  0  0  0  0  0  0  0  0  0  0
    1.8294   58.2492   72.5435 C   0  0  0  0  0  0  0  0  0  0  0  0
    2.3783   57.2632   71.7569 N   0  0  0  0  0  0  0  0  0  0  0  0
    3.4751   57.4348   70.9518 C   0  0  0  0  0  0  0  0  0  0  0  0
    3.9350   56.5351   70.2602 O   0  0  0  0  0  0  0  0  0  0  0  0
    4.0839   58.7774   70.9718 C   0  0  0  0  0  0  0  0  0  0  0  0
    3.5410   59.7266   71.7415 C   0  0  0  0  0  0  0  0  0  0  0  0
    4.1316   60.9392   71.7541 F   0  0  0  0  0  0  0  0  0  0  0  0
    2.3609   59.4898   72.5585 C   0  0  0  0  0  0  0  0  0  0  0  0
    1.9553   56.3744   71.7731 H   0  0  0  0  0  0  0  0  0  0  0  0
  9 10  2  0
 10 11  1  0
 11 12  2  0
 12 13  1  0
 13 14  2  0
 14 15  1  0
 14 16  1  0
 16 17  1  0
 17 18  1  0
 18 19  1  0
 19  7  1  0
  7  6  1  0
  6  5  1  0
  5  4  1  0
  4  3  1  0
  3  2  1  0
  2  1  1  0
  1 21  1  0
 21 22  1  0
 22 23  1  0
 23 24  1  0
 24 25  1  0
 27 25  1  0
 27 28  1  0
 28 29  1  0
 29 30  1  0
 30 31  1  0
 31 32  1  0
 32 33  1  0
 33 34  2  0
 33 35  1  0
 35 36  2  0
 36 37  1  0
 36 38  1  0
 15 10  1  0
 38 27  1  0
 19 13  1  0
 38 31  2  0
 15 20  1  0
  7  8  1  0
 25 26  1  0
 32 39  1  0
M  END
> <minimizedAffinity>
-10.54144

> <CNNscore>
0.7878540158

> <CNNaffinity>
8.3385629654

> <CNN_VS>
6.5695705414

> <CNNaffinity_variance>
0.1175876632

$$$$



 39 42  0  0  0  0  0  0  0  0999 V2000
    2.4313   65.7687   69.3108 C   0  0  0  0  0  0  0  0  0  0  0  0
    3.5069   64.7449   68.9276 C   0  0  0  0  0  0  0  0  0  0  0  0
    4.3589   64.2792   70.1083 C   0  0  0  0  0  0  0  0  0  0  0  0
    4.3030   62.7666   70.3597 C   0  0  0  0  0  0  0  0  0  0  0  0
    3.3771   61.9938   69.4105 C   0  0  0  0  0  0  0  0  0  0  0  0
    2.0683   61.5618   70.0807 C   0  0  0  0  0  0  0  0  0  0  0  0
    2.1644   60.3301   70.8647 N   0  0  0  0  0  0  0  0  0  0  0  0
    1.5983   59.6264   70.3907 H   0  0  0  0  0  0  0  0  0  0  0  0
   -0.3545   55.5489   74.1550 O   0  0  0  0  0  0  0  0  0  0  0  0
    0.1028   56.6047   73.7329 C   0  0  0  0  0  0  0  0  0  0  0  0
    1.4290   56.6623   73.0757 C   0  0  0  0  0  0  0  0  0  0  0  0
    1.8930   57.8377   72.6295 C   0  0  0  0  0  0  0  0  0  0  0  0
    1.1183   59.0629   72.7715 C   0  0  0  0  0  0  0  0  0  0  0  0
   -0.0869   59.0060   73.3748 C   0  0  0  0  0  0  0  0  0  0  0  0
   -0.5668   57.7989   73.8352 N   0  0  0  0  0  0  0  0  0  0  0  0
   -0.9698   60.2067   73.5743 C   0  0  0  0  0  0  0  0  0  0  0  0
   -0.5868   61.3845   72.6789 C   0  0  0  0  0  0  0  0  0  0  0  0
    0.9224   61.6134   72.6712 C   0  0  0  0  0  0  0  0  0  0  0  0
    1.7332   60.3586   72.2746 C   0  0  0  0  0  0  0  0  0  0  0  0
   -1.4514   57.7924   74.2674 H   0  0  0  0  0  0  0  0  0  0  0  0
    2.9574   67.2046   69.3912 C   0  0  0  0  0  0  0  0  0  0  0  0
    2.0557   68.2233   68.6843 C   0  0  0  0  0  0  0  0  0  0  0  0
    0.9120   67.5775   67.8949 C   0  0  0  0  0  0  0  0  0  0  0  0
    1.3091   67.3489   66.4320 C   0  0  0  0  0  0  0  0  0  0  0  0
    2.6955   67.7053   66.1378 N   0  0  0  0  0  0  0  0  0  0  0  0
    3.2950   67.0860   66.6832 H   0  0  0  0  0  0  0  0  0  0  0  0
    3.1224   67.6146   64.7374 C   0  0  0  0  0  0  0  0  0  0  0  0
    4.2339   68.6514   64.4551 C   0  0  0  0  0  0  0  0  0  0  0  0
    4.9485   68.5127   63.1052 C   0  0  0  0  0  0  0  0  0  0  0  0
    4.6153   67.2561   62.3065 C   0  0  0  0  0  0  0  0  0  0  0  0
    4.2871   66.0820   63.1781 C   0  0  0  0  0  0  0  0  0  0  0  0
    4.7009   64.8389   62.7590 N   0  0  0  0  0  0  0  0  0  0  0  0
    4.4489   63.6707   63.4315 C   0  0  0  0  0  0  0  0  0  0  0  0
    4.8369   62.5804   63.0314 O   0  0  0  0  0  0  0  0  0  0  0  0
    3.6667   63.8000   64.6745 C   0  0  0  0  0  0  0  0  0  0  0  0
    3.2697   65.0140   65.0701 C   0  0  0  0  0  0  0  0  0  0  0  0
    2.5390   65.0986   66.2007 F   0  0  0  0  0  0  0  0  0  0  0  0
    3.5880   66.2218   64.3242 C   0  0  0  0  0  0  0  0  0  0  0  0
    5.2126   64.7843   61.9197 H   0  0  0  0  0  0  0  0  0  0  0  0
  9 10  2  0
 10 11  1  0
 11 12  2  0
 12 13  1  0
 13 14  2  0
 14 15  1  0
 14 16  1  0
 16 17  1  0
 17 18  1  0
 18 19  1  0
 19  7  1  0
  7  6  1  0
  6  5  1  0
  5  4  1  0
  4  3  1  0
  3  2  1  0
  2  1  1  0
  1 21  1  0
 21 22  1  0
 22 23  1  0
 23 24  1  0
 24 25  1  0
 27 25  1  0
 27 28  1  0
 28 29  1  0
 29 30  1  0
 30 31  1  0
 31 32  1  0
 32 33  1  0
 33 34  2  0
 33 35  1  0
 35 36  2  0
 36 37  1  0
 36 38  1  0
 15 10  1  0
 38 27  1  0
 19 13  1  0
 38 31  2  0
 15 20  1  0
  7  8  1  0
 25 26  1  0
 32 39  1  0
M  END
> <minimizedAffinity>
-10.24771

> <CNNscore>
0.7611657381

> <CNNaffinity>
8.5137052536

> <CNN_VS>
6.4803409576

> <CNNaffinity_variance>
0.0632732734

$$$$



 39 42  0  0  0  0  0  0  0  0999 V2000
    3.9552   63.5055   70.3531 C   0  0  0  0  0  0  0  0  0  0  0  0
    4.6994   64.6049   69.5854 C   0  0  0  0  0  0  0  0  0  0  0  0
    4.3778   64.6350   68.0912 C   0  0  0  0  0  0  0  0  0  0  0  0
    4.2545   66.0489   67.5080 C   0  0  0  0  0  0  0  0  0  0  0  0
    3.0460   66.8473   68.0156 C   0  0  0  0  0  0  0  0  0  0  0  0
    2.3642   67.6584   66.9082 C   0  0  0  0  0  0  0  0  0  0  0  0
    2.7567   67.2823   65.5497 N   0  0  0  0  0  0  0  0  0  0  0  0
    3.5472   66.6429   65.6307 H   0  0  0  0  0  0  0  0  0  0  0  0
    0.4096   68.3092   59.7646 O   0  0  0  0  0  0  0  0  0  0  0  0
    1.0115   68.3093   60.8322 C   0  0  0  0  0  0  0  0  0  0  0  0
    0.2884   68.3116   62.1249 C   0  0  0  0  0  0  0  0  0  0  0  0
    0.9847   68.3131   63.2698 C   0  0  0  0  0  0  0  0  0  0  0  0
    2.4413   68.3069   63.2723 C   0  0  0  0  0  0  0  0  0  0  0  0
    3.0953   68.3093   62.0924 C   0  0  0  0  0  0  0  0  0  0  0  0
    2.3820   68.3082   60.9132 N   0  0  0  0  0  0  0  0  0  0  0  0
    4.5945   68.3031   61.9776 C   0  0  0  0  0  0  0  0  0  0  0  0
    5.2903   67.8720   63.2682 C   0  0  0  0  0  0  0  0  0  0  0  0
    4.6801   68.5575   64.4880 C   0  0  0  0  0  0  0  0  0  0  0  0
    3.1536   68.3489   64.6119 C   0  0  0  0  0  0  0  0  0  0  0  0
    2.8907   68.3066   60.0702 H   0  0  0  0  0  0  0  0  0  0  0  0
    3.0053   62.6853   69.4757 C   0  0  0  0  0  0  0  0  0  0  0  0
    1.7982   62.1296   70.2402 C   0  0  0  0  0  0  0  0  0  0  0  0
    1.8179   62.4673   71.7349 C   0  0  0  0  0  0  0  0  0  0  0  0
    2.8419   61.6065   72.4835 C   0  0  0  0  0  0  0  0  0  0  0  0
    2.4043   61.2015   73.8177 N   0  0  0  0  0  0  0  0  0  0  0  0
    1.6762   61.8518   74.1135 H   0  0  0  0  0  0  0  0  0  0  0  0
    1.8685   59.8433   73.9579 C   0  0  0  0  0  0  0  0  0  0  0  0
    0.3244   59.8742   73.8901 C   0  0  0  0  0  0  0  0  0  0  0  0
   -0.3661   58.5093   73.7780 C   0  0  0  0  0  0  0  0  0  0  0  0
    0.5579   57.3180   73.5434 C   0  0  0  0  0  0  0  0  0  0  0  0
    1.7833   57.6771   72.7590 C   0  0  0  0  0  0  0  0  0  0  0  0
    2.2642   56.7499   71.8639 N   0  0  0  0  0  0  0  0  0  0  0  0
    3.3899   56.9216   71.0998 C   0  0  0  0  0  0  0  0  0  0  0  0
    3.7873   56.0759   70.3084 O   0  0  0  0  0  0  0  0  0  0  0  0
    4.1103   58.1933   71.2926 C   0  0  0  0  0  0  0  0  0  0  0  0
    3.6328   59.0856   72.1666 C   0  0  0  0  0  0  0  0  0  0  0  0
    4.3242   60.2313   72.3358 F   0  0  0  0  0  0  0  0  0  0  0  0
    2.4182   58.8553   72.9334 C   0  0  0  0  0  0  0  0  0  0  0  0
    1.7666   55.9062   71.7651 H   0  0  0  0  0  0  0  0  0  0  0  0
  9 10  2  0
 10 11  1  0
 11 12  2  0
 12 13  1  0
 13 14  2  0
 14 15  1  0
 14 16  1  0
 16 17  1  0
 17 18  1  0
 18 19  1  0
 19  7  1  0
  7  6  1  0
  6  5  1  0
  5  4  1  0
  4  3  1  0
  3  2  1  0
  2  1  1  0
  1 21  1  0
 21 22  1  0
 22 23  1  0
 23 24  1  0
 24 25  1  0
 27 25  1  0
 27 28  1  0
 28 29  1  0
 29 30  1  0
 30 31  1  0
 31 32  1  0
 32 33  1  0
 33 34  2  0
 33 35  1  0
 35 36  2  0
 36 37  1  0
 36 38  1  0
 15 10  1  0
 38 27  1  0
 19 13  1  0
 38 31  2  0
 15 20  1  0
  7  8  1  0
 25 26  1  0
 32 39  1  0
M  END
> <minimizedAffinity>
-10.45276

> <CNNscore>
0.7498807907

> <CNNaffinity>
8.2532339096

> <CNN_VS>
6.1889414787

> <CNNaffinity_variance>
0.1585635394

$$$$



 39 42  0  0  0  0  0  0  0  0999 V2000
    3.8988   65.5377   69.7443 C   0  0  0  0  0  0  0  0  0  0  0  0
    3.9758   64.0352   70.0418 C   0  0  0  0  0  0  0  0  0  0  0  0
    2.6529   63.2992   69.8292 C   0  0  0  0  0  0  0  0  0  0  0  0
    2.1098   62.6155   71.0909 C   0  0  0  0  0  0  0  0  0  0  0  0
    0.6107   62.8301   71.3403 C   0  0  0  0  0  0  0  0  0  0  0  0
    0.0816   62.0042   72.5179 C   0  0  0  0  0  0  0  0  0  0  0  0
    0.0229   60.5630   72.2720 N   0  0  0  0  0  0  0  0  0  0  0  0
   -0.9475   60.2752   72.3978 H   0  0  0  0  0  0  0  0  0  0  0  0
    4.1238   56.1969   70.2343 O   0  0  0  0  0  0  0  0  0  0  0  0
    3.3986   56.9625   70.8590 C   0  0  0  0  0  0  0  0  0  0  0  0
    3.4157   58.4213   70.6034 C   0  0  0  0  0  0  0  0  0  0  0  0
    2.6078   59.2239   71.3098 C   0  0  0  0  0  0  0  0  0  0  0  0
    1.7061   58.6921   72.3226 C   0  0  0  0  0  0  0  0  0  0  0  0
    1.6974   57.3632   72.5548 C   0  0  0  0  0  0  0  0  0  0  0  0
    2.5275   56.5352   71.8303 N   0  0  0  0  0  0  0  0  0  0  0  0
    0.8084   56.7074   73.5749 C   0  0  0  0  0  0  0  0  0  0  0  0
   -0.3567   57.5954   74.0102 C   0  0  0  0  0  0  0  0  0  0  0  0
    0.1033   59.0235   74.2910 C   0  0  0  0  0  0  0  0  0  0  0  0
    0.8526   59.6731   73.1053 C   0  0  0  0  0  0  0  0  0  0  0  0
    2.4934   55.5703   72.0227 H   0  0  0  0  0  0  0  0  0  0  0  0
    2.4934   66.1217   69.9140 C   0  0  0  0  0  0  0  0  0  0  0  0
    2.3585   67.5496   69.3724 C   0  0  0  0  0  0  0  0  0  0  0  0
    1.6326   67.6221   68.0247 C   0  0  0  0  0  0  0  0  0  0  0  0
    2.5832   68.0665   66.9071 C   0  0  0  0  0  0  0  0  0  0  0  0
    2.0151   67.9353   65.5671 N   0  0  0  0  0  0  0  0  0  0  0  0
    1.1870   68.5293   65.5242 H   0  0  0  0  0  0  0  0  0  0  0  0
    2.8801   68.2993   64.4397 C   0  0  0  0  0  0  0  0  0  0  0  0
    4.1117   67.3660   64.3952 C   0  0  0  0  0  0  0  0  0  0  0  0
    4.9793   67.4659   63.1344 C   0  0  0  0  0  0  0  0  0  0  0  0
    4.4087   68.3180   62.0046 C   0  0  0  0  0  0  0  0  0  0  0  0
    2.9107   68.3019   61.9627 C   0  0  0  0  0  0  0  0  0  0  0  0
    2.3053   68.3232   60.7277 N   0  0  0  0  0  0  0  0  0  0  0  0
    0.9484   68.3434   60.5300 C   0  0  0  0  0  0  0  0  0  0  0  0
    0.4428   68.3574   59.4148 O   0  0  0  0  0  0  0  0  0  0  0  0
    0.1208   68.3568   61.7499 C   0  0  0  0  0  0  0  0  0  0  0  0
    0.7219   68.3368   62.9442 C   0  0  0  0  0  0  0  0  0  0  0  0
   -0.0608   68.3696   64.0422 F   0  0  0  0  0  0  0  0  0  0  0  0
    2.1687   68.2928   63.0901 C   0  0  0  0  0  0  0  0  0  0  0  0
    2.8852   68.3240   59.9321 H   0  0  0  0  0  0  0  0  0  0  0  0
  9 10  2  0
 10 11  1  0
 11 12  2  0
 12 13  1  0
 13 14  2  0
 14 15  1  0
 14 16  1  0
 16 17  1  0
 17 18  1  0
 18 19  1  0
 19  7  1  0
  7  6  1  0
  6  5  1  0
  5  4  1  0
  4  3  1  0
  3  2  1  0
  2  1  1  0
  1 21  1  0
 21 22  1  0
 22 23  1  0
 23 24  1  0
 24 25  1  0
 27 25  1  0
 27 28  1  0
 28 29  1  0
 29 30  1  0
 30 31  1  0
 31 32  1  0
 32 33  1  0
 33 34  2  0
 33 35  1  0
 35 36  2  0
 36 37  1  0
 36 38  1  0
 15 10  1  0
 38 27  1  0
 19 13  1  0
 38 31  2  0
 15 20  1  0
  7  8  1  0
 25 26  1  0
 32 39  1  0
M  END
> <minimizedAffinity>
-10.18141

> <CNNscore>
0.6993033290

> <CNNaffinity>
8.3621797562

> <CNN_VS>
5.8477001190

> <CNNaffinity_variance>
0.1023934260

$$$$



 39 42  0  0  0  0  0  0  0  0999 V2000
    4.2825   63.6032   70.6283 C   0  0  0  0  0  0  0  0  0  0  0  0
    5.3051   64.1655   69.6334 C   0  0  0  0  0  0  0  0  0  0  0  0
    4.6983   65.1158   68.6012 C   0  0  0  0  0  0  0  0  0  0  0  0
    3.4770   65.8926   69.1105 C   0  0  0  0  0  0  0  0  0  0  0  0
    3.0301   67.0481   68.2047 C   0  0  0  0  0  0  0  0  0  0  0  0
    3.7336   67.0400   66.8431 C   0  0  0  0  0  0  0  0  0  0  0  0
    3.2084   68.0099   65.8816 N   0  0  0  0  0  0  0  0  0  0  0  0
    2.3133   68.3386   66.2438 H   0  0  0  0  0  0  0  0  0  0  0  0
    4.7725   62.4165   63.3719 O   0  0  0  0  0  0  0  0  0  0  0  0
    4.3841   63.5510   63.6253 C   0  0  0  0  0  0  0  0  0  0  0  0
    3.4784   63.8189   64.7663 C   0  0  0  0  0  0  0  0  0  0  0  0
    3.0759   65.0740   65.0078 C   0  0  0  0  0  0  0  0  0  0  0  0
    3.5146   66.1854   64.1748 C   0  0  0  0  0  0  0  0  0  0  0  0
    4.3358   65.9357   63.1341 C   0  0  0  0  0  0  0  0  0  0  0  0
    4.7512   64.6458   62.8827 N   0  0  0  0  0  0  0  0  0  0  0  0
    4.8497   67.0052   62.2105 C   0  0  0  0  0  0  0  0  0  0  0  0
    4.7122   68.4121   62.7914 C   0  0  0  0  0  0  0  0  0  0  0  0
    3.3377   68.6253   63.4204 C   0  0  0  0  0  0  0  0  0  0  0  0
    2.9811   67.5704   64.4925 C   0  0  0  0  0  0  0  0  0  0  0  0
    5.3530   64.4994   62.1175 H   0  0  0  0  0  0  0  0  0  0  0  0
    4.3080   62.0755   70.7311 C   0  0  0  0  0  0  0  0  0  0  0  0
    2.9243   61.4325   70.5812 C   0  0  0  0  0  0  0  0  0  0  0  0
    1.7763   62.4469   70.6140 C   0  0  0  0  0  0  0  0  0  0  0  0
    0.6049   61.9302   71.4572 C   0  0  0  0  0  0  0  0  0  0  0  0
    0.8157   60.5874   71.9939 N   0  0  0  0  0  0  0  0  0  0  0  0
    1.8147   60.4792   72.1691 H   0  0  0  0  0  0  0  0  0  0  0  0
    0.1094   60.2487   73.2340 C   0  0  0  0  0  0  0  0  0  0  0  0
   -1.3191   60.8391   73.2072 C   0  0  0  0  0  0  0  0  0  0  0  0
   -2.2580   60.3654   74.3237 C   0  0  0  0  0  0  0  0  0  0  0  0
   -1.7318   59.2259   75.1912 C   0  0  0  0  0  0  0  0  0  0  0  0
   -0.8215   58.2983   74.4449 C   0  0  0  0  0  0  0  0  0  0  0  0
   -0.8836   56.9585   74.7502 N   0  0  0  0  0  0  0  0  0  0  0  0
   -0.0941   55.9954   74.1761 C   0  0  0  0  0  0  0  0  0  0  0  0
   -0.1795   54.8094   74.4687 O   0  0  0  0  0  0  0  0  0  0  0  0
    0.8826   56.4736   73.1807 C   0  0  0  0  0  0  0  0  0  0  0  0
    0.9334   57.7787   72.8938 C   0  0  0  0  0  0  0  0  0  0  0  0
    1.8504   58.1889   71.9938 F   0  0  0  0  0  0  0  0  0  0  0  0
    0.0521   58.7514   73.5212 C   0  0  0  0  0  0  0  0  0  0  0  0
   -1.5391   56.6717   75.4264 H   0  0  0  0  0  0  0  0  0  0  0  0
  9 10  2  0
 10 11  1  0
 11 12  2  0
 12 13  1  0
 13 14  2  0
 14 15  1  0
 14 16  1  0
 16 17  1  0
 17 18  1  0
 18 19  1  0
 19  7  1  0
  7  6  1  0
  6  5  1  0
  5  4  1  0
  4  3  1  0
  3  2  1  0
  2  1  1  0
  1 21  1  0
 21 22  1  0
 22 23  1  0
 23 24  1  0
 24 25  1  0
 27 25  1  0
 27 28  1  0
 28 29  1  0
 29 30  1  0
 30 31  1  0
 31 32  1  0
 32 33  1  0
 33 34  2  0
 33 35  1  0
 35 36  2  0
 36 37  1  0
 36 38  1  0
 15 10  1  0
 38 27  1  0
 19 13  1  0
 38 31  2  0
 15 20  1  0
  7  8  1  0
 25 26  1  0
 32 39  1  0
M  END
> <minimizedAffinity>
-9.68674

> <CNNscore>
0.6934238076

> <CNNaffinity>
8.3473567963

> <CNN_VS>
5.7882561684

> <CNNaffinity_variance>
0.0371312909

$$$$



 39 42  0  0  0  0  0  0  0  0999 V2000
    2.2488   64.2132   70.0828 C   0  0  0  0  0  0  0  0  0  0  0  0
    3.3898   65.2378   70.0692 C   0  0  0  0  0  0  0  0  0  0  0  0
    4.4394   64.9727   68.9899 C   0  0  0  0  0  0  0  0  0  0  0  0
    4.2677   65.8298   67.7288 C   0  0  0  0  0  0  0  0  0  0  0  0
    3.9548   65.0359   66.4532 C   0  0  0  0  0  0  0  0  0  0  0  0
    3.8596   65.9264   65.2094 C   0  0  0  0  0  0  0  0  0  0  0  0
    3.1367   67.1819   65.4144 N   0  0  0  0  0  0  0  0  0  0  0  0
    2.1415   66.9728   65.3350 H   0  0  0  0  0  0  0  0  0  0  0  0
    0.4184   68.3182   59.8153 O   0  0  0  0  0  0  0  0  0  0  0  0
    1.0772   68.3079   60.8488 C   0  0  0  0  0  0  0  0  0  0  0  0
    0.4274   68.2086   62.1761 C   0  0  0  0  0  0  0  0  0  0  0  0
    1.1844   68.2021   63.2818 C   0  0  0  0  0  0  0  0  0  0  0  0
    2.6367   68.2850   63.2079 C   0  0  0  0  0  0  0  0  0  0  0  0
    3.2235   68.3798   61.9969 C   0  0  0  0  0  0  0  0  0  0  0  0
    2.4477   68.3872   60.8578 N   0  0  0  0  0  0  0  0  0  0  0  0
    4.7120   68.4705   61.8036 C   0  0  0  0  0  0  0  0  0  0  0  0
    5.5018   68.0261   63.0342 C   0  0  0  0  0  0  0  0  0  0  0  0
    4.9205   68.6182   64.3154 C   0  0  0  0  0  0  0  0  0  0  0  0
    3.4180   68.3112   64.5089 C   0  0  0  0  0  0  0  0  0  0  0  0
    2.9084   68.4541   59.9903 H   0  0  0  0  0  0  0  0  0  0  0  0
    2.5840   62.9375   70.8609 C   0  0  0  0  0  0  0  0  0  0  0  0
    1.7422   61.7280   70.4379 C   0  0  0  0  0  0  0  0  0  0  0  0
    1.1808   60.9344   71.6226 C   0  0  0  0  0  0  0  0  0  0  0  0
    2.3060   60.4245   72.5304 C   0  0  0  0  0  0  0  0  0  0  0  0
    1.8301   59.8374   73.7812 N   0  0  0  0  0  0  0  0  0  0  0  0
    0.8199   59.7209   73.7019 H   0  0  0  0  0  0  0  0  0  0  0  0
    2.3968   58.5398   74.1644 C   0  0  0  0  0  0  0  0  0  0  0  0
    3.3002   58.7038   75.4081 C   0  0  0  0  0  0  0  0  0  0  0  0
    3.7672   57.4015   76.0700 C   0  0  0  0  0  0  0  0  0  0  0  0
    3.1202   56.1235   75.5445 C   0  0  0  0  0  0  0  0  0  0  0  0
    1.7156   56.3357   75.0670 C   0  0  0  0  0  0  0  0  0  0  0  0
    0.8055   55.3286   75.2896 N   0  0  0  0  0  0  0  0  0  0  0  0
   -0.5042   55.3641   74.8846 C   0  0  0  0  0  0  0  0  0  0  0  0
   -1.2892   54.4504   75.1040 O   0  0  0  0  0  0  0  0  0  0  0  0
   -0.9184   56.5748   74.1525 C   0  0  0  0  0  0  0  0  0  0  0  0
   -0.0236   57.5459   73.9419 C   0  0  0  0  0  0  0  0  0  0  0  0
   -0.4266   58.6328   73.2522 F   0  0  0  0  0  0  0  0  0  0  0  0
    1.3488   57.4602   74.4168 C   0  0  0  0  0  0  0  0  0  0  0  0
    1.1152   54.5284   75.7723 H   0  0  0  0  0  0  0  0  0  0  0  0
  9 10  2  0
 10 11  1  0
 11 12  2  0
 12 13  1  0
 13 14  2  0
 14 15  1  0
 14 16  1  0
 16 17  1  0
 17 18  1  0
 18 19  1  0
 19  7  1  0
  7  6  1  0
  6  5  1  0
  5  4  1  0
  4  3  1  0
  3  2  1  0
  2  1  1  0
  1 21  1  0
 21 22  1  0
 22 23  1  0
 23 24  1  0
 24 25  1  0
 27 25  1  0
 27 28  1  0
 28 29  1  0
 29 30  1  0
 30 31  1  0
 31 32  1  0
 32 33  1  0
 33 34  2  0
 33 35  1  0
 35 36  2  0
 36 37  1  0
 36 38  1  0
 15 10  1  0
 38 27  1  0
 19 13  1  0
 38 31  2  0
 15 20  1  0
  7  8  1  0
 25 26  1  0
 32 39  1  0
M  END
> <minimizedAffinity>
-9.24041

> <CNNscore>
0.6796010733

> <CNNaffinity>
8.0701713562

> <CNN_VS>
5.4844970703

> <CNNaffinity_variance>
0.0339882150

$$$$
