


 19 20  0  0  0  0  0  0  0  0999 V2000
   15.3857   10.4257   -0.1838 C   0  0  0  0  0  0  0  0  0  0  0  0
   16.6584   10.4098   -0.7200 C   0  0  0  0  0  0  0  0  0  0  0  0
   16.6220   10.2038   -2.0606 O   0  0  0  0  0  0  0  0  0  0  0  0
   15.3117   10.0832   -2.4086 C   0  0  0  0  0  0  0  0  0  0  0  0
   14.8413    9.8625   -3.7040 C   0  0  0  0  0  0  0  0  0  0  0  0
   13.4546    9.7686   -3.8568 C   0  0  0  0  0  0  0  0  0  0  0  0
   12.6078    9.8940   -2.7482 C   0  0  0  0  0  0  0  0  0  0  0  0
   13.1111   10.1155   -1.4572 C   0  0  0  0  0  0  0  0  0  0  0  0
   14.5026   10.2117   -1.2868 C   0  0  0  0  0  0  0  0  0  0  0  0
   12.7996    9.5553   -5.0423 O   0  0  0  0  0  0  0  0  0  0  0  0
   11.3784    9.5210   -4.9923 C   0  0  0  0  0  0  0  0  0  0  0  0
   15.0191   10.6256    1.2505 C   0  0  0  0  0  0  0  0  0  0  0  0
   13.5338   10.3321    1.5076 C   0  0  0  0  0  0  0  0  0  0  0  0
   13.2354    9.2335    2.5785 C   0  0  0  0  0  0  0  0  0  0  0  0
   13.6841    7.8652    2.0312 C   0  0  0  0  0  0  0  0  0  0  0  0
   11.7078    9.2042    2.7841 C   0  0  0  0  0  0  0  0  0  0  0  0
   13.9730    9.5909    3.9022 C   0  0  0  0  0  0  0  0  0  0  0  0
   14.6834    8.6935    6.2150 C   0  0  0  0  0  0  0  0  0  0  0  0
   13.5686    8.8809    5.2019 C   0  0  0  0  0  0  0  0  0  0  0  0
 18 19  1  0
 19 17  1  0
 17 14  1  0
 14 15  1  0
 14 16  1  0
 14 13  1  0
 13 12  1  0
 12  1  1  0
  1  2  2  0
  2  3  1  0
  3  4  1  0
  4  5  2  0
  5  6  1  0
  6 10  1  0
 10 11  1  0
  6  7  2  0
  7  8  1  0
  8  9  2  0
  9  1  1  0
  9  4  1  0
M  END
> <minimizedAffinity>
-7.09579

> <CNNscore>
0.5532498360

> <CNNaffinity>
4.7676119804

> <CNN_VS>
2.6376805305

> <CNNaffinity_variance>
0.6110005379

$$$$



 19 20  0  0  0  0  0  0  0  0999 V2000
   15.2438   10.3601   -0.2163 C   0  0  0  0  0  0  0  0  0  0  0  0
   14.0740   10.4238    0.5153 C   0  0  0  0  0  0  0  0  0  0  0  0
   12.9883   10.2700   -0.2838 O   0  0  0  0  0  0  0  0  0  0  0  0
   13.4497   10.1035   -1.5534 C   0  0  0  0  0  0  0  0  0  0  0  0
   12.6494    9.9117   -2.6806 C   0  0  0  0  0  0  0  0  0  0  0  0
   13.3158    9.7588   -3.9004 C   0  0  0  0  0  0  0  0  0  0  0  0
   14.7147    9.8003   -3.9555 C   0  0  0  0  0  0  0  0  0  0  0  0
   15.4925    9.9949   -2.8039 C   0  0  0  0  0  0  0  0  0  0  0  0
   14.8379   10.1510   -1.5704 C   0  0  0  0  0  0  0  0  0  0  0  0
   12.7116    9.5612   -5.1152 O   0  0  0  0  0  0  0  0  0  0  0  0
   11.2894    9.5828   -5.1349 C   0  0  0  0  0  0  0  0  0  0  0  0
   16.6372   10.4847    0.3077 C   0  0  0  0  0  0  0  0  0  0  0  0
   16.6902   10.3293    1.8345 C   0  0  0  0  0  0  0  0  0  0  0  0
   17.5618   11.3817    2.5932 C   0  0  0  0  0  0  0  0  0  0  0  0
   16.6926   12.0794    3.6565 C   0  0  0  0  0  0  0  0  0  0  0  0
   18.0086   12.4319    1.5568 C   0  0  0  0  0  0  0  0  0  0  0  0
   18.7885   10.6685    3.2341 C   0  0  0  0  0  0  0  0  0  0  0  0
   19.2400    8.1942    3.8110 C   0  0  0  0  0  0  0  0  0  0  0  0
   18.5561    9.4940    4.1949 C   0  0  0  0  0  0  0  0  0  0  0  0
 18 19  1  0
 19 17  1  0
 17 14  1  0
 14 15  1  0
 14 16  1  0
 14 13  1  0
 13 12  1  0
 12  1  1  0
  1  2  2  0
  2  3  1  0
  3  4  1  0
  4  5  2  0
  5  6  1  0
  6 10  1  0
 10 11  1  0
  6  7  2  0
  7  8  1  0
  8  9  2  0
  9  1  1  0
  9  4  1  0
M  END
> <minimizedAffinity>
-6.66730

> <CNNscore>
0.4915622473

> <CNNaffinity>
4.3709874153

> <CNN_VS>
2.1486124992

> <CNNaffinity_variance>
0.8251385689

$$$$



 19 20  0  0  0  0  0  0  0  0999 V2000
   15.1262   10.5007    0.2059 C   0  0  0  0  0  0  0  0  0  0  0  0
   16.4461   10.5090   -0.2009 C   0  0  0  0  0  0  0  0  0  0  0  0
   16.5473   10.3002   -1.5377 O   0  0  0  0  0  0  0  0  0  0  0  0
   15.2808   10.1533   -2.0140 C   0  0  0  0  0  0  0  0  0  0  0  0
   14.9461    9.9214   -3.3490 C   0  0  0  0  0  0  0  0  0  0  0  0
   13.5836    9.7999   -3.6387 C   0  0  0  0  0  0  0  0  0  0  0  0
   12.6284    9.9104   -2.6203 C   0  0  0  0  0  0  0  0  0  0  0  0
   12.9962   10.1438   -1.2864 C   0  0  0  0  0  0  0  0  0  0  0  0
   14.3617   10.2676   -0.9787 C   0  0  0  0  0  0  0  0  0  0  0  0
   13.0542    9.5719   -4.8827 O   0  0  0  0  0  0  0  0  0  0  0  0
   11.6390    9.4529   -4.9652 C   0  0  0  0  0  0  0  0  0  0  0  0
   14.6149   10.6956    1.5959 C   0  0  0  0  0  0  0  0  0  0  0  0
   14.7202    9.4103    2.4296 C   0  0  0  0  0  0  0  0  0  0  0  0
   14.8916    9.6134    3.9698 C   0  0  0  0  0  0  0  0  0  0  0  0
   15.0787   11.1148    4.2595 C   0  0  0  0  0  0  0  0  0  0  0  0
   16.1759    8.8686    4.3850 C   0  0  0  0  0  0  0  0  0  0  0  0
   13.6464    9.0387    4.7068 C   0  0  0  0  0  0  0  0  0  0  0  0
   13.6492    9.6756    7.2075 C   0  0  0  0  0  0  0  0  0  0  0  0
   13.7831    8.5799    6.1654 C   0  0  0  0  0  0  0  0  0  0  0  0
 18 19  1  0
 19 17  1  0
 17 14  1  0
 14 15  1  0
 14 16  1  0
 14 13  1  0
 13 12  1  0
 12  1  1  0
  1  2  2  0
  2  3  1  0
  3  4  1  0
  4  5  2  0
  5  6  1  0
  6 10  1  0
 10 11  1  0
  6  7  2  0
  7  8  1  0
  8  9  2  0
  9  1  1  0
  9  4  1  0
M  END
> <minimizedAffinity>
-6.90370

> <CNNscore>
0.4823134542

> <CNNaffinity>
4.6717534065

> <CNN_VS>
2.2532494068

> <CNNaffinity_variance>
0.4659025967

$$$$



 19 20  0  0  0  0  0  0  0  0999 V2000
   15.4563   10.4186   -0.1650 C   0  0  0  0  0  0  0  0  0  0  0  0
   16.7102   10.4397   -0.7437 C   0  0  0  0  0  0  0  0  0  0  0  0
   16.6321   10.2619   -2.0866 O   0  0  0  0  0  0  0  0  0  0  0  0
   15.3134   10.1226   -2.3931 C   0  0  0  0  0  0  0  0  0  0  0  0
   14.8036    9.9204   -3.6765 C   0  0  0  0  0  0  0  0  0  0  0  0
   13.4145    9.8020   -3.7847 C   0  0  0  0  0  0  0  0  0  0  0  0
   12.6037    9.8866   -2.6458 C   0  0  0  0  0  0  0  0  0  0  0  0
   13.1462   10.0904   -1.3679 C   0  0  0  0  0  0  0  0  0  0  0  0
   14.5406   10.2107   -1.2422 C   0  0  0  0  0  0  0  0  0  0  0  0
   12.7239    9.6012   -4.9520 O   0  0  0  0  0  0  0  0  0  0  0  0
   11.3264    9.3622   -4.8370 C   0  0  0  0  0  0  0  0  0  0  0  0
   15.1349   10.5802    1.2849 C   0  0  0  0  0  0  0  0  0  0  0  0
   16.3959   10.5269    2.1597 C   0  0  0  0  0  0  0  0  0  0  0  0
   16.2611   11.1594    3.5826 C   0  0  0  0  0  0  0  0  0  0  0  0
   14.7858   11.0958    4.0216 C   0  0  0  0  0  0  0  0  0  0  0  0
   16.6750   12.6395    3.4617 C   0  0  0  0  0  0  0  0  0  0  0  0
   17.1874   10.3969    4.5750 C   0  0  0  0  0  0  0  0  0  0  0  0
   18.6052    8.2847    4.1423 C   0  0  0  0  0  0  0  0  0  0  0  0
   18.5043    9.7973    4.0623 C   0  0  0  0  0  0  0  0  0  0  0  0
 18 19  1  0
 19 17  1  0
 17 14  1  0
 14 15  1  0
 14 16  1  0
 14 13  1  0
 13 12  1  0
 12  1  1  0
  1  2  2  0
  2  3  1  0
  3  4  1  0
  4  5  2  0
  5  6  1  0
  6 10  1  0
 10 11  1  0
  6  7  2  0
  7  8  1  0
  8  9  2  0
  9  1  1  0
  9  4  1  0
M  END
> <minimizedAffinity>
-6.73929

> <CNNscore>
0.4520262182

> <CNNaffinity>
4.4272713661

> <CNN_VS>
2.0012426376

> <CNNaffinity_variance>
1.1024534702

$$$$



 19 20  0  0  0  0  0  0  0  0999 V2000
   15.3764   10.3107   -0.0767 C   0  0  0  0  0  0  0  0  0  0  0  0
   14.1904   10.3921    0.6264 C   0  0  0  0  0  0  0  0  0  0  0  0
   13.1219   10.2765   -0.2019 O   0  0  0  0  0  0  0  0  0  0  0  0
   13.6111   10.1175   -1.4619 C   0  0  0  0  0  0  0  0  0  0  0  0
   12.8353    9.9619   -2.6116 C   0  0  0  0  0  0  0  0  0  0  0  0
   13.5284    9.8107   -3.8165 C   0  0  0  0  0  0  0  0  0  0  0  0
   14.9289    9.8190   -3.8361 C   0  0  0  0  0  0  0  0  0  0  0  0
   15.6818    9.9776   -2.6626 C   0  0  0  0  0  0  0  0  0  0  0  0
   15.0000   10.1314   -1.4436 C   0  0  0  0  0  0  0  0  0  0  0  0
   12.9507    9.6457   -5.0490 O   0  0  0  0  0  0  0  0  0  0  0  0
   11.5318    9.5500   -5.0841 C   0  0  0  0  0  0  0  0  0  0  0  0
   16.7587   10.3937    0.4837 C   0  0  0  0  0  0  0  0  0  0  0  0
   16.8328   11.3483    1.6843 C   0  0  0  0  0  0  0  0  0  0  0  0
   17.2752   10.7029    3.0373 C   0  0  0  0  0  0  0  0  0  0  0  0
   16.9947   11.6956    4.1814 C   0  0  0  0  0  0  0  0  0  0  0  0
   18.7964   10.4682    2.9515 C   0  0  0  0  0  0  0  0  0  0  0  0
   16.5112    9.3619    3.2423 C   0  0  0  0  0  0  0  0  0  0  0  0
   14.1184    9.2090    4.1965 C   0  0  0  0  0  0  0  0  0  0  0  0
   15.6108    9.1919    4.4740 C   0  0  0  0  0  0  0  0  0  0  0  0
 18 19  1  0
 19 17  1  0
 17 14  1  0
 14 15  1  0
 14 16  1  0
 14 13  1  0
 13 12  1  0
 12  1  1  0
  1  2  2  0
  2  3  1  0
  3  4  1  0
  4  5  2  0
  5  6  1  0
  6 10  1  0
 10 11  1  0
  6  7  2  0
  7  8  1  0
  8  9  2  0
  9  1  1  0
  9  4  1  0
M  END
> <minimizedAffinity>
-6.56598

> <CNNscore>
0.4202539325

> <CNNaffinity>
4.4457821846

> <CNN_VS>
1.8683574200

> <CNNaffinity_variance>
0.6888180375

$$$$



 19 20  0  0  0  0  0  0  0  0999 V2000
   15.8768   10.6338    4.3939 C   0  0  0  0  0  0  0  0  0  0  0  0
   15.9366   11.2882    3.1790 C   0  0  0  0  0  0  0  0  0  0  0  0
   17.0311   10.9088    2.4725 O   0  0  0  0  0  0  0  0  0  0  0  0
   17.6970    9.9958    3.2310 C   0  0  0  0  0  0  0  0  0  0  0  0
   18.8818    9.3563    2.8632 C   0  0  0  0  0  0  0  0  0  0  0  0
   19.4117    8.4467    3.7835 C   0  0  0  0  0  0  0  0  0  0  0  0
   18.7638    8.2111    5.0027 C   0  0  0  0  0  0  0  0  0  0  0  0
   17.5730    8.8701    5.3444 C   0  0  0  0  0  0  0  0  0  0  0  0
   17.0279    9.7878    4.4305 C   0  0  0  0  0  0  0  0  0  0  0  0
   20.5617    7.7207    3.6092 O   0  0  0  0  0  0  0  0  0  0  0  0
   21.1112    7.1028    4.7667 C   0  0  0  0  0  0  0  0  0  0  0  0
   14.8245   10.7853    5.4433 C   0  0  0  0  0  0  0  0  0  0  0  0
   15.2504   10.1523    6.7761 C   0  0  0  0  0  0  0  0  0  0  0  0
   14.2983    9.0467    7.3363 C   0  0  0  0  0  0  0  0  0  0  0  0
   15.1475    7.8778    7.8707 C   0  0  0  0  0  0  0  0  0  0  0  0
   13.4494    8.5380    6.1543 C   0  0  0  0  0  0  0  0  0  0  0  0
   13.3992    9.6579    8.4509 C   0  0  0  0  0  0  0  0  0  0  0  0
   14.0027   11.1709   10.4523 C   0  0  0  0  0  0  0  0  0  0  0  0
   13.7014   11.0715    8.9678 C   0  0  0  0  0  0  0  0  0  0  0  0
 18 19  1  0
 19 17  1  0
 17 14  1  0
 14 15  1  0
 14 16  1  0
 14 13  1  0
 13 12  1  0
 12  1  1  0
  1  2  2  0
  2  3  1  0
  3  4  1  0
  4  5  2  0
  5  6  1  0
  6 10  1  0
 10 11  1  0
  6  7  2  0
  7  8  1  0
  8  9  2  0
  9  1  1  0
  9  4  1  0
M  END
> <minimizedAffinity>
-5.39109

> <CNNscore>
0.3628286421

> <CNNaffinity>
4.8818507195

> <CNN_VS>
1.7712752819

> <CNNaffinity_variance>
0.1055476367

$$$$



 19 20  0  0  0  0  0  0  0  0999 V2000
   21.6534   18.9492   -5.1483 C   0  0  0  0  0  0  0  0  0  0  0  0
   21.5891   18.0766   -4.0796 C   0  0  0  0  0  0  0  0  0  0  0  0
   20.4904   18.3141   -3.3197 O   0  0  0  0  0  0  0  0  0  0  0  0
   19.8261   19.3533   -3.8952 C   0  0  0  0  0  0  0  0  0  0  0  0
   18.6374   19.9093   -3.4200 C   0  0  0  0  0  0  0  0  0  0  0  0
   18.1090   20.9747   -4.1553 C   0  0  0  0  0  0  0  0  0  0  0  0
   18.7619   21.4372   -5.3049 C   0  0  0  0  0  0  0  0  0  0  0  0
   19.9567   20.8574   -5.7579 C   0  0  0  0  0  0  0  0  0  0  0  0
   20.5011   19.7860   -5.0296 C   0  0  0  0  0  0  0  0  0  0  0  0
   16.9556   21.6520   -3.8538 O   0  0  0  0  0  0  0  0  0  0  0  0
   16.4682   22.5572   -4.8370 C   0  0  0  0  0  0  0  0  0  0  0  0
   22.7106   18.9997   -6.2025 C   0  0  0  0  0  0  0  0  0  0  0  0
   22.4678   17.9599   -7.3063 C   0  0  0  0  0  0  0  0  0  0  0  0
   23.3233   18.1348   -8.6025 C   0  0  0  0  0  0  0  0  0  0  0  0
   22.9189   19.4494   -9.2963 C   0  0  0  0  0  0  0  0  0  0  0  0
   22.9765   16.9586   -9.5367 C   0  0  0  0  0  0  0  0  0  0  0  0
   24.8344   18.1266   -8.2271 C   0  0  0  0  0  0  0  0  0  0  0  0
   26.8920   18.6741   -9.6850 C   0  0  0  0  0  0  0  0  0  0  0  0
   25.7605   19.1982   -8.8193 C   0  0  0  0  0  0  0  0  0  0  0  0
 18 19  1  0
 19 17  1  0
 17 14  1  0
 14 15  1  0
 14 16  1  0
 14 13  1  0
 13 12  1  0
 12  1  1  0
  1  2  2  0
  2  3  1  0
  3  4  1  0
  4  5  2  0
  5  6  1  0
  6 10  1  0
 10 11  1  0
  6  7  2  0
  7  8  1  0
  8  9  2  0
  9  1  1  0
  9  4  1  0
M  END
> <minimizedAffinity>
-4.55854

> <CNNscore>
0.2485732138

> <CNNaffinity>
3.6087124348

> <CNN_VS>
0.8970292211

> <CNNaffinity_variance>
0.6903941631

$$$$



 19 20  0  0  0  0  0  0  0  0999 V2000
   21.5622   18.0733   -5.8620 C   0  0  0  0  0  0  0  0  0  0  0  0
   20.6210   17.2155   -6.3965 C   0  0  0  0  0  0  0  0  0  0  0  0
   20.9520   16.8528   -7.6614 O   0  0  0  0  0  0  0  0  0  0  0  0
   22.1228   17.4790   -7.9608 C   0  0  0  0  0  0  0  0  0  0  0  0
   22.8059   17.3689   -9.1729 C   0  0  0  0  0  0  0  0  0  0  0  0
   23.9971   18.0925   -9.2858 C   0  0  0  0  0  0  0  0  0  0  0  0
   24.4548   18.8776   -8.2202 C   0  0  0  0  0  0  0  0  0  0  0  0
   23.7452   18.9683   -7.0130 C   0  0  0  0  0  0  0  0  0  0  0  0
   22.5458   18.2477   -6.8839 C   0  0  0  0  0  0  0  0  0  0  0  0
   24.8096   18.1158  -10.3900 O   0  0  0  0  0  0  0  0  0  0  0  0
   25.9140   19.0117  -10.3544 C   0  0  0  0  0  0  0  0  0  0  0  0
   21.5465   18.6855   -4.4994 C   0  0  0  0  0  0  0  0  0  0  0  0
   20.1176   18.8430   -3.9595 C   0  0  0  0  0  0  0  0  0  0  0  0
   19.5642   20.3042   -3.9220 C   0  0  0  0  0  0  0  0  0  0  0  0
   18.7710   20.5731   -5.2149 C   0  0  0  0  0  0  0  0  0  0  0  0
   20.7818   21.2491   -3.8864 C   0  0  0  0  0  0  0  0  0  0  0  0
   18.6756   20.4860   -2.6565 C   0  0  0  0  0  0  0  0  0  0  0  0
   17.6918   22.1546   -0.9515 C   0  0  0  0  0  0  0  0  0  0  0  0
   18.9021   21.7034   -1.7491 C   0  0  0  0  0  0  0  0  0  0  0  0
 18 19  1  0
 19 17  1  0
 17 14  1  0
 14 15  1  0
 14 16  1  0
 14 13  1  0
 13 12  1  0
 12  1  1  0
  1  2  2  0
  2  3  1  0
  3  4  1  0
  4  5  2  0
  5  6  1  0
  6 10  1  0
 10 11  1  0
  6  7  2  0
  7  8  1  0
  8  9  2  0
  9  1  1  0
  9  4  1  0
M  END
> <minimizedAffinity>
-5.19461

> <CNNscore>
0.2260603309

> <CNNaffinity>
3.4936363697

> <CNN_VS>
0.7897725701

> <CNNaffinity_variance>
0.5859797001

$$$$



 19 20  0  0  0  0  0  0  0  0999 V2000
    8.3097   12.5651  -10.0420 C   0  0  0  0  0  0  0  0  0  0  0  0
    7.8963   13.7336   -9.4327 C   0  0  0  0  0  0  0  0  0  0  0  0
    8.5187   14.8125   -9.9708 O   0  0  0  0  0  0  0  0  0  0  0  0
    9.3495   14.3478  -10.9436 C   0  0  0  0  0  0  0  0  0  0  0  0
   10.1741   15.1411  -11.7427 C   0  0  0  0  0  0  0  0  0  0  0  0
   10.9556   14.4725  -12.6900 C   0  0  0  0  0  0  0  0  0  0  0  0
   10.8918   13.0782  -12.8068 C   0  0  0  0  0  0  0  0  0  0  0  0
   10.0523   12.3073  -11.9883 C   0  0  0  0  0  0  0  0  0  0  0  0
    9.2610   12.9643  -11.0307 C   0  0  0  0  0  0  0  0  0  0  0  0
   11.8255   15.0700  -13.5653 O   0  0  0  0  0  0  0  0  0  0  0  0
   12.7806   14.2257  -14.1965 C   0  0  0  0  0  0  0  0  0  0  0  0
    7.8520   11.1785   -9.7262 C   0  0  0  0  0  0  0  0  0  0  0  0
    6.4459   10.9008  -10.2775 C   0  0  0  0  0  0  0  0  0  0  0  0
    5.4065   10.3607   -9.2427 C   0  0  0  0  0  0  0  0  0  0  0  0
    4.0764   10.0811   -9.9678 C   0  0  0  0  0  0  0  0  0  0  0  0
    5.1762   11.4783   -8.2061 C   0  0  0  0  0  0  0  0  0  0  0  0
    5.9718    9.0767   -8.5675 C   0  0  0  0  0  0  0  0  0  0  0  0
    4.4222    7.5426   -7.1874 C   0  0  0  0  0  0  0  0  0  0  0  0
    5.1040    7.8113   -8.5169 C   0  0  0  0  0  0  0  0  0  0  0  0
 18 19  1  0
 19 17  1  0
 17 14  1  0
 14 15  1  0
 14 16  1  0
 14 13  1  0
 13 12  1  0
 12  1  1  0
  1  2  2  0
  2  3  1  0
  3  4  1  0
  4  5  2  0
  5  6  1  0
  6 10  1  0
 10 11  1  0
  6  7  2  0
  7  8  1  0
  8  9  2  0
  9  1  1  0
  9  4  1  0
M  END
> <minimizedAffinity>
-4.22432

> <CNNscore>
0.2099545449

> <CNNaffinity>
3.4042937756

> <CNN_VS>
0.7147469521

> <CNNaffinity_variance>
0.8660861850

$$$$
