


 25 31  0  0  0  0  0  0  0  0999 V2000
  -43.6192    0.9045  -15.6677 O   0  0  0  0  0  0  0  0  0  0  0  0
  -42.8184    1.8372  -15.6435 C   0  0  0  0  0  0  0  0  0  0  0  0
  -41.3211    1.5591  -15.5578 C   0  0  0  0  0  0  0  0  0  0  0  0
  -40.3921    2.5476  -16.3084 C   0  0  0  0  0  0  0  0  0  0  0  0
  -39.3585    2.8794  -15.3707 O   0  0  0  0  0  0  0  0  0  0  0  0
  -38.2480    3.5731  -15.9226 C   0  0  0  0  0  0  0  0  0  0  0  0
  -38.5112    5.0350  -15.7997 C   0  0  0  0  0  0  0  0  0  0  0  0
  -39.4859    5.6698  -16.4739 C   0  0  0  0  0  0  0  0  0  0  0  0
  -39.8031    7.1304  -16.2509 C   0  0  0  0  0  0  0  0  0  0  0  0
  -41.2272    7.3449  -15.9721 N   0  0  0  0  0  0  0  0  0  0  0  0
  -41.5759    7.0654  -14.5715 C   0  0  0  0  0  0  0  0  0  0  0  0
  -42.9303    6.3810  -14.6196 C   0  0  0  0  0  0  0  0  0  0  0  0
  -42.8661    5.5811  -15.9268 C   0  0  0  0  0  0  0  0  0  0  0  0
  -44.2428    5.1020  -16.3126 C   0  0  0  0  0  0  0  0  0  0  0  0
  -45.3170    5.8501  -16.7780 C   0  0  0  0  0  0  0  0  0  0  0  0
  -46.5265    5.1995  -17.0291 C   0  0  0  0  0  0  0  0  0  0  0  0
  -46.6533    3.8207  -16.8098 C   0  0  0  0  0  0  0  0  0  0  0  0
  -45.5712    3.0722  -16.3398 C   0  0  0  0  0  0  0  0  0  0  0  0
  -44.3756    3.7250  -16.0943 C   0  0  0  0  0  0  0  0  0  0  0  0
  -43.1513    3.1790  -15.6780 N   0  0  0  0  0  0  0  0  0  0  0  0
  -42.1175    4.2247  -15.7250 C   0  0  0  0  0  0  0  0  0  0  0  0
  -41.1669    3.7729  -16.8425 C   0  0  0  0  0  0  0  0  0  0  0  0
  -40.3807    4.9396  -17.4562 C   0  0  0  0  0  0  0  0  0  0  0  0
  -41.4250    5.9140  -18.0234 C   0  0  0  0  0  0  0  0  0  0  0  0
  -42.1488    6.5810  -16.8547 C   0  0  0  0  0  0  0  0  0  0  0  0
  1  2  2  0
  2  3  1  0
  4  3  1  0
  4  5  1  0
  5  6  1  0
  6  7  1  0
  7  8  2  0
  8  9  1  0
  9 10  1  0
 10 11  1  0
 11 12  1  0
 13 12  1  0
 13 14  1  0
 14 15  2  0
 15 16  1  0
 16 17  2  0
 17 18  1  0
 18 19  2  0
 19 20  1  0
 21 20  1  0
 21 22  1  0
 22 23  1  0
 23 24  1  0
 25 24  1  0
 20  2  1  0
 22  4  1  0
 23  8  1  0
 25 10  1  0
 21 13  1  0
 25 13  1  0
 19 14  1  0
M  END
> <minimizedAffinity>
-11.30452

> <CNNscore>
0.9690839648

> <CNNaffinity>
7.8547997475

> <CNN_VS>
7.6119604111

> <CNNaffinity_variance>
0.6203625798

$$$$



 25 31  0  0  0  0  0  0  0  0999 V2000
  -40.9653    1.1070  -15.7214 O   0  0  0  0  0  0  0  0  0  0  0  0
  -41.6209    2.1160  -15.9743 C   0  0  0  0  0  0  0  0  0  0  0  0
  -43.1450    2.0698  -15.9318 C   0  0  0  0  0  0  0  0  0  0  0  0
  -43.8607    3.3583  -15.4511 C   0  0  0  0  0  0  0  0  0  0  0  0
  -44.9021    3.5910  -16.4097 O   0  0  0  0  0  0  0  0  0  0  0  0
  -45.8549    4.5756  -16.0333 C   0  0  0  0  0  0  0  0  0  0  0  0
  -45.3910    5.8902  -16.5607 C   0  0  0  0  0  0  0  0  0  0  0  0
  -44.2863    6.5159  -16.1183 C   0  0  0  0  0  0  0  0  0  0  0  0
  -43.7768    7.7940  -16.7433 C   0  0  0  0  0  0  0  0  0  0  0  0
  -42.3616    7.6947  -17.1162 N   0  0  0  0  0  0  0  0  0  0  0  0
  -42.1635    7.0009  -18.3972 C   0  0  0  0  0  0  0  0  0  0  0  0
  -40.9238    6.1452  -18.2074 C   0  0  0  0  0  0  0  0  0  0  0  0
  -41.0059    5.7424  -16.7296 C   0  0  0  0  0  0  0  0  0  0  0  0
  -39.6889    5.1679  -16.2723 C   0  0  0  0  0  0  0  0  0  0  0  0
  -38.4852    5.8298  -16.0648 C   0  0  0  0  0  0  0  0  0  0  0  0
  -37.3682    5.0835  -15.6845 C   0  0  0  0  0  0  0  0  0  0  0  0
  -37.4610    3.6942  -15.5214 C   0  0  0  0  0  0  0  0  0  0  0  0
  -38.6729    3.0320  -15.7329 C   0  0  0  0  0  0  0  0  0  0  0  0
  -39.7753    3.7797  -16.1090 C   0  0  0  0  0  0  0  0  0  0  0  0
  -41.0940    3.3471  -16.3197 N   0  0  0  0  0  0  0  0  0  0  0  0
  -41.9575    4.5199  -16.5275 C   0  0  0  0  0  0  0  0  0  0  0  0
  -42.8775    4.5402  -15.2987 C   0  0  0  0  0  0  0  0  0  0  0  0
  -43.4366    5.9388  -15.0031 C   0  0  0  0  0  0  0  0  0  0  0  0
  -42.2217    6.8477  -14.7589 C   0  0  0  0  0  0  0  0  0  0  0  0
  -41.4979    7.0548  -16.0886 C   0  0  0  0  0  0  0  0  0  0  0  0
  1  2  2  0
  2  3  1  0
  4  3  1  0
  4  5  1  0
  5  6  1  0
  6  7  1  0
  7  8  2  0
  8  9  1  0
  9 10  1  0
 10 11  1  0
 11 12  1  0
 13 12  1  0
 13 14  1  0
 14 15  2  0
 15 16  1  0
 16 17  2  0
 17 18  1  0
 18 19  2  0
 19 20  1  0
 21 20  1  0
 21 22  1  0
 22 23  1  0
 23 24  1  0
 25 24  1  0
 20  2  1  0
 22  4  1  0
 23  8  1  0
 25 10  1  0
 21 13  1  0
 25 13  1  0
 19 14  1  0
M  END
> <minimizedAffinity>
-10.51849

> <CNNscore>
0.9098384976

> <CNNaffinity>
7.4022574425

> <CNN_VS>
6.7348589897

> <CNNaffinity_variance>
0.2803182602

$$$$



 25 31  0  0  0  0  0  0  0  0999 V2000
  -38.9265    2.8792  -16.1045 O   0  0  0  0  0  0  0  0  0  0  0  0
  -39.5038    3.9642  -16.1377 C   0  0  0  0  0  0  0  0  0  0  0  0
  -38.7476    5.2219  -16.5540 C   0  0  0  0  0  0  0  0  0  0  0  0
  -39.5577    6.2854  -17.3390 C   0  0  0  0  0  0  0  0  0  0  0  0
  -39.2548    7.5350  -16.7029 O   0  0  0  0  0  0  0  0  0  0  0  0
  -39.6833    8.6888  -17.4129 C   0  0  0  0  0  0  0  0  0  0  0  0
  -41.0512    9.0406  -16.9366 C   0  0  0  0  0  0  0  0  0  0  0  0
  -42.1311    8.2706  -17.1561 C   0  0  0  0  0  0  0  0  0  0  0  0
  -43.4863    8.5938  -16.5705 C   0  0  0  0  0  0  0  0  0  0  0  0
  -44.0564    7.4520  -15.8473 N   0  0  0  0  0  0  0  0  0  0  0  0
  -43.5122    7.3167  -14.4882 C   0  0  0  0  0  0  0  0  0  0  0  0
  -43.3434    5.8244  -14.2656 C   0  0  0  0  0  0  0  0  0  0  0  0
  -42.9783    5.3067  -15.6626 C   0  0  0  0  0  0  0  0  0  0  0  0
  -43.0992    3.8044  -15.7094 C   0  0  0  0  0  0  0  0  0  0  0  0
  -44.2531    3.0311  -15.6823 C   0  0  0  0  0  0  0  0  0  0  0  0
  -44.1268    1.6407  -15.6859 C   0  0  0  0  0  0  0  0  0  0  0  0
  -42.8605    1.0400  -15.7107 C   0  0  0  0  0  0  0  0  0  0  0  0
  -41.7024    1.8211  -15.7359 C   0  0  0  0  0  0  0  0  0  0  0  0
  -41.8367    3.1987  -15.7330 C   0  0  0  0  0  0  0  0  0  0  0  0
  -40.8311    4.1749  -15.8113 N   0  0  0  0  0  0  0  0  0  0  0  0
  -41.4562    5.4986  -15.9581 C   0  0  0  0  0  0  0  0  0  0  0  0
  -41.0658    5.9515  -17.3720 C   0  0  0  0  0  0  0  0  0  0  0  0
  -42.0430    6.9832  -17.9521 C   0  0  0  0  0  0  0  0  0  0  0  0
  -43.4208    6.3033  -17.9852 C   0  0  0  0  0  0  0  0  0  0  0  0
  -43.9177    6.1480  -16.5486 C   0  0  0  0  0  0  0  0  0  0  0  0
  1  2  2  0
  2  3  1  0
  4  3  1  0
  4  5  1  0
  5  6  1  0
  6  7  1  0
  7  8  2  0
  8  9  1  0
  9 10  1  0
 10 11  1  0
 11 12  1  0
 13 12  1  0
 13 14  1  0
 14 15  2  0
 15 16  1  0
 16 17  2  0
 17 18  1  0
 18 19  2  0
 19 20  1  0
 21 20  1  0
 21 22  1  0
 22 23  1  0
 23 24  1  0
 25 24  1  0
 20  2  1  0
 22  4  1  0
 23  8  1  0
 25 10  1  0
 21 13  1  0
 25 13  1  0
 19 14  1  0
M  END
> <minimizedAffinity>
-10.26471

> <CNNscore>
0.8413320184

> <CNNaffinity>
7.1902003288

> <CNN_VS>
6.0493459702

> <CNNaffinity_variance>
0.1072353944

$$$$



 25 31  0  0  0  0  0  0  0  0999 V2000
  -46.3566    6.0677  -17.6284 O   0  0  0  0  0  0  0  0  0  0  0  0
  -45.1826    6.3932  -17.4632 C   0  0  0  0  0  0  0  0  0  0  0  0
  -44.7485    7.8374  -17.6926 C   0  0  0  0  0  0  0  0  0  0  0  0
  -43.6237    8.3740  -16.7705 C   0  0  0  0  0  0  0  0  0  0  0  0
  -42.6904    9.0173  -17.6497 O   0  0  0  0  0  0  0  0  0  0  0  0
  -41.7038    9.8087  -17.0021 C   0  0  0  0  0  0  0  0  0  0  0  0
  -40.5161    8.9452  -16.7466 C   0  0  0  0  0  0  0  0  0  0  0  0
  -40.5249    7.9117  -15.8868 C   0  0  0  0  0  0  0  0  0  0  0  0
  -39.3421    6.9849  -15.7257 C   0  0  0  0  0  0  0  0  0  0  0  0
  -39.7268    5.5765  -15.8685 N   0  0  0  0  0  0  0  0  0  0  0  0
  -39.8457    5.1644  -17.2747 C   0  0  0  0  0  0  0  0  0  0  0  0
  -41.0514    4.2432  -17.3268 C   0  0  0  0  0  0  0  0  0  0  0  0
  -41.9839    4.8354  -16.2626 C   0  0  0  0  0  0  0  0  0  0  0  0
  -43.0872    3.8608  -15.9360 C   0  0  0  0  0  0  0  0  0  0  0  0
  -42.9991    2.6587  -15.2452 C   0  0  0  0  0  0  0  0  0  0  0  0
  -44.1518    1.8845  -15.1000 C   0  0  0  0  0  0  0  0  0  0  0  0
  -45.3705    2.3112  -15.6459 C   0  0  0  0  0  0  0  0  0  0  0  0
  -45.4546    3.5199  -16.3417 C   0  0  0  0  0  0  0  0  0  0  0  0
  -44.3071    4.2814  -16.4802 C   0  0  0  0  0  0  0  0  0  0  0  0
  -44.1620    5.5416  -17.0814 N   0  0  0  0  0  0  0  0  0  0  0  0
  -42.8005    6.0397  -16.8315 C   0  0  0  0  0  0  0  0  0  0  0  0
  -42.9996    7.2520  -15.9110 C   0  0  0  0  0  0  0  0  0  0  0  0
  -41.7544    7.5654  -15.0701 C   0  0  0  0  0  0  0  0  0  0  0  0
  -41.4754    6.3115  -14.2264 C   0  0  0  0  0  0  0  0  0  0  0  0
  -40.9777    5.2050  -15.1552 C   0  0  0  0  0  0  0  0  0  0  0  0
  1  2  2  0
  2  3  1  0
  4  3  1  0
  4  5  1  0
  5  6  1  0
  6  7  1  0
  7  8  2  0
  8  9  1  0
  9 10  1  0
 10 11  1  0
 11 12  1  0
 13 12  1  0
 13 14  1  0
 14 15  2  0
 15 16  1  0
 16 17  2  0
 17 18  1  0
 18 19  2  0
 19 20  1  0
 21 20  1  0
 21 22  1  0
 22 23  1  0
 23 24  1  0
 25 24  1  0
 20  2  1  0
 22  4  1  0
 23  8  1  0
 25 10  1  0
 21 13  1  0
 25 13  1  0
 19 14  1  0
M  END
> <minimizedAffinity>
-7.99097

> <CNNscore>
0.8208020329

> <CNNaffinity>
7.4270682335

> <CNN_VS>
6.0961527824

> <CNNaffinity_variance>
0.4332884848

$$$$



 25 31  0  0  0  0  0  0  0  0999 V2000
  -46.2406    2.9362  -16.3114 O   0  0  0  0  0  0  0  0  0  0  0  0
  -45.6413    3.9850  -16.5404 C   0  0  0  0  0  0  0  0  0  0  0  0
  -46.4177    5.2817  -16.7466 C   0  0  0  0  0  0  0  0  0  0  0  0
  -45.7422    6.5789  -16.2324 C   0  0  0  0  0  0  0  0  0  0  0  0
  -45.8639    7.5193  -17.3088 O   0  0  0  0  0  0  0  0  0  0  0  0
  -45.5435    8.8619  -16.9714 C   0  0  0  0  0  0  0  0  0  0  0  0
  -44.0956    9.0745  -17.2543 C   0  0  0  0  0  0  0  0  0  0  0  0
  -43.1115    8.4665  -16.5692 C   0  0  0  0  0  0  0  0  0  0  0  0
  -41.6552    8.6139  -16.9450 C   0  0  0  0  0  0  0  0  0  0  0  0
  -40.9949    7.3129  -17.0976 N   0  0  0  0  0  0  0  0  0  0  0  0
  -41.2598    6.6963  -18.4056 C   0  0  0  0  0  0  0  0  0  0  0  0
  -41.4366    5.2143  -18.1269 C   0  0  0  0  0  0  0  0  0  0  0  0
  -42.0941    5.2003  -16.7412 C   0  0  0  0  0  0  0  0  0  0  0  0
  -42.0417    3.8125  -16.1538 C   0  0  0  0  0  0  0  0  0  0  0  0
  -40.9359    3.1185  -15.6787 C   0  0  0  0  0  0  0  0  0  0  0  0
  -41.1126    1.8120  -15.2195 C   0  0  0  0  0  0  0  0  0  0  0  0
  -42.3799    1.2131  -15.2437 C   0  0  0  0  0  0  0  0  0  0  0  0
  -43.4892    1.9137  -15.7241 C   0  0  0  0  0  0  0  0  0  0  0  0
  -43.3052    3.2087  -16.1766 C   0  0  0  0  0  0  0  0  0  0  0  0
  -44.2685    4.1158  -16.6452 N   0  0  0  0  0  0  0  0  0  0  0  0
  -43.6361    5.4293  -16.8432 C   0  0  0  0  0  0  0  0  0  0  0  0
  -44.2851    6.3301  -15.7830 C   0  0  0  0  0  0  0  0  0  0  0  0
  -43.4062    7.5324  -15.4119 C   0  0  0  0  0  0  0  0  0  0  0  0
  -42.0897    6.9547  -14.8689 C   0  0  0  0  0  0  0  0  0  0  0  0
  -41.3207    6.3287  -16.0315 C   0  0  0  0  0  0  0  0  0  0  0  0
  1  2  2  0
  2  3  1  0
  4  3  1  0
  4  5  1  0
  5  6  1  0
  6  7  1  0
  7  8  2  0
  8  9  1  0
  9 10  1  0
 10 11  1  0
 11 12  1  0
 13 12  1  0
 13 14  1  0
 14 15  2  0
 15 16  1  0
 16 17  2  0
 17 18  1  0
 18 19  2  0
 19 20  1  0
 21 20  1  0
 21 22  1  0
 22 23  1  0
 23 24  1  0
 25 24  1  0
 20  2  1  0
 22  4  1  0
 23  8  1  0
 25 10  1  0
 21 13  1  0
 25 13  1  0
 19 14  1  0
M  END
> <minimizedAffinity>
-8.06629

> <CNNscore>
0.5487188101

> <CNNaffinity>
7.0447788239

> <CNN_VS>
3.8656027317

> <CNNaffinity_variance>
0.3284837306

$$$$



 25 31  0  0  0  0  0  0  0  0999 V2000
  -52.8595    4.6658  -22.4651 O   0  0  0  0  0  0  0  0  0  0  0  0
  -52.2922    5.6997  -22.8128 C   0  0  0  0  0  0  0  0  0  0  0  0
  -51.7081    5.8180  -24.2170 C   0  0  0  0  0  0  0  0  0  0  0  0
  -51.7643    7.2225  -24.8710 C   0  0  0  0  0  0  0  0  0  0  0  0
  -50.4493    7.4453  -25.3989 O   0  0  0  0  0  0  0  0  0  0  0  0
  -50.3338    8.5620  -26.2700 C   0  0  0  0  0  0  0  0  0  0  0  0
  -49.9559    9.7480  -25.4501 C   0  0  0  0  0  0  0  0  0  0  0  0
  -50.7695   10.3039  -24.5355 C   0  0  0  0  0  0  0  0  0  0  0  0
  -50.3240   11.4373  -23.6407 C   0  0  0  0  0  0  0  0  0  0  0  0
  -50.5727   11.1469  -22.2245 N   0  0  0  0  0  0  0  0  0  0  0  0
  -49.5361   10.2871  -21.6349 C   0  0  0  0  0  0  0  0  0  0  0  0
  -50.2755    9.3360  -20.7109 C   0  0  0  0  0  0  0  0  0  0  0  0
  -51.6128    9.1248  -21.4320 C   0  0  0  0  0  0  0  0  0  0  0  0
  -52.6083    8.4756  -20.5040 C   0  0  0  0  0  0  0  0  0  0  0  0
  -53.2464    9.0286  -19.4008 C   0  0  0  0  0  0  0  0  0  0  0  0
  -54.1013    8.2212  -18.6481 C   0  0  0  0  0  0  0  0  0  0  0  0
  -54.3053    6.8790  -18.9974 C   0  0  0  0  0  0  0  0  0  0  0  0
  -53.6601    6.3260  -20.1064 C   0  0  0  0  0  0  0  0  0  0  0  0
  -52.8150    7.1337  -20.8474 C   0  0  0  0  0  0  0  0  0  0  0  0
  -52.1112    6.8186  -22.0204 N   0  0  0  0  0  0  0  0  0  0  0  0
  -51.4885    8.0414  -22.5507 C   0  0  0  0  0  0  0  0  0  0  0  0
  -52.2267    8.3053  -23.8706 C   0  0  0  0  0  0  0  0  0  0  0  0
  -52.1714    9.7798  -24.2931 C   0  0  0  0  0  0  0  0  0  0  0  0
  -52.8309   10.5800  -23.1589 C   0  0  0  0  0  0  0  0  0  0  0  0
  -51.9050   10.5489  -21.9438 C   0  0  0  0  0  0  0  0  0  0  0  0
  1  2  2  0
  2  3  1  0
  4  3  1  0
  4  5  1  0
  5  6  1  0
  6  7  1  0
  7  8  2  0
  8  9  1  0
  9 10  1  0
 10 11  1  0
 11 12  1  0
 13 12  1  0
 13 14  1  0
 14 15  2  0
 15 16  1  0
 16 17  2  0
 17 18  1  0
 18 19  2  0
 19 20  1  0
 21 20  1  0
 21 22  1  0
 22 23  1  0
 23 24  1  0
 25 24  1  0
 20  2  1  0
 22  4  1  0
 23  8  1  0
 25 10  1  0
 21 13  1  0
 25 13  1  0
 19 14  1  0
M  END
> <minimizedAffinity>
-6.13841

> <CNNscore>
0.4651040435

> <CNNaffinity>
5.4754643440

> <CNN_VS>
2.5466606617

> <CNNaffinity_variance>
0.2990715206

$$$$



 25 31  0  0  0  0  0  0  0  0999 V2000
  -35.5018   -0.2973  -17.2823 O   0  0  0  0  0  0  0  0  0  0  0  0
  -34.5773   -0.2544  -16.4729 C   0  0  0  0  0  0  0  0  0  0  0  0
  -33.3875   -1.1978  -16.6183 C   0  0  0  0  0  0  0  0  0  0  0  0
  -32.0071   -0.6378  -16.1891 C   0  0  0  0  0  0  0  0  0  0  0  0
  -31.4254   -1.6588  -15.3664 O   0  0  0  0  0  0  0  0  0  0  0  0
  -30.0483   -1.4762  -15.0675 C   0  0  0  0  0  0  0  0  0  0  0  0
  -29.9518   -0.7138  -13.7904 C   0  0  0  0  0  0  0  0  0  0  0  0
  -30.3454    0.5653  -13.6616 C   0  0  0  0  0  0  0  0  0  0  0  0
  -30.3388    1.2824  -12.3313 C   0  0  0  0  0  0  0  0  0  0  0  0
  -31.6370    1.8977  -12.0347 N   0  0  0  0  0  0  0  0  0  0  0  0
  -32.6087    0.9333  -11.4989 C   0  0  0  0  0  0  0  0  0  0  0  0
  -33.9389    1.3052  -12.1292 C   0  0  0  0  0  0  0  0  0  0  0  0
  -33.5320    1.8135  -13.5181 C   0  0  0  0  0  0  0  0  0  0  0  0
  -34.6846    2.5387  -14.1657 C   0  0  0  0  0  0  0  0  0  0  0  0
  -35.2243    3.7739  -13.8294 C   0  0  0  0  0  0  0  0  0  0  0  0
  -36.3336    4.2352  -14.5406 C   0  0  0  0  0  0  0  0  0  0  0  0
  -36.8927    3.4634  -15.5686 C   0  0  0  0  0  0  0  0  0  0  0  0
  -36.3482    2.2208  -15.9026 C   0  0  0  0  0  0  0  0  0  0  0  0
  -35.2481    1.7715  -15.1930 C   0  0  0  0  0  0  0  0  0  0  0  0
  -34.5051    0.5961  -15.3847 N   0  0  0  0  0  0  0  0  0  0  0  0
  -33.3191    0.6295  -14.5149 C   0  0  0  0  0  0  0  0  0  0  0  0
  -32.1349    0.7322  -15.4863 C   0  0  0  0  0  0  0  0  0  0  0  0
  -30.8906    1.3531  -14.8366 C   0  0  0  0  0  0  0  0  0  0  0  0
  -31.3026    2.7575  -14.3678 C   0  0  0  0  0  0  0  0  0  0  0  0
  -32.2565    2.6111  -13.1831 C   0  0  0  0  0  0  0  0  0  0  0  0
  1  2  2  0
  2  3  1  0
  4  3  1  0
  4  5  1  0
  5  6  1  0
  6  7  1  0
  7  8  2  0
  8  9  1  0
  9 10  1  0
 10 11  1  0
 11 12  1  0
 13 12  1  0
 13 14  1  0
 14 15  2  0
 15 16  1  0
 16 17  2  0
 17 18  1  0
 18 19  2  0
 19 20  1  0
 21 20  1  0
 21 22  1  0
 22 23  1  0
 23 24  1  0
 25 24  1  0
 20  2  1  0
 22  4  1  0
 23  8  1  0
 25 10  1  0
 21 13  1  0
 25 13  1  0
 19 14  1  0
M  END
> <minimizedAffinity>
-7.73200

> <CNNscore>
0.2490996420

> <CNNaffinity>
5.6544451714

> <CNN_VS>
1.4085202217

> <CNNaffinity_variance>
0.0423906855

$$$$



 25 31  0  0  0  0  0  0  0  0999 V2000
  -48.2233    4.5211  -20.9352 O   0  0  0  0  0  0  0  0  0  0  0  0
  -49.3946    4.8327  -21.1419 C   0  0  0  0  0  0  0  0  0  0  0  0
  -50.4777    3.7592  -21.1790 C   0  0  0  0  0  0  0  0  0  0  0  0
  -51.8716    4.1672  -20.6367 C   0  0  0  0  0  0  0  0  0  0  0  0
  -52.8077    3.7152  -21.6252 O   0  0  0  0  0  0  0  0  0  0  0  0
  -54.1697    3.7502  -21.2219 C   0  0  0  0  0  0  0  0  0  0  0  0
  -54.7345    5.0700  -21.6227 C   0  0  0  0  0  0  0  0  0  0  0  0
  -54.3453    6.2364  -21.0790 C   0  0  0  0  0  0  0  0  0  0  0  0
  -54.8535    7.5695  -21.5776 C   0  0  0  0  0  0  0  0  0  0  0  0
  -53.7562    8.4929  -21.8862 N   0  0  0  0  0  0  0  0  0  0  0  0
  -53.1592    8.2381  -23.2053 C   0  0  0  0  0  0  0  0  0  0  0  0
  -51.6659    8.4409  -23.0206 C   0  0  0  0  0  0  0  0  0  0  0  0
  -51.4277    7.9584  -21.5841 C   0  0  0  0  0  0  0  0  0  0  0  0
  -50.0652    8.3943  -21.1074 C   0  0  0  0  0  0  0  0  0  0  0  0
  -49.6320    9.6756  -20.7899 C   0  0  0  0  0  0  0  0  0  0  0  0
  -48.3000    9.8572  -20.4131 C   0  0  0  0  0  0  0  0  0  0  0  0
  -47.4186    8.7683  -20.3624 C   0  0  0  0  0  0  0  0  0  0  0  0
  -47.8577    7.4815  -20.6843 C   0  0  0  0  0  0  0  0  0  0  0  0
  -49.1799    7.3103  -21.0561 C   0  0  0  0  0  0  0  0  0  0  0  0
  -49.8535    6.1181  -21.3648 N   0  0  0  0  0  0  0  0  0  0  0  0
  -51.2878    6.4036  -21.5244 C   0  0  0  0  0  0  0  0  0  0  0  0
  -51.9550    5.6821  -20.3450 C   0  0  0  0  0  0  0  0  0  0  0  0
  -53.3123    6.2933  -19.9707 C   0  0  0  0  0  0  0  0  0  0  0  0
  -53.0386    7.7586  -19.5970 C   0  0  0  0  0  0  0  0  0  0  0  0
  -52.6716    8.5214  -20.8692 C   0  0  0  0  0  0  0  0  0  0  0  0
  1  2  2  0
  2  3  1  0
  4  3  1  0
  4  5  1  0
  5  6  1  0
  6  7  1  0
  7  8  2  0
  8  9  1  0
  9 10  1  0
 10 11  1  0
 11 12  1  0
 13 12  1  0
 13 14  1  0
 14 15  2  0
 15 16  1  0
 16 17  2  0
 17 18  1  0
 18 19  2  0
 19 20  1  0
 21 20  1  0
 21 22  1  0
 22 23  1  0
 23 24  1  0
 25 24  1  0
 20  2  1  0
 22  4  1  0
 23  8  1  0
 25 10  1  0
 21 13  1  0
 25 13  1  0
 19 14  1  0
M  END
> <minimizedAffinity>
-6.17197

> <CNNscore>
0.2379186451

> <CNNaffinity>
5.0028939247

> <CNN_VS>
1.1902817488

> <CNNaffinity_variance>
0.0315926634

$$$$



 25 31  0  0  0  0  0  0  0  0999 V2000
  -33.1160    5.5883  -13.6407 O   0  0  0  0  0  0  0  0  0  0  0  0
  -32.6994    4.4444  -13.8129 C   0  0  0  0  0  0  0  0  0  0  0  0
  -31.4244    3.9805  -13.1159 C   0  0  0  0  0  0  0  0  0  0  0  0
  -31.3771    2.4923  -12.6841 C   0  0  0  0  0  0  0  0  0  0  0  0
  -30.1029    2.0098  -13.1328 O   0  0  0  0  0  0  0  0  0  0  0  0
  -29.7293    0.7377  -12.6219 C   0  0  0  0  0  0  0  0  0  0  0  0
  -30.2025   -0.3005  -13.5811 C   0  0  0  0  0  0  0  0  0  0  0  0
  -31.5020   -0.5606  -13.8070 C   0  0  0  0  0  0  0  0  0  0  0  0
  -31.9579   -1.5412  -14.8627 C   0  0  0  0  0  0  0  0  0  0  0  0
  -32.9471   -0.9487  -15.7694 N   0  0  0  0  0  0  0  0  0  0  0  0
  -32.3285   -0.1233  -16.8171 C   0  0  0  0  0  0  0  0  0  0  0  0
  -33.2458    1.0749  -16.9839 C   0  0  0  0  0  0  0  0  0  0  0  0
  -33.7777    1.3022  -15.5632 C   0  0  0  0  0  0  0  0  0  0  0  0
  -34.9588    2.2391  -15.5928 C   0  0  0  0  0  0  0  0  0  0  0  0
  -36.2391    1.9974  -16.0749 C   0  0  0  0  0  0  0  0  0  0  0  0
  -37.1715    3.0362  -16.0475 C   0  0  0  0  0  0  0  0  0  0  0  0
  -36.8186    4.2978  -15.5484 C   0  0  0  0  0  0  0  0  0  0  0  0
  -35.5293    4.5375  -15.0663 C   0  0  0  0  0  0  0  0  0  0  0  0
  -34.6116    3.5019  -15.0965 C   0  0  0  0  0  0  0  0  0  0  0  0
  -33.2910    3.4903  -14.6205 N   0  0  0  0  0  0  0  0  0  0  0  0
  -32.7624    2.1198  -14.7021 C   0  0  0  0  0  0  0  0  0  0  0  0
  -32.5774    1.6934  -13.2390 C   0  0  0  0  0  0  0  0  0  0  0  0
  -32.6019    0.1691  -13.0610 C   0  0  0  0  0  0  0  0  0  0  0  0
  -33.9718   -0.3043  -13.5719 C   0  0  0  0  0  0  0  0  0  0  0  0
  -34.0012   -0.1480  -15.0917 C   0  0  0  0  0  0  0  0  0  0  0  0
  1  2  2  0
  2  3  1  0
  4  3  1  0
  4  5  1  0
  5  6  1  0
  6  7  1  0
  7  8  2  0
  8  9  1  0
  9 10  1  0
 10 11  1  0
 11 12  1  0
 13 12  1  0
 13 14  1  0
 14 15  2  0
 15 16  1  0
 16 17  2  0
 17 18  1  0
 18 19  2  0
 19 20  1  0
 21 20  1  0
 21 22  1  0
 22 23  1  0
 23 24  1  0
 25 24  1  0
 20  2  1  0
 22  4  1  0
 23  8  1  0
 25 10  1  0
 21 13  1  0
 25 13  1  0
 19 14  1  0
M  END
> <minimizedAffinity>
-6.80857

> <CNNscore>
0.2094705552

> <CNNaffinity>
5.4782404900

> <CNN_VS>
1.1475300789

> <CNNaffinity_variance>
0.0119612319

$$$$
