


 22 24  0  0  0  0  0  0  0  0999 V2000
   15.5254   16.5133   22.9951 C   0  0  0  0  0  0  0  0  0  0  0  0
   15.3354   16.5357   21.7128 N   0  0  0  0  0  0  0  0  0  0  0  0
   16.4121   16.8756   20.8741 C   0  0  0  0  0  0  0  0  0  0  0  0
   16.2014   16.8793   19.4889 C   0  0  0  0  0  0  0  0  0  0  0  0
   17.2627   17.2162   18.6345 C   0  0  0  0  0  0  0  0  0  0  0  0
   17.3000   17.2866   17.2637 N   0  0  0  0  0  0  0  0  0  0  0  0
   18.5228   17.6498   16.9586 C   0  0  0  0  0  0  0  0  0  0  0  0
   19.2839   17.8099   18.0864 N   0  0  0  0  0  0  0  0  0  0  0  0
   18.5004   17.5411   19.1791 C   0  0  0  0  0  0  0  0  0  0  0  0
   18.7575   17.5498   20.5500 C   0  0  0  0  0  0  0  0  0  0  0  0
   17.6757   17.2068   21.3768 C   0  0  0  0  0  0  0  0  0  0  0  0
   17.8400   17.1880   22.8397 C   0  0  0  0  0  0  0  0  0  0  0  0
   18.8983   17.4891   23.3803 O   0  0  0  0  0  0  0  0  0  0  0  0
   16.7326   16.8167   23.5568 N   0  0  0  0  0  0  0  0  0  0  0  0
   20.2322   18.0733   18.1086 H   0  0  0  0  0  0  0  0  0  0  0  0
   16.8123   16.7656   24.5367 H   0  0  0  0  0  0  0  0  0  0  0  0
   13.1233   16.6261   23.6014 C   0  0  0  0  0  0  0  0  0  0  0  0
   14.4824   16.1839   23.8088 N   0  0  0  0  0  0  0  0  0  0  0  0
   14.6672   15.6087   24.5861 H   0  0  0  0  0  0  0  0  0  0  0  0
   19.0681   17.8556   15.7439 N   0  0  0  0  0  0  0  0  0  0  0  0
   18.1878   18.2975   14.6796 C   0  0  0  0  0  0  0  0  0  0  0  0
   20.0288   17.7112   15.5846 H   0  0  0  0  0  0  0  0  0  0  0  0
 17 18  1  0
 18  1  1  0
  1  2  2  0
  2  3  1  0
  3  4  2  0
  4  5  1  0
  5  6  1  0
  6  7  2  0
  7 20  1  0
 20 21  1  0
  7  8  1  0
  8  9  1  0
  9 10  1  0
 10 11  2  0
 11 12  1  0
 12 13  2  0
 12 14  1  0
 14  1  1  0
 11  3  1  0
  9  5  2  0
 18 19  1  0
 20 22  1  0
  8 15  1  0
 14 16  1  0
M  END
> <minimizedAffinity>
-8.85488

> <CNNscore>
0.9884225726

> <CNNaffinity>
6.5659790039

> <CNN_VS>
6.4899616241

> <CNNaffinity_variance>
0.2197510749

$$$$



 22 24  0  0  0  0  0  0  0  0999 V2000
   16.4657   16.8248   21.2658 C   0  0  0  0  0  0  0  0  0  0  0  0
   15.9559   16.8155   20.0738 N   0  0  0  0  0  0  0  0  0  0  0  0
   16.7799   17.1422   18.9818 C   0  0  0  0  0  0  0  0  0  0  0  0
   16.2242   17.1116   17.6960 C   0  0  0  0  0  0  0  0  0  0  0  0
   17.0295   17.4350   16.5929 C   0  0  0  0  0  0  0  0  0  0  0  0
   16.7165   17.4730   15.2564 N   0  0  0  0  0  0  0  0  0  0  0  0
   17.8172   17.8366   14.6428 C   0  0  0  0  0  0  0  0  0  0  0  0
   18.8377   18.0284   15.5364 N   0  0  0  0  0  0  0  0  0  0  0  0
   18.3609   17.7806   16.7978 C   0  0  0  0  0  0  0  0  0  0  0  0
   18.9577   17.8235   18.0578 C   0  0  0  0  0  0  0  0  0  0  0  0
   18.1257   17.4933   19.1396 C   0  0  0  0  0  0  0  0  0  0  0  0
   18.6564   17.5104   20.5127 C   0  0  0  0  0  0  0  0  0  0  0  0
   19.8136   17.8310   20.7599 O   0  0  0  0  0  0  0  0  0  0  0  0
   17.7721   17.1491   21.4955 N   0  0  0  0  0  0  0  0  0  0  0  0
   19.7573   18.2983   15.3111 H   0  0  0  0  0  0  0  0  0  0  0  0
   18.0988   17.1218   22.4239 H   0  0  0  0  0  0  0  0  0  0  0  0
   14.2928   16.0832   22.2034 C   0  0  0  0  0  0  0  0  0  0  0  0
   15.6677   16.5081   22.3248 N   0  0  0  0  0  0  0  0  0  0  0  0
   16.0527   16.5731   23.2286 H   0  0  0  0  0  0  0  0  0  0  0  0
   18.0333   18.0170   13.3252 N   0  0  0  0  0  0  0  0  0  0  0  0
   17.1662   17.3128   12.4006 C   0  0  0  0  0  0  0  0  0  0  0  0
   18.7536   18.6053   13.0021 H   0  0  0  0  0  0  0  0  0  0  0  0
 17 18  1  0
 18  1  1  0
  1  2  2  0
  2  3  1  0
  3  4  2  0
  4  5  1  0
  5  6  1  0
  6  7  2  0
  7 20  1  0
 20 21  1  0
  7  8  1  0
  8  9  1  0
  9 10  1  0
 10 11  2  0
 11 12  1  0
 12 13  2  0
 12 14  1  0
 14  1  1  0
 11  3  1  0
  9  5  2  0
 18 19  1  0
 20 22  1  0
  8 15  1  0
 14 16  1  0
M  END
> <minimizedAffinity>
-6.79784

> <CNNscore>
0.6005427837

> <CNNaffinity>
5.7795753479

> <CNN_VS>
3.4708821774

> <CNNaffinity_variance>
0.2826795876

$$$$



 22 24  0  0  0  0  0  0  0  0999 V2000
   17.7454   25.1238   21.1514 C   0  0  0  0  0  0  0  0  0  0  0  0
   17.7907   24.2549   20.1902 N   0  0  0  0  0  0  0  0  0  0  0  0
   18.4925   24.5799   19.0155 C   0  0  0  0  0  0  0  0  0  0  0  0
   18.5509   23.6271   17.9898 C   0  0  0  0  0  0  0  0  0  0  0  0
   19.2458   23.9320   16.8091 C   0  0  0  0  0  0  0  0  0  0  0  0
   19.4411   23.1720   15.6822 N   0  0  0  0  0  0  0  0  0  0  0  0
   20.1521   23.9162   14.8693 C   0  0  0  0  0  0  0  0  0  0  0  0
   20.4323   25.1323   15.4345 N   0  0  0  0  0  0  0  0  0  0  0  0
   19.8604   25.1728   16.6800 C   0  0  0  0  0  0  0  0  0  0  0  0
   19.8304   26.1514   17.6735 C   0  0  0  0  0  0  0  0  0  0  0  0
   19.1287   25.8146   18.8421 C   0  0  0  0  0  0  0  0  0  0  0  0
   19.0338   26.7779   19.9513 C   0  0  0  0  0  0  0  0  0  0  0  0
   19.5324   27.8961   19.8874 O   0  0  0  0  0  0  0  0  0  0  0  0
   18.3490   26.3450   21.0567 N   0  0  0  0  0  0  0  0  0  0  0  0
   20.9554   25.8544   15.0172 H   0  0  0  0  0  0  0  0  0  0  0  0
   18.2884   26.9516   21.8298 H   0  0  0  0  0  0  0  0  0  0  0  0
   16.1319   23.7130   22.3991 C   0  0  0  0  0  0  0  0  0  0  0  0
   17.0654   24.8095   22.2904 N   0  0  0  0  0  0  0  0  0  0  0  0
   17.2204   25.3646   23.0886 H   0  0  0  0  0  0  0  0  0  0  0  0
   20.6087   23.6263   13.6353 N   0  0  0  0  0  0  0  0  0  0  0  0
   21.5460   24.5536   13.0318 C   0  0  0  0  0  0  0  0  0  0  0  0
   20.3167   22.8146   13.1608 H   0  0  0  0  0  0  0  0  0  0  0  0
 17 18  1  0
 18  1  1  0
  1  2  2  0
  2  3  1  0
  3  4  2  0
  4  5  1  0
  5  6  1  0
  6  7  2  0
  7 20  1  0
 20 21  1  0
  7  8  1  0
  8  9  1  0
  9 10  1  0
 10 11  2  0
 11 12  1  0
 12 13  2  0
 12 14  1  0
 14  1  1  0
 11  3  1  0
  9  5  2  0
 18 19  1  0
 20 22  1  0
  8 15  1  0
 14 16  1  0
M  END
> <minimizedAffinity>
-4.80346

> <CNNscore>
0.4106787741

> <CNNaffinity>
5.0736074448

> <CNN_VS>
2.0836229324

> <CNNaffinity_variance>
0.3417932093

$$$$



 22 24  0  0  0  0  0  0  0  0999 V2000
   14.7781   15.9099   22.6878 C   0  0  0  0  0  0  0  0  0  0  0  0
   14.1706   15.7272   21.5572 N   0  0  0  0  0  0  0  0  0  0  0  0
   14.8060   16.1393   20.3721 C   0  0  0  0  0  0  0  0  0  0  0  0
   14.1492   15.9210   19.1539 C   0  0  0  0  0  0  0  0  0  0  0  0
   14.7660   16.3254   17.9598 C   0  0  0  0  0  0  0  0  0  0  0  0
   14.3273   16.2183   16.6631 N   0  0  0  0  0  0  0  0  0  0  0  0
   15.2702   16.7503   15.9227 C   0  0  0  0  0  0  0  0  0  0  0  0
   16.3113   17.1924   16.6956 N   0  0  0  0  0  0  0  0  0  0  0  0
   16.0146   16.9357   18.0094 C   0  0  0  0  0  0  0  0  0  0  0  0
   16.7068   17.1725   19.1971 C   0  0  0  0  0  0  0  0  0  0  0  0
   16.0632   16.7548   20.3731 C   0  0  0  0  0  0  0  0  0  0  0  0
   16.7066   16.9605   21.6812 C   0  0  0  0  0  0  0  0  0  0  0  0
   17.7944   17.5150   21.7920 O   0  0  0  0  0  0  0  0  0  0  0  0
   16.0090   16.4960   22.7656 N   0  0  0  0  0  0  0  0  0  0  0  0
   17.1330   17.6216   16.3641 H   0  0  0  0  0  0  0  0  0  0  0  0
   16.4205   16.5908   23.6549 H   0  0  0  0  0  0  0  0  0  0  0  0
   13.7922   14.1446   24.1239 C   0  0  0  0  0  0  0  0  0  0  0  0
   14.1629   15.5106   23.8370 N   0  0  0  0  0  0  0  0  0  0  0  0
   13.9586   16.1961   24.5134 H   0  0  0  0  0  0  0  0  0  0  0  0
   15.3209   16.8867   14.5833 N   0  0  0  0  0  0  0  0  0  0  0  0
   14.9928   15.7263   13.7779 C   0  0  0  0  0  0  0  0  0  0  0  0
   15.5716   17.7428   14.1667 H   0  0  0  0  0  0  0  0  0  0  0  0
 17 18  1  0
 18  1  1  0
  1  2  2  0
  2  3  1  0
  3  4  2  0
  4  5  1  0
  5  6  1  0
  6  7  2  0
  7 20  1  0
 20 21  1  0
  7  8  1  0
  8  9  1  0
  9 10  1  0
 10 11  2  0
 11 12  1  0
 12 13  2  0
 12 14  1  0
 14  1  1  0
 11  3  1  0
  9  5  2  0
 18 19  1  0
 20 22  1  0
  8 15  1  0
 14 16  1  0
M  END
> <minimizedAffinity>
-7.18658

> <CNNscore>
0.3785244226

> <CNNaffinity>
5.3584771156

> <CNN_VS>
2.0283143520

> <CNNaffinity_variance>
0.0979634747

$$$$



 22 24  0  0  0  0  0  0  0  0999 V2000
   17.0450   25.6055   22.0071 C   0  0  0  0  0  0  0  0  0  0  0  0
   17.7311   24.7541   21.3104 N   0  0  0  0  0  0  0  0  0  0  0  0
   17.7348   24.8721   19.9089 C   0  0  0  0  0  0  0  0  0  0  0  0
   18.4938   23.9583   19.1659 C   0  0  0  0  0  0  0  0  0  0  0  0
   18.5105   24.0584   17.7661 C   0  0  0  0  0  0  0  0  0  0  0  0
   19.1704   23.2922   16.8372 N   0  0  0  0  0  0  0  0  0  0  0  0
   18.8517   23.7955   15.6687 C   0  0  0  0  0  0  0  0  0  0  0  0
   18.0124   24.8691   15.8084 N   0  0  0  0  0  0  0  0  0  0  0  0
   17.7728   25.0604   17.1448 C   0  0  0  0  0  0  0  0  0  0  0  0
   17.0044   25.9926   17.8421 C   0  0  0  0  0  0  0  0  0  0  0  0
   17.0102   25.8658   19.2404 C   0  0  0  0  0  0  0  0  0  0  0  0
   16.2295   26.7978   20.0707 C   0  0  0  0  0  0  0  0  0  0  0  0
   15.5397   27.6852   19.5810 O   0  0  0  0  0  0  0  0  0  0  0  0
   16.3208   26.6059   21.4246 N   0  0  0  0  0  0  0  0  0  0  0  0
   17.6438   25.4113   15.0739 H   0  0  0  0  0  0  0  0  0  0  0  0
   15.8344   27.2274   22.0133 H   0  0  0  0  0  0  0  0  0  0  0  0
   16.8255   26.5974   24.2695 C   0  0  0  0  0  0  0  0  0  0  0  0
   17.0410   25.4919   23.3656 N   0  0  0  0  0  0  0  0  0  0  0  0
   17.1945   24.6006   23.7547 H   0  0  0  0  0  0  0  0  0  0  0  0
   19.2428   23.4020   14.4409 N   0  0  0  0  0  0  0  0  0  0  0  0
   18.3692   23.7144   13.3265 C   0  0  0  0  0  0  0  0  0  0  0  0
   20.0905   22.9201   14.3054 H   0  0  0  0  0  0  0  0  0  0  0  0
 17 18  1  0
 18  1  1  0
  1  2  2  0
  2  3  1  0
  3  4  2  0
  4  5  1  0
  5  6  1  0
  6  7  2  0
  7 20  1  0
 20 21  1  0
  7  8  1  0
  8  9  1  0
  9 10  1  0
 10 11  2  0
 11 12  1  0
 12 13  2  0
 12 14  1  0
 14  1  1  0
 11  3  1  0
  9  5  2  0
 18 19  1  0
 20 22  1  0
  8 15  1  0
 14 16  1  0
M  END
> <minimizedAffinity>
-4.79309

> <CNNscore>
0.3679607511

> <CNNaffinity>
5.1270098686

> <CNN_VS>
1.8865383863

> <CNNaffinity_variance>
0.5919115543

$$$$



 22 24  0  0  0  0  0  0  0  0999 V2000
   24.1570   17.6908   11.4460 C   0  0  0  0  0  0  0  0  0  0  0  0
   23.0037   17.1441   11.2179 N   0  0  0  0  0  0  0  0  0  0  0  0
   21.8379   17.8643   11.5348 C   0  0  0  0  0  0  0  0  0  0  0  0
   20.5965   17.2722   11.2677 C   0  0  0  0  0  0  0  0  0  0  0  0
   19.4210   17.9739   11.5770 C   0  0  0  0  0  0  0  0  0  0  0  0
   18.1082   17.6085   11.4083 N   0  0  0  0  0  0  0  0  0  0  0  0
   17.3975   18.6140   11.8601 C   0  0  0  0  0  0  0  0  0  0  0  0
   18.2058   19.6245   12.3097 N   0  0  0  0  0  0  0  0  0  0  0  0
   19.5116   19.2409   12.1434 C   0  0  0  0  0  0  0  0  0  0  0  0
   20.7237   19.8707   12.4257 C   0  0  0  0  0  0  0  0  0  0  0  0
   21.8803   19.1428   12.1031 C   0  0  0  0  0  0  0  0  0  0  0  0
   23.2112   19.7157   12.3634 C   0  0  0  0  0  0  0  0  0  0  0  0
   23.3562   20.8164   12.8836 O   0  0  0  0  0  0  0  0  0  0  0  0
   24.2759   18.9374   11.9906 N   0  0  0  0  0  0  0  0  0  0  0  0
   17.9009   20.4808   12.6880 H   0  0  0  0  0  0  0  0  0  0  0  0
   25.1818   19.2992   12.1235 H   0  0  0  0  0  0  0  0  0  0  0  0
   26.5268   17.0976   11.8731 C   0  0  0  0  0  0  0  0  0  0  0  0
   25.2875   16.9935   11.1391 N   0  0  0  0  0  0  0  0  0  0  0  0
   25.2571   16.3807   10.3692 H   0  0  0  0  0  0  0  0  0  0  0  0
   16.0580   18.7489   11.9140 N   0  0  0  0  0  0  0  0  0  0  0  0
   15.5193   19.7326   12.8332 C   0  0  0  0  0  0  0  0  0  0  0  0
   15.4667   18.1999   11.3499 H   0  0  0  0  0  0  0  0  0  0  0  0
 17 18  1  0
 18  1  1  0
  1  2  2  0
  2  3  1  0
  3  4  2  0
  4  5  1  0
  5  6  1  0
  6  7  2  0
  7 20  1  0
 20 21  1  0
  7  8  1  0
  8  9  1  0
  9 10  1  0
 10 11  2  0
 11 12  1  0
 12 13  2  0
 12 14  1  0
 14  1  1  0
 11  3  1  0
  9  5  2  0
 18 19  1  0
 20 22  1  0
  8 15  1  0
 14 16  1  0
M  END
> <minimizedAffinity>
-5.01299

> <CNNscore>
0.2791976333

> <CNNaffinity>
4.9059948921

> <CNN_VS>
1.3697421551

> <CNNaffinity_variance>
0.3004783690

$$$$



 22 24  0  0  0  0  0  0  0  0999 V2000
   16.7056   27.1495   23.6734 C   0  0  0  0  0  0  0  0  0  0  0  0
   17.2944   26.1092   23.1714 N   0  0  0  0  0  0  0  0  0  0  0  0
   17.3762   25.9860   21.7727 C   0  0  0  0  0  0  0  0  0  0  0  0
   18.0304   24.8672   21.2402 C   0  0  0  0  0  0  0  0  0  0  0  0
   18.1224   24.7251   19.8469 C   0  0  0  0  0  0  0  0  0  0  0  0
   18.7076   23.7319   19.1008 N   0  0  0  0  0  0  0  0  0  0  0  0
   18.5147   24.0671   17.8475 C   0  0  0  0  0  0  0  0  0  0  0  0
   17.8302   25.2501   17.7548 N   0  0  0  0  0  0  0  0  0  0  0  0
   17.5617   25.6954   19.0234 C   0  0  0  0  0  0  0  0  0  0  0  0
   16.9028   26.8256   19.5074 C   0  0  0  0  0  0  0  0  0  0  0  0
   16.8293   26.9385   20.9050 C   0  0  0  0  0  0  0  0  0  0  0  0
   16.1524   28.0927   21.5191 C   0  0  0  0  0  0  0  0  0  0  0  0
   15.6170   28.9672   20.8470 O   0  0  0  0  0  0  0  0  0  0  0  0
   16.1562   28.1232   22.8893 N   0  0  0  0  0  0  0  0  0  0  0  0
   17.5745   25.7035   16.9191 H   0  0  0  0  0  0  0  0  0  0  0  0
   15.7372   28.8943   23.3356 H   0  0  0  0  0  0  0  0  0  0  0  0
   17.1510   26.2984   25.9598 C   0  0  0  0  0  0  0  0  0  0  0  0
   16.6259   27.2698   25.0290 N   0  0  0  0  0  0  0  0  0  0  0  0
   16.1829   28.0685   25.3963 H   0  0  0  0  0  0  0  0  0  0  0  0
   18.8998   23.4227   16.7287 N   0  0  0  0  0  0  0  0  0  0  0  0
   19.7051   24.1592   15.7738 C   0  0  0  0  0  0  0  0  0  0  0  0
   18.6437   22.4862   16.5654 H   0  0  0  0  0  0  0  0  0  0  0  0
 17 18  1  0
 18  1  1  0
  1  2  2  0
  2  3  1  0
  3  4  2  0
  4  5  1  0
  5  6  1  0
  6  7  2  0
  7 20  1  0
 20 21  1  0
  7  8  1  0
  8  9  1  0
  9 10  1  0
 10 11  2  0
 11 12  1  0
 12 13  2  0
 12 14  1  0
 14  1  1  0
 11  3  1  0
  9  5  2  0
 18 19  1  0
 20 22  1  0
  8 15  1  0
 14 16  1  0
M  END
> <minimizedAffinity>
-5.02910

> <CNNscore>
0.2451583594

> <CNNaffinity>
4.9953122139

> <CNN_VS>
1.2246425152

> <CNNaffinity_variance>
0.2145037651

$$$$



 22 24  0  0  0  0  0  0  0  0999 V2000
   16.1493   16.6369   22.8941 C   0  0  0  0  0  0  0  0  0  0  0  0
   16.2736   16.6354   21.6036 N   0  0  0  0  0  0  0  0  0  0  0  0
   15.1130   16.5780   20.8111 C   0  0  0  0  0  0  0  0  0  0  0  0
   15.2570   16.5952   19.4176 C   0  0  0  0  0  0  0  0  0  0  0  0
   14.1113   16.5382   18.6088 C   0  0  0  0  0  0  0  0  0  0  0  0
   13.9996   16.5435   17.2402 N   0  0  0  0  0  0  0  0  0  0  0  0
   12.7148   16.4696   16.9873 C   0  0  0  0  0  0  0  0  0  0  0  0
   11.9872   16.4245   18.1471 N   0  0  0  0  0  0  0  0  0  0  0  0
   12.8575   16.4640   19.2059 C   0  0  0  0  0  0  0  0  0  0  0  0
   12.6649   16.4456   20.5873 C   0  0  0  0  0  0  0  0  0  0  0  0
   13.8307   16.5053   21.3676 C   0  0  0  0  0  0  0  0  0  0  0  0
   13.7386   16.4891   22.8369 C   0  0  0  0  0  0  0  0  0  0  0  0
   12.6647   16.3994   23.4213 O   0  0  0  0  0  0  0  0  0  0  0  0
   14.9307   16.5762   23.5074 N   0  0  0  0  0  0  0  0  0  0  0  0
   11.0061   16.3725   18.2098 H   0  0  0  0  0  0  0  0  0  0  0  0
   14.9071   16.5963   24.4914 H   0  0  0  0  0  0  0  0  0  0  0  0
   18.5595   17.1439   23.1847 C   0  0  0  0  0  0  0  0  0  0  0  0
   17.2737   16.6925   23.6629 N   0  0  0  0  0  0  0  0  0  0  0  0
   17.2049   16.4072   24.6027 H   0  0  0  0  0  0  0  0  0  0  0  0
   12.0852   16.4457   15.7963 N   0  0  0  0  0  0  0  0  0  0  0  0
   11.9448   15.1615   15.1374 C   0  0  0  0  0  0  0  0  0  0  0  0
   11.7333   17.2697   15.3885 H   0  0  0  0  0  0  0  0  0  0  0  0
 17 18  1  0
 18  1  1  0
  1  2  2  0
  2  3  1  0
  3  4  2  0
  4  5  1  0
  5  6  1  0
  6  7  2  0
  7 20  1  0
 20 21  1  0
  7  8  1  0
  8  9  1  0
  9 10  1  0
 10 11  2  0
 11 12  1  0
 12 13  2  0
 12 14  1  0
 14  1  1  0
 11  3  1  0
  9  5  2  0
 18 19  1  0
 20 22  1  0
  8 15  1  0
 14 16  1  0
M  END
> <minimizedAffinity>
-7.84368

> <CNNscore>
0.2210627198

> <CNNaffinity>
5.1273274422

> <CNN_VS>
1.1334609985

> <CNNaffinity_variance>
0.1127471700

$$$$



 22 24  0  0  0  0  0  0  0  0999 V2000
   26.3214   18.5360    9.8254 C   0  0  0  0  0  0  0  0  0  0  0  0
   25.2218   17.8526    9.7560 N   0  0  0  0  0  0  0  0  0  0  0  0
   24.1364   18.2312   10.5664 C   0  0  0  0  0  0  0  0  0  0  0  0
   22.9466   17.4974   10.4708 C   0  0  0  0  0  0  0  0  0  0  0  0
   21.8518   17.8586   11.2713 C   0  0  0  0  0  0  0  0  0  0  0  0
   20.5994   17.3014   11.3521 N   0  0  0  0  0  0  0  0  0  0  0  0
   19.9539   18.0043   12.2518 C   0  0  0  0  0  0  0  0  0  0  0  0
   20.7435   19.0055   12.7527 N   0  0  0  0  0  0  0  0  0  0  0  0
   21.9699   18.9352   12.1437 C   0  0  0  0  0  0  0  0  0  0  0  0
   23.1325   19.6952   12.2721 C   0  0  0  0  0  0  0  0  0  0  0  0
   24.2083   19.3089   11.4567 C   0  0  0  0  0  0  0  0  0  0  0  0
   25.4828   20.0434   11.5168 C   0  0  0  0  0  0  0  0  0  0  0  0
   25.6568   20.9844   12.2832 O   0  0  0  0  0  0  0  0  0  0  0  0
   26.4619   19.6043   10.6643 N   0  0  0  0  0  0  0  0  0  0  0  0
   20.4758   19.6636   13.4342 H   0  0  0  0  0  0  0  0  0  0  0  0
   27.3190   20.0886   10.6563 H   0  0  0  0  0  0  0  0  0  0  0  0
   27.4060   16.9693    8.2382 C   0  0  0  0  0  0  0  0  0  0  0  0
   27.3739   18.1698    9.0402 N   0  0  0  0  0  0  0  0  0  0  0  0
   28.1612   18.7605    9.0186 H   0  0  0  0  0  0  0  0  0  0  0  0
   18.6888   17.8605   12.6924 N   0  0  0  0  0  0  0  0  0  0  0  0
   17.6389   17.7623   11.6970 C   0  0  0  0  0  0  0  0  0  0  0  0
   18.4847   17.8236   13.6548 H   0  0  0  0  0  0  0  0  0  0  0  0
 17 18  1  0
 18  1  1  0
  1  2  2  0
  2  3  1  0
  3  4  2  0
  4  5  1  0
  5  6  1  0
  6  7  2  0
  7 20  1  0
 20 21  1  0
  7  8  1  0
  8  9  1  0
  9 10  1  0
 10 11  2  0
 11 12  1  0
 12 13  2  0
 12 14  1  0
 14  1  1  0
 11  3  1  0
  9  5  2  0
 18 19  1  0
 20 22  1  0
  8 15  1  0
 14 16  1  0
M  END
> <minimizedAffinity>
-5.48832

> <CNNscore>
0.1808469146

> <CNNaffinity>
4.5051779747

> <CNN_VS>
0.8147475123

> <CNNaffinity_variance>
0.0130394483

$$$$
