


 20 19  0  0  0  0  0  0  0  0999 V2000
   -3.2555    9.6146   19.9251 C   0  0  0  0  0  0  0  0  0  0  0  0
   -3.5116   11.0644   19.5021 C   0  0  0  0  0  0  0  0  0  0  0  0
   -2.5704   11.5432   18.3896 C   0  0  0  0  0  0  0  0  0  0  0  0
   -1.8778   12.8703   18.7142 C   0  0  0  0  0  0  0  0  0  0  0  0
   -2.4582   14.0587   17.9388 C   0  0  0  0  0  0  0  0  0  0  0  0
   -1.6362   15.3426   18.1011 C   0  0  0  0  0  0  0  0  0  0  0  0
   -2.4766   16.6129   17.9209 C   0  0  0  0  0  0  0  0  0  0  0  0
   -3.5628   16.5182   16.8429 C   0  0  0  0  0  0  0  0  0  0  0  0
   -3.7291   18.7067   15.6064 C   0  0  0  0  0  0  0  0  0  0  0  0
   -4.3699   17.8002   16.6466 C   0  0  0  0  0  0  0  0  0  0  0  0
   -2.1187    8.9306   19.1521 C   0  0  0  0  0  0  0  0  0  0  0  0
   -2.5273    7.9745   18.0202 C   0  0  0  0  0  0  0  0  0  0  0  0
   -2.1757    6.4596   18.1430 C   0  0  0  0  0  0  0  0  0  0  0  0
   -2.1859    5.6966   16.8089 C   0  0  0  0  0  0  0  0  0  0  0  0
   -3.3165    5.8217   18.9966 C   0  0  0  0  0  0  0  0  0  0  0  0
   -0.8640    6.1826   18.9614 C   0  0  0  0  0  0  0  0  0  0  0  0
   -0.3784    4.7742   19.4259 C   0  0  0  0  0  0  0  0  0  0  0  0
   -0.3985    3.7179   18.3151 C   0  0  0  0  0  0  0  0  0  0  0  0
    1.0119    4.8173   20.0803 C   0  0  0  0  0  0  0  0  0  0  0  0
   -1.3695    4.3025   20.5233 C   0  0  0  0  0  0  0  0  0  0  0  0
  9 10  1  0
 10  8  1  0
  8  7  1  0
  7  6  1  0
  6  5  1  0
  5  4  1  0
  4  3  1  0
  3  2  1  0
  2  1  1  0
  1 11  1  0
 11 12  1  0
 12 13  1  0
 13 14  1  0
 13 15  1  0
 13 16  1  0
 16 17  1  0
 17 18  1  0
 17 19  1  0
 17 20  1  0
M  END
> <minimizedAffinity>
-6.97169

> <CNNscore>
0.8662087917

> <CNNaffinity>
6.4468369484

> <CNN_VS>
5.5843067169

> <CNNaffinity_variance>
0.7510157228

$$$$



 20 19  0  0  0  0  0  0  0  0999 V2000
   -2.3995    9.4157   19.3864 C   0  0  0  0  0  0  0  0  0  0  0  0
   -3.4858   10.3826   19.8673 C   0  0  0  0  0  0  0  0  0  0  0  0
   -3.9921   11.3186   18.7628 C   0  0  0  0  0  0  0  0  0  0  0  0
   -2.8628   11.9778   17.9652 C   0  0  0  0  0  0  0  0  0  0  0  0
   -1.9944   12.9156   18.8119 C   0  0  0  0  0  0  0  0  0  0  0  0
   -1.7678   14.2825   18.1555 C   0  0  0  0  0  0  0  0  0  0  0  0
   -3.0538   14.8828   17.5741 C   0  0  0  0  0  0  0  0  0  0  0  0
   -3.1129   16.4148   17.5896 C   0  0  0  0  0  0  0  0  0  0  0  0
   -3.7687   18.3212   16.0790 C   0  0  0  0  0  0  0  0  0  0  0  0
   -4.2131   17.0123   16.7143 C   0  0  0  0  0  0  0  0  0  0  0  0
   -2.6617    7.9486   19.7560 C   0  0  0  0  0  0  0  0  0  0  0  0
   -2.7174    6.9410   18.5969 C   0  0  0  0  0  0  0  0  0  0  0  0
   -2.0077    5.5610   18.7568 C   0  0  0  0  0  0  0  0  0  0  0  0
   -2.3539    4.8172   20.0563 C   0  0  0  0  0  0  0  0  0  0  0  0
   -0.4804    5.8715   18.8487 C   0  0  0  0  0  0  0  0  0  0  0  0
   -2.1496    4.6310   17.4989 C   0  0  0  0  0  0  0  0  0  0  0  0
   -3.4448    3.8594   17.0967 C   0  0  0  0  0  0  0  0  0  0  0  0
   -4.7350    4.6503   17.3420 C   0  0  0  0  0  0  0  0  0  0  0  0
   -3.4060    3.3618   15.6427 C   0  0  0  0  0  0  0  0  0  0  0  0
   -3.5057    2.5953   17.9954 C   0  0  0  0  0  0  0  0  0  0  0  0
  9 10  1  0
 10  8  1  0
  8  7  1  0
  7  6  1  0
  6  5  1  0
  5  4  1  0
  4  3  1  0
  3  2  1  0
  2  1  1  0
  1 11  1  0
 11 12  1  0
 12 13  1  0
 13 14  1  0
 13 15  1  0
 13 16  1  0
 16 17  1  0
 17 18  1  0
 17 19  1  0
 17 20  1  0
M  END
> <minimizedAffinity>
-6.41869

> <CNNscore>
0.8243356943

> <CNNaffinity>
6.4676089287

> <CNN_VS>
5.3314809799

> <CNNaffinity_variance>
0.4743525684

$$$$



 20 19  0  0  0  0  0  0  0  0999 V2000
   -1.8754    7.2820   17.5315 C   0  0  0  0  0  0  0  0  0  0  0  0
   -1.9517    8.8109   17.5852 C   0  0  0  0  0  0  0  0  0  0  0  0
   -2.4463    9.3430   18.9361 C   0  0  0  0  0  0  0  0  0  0  0  0
   -2.9779   10.7776   18.8620 C   0  0  0  0  0  0  0  0  0  0  0  0
   -1.9637   11.7669   18.2761 C   0  0  0  0  0  0  0  0  0  0  0  0
   -1.8501   13.0633   19.0866 C   0  0  0  0  0  0  0  0  0  0  0  0
   -1.6371   14.2991   18.2037 C   0  0  0  0  0  0  0  0  0  0  0  0
   -2.9258   14.9634   17.7050 C   0  0  0  0  0  0  0  0  0  0  0  0
   -4.1261   17.0803   17.0537 C   0  0  0  0  0  0  0  0  0  0  0  0
   -2.7779   16.4429   17.3547 C   0  0  0  0  0  0  0  0  0  0  0  0
   -1.0754    6.6563   18.6832 C   0  0  0  0  0  0  0  0  0  0  0  0
   -0.2588    5.3961   18.3555 C   0  0  0  0  0  0  0  0  0  0  0  0
   -0.7582    4.0125   18.8749 C   0  0  0  0  0  0  0  0  0  0  0  0
   -2.0592    4.0738   19.6908 C   0  0  0  0  0  0  0  0  0  0  0  0
    0.3340    3.5073   19.8695 C   0  0  0  0  0  0  0  0  0  0  0  0
   -0.8225    2.9079   17.7600 C   0  0  0  0  0  0  0  0  0  0  0  0
    0.0528    1.6166   17.7267 C   0  0  0  0  0  0  0  0  0  0  0  0
    0.6157    1.2178   19.0958 C   0  0  0  0  0  0  0  0  0  0  0  0
   -0.6831    0.4228   17.0970 C   0  0  0  0  0  0  0  0  0  0  0  0
    1.2642    1.9248   16.8065 C   0  0  0  0  0  0  0  0  0  0  0  0
  9 10  1  0
 10  8  1  0
  8  7  1  0
  7  6  1  0
  6  5  1  0
  5  4  1  0
  4  3  1  0
  3  2  1  0
  2  1  1  0
  1 11  1  0
 11 12  1  0
 12 13  1  0
 13 14  1  0
 13 15  1  0
 13 16  1  0
 16 17  1  0
 17 18  1  0
 17 19  1  0
 17 20  1  0
M  END
> <minimizedAffinity>
-5.75810

> <CNNscore>
0.7894884348

> <CNNaffinity>
6.1629638672

> <CNN_VS>
4.8655886650

> <CNNaffinity_variance>
0.2668160796

$$$$



 20 19  0  0  0  0  0  0  0  0999 V2000
   -2.5867    9.0213   18.6228 C   0  0  0  0  0  0  0  0  0  0  0  0
   -1.8722   10.3380   18.9424 C   0  0  0  0  0  0  0  0  0  0  0  0
   -2.7986   11.5586   18.8747 C   0  0  0  0  0  0  0  0  0  0  0  0
   -2.1131   12.8062   18.3094 C   0  0  0  0  0  0  0  0  0  0  0  0
   -3.1018   13.8374   17.7528 C   0  0  0  0  0  0  0  0  0  0  0  0
   -2.4130   15.0179   17.0581 C   0  0  0  0  0  0  0  0  0  0  0  0
   -2.2035   16.2165   17.9916 C   0  0  0  0  0  0  0  0  0  0  0  0
   -3.1949   17.3689   17.7914 C   0  0  0  0  0  0  0  0  0  0  0  0
   -3.6809   18.6529   15.6793 C   0  0  0  0  0  0  0  0  0  0  0  0
   -3.9114   17.3572   16.4424 C   0  0  0  0  0  0  0  0  0  0  0  0
   -1.8622    8.1547   17.5826 C   0  0  0  0  0  0  0  0  0  0  0  0
   -2.3216    6.6935   17.4566 C   0  0  0  0  0  0  0  0  0  0  0  0
   -1.7915    5.6411   18.4789 C   0  0  0  0  0  0  0  0  0  0  0  0
   -0.7577    6.1899   19.4749 C   0  0  0  0  0  0  0  0  0  0  0  0
   -1.0303    4.5695   17.6364 C   0  0  0  0  0  0  0  0  0  0  0  0
   -2.9308    4.8402   19.2053 C   0  0  0  0  0  0  0  0  0  0  0  0
   -4.2342    4.3191   18.5238 C   0  0  0  0  0  0  0  0  0  0  0  0
   -4.8510    5.3124   17.5322 C   0  0  0  0  0  0  0  0  0  0  0  0
   -4.0372    2.9553   17.8423 C   0  0  0  0  0  0  0  0  0  0  0  0
   -5.2716    4.1013   19.6576 C   0  0  0  0  0  0  0  0  0  0  0  0
  9 10  1  0
 10  8  1  0
  8  7  1  0
  7  6  1  0
  6  5  1  0
  5  4  1  0
  4  3  1  0
  3  2  1  0
  2  1  1  0
  1 11  1  0
 11 12  1  0
 12 13  1  0
 13 14  1  0
 13 15  1  0
 13 16  1  0
 16 17  1  0
 17 18  1  0
 17 19  1  0
 17 20  1  0
M  END
> <minimizedAffinity>
-6.57226

> <CNNscore>
0.7768597007

> <CNNaffinity>
6.5838241577

> <CNN_VS>
5.1147074699

> <CNNaffinity_variance>
0.3603074551

$$$$



 20 19  0  0  0  0  0  0  0  0999 V2000
   -1.9427    7.1405   17.4650 C   0  0  0  0  0  0  0  0  0  0  0  0
   -1.9561    8.6714   17.5122 C   0  0  0  0  0  0  0  0  0  0  0  0
   -2.5111    9.2294   18.8288 C   0  0  0  0  0  0  0  0  0  0  0  0
   -2.9992   10.6766   18.7132 C   0  0  0  0  0  0  0  0  0  0  0  0
   -1.9144   11.6411   18.2194 C   0  0  0  0  0  0  0  0  0  0  0  0
   -1.8495   12.9404   19.0306 C   0  0  0  0  0  0  0  0  0  0  0  0
   -1.6343   14.1790   18.1522 C   0  0  0  0  0  0  0  0  0  0  0  0
   -2.9209   14.8269   17.6271 C   0  0  0  0  0  0  0  0  0  0  0  0
   -4.1440   16.9563   17.0653 C   0  0  0  0  0  0  0  0  0  0  0  0
   -2.7845   16.3079   17.2788 C   0  0  0  0  0  0  0  0  0  0  0  0
   -1.3154    6.4835   18.7031 C   0  0  0  0  0  0  0  0  0  0  0  0
   -1.2262    4.9491   18.7034 C   0  0  0  0  0  0  0  0  0  0  0  0
   -2.1200    4.1377   19.6915 C   0  0  0  0  0  0  0  0  0  0  0  0
   -3.1349    4.9878   20.4721 C   0  0  0  0  0  0  0  0  0  0  0  0
   -1.1506    3.5539   20.7671 C   0  0  0  0  0  0  0  0  0  0  0  0
   -2.7955    2.8784   19.0395 C   0  0  0  0  0  0  0  0  0  0  0  0
   -3.9620    2.9228   18.0039 C   0  0  0  0  0  0  0  0  0  0  0  0
   -4.2621    4.3294   17.4732 C   0  0  0  0  0  0  0  0  0  0  0  0
   -3.7424    1.9570   16.8283 C   0  0  0  0  0  0  0  0  0  0  0  0
   -5.2340    2.4335   18.7467 C   0  0  0  0  0  0  0  0  0  0  0  0
  9 10  1  0
 10  8  1  0
  8  7  1  0
  7  6  1  0
  6  5  1  0
  5  4  1  0
  4  3  1  0
  3  2  1  0
  2  1  1  0
  1 11  1  0
 11 12  1  0
 12 13  1  0
 13 14  1  0
 13 15  1  0
 13 16  1  0
 16 17  1  0
 17 18  1  0
 17 19  1  0
 17 20  1  0
M  END
> <minimizedAffinity>
-5.90160

> <CNNscore>
0.7710000277

> <CNNaffinity>
6.3172950745

> <CNN_VS>
4.8706345558

> <CNNaffinity_variance>
0.3114925027

$$$$



 20 19  0  0  0  0  0  0  0  0999 V2000
   -2.8571    8.4110   19.2657 C   0  0  0  0  0  0  0  0  0  0  0  0
   -2.1094    9.7478   19.2558 C   0  0  0  0  0  0  0  0  0  0  0  0
   -2.0061   10.3706   17.8579 C   0  0  0  0  0  0  0  0  0  0  0  0
   -2.8452   11.6423   17.6999 C   0  0  0  0  0  0  0  0  0  0  0  0
   -2.2443   12.8546   18.4208 C   0  0  0  0  0  0  0  0  0  0  0  0
   -2.8245   14.1896   17.9395 C   0  0  0  0  0  0  0  0  0  0  0  0
   -1.9252   15.3848   18.2786 C   0  0  0  0  0  0  0  0  0  0  0  0
   -2.4052   16.7299   17.7207 C   0  0  0  0  0  0  0  0  0  0  0  0
   -4.0199   17.8724   16.1608 C   0  0  0  0  0  0  0  0  0  0  0  0
   -3.7979   16.6920   17.0944 C   0  0  0  0  0  0  0  0  0  0  0  0
   -2.2728    7.3621   18.3085 C   0  0  0  0  0  0  0  0  0  0  0  0
   -3.2721    6.5900   17.4325 C   0  0  0  0  0  0  0  0  0  0  0  0
   -3.4320    5.0521   17.6398 C   0  0  0  0  0  0  0  0  0  0  0  0
   -4.8450    4.5180   17.3562 C   0  0  0  0  0  0  0  0  0  0  0  0
   -3.1871    4.7959   19.1602 C   0  0  0  0  0  0  0  0  0  0  0  0
   -2.3314    4.2012   16.9105 C   0  0  0  0  0  0  0  0  0  0  0  0
   -2.5047    2.7218   16.4456 C   0  0  0  0  0  0  0  0  0  0  0  0
   -1.2082    2.0786   15.9400 C   0  0  0  0  0  0  0  0  0  0  0  0
   -3.1395    1.8349   17.5290 C   0  0  0  0  0  0  0  0  0  0  0  0
   -3.4989    2.7443   15.2539 C   0  0  0  0  0  0  0  0  0  0  0  0
  9 10  1  0
 10  8  1  0
  8  7  1  0
  7  6  1  0
  6  5  1  0
  5  4  1  0
  4  3  1  0
  3  2  1  0
  2  1  1  0
  1 11  1  0
 11 12  1  0
 12 13  1  0
 13 14  1  0
 13 15  1  0
 13 16  1  0
 16 17  1  0
 17 18  1  0
 17 19  1  0
 17 20  1  0
M  END
> <minimizedAffinity>
-6.00370

> <CNNscore>
0.7637396455

> <CNNaffinity>
6.1481738091

> <CNN_VS>
4.6956038475

> <CNNaffinity_variance>
0.4570938051

$$$$



 20 19  0  0  0  0  0  0  0  0999 V2000
   -3.2415    8.4641   19.6330 C   0  0  0  0  0  0  0  0  0  0  0  0
   -1.9786    9.2893   19.3674 C   0  0  0  0  0  0  0  0  0  0  0  0
   -1.9913    9.9889   18.0025 C   0  0  0  0  0  0  0  0  0  0  0  0
   -2.8394   11.2642   17.9855 C   0  0  0  0  0  0  0  0  0  0  0  0
   -2.0720   12.5050   18.4570 C   0  0  0  0  0  0  0  0  0  0  0  0
   -2.6665   13.8165   17.9306 C   0  0  0  0  0  0  0  0  0  0  0  0
   -1.8059   15.0387   18.2739 C   0  0  0  0  0  0  0  0  0  0  0  0
   -2.2932   16.3597   17.6670 C   0  0  0  0  0  0  0  0  0  0  0  0
   -4.1437   17.6617   16.5594 C   0  0  0  0  0  0  0  0  0  0  0  0
   -3.7516   16.3450   17.2129 C   0  0  0  0  0  0  0  0  0  0  0  0
   -3.0098    6.9462   19.6170 C   0  0  0  0  0  0  0  0  0  0  0  0
   -1.5792    6.4603   19.8987 C   0  0  0  0  0  0  0  0  0  0  0  0
   -0.9487    5.3782   18.9685 C   0  0  0  0  0  0  0  0  0  0  0  0
    0.5768    5.4846   18.8160 C   0  0  0  0  0  0  0  0  0  0  0  0
   -1.5295    5.6451   17.5442 C   0  0  0  0  0  0  0  0  0  0  0  0
   -1.3980    3.9131   19.3132 C   0  0  0  0  0  0  0  0  0  0  0  0
   -0.5548    2.6293   19.0380 C   0  0  0  0  0  0  0  0  0  0  0  0
   -1.3597    1.3288   19.1431 C   0  0  0  0  0  0  0  0  0  0  0  0
    0.1756    2.6835   17.6864 C   0  0  0  0  0  0  0  0  0  0  0  0
    0.5441    2.5766   20.1329 C   0  0  0  0  0  0  0  0  0  0  0  0
  9 10  1  0
 10  8  1  0
  8  7  1  0
  7  6  1  0
  6  5  1  0
  5  4  1  0
  4  3  1  0
  3  2  1  0
  2  1  1  0
  1 11  1  0
 11 12  1  0
 12 13  1  0
 13 14  1  0
 13 15  1  0
 13 16  1  0
 16 17  1  0
 17 18  1  0
 17 19  1  0
 17 20  1  0
M  END
> <minimizedAffinity>
-6.22527

> <CNNscore>
0.7458159924

> <CNNaffinity>
6.3089637756

> <CNN_VS>
4.7053260803

> <CNNaffinity_variance>
0.3940097392

$$$$



 20 19  0  0  0  0  0  0  0  0999 V2000
   -2.2863    7.5311   17.4050 C   0  0  0  0  0  0  0  0  0  0  0  0
   -1.8723    8.9706   17.7254 C   0  0  0  0  0  0  0  0  0  0  0  0
   -2.3702    9.4508   19.0943 C   0  0  0  0  0  0  0  0  0  0  0  0
   -2.8661   10.9000   19.0822 C   0  0  0  0  0  0  0  0  0  0  0  0
   -2.0214   11.8188   18.1917 C   0  0  0  0  0  0  0  0  0  0  0  0
   -1.6968   13.1642   18.8513 C   0  0  0  0  0  0  0  0  0  0  0  0
   -1.8870   14.3529   17.9010 C   0  0  0  0  0  0  0  0  0  0  0  0
   -3.3042   14.5046   17.3359 C   0  0  0  0  0  0  0  0  0  0  0  0
   -2.7956   16.9181   17.8486 C   0  0  0  0  0  0  0  0  0  0  0  0
   -3.7835   15.9500   17.2151 C   0  0  0  0  0  0  0  0  0  0  0  0
   -1.9945    6.5319   18.5339 C   0  0  0  0  0  0  0  0  0  0  0  0
   -2.8869    5.2824   18.6015 C   0  0  0  0  0  0  0  0  0  0  0  0
   -2.3185    3.9168   18.1059 C   0  0  0  0  0  0  0  0  0  0  0  0
   -0.9740    4.0201   17.3685 C   0  0  0  0  0  0  0  0  0  0  0  0
   -3.3354    3.3874   17.0462 C   0  0  0  0  0  0  0  0  0  0  0  0
   -2.2884    2.8073   19.2174 C   0  0  0  0  0  0  0  0  0  0  0  0
   -1.2525    2.7338   20.3821 C   0  0  0  0  0  0  0  0  0  0  0  0
   -0.7810    4.1065   20.8754 C   0  0  0  0  0  0  0  0  0  0  0  0
   -1.7595    1.8984   21.5688 C   0  0  0  0  0  0  0  0  0  0  0  0
   -0.0066    1.9965   19.8224 C   0  0  0  0  0  0  0  0  0  0  0  0
  9 10  1  0
 10  8  1  0
  8  7  1  0
  7  6  1  0
  6  5  1  0
  5  4  1  0
  4  3  1  0
  3  2  1  0
  2  1  1  0
  1 11  1  0
 11 12  1  0
 12 13  1  0
 13 14  1  0
 13 15  1  0
 13 16  1  0
 16 17  1  0
 17 18  1  0
 17 19  1  0
 17 20  1  0
M  END
> <minimizedAffinity>
-5.69408

> <CNNscore>
0.7192022800

> <CNNaffinity>
6.1180324554

> <CNN_VS>
4.4001030922

> <CNNaffinity_variance>
0.3572673500

$$$$



 20 19  0  0  0  0  0  0  0  0999 V2000
   -2.8383   10.8598   19.1152 C   0  0  0  0  0  0  0  0  0  0  0  0
   -3.9494   11.6249   18.3898 C   0  0  0  0  0  0  0  0  0  0  0  0
   -3.4906   12.9843   17.8473 C   0  0  0  0  0  0  0  0  0  0  0  0
   -2.0709   13.3600   18.2824 C   0  0  0  0  0  0  0  0  0  0  0  0
   -1.5608   14.6490   17.6275 C   0  0  0  0  0  0  0  0  0  0  0  0
   -1.7945   15.8953   18.4893 C   0  0  0  0  0  0  0  0  0  0  0  0
   -2.7127   16.9212   17.8135 C   0  0  0  0  0  0  0  0  0  0  0  0
   -3.5697   16.3635   16.6711 C   0  0  0  0  0  0  0  0  0  0  0  0
   -3.7096   18.7358   15.8349 C   0  0  0  0  0  0  0  0  0  0  0  0
   -4.4360   17.4055   15.9660 C   0  0  0  0  0  0  0  0  0  0  0  0
   -2.4863    9.5111   18.4711 C   0  0  0  0  0  0  0  0  0  0  0  0
   -2.3985    8.2968   19.4091 C   0  0  0  0  0  0  0  0  0  0  0  0
   -2.1627    6.8813   18.7973 C   0  0  0  0  0  0  0  0  0  0  0  0
   -2.4971    6.7739   17.3011 C   0  0  0  0  0  0  0  0  0  0  0  0
   -3.1678    5.9288   19.5183 C   0  0  0  0  0  0  0  0  0  0  0  0
   -0.7465    6.2839   19.1211 C   0  0  0  0  0  0  0  0  0  0  0  0
   -0.4780    4.8217   19.5950 C   0  0  0  0  0  0  0  0  0  0  0  0
   -1.3685    4.3782   20.7613 C   0  0  0  0  0  0  0  0  0  0  0  0
   -0.5756    3.8037   18.4472 C   0  0  0  0  0  0  0  0  0  0  0  0
    0.9895    4.7807   20.0989 C   0  0  0  0  0  0  0  0  0  0  0  0
  9 10  1  0
 10  8  1  0
  8  7  1  0
  7  6  1  0
  6  5  1  0
  5  4  1  0
  4  3  1  0
  3  2  1  0
  2  1  1  0
  1 11  1  0
 11 12  1  0
 12 13  1  0
 13 14  1  0
 13 15  1  0
 13 16  1  0
 16 17  1  0
 17 18  1  0
 17 19  1  0
 17 20  1  0
M  END
> <minimizedAffinity>
-6.94469

> <CNNscore>
0.6891744733

> <CNNaffinity>
6.3277244568

> <CNN_VS>
4.3609061241

> <CNNaffinity_variance>
0.9449943900

$$$$
