


 28 30  0  0  0  0  0  0  0  0999 V2000
   -2.6222    9.1380    9.3277 C   0  0  0  0  0  0  0  0  0  0  0  0
   -1.9704   10.2604    8.4579 C   0  0  0  0  0  0  0  0  0  0  0  0
   -2.3088   11.5500    9.0099 O   0  0  0  0  0  0  0  0  0  0  0  0
   -0.4304   10.1712    8.4473 C   0  0  0  0  0  0  0  0  0  0  0  0
    0.0112    8.9431    7.8762 O   0  0  0  0  0  0  0  0  0  0  0  0
    0.1147   10.3169    9.8796 C   0  0  0  0  0  0  0  0  0  0  0  0
    0.1787   11.6899   10.2792 O   0  0  0  0  0  0  0  0  0  0  0  0
   -0.7307    9.5594   10.8777 C   0  0  0  0  0  0  0  0  0  0  0  0
   -0.4636    9.3328   12.1713 N   0  0  0  0  0  0  0  0  0  0  0  0
   -1.5069    8.6742   12.7986 C   0  0  0  0  0  0  0  0  0  0  0  0
   -2.4588    8.5031   11.8191 C   0  0  0  0  0  0  0  0  0  0  0  0
   -1.9538    9.0463   10.6496 N   0  0  0  0  0  0  0  0  0  0  0  0
   -1.9544   11.6194    9.9102 H   0  0  0  0  0  0  0  0  0  0  0  0
   -0.3186    8.2020    8.4082 H   0  0  0  0  0  0  0  0  0  0  0  0
   -0.7155   12.0658   10.2890 H   0  0  0  0  0  0  0  0  0  0  0  0
    0.3707    9.6014   12.6195 H   0  0  0  0  0  0  0  0  0  0  0  0
   -1.5197    6.9967    8.9549 O   0  0  0  0  0  0  0  0  0  0  0  0
   -2.6690    7.7664    8.6285 C   0  0  0  0  0  0  0  0  0  0  0  0
   -1.5673    6.1381    8.5060 H   0  0  0  0  0  0  0  0  0  0  0  0
   -1.4893    8.3081   14.2327 C   0  0  0  0  0  0  0  0  0  0  0  0
   -2.7013    7.4554   14.6058 C   0  0  0  0  0  0  0  0  0  0  0  0
   -2.3035    6.2558   15.4268 C   0  0  0  0  0  0  0  0  0  0  0  0
   -1.9459    5.0531   14.8020 C   0  0  0  0  0  0  0  0  0  0  0  0
   -1.5912    3.9375   15.5639 C   0  0  0  0  0  0  0  0  0  0  0  0
   -1.5965    4.0189   16.9544 C   0  0  0  0  0  0  0  0  0  0  0  0
   -1.1152    2.5096   17.9845 Br  0  0  0  0  0  0  0  0  0  0  0  0
   -1.9531    5.2058   17.5899 C   0  0  0  0  0  0  0  0  0  0  0  0
   -2.3062    6.3218   16.8280 C   0  0  0  0  0  0  0  0  0  0  0  0
 17 18  1  0
  1 18  1  0
  1  2  1  0
  2  3  1  0
  2  4  1  0
  4  5  1  0
  4  6  1  0
  6  7  1  0
  6  8  1  0
  8  9  1  0
  9 10  1  0
 10 20  1  0
 20 21  1  0
 21 22  1  0
 22 23  2  0
 23 24  1  0
 24 25  2  0
 25 26  1  0
 25 27  1  0
 27 28  2  0
 10 11  2  0
 11 12  1  0
 12  1  1  0
 12  8  2  0
 28 22  1  0
 17 19  1  0
  3 13  1  0
  5 14  1  0
  7 15  1  0
  9 16  1  0
M  CHG 1  12   1
M  END
> <minimizedAffinity>
-8.34237

> <CNNscore>
0.7316702604

> <CNNaffinity>
6.9531245232

> <CNN_VS>
5.0873942375

> <CNNaffinity_variance>
0.1869894266

$$$$



 28 30  0  0  0  0  0  0  0  0999 V2000
   -2.3335    9.0924    9.5744 C   0  0  0  0  0  0  0  0  0  0  0  0
   -1.9642   10.6098    9.6225 C   0  0  0  0  0  0  0  0  0  0  0  0
   -1.4575   10.9370   10.9335 O   0  0  0  0  0  0  0  0  0  0  0  0
   -0.8555   10.9736    8.6136 C   0  0  0  0  0  0  0  0  0  0  0  0
   -1.2753   10.7269    7.2747 O   0  0  0  0  0  0  0  0  0  0  0  0
    0.4224   10.1736    8.9251 C   0  0  0  0  0  0  0  0  0  0  0  0
    1.1692   10.7721    9.9895 O   0  0  0  0  0  0  0  0  0  0  0  0
    0.1077    8.7428    9.2971 C   0  0  0  0  0  0  0  0  0  0  0  0
    0.9716    7.7328    9.4681 N   0  0  0  0  0  0  0  0  0  0  0  0
    0.3306    6.5805    9.8890 C   0  0  0  0  0  0  0  0  0  0  0  0
   -0.9984    6.9270    9.9811 C   0  0  0  0  0  0  0  0  0  0  0  0
   -1.1086    8.2549    9.6039 N   0  0  0  0  0  0  0  0  0  0  0  0
   -0.6532   10.4232   11.1068 H   0  0  0  0  0  0  0  0  0  0  0  0
   -1.4686    9.7827    7.1653 H   0  0  0  0  0  0  0  0  0  0  0  0
    0.6385   10.7637   10.8013 H   0  0  0  0  0  0  0  0  0  0  0  0
    1.9415    7.8017    9.3136 H   0  0  0  0  0  0  0  0  0  0  0  0
   -3.7842    9.8817    7.7821 O   0  0  0  0  0  0  0  0  0  0  0  0
   -3.2391    8.7167    8.3865 C   0  0  0  0  0  0  0  0  0  0  0  0
   -4.3505    9.6250    7.0376 H   0  0  0  0  0  0  0  0  0  0  0  0
    1.0421    5.3132   10.1695 C   0  0  0  0  0  0  0  0  0  0  0  0
    2.1292    5.5056   11.2261 C   0  0  0  0  0  0  0  0  0  0  0  0
    1.6162    5.2040   12.6107 C   0  0  0  0  0  0  0  0  0  0  0  0
    1.7320    3.9140   13.1469 C   0  0  0  0  0  0  0  0  0  0  0  0
    1.2434    3.6318   14.4246 C   0  0  0  0  0  0  0  0  0  0  0  0
    0.6333    4.6378   15.1701 C   0  0  0  0  0  0  0  0  0  0  0  0
   -0.0261    4.2556   16.8992 Br  0  0  0  0  0  0  0  0  0  0  0  0
    0.5075    5.9235   14.6496 C   0  0  0  0  0  0  0  0  0  0  0  0
    0.9975    6.2061   13.3727 C   0  0  0  0  0  0  0  0  0  0  0  0
 17 18  1  0
  1 18  1  0
  1  2  1  0
  2  3  1  0
  2  4  1  0
  4  5  1  0
  4  6  1  0
  6  7  1  0
  6  8  1  0
  8  9  1  0
  9 10  1  0
 10 20  1  0
 20 21  1  0
 21 22  1  0
 22 23  2  0
 23 24  1  0
 24 25  2  0
 25 26  1  0
 25 27  1  0
 27 28  2  0
 10 11  2  0
 11 12  1  0
 12  1  1  0
 12  8  2  0
 28 22  1  0
 17 19  1  0
  3 13  1  0
  5 14  1  0
  7 15  1  0
  9 16  1  0
M  CHG 1  12   1
M  END
> <minimizedAffinity>
-7.20510

> <CNNscore>
0.5387128592

> <CNNaffinity>
6.7607750893

> <CNN_VS>
3.6421165466

> <CNNaffinity_variance>
0.5379529595

$$$$



 28 30  0  0  0  0  0  0  0  0999 V2000
   -2.6279    4.4635   15.6628 C   0  0  0  0  0  0  0  0  0  0  0  0
   -3.1134    5.2355   16.9315 C   0  0  0  0  0  0  0  0  0  0  0  0
   -2.2864    4.8730   18.0572 O   0  0  0  0  0  0  0  0  0  0  0  0
   -2.9944    6.7646   16.7662 C   0  0  0  0  0  0  0  0  0  0  0  0
   -3.8138    7.2334   15.6992 O   0  0  0  0  0  0  0  0  0  0  0  0
   -1.5258    7.1541   16.5181 C   0  0  0  0  0  0  0  0  0  0  0  0
   -0.7845    7.2102   17.7413 O   0  0  0  0  0  0  0  0  0  0  0  0
   -0.8428    6.1854   15.5802 C   0  0  0  0  0  0  0  0  0  0  0  0
    0.3697    6.3039   15.0220 N   0  0  0  0  0  0  0  0  0  0  0  0
    0.7019    5.1815   14.2833 C   0  0  0  0  0  0  0  0  0  0  0  0
   -0.3778    4.3378   14.4146 C   0  0  0  0  0  0  0  0  0  0  0  0
   -1.3140    4.9813   15.2066 N   0  0  0  0  0  0  0  0  0  0  0  0
   -1.3679    5.1289   17.8792 H   0  0  0  0  0  0  0  0  0  0  0  0
   -3.5240    6.8282   14.8669 H   0  0  0  0  0  0  0  0  0  0  0  0
   -0.7673    6.3305   18.1496 H   0  0  0  0  0  0  0  0  0  0  0  0
    0.9518    7.0913   15.1246 H   0  0  0  0  0  0  0  0  0  0  0  0
   -4.5046    3.3214   14.6078 O   0  0  0  0  0  0  0  0  0  0  0  0
   -3.6553    4.4572   14.5154 C   0  0  0  0  0  0  0  0  0  0  0  0
   -5.1434    3.3351   13.8780 H   0  0  0  0  0  0  0  0  0  0  0  0
    1.9894    5.0332   13.5683 C   0  0  0  0  0  0  0  0  0  0  0  0
    1.7745    4.6311   12.1097 C   0  0  0  0  0  0  0  0  0  0  0  0
    2.1179    3.1821   11.8777 C   0  0  0  0  0  0  0  0  0  0  0  0
    2.2372    2.6791   10.5748 C   0  0  0  0  0  0  0  0  0  0  0  0
    2.5414    1.3328   10.3606 C   0  0  0  0  0  0  0  0  0  0  0  0
    2.7238    0.4828   11.4488 C   0  0  0  0  0  0  0  0  0  0  0  0
    3.1367   -1.3381   11.1583 Br  0  0  0  0  0  0  0  0  0  0  0  0
    2.6049    0.9669   12.7494 C   0  0  0  0  0  0  0  0  0  0  0  0
    2.3024    2.3134   12.9636 C   0  0  0  0  0  0  0  0  0  0  0  0
 17 18  1  0
  1 18  1  0
  1  2  1  0
  2  3  1  0
  2  4  1  0
  4  5  1  0
  4  6  1  0
  6  7  1  0
  6  8  1  0
  8  9  1  0
  9 10  1  0
 10 20  1  0
 20 21  1  0
 21 22  1  0
 22 23  2  0
 23 24  1  0
 24 25  2  0
 25 26  1  0
 25 27  1  0
 27 28  2  0
 10 11  2  0
 11 12  1  0
 12  1  1  0
 12  8  2  0
 28 22  1  0
 17 19  1  0
  3 13  1  0
  5 14  1  0
  7 15  1  0
  9 16  1  0
M  CHG 1  12   1
M  END
> <minimizedAffinity>
-8.33791

> <CNNscore>
0.2948570251

> <CNNaffinity>
4.4998469353

> <CNN_VS>
1.3268114328

> <CNNaffinity_variance>
1.3110328913

$$$$



 28 30  0  0  0  0  0  0  0  0999 V2000
   -2.7636    7.0187   15.3495 C   0  0  0  0  0  0  0  0  0  0  0  0
   -3.1466    6.4584   16.7568 C   0  0  0  0  0  0  0  0  0  0  0  0
   -3.9851    5.2950   16.5960 O   0  0  0  0  0  0  0  0  0  0  0  0
   -1.9107    6.0081   17.5626 C   0  0  0  0  0  0  0  0  0  0  0  0
   -1.0329    7.1014   17.8148 O   0  0  0  0  0  0  0  0  0  0  0  0
   -1.1663    4.8937   16.8049 C   0  0  0  0  0  0  0  0  0  0  0  0
   -1.7851    3.6188   17.0066 O   0  0  0  0  0  0  0  0  0  0  0  0
   -1.1039    5.1740   15.3210 C   0  0  0  0  0  0  0  0  0  0  0  0
   -0.4016    4.5113   14.3917 N   0  0  0  0  0  0  0  0  0  0  0  0
   -0.6535    4.9975   13.1206 C   0  0  0  0  0  0  0  0  0  0  0  0
   -1.5687    6.0096   13.3024 C   0  0  0  0  0  0  0  0  0  0  0  0
   -1.8204    6.1028   14.6610 N   0  0  0  0  0  0  0  0  0  0  0  0
   -3.4956    4.6072   16.1184 H   0  0  0  0  0  0  0  0  0  0  0  0
   -0.7145    7.4614   16.9723 H   0  0  0  0  0  0  0  0  0  0  0  0
   -2.6862    3.6365   16.6479 H   0  0  0  0  0  0  0  0  0  0  0  0
    0.2166    3.7709   14.5887 H   0  0  0  0  0  0  0  0  0  0  0  0
   -2.8820    9.2214   16.3858 O   0  0  0  0  0  0  0  0  0  0  0  0
   -2.2174    8.4583   15.3879 C   0  0  0  0  0  0  0  0  0  0  0  0
   -2.5249   10.1232   16.3945 H   0  0  0  0  0  0  0  0  0  0  0  0
   -0.0243    4.4431   11.9009 C   0  0  0  0  0  0  0  0  0  0  0  0
    1.4934    4.3458   12.0509 C   0  0  0  0  0  0  0  0  0  0  0  0
    1.9733    2.9231   11.9200 C   0  0  0  0  0  0  0  0  0  0  0  0
    2.3067    2.3976   10.6640 C   0  0  0  0  0  0  0  0  0  0  0  0
    2.7377    1.0746   10.5417 C   0  0  0  0  0  0  0  0  0  0  0  0
    2.8334    0.2704   11.6749 C   0  0  0  0  0  0  0  0  0  0  0  0
    3.4180   -1.5189   11.5089 Br  0  0  0  0  0  0  0  0  0  0  0  0
    2.5022    0.7770   12.9292 C   0  0  0  0  0  0  0  0  0  0  0  0
    2.0728    2.1003   13.0517 C   0  0  0  0  0  0  0  0  0  0  0  0
 17 18  1  0
  1 18  1  0
  1  2  1  0
  2  3  1  0
  2  4  1  0
  4  5  1  0
  4  6  1  0
  6  7  1  0
  6  8  1  0
  8  9  1  0
  9 10  1  0
 10 20  1  0
 20 21  1  0
 21 22  1  0
 22 23  2  0
 23 24  1  0
 24 25  2  0
 25 26  1  0
 25 27  1  0
 27 28  2  0
 10 11  2  0
 11 12  1  0
 12  1  1  0
 12  8  2  0
 28 22  1  0
 17 19  1  0
  3 13  1  0
  5 14  1  0
  7 15  1  0
  9 16  1  0
M  CHG 1  12   1
M  END
> <minimizedAffinity>
-8.51109

> <CNNscore>
0.2750842869

> <CNNaffinity>
4.9530777931

> <CNN_VS>
1.3625138998

> <CNNaffinity_variance>
0.3872035444

$$$$



 28 30  0  0  0  0  0  0  0  0999 V2000
   -1.6907    9.2799   10.0132 C   0  0  0  0  0  0  0  0  0  0  0  0
   -0.2409    9.3990    9.4431 C   0  0  0  0  0  0  0  0  0  0  0  0
    0.5525   10.2227   10.3232 O   0  0  0  0  0  0  0  0  0  0  0  0
    0.4670    8.0312    9.3559 C   0  0  0  0  0  0  0  0  0  0  0  0
   -0.2187    7.1512    8.4698 O   0  0  0  0  0  0  0  0  0  0  0  0
    0.5681    7.4010   10.7568 C   0  0  0  0  0  0  0  0  0  0  0  0
    1.6667    7.9428   11.4974 O   0  0  0  0  0  0  0  0  0  0  0  0
   -0.7010    7.6037   11.5524 C   0  0  0  0  0  0  0  0  0  0  0  0
   -1.0235    7.0562   12.7323 N   0  0  0  0  0  0  0  0  0  0  0  0
   -2.2332    7.5367   13.2027 C   0  0  0  0  0  0  0  0  0  0  0  0
   -2.6557    8.4320   12.2463 C   0  0  0  0  0  0  0  0  0  0  0  0
   -1.7028    8.4470   11.2415 N   0  0  0  0  0  0  0  0  0  0  0  0
    0.6035    9.8059   11.1975 H   0  0  0  0  0  0  0  0  0  0  0  0
   -1.1162    6.9927    8.8019 H   0  0  0  0  0  0  0  0  0  0  0  0
    1.5262    8.8926   11.6359 H   0  0  0  0  0  0  0  0  0  0  0  0
   -0.4689    6.3945   13.2055 H   0  0  0  0  0  0  0  0  0  0  0  0
   -2.7531    9.6252    7.8472 O   0  0  0  0  0  0  0  0  0  0  0  0
   -2.7173    8.7721    8.9833 C   0  0  0  0  0  0  0  0  0  0  0  0
   -3.4042    9.2895    7.2113 H   0  0  0  0  0  0  0  0  0  0  0  0
   -2.8280    7.1142   14.4906 C   0  0  0  0  0  0  0  0  0  0  0  0
   -3.6703    5.8496   14.3281 C   0  0  0  0  0  0  0  0  0  0  0  0
   -2.9573    4.6356   14.8658 C   0  0  0  0  0  0  0  0  0  0  0  0
   -2.1113    4.7422   15.9784 C   0  0  0  0  0  0  0  0  0  0  0  0
   -1.4396    3.6194   16.4673 C   0  0  0  0  0  0  0  0  0  0  0  0
   -1.6081    2.3858   15.8431 C   0  0  0  0  0  0  0  0  0  0  0  0
   -0.7002    0.8669   16.5060 Br  0  0  0  0  0  0  0  0  0  0  0  0
   -2.4424    2.2646   14.7344 C   0  0  0  0  0  0  0  0  0  0  0  0
   -3.1153    3.3869   14.2465 C   0  0  0  0  0  0  0  0  0  0  0  0
 17 18  1  0
  1 18  1  0
  1  2  1  0
  2  3  1  0
  2  4  1  0
  4  5  1  0
  4  6  1  0
  6  7  1  0
  6  8  1  0
  8  9  1  0
  9 10  1  0
 10 20  1  0
 20 21  1  0
 21 22  1  0
 22 23  2  0
 23 24  1  0
 24 25  2  0
 25 26  1  0
 25 27  1  0
 27 28  2  0
 10 11  2  0
 11 12  1  0
 12  1  1  0
 12  8  2  0
 28 22  1  0
 17 19  1  0
  3 13  1  0
  5 14  1  0
  7 15  1  0
  9 16  1  0
M  CHG 1  12   1
M  END
> <minimizedAffinity>
-7.77934

> <CNNscore>
0.2732666731

> <CNNaffinity>
6.0304112434

> <CNN_VS>
1.6479104757

> <CNNaffinity_variance>
0.5520702004

$$$$



 28 30  0  0  0  0  0  0  0  0999 V2000
   -0.8164    4.7486   17.0191 C   0  0  0  0  0  0  0  0  0  0  0  0
   -1.6352    5.7205   17.9281 C   0  0  0  0  0  0  0  0  0  0  0  0
   -0.8412    6.8912   18.2131 O   0  0  0  0  0  0  0  0  0  0  0  0
   -2.9255    6.2144   17.2420 C   0  0  0  0  0  0  0  0  0  0  0  0
   -3.8047    5.1306   16.9556 O   0  0  0  0  0  0  0  0  0  0  0  0
   -2.5765    6.9710   15.9476 C   0  0  0  0  0  0  0  0  0  0  0  0
   -2.1825    8.3201   16.2188 O   0  0  0  0  0  0  0  0  0  0  0  0
   -1.4675    6.2855   15.1828 C   0  0  0  0  0  0  0  0  0  0  0  0
   -1.0267    6.5699   13.9496 N   0  0  0  0  0  0  0  0  0  0  0  0
    0.0618    5.7874   13.6051 C   0  0  0  0  0  0  0  0  0  0  0  0
    0.2885    4.9907   14.7046 C   0  0  0  0  0  0  0  0  0  0  0  0
   -0.6685    5.3099   15.6532 N   0  0  0  0  0  0  0  0  0  0  0  0
   -0.6351    7.3517   17.3846 H   0  0  0  0  0  0  0  0  0  0  0  0
   -3.3699    4.5139   16.3460 H   0  0  0  0  0  0  0  0  0  0  0  0
   -1.3768    8.3193   16.7590 H   0  0  0  0  0  0  0  0  0  0  0  0
   -1.4272    7.2507   13.3619 H   0  0  0  0  0  0  0  0  0  0  0  0
   -2.2692    3.1614   15.8745 O   0  0  0  0  0  0  0  0  0  0  0  0
   -1.3863    3.3182   16.9771 C   0  0  0  0  0  0  0  0  0  0  0  0
   -2.6171    2.2560   15.8651 H   0  0  0  0  0  0  0  0  0  0  0  0
    0.7607    5.8977   12.3050 C   0  0  0  0  0  0  0  0  0  0  0  0
    2.1449    5.2525   12.3591 C   0  0  0  0  0  0  0  0  0  0  0  0
    2.1354    3.8689   11.7618 C   0  0  0  0  0  0  0  0  0  0  0  0
    2.1592    3.6943   10.3711 C   0  0  0  0  0  0  0  0  0  0  0  0
    2.1358    2.4119    9.8180 C   0  0  0  0  0  0  0  0  0  0  0  0
    2.0846    1.2987   10.6534 C   0  0  0  0  0  0  0  0  0  0  0  0
    2.0545   -0.4359    9.9044 Br  0  0  0  0  0  0  0  0  0  0  0  0
    2.0566    1.4560   12.0370 C   0  0  0  0  0  0  0  0  0  0  0  0
    2.0816    2.7381   12.5901 C   0  0  0  0  0  0  0  0  0  0  0  0
 17 18  1  0
  1 18  1  0
  1  2  1  0
  2  3  1  0
  2  4  1  0
  4  5  1  0
  4  6  1  0
  6  7  1  0
  6  8  1  0
  8  9  1  0
  9 10  1  0
 10 20  1  0
 20 21  1  0
 21 22  1  0
 22 23  2  0
 23 24  1  0
 24 25  2  0
 25 26  1  0
 25 27  1  0
 27 28  2  0
 10 11  2  0
 11 12  1  0
 12  1  1  0
 12  8  2  0
 28 22  1  0
 17 19  1  0
  3 13  1  0
  5 14  1  0
  7 15  1  0
  9 16  1  0
M  CHG 1  12   1
M  END
> <minimizedAffinity>
-8.23120

> <CNNscore>
0.2660590112

> <CNNaffinity>
4.5734691620

> <CNN_VS>
1.2168127298

> <CNNaffinity_variance>
0.7418066859

$$$$



 28 30  0  0  0  0  0  0  0  0999 V2000
   -0.9793    9.0846   12.0131 C   0  0  0  0  0  0  0  0  0  0  0  0
   -1.2929   10.2827   11.0604 C   0  0  0  0  0  0  0  0  0  0  0  0
   -0.0974   11.0685   10.8714 O   0  0  0  0  0  0  0  0  0  0  0  0
   -1.7432    9.8144    9.6614 C   0  0  0  0  0  0  0  0  0  0  0  0
   -2.9498    9.0602    9.7334 O   0  0  0  0  0  0  0  0  0  0  0  0
   -0.6318    8.9759    9.0043 C   0  0  0  0  0  0  0  0  0  0  0  0
    0.3771    9.8073    8.4214 O   0  0  0  0  0  0  0  0  0  0  0  0
    0.0222    8.0416    9.9963 C   0  0  0  0  0  0  0  0  0  0  0  0
    0.9022    7.0635    9.7419 N   0  0  0  0  0  0  0  0  0  0  0  0
    1.3525    6.4681   10.9075 C   0  0  0  0  0  0  0  0  0  0  0  0
    0.7052    7.1376   11.9212 C   0  0  0  0  0  0  0  0  0  0  0  0
   -0.1109    8.0905   11.3348 N   0  0  0  0  0  0  0  0  0  0  0  0
    0.5869   10.5211   10.4555 H   0  0  0  0  0  0  0  0  0  0  0  0
   -2.8034    8.2667   10.2718 H   0  0  0  0  0  0  0  0  0  0  0  0
    0.8061   10.3307    9.1163 H   0  0  0  0  0  0  0  0  0  0  0  0
    1.1924    6.8011    8.8385 H   0  0  0  0  0  0  0  0  0  0  0  0
   -2.0232    8.0430   13.9535 O   0  0  0  0  0  0  0  0  0  0  0  0
   -2.2383    8.4190   12.5999 C   0  0  0  0  0  0  0  0  0  0  0  0
   -2.8257    7.6264   14.3048 H   0  0  0  0  0  0  0  0  0  0  0  0
    2.3415    5.3669   10.9259 C   0  0  0  0  0  0  0  0  0  0  0  0
    2.1056    4.4247   12.1056 C   0  0  0  0  0  0  0  0  0  0  0  0
    2.2474    2.9806   11.6987 C   0  0  0  0  0  0  0  0  0  0  0  0
    2.1969    2.6143   10.3466 C   0  0  0  0  0  0  0  0  0  0  0  0
    2.3140    1.2740    9.9712 C   0  0  0  0  0  0  0  0  0  0  0  0
    2.4783    0.2938   10.9470 C   0  0  0  0  0  0  0  0  0  0  0  0
    2.6382   -1.5190   10.4384 Br  0  0  0  0  0  0  0  0  0  0  0  0
    2.5267    0.6416   12.2948 C   0  0  0  0  0  0  0  0  0  0  0  0
    2.4112    1.9819   12.6700 C   0  0  0  0  0  0  0  0  0  0  0  0
 17 18  1  0
  1 18  1  0
  1  2  1  0
  2  3  1  0
  2  4  1  0
  4  5  1  0
  4  6  1  0
  6  7  1  0
  6  8  1  0
  8  9  1  0
  9 10  1  0
 10 20  1  0
 20 21  1  0
 21 22  1  0
 22 23  2  0
 23 24  1  0
 24 25  2  0
 25 26  1  0
 25 27  1  0
 27 28  2  0
 10 11  2  0
 11 12  1  0
 12  1  1  0
 12  8  2  0
 28 22  1  0
 17 19  1  0
  3 13  1  0
  5 14  1  0
  7 15  1  0
  9 16  1  0
M  CHG 1  12   1
M  END
> <minimizedAffinity>
-7.82121

> <CNNscore>
0.2643133104

> <CNNaffinity>
5.8123397827

> <CNN_VS>
1.5362787247

> <CNNaffinity_variance>
0.1298591793

$$$$



 28 30  0  0  0  0  0  0  0  0999 V2000
   -2.9274    5.3785   15.8287 C   0  0  0  0  0  0  0  0  0  0  0  0
   -2.4691    5.0881   17.2939 C   0  0  0  0  0  0  0  0  0  0  0  0
   -2.0599    3.7085   17.4021 O   0  0  0  0  0  0  0  0  0  0  0  0
   -1.2554    5.9458   17.7073 C   0  0  0  0  0  0  0  0  0  0  0  0
   -1.5707    7.3347   17.6759 O   0  0  0  0  0  0  0  0  0  0  0  0
   -0.0627    5.6512   16.7795 C   0  0  0  0  0  0  0  0  0  0  0  0
    0.6240    4.4579   17.1712 O   0  0  0  0  0  0  0  0  0  0  0  0
   -0.4982    5.5104   15.3390 C   0  0  0  0  0  0  0  0  0  0  0  0
    0.2821    5.4165   14.2536 N   0  0  0  0  0  0  0  0  0  0  0  0
   -0.4646    5.2137   13.1059 C   0  0  0  0  0  0  0  0  0  0  0  0
   -1.7721    5.1779   13.5348 C   0  0  0  0  0  0  0  0  0  0  0  0
   -1.7650    5.3716   14.9060 N   0  0  0  0  0  0  0  0  0  0  0  0
   -1.3078    3.5470   16.8111 H   0  0  0  0  0  0  0  0  0  0  0  0
   -1.8127    7.5910   16.7722 H   0  0  0  0  0  0  0  0  0  0  0  0
    0.0246    3.6994   17.0927 H   0  0  0  0  0  0  0  0  0  0  0  0
    1.2642    5.4833   14.2704 H   0  0  0  0  0  0  0  0  0  0  0  0
   -4.6097    6.8493   16.8015 O   0  0  0  0  0  0  0  0  0  0  0  0
   -3.7471    6.6746   15.6856 C   0  0  0  0  0  0  0  0  0  0  0  0
   -5.1165    7.6693   16.6932 H   0  0  0  0  0  0  0  0  0  0  0  0
    0.1383    5.0599   11.7629 C   0  0  0  0  0  0  0  0  0  0  0  0
    1.6514    4.8644   11.8495 C   0  0  0  0  0  0  0  0  0  0  0  0
    2.0297    3.4097   11.7385 C   0  0  0  0  0  0  0  0  0  0  0  0
    2.1800    2.6240   12.8895 C   0  0  0  0  0  0  0  0  0  0  0  0
    2.5446    1.2796   12.7865 C   0  0  0  0  0  0  0  0  0  0  0  0
    2.7643    0.7163   11.5317 C   0  0  0  0  0  0  0  0  0  0  0  0
    3.2561   -1.1029   11.3930 Br  0  0  0  0  0  0  0  0  0  0  0  0
    2.6225    1.4850   10.3790 C   0  0  0  0  0  0  0  0  0  0  0  0
    2.2564    2.8289   10.4820 C   0  0  0  0  0  0  0  0  0  0  0  0
 17 18  1  0
  1 18  1  0
  1  2  1  0
  2  3  1  0
  2  4  1  0
  4  5  1  0
  4  6  1  0
  6  7  1  0
  6  8  1  0
  8  9  1  0
  9 10  1  0
 10 20  1  0
 20 21  1  0
 21 22  1  0
 22 23  2  0
 23 24  1  0
 24 25  2  0
 25 26  1  0
 25 27  1  0
 27 28  2  0
 10 11  2  0
 11 12  1  0
 12  1  1  0
 12  8  2  0
 28 22  1  0
 17 19  1  0
  3 13  1  0
  5 14  1  0
  7 15  1  0
  9 16  1  0
M  CHG 1  12   1
M  END
> <minimizedAffinity>
-8.29582

> <CNNscore>
0.2572782338

> <CNNaffinity>
4.7607760429

> <CNN_VS>
1.2248440981

> <CNNaffinity_variance>
0.3683644831

$$$$



 28 30  0  0  0  0  0  0  0  0999 V2000
   -2.0873    7.2865   13.9094 C   0  0  0  0  0  0  0  0  0  0  0  0
   -3.2621    7.0723   14.9169 C   0  0  0  0  0  0  0  0  0  0  0  0
   -4.0856    5.9770   14.4648 O   0  0  0  0  0  0  0  0  0  0  0  0
   -2.7614    6.6997   16.3276 C   0  0  0  0  0  0  0  0  0  0  0  0
   -1.9677    7.7430   16.8855 O   0  0  0  0  0  0  0  0  0  0  0  0
   -1.9531    5.3907   16.2701 C   0  0  0  0  0  0  0  0  0  0  0  0
   -2.8111    4.2451   16.2521 O   0  0  0  0  0  0  0  0  0  0  0  0
   -1.0540    5.3434   15.0560 C   0  0  0  0  0  0  0  0  0  0  0  0
   -0.1032    4.4413   14.7764 N   0  0  0  0  0  0  0  0  0  0  0  0
    0.4620    4.6663   13.5332 C   0  0  0  0  0  0  0  0  0  0  0  0
   -0.1977    5.7681   13.0374 C   0  0  0  0  0  0  0  0  0  0  0  0
   -1.1149    6.1686   13.9944 N   0  0  0  0  0  0  0  0  0  0  0  0
   -3.5567    5.1643   14.4381 H   0  0  0  0  0  0  0  0  0  0  0  0
   -1.1863    7.8875   16.3292 H   0  0  0  0  0  0  0  0  0  0  0  0
   -3.3573    4.2628   15.4507 H   0  0  0  0  0  0  0  0  0  0  0  0
    0.1603    3.7097   15.3801 H   0  0  0  0  0  0  0  0  0  0  0  0
   -0.8659    9.0890   12.8144 O   0  0  0  0  0  0  0  0  0  0  0  0
   -1.3866    8.6497   14.0616 C   0  0  0  0  0  0  0  0  0  0  0  0
   -0.4293    9.9474   12.9305 H   0  0  0  0  0  0  0  0  0  0  0  0
    1.5286    3.8142   12.9612 C   0  0  0  0  0  0  0  0  0  0  0  0
    1.9750    2.7391   13.9512 C   0  0  0  0  0  0  0  0  0  0  0  0
    2.2705    1.4345   13.2569 C   0  0  0  0  0  0  0  0  0  0  0  0
    1.8934    0.2169   13.8402 C   0  0  0  0  0  0  0  0  0  0  0  0
    2.1805   -0.9925   13.2030 C   0  0  0  0  0  0  0  0  0  0  0  0
    2.8494   -0.9893   11.9813 C   0  0  0  0  0  0  0  0  0  0  0  0
    3.2361   -2.6257   11.1191 Br  0  0  0  0  0  0  0  0  0  0  0  0
    3.2339    0.2121   11.3909 C   0  0  0  0  0  0  0  0  0  0  0  0
    2.9454    1.4214   12.0273 C   0  0  0  0  0  0  0  0  0  0  0  0
 17 18  1  0
  1 18  1  0
  1  2  1  0
  2  3  1  0
  2  4  1  0
  4  5  1  0
  4  6  1  0
  6  7  1  0
  6  8  1  0
  8  9  1  0
  9 10  1  0
 10 20  1  0
 20 21  1  0
 21 22  1  0
 22 23  2  0
 23 24  1  0
 24 25  2  0
 25 26  1  0
 25 27  1  0
 27 28  2  0
 10 11  2  0
 11 12  1  0
 12  1  1  0
 12  8  2  0
 28 22  1  0
 17 19  1  0
  3 13  1  0
  5 14  1  0
  7 15  1  0
  9 16  1  0
M  CHG 1  12   1
M  END
> <minimizedAffinity>
-7.81493

> <CNNscore>
0.2564909756

> <CNNaffinity>
4.3722491264

> <CNN_VS>
1.1214424372

> <CNNaffinity_variance>
1.5745078325

$$$$
