


 40 40  0  0  0  0  0  0  0  0999 V2000
   37.1814   41.7641   -3.7853 C   0  0  0  0  0  0  0  0  0  0  0  0
   37.9508   39.4672   -3.3791 N   0  0  0  0  0  0  0  0  0  0  0  0
   38.3220   40.7959   -3.3740 C   0  0  0  0  0  0  0  0  0  0  0  0
   39.4609   41.1816   -3.1294 O   0  0  0  0  0  0  0  0  0  0  0  0
   37.0235   39.2582   -3.6353 H   0  0  0  0  0  0  0  0  0  0  0  0
   38.8222   38.3426   -3.0350 C   0  0  0  0  0  0  0  0  0  0  0  0
   40.1982   38.8720   -2.5636 C   0  0  0  0  0  0  0  0  0  0  0  0
   41.4168   38.6658   -3.4930 C   0  0  0  0  0  0  0  0  0  0  0  0
   42.5760   37.9164   -2.8379 C   0  0  0  0  0  0  0  0  0  0  0  0
   41.0531   38.0184   -4.8303 C   0  0  0  0  0  0  0  0  0  0  0  0
   38.1589   37.3916   -2.0099 C   0  0  0  0  0  0  0  0  0  0  0  0
   38.9696   36.1341   -1.5406 C   0  0  0  0  0  0  0  0  0  0  0  0
   38.0420   35.0475   -0.9761 C   0  0  0  0  0  0  0  0  0  0  0  0
   39.7661   35.5479   -2.7248 C   0  0  0  0  0  0  0  0  0  0  0  0
   39.9652   36.6374   -0.4418 C   0  0  0  0  0  0  0  0  0  0  0  0
   41.9356   35.3735    0.5674 C   0  0  0  0  0  0  0  0  0  0  0  0
   40.4323   35.6153    0.6063 C   0  0  0  0  0  0  0  0  0  0  0  0
   36.5309   41.2823   -5.0109 N   0  0  0  0  0  0  0  0  0  0  0  0
   35.8683   40.5641   -4.7181 H   0  0  0  0  0  0  0  0  0  0  0  0
   35.7090   42.2812   -6.0106 P   0  0  0  0  0  0  0  0  0  0  0  0
   35.0010   43.3989   -5.3094 O   0  0  0  0  0  0  0  0  0  0  0  0
   36.8388   42.8664   -6.9931 O   0  0  0  0  0  0  0  0  0  0  0  0
   37.4735   43.3907   -6.4800 H   0  0  0  0  0  0  0  0  0  0  0  0
   34.6154   41.3384   -7.1100 C   0  0  0  0  0  0  0  0  0  0  0  0
   34.5902   41.8696   -8.4624 N   0  0  0  0  0  0  0  0  0  0  0  0
   33.6817   42.7878   -8.8801 C   0  0  0  0  0  0  0  0  0  0  0  0
   32.8082   43.2692   -8.1708 O   0  0  0  0  0  0  0  0  0  0  0  0
   35.2631   41.5487   -9.1054 H   0  0  0  0  0  0  0  0  0  0  0  0
   33.8888   43.0630  -10.1834 O   0  0  0  0  0  0  0  0  0  0  0  0
   33.1423   44.1835  -10.6649 C   0  0  0  0  0  0  0  0  0  0  0  0
   33.0962   44.0957  -12.1678 C   0  0  0  0  0  0  0  0  0  0  0  0
   32.7775   42.8823  -12.7945 C   0  0  0  0  0  0  0  0  0  0  0  0
   32.7543   42.7892  -14.1874 C   0  0  0  0  0  0  0  0  0  0  0  0
   33.0559   43.9058  -14.9646 C   0  0  0  0  0  0  0  0  0  0  0  0
   33.3844   45.1146  -14.3528 C   0  0  0  0  0  0  0  0  0  0  0  0
   33.4080   45.2092  -12.9602 C   0  0  0  0  0  0  0  0  0  0  0  0
   36.2536   42.0589   -2.5900 C   0  0  0  0  0  0  0  0  0  0  0  0
   36.8976   42.7192   -1.3474 C   0  0  0  0  0  0  0  0  0  0  0  0
   36.8250   44.2465   -1.4857 C   0  0  0  0  0  0  0  0  0  0  0  0
   36.2230   42.3197   -0.0341 C   0  0  0  0  0  0  0  0  0  0  0  0
 16 17  1  0
 17 15  1  0
 15 12  1  0
 12 13  1  0
 12 14  1  0
 12 11  1  0
  6 11  1  0
  6  7  1  0
  7  8  1  0
  8  9  1  0
  8 10  1  0
  6  2  1  0
  2  3  1  0
  3  4  2  0
  3  1  1  0
  1 37  1  0
 37 38  1  0
 38 39  1  0
 38 40  1  0
  1 18  1  0
 18 20  1  0
 20 21  2  0
 20 22  1  0
 20 24  1  0
 24 25  1  0
 25 26  1  0
 26 27  2  0
 26 29  1  0
 29 30  1  0
 30 31  1  0
 31 32  2  0
 32 33  1  0
 33 34  2  0
 34 35  1  0
 35 36  2  0
 36 31  1  0
  2  5  1  0
 18 19  1  0
 22 23  1  0
 25 28  1  0
M  END
> <minimizedAffinity>
-8.30048

> <CNNscore>
0.6985589266

> <CNNaffinity>
7.5999579430

> <CNN_VS>
5.3090186119

> <CNNaffinity_variance>
0.1123354062

$$$$



 40 40  0  0  0  0  0  0  0  0999 V2000
   36.7318   42.0518   -3.4702 C   0  0  0  0  0  0  0  0  0  0  0  0
   37.6248   39.8150   -3.9517 N   0  0  0  0  0  0  0  0  0  0  0  0
   37.9497   41.0935   -3.5476 C   0  0  0  0  0  0  0  0  0  0  0  0
   39.0984   41.4647   -3.3280 O   0  0  0  0  0  0  0  0  0  0  0  0
   36.6781   39.6304   -4.1487 H   0  0  0  0  0  0  0  0  0  0  0  0
   38.5719   38.7105   -4.1117 C   0  0  0  0  0  0  0  0  0  0  0  0
   38.6012   37.8555   -2.8218 C   0  0  0  0  0  0  0  0  0  0  0  0
   39.8418   37.9608   -1.9045 C   0  0  0  0  0  0  0  0  0  0  0  0
   40.2807   36.6278   -1.3004 C   0  0  0  0  0  0  0  0  0  0  0  0
   41.0281   38.6586   -2.5718 C   0  0  0  0  0  0  0  0  0  0  0  0
   38.2760   37.8763   -5.3812 C   0  0  0  0  0  0  0  0  0  0  0  0
   39.3642   36.8541   -5.8605 C   0  0  0  0  0  0  0  0  0  0  0  0
   40.7788   37.4394   -5.7314 C   0  0  0  0  0  0  0  0  0  0  0  0
   39.2782   35.5610   -5.0234 C   0  0  0  0  0  0  0  0  0  0  0  0
   39.0342   36.5291   -7.3562 C   0  0  0  0  0  0  0  0  0  0  0  0
   37.3449   36.1561   -9.2287 C   0  0  0  0  0  0  0  0  0  0  0  0
   37.5505   36.4400   -7.7464 C   0  0  0  0  0  0  0  0  0  0  0  0
   35.7527   41.7049   -4.5086 N   0  0  0  0  0  0  0  0  0  0  0  0
   34.8329   41.8265   -4.0847 H   0  0  0  0  0  0  0  0  0  0  0  0
   35.6981   42.4797   -5.9473 P   0  0  0  0  0  0  0  0  0  0  0  0
   34.7614   43.6475   -5.9761 O   0  0  0  0  0  0  0  0  0  0  0  0
   37.2102   42.9718   -6.1832 O   0  0  0  0  0  0  0  0  0  0  0  0
   37.4539   43.6094   -5.4940 H   0  0  0  0  0  0  0  0  0  0  0  0
   35.4006   41.3080   -7.3009 C   0  0  0  0  0  0  0  0  0  0  0  0
   34.5093   41.8427   -8.3165 N   0  0  0  0  0  0  0  0  0  0  0  0
   33.9694   41.0816   -9.3025 C   0  0  0  0  0  0  0  0  0  0  0  0
   34.1616   39.8800   -9.4328 O   0  0  0  0  0  0  0  0  0  0  0  0
   34.2867   42.8013   -8.2882 H   0  0  0  0  0  0  0  0  0  0  0  0
   33.2149   41.8577  -10.1060 O   0  0  0  0  0  0  0  0  0  0  0  0
   33.7488   43.1677  -10.3144 C   0  0  0  0  0  0  0  0  0  0  0  0
   33.4753   43.5554  -11.7439 C   0  0  0  0  0  0  0  0  0  0  0  0
   33.0103   42.5988  -12.6581 C   0  0  0  0  0  0  0  0  0  0  0  0
   32.7756   42.9471  -13.9895 C   0  0  0  0  0  0  0  0  0  0  0  0
   33.0099   44.2517  -14.4194 C   0  0  0  0  0  0  0  0  0  0  0  0
   33.4819   45.2085  -13.5222 C   0  0  0  0  0  0  0  0  0  0  0  0
   33.7172   44.8619  -12.1906 C   0  0  0  0  0  0  0  0  0  0  0  0
   36.1950   42.1423   -2.0280 C   0  0  0  0  0  0  0  0  0  0  0  0
   37.0660   42.9052   -1.0012 C   0  0  0  0  0  0  0  0  0  0  0  0
   36.7893   44.4109   -1.1159 C   0  0  0  0  0  0  0  0  0  0  0  0
   36.8106   42.4752    0.4443 C   0  0  0  0  0  0  0  0  0  0  0  0
 16 17  1  0
 17 15  1  0
 15 12  1  0
 12 13  1  0
 12 14  1  0
 12 11  1  0
  6 11  1  0
  6  7  1  0
  7  8  1  0
  8  9  1  0
  8 10  1  0
  6  2  1  0
  2  3  1  0
  3  4  2  0
  3  1  1  0
  1 37  1  0
 37 38  1  0
 38 39  1  0
 38 40  1  0
  1 18  1  0
 18 20  1  0
 20 21  2  0
 20 22  1  0
 20 24  1  0
 24 25  1  0
 25 26  1  0
 26 27  2  0
 26 29  1  0
 29 30  1  0
 30 31  1  0
 31 32  2  0
 32 33  1  0
 33 34  2  0
 34 35  1  0
 35 36  2  0
 36 31  1  0
  2  5  1  0
 18 19  1  0
 22 23  1  0
 25 28  1  0
M  END
> <minimizedAffinity>
-8.17401

> <CNNscore>
0.6130170226

> <CNNaffinity>
7.5136075020

> <CNN_VS>
4.6059694290

> <CNNaffinity_variance>
0.0782602951

$$$$



 40 40  0  0  0  0  0  0  0  0999 V2000
   37.0468   41.9080   -4.2719 C   0  0  0  0  0  0  0  0  0  0  0  0
   38.1754   39.7616   -3.8815 N   0  0  0  0  0  0  0  0  0  0  0  0
   38.2147   41.1168   -3.6257 C   0  0  0  0  0  0  0  0  0  0  0  0
   39.1175   41.6635   -3.0000 O   0  0  0  0  0  0  0  0  0  0  0  0
   37.4323   39.4277   -4.4343 H   0  0  0  0  0  0  0  0  0  0  0  0
   39.1475   38.7796   -3.3988 C   0  0  0  0  0  0  0  0  0  0  0  0
   38.5630   37.3530   -3.5375 C   0  0  0  0  0  0  0  0  0  0  0  0
   37.9072   36.7090   -2.2939 C   0  0  0  0  0  0  0  0  0  0  0  0
   38.0046   35.1846   -2.2614 C   0  0  0  0  0  0  0  0  0  0  0  0
   38.4042   37.3021   -0.9744 C   0  0  0  0  0  0  0  0  0  0  0  0
   40.5213   38.9383   -4.0936 C   0  0  0  0  0  0  0  0  0  0  0  0
   41.5155   37.7268   -4.0441 C   0  0  0  0  0  0  0  0  0  0  0  0
   41.6099   37.1363   -2.6291 C   0  0  0  0  0  0  0  0  0  0  0  0
   41.0516   36.6237   -5.0179 C   0  0  0  0  0  0  0  0  0  0  0  0
   42.9056   38.2792   -4.5072 C   0  0  0  0  0  0  0  0  0  0  0  0
   45.1138   39.3922   -3.8877 C   0  0  0  0  0  0  0  0  0  0  0  0
   43.6363   39.2362   -3.5523 C   0  0  0  0  0  0  0  0  0  0  0  0
   36.3590   41.0692   -5.2622 N   0  0  0  0  0  0  0  0  0  0  0  0
   35.6982   40.4947   -4.7389 H   0  0  0  0  0  0  0  0  0  0  0  0
   35.5192   41.7079   -6.5111 P   0  0  0  0  0  0  0  0  0  0  0  0
   34.2450   42.3830   -6.1076 O   0  0  0  0  0  0  0  0  0  0  0  0
   36.5336   42.7734   -7.1592 O   0  0  0  0  0  0  0  0  0  0  0  0
   36.7195   43.4754   -6.5162 H   0  0  0  0  0  0  0  0  0  0  0  0
   35.2765   40.4774   -7.8228 C   0  0  0  0  0  0  0  0  0  0  0  0
   34.5705   41.0182   -8.9721 N   0  0  0  0  0  0  0  0  0  0  0  0
   33.7870   40.2617   -9.7825 C   0  0  0  0  0  0  0  0  0  0  0  0
   33.5835   39.0649   -9.6277 O   0  0  0  0  0  0  0  0  0  0  0  0
   34.6648   41.9775   -9.1722 H   0  0  0  0  0  0  0  0  0  0  0  0
   33.2938   41.0302  -10.7742 O   0  0  0  0  0  0  0  0  0  0  0  0
   33.2269   42.4215  -10.4508 C   0  0  0  0  0  0  0  0  0  0  0  0
   33.2365   43.1963  -11.7423 C   0  0  0  0  0  0  0  0  0  0  0  0
   32.8218   42.5858  -12.9348 C   0  0  0  0  0  0  0  0  0  0  0  0
   32.8489   43.2923  -14.1387 C   0  0  0  0  0  0  0  0  0  0  0  0
   33.2967   44.6116  -14.1616 C   0  0  0  0  0  0  0  0  0  0  0  0
   33.7211   45.2256  -12.9842 C   0  0  0  0  0  0  0  0  0  0  0  0
   33.6947   44.5206  -11.7797 C   0  0  0  0  0  0  0  0  0  0  0  0
   36.1590   42.5567   -3.1915 C   0  0  0  0  0  0  0  0  0  0  0  0
   36.7893   42.7581   -1.7926 C   0  0  0  0  0  0  0  0  0  0  0  0
   36.9184   44.2601   -1.5024 C   0  0  0  0  0  0  0  0  0  0  0  0
   35.9772   42.1160   -0.6668 C   0  0  0  0  0  0  0  0  0  0  0  0
 16 17  1  0
 17 15  1  0
 15 12  1  0
 12 13  1  0
 12 14  1  0
 12 11  1  0
  6 11  1  0
  6  7  1  0
  7  8  1  0
  8  9  1  0
  8 10  1  0
  6  2  1  0
  2  3  1  0
  3  4  2  0
  3  1  1  0
  1 37  1  0
 37 38  1  0
 38 39  1  0
 38 40  1  0
  1 18  1  0
 18 20  1  0
 20 21  2  0
 20 22  1  0
 20 24  1  0
 24 25  1  0
 25 26  1  0
 26 27  2  0
 26 29  1  0
 29 30  1  0
 30 31  1  0
 31 32  2  0
 32 33  1  0
 33 34  2  0
 34 35  1  0
 35 36  2  0
 36 31  1  0
  2  5  1  0
 18 19  1  0
 22 23  1  0
 25 28  1  0
M  END
> <minimizedAffinity>
-7.87340

> <CNNscore>
0.5875446200

> <CNNaffinity>
7.4417095184

> <CNN_VS>
4.3723363876

> <CNNaffinity_variance>
0.0214626584

$$$$



 40 40  0  0  0  0  0  0  0  0999 V2000
   36.6249   42.0663   -3.3781 C   0  0  0  0  0  0  0  0  0  0  0  0
   37.8631   39.9741   -3.7283 N   0  0  0  0  0  0  0  0  0  0  0  0
   37.9808   41.3415   -3.5880 C   0  0  0  0  0  0  0  0  0  0  0  0
   39.0454   41.9443   -3.6811 O   0  0  0  0  0  0  0  0  0  0  0  0
   36.9569   39.5918   -3.6839 H   0  0  0  0  0  0  0  0  0  0  0  0
   38.9745   39.0450   -3.9378 C   0  0  0  0  0  0  0  0  0  0  0  0
   39.5210   38.5662   -2.5710 C   0  0  0  0  0  0  0  0  0  0  0  0
   38.6060   37.6875   -1.6867 C   0  0  0  0  0  0  0  0  0  0  0  0
   39.3652   36.7568   -0.7423 C   0  0  0  0  0  0  0  0  0  0  0  0
   37.5605   38.4927   -0.9131 C   0  0  0  0  0  0  0  0  0  0  0  0
   38.5808   37.8759   -4.8725 C   0  0  0  0  0  0  0  0  0  0  0  0
   39.7287   36.9815   -5.4562 C   0  0  0  0  0  0  0  0  0  0  0  0
   39.4868   36.6550   -6.9378 C   0  0  0  0  0  0  0  0  0  0  0  0
   41.0840   37.7055   -5.3171 C   0  0  0  0  0  0  0  0  0  0  0  0
   39.7469   35.6727   -4.5969 C   0  0  0  0  0  0  0  0  0  0  0  0
   41.0906   34.3211   -2.9039 C   0  0  0  0  0  0  0  0  0  0  0  0
   41.1210   35.1034   -4.2103 C   0  0  0  0  0  0  0  0  0  0  0  0
   35.6937   41.7123   -4.4574 N   0  0  0  0  0  0  0  0  0  0  0  0
   34.7558   41.8510   -4.0811 H   0  0  0  0  0  0  0  0  0  0  0  0
   35.7183   42.4629   -5.9096 P   0  0  0  0  0  0  0  0  0  0  0  0
   34.7887   43.6327   -6.0076 O   0  0  0  0  0  0  0  0  0  0  0  0
   37.2426   42.9469   -6.0729 O   0  0  0  0  0  0  0  0  0  0  0  0
   37.4517   43.5953   -5.3825 H   0  0  0  0  0  0  0  0  0  0  0  0
   35.4889   41.2696   -7.2575 C   0  0  0  0  0  0  0  0  0  0  0  0
   34.6000   41.7637   -8.2955 N   0  0  0  0  0  0  0  0  0  0  0  0
   33.9384   40.9464   -9.1541 C   0  0  0  0  0  0  0  0  0  0  0  0
   34.0078   39.7246   -9.1387 O   0  0  0  0  0  0  0  0  0  0  0  0
   34.4717   42.7361   -8.3800 H   0  0  0  0  0  0  0  0  0  0  0  0
   33.2198   41.6909  -10.0181 O   0  0  0  0  0  0  0  0  0  0  0  0
   33.7013   43.0287  -10.1703 C   0  0  0  0  0  0  0  0  0  0  0  0
   33.4933   43.4334  -11.6061 C   0  0  0  0  0  0  0  0  0  0  0  0
   33.7281   44.7564  -12.0077 C   0  0  0  0  0  0  0  0  0  0  0  0
   33.5163   45.1426  -13.3325 C   0  0  0  0  0  0  0  0  0  0  0  0
   33.0619   44.2117  -14.2646 C   0  0  0  0  0  0  0  0  0  0  0  0
   32.8152   42.8963  -13.8748 C   0  0  0  0  0  0  0  0  0  0  0  0
   33.0264   42.5086  -12.5504 C   0  0  0  0  0  0  0  0  0  0  0  0
   36.1113   41.8641   -1.9388 C   0  0  0  0  0  0  0  0  0  0  0  0
   36.2933   43.0455   -0.9559 C   0  0  0  0  0  0  0  0  0  0  0  0
   36.9104   42.5306    0.3522 C   0  0  0  0  0  0  0  0  0  0  0  0
   37.1871   44.1572   -1.5077 C   0  0  0  0  0  0  0  0  0  0  0  0
 16 17  1  0
 17 15  1  0
 15 12  1  0
 12 13  1  0
 12 14  1  0
 12 11  1  0
  6 11  1  0
  6  7  1  0
  7  8  1  0
  8  9  1  0
  8 10  1  0
  6  2  1  0
  2  3  1  0
  3  4  2  0
  3  1  1  0
  1 37  1  0
 37 38  1  0
 38 39  1  0
 38 40  1  0
  1 18  1  0
 18 20  1  0
 20 21  2  0
 20 22  1  0
 20 24  1  0
 24 25  1  0
 25 26  1  0
 26 27  2  0
 26 29  1  0
 29 30  1  0
 30 31  1  0
 31 32  2  0
 32 33  1  0
 33 34  2  0
 34 35  1  0
 35 36  2  0
 36 31  1  0
  2  5  1  0
 18 19  1  0
 22 23  1  0
 25 28  1  0
M  END
> <minimizedAffinity>
-8.21749

> <CNNscore>
0.5781042576

> <CNNaffinity>
7.5366439819

> <CNN_VS>
4.3569660187

> <CNNaffinity_variance>
0.1219765544

$$$$



 40 40  0  0  0  0  0  0  0  0999 V2000
   36.6963   41.9057   -2.5985 C   0  0  0  0  0  0  0  0  0  0  0  0
   37.6000   39.6306   -2.7988 N   0  0  0  0  0  0  0  0  0  0  0  0
   37.9193   40.9728   -2.8026 C   0  0  0  0  0  0  0  0  0  0  0  0
   39.0505   41.4009   -3.0094 O   0  0  0  0  0  0  0  0  0  0  0  0
   36.6535   39.3918   -2.6706 H   0  0  0  0  0  0  0  0  0  0  0  0
   38.5526   38.5325   -2.9697 C   0  0  0  0  0  0  0  0  0  0  0  0
   39.5628   38.8855   -4.0881 C   0  0  0  0  0  0  0  0  0  0  0  0
   39.4959   38.0868   -5.4106 C   0  0  0  0  0  0  0  0  0  0  0  0
   40.7585   37.2813   -5.7126 C   0  0  0  0  0  0  0  0  0  0  0  0
   38.2580   37.1943   -5.5145 C   0  0  0  0  0  0  0  0  0  0  0  0
   39.2388   38.1514   -1.6359 C   0  0  0  0  0  0  0  0  0  0  0  0
   40.0845   36.8317   -1.5940 C   0  0  0  0  0  0  0  0  0  0  0  0
   41.5063   37.0596   -2.1293 C   0  0  0  0  0  0  0  0  0  0  0  0
   40.1720   36.3070   -0.1458 C   0  0  0  0  0  0  0  0  0  0  0  0
   39.3200   35.7909   -2.4796 C   0  0  0  0  0  0  0  0  0  0  0  0
   37.5705   34.1418   -1.6320 C   0  0  0  0  0  0  0  0  0  0  0  0
   39.0518   34.4074   -1.8668 C   0  0  0  0  0  0  0  0  0  0  0  0
   35.7280   41.7100   -3.6854 N   0  0  0  0  0  0  0  0  0  0  0  0
   34.9173   42.2829   -3.4511 H   0  0  0  0  0  0  0  0  0  0  0  0
   36.0893   42.0461   -5.2441 P   0  0  0  0  0  0  0  0  0  0  0  0
   37.2081   43.0267   -5.4132 O   0  0  0  0  0  0  0  0  0  0  0  0
   36.4981   40.6211   -5.8660 O   0  0  0  0  0  0  0  0  0  0  0  0
   37.2966   40.2926   -5.4241 H   0  0  0  0  0  0  0  0  0  0  0  0
   34.5984   42.5168   -6.1656 C   0  0  0  0  0  0  0  0  0  0  0  0
   34.8021   42.4986   -7.6043 N   0  0  0  0  0  0  0  0  0  0  0  0
   33.8463   42.8745   -8.4920 C   0  0  0  0  0  0  0  0  0  0  0  0
   32.7324   43.2750   -8.1812 O   0  0  0  0  0  0  0  0  0  0  0  0
   35.6737   42.1999   -7.9513 H   0  0  0  0  0  0  0  0  0  0  0  0
   34.3143   42.7211   -9.7468 O   0  0  0  0  0  0  0  0  0  0  0  0
   33.3634   42.1601  -10.6556 C   0  0  0  0  0  0  0  0  0  0  0  0
   33.2876   43.0623  -11.8592 C   0  0  0  0  0  0  0  0  0  0  0  0
   32.8862   42.5499  -13.1014 C   0  0  0  0  0  0  0  0  0  0  0  0
   32.8347   43.3765  -14.2253 C   0  0  0  0  0  0  0  0  0  0  0  0
   33.1902   44.7197  -14.1183 C   0  0  0  0  0  0  0  0  0  0  0  0
   33.6006   45.2378  -12.8910 C   0  0  0  0  0  0  0  0  0  0  0  0
   33.6527   44.4126  -11.7663 C   0  0  0  0  0  0  0  0  0  0  0  0
   36.1464   41.7841   -1.1635 C   0  0  0  0  0  0  0  0  0  0  0  0
   36.5964   42.8596   -0.1457 C   0  0  0  0  0  0  0  0  0  0  0  0
   37.1794   42.1732    1.0977 C   0  0  0  0  0  0  0  0  0  0  0  0
   37.6475   43.8187   -0.7064 C   0  0  0  0  0  0  0  0  0  0  0  0
 16 17  1  0
 17 15  1  0
 15 12  1  0
 12 13  1  0
 12 14  1  0
 12 11  1  0
  6 11  1  0
  6  7  1  0
  7  8  1  0
  8  9  1  0
  8 10  1  0
  6  2  1  0
  2  3  1  0
  3  4  2  0
  3  1  1  0
  1 37  1  0
 37 38  1  0
 38 39  1  0
 38 40  1  0
  1 18  1  0
 18 20  1  0
 20 21  2  0
 20 22  1  0
 20 24  1  0
 24 25  1  0
 25 26  1  0
 26 27  2  0
 26 29  1  0
 29 30  1  0
 30 31  1  0
 31 32  2  0
 32 33  1  0
 33 34  2  0
 34 35  1  0
 35 36  2  0
 36 31  1  0
  2  5  1  0
 18 19  1  0
 22 23  1  0
 25 28  1  0
M  END
> <minimizedAffinity>
-8.52074

> <CNNscore>
0.5134621263

> <CNNaffinity>
7.4062561989

> <CNN_VS>
3.8028321266

> <CNNaffinity_variance>
0.4862835407

$$$$



 40 40  0  0  0  0  0  0  0  0999 V2000
   37.9795   41.1869   -2.6500 C   0  0  0  0  0  0  0  0  0  0  0  0
   38.7677   38.8610   -2.6902 N   0  0  0  0  0  0  0  0  0  0  0  0
   37.9368   39.7569   -2.0494 C   0  0  0  0  0  0  0  0  0  0  0  0
   37.2702   39.4753   -1.0586 O   0  0  0  0  0  0  0  0  0  0  0  0
   39.2972   39.1987   -3.4484 H   0  0  0  0  0  0  0  0  0  0  0  0
   38.9266   37.4498   -2.3356 C   0  0  0  0  0  0  0  0  0  0  0  0
   39.2641   36.6268   -3.6024 C   0  0  0  0  0  0  0  0  0  0  0  0
   39.5932   37.3935   -4.9044 C   0  0  0  0  0  0  0  0  0  0  0  0
   38.3769   38.0358   -5.5696 C   0  0  0  0  0  0  0  0  0  0  0  0
   40.7109   38.4235   -4.7322 C   0  0  0  0  0  0  0  0  0  0  0  0
   39.9567   37.2537   -1.1972 C   0  0  0  0  0  0  0  0  0  0  0  0
   40.0524   35.8394   -0.5268 C   0  0  0  0  0  0  0  0  0  0  0  0
   40.8956   34.8736   -1.3731 C   0  0  0  0  0  0  0  0  0  0  0  0
   40.6856   35.9619    0.8747 C   0  0  0  0  0  0  0  0  0  0  0  0
   38.5826   35.3169   -0.3904 C   0  0  0  0  0  0  0  0  0  0  0  0
   38.4072   32.9711    0.5922 C   0  0  0  0  0  0  0  0  0  0  0  0
   38.3373   33.8253   -0.6670 C   0  0  0  0  0  0  0  0  0  0  0  0
   37.8468   41.1224   -4.1114 N   0  0  0  0  0  0  0  0  0  0  0  0
   37.7631   40.1333   -4.3462 H   0  0  0  0  0  0  0  0  0  0  0  0
   36.6415   41.8848   -4.9106 P   0  0  0  0  0  0  0  0  0  0  0  0
   35.6878   42.6191   -4.0198 O   0  0  0  0  0  0  0  0  0  0  0  0
   37.4061   42.9156   -5.8788 O   0  0  0  0  0  0  0  0  0  0  0  0
   37.8866   43.5663   -5.3434 H   0  0  0  0  0  0  0  0  0  0  0  0
   35.8033   40.7491   -6.0513 C   0  0  0  0  0  0  0  0  0  0  0  0
   35.5763   41.3387   -7.3600 N   0  0  0  0  0  0  0  0  0  0  0  0
   34.5757   42.2211   -7.6108 C   0  0  0  0  0  0  0  0  0  0  0  0
   33.7776   42.6188   -6.7725 O   0  0  0  0  0  0  0  0  0  0  0  0
   36.1760   41.0865   -8.0989 H   0  0  0  0  0  0  0  0  0  0  0  0
   34.5982   42.5664   -8.9136 O   0  0  0  0  0  0  0  0  0  0  0  0
   33.6229   41.8886   -9.7099 C   0  0  0  0  0  0  0  0  0  0  0  0
   33.4669   42.6531  -10.9982 C   0  0  0  0  0  0  0  0  0  0  0  0
   33.7663   44.0223  -11.0472 C   0  0  0  0  0  0  0  0  0  0  0  0
   33.6030   44.7409  -12.2330 C   0  0  0  0  0  0  0  0  0  0  0  0
   33.1332   44.0987  -13.3769 C   0  0  0  0  0  0  0  0  0  0  0  0
   32.8226   42.7404  -13.3375 C   0  0  0  0  0  0  0  0  0  0  0  0
   32.9851   42.0204  -12.1526 C   0  0  0  0  0  0  0  0  0  0  0  0
   36.9971   42.1205   -1.9155 C   0  0  0  0  0  0  0  0  0  0  0  0
   37.5883   43.0405   -0.8205 C   0  0  0  0  0  0  0  0  0  0  0  0
   37.1266   44.4845   -1.0631 C   0  0  0  0  0  0  0  0  0  0  0  0
   37.1787   42.6331    0.5957 C   0  0  0  0  0  0  0  0  0  0  0  0
 16 17  1  0
 17 15  1  0
 15 12  1  0
 12 13  1  0
 12 14  1  0
 12 11  1  0
  6 11  1  0
  6  7  1  0
  7  8  1  0
  8  9  1  0
  8 10  1  0
  6  2  1  0
  2  3  1  0
  3  4  2  0
  3  1  1  0
  1 37  1  0
 37 38  1  0
 38 39  1  0
 38 40  1  0
  1 18  1  0
 18 20  1  0
 20 21  2  0
 20 22  1  0
 20 24  1  0
 24 25  1  0
 25 26  1  0
 26 27  2  0
 26 29  1  0
 29 30  1  0
 30 31  1  0
 31 32  2  0
 32 33  1  0
 33 34  2  0
 34 35  1  0
 35 36  2  0
 36 31  1  0
  2  5  1  0
 18 19  1  0
 22 23  1  0
 25 28  1  0
M  END
> <minimizedAffinity>
-8.09358

> <CNNscore>
0.3540175855

> <CNNaffinity>
6.7166538239

> <CNN_VS>
2.3778135777

> <CNNaffinity_variance>
0.1532864720

$$$$



 40 40  0  0  0  0  0  0  0  0999 V2000
   34.9243   41.4195   -6.4120 C   0  0  0  0  0  0  0  0  0  0  0  0
   36.0155   41.5567   -4.2158 N   0  0  0  0  0  0  0  0  0  0  0  0
   35.9161   42.1410   -5.4616 C   0  0  0  0  0  0  0  0  0  0  0  0
   36.5901   43.1032   -5.8158 O   0  0  0  0  0  0  0  0  0  0  0  0
   35.4648   40.7584   -4.0461 H   0  0  0  0  0  0  0  0  0  0  0  0
   36.8722   42.0258   -3.1257 C   0  0  0  0  0  0  0  0  0  0  0  0
   36.2290   41.6684   -1.7639 C   0  0  0  0  0  0  0  0  0  0  0  0
   36.2865   42.7199   -0.6314 C   0  0  0  0  0  0  0  0  0  0  0  0
   36.9777   42.2259    0.6384 C   0  0  0  0  0  0  0  0  0  0  0  0
   36.8846   44.0552   -1.0775 C   0  0  0  0  0  0  0  0  0  0  0  0
   38.3214   41.5006   -3.2642 C   0  0  0  0  0  0  0  0  0  0  0  0
   38.5651   39.9605   -3.0993 C   0  0  0  0  0  0  0  0  0  0  0  0
   37.9155   39.4244   -1.8145 C   0  0  0  0  0  0  0  0  0  0  0  0
   37.9829   39.2018   -4.3099 C   0  0  0  0  0  0  0  0  0  0  0  0
   40.1178   39.7626   -3.0584 C   0  0  0  0  0  0  0  0  0  0  0  0
   41.2324   37.5540   -2.4430 C   0  0  0  0  0  0  0  0  0  0  0  0
   40.6699   38.4200   -3.5627 C   0  0  0  0  0  0  0  0  0  0  0  0
   33.8203   42.3216   -6.7652 N   0  0  0  0  0  0  0  0  0  0  0  0
   34.0365   43.2194   -6.3320 H   0  0  0  0  0  0  0  0  0  0  0  0
   33.4253   42.6476   -8.3179 P   0  0  0  0  0  0  0  0  0  0  0  0
   32.3973   43.7252   -8.4725 O   0  0  0  0  0  0  0  0  0  0  0  0
   34.8145   43.1022   -8.9869 O   0  0  0  0  0  0  0  0  0  0  0  0
   35.1244   43.9189   -8.5653 H   0  0  0  0  0  0  0  0  0  0  0  0
   32.9864   41.1267   -9.2056 C   0  0  0  0  0  0  0  0  0  0  0  0
   32.3383   41.3908  -10.4792 N   0  0  0  0  0  0  0  0  0  0  0  0
   32.5755   40.6572  -11.5965 C   0  0  0  0  0  0  0  0  0  0  0  0
   33.3386   39.7018  -11.6479 O   0  0  0  0  0  0  0  0  0  0  0  0
   31.6975   42.1362  -10.5342 H   0  0  0  0  0  0  0  0  0  0  0  0
   31.8569   41.1566  -12.6219 O   0  0  0  0  0  0  0  0  0  0  0  0
   31.3702   42.4823  -12.3972 C   0  0  0  0  0  0  0  0  0  0  0  0
   32.1904   43.4238  -13.2394 C   0  0  0  0  0  0  0  0  0  0  0  0
   32.9980   44.3948  -12.6297 C   0  0  0  0  0  0  0  0  0  0  0  0
   33.7438   45.2844  -13.4053 C   0  0  0  0  0  0  0  0  0  0  0  0
   33.6834   45.2150  -14.7958 C   0  0  0  0  0  0  0  0  0  0  0  0
   32.8762   44.2606  -15.4130 C   0  0  0  0  0  0  0  0  0  0  0  0
   32.1298   43.3706  -14.6389 C   0  0  0  0  0  0  0  0  0  0  0  0
   35.6715   40.7610   -7.5885 C   0  0  0  0  0  0  0  0  0  0  0  0
   35.4467   39.2449   -7.8028 C   0  0  0  0  0  0  0  0  0  0  0  0
   35.7477   38.8859   -9.2648 C   0  0  0  0  0  0  0  0  0  0  0  0
   36.3205   38.3720   -6.9007 C   0  0  0  0  0  0  0  0  0  0  0  0
 16 17  1  0
 17 15  1  0
 15 12  1  0
 12 13  1  0
 12 14  1  0
 12 11  1  0
  6 11  1  0
  6  7  1  0
  7  8  1  0
  8  9  1  0
  8 10  1  0
  6  2  1  0
  2  3  1  0
  3  4  2  0
  3  1  1  0
  1 37  1  0
 37 38  1  0
 38 39  1  0
 38 40  1  0
  1 18  1  0
 18 20  1  0
 20 21  2  0
 20 22  1  0
 20 24  1  0
 24 25  1  0
 25 26  1  0
 26 27  2  0
 26 29  1  0
 29 30  1  0
 30 31  1  0
 31 32  2  0
 32 33  1  0
 33 34  2  0
 34 35  1  0
 35 36  2  0
 36 31  1  0
  2  5  1  0
 18 19  1  0
 22 23  1  0
 25 28  1  0
M  END
> <minimizedAffinity>
-7.57342

> <CNNscore>
0.3404613733

> <CNNaffinity>
6.9318175316

> <CNN_VS>
2.3600161076

> <CNNaffinity_variance>
0.3089732826

$$$$



 40 40  0  0  0  0  0  0  0  0999 V2000
   34.5802   41.6248   -6.5086 C   0  0  0  0  0  0  0  0  0  0  0  0
   35.8040   41.7481   -4.3826 N   0  0  0  0  0  0  0  0  0  0  0  0
   35.6629   42.3110   -5.6342 C   0  0  0  0  0  0  0  0  0  0  0  0
   36.3651   43.2276   -6.0494 O   0  0  0  0  0  0  0  0  0  0  0  0
   35.2226   40.9847   -4.1625 H   0  0  0  0  0  0  0  0  0  0  0  0
   36.7468   42.1926   -3.3549 C   0  0  0  0  0  0  0  0  0  0  0  0
   36.1948   41.8425   -1.9518 C   0  0  0  0  0  0  0  0  0  0  0  0
   36.3212   42.9022   -0.8327 C   0  0  0  0  0  0  0  0  0  0  0  0
   36.9776   42.3796    0.4442 C   0  0  0  0  0  0  0  0  0  0  0  0
   37.0068   44.1891   -1.2949 C   0  0  0  0  0  0  0  0  0  0  0  0
   38.1703   41.6362   -3.5987 C   0  0  0  0  0  0  0  0  0  0  0  0
   38.4192   40.1105   -3.3360 C   0  0  0  0  0  0  0  0  0  0  0  0
   37.6761   39.6292   -2.0806 C   0  0  0  0  0  0  0  0  0  0  0  0
   37.9447   39.2823   -4.5481 C   0  0  0  0  0  0  0  0  0  0  0  0
   39.9661   39.9406   -3.1627 C   0  0  0  0  0  0  0  0  0  0  0  0
   41.7484   38.4371   -4.1932 C   0  0  0  0  0  0  0  0  0  0  0  0
   40.5350   38.5175   -3.2760 C   0  0  0  0  0  0  0  0  0  0  0  0
   33.7152   42.6392   -7.1251 N   0  0  0  0  0  0  0  0  0  0  0  0
   34.0699   43.5434   -6.8136 H   0  0  0  0  0  0  0  0  0  0  0  0
   33.5284   42.7558   -8.7452 P   0  0  0  0  0  0  0  0  0  0  0  0
   34.8150   42.8881   -9.4996 O   0  0  0  0  0  0  0  0  0  0  0  0
   32.7819   41.3912   -9.1512 O   0  0  0  0  0  0  0  0  0  0  0  0
   33.3593   40.6365   -8.9567 H   0  0  0  0  0  0  0  0  0  0  0  0
   32.3318   44.0538   -9.1657 C   0  0  0  0  0  0  0  0  0  0  0  0
   31.8170   43.9218  -10.5182 N   0  0  0  0  0  0  0  0  0  0  0  0
   32.4110   44.4957  -11.5955 C   0  0  0  0  0  0  0  0  0  0  0  0
   33.4347   45.1646  -11.5466 O   0  0  0  0  0  0  0  0  0  0  0  0
   30.9996   43.3916  -10.6598 H   0  0  0  0  0  0  0  0  0  0  0  0
   31.6909   44.2243  -12.7023 O   0  0  0  0  0  0  0  0  0  0  0  0
   32.2289   44.7946  -13.8982 C   0  0  0  0  0  0  0  0  0  0  0  0
   32.4731   43.6740  -14.8745 C   0  0  0  0  0  0  0  0  0  0  0  0
   32.4666   42.3419  -14.4360 C   0  0  0  0  0  0  0  0  0  0  0  0
   32.7137   41.3003  -15.3321 C   0  0  0  0  0  0  0  0  0  0  0  0
   32.9758   41.5817  -16.6715 C   0  0  0  0  0  0  0  0  0  0  0  0
   32.9950   42.9026  -17.1167 C   0  0  0  0  0  0  0  0  0  0  0  0
   32.7483   43.9453  -16.2220 C   0  0  0  0  0  0  0  0  0  0  0  0
   35.2169   40.5972   -7.4651 C   0  0  0  0  0  0  0  0  0  0  0  0
   35.0877   39.1042   -7.0787 C   0  0  0  0  0  0  0  0  0  0  0  0
   33.6386   38.6450   -7.2935 C   0  0  0  0  0  0  0  0  0  0  0  0
   36.0098   38.1899   -7.8868 C   0  0  0  0  0  0  0  0  0  0  0  0
 16 17  1  0
 17 15  1  0
 15 12  1  0
 12 13  1  0
 12 14  1  0
 12 11  1  0
  6 11  1  0
  6  7  1  0
  7  8  1  0
  8  9  1  0
  8 10  1  0
  6  2  1  0
  2  3  1  0
  3  4  2  0
  3  1  1  0
  1 37  1  0
 37 38  1  0
 38 39  1  0
 38 40  1  0
  1 18  1  0
 18 20  1  0
 20 21  2  0
 20 22  1  0
 20 24  1  0
 24 25  1  0
 25 26  1  0
 26 27  2  0
 26 29  1  0
 29 30  1  0
 30 31  1  0
 31 32  2  0
 32 33  1  0
 33 34  2  0
 34 35  1  0
 35 36  2  0
 36 31  1  0
  2  5  1  0
 18 19  1  0
 22 23  1  0
 25 28  1  0
M  END
> <minimizedAffinity>
-7.24687

> <CNNscore>
0.2925657332

> <CNNaffinity>
6.7570934296

> <CNN_VS>
1.9768940210

> <CNNaffinity_variance>
0.1839732677

$$$$



 40 40  0  0  0  0  0  0  0  0999 V2000
   34.9294   41.0340   -6.3808 C   0  0  0  0  0  0  0  0  0  0  0  0
   36.1781   41.2861   -4.2808 N   0  0  0  0  0  0  0  0  0  0  0  0
   35.9206   41.8528   -5.5121 C   0  0  0  0  0  0  0  0  0  0  0  0
   36.4664   42.8746   -5.9166 O   0  0  0  0  0  0  0  0  0  0  0  0
   35.7237   40.4387   -4.0696 H   0  0  0  0  0  0  0  0  0  0  0  0
   37.0714   41.8411   -3.2628 C   0  0  0  0  0  0  0  0  0  0  0  0
   36.4569   41.6322   -1.8575 C   0  0  0  0  0  0  0  0  0  0  0  0
   36.5002   42.8126   -0.8594 C   0  0  0  0  0  0  0  0  0  0  0  0
   36.9785   42.4246    0.5388 C   0  0  0  0  0  0  0  0  0  0  0  0
   37.2931   44.0132   -1.3787 C   0  0  0  0  0  0  0  0  0  0  0  0
   38.5064   41.2740   -3.3834 C   0  0  0  0  0  0  0  0  0  0  0  0
   38.7000   39.7246   -3.2399 C   0  0  0  0  0  0  0  0  0  0  0  0
   37.9763   39.1817   -1.9983 C   0  0  0  0  0  0  0  0  0  0  0  0
   38.1550   39.0067   -4.4920 C   0  0  0  0  0  0  0  0  0  0  0  0
   40.2432   39.4823   -3.1311 C   0  0  0  0  0  0  0  0  0  0  0  0
   41.4584   37.9299   -4.7473 C   0  0  0  0  0  0  0  0  0  0  0  0
   40.7531   38.0584   -3.4035 C   0  0  0  0  0  0  0  0  0  0  0  0
   33.8079   41.8847   -6.8003 N   0  0  0  0  0  0  0  0  0  0  0  0
   33.7811   42.6648   -6.1437 H   0  0  0  0  0  0  0  0  0  0  0  0
   33.7259   42.5428   -8.2946 P   0  0  0  0  0  0  0  0  0  0  0  0
   32.7038   43.6290   -8.4276 O   0  0  0  0  0  0  0  0  0  0  0  0
   35.2009   43.1317   -8.5432 O   0  0  0  0  0  0  0  0  0  0  0  0
   35.3803   43.8361   -7.9010 H   0  0  0  0  0  0  0  0  0  0  0  0
   33.5481   41.2535   -9.5594 C   0  0  0  0  0  0  0  0  0  0  0  0
   32.2325   40.6364   -9.5468 N   0  0  0  0  0  0  0  0  0  0  0  0
   31.4330   40.5756  -10.6422 C   0  0  0  0  0  0  0  0  0  0  0  0
   31.7342   41.0152  -11.7439 O   0  0  0  0  0  0  0  0  0  0  0  0
   31.9059   40.2444   -8.7048 H   0  0  0  0  0  0  0  0  0  0  0  0
   30.2701   39.9767  -10.3160 O   0  0  0  0  0  0  0  0  0  0  0  0
   30.0582   38.7250  -10.9742 C   0  0  0  0  0  0  0  0  0  0  0  0
   29.8105   37.6831   -9.9153 C   0  0  0  0  0  0  0  0  0  0  0  0
   30.7714   37.4433   -8.9223 C   0  0  0  0  0  0  0  0  0  0  0  0
   30.5568   36.4638   -7.9509 C   0  0  0  0  0  0  0  0  0  0  0  0
   29.3838   35.7118   -7.9680 C   0  0  0  0  0  0  0  0  0  0  0  0
   28.4261   35.9341   -8.9563 C   0  0  0  0  0  0  0  0  0  0  0  0
   28.6392   36.9130   -9.9283 C   0  0  0  0  0  0  0  0  0  0  0  0
   35.6734   40.2824   -7.5023 C   0  0  0  0  0  0  0  0  0  0  0  0
   35.5116   38.7439   -7.5437 C   0  0  0  0  0  0  0  0  0  0  0  0
   34.0327   38.3808   -7.3479 C   0  0  0  0  0  0  0  0  0  0  0  0
   35.9928   38.1217   -8.8554 C   0  0  0  0  0  0  0  0  0  0  0  0
 16 17  1  0
 17 15  1  0
 15 12  1  0
 12 13  1  0
 12 14  1  0
 12 11  1  0
  6 11  1  0
  6  7  1  0
  7  8  1  0
  8  9  1  0
  8 10  1  0
  6  2  1  0
  2  3  1  0
  3  4  2  0
  3  1  1  0
  1 37  1  0
 37 38  1  0
 38 39  1  0
 38 40  1  0
  1 18  1  0
 18 20  1  0
 20 21  2  0
 20 22  1  0
 20 24  1  0
 24 25  1  0
 25 26  1  0
 26 27  2  0
 26 29  1  0
 29 30  1  0
 30 31  1  0
 31 32  2  0
 32 33  1  0
 33 34  2  0
 34 35  1  0
 35 36  2  0
 36 31  1  0
  2  5  1  0
 18 19  1  0
 22 23  1  0
 25 28  1  0
M  END
> <minimizedAffinity>
-7.43053

> <CNNscore>
0.2905496359

> <CNNaffinity>
6.9248237610

> <CNN_VS>
2.0120050907

> <CNNaffinity_variance>
0.1392338723

$$$$
