


 25 26  0  0  0  0  0  0  0  0999 V2000
   19.3685    9.0567    4.8074 C   0  0  0  0  0  0  0  0  0  0  0  0
   20.2109    7.8965    5.4711 N   0  0  0  0  0  0  0  0  0  0  0  0
   19.3321    6.6848    5.7294 C   0  0  0  0  0  0  0  0  0  0  0  0
   21.2860    7.4138    4.4208 C   0  0  0  0  0  0  0  0  0  0  0  0
   21.0522    8.3959    6.6483 C   0  0  0  0  0  0  0  0  0  0  0  0
   22.5913    8.6292    6.5618 N   0  0  0  0  0  0  0  0  0  0  0  0
   22.7053   10.0863    6.0566 C   0  0  0  0  0  0  0  0  0  0  0  0
   23.2409    8.5951    7.9326 C   0  0  0  0  0  0  0  0  0  0  0  0
   23.2182    7.6507    5.5700 C   0  0  0  0  0  0  0  0  0  0  0  0
   24.6317    7.1117    5.7112 N   0  0  0  0  0  0  0  0  0  0  0  0
   25.0571    6.0164    4.7386 C   0  0  0  0  0  0  0  0  0  0  0  0
   25.0162    6.6930    7.1432 C   0  0  0  0  0  0  0  0  0  0  0  0
   25.5882    8.3230    5.3996 C   0  0  0  0  0  0  0  0  0  0  0  0
   17.9734    8.6983    4.2470 C   0  0  0  0  0  0  0  0  0  0  0  0
   14.1841    9.3773    8.0550 C   0  0  0  0  0  0  0  0  0  0  0  0
   15.1367    8.3545    8.0320 C   0  0  0  0  0  0  0  0  0  0  0  0
   16.0998    8.2784    7.0089 C   0  0  0  0  0  0  0  0  0  0  0  0
   16.0970    9.2566    5.9966 C   0  0  0  0  0  0  0  0  0  0  0  0
   16.8602    9.5180    4.8105 C   0  0  0  0  0  0  0  0  0  0  0  0
   16.3678   10.7126    4.3164 C   0  0  0  0  0  0  0  0  0  0  0  0
   15.2965   11.1277    5.0309 O   0  0  0  0  0  0  0  0  0  0  0  0
   15.1392   10.2613    6.0650 C   0  0  0  0  0  0  0  0  0  0  0  0
   14.1661   10.3538    7.0537 C   0  0  0  0  0  0  0  0  0  0  0  0
   13.5252    9.1758   10.3366 C   0  0  0  0  0  0  0  0  0  0  0  0
   13.2015    9.5251    8.9950 O   0  0  0  0  0  0  0  0  0  0  0  0
 24 25  1  0
 25 15  1  0
 15 16  2  0
 16 17  1  0
 17 18  2  0
 18 19  1  0
 19 14  1  0
 14  1  1  0
  1  2  1  0
  2  3  1  0
  2  4  1  0
  2  5  1  0
  5  6  1  0
  6  7  1  0
  6  8  1  0
  6  9  1  0
  9 10  1  0
 10 11  1  0
 10 12  1  0
 10 13  1  0
 19 20  2  0
 20 21  1  0
 21 22  1  0
 22 23  2  0
 23 15  1  0
 22 18  1  0
M  CHG 1   2   1
M  CHG 1   6   1
M  CHG 1  10   1
M  END
> <minimizedAffinity>
-5.42020

> <CNNscore>
0.2640999556

> <CNNaffinity>
4.4867682457

> <CNN_VS>
1.1849552393

> <CNNaffinity_variance>
1.0006355047

$$$$



 25 26  0  0  0  0  0  0  0  0999 V2000
   16.3562   10.4143    1.9036 C   0  0  0  0  0  0  0  0  0  0  0  0
   17.0189   11.5335    2.8004 N   0  0  0  0  0  0  0  0  0  0  0  0
   17.6239   12.6209    1.9294 C   0  0  0  0  0  0  0  0  0  0  0  0
   15.8708   12.2459    3.6168 C   0  0  0  0  0  0  0  0  0  0  0  0
   17.9228   10.9428    3.8852 C   0  0  0  0  0  0  0  0  0  0  0  0
   18.6280    9.5588    3.7512 N   0  0  0  0  0  0  0  0  0  0  0  0
   17.4726    8.5480    3.9389 C   0  0  0  0  0  0  0  0  0  0  0  0
   19.1704    9.3397    2.3512 C   0  0  0  0  0  0  0  0  0  0  0  0
   19.6850    9.3973    4.8424 C   0  0  0  0  0  0  0  0  0  0  0  0
   20.4261    8.0960    5.0990 N   0  0  0  0  0  0  0  0  0  0  0  0
   21.7803    8.1942    5.7942 C   0  0  0  0  0  0  0  0  0  0  0  0
   20.5561    7.1806    3.8666 C   0  0  0  0  0  0  0  0  0  0  0  0
   19.5213    7.2728    6.0904 C   0  0  0  0  0  0  0  0  0  0  0  0
   16.3420   10.6372    0.3743 C   0  0  0  0  0  0  0  0  0  0  0  0
   13.4135    9.7664   -4.0964 C   0  0  0  0  0  0  0  0  0  0  0  0
   14.8098    9.7917   -4.0335 C   0  0  0  0  0  0  0  0  0  0  0  0
   15.4808   10.0010   -2.8145 C   0  0  0  0  0  0  0  0  0  0  0  0
   14.7230   10.1842   -1.6425 C   0  0  0  0  0  0  0  0  0  0  0  0
   15.0048   10.4384   -0.2592 C   0  0  0  0  0  0  0  0  0  0  0  0
   13.7738   10.4260    0.3717 C   0  0  0  0  0  0  0  0  0  0  0  0
   12.7696   10.3094   -0.5275 O   0  0  0  0  0  0  0  0  0  0  0  0
   13.3380   10.1405   -1.7495 C   0  0  0  0  0  0  0  0  0  0  0  0
   12.6471    9.9513   -2.9410 C   0  0  0  0  0  0  0  0  0  0  0  0
   11.2612    9.4935   -5.0830 C   0  0  0  0  0  0  0  0  0  0  0  0
   12.6738    9.5869   -5.2329 O   0  0  0  0  0  0  0  0  0  0  0  0
 24 25  1  0
 25 15  1  0
 15 16  2  0
 16 17  1  0
 17 18  2  0
 18 19  1  0
 19 14  1  0
 14  1  1  0
  1  2  1  0
  2  3  1  0
  2  4  1  0
  2  5  1  0
  5  6  1  0
  6  7  1  0
  6  8  1  0
  6  9  1  0
  9 10  1  0
 10 11  1  0
 10 12  1  0
 10 13  1  0
 19 20  2  0
 20 21  1  0
 21 22  1  0
 22 23  2  0
 23 15  1  0
 22 18  1  0
M  CHG 1   2   1
M  CHG 1   6   1
M  CHG 1  10   1
M  END
> <minimizedAffinity>
-6.59204

> <CNNscore>
0.1926377565

> <CNNaffinity>
4.6540093422

> <CNN_VS>
0.8965379000

> <CNNaffinity_variance>
0.8969202042

$$$$



 25 26  0  0  0  0  0  0  0  0999 V2000
   14.0540    9.1296    2.9322 C   0  0  0  0  0  0  0  0  0  0  0  0
   14.7746    9.4235    4.3072 N   0  0  0  0  0  0  0  0  0  0  0  0
   16.1909    8.8747    4.2909 C   0  0  0  0  0  0  0  0  0  0  0  0
   14.9367   10.9875    4.4469 C   0  0  0  0  0  0  0  0  0  0  0  0
   13.9052    9.0400    5.5072 C   0  0  0  0  0  0  0  0  0  0  0  0
   14.4184    9.0678    6.9791 N   0  0  0  0  0  0  0  0  0  0  0  0
   13.8912    7.7384    7.5678 C   0  0  0  0  0  0  0  0  0  0  0  0
   15.9326    8.9995    7.0458 C   0  0  0  0  0  0  0  0  0  0  0  0
   13.8331   10.2694    7.7193 C   0  0  0  0  0  0  0  0  0  0  0  0
   13.6847   10.3262    9.2303 N   0  0  0  0  0  0  0  0  0  0  0  0
   14.9385   10.6428   10.0392 C   0  0  0  0  0  0  0  0  0  0  0  0
   12.9789    9.1048    9.8498 C   0  0  0  0  0  0  0  0  0  0  0  0
   12.7024   11.5216    9.5224 C   0  0  0  0  0  0  0  0  0  0  0  0
   13.7784   10.3291    1.9975 C   0  0  0  0  0  0  0  0  0  0  0  0
   13.8869    9.8970   -3.3991 C   0  0  0  0  0  0  0  0  0  0  0  0
   12.7326    9.9330   -2.6113 C   0  0  0  0  0  0  0  0  0  0  0  0
   12.8085   10.0740   -1.2133 C   0  0  0  0  0  0  0  0  0  0  0  0
   14.0744   10.1828   -0.6073 C   0  0  0  0  0  0  0  0  0  0  0  0
   14.5708   10.3117    0.7323 C   0  0  0  0  0  0  0  0  0  0  0  0
   15.9408   10.4515    0.6012 C   0  0  0  0  0  0  0  0  0  0  0  0
   16.3228   10.2951   -0.6873 O   0  0  0  0  0  0  0  0  0  0  0  0
   15.1944   10.1533   -1.4297 C   0  0  0  0  0  0  0  0  0  0  0  0
   15.1517    9.9995   -2.8108 C   0  0  0  0  0  0  0  0  0  0  0  0
   15.1940    9.6742   -5.3796 C   0  0  0  0  0  0  0  0  0  0  0  0
   13.9151    9.7468   -4.7584 O   0  0  0  0  0  0  0  0  0  0  0  0
 24 25  1  0
 25 15  1  0
 15 16  2  0
 16 17  1  0
 17 18  2  0
 18 19  1  0
 19 14  1  0
 14  1  1  0
  1  2  1  0
  2  3  1  0
  2  4  1  0
  2  5  1  0
  5  6  1  0
  6  7  1  0
  6  8  1  0
  6  9  1  0
  9 10  1  0
 10 11  1  0
 10 12  1  0
 10 13  1  0
 19 20  2  0
 20 21  1  0
 21 22  1  0
 22 23  2  0
 23 15  1  0
 22 18  1  0
M  CHG 1   2   1
M  CHG 1   6   1
M  CHG 1  10   1
M  END
> <minimizedAffinity>
-7.94582

> <CNNscore>
0.1577700377

> <CNNaffinity>
4.3795571327

> <CNN_VS>
0.6909629107

> <CNNaffinity_variance>
2.9464027882

$$$$



 25 26  0  0  0  0  0  0  0  0999 V2000
   16.4329   10.1861    1.8076 C   0  0  0  0  0  0  0  0  0  0  0  0
   17.2380   11.0334    2.8707 N   0  0  0  0  0  0  0  0  0  0  0  0
   18.6569   10.5077    3.0024 C   0  0  0  0  0  0  0  0  0  0  0  0
   17.3892   12.5011    2.3094 C   0  0  0  0  0  0  0  0  0  0  0  0
   16.4536   11.2214    4.1716 C   0  0  0  0  0  0  0  0  0  0  0  0
   15.9036   10.0334    5.0183 N   0  0  0  0  0  0  0  0  0  0  0  0
   15.3695    9.0496    3.9512 C   0  0  0  0  0  0  0  0  0  0  0  0
   17.0145    9.3095    5.7558 C   0  0  0  0  0  0  0  0  0  0  0  0
   14.7809   10.5148    5.9359 C   0  0  0  0  0  0  0  0  0  0  0  0
   14.3117    9.7404    7.1560 N   0  0  0  0  0  0  0  0  0  0  0  0
   13.5338   10.5168    8.2137 C   0  0  0  0  0  0  0  0  0  0  0  0
   15.4094    8.9080    7.8458 C   0  0  0  0  0  0  0  0  0  0  0  0
   13.2980    8.6621    6.6187 C   0  0  0  0  0  0  0  0  0  0  0  0
   16.2875   10.7735    0.3855 C   0  0  0  0  0  0  0  0  0  0  0  0
   13.4170    9.7399   -4.0882 C   0  0  0  0  0  0  0  0  0  0  0  0
   14.8105    9.8277   -4.0209 C   0  0  0  0  0  0  0  0  0  0  0  0
   15.4671   10.0757   -2.8013 C   0  0  0  0  0  0  0  0  0  0  0  0
   14.6976   10.2339   -1.6332 C   0  0  0  0  0  0  0  0  0  0  0  0
   14.9628   10.5107   -0.2509 C   0  0  0  0  0  0  0  0  0  0  0  0
   13.7312   10.4482    0.3759 C   0  0  0  0  0  0  0  0  0  0  0  0
   12.7365   10.2804   -0.5257 O   0  0  0  0  0  0  0  0  0  0  0  0
   13.3163   10.1278   -1.7445 C   0  0  0  0  0  0  0  0  0  0  0  0
   12.6389    9.8992   -2.9368 C   0  0  0  0  0  0  0  0  0  0  0  0
   11.2720    9.5139   -5.1021 C   0  0  0  0  0  0  0  0  0  0  0  0
   12.6902    9.5192   -5.2257 O   0  0  0  0  0  0  0  0  0  0  0  0
 24 25  1  0
 25 15  1  0
 15 16  2  0
 16 17  1  0
 17 18  2  0
 18 19  1  0
 19 14  1  0
 14  1  1  0
  1  2  1  0
  2  3  1  0
  2  4  1  0
  2  5  1  0
  5  6  1  0
  6  7  1  0
  6  8  1  0
  6  9  1  0
  9 10  1  0
 10 11  1  0
 10 12  1  0
 10 13  1  0
 19 20  2  0
 20 21  1  0
 21 22  1  0
 22 23  2  0
 23 15  1  0
 22 18  1  0
M  CHG 1   2   1
M  CHG 1   6   1
M  CHG 1  10   1
M  END
> <minimizedAffinity>
-7.67221

> <CNNscore>
0.1472978741

> <CNNaffinity>
4.4520668983

> <CNN_VS>
0.6557800174

> <CNNaffinity_variance>
1.7188485861

$$$$



 25 26  0  0  0  0  0  0  0  0999 V2000
   15.9544    9.9531    1.8363 C   0  0  0  0  0  0  0  0  0  0  0  0
   14.7457    9.4943    2.7444 N   0  0  0  0  0  0  0  0  0  0  0  0
   13.7357   10.6194    2.8903 C   0  0  0  0  0  0  0  0  0  0  0  0
   13.9776    8.3421    1.9863 C   0  0  0  0  0  0  0  0  0  0  0  0
   15.2179    8.8257    4.0379 C   0  0  0  0  0  0  0  0  0  0  0  0
   16.1787    9.5132    5.0550 N   0  0  0  0  0  0  0  0  0  0  0  0
   17.5766    9.0132    4.6221 C   0  0  0  0  0  0  0  0  0  0  0  0
   16.1878   11.0210    4.8858 C   0  0  0  0  0  0  0  0  0  0  0  0
   15.8488    9.0654    6.4780 C   0  0  0  0  0  0  0  0  0  0  0  0
   14.4490    9.1213    7.0661 N   0  0  0  0  0  0  0  0  0  0  0  0
   13.2927    8.7553    6.1412 C   0  0  0  0  0  0  0  0  0  0  0  0
   14.1147   10.4358    7.7970 C   0  0  0  0  0  0  0  0  0  0  0  0
   14.4160    8.0342    8.2047 C   0  0  0  0  0  0  0  0  0  0  0  0
   15.6964   11.0899    0.8215 C   0  0  0  0  0  0  0  0  0  0  0  0
   12.9561    9.5507   -3.5880 C   0  0  0  0  0  0  0  0  0  0  0  0
   12.3846    9.9859   -2.3887 C   0  0  0  0  0  0  0  0  0  0  0  0
   13.1852   10.3908   -1.3046 C   0  0  0  0  0  0  0  0  0  0  0  0
   14.5857   10.3560   -1.4417 C   0  0  0  0  0  0  0  0  0  0  0  0
   15.7133   10.6501   -0.6051 C   0  0  0  0  0  0  0  0  0  0  0  0
   16.8222   10.4726   -1.4128 C   0  0  0  0  0  0  0  0  0  0  0  0
   16.4673    9.9803   -2.6220 O   0  0  0  0  0  0  0  0  0  0  0  0
   15.1105    9.9271   -2.6550 C   0  0  0  0  0  0  0  0  0  0  0  0
   14.3461    9.5065   -3.7374 C   0  0  0  0  0  0  0  0  0  0  0  0
   10.8783    9.4449   -4.7506 C   0  0  0  0  0  0  0  0  0  0  0  0
   12.2636    9.1233   -4.6874 O   0  0  0  0  0  0  0  0  0  0  0  0
 24 25  1  0
 25 15  1  0
 15 16  2  0
 16 17  1  0
 17 18  2  0
 18 19  1  0
 19 14  1  0
 14  1  1  0
  1  2  1  0
  2  3  1  0
  2  4  1  0
  2  5  1  0
  5  6  1  0
  6  7  1  0
  6  8  1  0
  6  9  1  0
  9 10  1  0
 10 11  1  0
 10 12  1  0
 10 13  1  0
 19 20  2  0
 20 21  1  0
 21 22  1  0
 22 23  2  0
 23 15  1  0
 22 18  1  0
M  CHG 1   2   1
M  CHG 1   6   1
M  CHG 1  10   1
M  END
> <minimizedAffinity>
-7.06906

> <CNNscore>
0.0990741402

> <CNNaffinity>
4.3650565147

> <CNN_VS>
0.4324642122

> <CNNaffinity_variance>
1.8920097351

$$$$



 25 26  0  0  0  0  0  0  0  0999 V2000
   14.1592   10.2481    1.5017 C   0  0  0  0  0  0  0  0  0  0  0  0
   14.1445    8.9788    2.4423 N   0  0  0  0  0  0  0  0  0  0  0  0
   12.8532    8.9257    3.2403 C   0  0  0  0  0  0  0  0  0  0  0  0
   14.1194    7.6940    1.5254 C   0  0  0  0  0  0  0  0  0  0  0  0
   15.4459    8.8337    3.2349 C   0  0  0  0  0  0  0  0  0  0  0  0
   15.8089    9.7327    4.4558 N   0  0  0  0  0  0  0  0  0  0  0  0
   14.6775   10.7868    4.4738 C   0  0  0  0  0  0  0  0  0  0  0  0
   15.7089    8.9692    5.7632 C   0  0  0  0  0  0  0  0  0  0  0  0
   17.1715   10.3896    4.2407 C   0  0  0  0  0  0  0  0  0  0  0  0
   18.3745    9.6495    3.6807 N   0  0  0  0  0  0  0  0  0  0  0  0
   18.6947    9.8625    2.2047 C   0  0  0  0  0  0  0  0  0  0  0  0
   18.3975    8.1404    3.9900 C   0  0  0  0  0  0  0  0  0  0  0  0
   19.6256   10.2148    4.4517 C   0  0  0  0  0  0  0  0  0  0  0  0
   15.5172   10.6805    0.9037 C   0  0  0  0  0  0  0  0  0  0  0  0
   13.1221    9.6912   -3.8510 C   0  0  0  0  0  0  0  0  0  0  0  0
   12.4597    9.9422   -2.6458 C   0  0  0  0  0  0  0  0  0  0  0  0
   13.1741   10.2150   -1.4646 C   0  0  0  0  0  0  0  0  0  0  0  0
   14.5809   10.2359   -1.5088 C   0  0  0  0  0  0  0  0  0  0  0  0
   15.6413   10.4415   -0.5648 C   0  0  0  0  0  0  0  0  0  0  0  0
   16.8055   10.4058   -1.3111 C   0  0  0  0  0  0  0  0  0  0  0  0
   16.5466   10.0753   -2.5973 O   0  0  0  0  0  0  0  0  0  0  0  0
   15.1975    9.9918   -2.7302 C   0  0  0  0  0  0  0  0  0  0  0  0
   14.5195    9.7042   -3.9094 C   0  0  0  0  0  0  0  0  0  0  0  0
   11.1026    9.5461   -5.1082 C   0  0  0  0  0  0  0  0  0  0  0  0
   12.5172    9.4011   -5.0430 O   0  0  0  0  0  0  0  0  0  0  0  0
 24 25  1  0
 25 15  1  0
 15 16  2  0
 16 17  1  0
 17 18  2  0
 18 19  1  0
 19 14  1  0
 14  1  1  0
  1  2  1  0
  2  3  1  0
  2  4  1  0
  2  5  1  0
  5  6  1  0
  6  7  1  0
  6  8  1  0
  6  9  1  0
  9 10  1  0
 10 11  1  0
 10 12  1  0
 10 13  1  0
 19 20  2  0
 20 21  1  0
 21 22  1  0
 22 23  2  0
 23 15  1  0
 22 18  1  0
M  CHG 1   2   1
M  CHG 1   6   1
M  CHG 1  10   1
M  END
> <minimizedAffinity>
-6.84034

> <CNNscore>
0.0883501992

> <CNNaffinity>
4.4744305611

> <CNN_VS>
0.3953168392

> <CNNaffinity_variance>
1.4077290297

$$$$



 25 26  0  0  0  0  0  0  0  0999 V2000
   16.7050    9.9503    2.1094 C   0  0  0  0  0  0  0  0  0  0  0  0
   16.9528   10.2980    3.6306 N   0  0  0  0  0  0  0  0  0  0  0  0
   18.4366   10.2458    3.9511 C   0  0  0  0  0  0  0  0  0  0  0  0
   16.5306   11.8016    3.8609 C   0  0  0  0  0  0  0  0  0  0  0  0
   16.0233    9.5136    4.5599 C   0  0  0  0  0  0  0  0  0  0  0  0
   14.4931    9.3565    4.3060 N   0  0  0  0  0  0  0  0  0  0  0  0
   14.0104   10.8129    4.1121 C   0  0  0  0  0  0  0  0  0  0  0  0
   14.2130    8.6314    3.0030 C   0  0  0  0  0  0  0  0  0  0  0  0
   13.8213    8.7091    5.5159 C   0  0  0  0  0  0  0  0  0  0  0  0
   14.2867    8.9302    6.9452 N   0  0  0  0  0  0  0  0  0  0  0  0
   13.8880    7.8783    7.9753 C   0  0  0  0  0  0  0  0  0  0  0  0
   13.9790   10.3308    7.5084 C   0  0  0  0  0  0  0  0  0  0  0  0
   15.8597    8.8758    6.8997 C   0  0  0  0  0  0  0  0  0  0  0  0
   15.9836   11.0065    1.2418 C   0  0  0  0  0  0  0  0  0  0  0  0
   13.3235    9.8754   -3.3371 C   0  0  0  0  0  0  0  0  0  0  0  0
   12.7304   10.1624   -2.1042 C   0  0  0  0  0  0  0  0  0  0  0  0
   13.5104   10.4704   -0.9743 C   0  0  0  0  0  0  0  0  0  0  0  0
   14.9124   10.4900   -1.0991 C   0  0  0  0  0  0  0  0  0  0  0  0
   16.0244   10.7237   -0.2236 C   0  0  0  0  0  0  0  0  0  0  0  0
   17.1442   10.6658   -1.0336 C   0  0  0  0  0  0  0  0  0  0  0  0
   16.8132   10.2969   -2.2925 O   0  0  0  0  0  0  0  0  0  0  0  0
   15.4588   10.2095   -2.3458 C   0  0  0  0  0  0  0  0  0  0  0  0
   14.7154    9.8867   -3.4754 C   0  0  0  0  0  0  0  0  0  0  0  0
   11.2811    9.1893   -4.3559 C   0  0  0  0  0  0  0  0  0  0  0  0
   12.6523    9.5498   -4.4836 O   0  0  0  0  0  0  0  0  0  0  0  0
 24 25  1  0
 25 15  1  0
 15 16  2  0
 16 17  1  0
 17 18  2  0
 18 19  1  0
 19 14  1  0
 14  1  1  0
  1  2  1  0
  2  3  1  0
  2  4  1  0
  2  5  1  0
  5  6  1  0
  6  7  1  0
  6  8  1  0
  6  9  1  0
  9 10  1  0
 10 11  1  0
 10 12  1  0
 10 13  1  0
 19 20  2  0
 20 21  1  0
 21 22  1  0
 22 23  2  0
 23 15  1  0
 22 18  1  0
M  CHG 1   2   1
M  CHG 1   6   1
M  CHG 1  10   1
M  END
> <minimizedAffinity>
-7.26609

> <CNNscore>
0.0837313607

> <CNNaffinity>
4.2134242058

> <CNN_VS>
0.3527957499

> <CNNaffinity_variance>
1.8658390045

$$$$



 25 26  0  0  0  0  0  0  0  0999 V2000
   17.8931    7.9989    4.2392 C   0  0  0  0  0  0  0  0  0  0  0  0
   16.8689    9.1979    4.3362 N   0  0  0  0  0  0  0  0  0  0  0  0
   17.5911   10.5253    4.1825 C   0  0  0  0  0  0  0  0  0  0  0  0
   15.8961    9.1082    3.0961 C   0  0  0  0  0  0  0  0  0  0  0  0
   15.9345    9.0619    5.5409 C   0  0  0  0  0  0  0  0  0  0  0  0
   14.5777    9.8202    5.6612 N   0  0  0  0  0  0  0  0  0  0  0  0
   14.7390   11.0022    4.6770 C   0  0  0  0  0  0  0  0  0  0  0  0
   13.4210    8.9840    5.1463 C   0  0  0  0  0  0  0  0  0  0  0  0
   14.3761   10.3173    7.0918 C   0  0  0  0  0  0  0  0  0  0  0  0
   13.9917    9.4053    8.2447 N   0  0  0  0  0  0  0  0  0  0  0  0
   12.7740    8.5089    8.0440 C   0  0  0  0  0  0  0  0  0  0  0  0
   13.8792   10.1123    9.6089 C   0  0  0  0  0  0  0  0  0  0  0  0
   15.1992    8.4119    8.4297 C   0  0  0  0  0  0  0  0  0  0  0  0
   19.2244    8.2526    3.4963 C   0  0  0  0  0  0  0  0  0  0  0  0
   23.5103    5.2079    4.7935 C   0  0  0  0  0  0  0  0  0  0  0  0
   22.6201    4.9513    3.7467 C   0  0  0  0  0  0  0  0  0  0  0  0
   21.5475    5.8200    3.4726 C   0  0  0  0  0  0  0  0  0  0  0  0
   21.3786    6.9669    4.2711 C   0  0  0  0  0  0  0  0  0  0  0  0
   20.4411    8.0505    4.3377 C   0  0  0  0  0  0  0  0  0  0  0  0
   20.9232    8.8892    5.3264 C   0  0  0  0  0  0  0  0  0  0  0  0
   21.9978    8.3446    5.9424 O   0  0  0  0  0  0  0  0  0  0  0  0
   22.2934    7.1885    5.2936 C   0  0  0  0  0  0  0  0  0  0  0  0
   23.3527    6.3411    5.5982 C   0  0  0  0  0  0  0  0  0  0  0  0
   24.2719    3.1565    5.7378 C   0  0  0  0  0  0  0  0  0  0  0  0
   24.5689    4.4169    5.1463 O   0  0  0  0  0  0  0  0  0  0  0  0
 24 25  1  0
 25 15  1  0
 15 16  2  0
 16 17  1  0
 17 18  2  0
 18 19  1  0
 19 14  1  0
 14  1  1  0
  1  2  1  0
  2  3  1  0
  2  4  1  0
  2  5  1  0
  5  6  1  0
  6  7  1  0
  6  8  1  0
  6  9  1  0
  9 10  1  0
 10 11  1  0
 10 12  1  0
 10 13  1  0
 19 20  2  0
 20 21  1  0
 21 22  1  0
 22 23  2  0
 23 15  1  0
 22 18  1  0
M  CHG 1   2   1
M  CHG 1   6   1
M  CHG 1  10   1
M  END
> <minimizedAffinity>
-4.73176

> <CNNscore>
0.0784286633

> <CNNaffinity>
4.0566754341

> <CNN_VS>
0.3181596398

> <CNNaffinity_variance>
1.4577187300

$$$$



 25 26  0  0  0  0  0  0  0  0999 V2000
   18.1095    8.4671    3.9439 C   0  0  0  0  0  0  0  0  0  0  0  0
   16.8878    9.4686    3.9183 N   0  0  0  0  0  0  0  0  0  0  0  0
   17.3360   10.8389    3.4404 C   0  0  0  0  0  0  0  0  0  0  0  0
   15.8659    8.9616    2.8270 C   0  0  0  0  0  0  0  0  0  0  0  0
   16.0808    9.4267    5.2183 C   0  0  0  0  0  0  0  0  0  0  0  0
   14.6001    9.9035    5.3219 N   0  0  0  0  0  0  0  0  0  0  0  0
   14.5448   11.1132    4.3599 C   0  0  0  0  0  0  0  0  0  0  0  0
   13.6382    8.8681    4.7697 C   0  0  0  0  0  0  0  0  0  0  0  0
   14.2802   10.3238    6.7555 C   0  0  0  0  0  0  0  0  0  0  0  0
   14.3787    9.3804    7.9424 N   0  0  0  0  0  0  0  0  0  0  0  0
   14.6581   10.0063    9.3050 C   0  0  0  0  0  0  0  0  0  0  0  0
   15.3273    8.1847    7.7316 C   0  0  0  0  0  0  0  0  0  0  0  0
   12.9577    8.7176    8.0855 C   0  0  0  0  0  0  0  0  0  0  0  0
   18.9870    8.4405    5.2160 C   0  0  0  0  0  0  0  0  0  0  0  0
   24.2195    8.0644    6.5577 C   0  0  0  0  0  0  0  0  0  0  0  0
   23.2859    8.9108    7.1627 C   0  0  0  0  0  0  0  0  0  0  0  0
   21.9380    8.9167    6.7585 C   0  0  0  0  0  0  0  0  0  0  0  0
   21.5323    8.0486    5.7273 C   0  0  0  0  0  0  0  0  0  0  0  0
   20.3088    7.7714    5.0317 C   0  0  0  0  0  0  0  0  0  0  0  0
   20.6052    6.7260    4.1757 C   0  0  0  0  0  0  0  0  0  0  0  0
   21.9258    6.4334    4.2071 O   0  0  0  0  0  0  0  0  0  0  0  0
   22.4913    7.2167    5.1618 C   0  0  0  0  0  0  0  0  0  0  0  0
   23.8322    7.1995    5.5289 C   0  0  0  0  0  0  0  0  0  0  0  0
   26.2836    9.2187    6.8530 C   0  0  0  0  0  0  0  0  0  0  0  0
   25.5498    7.9990    6.8693 O   0  0  0  0  0  0  0  0  0  0  0  0
 24 25  1  0
 25 15  1  0
 15 16  2  0
 16 17  1  0
 17 18  2  0
 18 19  1  0
 19 14  1  0
 14  1  1  0
  1  2  1  0
  2  3  1  0
  2  4  1  0
  2  5  1  0
  5  6  1  0
  6  7  1  0
  6  8  1  0
  6  9  1  0
  9 10  1  0
 10 11  1  0
 10 12  1  0
 10 13  1  0
 19 20  2  0
 20 21  1  0
 21 22  1  0
 22 23  2  0
 23 15  1  0
 22 18  1  0
M  CHG 1   2   1
M  CHG 1   6   1
M  CHG 1  10   1
M  END
> <minimizedAffinity>
-6.22291

> <CNNscore>
0.0779544786

> <CNNaffinity>
4.0328755379

> <CNN_VS>
0.3143807054

> <CNNaffinity_variance>
1.7094386816

$$$$
