


 26 26  0  0  0  0  0  0  0  0999 V2000
   79.9327    4.7684   32.5595 C   0  0  0  0  0  0  0  0  0  0  0  0
   80.5228    5.6644   33.6463 C   0  0  0  0  0  0  0  0  0  0  0  0
   79.5922    6.8540   33.9746 C   0  0  0  0  0  0  0  0  0  0  0  0
   80.3818    8.0113   34.5969 C   0  0  0  0  0  0  0  0  0  0  0  0
   81.5013    8.5148   33.6639 C   0  0  0  0  0  0  0  0  0  0  0  0
   81.8788    7.4647   32.6103 C   0  0  0  0  0  0  0  0  0  0  0  0
   81.8771    6.1327   33.2737 N   0  0  0  0  0  0  0  0  0  0  0  0
   82.9305    5.4535   33.8886 C   0  0  0  0  0  0  0  0  0  0  0  0
   82.7618    4.3514   34.4192 O   0  0  0  0  0  0  0  0  0  0  0  0
   83.1000    7.7984   31.7238 C   0  0  0  0  0  0  0  0  0  0  0  0
   83.1622    7.2599   30.2387 C   0  0  0  0  0  0  0  0  0  0  0  0
   84.1668    6.0910   30.2749 C   0  0  0  0  0  0  0  0  0  0  0  0
   83.7428    8.3529   29.3180 C   0  0  0  0  0  0  0  0  0  0  0  0
   81.7297    6.8250   29.7801 C   0  0  0  0  0  0  0  0  0  0  0  0
   80.8194    7.6190   28.7588 C   0  0  0  0  0  0  0  0  0  0  0  0
   81.2969    7.3332   27.3188 C   0  0  0  0  0  0  0  0  0  0  0  0
   80.8533    9.1250   29.0109 C   0  0  0  0  0  0  0  0  0  0  0  0
   79.3686    7.0162   28.9486 C   0  0  0  0  0  0  0  0  0  0  0  0
   78.0957    7.4919   28.1741 C   0  0  0  0  0  0  0  0  0  0  0  0
   77.7069    6.5168   27.0454 C   0  0  0  0  0  0  0  0  0  0  0  0
   76.8779    7.7593   29.0642 C   0  0  0  0  0  0  0  0  0  0  0  0
   78.4678    8.8328   27.4890 C   0  0  0  0  0  0  0  0  0  0  0  0
   84.3036    6.0917   33.9151 C   0  0  0  0  0  0  0  0  0  0  0  0
   85.1640    5.5018   35.0289 C   0  0  0  0  0  0  0  0  0  0  0  0
   86.9260    5.8393   34.7189 S   0  0  0  0  0  0  0  0  0  0  0  0
   87.2954    5.2724   33.5392 H   0  0  0  0  0  0  0  0  0  0  0  0
  2  1  1  0
  2  3  1  0
  3  4  1  0
  4  5  1  0
  5  6  1  0
  6 10  1  0
 10 11  1  0
 11 12  1  0
 11 13  1  0
 11 14  1  0
 14 15  1  0
 15 16  1  0
 15 17  1  0
 15 18  1  0
 18 19  1  0
 19 20  1  0
 19 21  1  0
 19 22  1  0
  6  7  1  0
  7  8  1  0
  8  9  2  0
  8 23  1  0
 23 24  1  0
 24 25  1  0
  7  2  1  0
 25 26  1  0
M  END
> <minimizedAffinity>
-5.59542

> <CNNscore>
0.4554921389

> <CNNaffinity>
5.1881012917

> <CNN_VS>
2.3631393909

> <CNNaffinity_variance>
0.1812639087

$$$$



 26 26  0  0  0  0  0  0  0  0999 V2000
   79.9601    7.8225   35.1904 C   0  0  0  0  0  0  0  0  0  0  0  0
   80.2121    6.5739   34.3479 C   0  0  0  0  0  0  0  0  0  0  0  0
   81.4095    5.7554   34.8821 C   0  0  0  0  0  0  0  0  0  0  0  0
   82.0073    4.8755   33.7783 C   0  0  0  0  0  0  0  0  0  0  0  0
   82.4883    5.7077   32.5728 C   0  0  0  0  0  0  0  0  0  0  0  0
   81.8250    7.0911   32.5356 C   0  0  0  0  0  0  0  0  0  0  0  0
   80.3976    6.9224   32.9209 N   0  0  0  0  0  0  0  0  0  0  0  0
   79.2854    6.7018   32.1062 C   0  0  0  0  0  0  0  0  0  0  0  0
   78.1562    6.5597   32.5850 O   0  0  0  0  0  0  0  0  0  0  0  0
   82.1102    7.9493   31.2824 C   0  0  0  0  0  0  0  0  0  0  0  0
   83.2485    7.5139   30.2755 C   0  0  0  0  0  0  0  0  0  0  0  0
   84.3166    6.8239   31.1476 C   0  0  0  0  0  0  0  0  0  0  0  0
   83.8899    8.7689   29.6485 C   0  0  0  0  0  0  0  0  0  0  0  0
   82.6454    6.5703   29.1813 C   0  0  0  0  0  0  0  0  0  0  0  0
   81.9629    7.0520   27.8380 C   0  0  0  0  0  0  0  0  0  0  0  0
   83.0321    7.1545   26.7292 C   0  0  0  0  0  0  0  0  0  0  0  0
   81.2725    8.4048   27.9985 C   0  0  0  0  0  0  0  0  0  0  0  0
   80.9415    5.9031   27.4626 C   0  0  0  0  0  0  0  0  0  0  0  0
   80.0513    5.8850   26.1766 C   0  0  0  0  0  0  0  0  0  0  0  0
   79.4684    7.2755   25.8566 C   0  0  0  0  0  0  0  0  0  0  0  0
   80.7481    5.3216   24.9340 C   0  0  0  0  0  0  0  0  0  0  0  0
   78.8439    4.9615   26.4850 C   0  0  0  0  0  0  0  0  0  0  0  0
   79.4748    6.6225   30.6058 C   0  0  0  0  0  0  0  0  0  0  0  0
   78.1516    6.3462   29.8974 C   0  0  0  0  0  0  0  0  0  0  0  0
   77.5418    7.8530   29.0772 S   0  0  0  0  0  0  0  0  0  0  0  0
   77.3413    8.8254   30.0066 H   0  0  0  0  0  0  0  0  0  0  0  0
  2  1  1  0
  2  3  1  0
  3  4  1  0
  4  5  1  0
  5  6  1  0
  6 10  1  0
 10 11  1  0
 11 12  1  0
 11 13  1  0
 11 14  1  0
 14 15  1  0
 15 16  1  0
 15 17  1  0
 15 18  1  0
 18 19  1  0
 19 20  1  0
 19 21  1  0
 19 22  1  0
  6  7  1  0
  7  8  1  0
  8  9  2  0
  8 23  1  0
 23 24  1  0
 24 25  1  0
  7  2  1  0
 25 26  1  0
M  END
> <minimizedAffinity>
-5.51749

> <CNNscore>
0.3987732232

> <CNNaffinity>
5.2168750763

> <CNN_VS>
2.0803501606

> <CNNaffinity_variance>
0.4102157652

$$$$



 26 26  0  0  0  0  0  0  0  0999 V2000
   81.0775    5.5027   36.7204 C   0  0  0  0  0  0  0  0  0  0  0  0
   82.2250    6.4093   37.1602 C   0  0  0  0  0  0  0  0  0  0  0  0
   81.7425    7.8526   37.4306 C   0  0  0  0  0  0  0  0  0  0  0  0
   82.9010    8.8491   37.3086 C   0  0  0  0  0  0  0  0  0  0  0  0
   83.5525    8.8097   35.9118 C   0  0  0  0  0  0  0  0  0  0  0  0
   83.2474    7.4964   35.1787 C   0  0  0  0  0  0  0  0  0  0  0  0
   83.3273    6.3911   36.1718 N   0  0  0  0  0  0  0  0  0  0  0  0
   84.4201    5.5929   36.5154 C   0  0  0  0  0  0  0  0  0  0  0  0
   84.3308    4.7211   37.3852 O   0  0  0  0  0  0  0  0  0  0  0  0
   83.9820    7.2796   33.8364 C   0  0  0  0  0  0  0  0  0  0  0  0
   83.1551    6.9147   32.5393 C   0  0  0  0  0  0  0  0  0  0  0  0
   84.2092    6.5129   31.4883 C   0  0  0  0  0  0  0  0  0  0  0  0
   82.4274    8.1722   32.0211 C   0  0  0  0  0  0  0  0  0  0  0  0
   82.1466    5.7634   32.8693 C   0  0  0  0  0  0  0  0  0  0  0  0
   80.6163    5.7497   32.4690 C   0  0  0  0  0  0  0  0  0  0  0  0
   79.8996    6.9371   33.1470 C   0  0  0  0  0  0  0  0  0  0  0  0
   79.9287    4.4479   32.8754 C   0  0  0  0  0  0  0  0  0  0  0  0
   80.6009    5.9669   30.9016 C   0  0  0  0  0  0  0  0  0  0  0  0
   79.3142    6.2137   30.0470 C   0  0  0  0  0  0  0  0  0  0  0  0
   79.3441    5.4341   28.7177 C   0  0  0  0  0  0  0  0  0  0  0  0
   78.0021    5.9243   30.7829 C   0  0  0  0  0  0  0  0  0  0  0  0
   79.3102    7.7194   29.6747 C   0  0  0  0  0  0  0  0  0  0  0  0
   85.7439    5.8137   35.8138 C   0  0  0  0  0  0  0  0  0  0  0  0
   86.3295    4.4958   35.3149 C   0  0  0  0  0  0  0  0  0  0  0  0
   87.6977    3.9596   36.3899 S   0  0  0  0  0  0  0  0  0  0  0  0
   88.6785    4.9017   36.3791 H   0  0  0  0  0  0  0  0  0  0  0  0
  2  1  1  0
  2  3  1  0
  3  4  1  0
  4  5  1  0
  5  6  1  0
  6 10  1  0
 10 11  1  0
 11 12  1  0
 11 13  1  0
 11 14  1  0
 14 15  1  0
 15 16  1  0
 15 17  1  0
 15 18  1  0
 18 19  1  0
 19 20  1  0
 19 21  1  0
 19 22  1  0
  6  7  1  0
  7  8  1  0
  8  9  2  0
  8 23  1  0
 23 24  1  0
 24 25  1  0
  7  2  1  0
 25 26  1  0
M  END
> <minimizedAffinity>
-4.95035

> <CNNscore>
0.3891593218

> <CNNaffinity>
5.3099637032

> <CNN_VS>
2.0664219856

> <CNNaffinity_variance>
0.2238357216

$$$$



 26 26  0  0  0  0  0  0  0  0999 V2000
   82.1736    7.8580   32.0503 C   0  0  0  0  0  0  0  0  0  0  0  0
   82.1347    6.4339   32.6005 C   0  0  0  0  0  0  0  0  0  0  0  0
   80.7469    5.7825   32.4041 C   0  0  0  0  0  0  0  0  0  0  0  0
   80.5278    4.6469   33.4104 C   0  0  0  0  0  0  0  0  0  0  0  0
   80.6305    5.1386   34.8681 C   0  0  0  0  0  0  0  0  0  0  0  0
   81.3963    6.4648   34.9684 C   0  0  0  0  0  0  0  0  0  0  0  0
   82.5438    6.4009   34.0231 N   0  0  0  0  0  0  0  0  0  0  0  0
   83.8534    5.9761   34.2549 C   0  0  0  0  0  0  0  0  0  0  0  0
   84.6940    5.9622   33.3505 O   0  0  0  0  0  0  0  0  0  0  0  0
   81.6999    6.9692   36.3974 C   0  0  0  0  0  0  0  0  0  0  0  0
   81.0556    8.3202   36.9061 C   0  0  0  0  0  0  0  0  0  0  0  0
   80.5874    8.0273   38.3456 C   0  0  0  0  0  0  0  0  0  0  0  0
   79.8070    8.6463   36.0609 C   0  0  0  0  0  0  0  0  0  0  0  0
   82.1176    9.4679   36.8270 C   0  0  0  0  0  0  0  0  0  0  0  0
   81.8023   10.9794   36.4832 C   0  0  0  0  0  0  0  0  0  0  0  0
   80.5344   11.4232   37.2440 C   0  0  0  0  0  0  0  0  0  0  0  0
   81.5926   11.1953   34.9859 C   0  0  0  0  0  0  0  0  0  0  0  0
   83.0432   11.7923   37.0339 C   0  0  0  0  0  0  0  0  0  0  0  0
   83.3754   13.2750   36.6624 C   0  0  0  0  0  0  0  0  0  0  0  0
   84.0656   13.3867   35.2888 C   0  0  0  0  0  0  0  0  0  0  0  0
   82.1730   14.2230   36.7117 C   0  0  0  0  0  0  0  0  0  0  0  0
   84.4004   13.7772   37.7126 C   0  0  0  0  0  0  0  0  0  0  0  0
   84.2429    5.5109   35.6424 C   0  0  0  0  0  0  0  0  0  0  0  0
   84.1469    3.9925   35.7615 C   0  0  0  0  0  0  0  0  0  0  0  0
   85.8091    3.2537   35.8398 S   0  0  0  0  0  0  0  0  0  0  0  0
   86.4940    3.5572   34.7047 H   0  0  0  0  0  0  0  0  0  0  0  0
  2  1  1  0
  2  3  1  0
  3  4  1  0
  4  5  1  0
  5  6  1  0
  6 10  1  0
 10 11  1  0
 11 12  1  0
 11 13  1  0
 11 14  1  0
 14 15  1  0
 15 16  1  0
 15 17  1  0
 15 18  1  0
 18 19  1  0
 19 20  1  0
 19 21  1  0
 19 22  1  0
  6  7  1  0
  7  8  1  0
  8  9  2  0
  8 23  1  0
 23 24  1  0
 24 25  1  0
  7  2  1  0
 25 26  1  0
M  END
> <minimizedAffinity>
-4.88164

> <CNNscore>
0.3799734414

> <CNNaffinity>
5.3965778351

> <CNN_VS>
2.0505561829

> <CNNaffinity_variance>
0.2748413384

$$$$



 26 26  0  0  0  0  0  0  0  0999 V2000
   80.5617    4.9135   34.3514 C   0  0  0  0  0  0  0  0  0  0  0  0
   81.4916    5.6236   35.3329 C   0  0  0  0  0  0  0  0  0  0  0  0
   80.8191    6.8648   35.9622 C   0  0  0  0  0  0  0  0  0  0  0  0
   81.8701    7.8604   36.4666 C   0  0  0  0  0  0  0  0  0  0  0  0
   82.8047    8.3362   35.3365 C   0  0  0  0  0  0  0  0  0  0  0  0
   82.7971    7.3674   34.1463 C   0  0  0  0  0  0  0  0  0  0  0  0
   82.7751    5.9813   34.6873 N   0  0  0  0  0  0  0  0  0  0  0  0
   83.8447    5.1336   34.9816 C   0  0  0  0  0  0  0  0  0  0  0  0
   83.6608    4.0064   35.4511 O   0  0  0  0  0  0  0  0  0  0  0  0
   83.8187    7.6597   33.0241 C   0  0  0  0  0  0  0  0  0  0  0  0
   83.3470    8.3914   31.7045 C   0  0  0  0  0  0  0  0  0  0  0  0
   84.3127    9.5813   31.5354 C   0  0  0  0  0  0  0  0  0  0  0  0
   81.9281    8.9607   31.9098 C   0  0  0  0  0  0  0  0  0  0  0  0
   83.3939    7.3867   30.5046 C   0  0  0  0  0  0  0  0  0  0  0  0
   82.1870    6.4843   30.0237 C   0  0  0  0  0  0  0  0  0  0  0  0
   81.7140    5.5963   31.1946 C   0  0  0  0  0  0  0  0  0  0  0  0
   82.5699    5.5968   28.8413 C   0  0  0  0  0  0  0  0  0  0  0  0
   81.0348    7.5042   29.6540 C   0  0  0  0  0  0  0  0  0  0  0  0
   79.5710    7.1001   29.2793 C   0  0  0  0  0  0  0  0  0  0  0  0
   78.8084    8.2537   28.5985 C   0  0  0  0  0  0  0  0  0  0  0  0
   79.4650    5.8364   28.4198 C   0  0  0  0  0  0  0  0  0  0  0  0
   78.8344    6.8119   30.6135 C   0  0  0  0  0  0  0  0  0  0  0  0
   85.2582    5.6157   34.7310 C   0  0  0  0  0  0  0  0  0  0  0  0
   86.1265    5.4469   35.9745 C   0  0  0  0  0  0  0  0  0  0  0  0
   85.5709    6.5691   37.2962 S   0  0  0  0  0  0  0  0  0  0  0  0
   85.6704    7.8565   36.8694 H   0  0  0  0  0  0  0  0  0  0  0  0
  2  1  1  0
  2  3  1  0
  3  4  1  0
  4  5  1  0
  5  6  1  0
  6 10  1  0
 10 11  1  0
 11 12  1  0
 11 13  1  0
 11 14  1  0
 14 15  1  0
 15 16  1  0
 15 17  1  0
 15 18  1  0
 18 19  1  0
 19 20  1  0
 19 21  1  0
 19 22  1  0
  6  7  1  0
  7  8  1  0
  8  9  2  0
  8 23  1  0
 23 24  1  0
 24 25  1  0
  7  2  1  0
 25 26  1  0
M  END
> <minimizedAffinity>
-4.45243

> <CNNscore>
0.3674838543

> <CNNaffinity>
5.3614463806

> <CNN_VS>
1.9702450037

> <CNNaffinity_variance>
0.0547608435

$$$$



 26 26  0  0  0  0  0  0  0  0999 V2000
   82.5465    9.9267   30.9025 C   0  0  0  0  0  0  0  0  0  0  0  0
   82.7158    8.5352   31.5086 C   0  0  0  0  0  0  0  0  0  0  0  0
   83.6747    7.6591   30.6709 C   0  0  0  0  0  0  0  0  0  0  0  0
   83.4128    6.1692   30.9190 C   0  0  0  0  0  0  0  0  0  0  0  0
   81.9644    5.7712   30.5713 C   0  0  0  0  0  0  0  0  0  0  0  0
   81.0293    6.9880   30.5519 C   0  0  0  0  0  0  0  0  0  0  0  0
   81.4055    7.8699   31.6899 N   0  0  0  0  0  0  0  0  0  0  0  0
   80.9059    7.8872   32.9935 C   0  0  0  0  0  0  0  0  0  0  0  0
   81.3418    8.6751   33.8383 O   0  0  0  0  0  0  0  0  0  0  0  0
   79.5240    6.6869   30.3736 C   0  0  0  0  0  0  0  0  0  0  0  0
   78.7861    7.1325   29.0484 C   0  0  0  0  0  0  0  0  0  0  0  0
   79.5271    8.4012   28.5808 C   0  0  0  0  0  0  0  0  0  0  0  0
   77.3320    7.5291   29.3765 C   0  0  0  0  0  0  0  0  0  0  0  0
   78.8412    5.9683   28.0029 C   0  0  0  0  0  0  0  0  0  0  0  0
   78.9431    6.1550   26.4354 C   0  0  0  0  0  0  0  0  0  0  0  0
   77.7876    7.0573   25.9516 C   0  0  0  0  0  0  0  0  0  0  0  0
   78.8848    4.8211   25.6939 C   0  0  0  0  0  0  0  0  0  0  0  0
   80.3155    6.9071   26.2008 C   0  0  0  0  0  0  0  0  0  0  0  0
   81.7277    6.2445   26.3159 C   0  0  0  0  0  0  0  0  0  0  0  0
   81.8315    5.3119   27.5386 C   0  0  0  0  0  0  0  0  0  0  0  0
   82.1780    5.4947   25.0581 C   0  0  0  0  0  0  0  0  0  0  0  0
   82.7404    7.3953   26.5525 C   0  0  0  0  0  0  0  0  0  0  0  0
   79.8163    6.9084   33.3784 C   0  0  0  0  0  0  0  0  0  0  0  0
   80.2280    6.0733   34.5875 C   0  0  0  0  0  0  0  0  0  0  0  0
   81.5917    4.9491   34.1502 S   0  0  0  0  0  0  0  0  0  0  0  0
   81.1869    4.1088   33.1604 H   0  0  0  0  0  0  0  0  0  0  0  0
  2  1  1  0
  2  3  1  0
  3  4  1  0
  4  5  1  0
  5  6  1  0
  6 10  1  0
 10 11  1  0
 11 12  1  0
 11 13  1  0
 11 14  1  0
 14 15  1  0
 15 16  1  0
 15 17  1  0
 15 18  1  0
 18 19  1  0
 19 20  1  0
 19 21  1  0
 19 22  1  0
  6  7  1  0
  7  8  1  0
  8  9  2  0
  8 23  1  0
 23 24  1  0
 24 25  1  0
  7  2  1  0
 25 26  1  0
M  END
> <minimizedAffinity>
-5.16514

> <CNNscore>
0.3664617240

> <CNNaffinity>
5.0210342407

> <CNN_VS>
1.8400168419

> <CNNaffinity_variance>
0.4057044685

$$$$



 26 26  0  0  0  0  0  0  0  0999 V2000
   80.9813    7.2541   32.0695 C   0  0  0  0  0  0  0  0  0  0  0  0
   80.6488    6.5358   30.7635 C   0  0  0  0  0  0  0  0  0  0  0  0
   81.8565    5.7332   30.2284 C   0  0  0  0  0  0  0  0  0  0  0  0
   81.7345    5.5023   28.7178 C   0  0  0  0  0  0  0  0  0  0  0  0
   81.6489    6.8282   27.9356 C   0  0  0  0  0  0  0  0  0  0  0  0
   81.2086    7.9915   28.8346 C   0  0  0  0  0  0  0  0  0  0  0  0
   80.1460    7.4863   29.7456 N   0  0  0  0  0  0  0  0  0  0  0  0
   78.7607    7.4936   29.5726 C   0  0  0  0  0  0  0  0  0  0  0  0
   78.0046    7.0112   30.4213 O   0  0  0  0  0  0  0  0  0  0  0  0
   80.9332    9.3353   28.1227 C   0  0  0  0  0  0  0  0  0  0  0  0
   82.1219   10.3452   27.8654 C   0  0  0  0  0  0  0  0  0  0  0  0
   83.3499    9.7042   28.5424 C   0  0  0  0  0  0  0  0  0  0  0  0
   81.8298   11.6790   28.5833 C   0  0  0  0  0  0  0  0  0  0  0  0
   82.3078   10.5519   26.3246 C   0  0  0  0  0  0  0  0  0  0  0  0
   83.0305   11.7874   25.6513 C   0  0  0  0  0  0  0  0  0  0  0  0
   83.4637   11.4083   24.2189 C   0  0  0  0  0  0  0  0  0  0  0  0
   84.2551   12.2380   26.4451 C   0  0  0  0  0  0  0  0  0  0  0  0
   81.9241   12.9160   25.5721 C   0  0  0  0  0  0  0  0  0  0  0  0
   81.8267   13.9931   24.4422 C   0  0  0  0  0  0  0  0  0  0  0  0
   83.1238   14.8159   24.3137 C   0  0  0  0  0  0  0  0  0  0  0  0
   81.4339   13.4358   23.0703 C   0  0  0  0  0  0  0  0  0  0  0  0
   80.7153   14.9868   24.8702 C   0  0  0  0  0  0  0  0  0  0  0  0
   78.1785    8.0943   28.3103 C   0  0  0  0  0  0  0  0  0  0  0  0
   77.7781    7.0074   27.3167 C   0  0  0  0  0  0  0  0  0  0  0  0
   78.6256    7.2564   25.7247 S   0  0  0  0  0  0  0  0  0  0  0  0
   78.2757    8.4653   25.2092 H   0  0  0  0  0  0  0  0  0  0  0  0
  2  1  1  0
  2  3  1  0
  3  4  1  0
  4  5  1  0
  5  6  1  0
  6 10  1  0
 10 11  1  0
 11 12  1  0
 11 13  1  0
 11 14  1  0
 14 15  1  0
 15 16  1  0
 15 17  1  0
 15 18  1  0
 18 19  1  0
 19 20  1  0
 19 21  1  0
 19 22  1  0
  6  7  1  0
  7  8  1  0
  8  9  2  0
  8 23  1  0
 23 24  1  0
 24 25  1  0
  7  2  1  0
 25 26  1  0
M  END
> <minimizedAffinity>
-4.62328

> <CNNscore>
0.3599637747

> <CNNaffinity>
4.8940663338

> <CNN_VS>
1.7616865635

> <CNNaffinity_variance>
0.3394549787

$$$$



 26 26  0  0  0  0  0  0  0  0999 V2000
   81.6894    7.8291   36.5528 C   0  0  0  0  0  0  0  0  0  0  0  0
   83.1305    7.5310   36.9609 C   0  0  0  0  0  0  0  0  0  0  0  0
   83.9188    8.8256   37.2635 C   0  0  0  0  0  0  0  0  0  0  0  0
   85.4269    8.5967   37.1108 C   0  0  0  0  0  0  0  0  0  0  0  0
   85.7988    8.1235   35.6913 C   0  0  0  0  0  0  0  0  0  0  0  0
   84.5909    7.5274   34.9558 C   0  0  0  0  0  0  0  0  0  0  0  0
   83.8174    6.7153   35.9337 N   0  0  0  0  0  0  0  0  0  0  0  0
   83.9251    5.3551   36.2297 C   0  0  0  0  0  0  0  0  0  0  0  0
   83.2172    4.8273   37.0929 O   0  0  0  0  0  0  0  0  0  0  0  0
   84.8826    6.8741   33.5859 C   0  0  0  0  0  0  0  0  0  0  0  0
   84.4897    7.6321   32.2554 C   0  0  0  0  0  0  0  0  0  0  0  0
   85.8145    8.2001   31.7080 C   0  0  0  0  0  0  0  0  0  0  0  0
   83.5694    8.8231   32.5932 C   0  0  0  0  0  0  0  0  0  0  0  0
   83.7959    6.6326   31.2699 C   0  0  0  0  0  0  0  0  0  0  0  0
   82.2407    6.5598   30.9906 C   0  0  0  0  0  0  0  0  0  0  0  0
   81.9654    5.4986   29.9038 C   0  0  0  0  0  0  0  0  0  0  0  0
   81.6759    7.9041   30.5364 C   0  0  0  0  0  0  0  0  0  0  0  0
   81.6016    6.0760   32.3551 C   0  0  0  0  0  0  0  0  0  0  0  0
   80.0740    5.8358   32.5899 C   0  0  0  0  0  0  0  0  0  0  0  0
   79.5246    6.6929   33.7473 C   0  0  0  0  0  0  0  0  0  0  0  0
   79.2043    6.0361   31.3447 C   0  0  0  0  0  0  0  0  0  0  0  0
   79.9188    4.3554   33.0259 C   0  0  0  0  0  0  0  0  0  0  0  0
   84.9418    4.5166   35.4838 C   0  0  0  0  0  0  0  0  0  0  0  0
   85.5293    3.4333   36.3839 C   0  0  0  0  0  0  0  0  0  0  0  0
   87.3416    3.5871   36.4654 S   0  0  0  0  0  0  0  0  0  0  0  0
   87.8652    3.4456   35.2183 H   0  0  0  0  0  0  0  0  0  0  0  0
  2  1  1  0
  2  3  1  0
  3  4  1  0
  4  5  1  0
  5  6  1  0
  6 10  1  0
 10 11  1  0
 11 12  1  0
 11 13  1  0
 11 14  1  0
 14 15  1  0
 15 16  1  0
 15 17  1  0
 15 18  1  0
 18 19  1  0
 19 20  1  0
 19 21  1  0
 19 22  1  0
  6  7  1  0
  7  8  1  0
  8  9  2  0
  8 23  1  0
 23 24  1  0
 24 25  1  0
  7  2  1  0
 25 26  1  0
M  END
> <minimizedAffinity>
-4.71021

> <CNNscore>
0.3463943601

> <CNNaffinity>
5.2267527580

> <CNN_VS>
1.8105176687

> <CNNaffinity_variance>
0.0274511501

$$$$



 26 26  0  0  0  0  0  0  0  0999 V2000
   79.0646    5.0861   27.2519 C   0  0  0  0  0  0  0  0  0  0  0  0
   78.5790    6.3655   27.9296 C   0  0  0  0  0  0  0  0  0  0  0  0
   78.5791    7.5648   26.9546 C   0  0  0  0  0  0  0  0  0  0  0  0
   78.6539    8.8917   27.7187 C   0  0  0  0  0  0  0  0  0  0  0  0
   79.9173    8.9819   28.5979 C   0  0  0  0  0  0  0  0  0  0  0  0
   80.5077    7.5955   28.8890 C   0  0  0  0  0  0  0  0  0  0  0  0
   79.3764    6.6624   29.1413 N   0  0  0  0  0  0  0  0  0  0  0  0
   78.7675    6.3231   30.3510 C   0  0  0  0  0  0  0  0  0  0  0  0
   77.8137    5.5400   30.3929 O   0  0  0  0  0  0  0  0  0  0  0  0
   81.6816    7.5529   29.8933 C   0  0  0  0  0  0  0  0  0  0  0  0
   82.8851    6.5566   29.6520 C   0  0  0  0  0  0  0  0  0  0  0  0
   83.7825    7.2526   28.6092 C   0  0  0  0  0  0  0  0  0  0  0  0
   82.3556    5.2514   29.0230 C   0  0  0  0  0  0  0  0  0  0  0  0
   83.6175    6.2836   31.0086 C   0  0  0  0  0  0  0  0  0  0  0  0
   83.9251    7.3728   32.1136 C   0  0  0  0  0  0  0  0  0  0  0  0
   85.0992    6.8919   32.9931 C   0  0  0  0  0  0  0  0  0  0  0  0
   82.7123    7.6492   32.9998 C   0  0  0  0  0  0  0  0  0  0  0  0
   84.3787    8.6571   31.3079 C   0  0  0  0  0  0  0  0  0  0  0  0
   84.0775   10.1314   31.7347 C   0  0  0  0  0  0  0  0  0  0  0  0
   84.7855   11.1537   30.8240 C   0  0  0  0  0  0  0  0  0  0  0  0
   82.5863   10.4706   31.8256 C   0  0  0  0  0  0  0  0  0  0  0  0
   84.6781   10.3148   33.1530 C   0  0  0  0  0  0  0  0  0  0  0  0
   79.2819    6.9412   31.6342 C   0  0  0  0  0  0  0  0  0  0  0  0
   78.9857    6.0462   32.8343 C   0  0  0  0  0  0  0  0  0  0  0  0
   80.2368    4.7305   32.9713 S   0  0  0  0  0  0  0  0  0  0  0  0
   80.2173    3.9673   31.8458 H   0  0  0  0  0  0  0  0  0  0  0  0
  2  1  1  0
  2  3  1  0
  3  4  1  0
  4  5  1  0
  5  6  1  0
  6 10  1  0
 10 11  1  0
 11 12  1  0
 11 13  1  0
 11 14  1  0
 14 15  1  0
 15 16  1  0
 15 17  1  0
 15 18  1  0
 18 19  1  0
 19 20  1  0
 19 21  1  0
 19 22  1  0
  6  7  1  0
  7  8  1  0
  8  9  2  0
  8 23  1  0
 23 24  1  0
 24 25  1  0
  7  2  1  0
 25 26  1  0
M  END
> <minimizedAffinity>
-4.83212

> <CNNscore>
0.3297293484

> <CNNaffinity>
5.0857944489

> <CNN_VS>
1.6769356728

> <CNNaffinity_variance>
0.1846036911

$$$$
