


 19 20  0  0  0  0  0  0  0  0999 V2000
    2.0673    5.2292    9.2450 N   0  0  0  0  0  0  0  0  0  0  0  0
    0.7409    5.1473    9.5110 C   0  0  0  0  0  0  0  0  0  0  0  0
    0.2696    4.1455   10.1816 N   0  0  0  0  0  0  0  0  0  0  0  0
   -1.0846    4.1158   10.4262 C   0  0  0  0  0  0  0  0  0  0  0  0
   -1.9341    5.0646   10.0076 C   0  0  0  0  0  0  0  0  0  0  0  0
   -1.3883    6.1844    9.2310 C   0  0  0  0  0  0  0  0  0  0  0  0
   -2.1095    7.0680    8.7839 O   0  0  0  0  0  0  0  0  0  0  0  0
   -0.0386    6.1607    9.0499 N   0  0  0  0  0  0  0  0  0  0  0  0
    2.6764    4.5212    9.5565 H   0  0  0  0  0  0  0  0  0  0  0  0
    2.4217    5.9966    8.7402 H   0  0  0  0  0  0  0  0  0  0  0  0
    0.3881    6.9051    8.5671 H   0  0  0  0  0  0  0  0  0  0  0  0
   -1.5759    2.9355   11.2330 C   0  0  0  0  0  0  0  0  0  0  0  0
   -3.0875    2.9988   11.4754 C   0  0  0  0  0  0  0  0  0  0  0  0
   -3.7535    1.6777   11.1735 C   0  0  0  0  0  0  0  0  0  0  0  0
   -2.9856    0.5149   11.0256 C   0  0  0  0  0  0  0  0  0  0  0  0
   -3.6010   -0.7104   10.7659 C   0  0  0  0  0  0  0  0  0  0  0  0
   -4.9882   -0.7853   10.6554 C   0  0  0  0  0  0  0  0  0  0  0  0
   -5.7613    0.3647   10.8058 C   0  0  0  0  0  0  0  0  0  0  0  0
   -5.1478    1.5910   11.0658 C   0  0  0  0  0  0  0  0  0  0  0  0
  1  2  1  0
  2  3  2  0
  3  4  1  0
  4 12  1  0
 12 13  1  0
 13 14  1  0
 14 15  2  0
 15 16  1  0
 16 17  2  0
 17 18  1  0
 18 19  2  0
  4  5  2  0
  5  6  1  0
  6  7  2  0
  6  8  1  0
  8  2  1  0
 19 14  1  0
  1  9  1  0
  1 10  1  0
  8 11  1  0
M  END
> <minimizedAffinity>
-8.23849

> <CNNscore>
0.8384785056

> <CNNaffinity>
4.7045936584

> <CNN_VS>
3.9447007179

> <CNNaffinity_variance>
0.9904339910

$$$$



 19 20  0  0  0  0  0  0  0  0999 V2000
   -6.6870    1.1827    3.5809 N   0  0  0  0  0  0  0  0  0  0  0  0
   -7.0717    2.3363    2.9825 C   0  0  0  0  0  0  0  0  0  0  0  0
   -7.9292    2.3151    2.0130 N   0  0  0  0  0  0  0  0  0  0  0  0
   -8.2869    3.5167    1.4449 C   0  0  0  0  0  0  0  0  0  0  0  0
   -7.7954    4.6992    1.8414 C   0  0  0  0  0  0  0  0  0  0  0  0
   -6.8089    4.7059    2.9284 C   0  0  0  0  0  0  0  0  0  0  0  0
   -6.2890    5.7447    3.3176 O   0  0  0  0  0  0  0  0  0  0  0  0
   -6.5224    3.4846    3.4587 N   0  0  0  0  0  0  0  0  0  0  0  0
   -7.0550    0.3226    3.2742 H   0  0  0  0  0  0  0  0  0  0  0  0
   -6.0396    1.2048    4.3222 H   0  0  0  0  0  0  0  0  0  0  0  0
   -5.8942    3.4316    4.2149 H   0  0  0  0  0  0  0  0  0  0  0  0
   -9.3083    3.4343    0.3334 C   0  0  0  0  0  0  0  0  0  0  0  0
  -10.6822    2.9966    0.8513 C   0  0  0  0  0  0  0  0  0  0  0  0
  -11.7231    4.0694    0.6379 C   0  0  0  0  0  0  0  0  0  0  0  0
  -12.8348    3.8249   -0.1795 C   0  0  0  0  0  0  0  0  0  0  0  0
  -13.8077    4.8085   -0.3623 C   0  0  0  0  0  0  0  0  0  0  0  0
  -13.6806    6.0427    0.2724 C   0  0  0  0  0  0  0  0  0  0  0  0
  -12.5812    6.2939    1.0914 C   0  0  0  0  0  0  0  0  0  0  0  0
  -11.6071    5.3115    1.2757 C   0  0  0  0  0  0  0  0  0  0  0  0
  1  2  1  0
  2  3  2  0
  3  4  1  0
  4 12  1  0
 12 13  1  0
 13 14  1  0
 14 15  2  0
 15 16  1  0
 16 17  2  0
 17 18  1  0
 18 19  2  0
  4  5  2  0
  5  6  1  0
  6  7  2  0
  6  8  1  0
  8  2  1  0
 19 14  1  0
  1  9  1  0
  1 10  1  0
  8 11  1  0
M  END
> <minimizedAffinity>
-6.55984

> <CNNscore>
0.7185274959

> <CNNaffinity>
4.7660369873

> <CNN_VS>
3.4245285988

> <CNNaffinity_variance>
0.0041678366

$$$$



 19 20  0  0  0  0  0  0  0  0999 V2000
   -7.0656    2.5063    6.9747 N   0  0  0  0  0  0  0  0  0  0  0  0
   -6.4476    3.4980    6.2882 C   0  0  0  0  0  0  0  0  0  0  0  0
   -6.8209    3.7897    5.0835 N   0  0  0  0  0  0  0  0  0  0  0  0
   -6.1609    4.8086    4.4350 C   0  0  0  0  0  0  0  0  0  0  0  0
   -5.1578    5.5088    4.9834 C   0  0  0  0  0  0  0  0  0  0  0  0
   -4.7318    5.1535    6.3425 C   0  0  0  0  0  0  0  0  0  0  0  0
   -3.7979    5.7243    6.8929 O   0  0  0  0  0  0  0  0  0  0  0  0
   -5.4458    4.1541    6.9310 N   0  0  0  0  0  0  0  0  0  0  0  0
   -7.7979    1.9994    6.5550 H   0  0  0  0  0  0  0  0  0  0  0  0
   -6.7822    2.2927    7.8930 H   0  0  0  0  0  0  0  0  0  0  0  0
   -5.2283    3.8974    7.8562 H   0  0  0  0  0  0  0  0  0  0  0  0
   -6.6537    5.1213    3.0405 C   0  0  0  0  0  0  0  0  0  0  0  0
   -6.6823    3.8737    2.1515 C   0  0  0  0  0  0  0  0  0  0  0  0
   -8.0121    3.7205    1.4530 C   0  0  0  0  0  0  0  0  0  0  0  0
   -8.1332    2.8826    0.3364 C   0  0  0  0  0  0  0  0  0  0  0  0
   -9.3658    2.7247   -0.2986 C   0  0  0  0  0  0  0  0  0  0  0  0
  -10.4883    3.3990    0.1785 C   0  0  0  0  0  0  0  0  0  0  0  0
  -10.3794    4.2308    1.2916 C   0  0  0  0  0  0  0  0  0  0  0  0
   -9.1476    4.3899    1.9281 C   0  0  0  0  0  0  0  0  0  0  0  0
  1  2  1  0
  2  3  2  0
  3  4  1  0
  4 12  1  0
 12 13  1  0
 13 14  1  0
 14 15  2  0
 15 16  1  0
 16 17  2  0
 17 18  1  0
 18 19  2  0
  4  5  2  0
  5  6  1  0
  6  7  2  0
  6  8  1  0
  8  2  1  0
 19 14  1  0
  1  9  1  0
  1 10  1  0
  8 11  1  0
M  END
> <minimizedAffinity>
-5.28112

> <CNNscore>
0.4550960362

> <CNNaffinity>
4.2216415405

> <CNN_VS>
1.9212523699

> <CNNaffinity_variance>
0.0447937548

$$$$



 19 20  0  0  0  0  0  0  0  0999 V2000
   -7.2835    3.8719    6.5209 N   0  0  0  0  0  0  0  0  0  0  0  0
   -6.8177    4.2015    5.2917 C   0  0  0  0  0  0  0  0  0  0  0  0
   -7.4939    3.8924    4.2321 N   0  0  0  0  0  0  0  0  0  0  0  0
   -6.9753    4.2554    3.0099 C   0  0  0  0  0  0  0  0  0  0  0  0
   -5.8135    4.9077    2.8622 C   0  0  0  0  0  0  0  0  0  0  0  0
   -5.0478    5.2339    4.0714 C   0  0  0  0  0  0  0  0  0  0  0  0
   -3.9604    5.7951    4.0113 O   0  0  0  0  0  0  0  0  0  0  0  0
   -5.6336    4.8670    5.2449 N   0  0  0  0  0  0  0  0  0  0  0  0
   -8.1368    3.3891    6.6108 H   0  0  0  0  0  0  0  0  0  0  0  0
   -6.7686    4.1152    7.3240 H   0  0  0  0  0  0  0  0  0  0  0  0
   -5.1827    5.0923    6.0906 H   0  0  0  0  0  0  0  0  0  0  0  0
   -7.8179    3.8896    1.8092 C   0  0  0  0  0  0  0  0  0  0  0  0
   -9.1466    4.6523    1.7900 C   0  0  0  0  0  0  0  0  0  0  0  0
  -10.1560    3.9855    0.8864 C   0  0  0  0  0  0  0  0  0  0  0  0
   -9.7768    2.9082    0.0745 C   0  0  0  0  0  0  0  0  0  0  0  0
  -10.7129    2.2782   -0.7468 C   0  0  0  0  0  0  0  0  0  0  0  0
  -12.0358    2.7162   -0.7611 C   0  0  0  0  0  0  0  0  0  0  0  0
  -12.4241    3.7838    0.0465 C   0  0  0  0  0  0  0  0  0  0  0  0
  -11.4895    4.4151    0.8687 C   0  0  0  0  0  0  0  0  0  0  0  0
  1  2  1  0
  2  3  2  0
  3  4  1  0
  4 12  1  0
 12 13  1  0
 13 14  1  0
 14 15  2  0
 15 16  1  0
 16 17  2  0
 17 18  1  0
 18 19  2  0
  4  5  2  0
  5  6  1  0
  6  7  2  0
  6  8  1  0
  8  2  1  0
 19 14  1  0
  1  9  1  0
  1 10  1  0
  8 11  1  0
M  END
> <minimizedAffinity>
-5.36629

> <CNNscore>
0.4516350925

> <CNNaffinity>
4.4673972130

> <CNN_VS>
2.0176334381

> <CNNaffinity_variance>
0.0572892316

$$$$



 19 20  0  0  0  0  0  0  0  0999 V2000
   -3.1512    2.3770    6.9057 N   0  0  0  0  0  0  0  0  0  0  0  0
   -3.3831    3.5926    6.3532 C   0  0  0  0  0  0  0  0  0  0  0  0
   -4.1966    3.7115    5.3534 N   0  0  0  0  0  0  0  0  0  0  0  0
   -4.3976    4.9704    4.8345 C   0  0  0  0  0  0  0  0  0  0  0  0
   -3.7976    6.0716    5.3082 C   0  0  0  0  0  0  0  0  0  0  0  0
   -2.8623    5.9186    6.4293 C   0  0  0  0  0  0  0  0  0  0  0  0
   -2.2493    6.8743    6.8895 O   0  0  0  0  0  0  0  0  0  0  0  0
   -2.7326    4.6498    6.9068 N   0  0  0  0  0  0  0  0  0  0  0  0
   -3.5973    1.5780    6.5425 H   0  0  0  0  0  0  0  0  0  0  0  0
   -2.5367    2.2929    7.6703 H   0  0  0  0  0  0  0  0  0  0  0  0
   -2.1460    4.4925    7.6817 H   0  0  0  0  0  0  0  0  0  0  0  0
   -5.3746    5.0532    3.6838 C   0  0  0  0  0  0  0  0  0  0  0  0
   -6.6274    4.2080    3.9361 C   0  0  0  0  0  0  0  0  0  0  0  0
   -7.3803    3.9362    2.6558 C   0  0  0  0  0  0  0  0  0  0  0  0
   -8.5550    4.6413    2.3618 C   0  0  0  0  0  0  0  0  0  0  0  0
   -9.2416    4.4053    1.1699 C   0  0  0  0  0  0  0  0  0  0  0  0
   -8.7589    3.4662    0.2604 C   0  0  0  0  0  0  0  0  0  0  0  0
   -7.5886    2.7632    0.5413 C   0  0  0  0  0  0  0  0  0  0  0  0
   -6.9004    2.9979    1.7326 C   0  0  0  0  0  0  0  0  0  0  0  0
  1  2  1  0
  2  3  2  0
  3  4  1  0
  4 12  1  0
 12 13  1  0
 13 14  1  0
 14 15  2  0
 15 16  1  0
 16 17  2  0
 17 18  1  0
 18 19  2  0
  4  5  2  0
  5  6  1  0
  6  7  2  0
  6  8  1  0
  8  2  1  0
 19 14  1  0
  1  9  1  0
  1 10  1  0
  8 11  1  0
M  END
> <minimizedAffinity>
-6.31485

> <CNNscore>
0.4449617267

> <CNNaffinity>
4.3008732796

> <CNN_VS>
1.9137239456

> <CNNaffinity_variance>
0.4523032606

$$$$



 19 20  0  0  0  0  0  0  0  0999 V2000
    5.3265    6.6864   16.6376 N   0  0  0  0  0  0  0  0  0  0  0  0
    4.8525    7.8134   16.0529 C   0  0  0  0  0  0  0  0  0  0  0  0
    4.1679    7.7424   14.9565 N   0  0  0  0  0  0  0  0  0  0  0  0
    3.7077    8.9183   14.4089 C   0  0  0  0  0  0  0  0  0  0  0  0
    3.9312   10.1247   14.9490 C   0  0  0  0  0  0  0  0  0  0  0  0
    4.7261   10.1914   16.1813 C   0  0  0  0  0  0  0  0  0  0  0  0
    5.0022   11.2612   16.7106 O   0  0  0  0  0  0  0  0  0  0  0  0
    5.1259    8.9883   16.6790 N   0  0  0  0  0  0  0  0  0  0  0  0
    5.1565    5.8088   16.2250 H   0  0  0  0  0  0  0  0  0  0  0  0
    5.8410    6.7452   17.4749 H   0  0  0  0  0  0  0  0  0  0  0  0
    5.6318    8.9690   17.5234 H   0  0  0  0  0  0  0  0  0  0  0  0
    2.8951    8.7738   13.1423 C   0  0  0  0  0  0  0  0  0  0  0  0
    2.2060   10.0857   12.7528 C   0  0  0  0  0  0  0  0  0  0  0  0
    2.3202   10.3538   11.2712 C   0  0  0  0  0  0  0  0  0  0  0  0
    2.2101   11.6607   10.7775 C   0  0  0  0  0  0  0  0  0  0  0  0
    2.3348   11.9128    9.4106 C   0  0  0  0  0  0  0  0  0  0  0  0
    2.5743   10.8628    8.5262 C   0  0  0  0  0  0  0  0  0  0  0  0
    2.6904    9.5600    9.0078 C   0  0  0  0  0  0  0  0  0  0  0  0
    2.5662    9.3058   10.3745 C   0  0  0  0  0  0  0  0  0  0  0  0
  1  2  1  0
  2  3  2  0
  3  4  1  0
  4 12  1  0
 12 13  1  0
 13 14  1  0
 14 15  2  0
 15 16  1  0
 16 17  2  0
 17 18  1  0
 18 19  2  0
  4  5  2  0
  5  6  1  0
  6  7  2  0
  6  8  1  0
  8  2  1  0
 19 14  1  0
  1  9  1  0
  1 10  1  0
  8 11  1  0
M  END
> <minimizedAffinity>
-5.90443

> <CNNscore>
0.4342058599

> <CNNaffinity>
4.3783278465

> <CNN_VS>
1.9010956287

> <CNNaffinity_variance>
0.2514601648

$$$$



 19 20  0  0  0  0  0  0  0  0999 V2000
    2.0907    5.1076    9.2370 N   0  0  0  0  0  0  0  0  0  0  0  0
    0.7463    5.1109    9.4080 C   0  0  0  0  0  0  0  0  0  0  0  0
    0.0283    6.0726    8.9230 N   0  0  0  0  0  0  0  0  0  0  0  0
   -1.3326    6.0227    9.1231 C   0  0  0  0  0  0  0  0  0  0  0  0
   -1.9477    5.0360    9.7904 C   0  0  0  0  0  0  0  0  0  0  0  0
   -1.1186    3.9626   10.3519 C   0  0  0  0  0  0  0  0  0  0  0  0
   -1.6070    3.0487   11.0054 O   0  0  0  0  0  0  0  0  0  0  0  0
    0.2147    4.0645   10.0932 N   0  0  0  0  0  0  0  0  0  0  0  0
    2.5265    5.8425    8.7478 H   0  0  0  0  0  0  0  0  0  0  0  0
    2.6316    4.3705    9.6021 H   0  0  0  0  0  0  0  0  0  0  0  0
    0.8156    3.3538   10.4144 H   0  0  0  0  0  0  0  0  0  0  0  0
   -2.1233    7.1589    8.5155 C   0  0  0  0  0  0  0  0  0  0  0  0
   -2.4651    6.8950    7.0454 C   0  0  0  0  0  0  0  0  0  0  0  0
   -3.0940    8.1046    6.3963 C   0  0  0  0  0  0  0  0  0  0  0  0
   -4.4880    8.2412    6.3541 C   0  0  0  0  0  0  0  0  0  0  0  0
   -5.0706    9.3678    5.7719 C   0  0  0  0  0  0  0  0  0  0  0  0
   -4.2661   10.3688    5.2307 C   0  0  0  0  0  0  0  0  0  0  0  0
   -2.8784   10.2448    5.2721 C   0  0  0  0  0  0  0  0  0  0  0  0
   -2.2938    9.1189    5.8541 C   0  0  0  0  0  0  0  0  0  0  0  0
  1  2  1  0
  2  3  2  0
  3  4  1  0
  4 12  1  0
 12 13  1  0
 13 14  1  0
 14 15  2  0
 15 16  1  0
 16 17  2  0
 17 18  1  0
 18 19  2  0
  4  5  2  0
  5  6  1  0
  6  7  2  0
  6  8  1  0
  8  2  1  0
 19 14  1  0
  1  9  1  0
  1 10  1  0
  8 11  1  0
M  END
> <minimizedAffinity>
-7.29017

> <CNNscore>
0.4129162133

> <CNNaffinity>
4.6099529266

> <CNN_VS>
1.9035242796

> <CNNaffinity_variance>
0.2229241133

$$$$



 19 20  0  0  0  0  0  0  0  0999 V2000
   -4.6196   -0.7337    8.4695 N   0  0  0  0  0  0  0  0  0  0  0  0
   -5.7073   -0.7528    7.6613 C   0  0  0  0  0  0  0  0  0  0  0  0
   -5.8342    0.1222    6.7157 N   0  0  0  0  0  0  0  0  0  0  0  0
   -6.9570    0.0532    5.9227 C   0  0  0  0  0  0  0  0  0  0  0  0
   -7.9192   -0.8670    6.0789 C   0  0  0  0  0  0  0  0  0  0  0  0
   -7.7716   -1.8402    7.1679 C   0  0  0  0  0  0  0  0  0  0  0  0
   -8.6286   -2.6859    7.3943 O   0  0  0  0  0  0  0  0  0  0  0  0
   -6.6252   -1.7276    7.8945 N   0  0  0  0  0  0  0  0  0  0  0  0
   -3.9244   -0.0481    8.3432 H   0  0  0  0  0  0  0  0  0  0  0  0
   -4.5246   -1.4054    9.1829 H   0  0  0  0  0  0  0  0  0  0  0  0
   -6.4551   -2.3762    8.6154 H   0  0  0  0  0  0  0  0  0  0  0  0
   -7.0415    1.0846    4.8206 C   0  0  0  0  0  0  0  0  0  0  0  0
   -8.4216    1.0981    4.1552 C   0  0  0  0  0  0  0  0  0  0  0  0
   -8.4141    1.9039    2.8783 C   0  0  0  0  0  0  0  0  0  0  0  0
   -7.2160    2.4373    2.3846 C   0  0  0  0  0  0  0  0  0  0  0  0
   -7.2040    3.1658    1.1944 C   0  0  0  0  0  0  0  0  0  0  0  0
   -8.3874    3.3645    0.4856 C   0  0  0  0  0  0  0  0  0  0  0  0
   -9.5835    2.8339    0.9657 C   0  0  0  0  0  0  0  0  0  0  0  0
   -9.5975    2.1048    2.1558 C   0  0  0  0  0  0  0  0  0  0  0  0
  1  2  1  0
  2  3  2  0
  3  4  1  0
  4 12  1  0
 12 13  1  0
 13 14  1  0
 14 15  2  0
 15 16  1  0
 16 17  2  0
 17 18  1  0
 18 19  2  0
  4  5  2  0
  5  6  1  0
  6  7  2  0
  6  8  1  0
  8  2  1  0
 19 14  1  0
  1  9  1  0
  1 10  1  0
  8 11  1  0
M  END
> <minimizedAffinity>
-5.18436

> <CNNscore>
0.3827141821

> <CNNaffinity>
4.6655507088

> <CNN_VS>
1.7855724096

> <CNNaffinity_variance>
0.4067282677

$$$$



 19 20  0  0  0  0  0  0  0  0999 V2000
   -6.2352    1.0583    4.6692 N   0  0  0  0  0  0  0  0  0  0  0  0
   -7.4365    1.2271    4.0650 C   0  0  0  0  0  0  0  0  0  0  0  0
   -7.5719    2.0899    3.1095 N   0  0  0  0  0  0  0  0  0  0  0  0
   -8.8134    2.2165    2.5291 C   0  0  0  0  0  0  0  0  0  0  0  0
   -9.8820    1.4974    2.9006 C   0  0  0  0  0  0  0  0  0  0  0  0
   -9.7184    0.5372    3.9989 C   0  0  0  0  0  0  0  0  0  0  0  0
  -10.6591   -0.1271    4.4169 O   0  0  0  0  0  0  0  0  0  0  0  0
   -8.4581    0.4476    4.5075 N   0  0  0  0  0  0  0  0  0  0  0  0
   -5.4618    1.5979    4.3865 H   0  0  0  0  0  0  0  0  0  0  0  0
   -6.1358    0.3961    5.3909 H   0  0  0  0  0  0  0  0  0  0  0  0
   -8.2807   -0.2059    5.2221 H   0  0  0  0  0  0  0  0  0  0  0  0
   -8.9078    3.2217    1.4038 C   0  0  0  0  0  0  0  0  0  0  0  0
   -9.6046    2.6358    0.1714 C   0  0  0  0  0  0  0  0  0  0  0  0
  -10.9985    3.1921    0.0053 C   0  0  0  0  0  0  0  0  0  0  0  0
  -11.9426    2.5146   -0.7779 C   0  0  0  0  0  0  0  0  0  0  0  0
  -13.2372    3.0171   -0.9166 C   0  0  0  0  0  0  0  0  0  0  0  0
  -13.6006    4.1978   -0.2716 C   0  0  0  0  0  0  0  0  0  0  0  0
  -12.6703    4.8764    0.5137 C   0  0  0  0  0  0  0  0  0  0  0  0
  -11.3752    4.3755    0.6539 C   0  0  0  0  0  0  0  0  0  0  0  0
  1  2  1  0
  2  3  2  0
  3  4  1  0
  4 12  1  0
 12 13  1  0
 13 14  1  0
 14 15  2  0
 15 16  1  0
 16 17  2  0
 17 18  1  0
 18 19  2  0
  4  5  2  0
  5  6  1  0
  6  7  2  0
  6  8  1  0
  8  2  1  0
 19 14  1  0
  1  9  1  0
  1 10  1  0
  8 11  1  0
M  END
> <minimizedAffinity>
-5.54952

> <CNNscore>
0.3385344744

> <CNNaffinity>
4.6785049438

> <CNN_VS>
1.5838352442

> <CNNaffinity_variance>
0.0368493460

$$$$
