


 30 30  0  0  0  0  0  0  0  0999 V2000
   -2.8710   35.8180  100.0619 C   0  0  0  0  0  0  0  0  0  0  0  0
   -3.7814   35.8941   98.9831 C   0  0  0  0  0  0  0  0  0  0  0  0
   -5.1548   35.7051   99.1632 C   0  0  0  0  0  0  0  0  0  0  0  0
   -6.1665   35.7601   97.7681 Cl  0  0  0  0  0  0  0  0  0  0  0  0
   -5.6237   35.4544  100.4450 C   0  0  0  0  0  0  0  0  0  0  0  0
   -4.7552   35.3882  101.5418 C   0  0  0  0  0  0  0  0  0  0  0  0
   -3.3731   35.5852  101.3649 C   0  0  0  0  0  0  0  0  0  0  0  0
   -7.0326   35.2523  100.6900 N   0  0  0  0  0  0  0  0  0  0  0  0
   -7.5693   34.3027  100.1034 O   0  0  0  0  0  0  0  0  0  0  0  0
   -7.5838   36.0083  101.4998 O   0  0  0  0  0  0  0  0  0  0  0  0
   -1.3912   36.0410   99.7750 C   0  0  0  0  0  0  0  0  0  0  0  0
   -0.6496   34.8667   99.0703 C   0  0  0  0  0  0  0  0  0  0  0  0
    0.7280   34.7489   99.5534 N   0  0  0  0  0  0  0  0  0  0  0  0
    1.2346   35.6105   99.3497 H   0  0  0  0  0  0  0  0  0  0  0  0
    1.1863   33.9664   99.0864 H   0  0  0  0  0  0  0  0  0  0  0  0
   -0.6872   35.0924   97.5368 C   0  0  0  0  0  0  0  0  0  0  0  0
   -0.5615   33.8670   96.5878 C   0  0  0  0  0  0  0  0  0  0  0  0
   -1.1811   32.6138   97.2592 C   0  0  0  0  0  0  0  0  0  0  0  0
    0.9092   33.5267   96.2712 C   0  0  0  0  0  0  0  0  0  0  0  0
   -1.3715   34.0846   95.2575 C   0  0  0  0  0  0  0  0  0  0  0  0
   -3.5623   33.5231   96.3226 C   0  0  0  0  0  0  0  0  0  0  0  0
   -2.9047   34.3837   95.2138 C   0  0  0  0  0  0  0  0  0  0  0  0
   -3.5724   34.0141   93.8853 C   0  0  0  0  0  0  0  0  0  0  0  0
   -3.2191   35.8539   95.5500 C   0  0  0  0  0  0  0  0  0  0  0  0
   -2.4939   35.5201  102.5975 C   0  0  0  0  0  0  0  0  0  0  0  0
   -2.4405   34.1173  103.1845 C   0  0  0  0  0  0  0  0  0  0  0  0
   -2.8913   34.1452  104.6121 C   0  0  0  0  0  0  0  0  0  0  0  0
   -4.0466   34.0969  104.9979 O   0  0  0  0  0  0  0  0  0  0  0  0
   -1.8680   34.1975  105.4822 O   0  0  0  0  0  0  0  0  0  0  0  0
   -0.9864   34.2342  105.1668 H   0  0  0  0  0  0  0  0  0  0  0  0
 21 22  1  0
 22 23  1  0
 22 24  1  0
 22 20  1  0
 20 17  1  0
 17 18  1  0
 17 19  1  0
 17 16  1  0
 16 12  1  0
 12 13  1  0
 12 11  1  0
 11  1  1  0
  1  2  2  0
  2  3  1  0
  3  4  1  0
  3  5  2  0
  5  8  1  0
  8  9  2  0
  8 10  1  0
  5  6  1  0
  6  7  2  0
  7 25  1  0
 25 26  1  0
 26 27  1  0
 27 28  2  0
 27 29  1  0
  7  1  1  0
 13 14  1  0
 13 15  1  0
 29 30  1  0
M  CHG 1   8   1
M  CHG 1  10  -1
M  END
> <minimizedAffinity>
-8.50242

> <CNNscore>
0.4437894523

> <CNNaffinity>
6.0811119080

> <CNN_VS>
2.6987333298

> <CNNaffinity_variance>
0.2248937637

$$$$



 30 30  0  0  0  0  0  0  0  0999 V2000
   -2.8800   35.8062  100.0604 C   0  0  0  0  0  0  0  0  0  0  0  0
   -3.7341   35.8468   98.9346 C   0  0  0  0  0  0  0  0  0  0  0  0
   -5.1070   35.6067   99.0423 C   0  0  0  0  0  0  0  0  0  0  0  0
   -6.0445   35.6221   97.5953 Cl  0  0  0  0  0  0  0  0  0  0  0  0
   -5.6337   35.3402  100.2982 C   0  0  0  0  0  0  0  0  0  0  0  0
   -4.8228   35.3079  101.4397 C   0  0  0  0  0  0  0  0  0  0  0  0
   -3.4415   35.5564  101.3357 C   0  0  0  0  0  0  0  0  0  0  0  0
   -7.0451   35.0858  100.4687 N   0  0  0  0  0  0  0  0  0  0  0  0
   -7.5147   34.1181   99.8548 O   0  0  0  0  0  0  0  0  0  0  0  0
   -7.6656   35.8193  101.2485 O   0  0  0  0  0  0  0  0  0  0  0  0
   -1.3964   36.0842   99.8516 C   0  0  0  0  0  0  0  0  0  0  0  0
   -0.7177   35.3150   98.6798 C   0  0  0  0  0  0  0  0  0  0  0  0
    0.5294   35.9673   98.2746 N   0  0  0  0  0  0  0  0  0  0  0  0
    0.3293   36.9156   97.9565 H   0  0  0  0  0  0  0  0  0  0  0  0
    0.9591   35.4379   97.5161 H   0  0  0  0  0  0  0  0  0  0  0  0
   -1.7115   35.2218   97.4933 C   0  0  0  0  0  0  0  0  0  0  0  0
   -1.6565   33.9828   96.5553 C   0  0  0  0  0  0  0  0  0  0  0  0
   -1.8266   34.4297   95.0800 C   0  0  0  0  0  0  0  0  0  0  0  0
   -2.7881   32.9781   96.8540 C   0  0  0  0  0  0  0  0  0  0  0  0
   -0.2573   33.2685   96.6277 C   0  0  0  0  0  0  0  0  0  0  0  0
    0.1510   32.6899   94.2302 C   0  0  0  0  0  0  0  0  0  0  0  0
    0.1786   32.1140   95.6690 C   0  0  0  0  0  0  0  0  0  0  0  0
   -0.7525   30.8976   95.6975 C   0  0  0  0  0  0  0  0  0  0  0  0
    1.6250   31.6544   95.9339 C   0  0  0  0  0  0  0  0  0  0  0  0
   -2.6272   35.5258  102.6133 C   0  0  0  0  0  0  0  0  0  0  0  0
   -2.5466   34.1254  103.2030 C   0  0  0  0  0  0  0  0  0  0  0  0
   -2.9490   34.1560  104.6449 C   0  0  0  0  0  0  0  0  0  0  0  0
   -4.0908   34.1127  105.0694 O   0  0  0  0  0  0  0  0  0  0  0  0
   -1.8968   34.2046  105.4800 O   0  0  0  0  0  0  0  0  0  0  0  0
   -1.0262   34.2374  105.1352 H   0  0  0  0  0  0  0  0  0  0  0  0
 21 22  1  0
 22 23  1  0
 22 24  1  0
 22 20  1  0
 20 17  1  0
 17 18  1  0
 17 19  1  0
 17 16  1  0
 16 12  1  0
 12 13  1  0
 12 11  1  0
 11  1  1  0
  1  2  2  0
  2  3  1  0
  3  4  1  0
  3  5  2  0
  5  8  1  0
  8  9  2  0
  8 10  1  0
  5  6  1  0
  6  7  2  0
  7 25  1  0
 25 26  1  0
 26 27  1  0
 27 28  2  0
 27 29  1  0
  7  1  1  0
 13 14  1  0
 13 15  1  0
 29 30  1  0
M  CHG 1   8   1
M  CHG 1  10  -1
M  END
> <minimizedAffinity>
-8.75892

> <CNNscore>
0.3279785812

> <CNNaffinity>
5.6890563965

> <CNN_VS>
1.8658885956

> <CNNaffinity_variance>
0.2625592649

$$$$



 30 30  0  0  0  0  0  0  0  0999 V2000
   -2.8578   35.7310   99.4472 C   0  0  0  0  0  0  0  0  0  0  0  0
   -3.9322   35.9685   98.5595 C   0  0  0  0  0  0  0  0  0  0  0  0
   -5.2643   35.8493   98.9663 C   0  0  0  0  0  0  0  0  0  0  0  0
   -6.4943   36.1031   97.7850 Cl  0  0  0  0  0  0  0  0  0  0  0  0
   -5.5230   35.5051  100.2856 C   0  0  0  0  0  0  0  0  0  0  0  0
   -4.4859   35.2782  101.1992 C   0  0  0  0  0  0  0  0  0  0  0  0
   -3.1440   35.4045  100.7946 C   0  0  0  0  0  0  0  0  0  0  0  0
   -6.8798   35.3688  100.7612 N   0  0  0  0  0  0  0  0  0  0  0  0
   -7.3021   36.2651  101.5043 O   0  0  0  0  0  0  0  0  0  0  0  0
   -7.5309   34.3984  100.3543 O   0  0  0  0  0  0  0  0  0  0  0  0
   -1.4370   35.8876   98.9195 C   0  0  0  0  0  0  0  0  0  0  0  0
   -0.8445   34.6511   98.1810 C   0  0  0  0  0  0  0  0  0  0  0  0
    0.5629   34.4520   98.5338 N   0  0  0  0  0  0  0  0  0  0  0  0
    1.1019   35.2730   98.2584 H   0  0  0  0  0  0  0  0  0  0  0  0
    0.9223   33.6305   98.0477 H   0  0  0  0  0  0  0  0  0  0  0  0
   -1.0161   34.8449   96.6522 C   0  0  0  0  0  0  0  0  0  0  0  0
   -1.6516   33.7022   95.8108 C   0  0  0  0  0  0  0  0  0  0  0  0
   -2.4095   32.7202   96.7415 C   0  0  0  0  0  0  0  0  0  0  0  0
   -0.5890   32.8770   95.0563 C   0  0  0  0  0  0  0  0  0  0  0  0
   -2.7275   34.2574   94.8070 C   0  0  0  0  0  0  0  0  0  0  0  0
   -4.0709   34.3853   92.7027 C   0  0  0  0  0  0  0  0  0  0  0  0
   -2.6674   34.0374   93.2610 C   0  0  0  0  0  0  0  0  0  0  0  0
   -2.3514   32.5956   92.8503 C   0  0  0  0  0  0  0  0  0  0  0  0
   -1.6702   34.9920   92.5772 C   0  0  0  0  0  0  0  0  0  0  0  0
   -2.0729   35.1648  101.8396 C   0  0  0  0  0  0  0  0  0  0  0  0
   -2.3754   35.8922  103.1414 C   0  0  0  0  0  0  0  0  0  0  0  0
   -1.6868   37.2217  103.1538 C   0  0  0  0  0  0  0  0  0  0  0  0
   -2.2165   38.3028  102.9632 O   0  0  0  0  0  0  0  0  0  0  0  0
   -0.3764   37.1286  103.4388 O   0  0  0  0  0  0  0  0  0  0  0  0
    0.0133   36.2886  103.5822 H   0  0  0  0  0  0  0  0  0  0  0  0
 21 22  1  0
 22 23  1  0
 22 24  1  0
 22 20  1  0
 20 17  1  0
 17 18  1  0
 17 19  1  0
 17 16  1  0
 16 12  1  0
 12 13  1  0
 12 11  1  0
 11  1  1  0
  1  2  2  0
  2  3  1  0
  3  4  1  0
  3  5  2  0
  5  8  1  0
  8  9  2  0
  8 10  1  0
  5  6  1  0
  6  7  2  0
  7 25  1  0
 25 26  1  0
 26 27  1  0
 27 28  2  0
 27 29  1  0
  7  1  1  0
 13 14  1  0
 13 15  1  0
 29 30  1  0
M  CHG 1   8   1
M  CHG 1  10  -1
M  END
> <minimizedAffinity>
-7.47647

> <CNNscore>
0.2692015767

> <CNNaffinity>
5.8260173798

> <CNN_VS>
1.5683730841

> <CNNaffinity_variance>
0.2745507658

$$$$



 30 30  0  0  0  0  0  0  0  0999 V2000
   -1.3248   36.3407  101.0803 C   0  0  0  0  0  0  0  0  0  0  0  0
   -0.3713   37.3486  100.8092 C   0  0  0  0  0  0  0  0  0  0  0  0
    0.7869   37.4933  101.5786 C   0  0  0  0  0  0  0  0  0  0  0  0
    1.8516   38.7947  101.1968 Cl  0  0  0  0  0  0  0  0  0  0  0  0
    1.0009   36.6044  102.6225 C   0  0  0  0  0  0  0  0  0  0  0  0
    0.0880   35.5824  102.9118 C   0  0  0  0  0  0  0  0  0  0  0  0
   -1.0752   35.4295  102.1346 C   0  0  0  0  0  0  0  0  0  0  0  0
    2.1805   36.7061  103.4496 N   0  0  0  0  0  0  0  0  0  0  0  0
    2.6240   35.6496  103.9195 O   0  0  0  0  0  0  0  0  0  0  0  0
    2.6849   37.8278  103.5862 O   0  0  0  0  0  0  0  0  0  0  0  0
   -2.5568   36.2534  100.1879 C   0  0  0  0  0  0  0  0  0  0  0  0
   -2.4626   35.2604   98.9920 C   0  0  0  0  0  0  0  0  0  0  0  0
   -1.1287   35.2893   98.3879 N   0  0  0  0  0  0  0  0  0  0  0  0
   -0.9349   36.2269   98.0363 H   0  0  0  0  0  0  0  0  0  0  0  0
   -1.0901   34.6224   97.6170 H   0  0  0  0  0  0  0  0  0  0  0  0
   -3.5557   35.6164   97.9516 C   0  0  0  0  0  0  0  0  0  0  0  0
   -4.2074   34.4770   97.1180 C   0  0  0  0  0  0  0  0  0  0  0  0
   -3.2611   33.2493   97.0718 C   0  0  0  0  0  0  0  0  0  0  0  0
   -4.4655   34.9010   95.6576 C   0  0  0  0  0  0  0  0  0  0  0  0
   -5.5382   33.9670   97.7831 C   0  0  0  0  0  0  0  0  0  0  0  0
   -6.7119   36.1630   97.5608 C   0  0  0  0  0  0  0  0  0  0  0  0
   -6.5855   34.9078   98.4614 C   0  0  0  0  0  0  0  0  0  0  0  0
   -6.1803   35.3823   99.8607 C   0  0  0  0  0  0  0  0  0  0  0  0
   -7.9850   34.2671   98.5264 C   0  0  0  0  0  0  0  0  0  0  0  0
   -2.0093   34.2903  102.4901 C   0  0  0  0  0  0  0  0  0  0  0  0
   -2.4436   34.3446  103.9474 C   0  0  0  0  0  0  0  0  0  0  0  0
   -3.9135   34.0781  104.0509 C   0  0  0  0  0  0  0  0  0  0  0  0
   -4.7702   34.4910  103.2885 O   0  0  0  0  0  0  0  0  0  0  0  0
   -4.2279   33.2794  105.0854 O   0  0  0  0  0  0  0  0  0  0  0  0
   -3.5556   32.9718  105.6610 H   0  0  0  0  0  0  0  0  0  0  0  0
 21 22  1  0
 22 23  1  0
 22 24  1  0
 22 20  1  0
 20 17  1  0
 17 18  1  0
 17 19  1  0
 17 16  1  0
 16 12  1  0
 12 13  1  0
 12 11  1  0
 11  1  1  0
  1  2  2  0
  2  3  1  0
  3  4  1  0
  3  5  2  0
  5  8  1  0
  8  9  2  0
  8 10  1  0
  5  6  1  0
  6  7  2  0
  7 25  1  0
 25 26  1  0
 26 27  1  0
 27 28  2  0
 27 29  1  0
  7  1  1  0
 13 14  1  0
 13 15  1  0
 29 30  1  0
M  CHG 1   8   1
M  CHG 1  10  -1
M  END
> <minimizedAffinity>
-8.42687

> <CNNscore>
0.1970160902

> <CNNaffinity>
5.9480280876

> <CNN_VS>
1.1718572378

> <CNNaffinity_variance>
0.2157917023

$$$$



 30 30  0  0  0  0  0  0  0  0999 V2000
   -2.8602   35.4794  100.1973 C   0  0  0  0  0  0  0  0  0  0  0  0
   -1.8997   35.6288   99.1708 C   0  0  0  0  0  0  0  0  0  0  0  0
   -0.5381   35.7753   99.4515 C   0  0  0  0  0  0  0  0  0  0  0  0
    0.5381   36.0110   98.1251 Cl  0  0  0  0  0  0  0  0  0  0  0  0
   -0.1318   35.7535  100.7782 C   0  0  0  0  0  0  0  0  0  0  0  0
   -1.0512   35.5908  101.8222 C   0  0  0  0  0  0  0  0  0  0  0  0
   -2.4217   35.4358  101.5426 C   0  0  0  0  0  0  0  0  0  0  0  0
    1.2621   35.8993  101.1266 N   0  0  0  0  0  0  0  0  0  0  0  0
    1.9765   34.8960  100.9967 O   0  0  0  0  0  0  0  0  0  0  0  0
    1.6463   37.0212  101.4801 O   0  0  0  0  0  0  0  0  0  0  0  0
   -4.3229   35.3220   99.8002 C   0  0  0  0  0  0  0  0  0  0  0  0
   -4.8130   36.2287   98.6327 C   0  0  0  0  0  0  0  0  0  0  0  0
   -6.2700   36.1691   98.4962 N   0  0  0  0  0  0  0  0  0  0  0  0
   -6.5535   35.2107   98.2926 H   0  0  0  0  0  0  0  0  0  0  0  0
   -6.5654   36.7800   97.7346 H   0  0  0  0  0  0  0  0  0  0  0  0
   -4.1099   35.7901   97.3222 C   0  0  0  0  0  0  0  0  0  0  0  0
   -4.5054   34.4363   96.6673 C   0  0  0  0  0  0  0  0  0  0  0  0
   -5.8577   33.9451   97.2460 C   0  0  0  0  0  0  0  0  0  0  0  0
   -3.4676   33.3304   96.9488 C   0  0  0  0  0  0  0  0  0  0  0  0
   -4.7333   34.5916   95.1190 C   0  0  0  0  0  0  0  0  0  0  0  0
   -4.3192   37.0356   94.7957 C   0  0  0  0  0  0  0  0  0  0  0  0
   -5.2994   35.8856   94.4504 C   0  0  0  0  0  0  0  0  0  0  0  0
   -6.6861   36.2924   94.9593 C   0  0  0  0  0  0  0  0  0  0  0  0
   -5.3320   35.7784   92.9140 C   0  0  0  0  0  0  0  0  0  0  0  0
   -3.3581   35.2437  102.7185 C   0  0  0  0  0  0  0  0  0  0  0  0
   -2.9527   34.0572  103.5806 C   0  0  0  0  0  0  0  0  0  0  0  0
   -4.0210   33.7729  104.5906 C   0  0  0  0  0  0  0  0  0  0  0  0
   -4.6464   32.7320  104.6957 O   0  0  0  0  0  0  0  0  0  0  0  0
   -4.2247   34.7966  105.4376 O   0  0  0  0  0  0  0  0  0  0  0  0
   -3.7344   35.5892  105.3412 H   0  0  0  0  0  0  0  0  0  0  0  0
 21 22  1  0
 22 23  1  0
 22 24  1  0
 22 20  1  0
 20 17  1  0
 17 18  1  0
 17 19  1  0
 17 16  1  0
 16 12  1  0
 12 13  1  0
 12 11  1  0
 11  1  1  0
  1  2  2  0
  2  3  1  0
  3  4  1  0
  3  5  2  0
  5  8  1  0
  8  9  2  0
  8 10  1  0
  5  6  1  0
  6  7  2  0
  7 25  1  0
 25 26  1  0
 26 27  1  0
 27 28  2  0
 27 29  1  0
  7  1  1  0
 13 14  1  0
 13 15  1  0
 29 30  1  0
M  CHG 1   8   1
M  CHG 1  10  -1
M  END
> <minimizedAffinity>
-7.26170

> <CNNscore>
0.1895992458

> <CNNaffinity>
5.2432808876

> <CNN_VS>
0.9941220880

> <CNNaffinity_variance>
0.4091286659

$$$$



 30 30  0  0  0  0  0  0  0  0999 V2000
   -3.1814   35.7107   98.8529 C   0  0  0  0  0  0  0  0  0  0  0  0
   -4.3438   35.8171   98.0554 C   0  0  0  0  0  0  0  0  0  0  0  0
   -5.6257   35.7189   98.6045 C   0  0  0  0  0  0  0  0  0  0  0  0
   -6.9719   35.8029   97.5305 Cl  0  0  0  0  0  0  0  0  0  0  0  0
   -5.7439   35.5294   99.9741 C   0  0  0  0  0  0  0  0  0  0  0  0
   -4.6165   35.4359  100.7997 C   0  0  0  0  0  0  0  0  0  0  0  0
   -3.3249   35.5417  100.2511 C   0  0  0  0  0  0  0  0  0  0  0  0
   -7.0431   35.4219  100.5957 N   0  0  0  0  0  0  0  0  0  0  0  0
   -7.8229   34.5881  100.1155 O   0  0  0  0  0  0  0  0  0  0  0  0
   -7.2613   36.1318  101.5854 O   0  0  0  0  0  0  0  0  0  0  0  0
   -1.8242   35.8336   98.1711 C   0  0  0  0  0  0  0  0  0  0  0  0
   -1.7544   35.3337   96.6978 C   0  0  0  0  0  0  0  0  0  0  0  0
   -3.0403   35.5121   96.0201 N   0  0  0  0  0  0  0  0  0  0  0  0
   -3.7575   34.9715   96.5037 H   0  0  0  0  0  0  0  0  0  0  0  0
   -2.9639   35.1894   95.0555 H   0  0  0  0  0  0  0  0  0  0  0  0
   -1.3189   33.8456   96.6887 C   0  0  0  0  0  0  0  0  0  0  0  0
   -2.2739   32.7810   96.0784 C   0  0  0  0  0  0  0  0  0  0  0  0
   -2.7956   33.2675   94.7014 C   0  0  0  0  0  0  0  0  0  0  0  0
   -3.5108   32.5340   96.9661 C   0  0  0  0  0  0  0  0  0  0  0  0
   -1.5226   31.4281   95.7980 C   0  0  0  0  0  0  0  0  0  0  0  0
    0.9699   31.4517   95.9883 C   0  0  0  0  0  0  0  0  0  0  0  0
   -0.1973   31.3254   94.9763 C   0  0  0  0  0  0  0  0  0  0  0  0
   -0.0257   32.4337   93.9326 C   0  0  0  0  0  0  0  0  0  0  0  0
   -0.0433   29.9536   94.2924 C   0  0  0  0  0  0  0  0  0  0  0  0
   -2.1504   35.4519  101.2045 C   0  0  0  0  0  0  0  0  0  0  0  0
   -2.5428   35.8232  102.6270 C   0  0  0  0  0  0  0  0  0  0  0  0
   -2.0218   37.1871  102.9594 C   0  0  0  0  0  0  0  0  0  0  0  0
   -2.3781   38.2332  102.4453 O   0  0  0  0  0  0  0  0  0  0  0  0
   -1.1062   37.1709  103.9435 O   0  0  0  0  0  0  0  0  0  0  0  0
   -0.8447   36.3568  104.3267 H   0  0  0  0  0  0  0  0  0  0  0  0
 21 22  1  0
 22 23  1  0
 22 24  1  0
 22 20  1  0
 20 17  1  0
 17 18  1  0
 17 19  1  0
 17 16  1  0
 16 12  1  0
 12 13  1  0
 12 11  1  0
 11  1  1  0
  1  2  2  0
  2  3  1  0
  3  4  1  0
  3  5  2  0
  5  8  1  0
  8  9  2  0
  8 10  1  0
  5  6  1  0
  6  7  2  0
  7 25  1  0
 25 26  1  0
 26 27  1  0
 27 28  2  0
 27 29  1  0
  7  1  1  0
 13 14  1  0
 13 15  1  0
 29 30  1  0
M  CHG 1   8   1
M  CHG 1  10  -1
M  END
> <minimizedAffinity>
-7.36387

> <CNNscore>
0.1702655107

> <CNNaffinity>
5.7199840546

> <CNN_VS>
0.9739159942

> <CNNaffinity_variance>
0.4020818770

$$$$



 30 30  0  0  0  0  0  0  0  0999 V2000
   -3.1866   35.1669   98.3399 C   0  0  0  0  0  0  0  0  0  0  0  0
   -4.4489   34.8437   97.7915 C   0  0  0  0  0  0  0  0  0  0  0  0
   -5.6131   34.8543   98.5654 C   0  0  0  0  0  0  0  0  0  0  0  0
   -7.0893   34.3848   97.8083 Cl  0  0  0  0  0  0  0  0  0  0  0  0
   -5.5131   35.2112   99.9027 C   0  0  0  0  0  0  0  0  0  0  0  0
   -4.2831   35.5540  100.4783 C   0  0  0  0  0  0  0  0  0  0  0  0
   -3.1106   35.5514   99.7002 C   0  0  0  0  0  0  0  0  0  0  0  0
   -6.6829   35.2403  100.7491 N   0  0  0  0  0  0  0  0  0  0  0  0
   -6.6624   36.0331  101.7004 O   0  0  0  0  0  0  0  0  0  0  0  0
   -7.6316   34.5109  100.4344 O   0  0  0  0  0  0  0  0  0  0  0  0
   -1.9707   35.1333   97.4222 C   0  0  0  0  0  0  0  0  0  0  0  0
   -1.9774   34.0303   96.3228 C   0  0  0  0  0  0  0  0  0  0  0  0
   -0.9451   33.0239   96.5807 N   0  0  0  0  0  0  0  0  0  0  0  0
   -0.0275   33.4692   96.5762 H   0  0  0  0  0  0  0  0  0  0  0  0
   -0.9792   32.3081   95.8548 H   0  0  0  0  0  0  0  0  0  0  0  0
   -1.7757   34.6962   94.9371 C   0  0  0  0  0  0  0  0  0  0  0  0
   -2.4293   34.0485   93.6836 C   0  0  0  0  0  0  0  0  0  0  0  0
   -3.7585   33.3550   94.0802 C   0  0  0  0  0  0  0  0  0  0  0  0
   -1.5285   32.9668   93.0529 C   0  0  0  0  0  0  0  0  0  0  0  0
   -2.8152   35.1325   92.6115 C   0  0  0  0  0  0  0  0  0  0  0  0
   -4.1275   37.0333   91.6554 C   0  0  0  0  0  0  0  0  0  0  0  0
   -4.2609   35.6970   92.4293 C   0  0  0  0  0  0  0  0  0  0  0  0
   -4.9818   35.9967   93.7476 C   0  0  0  0  0  0  0  0  0  0  0  0
   -5.1407   34.7722   91.5667 C   0  0  0  0  0  0  0  0  0  0  0  0
   -1.8179   35.9524  100.3818 C   0  0  0  0  0  0  0  0  0  0  0  0
   -2.0212   36.2417  101.8617 C   0  0  0  0  0  0  0  0  0  0  0  0
   -1.7478   37.6873  102.1403 C   0  0  0  0  0  0  0  0  0  0  0  0
   -2.2169   38.3397  103.0569 O   0  0  0  0  0  0  0  0  0  0  0  0
   -0.8737   38.2298  101.2751 O   0  0  0  0  0  0  0  0  0  0  0  0
   -0.5237   37.7126  100.5766 H   0  0  0  0  0  0  0  0  0  0  0  0
 21 22  1  0
 22 23  1  0
 22 24  1  0
 22 20  1  0
 20 17  1  0
 17 18  1  0
 17 19  1  0
 17 16  1  0
 16 12  1  0
 12 13  1  0
 12 11  1  0
 11  1  1  0
  1  2  2  0
  2  3  1  0
  3  4  1  0
  3  5  2  0
  5  8  1  0
  8  9  2  0
  8 10  1  0
  5  6  1  0
  6  7  2  0
  7 25  1  0
 25 26  1  0
 26 27  1  0
 27 28  2  0
 27 29  1  0
  7  1  1  0
 13 14  1  0
 13 15  1  0
 29 30  1  0
M  CHG 1   8   1
M  CHG 1  10  -1
M  END
> <minimizedAffinity>
-7.20031

> <CNNscore>
0.1542641521

> <CNNaffinity>
5.4153785706

> <CNN_VS>
0.8353987932

> <CNNaffinity_variance>
0.3880136013

$$$$



 30 30  0  0  0  0  0  0  0  0999 V2000
   -0.2514   35.2550  100.8859 C   0  0  0  0  0  0  0  0  0  0  0  0
    1.1405   35.2284  100.6399 C   0  0  0  0  0  0  0  0  0  0  0  0
    2.0453   34.7254  101.5794 C   0  0  0  0  0  0  0  0  0  0  0  0
    3.7257   34.7972  101.1997 Cl  0  0  0  0  0  0  0  0  0  0  0  0
    1.5464   34.2257  102.7740 C   0  0  0  0  0  0  0  0  0  0  0  0
    0.1729   34.2193  103.0475 C   0  0  0  0  0  0  0  0  0  0  0  0
   -0.7411   34.7182  102.1008 C   0  0  0  0  0  0  0  0  0  0  0  0
    2.4348   33.6928  103.7803 N   0  0  0  0  0  0  0  0  0  0  0  0
    2.7518   32.5008  103.6684 O   0  0  0  0  0  0  0  0  0  0  0  0
    2.8489   34.4742  104.6457 O   0  0  0  0  0  0  0  0  0  0  0  0
   -1.1652   35.8177   99.8042 C   0  0  0  0  0  0  0  0  0  0  0  0
   -1.1831   35.0398   98.4552 C   0  0  0  0  0  0  0  0  0  0  0  0
   -0.2156   35.6023   97.5104 N   0  0  0  0  0  0  0  0  0  0  0  0
   -0.4548   36.5750   97.3177 H   0  0  0  0  0  0  0  0  0  0  0  0
   -0.2384   35.0681   96.6419 H   0  0  0  0  0  0  0  0  0  0  0  0
   -2.6191   35.0725   97.8714 C   0  0  0  0  0  0  0  0  0  0  0  0
   -2.9629   34.1663   96.6554 C   0  0  0  0  0  0  0  0  0  0  0  0
   -4.4752   33.8229   96.6640 C   0  0  0  0  0  0  0  0  0  0  0  0
   -2.1977   32.8276   96.6946 C   0  0  0  0  0  0  0  0  0  0  0  0
   -2.6998   34.9074   95.2935 C   0  0  0  0  0  0  0  0  0  0  0  0
   -3.8661   33.1889   93.9021 C   0  0  0  0  0  0  0  0  0  0  0  0
   -3.5734   34.7070   94.0134 C   0  0  0  0  0  0  0  0  0  0  0  0
   -2.8834   35.1405   92.7160 C   0  0  0  0  0  0  0  0  0  0  0  0
   -4.9378   35.4136   94.1252 C   0  0  0  0  0  0  0  0  0  0  0  0
   -2.2139   34.6621  102.4534 C   0  0  0  0  0  0  0  0  0  0  0  0
   -2.4633   33.8742  103.7311 C   0  0  0  0  0  0  0  0  0  0  0  0
   -3.8849   34.0488  104.1677 C   0  0  0  0  0  0  0  0  0  0  0  0
   -4.3242   33.8176  105.2810 O   0  0  0  0  0  0  0  0  0  0  0  0
   -4.6739   34.5369  103.1950 O   0  0  0  0  0  0  0  0  0  0  0  0
   -4.3183   34.7084  102.3452 H   0  0  0  0  0  0  0  0  0  0  0  0
 21 22  1  0
 22 23  1  0
 22 24  1  0
 22 20  1  0
 20 17  1  0
 17 18  1  0
 17 19  1  0
 17 16  1  0
 16 12  1  0
 12 13  1  0
 12 11  1  0
 11  1  1  0
  1  2  2  0
  2  3  1  0
  3  4  1  0
  3  5  2  0
  5  8  1  0
  8  9  2  0
  8 10  1  0
  5  6  1  0
  6  7  2  0
  7 25  1  0
 25 26  1  0
 26 27  1  0
 27 28  2  0
 27 29  1  0
  7  1  1  0
 13 14  1  0
 13 15  1  0
 29 30  1  0
M  CHG 1   8   1
M  CHG 1  10  -1
M  END
> <minimizedAffinity>
-7.72302

> <CNNscore>
0.1529841423

> <CNNaffinity>
5.5732989311

> <CNN_VS>
0.8526263833

> <CNNaffinity_variance>
0.3149802387

$$$$



 30 30  0  0  0  0  0  0  0  0999 V2000
   -3.9313   35.1158   98.9340 C   0  0  0  0  0  0  0  0  0  0  0  0
   -2.5938   35.5738   98.9285 C   0  0  0  0  0  0  0  0  0  0  0  0
   -2.0011   36.1311  100.0653 C   0  0  0  0  0  0  0  0  0  0  0  0
   -0.3835   36.7122   99.9290 Cl  0  0  0  0  0  0  0  0  0  0  0  0
   -2.7536   36.2138  101.2283 C   0  0  0  0  0  0  0  0  0  0  0  0
   -4.0762   35.7556  101.2781 C   0  0  0  0  0  0  0  0  0  0  0  0
   -4.6733   35.1873  100.1374 C   0  0  0  0  0  0  0  0  0  0  0  0
   -2.1923   36.7794  102.4328 N   0  0  0  0  0  0  0  0  0  0  0  0
   -2.3603   37.9938  102.6087 O   0  0  0  0  0  0  0  0  0  0  0  0
   -1.6313   36.0046  103.2178 O   0  0  0  0  0  0  0  0  0  0  0  0
   -4.4953   34.5186   97.6506 C   0  0  0  0  0  0  0  0  0  0  0  0
   -4.1227   35.2605   96.3330 C   0  0  0  0  0  0  0  0  0  0  0  0
   -5.0311   36.3824   96.0858 N   0  0  0  0  0  0  0  0  0  0  0  0
   -5.9851   36.0335   95.9933 H   0  0  0  0  0  0  0  0  0  0  0  0
   -4.7580   36.8579   95.2257 H   0  0  0  0  0  0  0  0  0  0  0  0
   -4.1501   34.2492   95.1580 C   0  0  0  0  0  0  0  0  0  0  0  0
   -2.8855   34.0887   94.2675 C   0  0  0  0  0  0  0  0  0  0  0  0
   -2.9333   35.1026   93.0951 C   0  0  0  0  0  0  0  0  0  0  0  0
   -2.7910   32.6820   93.6418 C   0  0  0  0  0  0  0  0  0  0  0  0
   -1.5730   34.4209   95.0677 C   0  0  0  0  0  0  0  0  0  0  0  0
    0.0712   32.5379   95.0576 C   0  0  0  0  0  0  0  0  0  0  0  0
   -0.8308   33.3942   95.9827 C   0  0  0  0  0  0  0  0  0  0  0  0
   -1.7661   32.4380   96.7298 C   0  0  0  0  0  0  0  0  0  0  0  0
    0.1030   34.0867   96.9935 C   0  0  0  0  0  0  0  0  0  0  0  0
   -6.1002   34.6937  100.2673 C   0  0  0  0  0  0  0  0  0  0  0  0
   -7.0915   35.6382   99.6037 C   0  0  0  0  0  0  0  0  0  0  0  0
   -8.0261   34.8625   98.7280 C   0  0  0  0  0  0  0  0  0  0  0  0
   -8.2525   33.6673   98.8063 O   0  0  0  0  0  0  0  0  0  0  0  0
   -8.6536   35.6326   97.8225 O   0  0  0  0  0  0  0  0  0  0  0  0
   -8.4665   36.5496   97.7772 H   0  0  0  0  0  0  0  0  0  0  0  0
 21 22  1  0
 22 23  1  0
 22 24  1  0
 22 20  1  0
 20 17  1  0
 17 18  1  0
 17 19  1  0
 17 16  1  0
 16 12  1  0
 12 13  1  0
 12 11  1  0
 11  1  1  0
  1  2  2  0
  2  3  1  0
  3  4  1  0
  3  5  2  0
  5  8  1  0
  8  9  2  0
  8 10  1  0
  5  6  1  0
  6  7  2  0
  7 25  1  0
 25 26  1  0
 26 27  1  0
 27 28  2  0
 27 29  1  0
  7  1  1  0
 13 14  1  0
 13 15  1  0
 29 30  1  0
M  CHG 1   8   1
M  CHG 1  10  -1
M  END
> <minimizedAffinity>
-7.03733

> <CNNscore>
0.1229037046

> <CNNaffinity>
5.0250492096

> <CNN_VS>
0.6175971627

> <CNNaffinity_variance>
0.6747884750

$$$$
