


 27 30  0  0  0  0  0  0  0  0999 V2000
  -17.5973   36.5156    1.9574 C   0  0  0  0  0  0  0  0  0  0  0  0
  -18.0913   37.3062    3.0062 C   0  0  0  0  0  0  0  0  0  0  0  0
  -19.0724   38.2689    2.7754 C   0  0  0  0  0  0  0  0  0  0  0  0
  -19.5895   38.4658    1.4896 C   0  0  0  0  0  0  0  0  0  0  0  0
  -19.1173   37.6797    0.4163 C   0  0  0  0  0  0  0  0  0  0  0  0
  -19.4123   37.6155   -0.9848 C   0  0  0  0  0  0  0  0  0  0  0  0
  -18.6015   36.6356   -1.5499 C   0  0  0  0  0  0  0  0  0  0  0  0
  -17.8426   36.1183   -0.5234 N   0  0  0  0  0  0  0  0  0  0  0  0
  -18.1319   36.7308    0.6749 C   0  0  0  0  0  0  0  0  0  0  0  0
  -17.1772   35.4010   -0.6329 H   0  0  0  0  0  0  0  0  0  0  0  0
  -18.4832   36.1165   -2.9140 C   0  0  0  0  0  0  0  0  0  0  0  0
  -19.4717   35.2727   -3.4405 C   0  0  0  0  0  0  0  0  0  0  0  0
  -19.3625   34.7768   -4.7431 C   0  0  0  0  0  0  0  0  0  0  0  0
  -18.2639   35.1239   -5.5259 C   0  0  0  0  0  0  0  0  0  0  0  0
  -18.1282   34.5124   -7.1281 Cl  0  0  0  0  0  0  0  0  0  0  0  0
  -17.2748   35.9624   -5.0184 C   0  0  0  0  0  0  0  0  0  0  0  0
  -17.3861   36.4577   -3.7161 C   0  0  0  0  0  0  0  0  0  0  0  0
  -20.3692   38.4181   -1.7323 C   0  0  0  0  0  0  0  0  0  0  0  0
  -20.4918   38.2747   -3.1195 C   0  0  0  0  0  0  0  0  0  0  0  0
  -21.4118   39.0498   -3.8283 C   0  0  0  0  0  0  0  0  0  0  0  0
  -22.2103   39.9743   -3.1561 C   0  0  0  0  0  0  0  0  0  0  0  0
  -22.0905   40.1261   -1.7752 C   0  0  0  0  0  0  0  0  0  0  0  0
  -21.1716   39.3512   -1.0644 C   0  0  0  0  0  0  0  0  0  0  0  0
  -16.0995   35.1343    3.2258 O   0  0  0  0  0  0  0  0  0  0  0  0
  -16.5511   35.4878    2.1502 C   0  0  0  0  0  0  0  0  0  0  0  0
  -16.1207   34.9527    0.9951 O   0  0  0  0  0  0  0  0  0  0  0  0
  -16.4838   35.2415    0.1810 H   0  0  0  0  0  0  0  0  0  0  0  0
 24 25  2  0
 25 26  1  0
 25  1  1  0
  1  2  2  0
  2  3  1  0
  3  4  2  0
  4  5  1  0
  5  6  1  0
  6 18  1  0
 18 19  2  0
 19 20  1  0
 20 21  2  0
 21 22  1  0
 22 23  2  0
  6  7  2  0
  7 11  1  0
 11 12  2  0
 12 13  1  0
 13 14  2  0
 14 15  1  0
 14 16  1  0
 16 17  2  0
  7  8  1  0
  8  9  1  0
  9  1  1  0
  9  5  2  0
 23 18  1  0
 17 11  1  0
 26 27  1  0
  8 10  1  0
M  END
> <minimizedAffinity>
-11.10119

> <CNNscore>
0.9602174163

> <CNNaffinity>
7.2374529839

> <CNN_VS>
6.9495282173

> <CNNaffinity_variance>
0.0321361609

$$$$



 27 30  0  0  0  0  0  0  0  0999 V2000
  -17.5749   36.5499    1.9141 C   0  0  0  0  0  0  0  0  0  0  0  0
  -18.0555   37.3325    2.9751 C   0  0  0  0  0  0  0  0  0  0  0  0
  -19.0298   38.3061    2.7616 C   0  0  0  0  0  0  0  0  0  0  0  0
  -19.5531   38.5222    1.4814 C   0  0  0  0  0  0  0  0  0  0  0  0
  -19.0944   37.7447    0.3962 C   0  0  0  0  0  0  0  0  0  0  0  0
  -19.3986   37.6992   -1.0037 C   0  0  0  0  0  0  0  0  0  0  0  0
  -18.5998   36.7190   -1.5851 C   0  0  0  0  0  0  0  0  0  0  0  0
  -17.8390   36.1835   -0.5695 N   0  0  0  0  0  0  0  0  0  0  0  0
  -18.1156   36.7845    0.6376 C   0  0  0  0  0  0  0  0  0  0  0  0
  -17.1804   35.4619   -0.6914 H   0  0  0  0  0  0  0  0  0  0  0  0
  -18.4945   36.2148   -2.9558 C   0  0  0  0  0  0  0  0  0  0  0  0
  -17.4084   36.5791   -3.7646 C   0  0  0  0  0  0  0  0  0  0  0  0
  -17.3042   36.0981   -5.0731 C   0  0  0  0  0  0  0  0  0  0  0  0
  -18.2859   35.2491   -5.5786 C   0  0  0  0  0  0  0  0  0  0  0  0
  -18.1590   34.6586   -7.1894 Cl  0  0  0  0  0  0  0  0  0  0  0  0
  -19.3696   34.8765   -4.7876 C   0  0  0  0  0  0  0  0  0  0  0  0
  -19.4717   35.3579   -3.4794 C   0  0  0  0  0  0  0  0  0  0  0  0
  -20.3533   38.5184   -1.7358 C   0  0  0  0  0  0  0  0  0  0  0  0
  -21.4108   39.1495   -1.0699 C   0  0  0  0  0  0  0  0  0  0  0  0
  -22.3225   39.9325   -1.7808 C   0  0  0  0  0  0  0  0  0  0  0  0
  -22.1850   40.0855   -3.1599 C   0  0  0  0  0  0  0  0  0  0  0  0
  -21.1370   39.4561   -3.8306 C   0  0  0  0  0  0  0  0  0  0  0  0
  -20.2237   38.6733   -3.1214 C   0  0  0  0  0  0  0  0  0  0  0  0
  -16.1040   35.1186    3.1584 O   0  0  0  0  0  0  0  0  0  0  0  0
  -16.5363   35.5111    2.0884 C   0  0  0  0  0  0  0  0  0  0  0  0
  -16.0891   35.0140    0.9228 O   0  0  0  0  0  0  0  0  0  0  0  0
  -16.4375   35.3324    0.1133 H   0  0  0  0  0  0  0  0  0  0  0  0
 24 25  2  0
 25 26  1  0
 25  1  1  0
  1  2  2  0
  2  3  1  0
  3  4  2  0
  4  5  1  0
  5  6  1  0
  6 18  1  0
 18 19  2  0
 19 20  1  0
 20 21  2  0
 21 22  1  0
 22 23  2  0
  6  7  2  0
  7 11  1  0
 11 12  2  0
 12 13  1  0
 13 14  2  0
 14 15  1  0
 14 16  1  0
 16 17  2  0
  7  8  1  0
  8  9  1  0
  9  1  1  0
  9  5  2  0
 23 18  1  0
 17 11  1  0
 26 27  1  0
  8 10  1  0
M  END
> <minimizedAffinity>
-10.89065

> <CNNscore>
0.9602168798

> <CNNaffinity>
7.2360529900

> <CNN_VS>
6.9481801987

> <CNNaffinity_variance>
0.0430319197

$$$$



 27 30  0  0  0  0  0  0  0  0999 V2000
  -17.9889   36.3270    0.9673 C   0  0  0  0  0  0  0  0  0  0  0  0
  -18.5722   37.1961    1.9019 C   0  0  0  0  0  0  0  0  0  0  0  0
  -19.3775   38.2557    1.4879 C   0  0  0  0  0  0  0  0  0  0  0  0
  -19.6247   38.4740    0.1274 C   0  0  0  0  0  0  0  0  0  0  0  0
  -19.0576   37.6112   -0.8352 C   0  0  0  0  0  0  0  0  0  0  0  0
  -19.0968   37.5421   -2.2663 C   0  0  0  0  0  0  0  0  0  0  0  0
  -18.3142   36.4627   -2.6657 C   0  0  0  0  0  0  0  0  0  0  0  0
  -17.8203   35.8921   -1.5135 N   0  0  0  0  0  0  0  0  0  0  0  0
  -18.2516   36.5655   -0.3932 C   0  0  0  0  0  0  0  0  0  0  0  0
  -17.2329   35.1023   -1.4937 H   0  0  0  0  0  0  0  0  0  0  0  0
  -18.0089   35.8968   -3.9813 C   0  0  0  0  0  0  0  0  0  0  0  0
  -19.0104   35.2639   -4.7315 C   0  0  0  0  0  0  0  0  0  0  0  0
  -18.7224   34.7240   -5.9885 C   0  0  0  0  0  0  0  0  0  0  0  0
  -17.4307   34.8158   -6.5017 C   0  0  0  0  0  0  0  0  0  0  0  0
  -17.0755   34.1498   -8.0475 Cl  0  0  0  0  0  0  0  0  0  0  0  0
  -16.4256   35.4428   -5.7700 C   0  0  0  0  0  0  0  0  0  0  0  0
  -16.7156   35.9825   -4.5137 C   0  0  0  0  0  0  0  0  0  0  0  0
  -19.8024   38.4258   -3.1827 C   0  0  0  0  0  0  0  0  0  0  0  0
  -21.1614   38.2319   -3.4571 C   0  0  0  0  0  0  0  0  0  0  0  0
  -21.8297   39.0839   -4.3386 C   0  0  0  0  0  0  0  0  0  0  0  0
  -21.1434   40.1307   -4.9529 C   0  0  0  0  0  0  0  0  0  0  0  0
  -19.7886   40.3271   -4.6881 C   0  0  0  0  0  0  0  0  0  0  0  0
  -19.1186   39.4765   -3.8063 C   0  0  0  0  0  0  0  0  0  0  0  0
  -16.3884   34.5759    0.6034 O   0  0  0  0  0  0  0  0  0  0  0  0
  -17.1204   35.1945    1.3565 C   0  0  0  0  0  0  0  0  0  0  0  0
  -17.2074   34.8900    2.6625 O   0  0  0  0  0  0  0  0  0  0  0  0
  -17.7778   35.3807    3.2209 H   0  0  0  0  0  0  0  0  0  0  0  0
 24 25  2  0
 25 26  1  0
 25  1  1  0
  1  2  2  0
  2  3  1  0
  3  4  2  0
  4  5  1  0
  5  6  1  0
  6 18  1  0
 18 19  2  0
 19 20  1  0
 20 21  2  0
 21 22  1  0
 22 23  2  0
  6  7  2  0
  7 11  1  0
 11 12  2  0
 12 13  1  0
 13 14  2  0
 14 15  1  0
 14 16  1  0
 16 17  2  0
  7  8  1  0
  8  9  1  0
  9  1  1  0
  9  5  2  0
 23 18  1  0
 17 11  1  0
 26 27  1  0
  8 10  1  0
M  END
> <minimizedAffinity>
-9.25009

> <CNNscore>
0.8329309225

> <CNNaffinity>
6.7823104858

> <CNN_VS>
5.6491961479

> <CNNaffinity_variance>
0.0570312999

$$$$



 27 30  0  0  0  0  0  0  0  0999 V2000
  -17.2463   35.4170    0.4401 C   0  0  0  0  0  0  0  0  0  0  0  0
  -16.1906   34.5603    0.0927 C   0  0  0  0  0  0  0  0  0  0  0  0
  -15.8749   34.3195   -1.2434 C   0  0  0  0  0  0  0  0  0  0  0  0
  -16.6042   34.9314   -2.2696 C   0  0  0  0  0  0  0  0  0  0  0  0
  -17.6666   35.8043   -1.9503 C   0  0  0  0  0  0  0  0  0  0  0  0
  -18.5964   36.5758   -2.7214 C   0  0  0  0  0  0  0  0  0  0  0  0
  -19.4403   37.2407   -1.8368 C   0  0  0  0  0  0  0  0  0  0  0  0
  -19.0323   36.8878   -0.5694 N   0  0  0  0  0  0  0  0  0  0  0  0
  -17.9641   36.0205   -0.6075 C   0  0  0  0  0  0  0  0  0  0  0  0
  -19.4517   37.2147    0.2591 H   0  0  0  0  0  0  0  0  0  0  0  0
  -20.5463   38.1782   -2.0419 C   0  0  0  0  0  0  0  0  0  0  0  0
  -21.0469   38.4143   -3.3303 C   0  0  0  0  0  0  0  0  0  0  0  0
  -22.1037   39.3076   -3.5292 C   0  0  0  0  0  0  0  0  0  0  0  0
  -22.6658   39.9684   -2.4394 C   0  0  0  0  0  0  0  0  0  0  0  0
  -23.9650   41.0692   -2.6840 Cl  0  0  0  0  0  0  0  0  0  0  0  0
  -22.1813   39.7434   -1.1535 C   0  0  0  0  0  0  0  0  0  0  0  0
  -21.1250   38.8494   -0.9566 C   0  0  0  0  0  0  0  0  0  0  0  0
  -18.6905   36.6702   -4.1708 C   0  0  0  0  0  0  0  0  0  0  0  0
  -18.0397   37.6983   -4.8631 C   0  0  0  0  0  0  0  0  0  0  0  0
  -18.1367   37.7816   -6.2535 C   0  0  0  0  0  0  0  0  0  0  0  0
  -18.8872   36.8413   -6.9584 C   0  0  0  0  0  0  0  0  0  0  0  0
  -19.5421   35.8172   -6.2754 C   0  0  0  0  0  0  0  0  0  0  0  0
  -19.4456   35.7318   -4.8849 C   0  0  0  0  0  0  0  0  0  0  0  0
  -18.5452   36.4152    2.1942 O   0  0  0  0  0  0  0  0  0  0  0  0
  -17.6253   35.6971    1.8423 C   0  0  0  0  0  0  0  0  0  0  0  0
  -16.8404   35.0695    2.7343 O   0  0  0  0  0  0  0  0  0  0  0  0
  -16.1394   34.5226    2.4384 H   0  0  0  0  0  0  0  0  0  0  0  0
 24 25  2  0
 25 26  1  0
 25  1  1  0
  1  2  2  0
  2  3  1  0
  3  4  2  0
  4  5  1  0
  5  6  1  0
  6 18  1  0
 18 19  2  0
 19 20  1  0
 20 21  2  0
 21 22  1  0
 22 23  2  0
  6  7  2  0
  7 11  1  0
 11 12  2  0
 12 13  1  0
 13 14  2  0
 14 15  1  0
 14 16  1  0
 16 17  2  0
  7  8  1  0
  8  9  1  0
  9  1  1  0
  9  5  2  0
 23 18  1  0
 17 11  1  0
 26 27  1  0
  8 10  1  0
M  END
> <minimizedAffinity>
-9.38370

> <CNNscore>
0.6833902597

> <CNNaffinity>
6.6483001709

> <CNN_VS>
4.5433835983

> <CNNaffinity_variance>
0.1003456637

$$$$



 27 30  0  0  0  0  0  0  0  0999 V2000
  -17.2923   35.2824   -0.4632 C   0  0  0  0  0  0  0  0  0  0  0  0
  -17.5875   35.3573    0.9066 C   0  0  0  0  0  0  0  0  0  0  0  0
  -18.5896   36.2040    1.3772 C   0  0  0  0  0  0  0  0  0  0  0  0
  -19.3270   36.9975    0.4905 C   0  0  0  0  0  0  0  0  0  0  0  0
  -19.0576   36.9373   -0.8939 C   0  0  0  0  0  0  0  0  0  0  0  0
  -19.5983   37.5904   -2.0496 C   0  0  0  0  0  0  0  0  0  0  0  0
  -18.9058   37.1305   -3.1659 C   0  0  0  0  0  0  0  0  0  0  0  0
  -17.9783   36.2237   -2.7027 N   0  0  0  0  0  0  0  0  0  0  0  0
  -18.0462   36.0881   -1.3347 C   0  0  0  0  0  0  0  0  0  0  0  0
  -17.3464   35.7344   -3.2776 H   0  0  0  0  0  0  0  0  0  0  0  0
  -19.0354   37.4167   -4.5961 C   0  0  0  0  0  0  0  0  0  0  0  0
  -19.6876   36.5109   -5.4450 C   0  0  0  0  0  0  0  0  0  0  0  0
  -19.8142   36.7820   -6.8106 C   0  0  0  0  0  0  0  0  0  0  0  0
  -19.2898   37.9617   -7.3335 C   0  0  0  0  0  0  0  0  0  0  0  0
  -19.4439   38.2947   -9.0142 Cl  0  0  0  0  0  0  0  0  0  0  0  0
  -18.6411   38.8723   -6.5035 C   0  0  0  0  0  0  0  0  0  0  0  0
  -18.5160   38.5998   -5.1383 C   0  0  0  0  0  0  0  0  0  0  0  0
  -20.6696   38.5744   -2.0982 C   0  0  0  0  0  0  0  0  0  0  0  0
  -21.4238   38.7517   -3.2643 C   0  0  0  0  0  0  0  0  0  0  0  0
  -22.4488   39.6991   -3.3020 C   0  0  0  0  0  0  0  0  0  0  0  0
  -22.7226   40.4764   -2.1773 C   0  0  0  0  0  0  0  0  0  0  0  0
  -21.9725   40.3088   -1.0139 C   0  0  0  0  0  0  0  0  0  0  0  0
  -20.9475   39.3614   -0.9739 C   0  0  0  0  0  0  0  0  0  0  0  0
  -15.5660   33.6181   -0.3625 O   0  0  0  0  0  0  0  0  0  0  0  0
  -16.2331   34.4064   -1.0100 C   0  0  0  0  0  0  0  0  0  0  0  0
  -16.0587   34.5561   -2.3339 O   0  0  0  0  0  0  0  0  0  0  0  0
  -16.5844   35.1689   -2.8094 H   0  0  0  0  0  0  0  0  0  0  0  0
 24 25  2  0
 25 26  1  0
 25  1  1  0
  1  2  2  0
  2  3  1  0
  3  4  2  0
  4  5  1  0
  5  6  1  0
  6 18  1  0
 18 19  2  0
 19 20  1  0
 20 21  2  0
 21 22  1  0
 22 23  2  0
  6  7  2  0
  7 11  1  0
 11 12  2  0
 12 13  1  0
 13 14  2  0
 14 15  1  0
 14 16  1  0
 16 17  2  0
  7  8  1  0
  8  9  1  0
  9  1  1  0
  9  5  2  0
 23 18  1  0
 17 11  1  0
 26 27  1  0
  8 10  1  0
M  END
> <minimizedAffinity>
-8.92794

> <CNNscore>
0.5083347559

> <CNNaffinity>
6.2901916504

> <CNN_VS>
3.1975231171

> <CNNaffinity_variance>
0.0679931715

$$$$



 27 30  0  0  0  0  0  0  0  0999 V2000
  -17.8662   36.5442    1.5142 C   0  0  0  0  0  0  0  0  0  0  0  0
  -16.8551   35.5838    1.6702 C   0  0  0  0  0  0  0  0  0  0  0  0
  -16.3852   34.8560    0.5784 C   0  0  0  0  0  0  0  0  0  0  0  0
  -16.9112   35.0705   -0.7010 C   0  0  0  0  0  0  0  0  0  0  0  0
  -17.9237   36.0359   -0.8897 C   0  0  0  0  0  0  0  0  0  0  0  0
  -18.6676   36.4998   -2.0237 C   0  0  0  0  0  0  0  0  0  0  0  0
  -19.5595   37.4731   -1.5832 C   0  0  0  0  0  0  0  0  0  0  0  0
  -19.3596   37.5993   -0.2262 N   0  0  0  0  0  0  0  0  0  0  0  0
  -18.3788   36.7428    0.2201 C   0  0  0  0  0  0  0  0  0  0  0  0
  -19.8556   38.2233    0.3516 H   0  0  0  0  0  0  0  0  0  0  0  0
  -20.5384   38.3064   -2.2843 C   0  0  0  0  0  0  0  0  0  0  0  0
  -21.2172   39.3281   -1.6048 C   0  0  0  0  0  0  0  0  0  0  0  0
  -22.1512   40.1263   -2.2718 C   0  0  0  0  0  0  0  0  0  0  0  0
  -22.4098   39.9069   -3.6228 C   0  0  0  0  0  0  0  0  0  0  0  0
  -23.5605   40.8877   -4.4434 Cl  0  0  0  0  0  0  0  0  0  0  0  0
  -21.7427   38.8977   -4.3122 C   0  0  0  0  0  0  0  0  0  0  0  0
  -20.8088   38.1010   -3.6438 C   0  0  0  0  0  0  0  0  0  0  0  0
  -18.5566   36.0555   -3.4053 C   0  0  0  0  0  0  0  0  0  0  0  0
  -19.3252   34.9837   -3.8745 C   0  0  0  0  0  0  0  0  0  0  0  0
  -19.2112   34.5637   -5.2012 C   0  0  0  0  0  0  0  0  0  0  0  0
  -18.3263   35.2092   -6.0641 C   0  0  0  0  0  0  0  0  0  0  0  0
  -17.5540   36.2744   -5.6027 C   0  0  0  0  0  0  0  0  0  0  0  0
  -17.6672   36.6964   -4.2764 C   0  0  0  0  0  0  0  0  0  0  0  0
  -19.5054   37.8559    2.6774 O   0  0  0  0  0  0  0  0  0  0  0  0
  -18.4038   37.3353    2.6427 C   0  0  0  0  0  0  0  0  0  0  0  0
  -17.5433   37.4378    3.6697 O   0  0  0  0  0  0  0  0  0  0  0  0
  -16.7020   37.0284    3.6187 H   0  0  0  0  0  0  0  0  0  0  0  0
 24 25  2  0
 25 26  1  0
 25  1  1  0
  1  2  2  0
  2  3  1  0
  3  4  2  0
  4  5  1  0
  5  6  1  0
  6 18  1  0
 18 19  2  0
 19 20  1  0
 20 21  2  0
 21 22  1  0
 22 23  2  0
  6  7  2  0
  7 11  1  0
 11 12  2  0
 12 13  1  0
 13 14  2  0
 14 15  1  0
 14 16  1  0
 16 17  2  0
  7  8  1  0
  8  9  1  0
  9  1  1  0
  9  5  2  0
 23 18  1  0
 17 11  1  0
 26 27  1  0
  8 10  1  0
M  END
> <minimizedAffinity>
-9.87256

> <CNNscore>
0.4729305208

> <CNNaffinity>
6.4000759125

> <CNN_VS>
3.0267913342

> <CNNaffinity_variance>
0.1594243646

$$$$



 27 30  0  0  0  0  0  0  0  0999 V2000
  -14.9369   36.4288    5.2042 C   0  0  0  0  0  0  0  0  0  0  0  0
  -14.5059   35.1727    5.6577 C   0  0  0  0  0  0  0  0  0  0  0  0
  -15.1608   34.0069    5.2646 C   0  0  0  0  0  0  0  0  0  0  0  0
  -16.2634   34.0643    4.4040 C   0  0  0  0  0  0  0  0  0  0  0  0
  -16.7147   35.3133    3.9254 C   0  0  0  0  0  0  0  0  0  0  0  0
  -17.7789   35.7303    3.0605 C   0  0  0  0  0  0  0  0  0  0  0  0
  -17.7394   37.1185    2.9695 C   0  0  0  0  0  0  0  0  0  0  0  0
  -16.6818   37.5301    3.7501 N   0  0  0  0  0  0  0  0  0  0  0  0
  -16.0458   36.4616    4.3404 C   0  0  0  0  0  0  0  0  0  0  0  0
  -16.4146   38.4700    3.8707 H   0  0  0  0  0  0  0  0  0  0  0  0
  -18.5475   38.0831    2.2207 C   0  0  0  0  0  0  0  0  0  0  0  0
  -19.3196   39.0386    2.8969 C   0  0  0  0  0  0  0  0  0  0  0  0
  -20.0909   39.9619    2.1848 C   0  0  0  0  0  0  0  0  0  0  0  0
  -20.0924   39.9345    0.7921 C   0  0  0  0  0  0  0  0  0  0  0  0
  -21.0429   41.0692   -0.0844 Cl  0  0  0  0  0  0  0  0  0  0  0  0
  -19.3296   38.9932    0.1059 C   0  0  0  0  0  0  0  0  0  0  0  0
  -18.5586   38.0713    0.8196 C   0  0  0  0  0  0  0  0  0  0  0  0
  -18.7592   34.8927    2.3852 C   0  0  0  0  0  0  0  0  0  0  0  0
  -18.4688   34.3122    1.1448 C   0  0  0  0  0  0  0  0  0  0  0  0
  -19.4159   33.5112    0.5039 C   0  0  0  0  0  0  0  0  0  0  0  0
  -20.6585   33.2895    1.0964 C   0  0  0  0  0  0  0  0  0  0  0  0
  -20.9567   33.8683    2.3294 C   0  0  0  0  0  0  0  0  0  0  0  0
  -20.0106   34.6691    2.9724 C   0  0  0  0  0  0  0  0  0  0  0  0
  -13.9534   37.9939    6.7351 O   0  0  0  0  0  0  0  0  0  0  0  0
  -14.2808   37.6942    5.5998 C   0  0  0  0  0  0  0  0  0  0  0  0
  -14.0656   38.5213    4.5629 O   0  0  0  0  0  0  0  0  0  0  0  0
  -14.3265   38.2677    3.6994 H   0  0  0  0  0  0  0  0  0  0  0  0
 24 25  2  0
 25 26  1  0
 25  1  1  0
  1  2  2  0
  2  3  1  0
  3  4  2  0
  4  5  1  0
  5  6  1  0
  6 18  1  0
 18 19  2  0
 19 20  1  0
 20 21  2  0
 21 22  1  0
 22 23  2  0
  6  7  2  0
  7 11  1  0
 11 12  2  0
 12 13  1  0
 13 14  2  0
 14 15  1  0
 14 16  1  0
 16 17  2  0
  7  8  1  0
  8  9  1  0
  9  1  1  0
  9  5  2  0
 23 18  1  0
 17 11  1  0
 26 27  1  0
  8 10  1  0
M  END
> <minimizedAffinity>
17.64523

> <CNNscore>
0.4222255945

> <CNNaffinity>
5.5408234596

> <CNN_VS>
2.3394775391

> <CNNaffinity_variance>
0.2263129503

$$$$



 27 30  0  0  0  0  0  0  0  0999 V2000
  -19.7710   38.0592    0.6825 C   0  0  0  0  0  0  0  0  0  0  0  0
  -20.4249   38.9933    1.5004 C   0  0  0  0  0  0  0  0  0  0  0  0
  -21.1410   40.0525    0.9455 C   0  0  0  0  0  0  0  0  0  0  0  0
  -21.2261   40.2053   -0.4433 C   0  0  0  0  0  0  0  0  0  0  0  0
  -20.5851   39.2765   -1.2913 C   0  0  0  0  0  0  0  0  0  0  0  0
  -20.4658   39.1328   -2.7124 C   0  0  0  0  0  0  0  0  0  0  0  0
  -19.6816   38.0113   -2.9662 C   0  0  0  0  0  0  0  0  0  0  0  0
  -19.3404   37.4885   -1.7384 N   0  0  0  0  0  0  0  0  0  0  0  0
  -19.8709   38.2327   -0.7092 C   0  0  0  0  0  0  0  0  0  0  0  0
  -18.7869   36.6841   -1.6129 H   0  0  0  0  0  0  0  0  0  0  0  0
  -19.2505   37.3677   -4.2088 C   0  0  0  0  0  0  0  0  0  0  0  0
  -19.8087   36.1438   -4.6049 C   0  0  0  0  0  0  0  0  0  0  0  0
  -19.4004   35.5275   -5.7915 C   0  0  0  0  0  0  0  0  0  0  0  0
  -18.4321   36.1337   -6.5885 C   0  0  0  0  0  0  0  0  0  0  0  0
  -17.9280   35.3748   -8.0477 Cl  0  0  0  0  0  0  0  0  0  0  0  0
  -17.8696   37.3500   -6.2101 C   0  0  0  0  0  0  0  0  0  0  0  0
  -18.2795   37.9648   -5.0237 C   0  0  0  0  0  0  0  0  0  0  0  0
  -21.0327   39.9868   -3.7457 C   0  0  0  0  0  0  0  0  0  0  0  0
  -22.2889   39.7046   -4.2953 C   0  0  0  0  0  0  0  0  0  0  0  0
  -22.8243   40.5288   -5.2871 C   0  0  0  0  0  0  0  0  0  0  0  0
  -22.1061   41.6359   -5.7374 C   0  0  0  0  0  0  0  0  0  0  0  0
  -20.8522   41.9206   -5.1981 C   0  0  0  0  0  0  0  0  0  0  0  0
  -20.3154   41.0979   -4.2056 C   0  0  0  0  0  0  0  0  0  0  0  0
  -19.3860   36.1361    2.0660 O   0  0  0  0  0  0  0  0  0  0  0  0
  -18.9920   36.9240    1.2236 C   0  0  0  0  0  0  0  0  0  0  0  0
  -17.7631   36.8275    0.6887 O   0  0  0  0  0  0  0  0  0  0  0  0
  -17.4835   37.4458    0.0425 H   0  0  0  0  0  0  0  0  0  0  0  0
 24 25  2  0
 25 26  1  0
 25  1  1  0
  1  2  2  0
  2  3  1  0
  3  4  2  0
  4  5  1  0
  5  6  1  0
  6 18  1  0
 18 19  2  0
 19 20  1  0
 20 21  2  0
 21 22  1  0
 22 23  2  0
  6  7  2  0
  7 11  1  0
 11 12  2  0
 12 13  1  0
 13 14  2  0
 14 15  1  0
 14 16  1  0
 16 17  2  0
  7  8  1  0
  8  9  1  0
  9  1  1  0
  9  5  2  0
 23 18  1  0
 17 11  1  0
 26 27  1  0
  8 10  1  0
M  END
> <minimizedAffinity>
-8.12567

> <CNNscore>
0.4161915779

> <CNNaffinity>
6.1896414757

> <CNN_VS>
2.5760767460

> <CNNaffinity_variance>
0.0342465118

$$$$



 27 30  0  0  0  0  0  0  0  0999 V2000
  -28.4752   38.9165   -8.3616 C   0  0  0  0  0  0  0  0  0  0  0  0
  -28.7324   40.0312   -7.5488 C   0  0  0  0  0  0  0  0  0  0  0  0
  -27.6882   40.7513   -6.9711 C   0  0  0  0  0  0  0  0  0  0  0  0
  -26.3572   40.3788   -7.1926 C   0  0  0  0  0  0  0  0  0  0  0  0
  -26.0678   39.2665   -8.0122 C   0  0  0  0  0  0  0  0  0  0  0  0
  -24.8602   38.6228   -8.4388 C   0  0  0  0  0  0  0  0  0  0  0  0
  -25.2106   37.5413   -9.2416 C   0  0  0  0  0  0  0  0  0  0  0  0
  -26.5866   37.5322   -9.3042 N   0  0  0  0  0  0  0  0  0  0  0  0
  -27.1309   38.5616   -8.5702 C   0  0  0  0  0  0  0  0  0  0  0  0
  -27.1141   36.8726   -9.8100 H   0  0  0  0  0  0  0  0  0  0  0  0
  -24.4136   36.5521   -9.9699 C   0  0  0  0  0  0  0  0  0  0  0  0
  -23.2836   36.9489  -10.6993 C   0  0  0  0  0  0  0  0  0  0  0  0
  -22.5197   36.0066  -11.3944 C   0  0  0  0  0  0  0  0  0  0  0  0
  -22.8822   34.6621  -11.3620 C   0  0  0  0  0  0  0  0  0  0  0  0
  -21.9435   33.5026  -12.2187 Cl  0  0  0  0  0  0  0  0  0  0  0  0
  -24.0003   34.2517  -10.6407 C   0  0  0  0  0  0  0  0  0  0  0  0
  -24.7624   35.1952   -9.9459 C   0  0  0  0  0  0  0  0  0  0  0  0
  -23.4905   38.9881   -8.1086 C   0  0  0  0  0  0  0  0  0  0  0  0
  -22.8744   40.0821   -8.7278 C   0  0  0  0  0  0  0  0  0  0  0  0
  -21.5596   40.4243   -8.4056 C   0  0  0  0  0  0  0  0  0  0  0  0
  -20.8528   39.6734   -7.4671 C   0  0  0  0  0  0  0  0  0  0  0  0
  -21.4583   38.5795   -6.8498 C   0  0  0  0  0  0  0  0  0  0  0  0
  -22.7734   38.2361   -7.1701 C   0  0  0  0  0  0  0  0  0  0  0  0
  -30.5211   37.6626   -8.4107 O   0  0  0  0  0  0  0  0  0  0  0  0
  -29.5487   38.1155   -8.9895 C   0  0  0  0  0  0  0  0  0  0  0  0
  -29.3571   37.9193  -10.3050 O   0  0  0  0  0  0  0  0  0  0  0  0
  -28.6013   38.2780  -10.7270 H   0  0  0  0  0  0  0  0  0  0  0  0
 24 25  2  0
 25 26  1  0
 25  1  1  0
  1  2  2  0
  2  3  1  0
  3  4  2  0
  4  5  1  0
  5  6  1  0
  6 18  1  0
 18 19  2  0
 19 20  1  0
 20 21  2  0
 21 22  1  0
 22 23  2  0
  6  7  2  0
  7 11  1  0
 11 12  2  0
 12 13  1  0
 13 14  2  0
 14 15  1  0
 14 16  1  0
 16 17  2  0
  7  8  1  0
  8  9  1  0
  9  1  1  0
  9  5  2  0
 23 18  1  0
 17 11  1  0
 26 27  1  0
  8 10  1  0
M  END
> <minimizedAffinity>
-2.95154

> <CNNscore>
0.3698676229

> <CNNaffinity>
4.7150673866

> <CNN_VS>
1.7439507246

> <CNNaffinity_variance>
0.4027177989

$$$$
