


 40 42  0  0  0  0  0  0  0  0999 V2000
   45.3955   14.2253    1.7377 C   0  0  0  0  0  0  0  0  0  0  0  0
   46.1448   14.6921    2.8029 C   0  0  0  0  0  0  0  0  0  0  0  0
   47.5099   13.6813    3.0612 S   0  0  0  0  0  0  0  0  0  0  0  0
   47.0414   12.5701    1.8420 C   0  0  0  0  0  0  0  0  0  0  0  0
   45.8988   13.0055    1.2076 C   0  0  0  0  0  0  0  0  0  0  0  0
   45.0052   12.1026   -0.2017 Br  0  0  0  0  0  0  0  0  0  0  0  0
   47.8483   11.3677    1.6298 C   0  0  0  0  0  0  0  0  0  0  0  0
   48.7380   11.2857    0.5561 C   0  0  0  0  0  0  0  0  0  0  0  0
   49.4649   10.1159    0.3444 C   0  0  0  0  0  0  0  0  0  0  0  0
   49.3187    9.0277    1.2115 C   0  0  0  0  0  0  0  0  0  0  0  0
   48.4765    9.0940    2.3230 C   0  0  0  0  0  0  0  0  0  0  0  0
   47.7197   10.2655    2.4922 C   0  0  0  0  0  0  0  0  0  0  0  0
   48.2353    8.0277    3.1909 N   0  0  0  0  0  0  0  0  0  0  0  0
   47.5855    7.3365    2.9275 H   0  0  0  0  0  0  0  0  0  0  0  0
   48.9174    7.9041    4.4801 C   0  0  0  0  0  0  0  0  0  0  0  0
   50.0798    6.9385    4.4087 C   0  0  0  0  0  0  0  0  0  0  0  0
   49.9588    5.6378    4.9213 C   0  0  0  0  0  0  0  0  0  0  0  0
   51.0328    4.7457    4.8610 C   0  0  0  0  0  0  0  0  0  0  0  0
   52.2394    5.1398    4.2860 C   0  0  0  0  0  0  0  0  0  0  0  0
   52.3766    6.4303    3.7767 C   0  0  0  0  0  0  0  0  0  0  0  0
   51.3048    7.3251    3.8385 C   0  0  0  0  0  0  0  0  0  0  0  0
   45.8889   15.8436    3.6419 C   0  0  0  0  0  0  0  0  0  0  0  0
   46.7093   16.6921    3.9778 O   0  0  0  0  0  0  0  0  0  0  0  0
   44.6093   15.9295    4.0572 O   0  0  0  0  0  0  0  0  0  0  0  0
   43.9877   15.2784    3.7973 H   0  0  0  0  0  0  0  0  0  0  0  0
   44.2391   14.8056    1.3240 O   0  0  0  0  0  0  0  0  0  0  0  0
   44.4629   15.8367    0.3699 C   0  0  0  0  0  0  0  0  0  0  0  0
   44.6816   15.2201   -1.0283 C   0  0  0  0  0  0  0  0  0  0  0  0
   43.9496   15.9453   -2.3027 N   0  0  0  0  0  0  0  0  0  0  0  0
   43.9445   14.9239   -3.4396 C   0  0  0  0  0  0  0  0  0  0  0  0
   42.5151   16.2351   -1.8800 C   0  0  0  0  0  0  0  0  0  0  0  0
   44.8172   17.1728   -2.5586 C   0  0  0  0  0  0  0  0  0  0  0  0
   45.9347   17.2632   -3.6472 N   0  0  0  0  0  0  0  0  0  0  0  0
   46.6872   15.9417   -3.7664 C   0  0  0  0  0  0  0  0  0  0  0  0
   45.1242   17.4216   -4.9566 C   0  0  0  0  0  0  0  0  0  0  0  0
   46.8513   18.4510   -3.4156 C   0  0  0  0  0  0  0  0  0  0  0  0
   47.4998   19.8193   -5.4991 C   0  0  0  0  0  0  0  0  0  0  0  0
   47.9481   18.8577   -4.3852 N   0  0  0  0  0  0  0  0  0  0  0  0
   48.9770   19.7030   -3.5407 C   0  0  0  0  0  0  0  0  0  0  0  0
   48.7752   17.7291   -4.9955 C   0  0  0  0  0  0  0  0  0  0  0  0
 37 38  1  0
 38 39  1  0
 38 40  1  0
 38 36  1  0
 36 33  1  0
 33 34  1  0
 33 35  1  0
 33 32  1  0
 32 29  1  0
 29 30  1  0
 29 31  1  0
 29 28  1  0
 28 27  1  0
 27 26  1  0
 26  1  1  0
  1  2  2  0
  2 22  1  0
 22 23  2  0
 22 24  1  0
  2  3  1  0
  3  4  1  0
  4  7  1  0
  7  8  2  0
  8  9  1  0
  9 10  2  0
 10 11  1  0
 11 13  1  0
 13 15  1  0
 15 16  1  0
 16 17  2  0
 17 18  1  0
 18 19  2  0
 19 20  1  0
 20 21  2  0
 11 12  2  0
  4  5  2  0
  5  6  1  0
  5  1  1  0
 12  7  1  0
 21 16  1  0
 24 25  1  0
 13 14  1  0
M  CHG 1  29   1
M  CHG 1  33   1
M  CHG 1  38   1
M  END
> <minimizedAffinity>
-5.86262

> <CNNscore>
0.3212921619

> <CNNaffinity>
6.4519977570

> <CNN_VS>
2.0729763508

> <CNNaffinity_variance>
0.0003519904

$$$$



 40 42  0  0  0  0  0  0  0  0999 V2000
   45.1165   14.6122    1.4568 C   0  0  0  0  0  0  0  0  0  0  0  0
   45.7316   15.0727    2.6073 C   0  0  0  0  0  0  0  0  0  0  0  0
   47.0353   14.0412    3.0412 S   0  0  0  0  0  0  0  0  0  0  0  0
   46.7073   12.9308    1.7762 C   0  0  0  0  0  0  0  0  0  0  0  0
   45.6624   13.3813    0.9997 C   0  0  0  0  0  0  0  0  0  0  0  0
   44.9406   12.4852   -0.5088 Br  0  0  0  0  0  0  0  0  0  0  0  0
   47.5141   11.7142    1.6730 C   0  0  0  0  0  0  0  0  0  0  0  0
   47.3482   10.6685    2.5840 C   0  0  0  0  0  0  0  0  0  0  0  0
   48.1564    9.5367    2.4967 C   0  0  0  0  0  0  0  0  0  0  0  0
   49.1238    9.4364    1.4910 C   0  0  0  0  0  0  0  0  0  0  0  0
   49.2817   10.4403    0.5338 C   0  0  0  0  0  0  0  0  0  0  0  0
   48.4879   11.5918    0.6670 C   0  0  0  0  0  0  0  0  0  0  0  0
   50.2661   10.4347   -0.4560 N   0  0  0  0  0  0  0  0  0  0  0  0
   50.7984    9.6181   -0.5939 H   0  0  0  0  0  0  0  0  0  0  0  0
   50.5323   11.6040   -1.2952 C   0  0  0  0  0  0  0  0  0  0  0  0
   51.9139   12.1685   -1.0478 C   0  0  0  0  0  0  0  0  0  0  0  0
   52.0922   13.5407   -0.8146 C   0  0  0  0  0  0  0  0  0  0  0  0
   53.3680   14.0653   -0.5908 C   0  0  0  0  0  0  0  0  0  0  0  0
   54.4808   13.2266   -0.5941 C   0  0  0  0  0  0  0  0  0  0  0  0
   54.3203   11.8618   -0.8291 C   0  0  0  0  0  0  0  0  0  0  0  0
   53.0457   11.3354   -1.0561 C   0  0  0  0  0  0  0  0  0  0  0  0
   45.3904   16.2331    3.4027 C   0  0  0  0  0  0  0  0  0  0  0  0
   44.6800   16.2423    4.4031 O   0  0  0  0  0  0  0  0  0  0  0  0
   45.9386   17.3761    2.9444 O   0  0  0  0  0  0  0  0  0  0  0  0
   46.4802   17.3624    2.1799 H   0  0  0  0  0  0  0  0  0  0  0  0
   44.0322   15.2090    0.8969 O   0  0  0  0  0  0  0  0  0  0  0  0
   44.3927   16.2533    0.0007 C   0  0  0  0  0  0  0  0  0  0  0  0
   44.7671   15.6597   -1.3741 C   0  0  0  0  0  0  0  0  0  0  0  0
   43.8644   16.1061   -2.6671 N   0  0  0  0  0  0  0  0  0  0  0  0
   43.9540   17.6293   -2.7542 C   0  0  0  0  0  0  0  0  0  0  0  0
   44.5221   15.4921   -3.8962 C   0  0  0  0  0  0  0  0  0  0  0  0
   42.4762   15.5719   -2.3318 C   0  0  0  0  0  0  0  0  0  0  0  0
   41.1884   15.8459   -3.1736 N   0  0  0  0  0  0  0  0  0  0  0  0
   40.5251   14.5386   -3.5956 C   0  0  0  0  0  0  0  0  0  0  0  0
   40.2389   16.5019   -2.1417 C   0  0  0  0  0  0  0  0  0  0  0  0
   41.4663   16.7759   -4.3408 C   0  0  0  0  0  0  0  0  0  0  0  0
   39.3616   16.5588   -5.8095 C   0  0  0  0  0  0  0  0  0  0  0  0
   40.8981   16.5575   -5.7329 N   0  0  0  0  0  0  0  0  0  0  0  0
   41.3245   17.8208   -6.5745 C   0  0  0  0  0  0  0  0  0  0  0  0
   41.4412   15.3640   -6.5143 C   0  0  0  0  0  0  0  0  0  0  0  0
 37 38  1  0
 38 39  1  0
 38 40  1  0
 38 36  1  0
 36 33  1  0
 33 34  1  0
 33 35  1  0
 33 32  1  0
 32 29  1  0
 29 30  1  0
 29 31  1  0
 29 28  1  0
 28 27  1  0
 27 26  1  0
 26  1  1  0
  1  2  2  0
  2 22  1  0
 22 23  2  0
 22 24  1  0
  2  3  1  0
  3  4  1  0
  4  7  1  0
  7  8  2  0
  8  9  1  0
  9 10  2  0
 10 11  1  0
 11 13  1  0
 13 15  1  0
 15 16  1  0
 16 17  2  0
 17 18  1  0
 18 19  2  0
 19 20  1  0
 20 21  2  0
 11 12  2  0
  4  5  2  0
  5  6  1  0
  5  1  1  0
 12  7  1  0
 21 16  1  0
 24 25  1  0
 13 14  1  0
M  CHG 1  29   1
M  CHG 1  33   1
M  CHG 1  38   1
M  END
> <minimizedAffinity>
-5.86788

> <CNNscore>
0.1416606903

> <CNNaffinity>
5.8919482231

> <CNN_VS>
0.8346574306

> <CNNaffinity_variance>
0.1082748175

$$$$



 40 42  0  0  0  0  0  0  0  0999 V2000
   45.0690   14.9286    1.6321 C   0  0  0  0  0  0  0  0  0  0  0  0
   45.6879   15.3432    2.7979 C   0  0  0  0  0  0  0  0  0  0  0  0
   46.9664   14.2715    3.2089 S   0  0  0  0  0  0  0  0  0  0  0  0
   46.6208   13.2043    1.9118 C   0  0  0  0  0  0  0  0  0  0  0  0
   45.5903   13.6992    1.1433 C   0  0  0  0  0  0  0  0  0  0  0  0
   44.8570   12.8616   -0.3931 Br  0  0  0  0  0  0  0  0  0  0  0  0
   47.4014   11.9735    1.7784 C   0  0  0  0  0  0  0  0  0  0  0  0
   47.2952   10.9547    2.7279 C   0  0  0  0  0  0  0  0  0  0  0  0
   48.0793    9.8092    2.6080 C   0  0  0  0  0  0  0  0  0  0  0  0
   48.9624    9.6681    1.5320 C   0  0  0  0  0  0  0  0  0  0  0  0
   49.0565   10.6441    0.5382 C   0  0  0  0  0  0  0  0  0  0  0  0
   48.2905   11.8104    0.7023 C   0  0  0  0  0  0  0  0  0  0  0  0
   49.9589   10.5979   -0.5258 N   0  0  0  0  0  0  0  0  0  0  0  0
   50.7728   10.0511   -0.4369 H   0  0  0  0  0  0  0  0  0  0  0  0
   49.7341   11.3363   -1.7694 C   0  0  0  0  0  0  0  0  0  0  0  0
   50.5559   12.6053   -1.8240 C   0  0  0  0  0  0  0  0  0  0  0  0
   50.2015   13.6473   -2.6945 C   0  0  0  0  0  0  0  0  0  0  0  0
   50.9619   14.8185   -2.7504 C   0  0  0  0  0  0  0  0  0  0  0  0
   52.0833   14.9651   -1.9363 C   0  0  0  0  0  0  0  0  0  0  0  0
   52.4509   13.9367   -1.0697 C   0  0  0  0  0  0  0  0  0  0  0  0
   51.6935   12.7634   -1.0142 C   0  0  0  0  0  0  0  0  0  0  0  0
   45.3681   16.4882    3.6238 C   0  0  0  0  0  0  0  0  0  0  0  0
   45.5034   17.6672    3.3117 O   0  0  0  0  0  0  0  0  0  0  0  0
   44.8806   16.1547    4.8355 O   0  0  0  0  0  0  0  0  0  0  0  0
   44.7797   15.2525    5.0678 H   0  0  0  0  0  0  0  0  0  0  0  0
   44.0011   15.5645    1.0840 O   0  0  0  0  0  0  0  0  0  0  0  0
   44.3779   16.4455    0.0325 C   0  0  0  0  0  0  0  0  0  0  0  0
   43.4897   16.1963   -1.2051 C   0  0  0  0  0  0  0  0  0  0  0  0
   44.1885   16.3261   -2.6819 N   0  0  0  0  0  0  0  0  0  0  0  0
   45.2595   15.2382   -2.7527 C   0  0  0  0  0  0  0  0  0  0  0  0
   43.1035   16.0320   -3.7097 C   0  0  0  0  0  0  0  0  0  0  0  0
   44.7318   17.7508   -2.6930 C   0  0  0  0  0  0  0  0  0  0  0  0
   45.4240   18.4312   -3.9178 N   0  0  0  0  0  0  0  0  0  0  0  0
   44.5944   19.6044   -4.4299 C   0  0  0  0  0  0  0  0  0  0  0  0
   46.7015   19.0423   -3.2923 C   0  0  0  0  0  0  0  0  0  0  0  0
   45.7646   17.4251   -5.0023 C   0  0  0  0  0  0  0  0  0  0  0  0
   46.5168   18.9220   -6.9587 C   0  0  0  0  0  0  0  0  0  0  0  0
   45.6615   17.7338   -6.4864 N   0  0  0  0  0  0  0  0  0  0  0  0
   46.2883   16.4918   -7.2287 C   0  0  0  0  0  0  0  0  0  0  0  0
   44.2538   17.8652   -7.0619 C   0  0  0  0  0  0  0  0  0  0  0  0
 37 38  1  0
 38 39  1  0
 38 40  1  0
 38 36  1  0
 36 33  1  0
 33 34  1  0
 33 35  1  0
 33 32  1  0
 32 29  1  0
 29 30  1  0
 29 31  1  0
 29 28  1  0
 28 27  1  0
 27 26  1  0
 26  1  1  0
  1  2  2  0
  2 22  1  0
 22 23  2  0
 22 24  1  0
  2  3  1  0
  3  4  1  0
  4  7  1  0
  7  8  2  0
  8  9  1  0
  9 10  2  0
 10 11  1  0
 11 13  1  0
 13 15  1  0
 15 16  1  0
 16 17  2  0
 17 18  1  0
 18 19  2  0
 19 20  1  0
 20 21  2  0
 11 12  2  0
  4  5  2  0
  5  6  1  0
  5  1  1  0
 12  7  1  0
 21 16  1  0
 24 25  1  0
 13 14  1  0
M  CHG 1  29   1
M  CHG 1  33   1
M  CHG 1  38   1
M  END
> <minimizedAffinity>
-6.24500

> <CNNscore>
0.1394739300

> <CNNaffinity>
6.0900149345

> <CNN_VS>
0.8493983150

> <CNNaffinity_variance>
0.1312131435

$$$$



 40 42  0  0  0  0  0  0  0  0999 V2000
   44.7598    9.1162   -2.9166 C   0  0  0  0  0  0  0  0  0  0  0  0
   43.7247    8.6315   -2.1371 C   0  0  0  0  0  0  0  0  0  0  0  0
   44.0966    8.8145   -0.4697 S   0  0  0  0  0  0  0  0  0  0  0  0
   45.6678    9.4244   -0.7859 C   0  0  0  0  0  0  0  0  0  0  0  0
   45.8721    9.5472   -2.1426 C   0  0  0  0  0  0  0  0  0  0  0  0
   47.4616   10.1728   -2.9684 Br  0  0  0  0  0  0  0  0  0  0  0  0
   46.5536    9.7215    0.3406 C   0  0  0  0  0  0  0  0  0  0  0  0
   47.1779    8.6918    1.0483 C   0  0  0  0  0  0  0  0  0  0  0  0
   47.9824    8.9919    2.1458 C   0  0  0  0  0  0  0  0  0  0  0  0
   48.1798   10.3217    2.5332 C   0  0  0  0  0  0  0  0  0  0  0  0
   47.6121   11.3775    1.8178 C   0  0  0  0  0  0  0  0  0  0  0  0
   46.7687   11.0509    0.7427 C   0  0  0  0  0  0  0  0  0  0  0  0
   47.7152   12.7205    2.1844 N   0  0  0  0  0  0  0  0  0  0  0  0
   48.2292   13.3331    1.6101 H   0  0  0  0  0  0  0  0  0  0  0  0
   47.0836   13.2473    3.3951 C   0  0  0  0  0  0  0  0  0  0  0  0
   46.9584   14.7543    3.3516 C   0  0  0  0  0  0  0  0  0  0  0  0
   47.9290   15.5681    3.9558 C   0  0  0  0  0  0  0  0  0  0  0  0
   47.8130   16.9604    3.9212 C   0  0  0  0  0  0  0  0  0  0  0  0
   46.7288   17.5573    3.2809 C   0  0  0  0  0  0  0  0  0  0  0  0
   45.7539   16.7621    2.6802 C   0  0  0  0  0  0  0  0  0  0  0  0
   45.8663   15.3695    2.7160 C   0  0  0  0  0  0  0  0  0  0  0  0
   42.4814    8.0307   -2.5715 C   0  0  0  0  0  0  0  0  0  0  0  0
   41.3520    8.4055   -2.2719 O   0  0  0  0  0  0  0  0  0  0  0  0
   42.6551    6.9647   -3.3781 O   0  0  0  0  0  0  0  0  0  0  0  0
   43.5201    6.6835   -3.6031 H   0  0  0  0  0  0  0  0  0  0  0  0
   44.7592    9.0720   -4.2743 O   0  0  0  0  0  0  0  0  0  0  0  0
   45.5944    8.0385   -4.7819 C   0  0  0  0  0  0  0  0  0  0  0  0
   45.0707    7.5667   -6.1551 C   0  0  0  0  0  0  0  0  0  0  0  0
   46.1139    7.5968   -7.4188 N   0  0  0  0  0  0  0  0  0  0  0  0
   45.3740    8.2653   -8.5769 C   0  0  0  0  0  0  0  0  0  0  0  0
   47.2880    8.4718   -6.9994 C   0  0  0  0  0  0  0  0  0  0  0  0
   46.4419    6.1246   -7.6429 C   0  0  0  0  0  0  0  0  0  0  0  0
   47.8569    5.5726   -8.0103 N   0  0  0  0  0  0  0  0  0  0  0  0
   47.8164    4.0611   -8.2120 C   0  0  0  0  0  0  0  0  0  0  0  0
   48.1129    6.1908   -9.4064 C   0  0  0  0  0  0  0  0  0  0  0  0
   48.9097    6.0112   -7.0084 C   0  0  0  0  0  0  0  0  0  0  0  0
   50.1014    4.2979   -5.4989 C   0  0  0  0  0  0  0  0  0  0  0  0
   49.0416    5.4063   -5.6209 N   0  0  0  0  0  0  0  0  0  0  0  0
   49.5884    6.5621   -4.6981 C   0  0  0  0  0  0  0  0  0  0  0  0
   47.7505    4.9459   -4.9494 C   0  0  0  0  0  0  0  0  0  0  0  0
 37 38  1  0
 38 39  1  0
 38 40  1  0
 38 36  1  0
 36 33  1  0
 33 34  1  0
 33 35  1  0
 33 32  1  0
 32 29  1  0
 29 30  1  0
 29 31  1  0
 29 28  1  0
 28 27  1  0
 27 26  1  0
 26  1  1  0
  1  2  2  0
  2 22  1  0
 22 23  2  0
 22 24  1  0
  2  3  1  0
  3  4  1  0
  4  7  1  0
  7  8  2  0
  8  9  1  0
  9 10  2  0
 10 11  1  0
 11 13  1  0
 13 15  1  0
 15 16  1  0
 16 17  2  0
 17 18  1  0
 18 19  2  0
 19 20  1  0
 20 21  2  0
 11 12  2  0
  4  5  2  0
  5  6  1  0
  5  1  1  0
 12  7  1  0
 21 16  1  0
 24 25  1  0
 13 14  1  0
M  CHG 1  29   1
M  CHG 1  33   1
M  CHG 1  38   1
M  END
> <minimizedAffinity>
-5.92708

> <CNNscore>
0.1308663487

> <CNNaffinity>
4.3529090881

> <CNN_VS>
0.5696493387

> <CNNaffinity_variance>
1.2553864717

$$$$



 40 42  0  0  0  0  0  0  0  0999 V2000
   45.1456   14.1862    1.4376 C   0  0  0  0  0  0  0  0  0  0  0  0
   45.1216   15.3562    2.1754 C   0  0  0  0  0  0  0  0  0  0  0  0
   44.5095   16.6495    1.2242 S   0  0  0  0  0  0  0  0  0  0  0  0
   44.3895   15.6843   -0.1882 C   0  0  0  0  0  0  0  0  0  0  0  0
   44.7475   14.3829    0.0867 C   0  0  0  0  0  0  0  0  0  0  0  0
   44.7773   12.9573   -1.1649 Br  0  0  0  0  0  0  0  0  0  0  0  0
   43.9546   16.3078   -1.4389 C   0  0  0  0  0  0  0  0  0  0  0  0
   44.8546   17.0278   -2.2279 C   0  0  0  0  0  0  0  0  0  0  0  0
   44.4120   17.6518   -3.3925 C   0  0  0  0  0  0  0  0  0  0  0  0
   43.0726   17.5480   -3.7833 C   0  0  0  0  0  0  0  0  0  0  0  0
   42.1581   16.7944   -3.0453 C   0  0  0  0  0  0  0  0  0  0  0  0
   42.6146   16.2111   -1.8514 C   0  0  0  0  0  0  0  0  0  0  0  0
   40.7972   16.6999   -3.3414 N   0  0  0  0  0  0  0  0  0  0  0  0
   40.2610   17.5244   -3.3862 H   0  0  0  0  0  0  0  0  0  0  0  0
   40.1419   15.4145   -3.5875 C   0  0  0  0  0  0  0  0  0  0  0  0
   38.8145   15.3155   -2.8684 C   0  0  0  0  0  0  0  0  0  0  0  0
   37.7144   16.0753   -3.2946 C   0  0  0  0  0  0  0  0  0  0  0  0
   36.4885   15.9893   -2.6290 C   0  0  0  0  0  0  0  0  0  0  0  0
   36.3450   15.1420   -1.5320 C   0  0  0  0  0  0  0  0  0  0  0  0
   37.4302   14.3844   -1.0937 C   0  0  0  0  0  0  0  0  0  0  0  0
   38.6578   14.4710   -1.7561 C   0  0  0  0  0  0  0  0  0  0  0  0
   45.5409   15.5602    3.5458 C   0  0  0  0  0  0  0  0  0  0  0  0
   44.8807   16.0895    4.4345 O   0  0  0  0  0  0  0  0  0  0  0  0
   46.7830   15.1018    3.7993 O   0  0  0  0  0  0  0  0  0  0  0  0
   47.2820   14.6986    3.1164 H   0  0  0  0  0  0  0  0  0  0  0  0
   45.6133   13.0057    1.9204 O   0  0  0  0  0  0  0  0  0  0  0  0
   46.9315   12.7209    1.4679 C   0  0  0  0  0  0  0  0  0  0  0  0
   47.5305   11.5609    2.2916 C   0  0  0  0  0  0  0  0  0  0  0  0
   47.8953   10.1737    1.4988 N   0  0  0  0  0  0  0  0  0  0  0  0
   46.6226    9.7417    0.7712 C   0  0  0  0  0  0  0  0  0  0  0  0
   48.9676   10.5211    0.4743 C   0  0  0  0  0  0  0  0  0  0  0  0
   48.3365    9.2331    2.6149 C   0  0  0  0  0  0  0  0  0  0  0  0
   49.1504    7.9163    2.4011 N   0  0  0  0  0  0  0  0  0  0  0  0
   48.5250    7.0615    1.3033 C   0  0  0  0  0  0  0  0  0  0  0  0
   50.4954    8.4340    1.8358 C   0  0  0  0  0  0  0  0  0  0  0  0
   49.3502    7.1606    3.7024 C   0  0  0  0  0  0  0  0  0  0  0  0
   51.1539    5.4458    3.0390 C   0  0  0  0  0  0  0  0  0  0  0  0
   49.8244    5.7184    3.7633 N   0  0  0  0  0  0  0  0  0  0  0  0
   50.1498    5.4363    5.2801 C   0  0  0  0  0  0  0  0  0  0  0  0
   48.8090    4.6471    3.3742 C   0  0  0  0  0  0  0  0  0  0  0  0
 37 38  1  0
 38 39  1  0
 38 40  1  0
 38 36  1  0
 36 33  1  0
 33 34  1  0
 33 35  1  0
 33 32  1  0
 32 29  1  0
 29 30  1  0
 29 31  1  0
 29 28  1  0
 28 27  1  0
 27 26  1  0
 26  1  1  0
  1  2  2  0
  2 22  1  0
 22 23  2  0
 22 24  1  0
  2  3  1  0
  3  4  1  0
  4  7  1  0
  7  8  2  0
  8  9  1  0
  9 10  2  0
 10 11  1  0
 11 13  1  0
 13 15  1  0
 15 16  1  0
 16 17  2  0
 17 18  1  0
 18 19  2  0
 19 20  1  0
 20 21  2  0
 11 12  2  0
  4  5  2  0
  5  6  1  0
  5  1  1  0
 12  7  1  0
 21 16  1  0
 24 25  1  0
 13 14  1  0
M  CHG 1  29   1
M  CHG 1  33   1
M  CHG 1  38   1
M  END
> <minimizedAffinity>
-6.69846

> <CNNscore>
0.1272093356

> <CNNaffinity>
5.3809261322

> <CNN_VS>
0.6845040321

> <CNNaffinity_variance>
1.3590277433

$$$$



 40 42  0  0  0  0  0  0  0  0999 V2000
   45.3184   14.4047    1.6273 C   0  0  0  0  0  0  0  0  0  0  0  0
   45.0986   15.5331    2.3969 C   0  0  0  0  0  0  0  0  0  0  0  0
   44.3162   16.7473    1.4665 S   0  0  0  0  0  0  0  0  0  0  0  0
   44.3771   15.8208    0.0248 C   0  0  0  0  0  0  0  0  0  0  0  0
   44.9247   14.5813    0.2724 C   0  0  0  0  0  0  0  0  0  0  0  0
   45.2009   13.2178   -1.0177 Br  0  0  0  0  0  0  0  0  0  0  0  0
   43.8793   16.4100   -1.2189 C   0  0  0  0  0  0  0  0  0  0  0  0
   44.7176   17.1781   -2.0302 C   0  0  0  0  0  0  0  0  0  0  0  0
   44.2139   17.7680   -3.1877 C   0  0  0  0  0  0  0  0  0  0  0  0
   42.8752   17.5820   -3.5492 C   0  0  0  0  0  0  0  0  0  0  0  0
   42.0232   16.7792   -2.7885 C   0  0  0  0  0  0  0  0  0  0  0  0
   42.5391   16.2310   -1.6022 C   0  0  0  0  0  0  0  0  0  0  0  0
   40.6645   16.6019   -3.0550 N   0  0  0  0  0  0  0  0  0  0  0  0
   40.3653   16.5511   -3.9915 H   0  0  0  0  0  0  0  0  0  0  0  0
   39.6704   16.4889   -1.9867 C   0  0  0  0  0  0  0  0  0  0  0  0
   38.9377   15.1664   -2.0405 C   0  0  0  0  0  0  0  0  0  0  0  0
   37.8400   14.9247   -1.2004 C   0  0  0  0  0  0  0  0  0  0  0  0
   37.1647   13.7019   -1.2448 C   0  0  0  0  0  0  0  0  0  0  0  0
   37.5748   12.7070   -2.1301 C   0  0  0  0  0  0  0  0  0  0  0  0
   38.6666   12.9304   -2.9677 C   0  0  0  0  0  0  0  0  0  0  0  0
   39.3452   14.1514   -2.9230 C   0  0  0  0  0  0  0  0  0  0  0  0
   45.4513   15.7549    3.7833 C   0  0  0  0  0  0  0  0  0  0  0  0
   44.7559   16.3106    4.6279 O   0  0  0  0  0  0  0  0  0  0  0  0
   46.6709   15.2812    4.1076 O   0  0  0  0  0  0  0  0  0  0  0  0
   47.1971   14.8578    3.4581 H   0  0  0  0  0  0  0  0  0  0  0  0
   45.9512   13.2948    2.0890 O   0  0  0  0  0  0  0  0  0  0  0  0
   45.4581   12.1028    1.4895 C   0  0  0  0  0  0  0  0  0  0  0  0
   46.3591   10.9098    1.8741 C   0  0  0  0  0  0  0  0  0  0  0  0
   47.6508   10.5920    0.9168 N   0  0  0  0  0  0  0  0  0  0  0  0
   48.3438   11.9304    0.6640 C   0  0  0  0  0  0  0  0  0  0  0  0
   48.5794    9.6875    1.7167 C   0  0  0  0  0  0  0  0  0  0  0  0
   47.0268    9.9584   -0.3218 C   0  0  0  0  0  0  0  0  0  0  0  0
   47.7900    9.0501   -1.3389 N   0  0  0  0  0  0  0  0  0  0  0  0
   48.0474    7.6675   -0.7479 C   0  0  0  0  0  0  0  0  0  0  0  0
   46.7499    8.8533   -2.4685 C   0  0  0  0  0  0  0  0  0  0  0  0
   49.0502    9.7200   -1.8563 C   0  0  0  0  0  0  0  0  0  0  0  0
   49.3856   10.2207   -4.3604 C   0  0  0  0  0  0  0  0  0  0  0  0
   49.0451   10.7625   -2.9615 N   0  0  0  0  0  0  0  0  0  0  0  0
   47.5495   11.2447   -3.0911 C   0  0  0  0  0  0  0  0  0  0  0  0
   49.8469   12.0359   -2.7048 C   0  0  0  0  0  0  0  0  0  0  0  0
 37 38  1  0
 38 39  1  0
 38 40  1  0
 38 36  1  0
 36 33  1  0
 33 34  1  0
 33 35  1  0
 33 32  1  0
 32 29  1  0
 29 30  1  0
 29 31  1  0
 29 28  1  0
 28 27  1  0
 27 26  1  0
 26  1  1  0
  1  2  2  0
  2 22  1  0
 22 23  2  0
 22 24  1  0
  2  3  1  0
  3  4  1  0
  4  7  1  0
  7  8  2  0
  8  9  1  0
  9 10  2  0
 10 11  1  0
 11 13  1  0
 13 15  1  0
 15 16  1  0
 16 17  2  0
 17 18  1  0
 18 19  2  0
 19 20  1  0
 20 21  2  0
 11 12  2  0
  4  5  2  0
  5  6  1  0
  5  1  1  0
 12  7  1  0
 21 16  1  0
 24 25  1  0
 13 14  1  0
M  CHG 1  29   1
M  CHG 1  33   1
M  CHG 1  38   1
M  END
> <minimizedAffinity>
-6.09393

> <CNNscore>
0.1180373952

> <CNNaffinity>
5.3834042549

> <CNN_VS>
0.6354430318

> <CNNaffinity_variance>
0.9594459534

$$$$



 40 42  0  0  0  0  0  0  0  0999 V2000
   45.5025   14.4246    1.4930 C   0  0  0  0  0  0  0  0  0  0  0  0
   45.2019   15.5157    2.2888 C   0  0  0  0  0  0  0  0  0  0  0  0
   44.3357   16.6929    1.3855 S   0  0  0  0  0  0  0  0  0  0  0  0
   44.4639   15.8079   -0.0777 C   0  0  0  0  0  0  0  0  0  0  0  0
   45.0985   14.6050    0.1416 C   0  0  0  0  0  0  0  0  0  0  0  0
   45.4725   13.2960   -1.1798 Br  0  0  0  0  0  0  0  0  0  0  0  0
   43.9265   16.3897   -1.3084 C   0  0  0  0  0  0  0  0  0  0  0  0
   44.7424   17.1395   -2.1588 C   0  0  0  0  0  0  0  0  0  0  0  0
   44.2022   17.7229   -3.3031 C   0  0  0  0  0  0  0  0  0  0  0  0
   42.8489   17.5488   -3.6123 C   0  0  0  0  0  0  0  0  0  0  0  0
   42.0172   16.7640   -2.8114 C   0  0  0  0  0  0  0  0  0  0  0  0
   42.5709   16.2224   -1.6393 C   0  0  0  0  0  0  0  0  0  0  0  0
   40.6475   16.5996   -3.0250 N   0  0  0  0  0  0  0  0  0  0  0  0
   40.3087   16.5766   -3.9491 H   0  0  0  0  0  0  0  0  0  0  0  0
   39.6988   16.4604   -1.9191 C   0  0  0  0  0  0  0  0  0  0  0  0
   38.9388   15.1545   -1.9938 C   0  0  0  0  0  0  0  0  0  0  0  0
   39.1905   14.2413   -3.0291 C   0  0  0  0  0  0  0  0  0  0  0  0
   38.4862   13.0364   -3.1030 C   0  0  0  0  0  0  0  0  0  0  0  0
   37.5245   12.7272   -2.1432 C   0  0  0  0  0  0  0  0  0  0  0  0
   37.2598   13.6264   -1.1113 C   0  0  0  0  0  0  0  0  0  0  0  0
   37.9608   14.8332   -1.0370 C   0  0  0  0  0  0  0  0  0  0  0  0
   45.5366   15.7287    3.6809 C   0  0  0  0  0  0  0  0  0  0  0  0
   46.5817   15.3998    4.2334 O   0  0  0  0  0  0  0  0  0  0  0  0
   44.5640   16.3518    4.3759 O   0  0  0  0  0  0  0  0  0  0  0  0
   43.7683   16.6004    3.9481 H   0  0  0  0  0  0  0  0  0  0  0  0
   46.2125   13.3520    1.9298 O   0  0  0  0  0  0  0  0  0  0  0  0
   45.5188   12.1264    1.7288 C   0  0  0  0  0  0  0  0  0  0  0  0
   46.2869   10.9710    2.4055 C   0  0  0  0  0  0  0  0  0  0  0  0
   47.3971   10.1665    1.5077 N   0  0  0  0  0  0  0  0  0  0  0  0
   46.6269    9.4711    0.3856 C   0  0  0  0  0  0  0  0  0  0  0  0
   48.3224   11.2170    0.9071 C   0  0  0  0  0  0  0  0  0  0  0  0
   48.0459    9.2196    2.5113 C   0  0  0  0  0  0  0  0  0  0  0  0
   49.2034    8.2240    2.1779 N   0  0  0  0  0  0  0  0  0  0  0  0
   49.8058    7.6424    3.4529 C   0  0  0  0  0  0  0  0  0  0  0  0
   48.4616    7.0599    1.4771 C   0  0  0  0  0  0  0  0  0  0  0  0
   50.2395    8.8517    1.2629 C   0  0  0  0  0  0  0  0  0  0  0  0
   51.2393    6.6193    0.4560 C   0  0  0  0  0  0  0  0  0  0  0  0
   50.9287    8.0928    0.1415 N   0  0  0  0  0  0  0  0  0  0  0  0
   49.8822    8.0208   -1.0357 C   0  0  0  0  0  0  0  0  0  0  0  0
   52.1634    8.7490   -0.4710 C   0  0  0  0  0  0  0  0  0  0  0  0
 37 38  1  0
 38 39  1  0
 38 40  1  0
 38 36  1  0
 36 33  1  0
 33 34  1  0
 33 35  1  0
 33 32  1  0
 32 29  1  0
 29 30  1  0
 29 31  1  0
 29 28  1  0
 28 27  1  0
 27 26  1  0
 26  1  1  0
  1  2  2  0
  2 22  1  0
 22 23  2  0
 22 24  1  0
  2  3  1  0
  3  4  1  0
  4  7  1  0
  7  8  2  0
  8  9  1  0
  9 10  2  0
 10 11  1  0
 11 13  1  0
 13 15  1  0
 15 16  1  0
 16 17  2  0
 17 18  1  0
 18 19  2  0
 19 20  1  0
 20 21  2  0
 11 12  2  0
  4  5  2  0
  5  6  1  0
  5  1  1  0
 12  7  1  0
 21 16  1  0
 24 25  1  0
 13 14  1  0
M  CHG 1  29   1
M  CHG 1  33   1
M  CHG 1  38   1
M  END
> <minimizedAffinity>
-6.13460

> <CNNscore>
0.1139611974

> <CNNaffinity>
5.5256276131

> <CNN_VS>
0.6297071576

> <CNNaffinity_variance>
0.8081232905

$$$$



 40 42  0  0  0  0  0  0  0  0999 V2000
   44.8236    8.8456   -2.9064 C   0  0  0  0  0  0  0  0  0  0  0  0
   43.7214    8.5375   -2.1290 C   0  0  0  0  0  0  0  0  0  0  0  0
   44.0497    8.8590   -0.4735 S   0  0  0  0  0  0  0  0  0  0  0  0
   45.6806    9.2918   -0.7790 C   0  0  0  0  0  0  0  0  0  0  0  0
   45.9430    9.2547   -2.1308 C   0  0  0  0  0  0  0  0  0  0  0  0
   47.6115    9.6486   -2.9435 Br  0  0  0  0  0  0  0  0  0  0  0  0
   46.5499    9.6249    0.3504 C   0  0  0  0  0  0  0  0  0  0  0  0
   47.1761    8.6188    1.0897 C   0  0  0  0  0  0  0  0  0  0  0  0
   47.9644    8.9533    2.1890 C   0  0  0  0  0  0  0  0  0  0  0  0
   48.1437   10.2939    2.5468 C   0  0  0  0  0  0  0  0  0  0  0  0
   47.5738   11.3265    1.7998 C   0  0  0  0  0  0  0  0  0  0  0  0
   46.7467   10.9656    0.7230 C   0  0  0  0  0  0  0  0  0  0  0  0
   47.6589   12.6788    2.1353 N   0  0  0  0  0  0  0  0  0  0  0  0
   48.1433   13.2894    1.5338 H   0  0  0  0  0  0  0  0  0  0  0  0
   47.0511   13.2181    3.3527 C   0  0  0  0  0  0  0  0  0  0  0  0
   46.9040   14.7224    3.2866 C   0  0  0  0  0  0  0  0  0  0  0  0
   47.8775   15.5596    3.8526 C   0  0  0  0  0  0  0  0  0  0  0  0
   47.7414   16.9494    3.7971 C   0  0  0  0  0  0  0  0  0  0  0  0
   46.6337   17.5203    3.1737 C   0  0  0  0  0  0  0  0  0  0  0  0
   45.6555   16.7017    2.6109 C   0  0  0  0  0  0  0  0  0  0  0  0
   45.7882   15.3116    2.6677 C   0  0  0  0  0  0  0  0  0  0  0  0
   42.4439    8.0070   -2.5559 C   0  0  0  0  0  0  0  0  0  0  0  0
   41.3387    8.4178   -2.2161 O   0  0  0  0  0  0  0  0  0  0  0  0
   42.5536    6.9660   -3.4052 O   0  0  0  0  0  0  0  0  0  0  0  0
   43.4004    6.6571   -3.6609 H   0  0  0  0  0  0  0  0  0  0  0  0
   44.8667    8.6610   -4.2515 O   0  0  0  0  0  0  0  0  0  0  0  0
   44.3771    9.7884   -4.9677 C   0  0  0  0  0  0  0  0  0  0  0  0
   45.4003   10.2126   -6.0428 C   0  0  0  0  0  0  0  0  0  0  0  0
   44.8181   10.7575   -7.4746 N   0  0  0  0  0  0  0  0  0  0  0  0
   45.5089    9.9383   -8.5643 C   0  0  0  0  0  0  0  0  0  0  0  0
   43.3255   10.4541   -7.4869 C   0  0  0  0  0  0  0  0  0  0  0  0
   45.1853   12.2373   -7.4666 C   0  0  0  0  0  0  0  0  0  0  0  0
   44.1796   13.4066   -7.7183 N   0  0  0  0  0  0  0  0  0  0  0  0
   44.8881   14.7563   -7.6610 C   0  0  0  0  0  0  0  0  0  0  0  0
   43.7700   13.1929   -9.1959 C   0  0  0  0  0  0  0  0  0  0  0  0
   42.9789   13.3252   -6.7930 C   0  0  0  0  0  0  0  0  0  0  0  0
   42.4801   15.1328   -5.0272 C   0  0  0  0  0  0  0  0  0  0  0  0
   43.0276   13.7271   -5.3286 N   0  0  0  0  0  0  0  0  0  0  0  0
   42.0298   12.7597   -4.5837 C   0  0  0  0  0  0  0  0  0  0  0  0
   44.3625   13.5413   -4.6119 C   0  0  0  0  0  0  0  0  0  0  0  0
 37 38  1  0
 38 39  1  0
 38 40  1  0
 38 36  1  0
 36 33  1  0
 33 34  1  0
 33 35  1  0
 33 32  1  0
 32 29  1  0
 29 30  1  0
 29 31  1  0
 29 28  1  0
 28 27  1  0
 27 26  1  0
 26  1  1  0
  1  2  2  0
  2 22  1  0
 22 23  2  0
 22 24  1  0
  2  3  1  0
  3  4  1  0
  4  7  1  0
  7  8  2  0
  8  9  1  0
  9 10  2  0
 10 11  1  0
 11 13  1  0
 13 15  1  0
 15 16  1  0
 16 17  2  0
 17 18  1  0
 18 19  2  0
 19 20  1  0
 20 21  2  0
 11 12  2  0
  4  5  2  0
  5  6  1  0
  5  1  1  0
 12  7  1  0
 21 16  1  0
 24 25  1  0
 13 14  1  0
M  CHG 1  29   1
M  CHG 1  33   1
M  CHG 1  38   1
M  END
> <minimizedAffinity>
-5.84284

> <CNNscore>
0.1036212295

> <CNNaffinity>
4.3771591187

> <CNN_VS>
0.4535666108

> <CNNaffinity_variance>
1.4562159777

$$$$



 40 42  0  0  0  0  0  0  0  0999 V2000
   45.0112   14.2232    0.7360 C   0  0  0  0  0  0  0  0  0  0  0  0
   45.2990   14.5758    2.0425 C   0  0  0  0  0  0  0  0  0  0  0  0
   46.5991   13.6274    2.6444 S   0  0  0  0  0  0  0  0  0  0  0  0
   46.6972   12.6792    1.2189 C   0  0  0  0  0  0  0  0  0  0  0  0
   45.7960   13.1290    0.2791 C   0  0  0  0  0  0  0  0  0  0  0  0
   45.5381   12.3872   -1.4480 Br  0  0  0  0  0  0  0  0  0  0  0  0
   47.6562   11.5750    1.1657 C   0  0  0  0  0  0  0  0  0  0  0  0
   48.7046   11.5842    0.2428 C   0  0  0  0  0  0  0  0  0  0  0  0
   49.5813   10.5031    0.1771 C   0  0  0  0  0  0  0  0  0  0  0  0
   49.4252    9.4145    1.0418 C   0  0  0  0  0  0  0  0  0  0  0  0
   48.4193    9.3956    2.0098 C   0  0  0  0  0  0  0  0  0  0  0  0
   47.5196   10.4744    2.0290 C   0  0  0  0  0  0  0  0  0  0  0  0
   48.1673    8.3178    2.8604 N   0  0  0  0  0  0  0  0  0  0  0  0
   47.3643    7.7687    2.7088 H   0  0  0  0  0  0  0  0  0  0  0  0
   49.0586    7.9777    3.9705 C   0  0  0  0  0  0  0  0  0  0  0  0
   50.1598    7.0354    3.5366 C   0  0  0  0  0  0  0  0  0  0  0  0
   51.4972    7.4603    3.5219 C   0  0  0  0  0  0  0  0  0  0  0  0
   52.5155    6.5932    3.1167 C   0  0  0  0  0  0  0  0  0  0  0  0
   52.2120    5.2911    2.7241 C   0  0  0  0  0  0  0  0  0  0  0  0
   50.8876    4.8558    2.7288 C   0  0  0  0  0  0  0  0  0  0  0  0
   49.8672    5.7221    3.1308 C   0  0  0  0  0  0  0  0  0  0  0  0
   44.6483   15.5732    2.8655 C   0  0  0  0  0  0  0  0  0  0  0  0
   44.9844   15.9111    3.9963 O   0  0  0  0  0  0  0  0  0  0  0  0
   43.5810   16.1437    2.2717 O   0  0  0  0  0  0  0  0  0  0  0  0
   43.3295   15.8813    1.4081 H   0  0  0  0  0  0  0  0  0  0  0  0
   44.0064   14.7829    0.0132 O   0  0  0  0  0  0  0  0  0  0  0  0
   44.3802   16.0323   -0.5548 C   0  0  0  0  0  0  0  0  0  0  0  0
   44.6806   15.8568   -2.0587 C   0  0  0  0  0  0  0  0  0  0  0  0
   43.5368   16.3467   -3.1254 N   0  0  0  0  0  0  0  0  0  0  0  0
   43.7693   17.8394   -3.3566 C   0  0  0  0  0  0  0  0  0  0  0  0
   43.7923   15.5906   -4.4228 C   0  0  0  0  0  0  0  0  0  0  0  0
   42.2272   16.0120   -2.4197 C   0  0  0  0  0  0  0  0  0  0  0  0
   40.8640   15.7626   -3.1419 N   0  0  0  0  0  0  0  0  0  0  0  0
   40.8171   16.4887   -4.4827 C   0  0  0  0  0  0  0  0  0  0  0  0
   40.9217   14.2504   -3.4681 C   0  0  0  0  0  0  0  0  0  0  0  0
   39.6838   16.0917   -2.2455 C   0  0  0  0  0  0  0  0  0  0  0  0
   37.6357   14.9112   -1.2231 C   0  0  0  0  0  0  0  0  0  0  0  0
   38.2880   15.5348   -2.4690 N   0  0  0  0  0  0  0  0  0  0  0  0
   37.3760   16.7786   -2.7968 C   0  0  0  0  0  0  0  0  0  0  0  0
   38.1089   14.5931   -3.6569 C   0  0  0  0  0  0  0  0  0  0  0  0
 37 38  1  0
 38 39  1  0
 38 40  1  0
 38 36  1  0
 36 33  1  0
 33 34  1  0
 33 35  1  0
 33 32  1  0
 32 29  1  0
 29 30  1  0
 29 31  1  0
 29 28  1  0
 28 27  1  0
 27 26  1  0
 26  1  1  0
  1  2  2  0
  2 22  1  0
 22 23  2  0
 22 24  1  0
  2  3  1  0
  3  4  1  0
  4  7  1  0
  7  8  2  0
  8  9  1  0
  9 10  2  0
 10 11  1  0
 11 13  1  0
 13 15  1  0
 15 16  1  0
 16 17  2  0
 17 18  1  0
 18 19  2  0
 19 20  1  0
 20 21  2  0
 11 12  2  0
  4  5  2  0
  5  6  1  0
  5  1  1  0
 12  7  1  0
 21 16  1  0
 24 25  1  0
 13 14  1  0
M  CHG 1  29   1
M  CHG 1  33   1
M  CHG 1  38   1
M  END
> <minimizedAffinity>
-5.90654

> <CNNscore>
0.0994888842

> <CNNaffinity>
5.5801568031

> <CNN_VS>
0.5551635623

> <CNNaffinity_variance>
0.4359062612

$$$$
