


 28 31  0  0  0  0  0  0  0  0999 V2000
   14.7157    7.6954  -34.9192 C   0  0  0  0  0  0  0  0  0  0  0  0
   14.9170    8.7741  -35.7629 C   0  0  0  0  0  0  0  0  0  0  0  0
   16.2732    8.9804  -35.8613 N   0  0  0  0  0  0  0  0  0  0  0  0
   16.9552    8.0935  -35.1018 N   0  0  0  0  0  0  0  0  0  0  0  0
   16.0329    7.2892  -34.5607 C   0  0  0  0  0  0  0  0  0  0  0  0
   10.3781    8.6796  -35.1343 O   0  0  0  0  0  0  0  0  0  0  0  0
   11.3473    7.9446  -35.0919 C   0  0  0  0  0  0  0  0  0  0  0  0
   11.5356    6.8260  -35.8286 N   0  0  0  0  0  0  0  0  0  0  0  0
   12.7409    6.2579  -35.5454 C   0  0  0  0  0  0  0  0  0  0  0  0
   13.1761    5.2456  -36.0744 O   0  0  0  0  0  0  0  0  0  0  0  0
   13.4315    7.0988  -34.4667 C   0  0  0  0  0  0  0  0  0  0  0  0
   12.4396    8.1275  -34.2823 N   0  0  0  0  0  0  0  0  0  0  0  0
   10.8893    6.4706  -36.4808 H   0  0  0  0  0  0  0  0  0  0  0  0
   12.5348    8.8749  -33.6487 H   0  0  0  0  0  0  0  0  0  0  0  0
   16.9593    9.9734  -36.6172 C   0  0  0  0  0  0  0  0  0  0  0  0
   18.2753   10.3184  -36.2662 C   0  0  0  0  0  0  0  0  0  0  0  0
   18.9697   11.2900  -36.9922 C   0  0  0  0  0  0  0  0  0  0  0  0
   18.3525   11.9188  -38.0702 C   0  0  0  0  0  0  0  0  0  0  0  0
   19.2896   13.2332  -39.0533 Br  0  0  0  0  0  0  0  0  0  0  0  0
   17.0479   11.5852  -38.4297 C   0  0  0  0  0  0  0  0  0  0  0  0
   16.3486   10.6128  -37.7059 C   0  0  0  0  0  0  0  0  0  0  0  0
   16.4386    6.1876  -33.6932 C   0  0  0  0  0  0  0  0  0  0  0  0
   15.8488    4.9214  -33.8173 C   0  0  0  0  0  0  0  0  0  0  0  0
   16.2394    3.8794  -32.9728 C   0  0  0  0  0  0  0  0  0  0  0  0
   17.2214    4.1030  -32.0144 C   0  0  0  0  0  0  0  0  0  0  0  0
   17.5938    3.1023  -31.2061 F   0  0  0  0  0  0  0  0  0  0  0  0
   17.8270    5.3474  -31.8868 C   0  0  0  0  0  0  0  0  0  0  0  0
   17.4386    6.3906  -32.7297 C   0  0  0  0  0  0  0  0  0  0  0  0
  6  7  2  0
  7  8  1  0
  8  9  1  0
  9 10  2  0
  9 11  1  0
 11  1  1  0
  1  2  2  0
  2  3  1  0
  3 15  1  0
 15 16  2  0
 16 17  1  0
 17 18  2  0
 18 19  1  0
 18 20  1  0
 20 21  2  0
  3  4  1  0
  4  5  2  0
  5 22  1  0
 22 23  2  0
 23 24  1  0
 24 25  2  0
 25 26  1  0
 25 27  1  0
 27 28  2  0
 11 12  1  0
 12  7  1  0
  5  1  1  0
 28 22  1  0
 21 15  1  0
  8 13  1  0
 12 14  1  0
M  END
> <minimizedAffinity>
-9.12035

> <CNNscore>
0.9055295587

> <CNNaffinity>
6.9500656128

> <CNN_VS>
6.2934899330

> <CNNaffinity_variance>
0.0136583447

$$$$



 28 31  0  0  0  0  0  0  0  0999 V2000
   11.4416   10.0267  -34.9096 C   0  0  0  0  0  0  0  0  0  0  0  0
   12.7454    9.7877  -34.5110 C   0  0  0  0  0  0  0  0  0  0  0  0
   12.9637    8.4319  -34.5863 N   0  0  0  0  0  0  0  0  0  0  0  0
   11.8506    7.7834  -34.9977 N   0  0  0  0  0  0  0  0  0  0  0  0
   10.9392    8.7341  -35.2339 C   0  0  0  0  0  0  0  0  0  0  0  0
    7.8851   11.8931  -32.9865 O   0  0  0  0  0  0  0  0  0  0  0  0
    8.9871   11.8802  -33.5030 C   0  0  0  0  0  0  0  0  0  0  0  0
   10.0700   12.5805  -33.0949 N   0  0  0  0  0  0  0  0  0  0  0  0
   11.1455   12.3124  -33.8867 C   0  0  0  0  0  0  0  0  0  0  0  0
   12.2585   12.7955  -33.7382 O   0  0  0  0  0  0  0  0  0  0  0  0
   10.7133   11.3211  -34.9721 C   0  0  0  0  0  0  0  0  0  0  0  0
    9.3328   11.1366  -34.6029 N   0  0  0  0  0  0  0  0  0  0  0  0
   10.0795   13.1997  -32.3296 H   0  0  0  0  0  0  0  0  0  0  0  0
    8.7098   10.5455  -35.0842 H   0  0  0  0  0  0  0  0  0  0  0  0
   14.1548    7.7143  -34.2788 C   0  0  0  0  0  0  0  0  0  0  0  0
   15.3501    8.4222  -34.0692 C   0  0  0  0  0  0  0  0  0  0  0  0
   16.5323    7.7408  -33.7665 C   0  0  0  0  0  0  0  0  0  0  0  0
   16.5237    6.3518  -33.6719 C   0  0  0  0  0  0  0  0  0  0  0  0
   18.1213    5.4282  -33.2630 Br  0  0  0  0  0  0  0  0  0  0  0  0
   15.3446    5.6374  -33.8765 C   0  0  0  0  0  0  0  0  0  0  0  0
   14.1584    6.3153  -34.1797 C   0  0  0  0  0  0  0  0  0  0  0  0
    9.6126    8.3725  -35.7241 C   0  0  0  0  0  0  0  0  0  0  0  0
    9.1688    8.8070  -36.9813 C   0  0  0  0  0  0  0  0  0  0  0  0
    7.8924    8.4622  -37.4327 C   0  0  0  0  0  0  0  0  0  0  0  0
    7.0684    7.6797  -36.6318 C   0  0  0  0  0  0  0  0  0  0  0  0
    5.8453    7.3509  -37.0669 F   0  0  0  0  0  0  0  0  0  0  0  0
    7.4971    7.2282  -35.3892 C   0  0  0  0  0  0  0  0  0  0  0  0
    8.7724    7.5712  -34.9356 C   0  0  0  0  0  0  0  0  0  0  0  0
  6  7  2  0
  7  8  1  0
  8  9  1  0
  9 10  2  0
  9 11  1  0
 11  1  1  0
  1  2  2  0
  2  3  1  0
  3 15  1  0
 15 16  2  0
 16 17  1  0
 17 18  2  0
 18 19  1  0
 18 20  1  0
 20 21  2  0
  3  4  1  0
  4  5  2  0
  5 22  1  0
 22 23  2  0
 23 24  1  0
 24 25  2  0
 25 26  1  0
 25 27  1  0
 27 28  2  0
 11 12  1  0
 12  7  1  0
  5  1  1  0
 28 22  1  0
 21 15  1  0
  8 13  1  0
 12 14  1  0
M  END
> <minimizedAffinity>
-8.07241

> <CNNscore>
0.7870936990

> <CNNaffinity>
6.1626415253

> <CNN_VS>
4.8505764008

> <CNNaffinity_variance>
0.0902302787

$$$$



 28 31  0  0  0  0  0  0  0  0999 V2000
   11.6029    8.4959  -35.7319 C   0  0  0  0  0  0  0  0  0  0  0  0
   12.3375    7.5581  -35.0269 C   0  0  0  0  0  0  0  0  0  0  0  0
   13.6364    8.0057  -34.9642 N   0  0  0  0  0  0  0  0  0  0  0  0
   13.7759    9.1828  -35.6152 N   0  0  0  0  0  0  0  0  0  0  0  0
   12.5526    9.5091  -36.0480 C   0  0  0  0  0  0  0  0  0  0  0  0
    7.9139    6.4056  -34.3711 O   0  0  0  0  0  0  0  0  0  0  0  0
    8.5576    7.3260  -34.8400 C   0  0  0  0  0  0  0  0  0  0  0  0
    8.3913    8.6399  -34.5651 N   0  0  0  0  0  0  0  0  0  0  0  0
    9.2974    9.3947  -35.2470 C   0  0  0  0  0  0  0  0  0  0  0  0
    9.3848   10.6119  -35.1766 O   0  0  0  0  0  0  0  0  0  0  0  0
   10.1629    8.4608  -36.0992 C   0  0  0  0  0  0  0  0  0  0  0  0
    9.5855    7.1909  -35.7384 N   0  0  0  0  0  0  0  0  0  0  0  0
    7.7084    9.0016  -33.9552 H   0  0  0  0  0  0  0  0  0  0  0  0
    9.8930    6.3265  -36.0953 H   0  0  0  0  0  0  0  0  0  0  0  0
   14.7531    7.3805  -34.3395 C   0  0  0  0  0  0  0  0  0  0  0  0
   14.6519    6.0400  -33.9312 C   0  0  0  0  0  0  0  0  0  0  0  0
   15.7336    5.4042  -33.3156 C   0  0  0  0  0  0  0  0  0  0  0  0
   16.9186    6.1046  -33.1068 C   0  0  0  0  0  0  0  0  0  0  0  0
   18.3827    5.2469  -32.2743 Br  0  0  0  0  0  0  0  0  0  0  0  0
   17.0327    7.4345  -33.5079 C   0  0  0  0  0  0  0  0  0  0  0  0
   15.9523    8.0754  -34.1248 C   0  0  0  0  0  0  0  0  0  0  0  0
   12.3412   10.7553  -36.7781 C   0  0  0  0  0  0  0  0  0  0  0  0
   12.0462   10.7430  -38.1490 C   0  0  0  0  0  0  0  0  0  0  0  0
   11.8572   11.9441  -38.8370 C   0  0  0  0  0  0  0  0  0  0  0  0
   11.9556   13.1506  -38.1532 C   0  0  0  0  0  0  0  0  0  0  0  0
   11.7742   14.3004  -38.8154 F   0  0  0  0  0  0  0  0  0  0  0  0
   12.2330   13.1812  -36.7917 C   0  0  0  0  0  0  0  0  0  0  0  0
   12.4222   11.9822  -36.1016 C   0  0  0  0  0  0  0  0  0  0  0  0
  6  7  2  0
  7  8  1  0
  8  9  1  0
  9 10  2  0
  9 11  1  0
 11  1  1  0
  1  2  2  0
  2  3  1  0
  3 15  1  0
 15 16  2  0
 16 17  1  0
 17 18  2  0
 18 19  1  0
 18 20  1  0
 20 21  2  0
  3  4  1  0
  4  5  2  0
  5 22  1  0
 22 23  2  0
 23 24  1  0
 24 25  2  0
 25 26  1  0
 25 27  1  0
 27 28  2  0
 11 12  1  0
 12  7  1  0
  5  1  1  0
 28 22  1  0
 21 15  1  0
  8 13  1  0
 12 14  1  0
M  END
> <minimizedAffinity>
-7.94003

> <CNNscore>
0.5135957599

> <CNNaffinity>
5.8804516792

> <CNN_VS>
3.0201749802

> <CNNaffinity_variance>
0.0849911347

$$$$



 28 31  0  0  0  0  0  0  0  0999 V2000
   13.1492    9.7820  -35.4839 C   0  0  0  0  0  0  0  0  0  0  0  0
   13.4825    8.8218  -34.5443 C   0  0  0  0  0  0  0  0  0  0  0  0
   14.7142    8.3135  -34.8850 N   0  0  0  0  0  0  0  0  0  0  0  0
   15.1816    8.8906  -36.0151 N   0  0  0  0  0  0  0  0  0  0  0  0
   14.2685    9.8042  -36.3643 C   0  0  0  0  0  0  0  0  0  0  0  0
    8.7608    9.1442  -35.0778 O   0  0  0  0  0  0  0  0  0  0  0  0
    9.8012    9.7715  -35.0050 C   0  0  0  0  0  0  0  0  0  0  0  0
   10.1789   10.5788  -33.9876 N   0  0  0  0  0  0  0  0  0  0  0  0
   11.4135   11.1052  -34.2211 C   0  0  0  0  0  0  0  0  0  0  0  0
   12.0058   11.8575  -33.4612 O   0  0  0  0  0  0  0  0  0  0  0  0
   11.9088   10.5959  -35.5785 C   0  0  0  0  0  0  0  0  0  0  0  0
   10.7928    9.7650  -35.9531 N   0  0  0  0  0  0  0  0  0  0  0  0
    9.6355   10.7612  -33.1872 H   0  0  0  0  0  0  0  0  0  0  0  0
   10.7471    9.2521  -36.7922 H   0  0  0  0  0  0  0  0  0  0  0  0
   15.4663    7.3067  -34.2149 C   0  0  0  0  0  0  0  0  0  0  0  0
   16.7485    7.6139  -33.7298 C   0  0  0  0  0  0  0  0  0  0  0  0
   17.5065    6.6431  -33.0691 C   0  0  0  0  0  0  0  0  0  0  0  0
   16.9861    5.3641  -32.8909 C   0  0  0  0  0  0  0  0  0  0  0  0
   18.0094    4.0496  -31.9980 Br  0  0  0  0  0  0  0  0  0  0  0  0
   15.7151    5.0464  -33.3663 C   0  0  0  0  0  0  0  0  0  0  0  0
   14.9523    6.0152  -34.0283 C   0  0  0  0  0  0  0  0  0  0  0  0
   14.4791   10.6378  -37.5440 C   0  0  0  0  0  0  0  0  0  0  0  0
   15.7596   10.7929  -38.0941 C   0  0  0  0  0  0  0  0  0  0  0  0
   15.9477   11.6026  -39.2169 C   0  0  0  0  0  0  0  0  0  0  0  0
   14.8572   12.2470  -39.7900 C   0  0  0  0  0  0  0  0  0  0  0  0
   15.0405   13.0227  -40.8661 F   0  0  0  0  0  0  0  0  0  0  0  0
   13.5788   12.0931  -39.2669 C   0  0  0  0  0  0  0  0  0  0  0  0
   13.3879   11.2843  -38.1448 C   0  0  0  0  0  0  0  0  0  0  0  0
  6  7  2  0
  7  8  1  0
  8  9  1  0
  9 10  2  0
  9 11  1  0
 11  1  1  0
  1  2  2  0
  2  3  1  0
  3 15  1  0
 15 16  2  0
 16 17  1  0
 17 18  2  0
 18 19  1  0
 18 20  1  0
 20 21  2  0
  3  4  1  0
  4  5  2  0
  5 22  1  0
 22 23  2  0
 23 24  1  0
 24 25  2  0
 25 26  1  0
 25 27  1  0
 27 28  2  0
 11 12  1  0
 12  7  1  0
  5  1  1  0
 28 22  1  0
 21 15  1  0
  8 13  1  0
 12 14  1  0
M  END
> <minimizedAffinity>
-7.76003

> <CNNscore>
0.5085160136

> <CNNaffinity>
5.8168644905

> <CNN_VS>
2.9579687119

> <CNNaffinity_variance>
0.0671732053

$$$$



 28 31  0  0  0  0  0  0  0  0999 V2000
   10.3374    9.1065  -35.2844 C   0  0  0  0  0  0  0  0  0  0  0  0
    9.8144   10.3719  -35.0808 C   0  0  0  0  0  0  0  0  0  0  0  0
   10.8387   11.1836  -34.6527 N   0  0  0  0  0  0  0  0  0  0  0  0
   11.9964   10.4919  -34.5525 N   0  0  0  0  0  0  0  0  0  0  0  0
   11.7183    9.2506  -34.9673 C   0  0  0  0  0  0  0  0  0  0  0  0
    6.9315    6.6059  -33.8784 O   0  0  0  0  0  0  0  0  0  0  0  0
    7.6712    7.1083  -34.7041 C   0  0  0  0  0  0  0  0  0  0  0  0
    7.2987    7.6560  -35.8834 N   0  0  0  0  0  0  0  0  0  0  0  0
    8.3798    8.1467  -36.5513 C   0  0  0  0  0  0  0  0  0  0  0  0
    8.3335    8.7077  -37.6363 O   0  0  0  0  0  0  0  0  0  0  0  0
    9.6331    7.8701  -35.7145 C   0  0  0  0  0  0  0  0  0  0  0  0
    9.0332    7.2157  -34.5797 N   0  0  0  0  0  0  0  0  0  0  0  0
    6.3722    7.6948  -36.2142 H   0  0  0  0  0  0  0  0  0  0  0  0
    9.5417    6.8840  -33.8047 H   0  0  0  0  0  0  0  0  0  0  0  0
   10.7842   12.5672  -34.3197 C   0  0  0  0  0  0  0  0  0  0  0  0
   11.9166   13.3713  -34.5318 C   0  0  0  0  0  0  0  0  0  0  0  0
   11.8882   14.7318  -34.2127 C   0  0  0  0  0  0  0  0  0  0  0  0
   10.7297   15.2924  -33.6819 C   0  0  0  0  0  0  0  0  0  0  0  0
   10.6892   17.1319  -33.2495 Br  0  0  0  0  0  0  0  0  0  0  0  0
    9.5990   14.5063  -33.4675 C   0  0  0  0  0  0  0  0  0  0  0  0
    9.6225   13.1437  -33.7855 C   0  0  0  0  0  0  0  0  0  0  0  0
   12.7699    8.2391  -35.0108 C   0  0  0  0  0  0  0  0  0  0  0  0
   12.4947    6.9357  -35.4488 C   0  0  0  0  0  0  0  0  0  0  0  0
   13.5088    5.9752  -35.4747 C   0  0  0  0  0  0  0  0  0  0  0  0
   14.7935    6.3212  -35.0713 C   0  0  0  0  0  0  0  0  0  0  0  0
   15.7636    5.3983  -35.0969 F   0  0  0  0  0  0  0  0  0  0  0  0
   15.0876    7.6118  -34.6479 C   0  0  0  0  0  0  0  0  0  0  0  0
   14.0760    8.5739  -34.6212 C   0  0  0  0  0  0  0  0  0  0  0  0
  6  7  2  0
  7  8  1  0
  8  9  1  0
  9 10  2  0
  9 11  1  0
 11  1  1  0
  1  2  2  0
  2  3  1  0
  3 15  1  0
 15 16  2  0
 16 17  1  0
 17 18  2  0
 18 19  1  0
 18 20  1  0
 20 21  2  0
  3  4  1  0
  4  5  2  0
  5 22  1  0
 22 23  2  0
 23 24  1  0
 24 25  2  0
 25 26  1  0
 25 27  1  0
 27 28  2  0
 11 12  1  0
 12  7  1  0
  5  1  1  0
 28 22  1  0
 21 15  1  0
  8 13  1  0
 12 14  1  0
M  END
> <minimizedAffinity>
-7.76299

> <CNNscore>
0.4643840492

> <CNNaffinity>
5.9118924141

> <CNN_VS>
2.7453885078

> <CNNaffinity_variance>
0.0482394882

$$$$



 28 31  0  0  0  0  0  0  0  0999 V2000
   12.5476    9.7115  -36.1262 C   0  0  0  0  0  0  0  0  0  0  0  0
   13.8277    9.4137  -35.6919 C   0  0  0  0  0  0  0  0  0  0  0  0
   13.7729    8.2150  -35.0199 N   0  0  0  0  0  0  0  0  0  0  0  0
   12.5088    7.7358  -34.9850 N   0  0  0  0  0  0  0  0  0  0  0  0
   11.7680    8.6060  -35.6809 C   0  0  0  0  0  0  0  0  0  0  0  0
   12.4555   14.1232  -35.5277 O   0  0  0  0  0  0  0  0  0  0  0  0
   12.5216   13.0931  -36.1726 C   0  0  0  0  0  0  0  0  0  0  0  0
   13.3518   12.8528  -37.2131 N   0  0  0  0  0  0  0  0  0  0  0  0
   13.1777   11.5880  -37.6882 C   0  0  0  0  0  0  0  0  0  0  0  0
   13.8059   11.0990  -38.6157 O   0  0  0  0  0  0  0  0  0  0  0  0
   12.0753   10.9097  -36.8684 C   0  0  0  0  0  0  0  0  0  0  0  0
   11.7594   11.9744  -35.9503 N   0  0  0  0  0  0  0  0  0  0  0  0
   13.9944   13.5036  -37.5776 H   0  0  0  0  0  0  0  0  0  0  0  0
   11.0757   11.9068  -35.2452 H   0  0  0  0  0  0  0  0  0  0  0  0
   14.8397    7.5055  -34.3980 C   0  0  0  0  0  0  0  0  0  0  0  0
   14.6864    6.1368  -34.1203 C   0  0  0  0  0  0  0  0  0  0  0  0
   15.7186    5.4186  -33.5103 C   0  0  0  0  0  0  0  0  0  0  0  0
   16.9058    6.0647  -33.1767 C   0  0  0  0  0  0  0  0  0  0  0  0
   18.3029    5.0955  -32.3514 Br  0  0  0  0  0  0  0  0  0  0  0  0
   17.0714    7.4218  -33.4475 C   0  0  0  0  0  0  0  0  0  0  0  0
   16.0408    8.1451  -34.0583 C   0  0  0  0  0  0  0  0  0  0  0  0
   10.3390    8.3707  -35.8637 C   0  0  0  0  0  0  0  0  0  0  0  0
    9.6176    7.5886  -34.9503 C   0  0  0  0  0  0  0  0  0  0  0  0
    8.2525    7.3630  -35.1441 C   0  0  0  0  0  0  0  0  0  0  0  0
    7.6124    7.9247  -36.2430 C   0  0  0  0  0  0  0  0  0  0  0  0
    6.3039    7.7066  -36.4263 F   0  0  0  0  0  0  0  0  0  0  0  0
    8.3085    8.7143  -37.1505 C   0  0  0  0  0  0  0  0  0  0  0  0
    9.6728    8.9416  -36.9591 C   0  0  0  0  0  0  0  0  0  0  0  0
  6  7  2  0
  7  8  1  0
  8  9  1  0
  9 10  2  0
  9 11  1  0
 11  1  1  0
  1  2  2  0
  2  3  1  0
  3 15  1  0
 15 16  2  0
 16 17  1  0
 17 18  2  0
 18 19  1  0
 18 20  1  0
 20 21  2  0
  3  4  1  0
  4  5  2  0
  5 22  1  0
 22 23  2  0
 23 24  1  0
 24 25  2  0
 25 26  1  0
 25 27  1  0
 27 28  2  0
 11 12  1  0
 12  7  1  0
  5  1  1  0
 28 22  1  0
 21 15  1  0
  8 13  1  0
 12 14  1  0
M  END
> <minimizedAffinity>
-7.79442

> <CNNscore>
0.4539407492

> <CNNaffinity>
5.5653567314

> <CNN_VS>
2.5263421535

> <CNNaffinity_variance>
0.1544841081

$$$$



 28 31  0  0  0  0  0  0  0  0999 V2000
    9.9160   10.0554  -35.0279 C   0  0  0  0  0  0  0  0  0  0  0  0
    8.6321    9.5405  -34.9774 C   0  0  0  0  0  0  0  0  0  0  0  0
    8.7155    8.1866  -35.2044 N   0  0  0  0  0  0  0  0  0  0  0  0
    9.9961    7.8086  -35.4187 N   0  0  0  0  0  0  0  0  0  0  0  0
   10.7335    8.9159  -35.2762 C   0  0  0  0  0  0  0  0  0  0  0  0
    8.3418   13.8161  -33.2365 O   0  0  0  0  0  0  0  0  0  0  0  0
    9.2028   13.0270  -33.5791 C   0  0  0  0  0  0  0  0  0  0  0  0
   10.2968   12.6769  -32.8649 N   0  0  0  0  0  0  0  0  0  0  0  0
   11.0373   11.7520  -33.5371 C   0  0  0  0  0  0  0  0  0  0  0  0
   12.0704   11.2491  -33.1201 O   0  0  0  0  0  0  0  0  0  0  0  0
   10.3554   11.4677  -34.8794 C   0  0  0  0  0  0  0  0  0  0  0  0
    9.2125   12.3377  -34.7652 N   0  0  0  0  0  0  0  0  0  0  0  0
   10.5266   13.0410  -31.9795 H   0  0  0  0  0  0  0  0  0  0  0  0
    8.5189   12.4271  -35.4581 H   0  0  0  0  0  0  0  0  0  0  0  0
    7.6570    7.2347  -35.2452 C   0  0  0  0  0  0  0  0  0  0  0  0
    7.4701    6.3663  -34.1567 C   0  0  0  0  0  0  0  0  0  0  0  0
    6.4388    5.4232  -34.1729 C   0  0  0  0  0  0  0  0  0  0  0  0
    5.5918    5.3452  -35.2750 C   0  0  0  0  0  0  0  0  0  0  0  0
    4.1965    4.0703  -35.2993 Br  0  0  0  0  0  0  0  0  0  0  0  0
    5.7655    6.2013  -36.3610 C   0  0  0  0  0  0  0  0  0  0  0  0
    6.7966    7.1474  -36.3493 C   0  0  0  0  0  0  0  0  0  0  0  0
   12.1849    8.8537  -35.4185 C   0  0  0  0  0  0  0  0  0  0  0  0
   12.9371    7.9136  -34.6997 C   0  0  0  0  0  0  0  0  0  0  0  0
   14.3267    7.8730  -34.8378 C   0  0  0  0  0  0  0  0  0  0  0  0
   14.9582    8.7645  -35.6976 C   0  0  0  0  0  0  0  0  0  0  0  0
   16.2904    8.7235  -35.8278 F   0  0  0  0  0  0  0  0  0  0  0  0
   14.2273    9.6934  -36.4287 C   0  0  0  0  0  0  0  0  0  0  0  0
   12.8383    9.7361  -36.2928 C   0  0  0  0  0  0  0  0  0  0  0  0
  6  7  2  0
  7  8  1  0
  8  9  1  0
  9 10  2  0
  9 11  1  0
 11  1  1  0
  1  2  2  0
  2  3  1  0
  3 15  1  0
 15 16  2  0
 16 17  1  0
 17 18  2  0
 18 19  1  0
 18 20  1  0
 20 21  2  0
  3  4  1  0
  4  5  2  0
  5 22  1  0
 22 23  2  0
 23 24  1  0
 24 25  2  0
 25 26  1  0
 25 27  1  0
 27 28  2  0
 11 12  1  0
 12  7  1  0
  5  1  1  0
 28 22  1  0
 21 15  1  0
  8 13  1  0
 12 14  1  0
M  END
> <minimizedAffinity>
-7.62084

> <CNNscore>
0.4201205671

> <CNNaffinity>
5.4380860329

> <CNN_VS>
2.2846517563

> <CNNaffinity_variance>
0.0706116185

$$$$



 28 31  0  0  0  0  0  0  0  0999 V2000
   13.3440   10.0014  -36.2231 C   0  0  0  0  0  0  0  0  0  0  0  0
   14.3949    9.1089  -36.0996 C   0  0  0  0  0  0  0  0  0  0  0  0
   14.3502    8.5840  -34.8292 N   0  0  0  0  0  0  0  0  0  0  0  0
   13.3273    9.1138  -34.1210 N   0  0  0  0  0  0  0  0  0  0  0  0
   12.6896    9.9385  -34.9598 C   0  0  0  0  0  0  0  0  0  0  0  0
   13.0116   14.3445  -37.1492 O   0  0  0  0  0  0  0  0  0  0  0  0
   13.2257   13.1718  -37.3949 C   0  0  0  0  0  0  0  0  0  0  0  0
   14.2394   12.6842  -38.1460 N   0  0  0  0  0  0  0  0  0  0  0  0
   14.1935   11.3236  -38.1951 C   0  0  0  0  0  0  0  0  0  0  0  0
   14.9955   10.6199  -38.7914 O   0  0  0  0  0  0  0  0  0  0  0  0
   12.9802   10.8501  -37.3881 C   0  0  0  0  0  0  0  0  0  0  0  0
   12.4695   12.1211  -36.9409 N   0  0  0  0  0  0  0  0  0  0  0  0
   14.9182   13.2373  -38.5960 H   0  0  0  0  0  0  0  0  0  0  0  0
   11.6704   12.2236  -36.3750 H   0  0  0  0  0  0  0  0  0  0  0  0
   15.2242    7.6247  -34.2425 C   0  0  0  0  0  0  0  0  0  0  0  0
   14.8206    6.2810  -34.1676 C   0  0  0  0  0  0  0  0  0  0  0  0
   15.6602    5.3208  -33.5962 C   0  0  0  0  0  0  0  0  0  0  0  0
   16.9042    5.6995  -33.0989 C   0  0  0  0  0  0  0  0  0  0  0  0
   18.0411    4.4028  -32.3255 Br  0  0  0  0  0  0  0  0  0  0  0  0
   17.3173    7.0288  -33.1679 C   0  0  0  0  0  0  0  0  0  0  0  0
   16.4802    7.9939  -33.7393 C   0  0  0  0  0  0  0  0  0  0  0  0
   11.5032   10.6633  -34.5150 C   0  0  0  0  0  0  0  0  0  0  0  0
   11.6202   11.8917  -33.8488 C   0  0  0  0  0  0  0  0  0  0  0  0
   10.4763   12.5689  -33.4193 C   0  0  0  0  0  0  0  0  0  0  0  0
    9.2216   12.0218  -33.6629 C   0  0  0  0  0  0  0  0  0  0  0  0
    8.1268   12.6730  -33.2498 F   0  0  0  0  0  0  0  0  0  0  0  0
    9.0862   10.8124  -34.3343 C   0  0  0  0  0  0  0  0  0  0  0  0
   10.2278   10.1336  -34.7650 C   0  0  0  0  0  0  0  0  0  0  0  0
  6  7  2  0
  7  8  1  0
  8  9  1  0
  9 10  2  0
  9 11  1  0
 11  1  1  0
  1  2  2  0
  2  3  1  0
  3 15  1  0
 15 16  2  0
 16 17  1  0
 17 18  2  0
 18 19  1  0
 18 20  1  0
 20 21  2  0
  3  4  1  0
  4  5  2  0
  5 22  1  0
 22 23  2  0
 23 24  1  0
 24 25  2  0
 25 26  1  0
 25 27  1  0
 27 28  2  0
 11 12  1  0
 12  7  1  0
  5  1  1  0
 28 22  1  0
 21 15  1  0
  8 13  1  0
 12 14  1  0
M  END
> <minimizedAffinity>
-7.62010

> <CNNscore>
0.3399800956

> <CNNaffinity>
5.4243865013

> <CNN_VS>
1.8441834450

> <CNNaffinity_variance>
0.2072935253

$$$$



 28 31  0  0  0  0  0  0  0  0999 V2000
   11.6715    8.7314  -35.6730 C   0  0  0  0  0  0  0  0  0  0  0  0
   12.5439    7.6780  -35.4605 C   0  0  0  0  0  0  0  0  0  0  0  0
   13.5914    8.1489  -34.7038 N   0  0  0  0  0  0  0  0  0  0  0  0
   13.4423    9.4658  -34.4351 N   0  0  0  0  0  0  0  0  0  0  0  0
   12.2719    9.8202  -34.9783 C   0  0  0  0  0  0  0  0  0  0  0  0
    7.5458   10.3472  -35.2277 O   0  0  0  0  0  0  0  0  0  0  0  0
    8.5426   10.0048  -35.8364 C   0  0  0  0  0  0  0  0  0  0  0  0
    9.1167   10.6660  -36.8673 N   0  0  0  0  0  0  0  0  0  0  0  0
   10.2323   10.0140  -37.2985 C   0  0  0  0  0  0  0  0  0  0  0  0
   10.9548   10.3947  -38.2079 O   0  0  0  0  0  0  0  0  0  0  0  0
   10.4084    8.7460  -36.4566 C   0  0  0  0  0  0  0  0  0  0  0  0
    9.2750    8.8744  -35.5762 N   0  0  0  0  0  0  0  0  0  0  0  0
    8.7748   11.5046  -37.2536 H   0  0  0  0  0  0  0  0  0  0  0  0
    9.0520    8.2260  -34.8697 H   0  0  0  0  0  0  0  0  0  0  0  0
   14.7289    7.4324  -34.2338 C   0  0  0  0  0  0  0  0  0  0  0  0
   14.6267    6.0493  -34.0093 C   0  0  0  0  0  0  0  0  0  0  0  0
   15.7287    5.3240  -33.5479 C   0  0  0  0  0  0  0  0  0  0  0  0
   16.9348    5.9774  -33.3101 C   0  0  0  0  0  0  0  0  0  0  0  0
   18.4263    4.9985  -32.6858 Br  0  0  0  0  0  0  0  0  0  0  0  0
   17.0502    7.3489  -33.5296 C   0  0  0  0  0  0  0  0  0  0  0  0
   15.9496    8.0794  -33.9918 C   0  0  0  0  0  0  0  0  0  0  0  0
   11.7877   11.1909  -34.8471 C   0  0  0  0  0  0  0  0  0  0  0  0
   12.2449   12.1993  -35.7076 C   0  0  0  0  0  0  0  0  0  0  0  0
   11.7808   13.5091  -35.5631 C   0  0  0  0  0  0  0  0  0  0  0  0
   10.8575   13.8050  -34.5666 C   0  0  0  0  0  0  0  0  0  0  0  0
   10.4144   15.0614  -34.4303 F   0  0  0  0  0  0  0  0  0  0  0  0
   10.3825   12.8154  -33.7141 C   0  0  0  0  0  0  0  0  0  0  0  0
   10.8446   11.5055  -33.8564 C   0  0  0  0  0  0  0  0  0  0  0  0
  6  7  2  0
  7  8  1  0
  8  9  1  0
  9 10  2  0
  9 11  1  0
 11  1  1  0
  1  2  2  0
  2  3  1  0
  3 15  1  0
 15 16  2  0
 16 17  1  0
 17 18  2  0
 18 19  1  0
 18 20  1  0
 20 21  2  0
  3  4  1  0
  4  5  2  0
  5 22  1  0
 22 23  2  0
 23 24  1  0
 24 25  2  0
 25 26  1  0
 25 27  1  0
 27 28  2  0
 11 12  1  0
 12  7  1  0
  5  1  1  0
 28 22  1  0
 21 15  1  0
  8 13  1  0
 12 14  1  0
M  END
> <minimizedAffinity>
-7.44752

> <CNNscore>
0.3317359388

> <CNNaffinity>
5.5411982536

> <CNN_VS>
1.8382146358

> <CNNaffinity_variance>
0.1646457165

$$$$
