


 17 17  0  0  0  0  0  0  0  0999 V2000
   11.3388   37.5100   77.0628 C   0  0  0  0  0  0  0  0  0  0  0  0
   10.1559   37.8900   77.6903 C   0  0  0  0  0  0  0  0  0  0  0  0
   10.4731   38.9268   78.5329 N   0  0  0  0  0  0  0  0  0  0  0  0
   11.7971   39.2702   78.4256 C   0  0  0  0  0  0  0  0  0  0  0  0
   12.3278   40.4164   79.2126 C   0  0  0  0  0  0  0  0  0  0  0  0
   12.3868   38.3995   77.5145 C   0  0  0  0  0  0  0  0  0  0  0  0
    9.8324   39.3673   79.1368 H   0  0  0  0  0  0  0  0  0  0  0  0
    8.8234   37.3264   77.5719 C   0  0  0  0  0  0  0  0  0  0  0  0
    8.2708   37.0851   76.5045 O   0  0  0  0  0  0  0  0  0  0  0  0
    8.2049   37.1023   78.7888 N   0  0  0  0  0  0  0  0  0  0  0  0
    6.8285   36.6747   78.8223 C   0  0  0  0  0  0  0  0  0  0  0  0
    8.7023   37.2342   79.6281 H   0  0  0  0  0  0  0  0  0  0  0  0
   13.7935   38.3817   77.0745 C   0  0  0  0  0  0  0  0  0  0  0  0
   14.6923   37.2480   77.4967 C   0  0  0  0  0  0  0  0  0  0  0  0
   14.2562   39.2811   76.3707 O   0  0  0  0  0  0  0  0  0  0  0  0
   11.4594   36.8621   74.6369 C   0  0  0  0  0  0  0  0  0  0  0  0
   11.4909   36.3813   76.0796 C   0  0  0  0  0  0  0  0  0  0  0  0
 16 17  1  0
 17  1  1  0
  1  2  2  0
  2  8  1  0
  8  9  2  0
  8 10  1  0
 10 11  1  0
  2  3  1  0
  3  4  1  0
  4  5  1  0
  4  6  2  0
  6 13  1  0
 13 14  1  0
 13 15  2  0
  6  1  1  0
 10 12  1  0
  3  7  1  0
M  END
> <minimizedAffinity>
-6.05519

> <CNNscore>
0.9696792960

> <CNNaffinity>
4.6429219246

> <CNN_VS>
4.5021452904

> <CNNaffinity_variance>
0.2989194095

$$$$



 17 17  0  0  0  0  0  0  0  0999 V2000
   11.7646   37.7399   76.8287 C   0  0  0  0  0  0  0  0  0  0  0  0
   10.4620   37.9068   77.2896 C   0  0  0  0  0  0  0  0  0  0  0  0
   10.5117   38.8666   78.2704 N   0  0  0  0  0  0  0  0  0  0  0  0
   11.7807   39.3682   78.4142 C   0  0  0  0  0  0  0  0  0  0  0  0
   12.0337   40.4667   79.3858 C   0  0  0  0  0  0  0  0  0  0  0  0
   12.6083   38.6831   77.5300 C   0  0  0  0  0  0  0  0  0  0  0  0
    9.7361   39.1577   78.8023 H   0  0  0  0  0  0  0  0  0  0  0  0
    9.2471   37.2137   76.9012 C   0  0  0  0  0  0  0  0  0  0  0  0
    8.4732   36.6859   77.6922 O   0  0  0  0  0  0  0  0  0  0  0  0
    9.0427   37.1749   75.5336 N   0  0  0  0  0  0  0  0  0  0  0  0
    7.9505   36.4022   74.9965 C   0  0  0  0  0  0  0  0  0  0  0  0
    9.6403   37.6726   74.9299 H   0  0  0  0  0  0  0  0  0  0  0  0
   14.0551   38.8768   77.3252 C   0  0  0  0  0  0  0  0  0  0  0  0
   14.9828   37.6910   77.3924 C   0  0  0  0  0  0  0  0  0  0  0  0
   14.5274   39.9935   77.1055 O   0  0  0  0  0  0  0  0  0  0  0  0
   12.4429   37.4228   74.4289 C   0  0  0  0  0  0  0  0  0  0  0  0
   12.2078   36.7591   75.7772 C   0  0  0  0  0  0  0  0  0  0  0  0
 16 17  1  0
 17  1  1  0
  1  2  2  0
  2  8  1  0
  8  9  2  0
  8 10  1  0
 10 11  1  0
  2  3  1  0
  3  4  1  0
  4  5  1  0
  4  6  2  0
  6 13  1  0
 13 14  1  0
 13 15  2  0
  6  1  1  0
 10 12  1  0
  3  7  1  0
M  END
> <minimizedAffinity>
-5.79264

> <CNNscore>
0.9684765339

> <CNNaffinity>
4.7881655693

> <CNN_VS>
4.6372261047

> <CNNaffinity_variance>
0.2039279491

$$$$



 17 17  0  0  0  0  0  0  0  0999 V2000
   11.5768   38.0739   77.0259 C   0  0  0  0  0  0  0  0  0  0  0  0
   10.5153   37.6825   76.2152 C   0  0  0  0  0  0  0  0  0  0  0  0
   11.0361   37.4637   74.9636 N   0  0  0  0  0  0  0  0  0  0  0  0
   12.3972   37.6365   74.9520 C   0  0  0  0  0  0  0  0  0  0  0  0
   13.1619   37.3840   73.7005 C   0  0  0  0  0  0  0  0  0  0  0  0
   12.7840   38.0288   76.2297 C   0  0  0  0  0  0  0  0  0  0  0  0
   10.5013   37.2147   74.1754 H   0  0  0  0  0  0  0  0  0  0  0  0
    9.1054   37.5530   76.5354 C   0  0  0  0  0  0  0  0  0  0  0  0
    8.1957   37.8559   75.7713 O   0  0  0  0  0  0  0  0  0  0  0  0
    8.8672   37.0728   77.8106 N   0  0  0  0  0  0  0  0  0  0  0  0
    7.5172   37.0225   78.3142 C   0  0  0  0  0  0  0  0  0  0  0  0
    9.6160   36.7668   78.3718 H   0  0  0  0  0  0  0  0  0  0  0  0
   14.1486   38.3286   76.6995 C   0  0  0  0  0  0  0  0  0  0  0  0
   15.0932   37.1979   77.0164 C   0  0  0  0  0  0  0  0  0  0  0  0
   14.5352   39.4894   76.8464 O   0  0  0  0  0  0  0  0  0  0  0  0
   11.6450   39.9586   78.6880 C   0  0  0  0  0  0  0  0  0  0  0  0
   11.4807   38.4613   78.4766 C   0  0  0  0  0  0  0  0  0  0  0  0
 16 17  1  0
 17  1  1  0
  1  2  2  0
  2  8  1  0
  8  9  2  0
  8 10  1  0
 10 11  1  0
  2  3  1  0
  3  4  1  0
  4  5  1  0
  4  6  2  0
  6 13  1  0
 13 14  1  0
 13 15  2  0
  6  1  1  0
 10 12  1  0
  3  7  1  0
M  END
> <minimizedAffinity>
-5.67614

> <CNNscore>
0.9402613640

> <CNNaffinity>
4.5353207588

> <CNN_VS>
4.2643866539

> <CNNaffinity_variance>
0.2413890511

$$$$



 17 17  0  0  0  0  0  0  0  0999 V2000
   12.1698   37.7042   75.0330 C   0  0  0  0  0  0  0  0  0  0  0  0
   10.7823   37.5940   75.0452 C   0  0  0  0  0  0  0  0  0  0  0  0
   10.3789   37.8464   76.3333 N   0  0  0  0  0  0  0  0  0  0  0  0
   11.4430   38.1763   77.1341 C   0  0  0  0  0  0  0  0  0  0  0  0
   11.2084   38.5479   78.5560 C   0  0  0  0  0  0  0  0  0  0  0  0
   12.5960   38.0938   76.3597 C   0  0  0  0  0  0  0  0  0  0  0  0
    9.4456   37.7969   76.6425 H   0  0  0  0  0  0  0  0  0  0  0  0
    9.8729   37.2405   73.9704 C   0  0  0  0  0  0  0  0  0  0  0  0
    9.7842   36.1180   73.4855 O   0  0  0  0  0  0  0  0  0  0  0  0
    9.1156   38.3032   73.5112 N   0  0  0  0  0  0  0  0  0  0  0  0
    8.2700   38.1313   72.3563 C   0  0  0  0  0  0  0  0  0  0  0  0
    9.1540   39.1729   73.9710 H   0  0  0  0  0  0  0  0  0  0  0  0
   13.9817   38.3605   76.7857 C   0  0  0  0  0  0  0  0  0  0  0  0
   14.8731   37.2126   77.1844 C   0  0  0  0  0  0  0  0  0  0  0  0
   14.4289   39.5079   76.8298 O   0  0  0  0  0  0  0  0  0  0  0  0
   13.6626   36.0739   73.8360 C   0  0  0  0  0  0  0  0  0  0  0  0
   13.0613   37.4710   73.8437 C   0  0  0  0  0  0  0  0  0  0  0  0
 16 17  1  0
 17  1  1  0
  1  2  2  0
  2  8  1  0
  8  9  2  0
  8 10  1  0
 10 11  1  0
  2  3  1  0
  3  4  1  0
  4  5  1  0
  4  6  2  0
  6 13  1  0
 13 14  1  0
 13 15  2  0
  6  1  1  0
 10 12  1  0
  3  7  1  0
M  END
> <minimizedAffinity>
-5.03206

> <CNNscore>
0.8613373637

> <CNNaffinity>
4.2413897514

> <CNN_VS>
3.6532673836

> <CNNaffinity_variance>
0.2982567549

$$$$



 17 17  0  0  0  0  0  0  0  0999 V2000
   12.7493   38.6572   77.5039 C   0  0  0  0  0  0  0  0  0  0  0  0
   14.0436   39.0756   77.7991 C   0  0  0  0  0  0  0  0  0  0  0  0
   14.8891   38.3045   77.0400 N   0  0  0  0  0  0  0  0  0  0  0  0
   14.1895   37.4526   76.2231 C   0  0  0  0  0  0  0  0  0  0  0  0
   14.9236   36.5734   75.2729 C   0  0  0  0  0  0  0  0  0  0  0  0
   12.8350   37.6337   76.4848 C   0  0  0  0  0  0  0  0  0  0  0  0
   15.8715   38.3563   77.0772 H   0  0  0  0  0  0  0  0  0  0  0  0
   14.4983   40.0822   78.7411 C   0  0  0  0  0  0  0  0  0  0  0  0
   15.6744   40.3836   78.9115 O   0  0  0  0  0  0  0  0  0  0  0  0
   13.4753   40.6685   79.4645 N   0  0  0  0  0  0  0  0  0  0  0  0
   13.7898   41.5851   80.5319 C   0  0  0  0  0  0  0  0  0  0  0  0
   12.5369   40.4607   79.2515 H   0  0  0  0  0  0  0  0  0  0  0  0
   11.6998   36.9404   75.8497 C   0  0  0  0  0  0  0  0  0  0  0  0
   10.7488   37.7148   74.9740 C   0  0  0  0  0  0  0  0  0  0  0  0
   11.5054   35.7362   76.0246 O   0  0  0  0  0  0  0  0  0  0  0  0
   10.7395   38.1252   78.9170 C   0  0  0  0  0  0  0  0  0  0  0  0
   11.4880   39.1889   78.1284 C   0  0  0  0  0  0  0  0  0  0  0  0
 16 17  1  0
 17  1  1  0
  1  2  2  0
  2  8  1  0
  8  9  2  0
  8 10  1  0
 10 11  1  0
  2  3  1  0
  3  4  1  0
  4  5  1  0
  4  6  2  0
  6 13  1  0
 13 14  1  0
 13 15  2  0
  6  1  1  0
 10 12  1  0
  3  7  1  0
M  END
> <minimizedAffinity>
-5.54945

> <CNNscore>
0.8296260238

> <CNNaffinity>
4.5455203056

> <CNN_VS>
3.7710819244

> <CNNaffinity_variance>
0.1621855795

$$$$



 17 17  0  0  0  0  0  0  0  0999 V2000
   12.2937   37.8806   75.8230 C   0  0  0  0  0  0  0  0  0  0  0  0
   12.7524   38.3512   77.0499 C   0  0  0  0  0  0  0  0  0  0  0  0
   11.6806   38.3226   77.9078 N   0  0  0  0  0  0  0  0  0  0  0  0
   10.5694   37.7939   77.3011 C   0  0  0  0  0  0  0  0  0  0  0  0
    9.3157   37.6177   78.0833 C   0  0  0  0  0  0  0  0  0  0  0  0
   10.9053   37.5059   75.9819 C   0  0  0  0  0  0  0  0  0  0  0  0
   11.7062   38.6409   78.8391 H   0  0  0  0  0  0  0  0  0  0  0  0
   14.0685   38.8392   77.4203 C   0  0  0  0  0  0  0  0  0  0  0  0
   15.1151   38.2501   77.1740 O   0  0  0  0  0  0  0  0  0  0  0  0
   14.0425   40.0373   78.1113 N   0  0  0  0  0  0  0  0  0  0  0  0
   15.2636   40.5709   78.6617 C   0  0  0  0  0  0  0  0  0  0  0  0
   13.1942   40.5234   78.2267 H   0  0  0  0  0  0  0  0  0  0  0  0
   10.0368   36.9221   74.9438 C   0  0  0  0  0  0  0  0  0  0  0  0
    8.8951   37.7317   74.3851 C   0  0  0  0  0  0  0  0  0  0  0  0
   10.2197   35.7779   74.5244 O   0  0  0  0  0  0  0  0  0  0  0  0
   13.7683   36.4091   74.4160 C   0  0  0  0  0  0  0  0  0  0  0  0
   13.1071   37.7711   74.5619 C   0  0  0  0  0  0  0  0  0  0  0  0
 16 17  1  0
 17  1  1  0
  1  2  2  0
  2  8  1  0
  8  9  2  0
  8 10  1  0
 10 11  1  0
  2  3  1  0
  3  4  1  0
  4  5  1  0
  4  6  2  0
  6 13  1  0
 13 14  1  0
 13 15  2  0
  6  1  1  0
 10 12  1  0
  3  7  1  0
M  END
> <minimizedAffinity>
-5.47533

> <CNNscore>
0.7800559998

> <CNNaffinity>
4.5188250542

> <CNN_VS>
3.5249366760

> <CNNaffinity_variance>
0.2663724720

$$$$



 17 17  0  0  0  0  0  0  0  0999 V2000
   13.0402   39.3627   78.0575 C   0  0  0  0  0  0  0  0  0  0  0  0
   11.6863   39.1294   78.2806 C   0  0  0  0  0  0  0  0  0  0  0  0
   11.3480   39.8282   79.4132 N   0  0  0  0  0  0  0  0  0  0  0  0
   12.4121   40.5510   79.8904 C   0  0  0  0  0  0  0  0  0  0  0  0
   12.2340   41.4282   81.0792 C   0  0  0  0  0  0  0  0  0  0  0  0
   13.5050   40.2842   79.0715 C   0  0  0  0  0  0  0  0  0  0  0  0
   10.4560   39.8126   79.8296 H   0  0  0  0  0  0  0  0  0  0  0  0
   10.7579   38.2922   77.5427 C   0  0  0  0  0  0  0  0  0  0  0  0
   10.9198   37.9465   76.3776 O   0  0  0  0  0  0  0  0  0  0  0  0
    9.6385   37.9292   78.2700 N   0  0  0  0  0  0  0  0  0  0  0  0
    8.5672   37.2140   77.6225 C   0  0  0  0  0  0  0  0  0  0  0  0
    9.5738   38.1582   79.2253 H   0  0  0  0  0  0  0  0  0  0  0  0
   14.8678   40.8332   79.1901 C   0  0  0  0  0  0  0  0  0  0  0  0
   15.1300   41.9804   80.1316 C   0  0  0  0  0  0  0  0  0  0  0  0
   15.8021   40.3775   78.5284 O   0  0  0  0  0  0  0  0  0  0  0  0
   14.4551   37.4183   77.3250 C   0  0  0  0  0  0  0  0  0  0  0  0
   13.8651   38.7687   76.9483 C   0  0  0  0  0  0  0  0  0  0  0  0
 16 17  1  0
 17  1  1  0
  1  2  2  0
  2  8  1  0
  8  9  2  0
  8 10  1  0
 10 11  1  0
  2  3  1  0
  3  4  1  0
  4  5  1  0
  4  6  2  0
  6 13  1  0
 13 14  1  0
 13 15  2  0
  6  1  1  0
 10 12  1  0
  3  7  1  0
M  END
> <minimizedAffinity>
-6.66338

> <CNNscore>
0.7714120150

> <CNNaffinity>
4.4824848175

> <CNN_VS>
3.4578425884

> <CNNaffinity_variance>
0.7522351146

$$$$



 17 17  0  0  0  0  0  0  0  0999 V2000
   11.8862   38.0915   76.3126 C   0  0  0  0  0  0  0  0  0  0  0  0
   13.2628   38.2817   76.3906 C   0  0  0  0  0  0  0  0  0  0  0  0
   13.7803   37.9137   75.1731 N   0  0  0  0  0  0  0  0  0  0  0  0
   12.7876   37.5559   74.2962 C   0  0  0  0  0  0  0  0  0  0  0  0
   13.1374   37.1834   72.8984 C   0  0  0  0  0  0  0  0  0  0  0  0
   11.5747   37.6457   74.9719 C   0  0  0  0  0  0  0  0  0  0  0  0
   14.7408   37.9075   74.9570 H   0  0  0  0  0  0  0  0  0  0  0  0
   14.0732   38.7284   77.5091 C   0  0  0  0  0  0  0  0  0  0  0  0
   14.6292   37.9747   78.3002 O   0  0  0  0  0  0  0  0  0  0  0  0
   14.1478   40.1048   77.6263 N   0  0  0  0  0  0  0  0  0  0  0  0
   14.8039   40.6896   78.7691 C   0  0  0  0  0  0  0  0  0  0  0  0
   13.7547   40.6822   76.9326 H   0  0  0  0  0  0  0  0  0  0  0  0
   10.2299   37.3611   74.4395 C   0  0  0  0  0  0  0  0  0  0  0  0
    9.3482   38.4994   73.9944 C   0  0  0  0  0  0  0  0  0  0  0  0
    9.8048   36.2076   74.3556 O   0  0  0  0  0  0  0  0  0  0  0  0
   11.1006   37.3600   78.5857 C   0  0  0  0  0  0  0  0  0  0  0  0
   10.9008   38.3233   77.4257 C   0  0  0  0  0  0  0  0  0  0  0  0
 16 17  1  0
 17  1  1  0
  1  2  2  0
  2  8  1  0
  8  9  2  0
  8 10  1  0
 10 11  1  0
  2  3  1  0
  3  4  1  0
  4  5  1  0
  4  6  2  0
  6 13  1  0
 13 14  1  0
 13 15  2  0
  6  1  1  0
 10 12  1  0
  3  7  1  0
M  END
> <minimizedAffinity>
-5.30829

> <CNNscore>
0.6924559474

> <CNNaffinity>
4.7076797485

> <CNN_VS>
3.2598607540

> <CNNaffinity_variance>
0.1804512143

$$$$



 17 17  0  0  0  0  0  0  0  0999 V2000
   11.9278   38.0487   76.8377 C   0  0  0  0  0  0  0  0  0  0  0  0
   13.0743   38.7175   77.2567 C   0  0  0  0  0  0  0  0  0  0  0  0
   14.1304   38.1394   76.5965 N   0  0  0  0  0  0  0  0  0  0  0  0
   13.7036   37.1705   75.7238 C   0  0  0  0  0  0  0  0  0  0  0  0
   14.6924   36.4655   74.8634 C   0  0  0  0  0  0  0  0  0  0  0  0
   12.3210   37.0721   75.8453 C   0  0  0  0  0  0  0  0  0  0  0  0
   15.0733   38.3882   76.7319 H   0  0  0  0  0  0  0  0  0  0  0  0
   13.2188   39.7874   78.2272 C   0  0  0  0  0  0  0  0  0  0  0  0
   12.2803   40.4188   78.7000 O   0  0  0  0  0  0  0  0  0  0  0  0
   14.5330   40.0588   78.5633 N   0  0  0  0  0  0  0  0  0  0  0  0
   14.8354   41.1857   79.4101 C   0  0  0  0  0  0  0  0  0  0  0  0
   15.2584   39.4850   78.2258 H   0  0  0  0  0  0  0  0  0  0  0  0
   11.4193   36.1690   75.1075 C   0  0  0  0  0  0  0  0  0  0  0  0
   11.7589   34.7050   74.9953 C   0  0  0  0  0  0  0  0  0  0  0  0
   10.3915   36.5870   74.5716 O   0  0  0  0  0  0  0  0  0  0  0  0
   10.2278   37.5926   78.6325 C   0  0  0  0  0  0  0  0  0  0  0  0
   10.5285   38.3096   77.3251 C   0  0  0  0  0  0  0  0  0  0  0  0
 16 17  1  0
 17  1  1  0
  1  2  2  0
  2  8  1  0
  8  9  2  0
  8 10  1  0
 10 11  1  0
  2  3  1  0
  3  4  1  0
  4  5  1  0
  4  6  2  0
  6 13  1  0
 13 14  1  0
 13 15  2  0
  6  1  1  0
 10 12  1  0
  3  7  1  0
M  END
> <minimizedAffinity>
-5.05564

> <CNNscore>
0.5987175107

> <CNNaffinity>
4.5632166862

> <CNN_VS>
2.7320778370

> <CNNaffinity_variance>
0.0511406623

$$$$
