


 36 39  0  0  0  0  0  0  0  0999 V2000
   23.3313    5.2235   57.6541 C   0  0  0  0  0  0  0  0  0  0  0  0
   22.9718    6.1186   56.2616 S   0  0  0  0  0  0  0  0  0  0  0  0
   24.0861    7.3369   56.6720 C   0  0  0  0  0  0  0  0  0  0  0  0
   24.7503    7.0679   57.8534 C   0  0  0  0  0  0  0  0  0  0  0  0
   24.3260    5.8083   58.4333 C   0  0  0  0  0  0  0  0  0  0  0  0
   25.6912    8.0478   58.3814 C   0  0  0  0  0  0  0  0  0  0  0  0
   25.3438    9.4036   58.4395 C   0  0  0  0  0  0  0  0  0  0  0  0
   26.2598   10.3425   58.9175 C   0  0  0  0  0  0  0  0  0  0  0  0
   27.5243    9.9326   59.3381 C   0  0  0  0  0  0  0  0  0  0  0  0
   27.8739    8.5840   59.2858 C   0  0  0  0  0  0  0  0  0  0  0  0
   26.9601    7.6421   58.8108 C   0  0  0  0  0  0  0  0  0  0  0  0
   22.9100    2.8036   55.9429 O   0  0  0  0  0  0  0  0  0  0  0  0
   22.5285    2.9320   57.1016 C   0  0  0  0  0  0  0  0  0  0  0  0
   22.6888    4.0260   57.9307 N   0  0  0  0  0  0  0  0  0  0  0  0
   22.2977    3.9450   58.8305 H   0  0  0  0  0  0  0  0  0  0  0  0
   21.8323    1.7847   57.8027 C   0  0  0  0  0  0  0  0  0  0  0  0
   22.8514    0.8645   58.4628 C   0  0  0  0  0  0  0  0  0  0  0  0
   22.3481   -0.4877   58.7005 N   0  0  0  0  0  0  0  0  0  0  0  0
   22.6192   -1.2051   58.0831 H   0  0  0  0  0  0  0  0  0  0  0  0
   21.5039   -0.8069   59.7588 C   0  0  0  0  0  0  0  0  0  0  0  0
   20.9319    0.2390   60.4985 C   0  0  0  0  0  0  0  0  0  0  0  0
   20.1066   -0.0103   61.5988 C   0  0  0  0  0  0  0  0  0  0  0  0
   19.8568   -1.3193   61.9951 C   0  0  0  0  0  0  0  0  0  0  0  0
   20.4459   -2.3710   61.2999 C   0  0  0  0  0  0  0  0  0  0  0  0
   21.2731   -2.1133   60.2008 C   0  0  0  0  0  0  0  0  0  0  0  0
   24.7884    5.1624   59.6694 C   0  0  0  0  0  0  0  0  0  0  0  0
   24.3263    5.4785   60.7640 O   0  0  0  0  0  0  0  0  0  0  0  0
   25.7157    4.1599   59.5215 N   0  0  0  0  0  0  0  0  0  0  0  0
   25.9480    3.8537   58.6151 H   0  0  0  0  0  0  0  0  0  0  0  0
   26.3593    3.5424   60.6556 C   0  0  0  0  0  0  0  0  0  0  0  0
   25.6332    2.2847   61.0561 C   0  0  0  0  0  0  0  0  0  0  0  0
   24.4576    2.3467   61.8174 C   0  0  0  0  0  0  0  0  0  0  0  0
   23.7752    1.1783   62.1610 C   0  0  0  0  0  0  0  0  0  0  0  0
   24.2547   -0.0605   61.7396 C   0  0  0  0  0  0  0  0  0  0  0  0
   25.4159   -0.1332   60.9726 C   0  0  0  0  0  0  0  0  0  0  0  0
   26.1011    1.0331   60.6303 C   0  0  0  0  0  0  0  0  0  0  0  0
 12 13  2  0
 13 16  1  0
 16 17  1  0
 17 18  1  0
 18 20  1  0
 20 21  2  0
 21 22  1  0
 22 23  2  0
 23 24  1  0
 24 25  2  0
 13 14  1  0
 14  1  1  0
  1  2  1  0
  2  3  1  0
  3  4  2  0
  4  6  1  0
  6  7  2  0
  7  8  1  0
  8  9  2  0
  9 10  1  0
 10 11  2  0
  4  5  1  0
  5 26  1  0
 26 27  2  0
 26 28  1  0
 28 30  1  0
 30 31  1  0
 31 32  2  0
 32 33  1  0
 33 34  2  0
 34 35  1  0
 35 36  2  0
 25 20  1  0
  5  1  2  0
 36 31  1  0
 11  6  1  0
 18 19  1  0
 14 15  1  0
 28 29  1  0
M  END
> <minimizedAffinity>
-9.56568

> <CNNscore>
0.9401304126

> <CNNaffinity>
7.3294849396

> <CNN_VS>
6.8906717300

> <CNNaffinity_variance>
0.1176974177

$$$$



 36 39  0  0  0  0  0  0  0  0999 V2000
   23.7214    4.7623   57.7098 C   0  0  0  0  0  0  0  0  0  0  0  0
   23.6703    6.4280   57.4057 S   0  0  0  0  0  0  0  0  0  0  0  0
   22.3586    6.2634   56.3348 C   0  0  0  0  0  0  0  0  0  0  0  0
   21.9385    4.9527   56.2131 C   0  0  0  0  0  0  0  0  0  0  0  0
   22.7254    4.0575   57.0391 C   0  0  0  0  0  0  0  0  0  0  0  0
   20.8664    4.6315   55.2794 C   0  0  0  0  0  0  0  0  0  0  0  0
   19.5725    5.1256   55.4894 C   0  0  0  0  0  0  0  0  0  0  0  0
   18.5421    4.7899   54.6092 C   0  0  0  0  0  0  0  0  0  0  0  0
   18.7987    3.9606   53.5181 C   0  0  0  0  0  0  0  0  0  0  0  0
   20.0853    3.4691   53.3025 C   0  0  0  0  0  0  0  0  0  0  0  0
   21.1185    3.8043   54.1789 C   0  0  0  0  0  0  0  0  0  0  0  0
   24.5537    5.5761   60.4678 O   0  0  0  0  0  0  0  0  0  0  0  0
   25.0053    4.6247   59.8389 C   0  0  0  0  0  0  0  0  0  0  0  0
   24.6637    4.2113   58.5652 N   0  0  0  0  0  0  0  0  0  0  0  0
   25.1503    3.4273   58.2221 H   0  0  0  0  0  0  0  0  0  0  0  0
   26.0294    3.7104   60.4776 C   0  0  0  0  0  0  0  0  0  0  0  0
   27.4131    3.9681   59.8946 C   0  0  0  0  0  0  0  0  0  0  0  0
   27.6425    5.3665   59.5336 N   0  0  0  0  0  0  0  0  0  0  0  0
   27.4359    5.6545   58.6151 H   0  0  0  0  0  0  0  0  0  0  0  0
   28.1391    6.3085   60.4285 C   0  0  0  0  0  0  0  0  0  0  0  0
   28.7908    7.4406   59.9167 C   0  0  0  0  0  0  0  0  0  0  0  0
   29.3484    8.4062   60.7597 C   0  0  0  0  0  0  0  0  0  0  0  0
   29.2839    8.2426   62.1387 C   0  0  0  0  0  0  0  0  0  0  0  0
   28.6770    7.1075   62.6675 C   0  0  0  0  0  0  0  0  0  0  0  0
   28.1232    6.1437   61.8170 C   0  0  0  0  0  0  0  0  0  0  0  0
   22.5971    2.6027   57.1997 C   0  0  0  0  0  0  0  0  0  0  0  0
   23.1047    1.8260   56.3929 O   0  0  0  0  0  0  0  0  0  0  0  0
   21.9314    2.1710   58.3210 N   0  0  0  0  0  0  0  0  0  0  0  0
   21.6664    2.8300   59.0028 H   0  0  0  0  0  0  0  0  0  0  0  0
   21.6090    0.7801   58.5288 C   0  0  0  0  0  0  0  0  0  0  0  0
   22.4562    0.1995   59.6309 C   0  0  0  0  0  0  0  0  0  0  0  0
   22.2138   -1.0931   60.1166 C   0  0  0  0  0  0  0  0  0  0  0  0
   23.0207   -1.6348   61.1188 C   0  0  0  0  0  0  0  0  0  0  0  0
   24.0818   -0.8950   61.6375 C   0  0  0  0  0  0  0  0  0  0  0  0
   24.3391    0.3863   61.1540 C   0  0  0  0  0  0  0  0  0  0  0  0
   23.5322    0.9308   60.1543 C   0  0  0  0  0  0  0  0  0  0  0  0
 12 13  2  0
 13 16  1  0
 16 17  1  0
 17 18  1  0
 18 20  1  0
 20 21  2  0
 21 22  1  0
 22 23  2  0
 23 24  1  0
 24 25  2  0
 13 14  1  0
 14  1  1  0
  1  2  1  0
  2  3  1  0
  3  4  2  0
  4  6  1  0
  6  7  2  0
  7  8  1  0
  8  9  2  0
  9 10  1  0
 10 11  2  0
  4  5  1  0
  5 26  1  0
 26 27  2  0
 26 28  1  0
 28 30  1  0
 30 31  1  0
 31 32  2  0
 32 33  1  0
 33 34  2  0
 34 35  1  0
 35 36  2  0
 25 20  1  0
  5  1  2  0
 36 31  1  0
 11  6  1  0
 18 19  1  0
 14 15  1  0
 28 29  1  0
M  END
> <minimizedAffinity>
-9.57752

> <CNNscore>
0.7659037113

> <CNNaffinity>
7.0272946358

> <CNN_VS>
5.3822312355

> <CNNaffinity_variance>
0.1067216694

$$$$



 36 39  0  0  0  0  0  0  0  0999 V2000
   24.0085    3.1265   58.9559 C   0  0  0  0  0  0  0  0  0  0  0  0
   23.1964    2.5583   57.5821 S   0  0  0  0  0  0  0  0  0  0  0  0
   22.9215    4.1354   57.0061 C   0  0  0  0  0  0  0  0  0  0  0  0
   23.4563    5.1010   57.8371 C   0  0  0  0  0  0  0  0  0  0  0  0
   24.1206    4.5141   58.9848 C   0  0  0  0  0  0  0  0  0  0  0  0
   23.2479    6.5085   57.5211 C   0  0  0  0  0  0  0  0  0  0  0  0
   22.2008    6.8971   56.6756 C   0  0  0  0  0  0  0  0  0  0  0  0
   22.0241    8.2435   56.3512 C   0  0  0  0  0  0  0  0  0  0  0  0
   22.8908    9.2056   56.8682 C   0  0  0  0  0  0  0  0  0  0  0  0
   23.9323    8.8246   57.7129 C   0  0  0  0  0  0  0  0  0  0  0  0
   24.1109    7.4800   58.0414 C   0  0  0  0  0  0  0  0  0  0  0  0
   22.9102    2.3231   61.6223 O   0  0  0  0  0  0  0  0  0  0  0  0
   23.9561    1.9133   61.1298 C   0  0  0  0  0  0  0  0  0  0  0  0
   24.5110    2.2560   59.9114 N   0  0  0  0  0  0  0  0  0  0  0  0
   25.3708    1.8285   59.6945 H   0  0  0  0  0  0  0  0  0  0  0  0
   24.7771    0.8674   61.8541 C   0  0  0  0  0  0  0  0  0  0  0  0
   24.2162   -0.5253   61.5956 C   0  0  0  0  0  0  0  0  0  0  0  0
   23.7895   -0.7346   60.2127 N   0  0  0  0  0  0  0  0  0  0  0  0
   24.4160   -0.5067   59.4882 H   0  0  0  0  0  0  0  0  0  0  0  0
   22.5391   -1.2408   59.8738 C   0  0  0  0  0  0  0  0  0  0  0  0
   21.6312   -1.5288   60.9039 C   0  0  0  0  0  0  0  0  0  0  0  0
   20.3731   -2.0766   60.6372 C   0  0  0  0  0  0  0  0  0  0  0  0
   20.0085   -2.3698   59.3280 C   0  0  0  0  0  0  0  0  0  0  0  0
   20.9088   -2.1291   58.2946 C   0  0  0  0  0  0  0  0  0  0  0  0
   22.1676   -1.5829   58.5698 C   0  0  0  0  0  0  0  0  0  0  0  0
   24.8162    5.1883   60.0894 C   0  0  0  0  0  0  0  0  0  0  0  0
   24.1921    5.6974   61.0183 O   0  0  0  0  0  0  0  0  0  0  0  0
   26.1891    5.1660   60.0473 N   0  0  0  0  0  0  0  0  0  0  0  0
   26.6372    4.6270   59.3560 H   0  0  0  0  0  0  0  0  0  0  0  0
   26.9934    5.9096   60.9864 C   0  0  0  0  0  0  0  0  0  0  0  0
   27.7207    7.0298   60.2896 C   0  0  0  0  0  0  0  0  0  0  0  0
   27.0154    8.1065   59.7339 C   0  0  0  0  0  0  0  0  0  0  0  0
   27.6983    9.1547   59.1142 C   0  0  0  0  0  0  0  0  0  0  0  0
   29.0904    9.1418   59.0525 C   0  0  0  0  0  0  0  0  0  0  0  0
   29.8022    8.0824   59.6118 C   0  0  0  0  0  0  0  0  0  0  0  0
   29.1218    7.0324   60.2293 C   0  0  0  0  0  0  0  0  0  0  0  0
 12 13  2  0
 13 16  1  0
 16 17  1  0
 17 18  1  0
 18 20  1  0
 20 21  2  0
 21 22  1  0
 22 23  2  0
 23 24  1  0
 24 25  2  0
 13 14  1  0
 14  1  1  0
  1  2  1  0
  2  3  1  0
  3  4  2  0
  4  6  1  0
  6  7  2  0
  7  8  1  0
  8  9  2  0
  9 10  1  0
 10 11  2  0
  4  5  1  0
  5 26  1  0
 26 27  2  0
 26 28  1  0
 28 30  1  0
 30 31  1  0
 31 32  2  0
 32 33  1  0
 33 34  2  0
 34 35  1  0
 35 36  2  0
 25 20  1  0
  5  1  2  0
 36 31  1  0
 11  6  1  0
 18 19  1  0
 14 15  1  0
 28 29  1  0
M  END
> <minimizedAffinity>
-9.11581

> <CNNscore>
0.6580826044

> <CNNaffinity>
6.7684121132

> <CNN_VS>
4.4541740417

> <CNNaffinity_variance>
0.3363189399

$$$$



 36 39  0  0  0  0  0  0  0  0999 V2000
   25.7253    6.8503   59.0328 C   0  0  0  0  0  0  0  0  0  0  0  0
   24.7792    7.8116   58.0079 S   0  0  0  0  0  0  0  0  0  0  0  0
   25.7125    9.1970   58.3303 C   0  0  0  0  0  0  0  0  0  0  0  0
   26.7554    8.9398   59.1993 C   0  0  0  0  0  0  0  0  0  0  0  0
   26.7851    7.5482   59.6059 C   0  0  0  0  0  0  0  0  0  0  0  0
   27.6102   10.0382   59.6320 C   0  0  0  0  0  0  0  0  0  0  0  0
   28.9908    9.9955   59.3988 C   0  0  0  0  0  0  0  0  0  0  0  0
   29.8096   11.0357   59.8425 C   0  0  0  0  0  0  0  0  0  0  0  0
   29.2545   12.1204   60.5201 C   0  0  0  0  0  0  0  0  0  0  0  0
   27.8807   12.1696   60.7516 C   0  0  0  0  0  0  0  0  0  0  0  0
   27.0585   11.1329   60.3077 C   0  0  0  0  0  0  0  0  0  0  0  0
   24.1175    5.4899   61.1602 O   0  0  0  0  0  0  0  0  0  0  0  0
   24.6856    4.9295   60.2287 C   0  0  0  0  0  0  0  0  0  0  0  0
   25.4443    5.5063   59.2280 N   0  0  0  0  0  0  0  0  0  0  0  0
   25.8342    4.8852   58.5711 H   0  0  0  0  0  0  0  0  0  0  0  0
   24.5525    3.4319   60.0495 C   0  0  0  0  0  0  0  0  0  0  0  0
   24.7401    2.7157   61.3810 C   0  0  0  0  0  0  0  0  0  0  0  0
   24.6509    1.2597   61.2774 N   0  0  0  0  0  0  0  0  0  0  0  0
   25.4815    0.7459   61.1538 H   0  0  0  0  0  0  0  0  0  0  0  0
   23.4464    0.5676   61.3456 C   0  0  0  0  0  0  0  0  0  0  0  0
   23.4395   -0.7985   61.0259 C   0  0  0  0  0  0  0  0  0  0  0  0
   22.2579   -1.5451   61.0350 C   0  0  0  0  0  0  0  0  0  0  0  0
   21.0507   -0.9282   61.3432 C   0  0  0  0  0  0  0  0  0  0  0  0
   21.0287    0.4344   61.6247 C   0  0  0  0  0  0  0  0  0  0  0  0
   22.2156    1.1759   61.6111 C   0  0  0  0  0  0  0  0  0  0  0  0
   27.7297    6.8726   60.5059 C   0  0  0  0  0  0  0  0  0  0  0  0
   28.3507    5.8749   60.1444 O   0  0  0  0  0  0  0  0  0  0  0  0
   27.9134    7.4495   61.7389 N   0  0  0  0  0  0  0  0  0  0  0  0
   27.4972    8.3221   61.9250 H   0  0  0  0  0  0  0  0  0  0  0  0
   28.6986    6.8142   62.7693 C   0  0  0  0  0  0  0  0  0  0  0  0
   29.5788    7.8222   63.4611 C   0  0  0  0  0  0  0  0  0  0  0  0
   29.4025    9.1961   63.2452 C   0  0  0  0  0  0  0  0  0  0  0  0
   30.2039   10.1251   63.9114 C   0  0  0  0  0  0  0  0  0  0  0  0
   31.1809    9.6912   64.8054 C   0  0  0  0  0  0  0  0  0  0  0  0
   31.3571    8.3284   65.0364 C   0  0  0  0  0  0  0  0  0  0  0  0
   30.5591    7.3979   64.3697 C   0  0  0  0  0  0  0  0  0  0  0  0
 12 13  2  0
 13 16  1  0
 16 17  1  0
 17 18  1  0
 18 20  1  0
 20 21  2  0
 21 22  1  0
 22 23  2  0
 23 24  1  0
 24 25  2  0
 13 14  1  0
 14  1  1  0
  1  2  1  0
  2  3  1  0
  3  4  2  0
  4  6  1  0
  6  7  2  0
  7  8  1  0
  8  9  2  0
  9 10  1  0
 10 11  2  0
  4  5  1  0
  5 26  1  0
 26 27  2  0
 26 28  1  0
 28 30  1  0
 30 31  1  0
 31 32  2  0
 32 33  1  0
 33 34  2  0
 34 35  1  0
 35 36  2  0
 25 20  1  0
  5  1  2  0
 36 31  1  0
 11  6  1  0
 18 19  1  0
 14 15  1  0
 28 29  1  0
M  END
> <minimizedAffinity>
-8.91102

> <CNNscore>
0.5890467763

> <CNNaffinity>
6.7963466644

> <CNN_VS>
4.0033659935

> <CNNaffinity_variance>
0.0697294846

$$$$



 36 39  0  0  0  0  0  0  0  0999 V2000
   19.3305    3.8545   53.9927 C   0  0  0  0  0  0  0  0  0  0  0  0
   18.8474    5.4131   53.5377 S   0  0  0  0  0  0  0  0  0  0  0  0
   17.6305    4.8123   52.5117 C   0  0  0  0  0  0  0  0  0  0  0  0
   17.5684    3.4321   52.5191 C   0  0  0  0  0  0  0  0  0  0  0  0
   18.5573    2.8546   53.4088 C   0  0  0  0  0  0  0  0  0  0  0  0
   16.6229    2.7562   51.6395 C   0  0  0  0  0  0  0  0  0  0  0  0
   17.0656    1.7724   50.7460 C   0  0  0  0  0  0  0  0  0  0  0  0
   16.1610    1.1497   49.8839 C   0  0  0  0  0  0  0  0  0  0  0  0
   14.8134    1.5064   49.9099 C   0  0  0  0  0  0  0  0  0  0  0  0
   14.3670    2.4823   50.7997 C   0  0  0  0  0  0  0  0  0  0  0  0
   15.2678    3.1054   51.6647 C   0  0  0  0  0  0  0  0  0  0  0  0
   22.2800    4.2108   53.6249 O   0  0  0  0  0  0  0  0  0  0  0  0
   21.7304    3.8392   54.6566 C   0  0  0  0  0  0  0  0  0  0  0  0
   20.3792    3.6511   54.8771 N   0  0  0  0  0  0  0  0  0  0  0  0
   20.1298    3.3328   55.7747 H   0  0  0  0  0  0  0  0  0  0  0  0
   22.5511    3.5799   55.9023 C   0  0  0  0  0  0  0  0  0  0  0  0
   22.5849    4.8193   56.7876 C   0  0  0  0  0  0  0  0  0  0  0  0
   22.6702    6.0707   56.0357 N   0  0  0  0  0  0  0  0  0  0  0  0
   22.7344    6.0255   55.0543 H   0  0  0  0  0  0  0  0  0  0  0  0
   22.6649    7.3217   56.6435 C   0  0  0  0  0  0  0  0  0  0  0  0
   21.5104    8.1121   56.5398 C   0  0  0  0  0  0  0  0  0  0  0  0
   21.4509    9.3947   57.0923 C   0  0  0  0  0  0  0  0  0  0  0  0
   22.5613    9.9215   57.7420 C   0  0  0  0  0  0  0  0  0  0  0  0
   23.7300    9.1704   57.8219 C   0  0  0  0  0  0  0  0  0  0  0  0
   23.7828    7.8879   57.2640 C   0  0  0  0  0  0  0  0  0  0  0  0
   18.8130    1.4384   53.7050 C   0  0  0  0  0  0  0  0  0  0  0  0
   19.5309    0.7555   52.9772 O   0  0  0  0  0  0  0  0  0  0  0  0
   18.2523    0.9476   54.8590 N   0  0  0  0  0  0  0  0  0  0  0  0
   17.8029    1.5709   55.4745 H   0  0  0  0  0  0  0  0  0  0  0  0
   18.3026   -0.4546   55.1953 C   0  0  0  0  0  0  0  0  0  0  0  0
   19.4644   -0.7377   56.1115 C   0  0  0  0  0  0  0  0  0  0  0  0
   20.3231    0.2925   56.5200 C   0  0  0  0  0  0  0  0  0  0  0  0
   21.3811    0.0272   57.3914 C   0  0  0  0  0  0  0  0  0  0  0  0
   21.5850   -1.2657   57.8697 C   0  0  0  0  0  0  0  0  0  0  0  0
   20.7306   -2.2951   57.4794 C   0  0  0  0  0  0  0  0  0  0  0  0
   19.6742   -2.0329   56.6064 C   0  0  0  0  0  0  0  0  0  0  0  0
 12 13  2  0
 13 16  1  0
 16 17  1  0
 17 18  1  0
 18 20  1  0
 20 21  2  0
 21 22  1  0
 22 23  2  0
 23 24  1  0
 24 25  2  0
 13 14  1  0
 14  1  1  0
  1  2  1  0
  2  3  1  0
  3  4  2  0
  4  6  1  0
  6  7  2  0
  7  8  1  0
  8  9  2  0
  9 10  1  0
 10 11  2  0
  4  5  1  0
  5 26  1  0
 26 27  2  0
 26 28  1  0
 28 30  1  0
 30 31  1  0
 31 32  2  0
 32 33  1  0
 33 34  2  0
 34 35  1  0
 35 36  2  0
 25 20  1  0
  5  1  2  0
 36 31  1  0
 11  6  1  0
 18 19  1  0
 14 15  1  0
 28 29  1  0
M  END
> <minimizedAffinity>
-8.32842

> <CNNscore>
0.5152335167

> <CNNaffinity>
5.6634373665

> <CNN_VS>
2.9179928303

> <CNNaffinity_variance>
0.8512198329

$$$$



 36 39  0  0  0  0  0  0  0  0999 V2000
   25.7771    5.4883   60.2044 C   0  0  0  0  0  0  0  0  0  0  0  0
   24.7345    6.1597   59.0504 S   0  0  0  0  0  0  0  0  0  0  0  0
   25.7107    7.5413   58.8697 C   0  0  0  0  0  0  0  0  0  0  0  0
   26.8394    7.4972   59.6654 C   0  0  0  0  0  0  0  0  0  0  0  0
   26.8996    6.2761   60.4451 C   0  0  0  0  0  0  0  0  0  0  0  0
   27.7468    8.6377   59.6793 C   0  0  0  0  0  0  0  0  0  0  0  0
   28.9083    8.6283   58.8963 C   0  0  0  0  0  0  0  0  0  0  0  0
   29.7901    9.7101   58.9365 C   0  0  0  0  0  0  0  0  0  0  0  0
   29.5166   10.8033   59.7575 C   0  0  0  0  0  0  0  0  0  0  0  0
   28.3603   10.8193   60.5360 C   0  0  0  0  0  0  0  0  0  0  0  0
   27.4752    9.7409   60.4968 C   0  0  0  0  0  0  0  0  0  0  0  0
   24.0585    3.2162   59.2849 O   0  0  0  0  0  0  0  0  0  0  0  0
   24.7060    3.2436   60.3262 C   0  0  0  0  0  0  0  0  0  0  0  0
   25.5059    4.2658   60.8006 N   0  0  0  0  0  0  0  0  0  0  0  0
   25.9374    4.1062   61.6710 H   0  0  0  0  0  0  0  0  0  0  0  0
   24.7276    2.0352   61.2383 C   0  0  0  0  0  0  0  0  0  0  0  0
   23.5353    2.0600   62.1864 C   0  0  0  0  0  0  0  0  0  0  0  0
   22.2644    1.7490   61.5333 N   0  0  0  0  0  0  0  0  0  0  0  0
   21.7515    2.4857   61.1288 H   0  0  0  0  0  0  0  0  0  0  0  0
   21.7469    0.4602   61.4573 C   0  0  0  0  0  0  0  0  0  0  0  0
   20.4402    0.2347   61.9156 C   0  0  0  0  0  0  0  0  0  0  0  0
   19.8726   -1.0426   61.9054 C   0  0  0  0  0  0  0  0  0  0  0  0
   20.6161   -2.1277   61.4555 C   0  0  0  0  0  0  0  0  0  0  0  0
   21.9278   -1.9332   61.0335 C   0  0  0  0  0  0  0  0  0  0  0  0
   22.4901   -0.6517   61.0491 C   0  0  0  0  0  0  0  0  0  0  0  0
   27.9299    5.8435   61.3991 C   0  0  0  0  0  0  0  0  0  0  0  0
   28.5921    4.8263   61.2031 O   0  0  0  0  0  0  0  0  0  0  0  0
   28.1412    6.6647   62.4798 N   0  0  0  0  0  0  0  0  0  0  0  0
   27.6817    7.5347   62.5160 H   0  0  0  0  0  0  0  0  0  0  0  0
   29.0169    6.2896   63.5635 C   0  0  0  0  0  0  0  0  0  0  0  0
   29.8014    7.4814   64.0466 C   0  0  0  0  0  0  0  0  0  0  0  0
   30.8596    7.3241   64.9527 C   0  0  0  0  0  0  0  0  0  0  0  0
   31.5999    8.4301   65.3743 C   0  0  0  0  0  0  0  0  0  0  0  0
   31.2965    9.7004   64.8881 C   0  0  0  0  0  0  0  0  0  0  0  0
   30.2543    9.8669   63.9782 C   0  0  0  0  0  0  0  0  0  0  0  0
   29.5114    8.7633   63.5575 C   0  0  0  0  0  0  0  0  0  0  0  0
 12 13  2  0
 13 16  1  0
 16 17  1  0
 17 18  1  0
 18 20  1  0
 20 21  2  0
 21 22  1  0
 22 23  2  0
 23 24  1  0
 24 25  2  0
 13 14  1  0
 14  1  1  0
  1  2  1  0
  2  3  1  0
  3  4  2  0
  4  6  1  0
  6  7  2  0
  7  8  1  0
  8  9  2  0
  9 10  1  0
 10 11  2  0
  4  5  1  0
  5 26  1  0
 26 27  2  0
 26 28  1  0
 28 30  1  0
 30 31  1  0
 31 32  2  0
 32 33  1  0
 33 34  2  0
 34 35  1  0
 35 36  2  0
 25 20  1  0
  5  1  2  0
 36 31  1  0
 11  6  1  0
 18 19  1  0
 14 15  1  0
 28 29  1  0
M  END
> <minimizedAffinity>
-9.69979

> <CNNscore>
0.4576613903

> <CNNaffinity>
6.5217857361

> <CNN_VS>
2.9847695827

> <CNNaffinity_variance>
0.2220544964

$$$$



 36 39  0  0  0  0  0  0  0  0999 V2000
   19.9502    2.8279   55.2947 C   0  0  0  0  0  0  0  0  0  0  0  0
   20.0409    4.4499   54.8148 S   0  0  0  0  0  0  0  0  0  0  0  0
   18.9720    4.1983   53.5154 C   0  0  0  0  0  0  0  0  0  0  0  0
   18.5250    2.8928   53.4454 C   0  0  0  0  0  0  0  0  0  0  0  0
   19.0819    2.0767   54.5069 C   0  0  0  0  0  0  0  0  0  0  0  0
   17.6546    2.4951   52.3460 C   0  0  0  0  0  0  0  0  0  0  0  0
   18.1561    1.7260   51.2882 C   0  0  0  0  0  0  0  0  0  0  0  0
   17.3262    1.3736   50.2222 C   0  0  0  0  0  0  0  0  0  0  0  0
   15.9948    1.7874   50.2078 C   0  0  0  0  0  0  0  0  0  0  0  0
   15.4897    2.5500   51.2598 C   0  0  0  0  0  0  0  0  0  0  0  0
   16.3156    2.9023   52.3283 C   0  0  0  0  0  0  0  0  0  0  0  0
   22.9019    2.7462   55.7866 O   0  0  0  0  0  0  0  0  0  0  0  0
   22.0392    2.3465   56.5615 C   0  0  0  0  0  0  0  0  0  0  0  0
   20.6690    2.3534   56.3816 N   0  0  0  0  0  0  0  0  0  0  0  0
   20.1364    1.9737   57.1174 H   0  0  0  0  0  0  0  0  0  0  0  0
   22.4311    1.8104   57.9223 C   0  0  0  0  0  0  0  0  0  0  0  0
   21.2527    1.0999   58.5762 C   0  0  0  0  0  0  0  0  0  0  0  0
   21.2991    1.1179   60.0377 N   0  0  0  0  0  0  0  0  0  0  0  0
   20.4557    1.2297   60.5331 H   0  0  0  0  0  0  0  0  0  0  0  0
   22.4802    0.9841   60.7600 C   0  0  0  0  0  0  0  0  0  0  0  0
   23.0861   -0.2796   60.8256 C   0  0  0  0  0  0  0  0  0  0  0  0
   24.2520   -0.4934   61.5664 C   0  0  0  0  0  0  0  0  0  0  0  0
   24.8226    0.5554   62.2786 C   0  0  0  0  0  0  0  0  0  0  0  0
   24.2162    1.8077   62.2596 C   0  0  0  0  0  0  0  0  0  0  0  0
   23.0475    2.0135   61.5176 C   0  0  0  0  0  0  0  0  0  0  0  0
   18.8553    0.6524   54.7877 C   0  0  0  0  0  0  0  0  0  0  0  0
   19.7708   -0.1647   54.7121 O   0  0  0  0  0  0  0  0  0  0  0  0
   17.5877    0.3056   55.1874 N   0  0  0  0  0  0  0  0  0  0  0  0
   16.9310    1.0173   55.3644 H   0  0  0  0  0  0  0  0  0  0  0  0
   17.1907   -1.0713   55.3555 C   0  0  0  0  0  0  0  0  0  0  0  0
   16.0834   -1.4236   54.3968 C   0  0  0  0  0  0  0  0  0  0  0  0
   15.8604   -0.6556   53.2453 C   0  0  0  0  0  0  0  0  0  0  0  0
   14.8501   -1.0047   52.3473 C   0  0  0  0  0  0  0  0  0  0  0  0
   14.0607   -2.1281   52.5858 C   0  0  0  0  0  0  0  0  0  0  0  0
   14.2812   -2.9054   53.7212 C   0  0  0  0  0  0  0  0  0  0  0  0
   15.2885   -2.5569   54.6215 C   0  0  0  0  0  0  0  0  0  0  0  0
 12 13  2  0
 13 16  1  0
 16 17  1  0
 17 18  1  0
 18 20  1  0
 20 21  2  0
 21 22  1  0
 22 23  2  0
 23 24  1  0
 24 25  2  0
 13 14  1  0
 14  1  1  0
  1  2  1  0
  2  3  1  0
  3  4  2  0
  4  6  1  0
  6  7  2  0
  7  8  1  0
  8  9  2  0
  9 10  1  0
 10 11  2  0
  4  5  1  0
  5 26  1  0
 26 27  2  0
 26 28  1  0
 28 30  1  0
 30 31  1  0
 31 32  2  0
 32 33  1  0
 33 34  2  0
 34 35  1  0
 35 36  2  0
 25 20  1  0
  5  1  2  0
 36 31  1  0
 11  6  1  0
 18 19  1  0
 14 15  1  0
 28 29  1  0
M  END
> <minimizedAffinity>
-7.90260

> <CNNscore>
0.3866018653

> <CNNaffinity>
5.6539859772

> <CNN_VS>
2.1858415604

> <CNNaffinity_variance>
0.6740164757

$$$$



 36 39  0  0  0  0  0  0  0  0999 V2000
   19.9328    2.8766   55.2766 C   0  0  0  0  0  0  0  0  0  0  0  0
   19.9773    4.5172   54.8571 S   0  0  0  0  0  0  0  0  0  0  0  0
   18.9285    4.2807   53.5386 C   0  0  0  0  0  0  0  0  0  0  0  0
   18.5230    2.9655   53.4166 C   0  0  0  0  0  0  0  0  0  0  0  0
   19.0955    2.1285   54.4532 C   0  0  0  0  0  0  0  0  0  0  0  0
   17.6754    2.5819   52.2947 C   0  0  0  0  0  0  0  0  0  0  0  0
   16.3032    2.8627   52.3152 C   0  0  0  0  0  0  0  0  0  0  0  0
   15.4900    2.4658   51.2519 C   0  0  0  0  0  0  0  0  0  0  0  0
   16.0424    1.7877   50.1661 C   0  0  0  0  0  0  0  0  0  0  0  0
   17.4081    1.5090   50.1390 C   0  0  0  0  0  0  0  0  0  0  0  0
   18.2246    1.9061   51.1989 C   0  0  0  0  0  0  0  0  0  0  0  0
   22.8892    2.6823   55.7050 O   0  0  0  0  0  0  0  0  0  0  0  0
   22.0287    2.3253   56.5029 C   0  0  0  0  0  0  0  0  0  0  0  0
   20.6562    2.3849   56.3528 N   0  0  0  0  0  0  0  0  0  0  0  0
   20.1254    2.0342   57.1042 H   0  0  0  0  0  0  0  0  0  0  0  0
   22.4291    1.7878   57.8606 C   0  0  0  0  0  0  0  0  0  0  0  0
   22.1228    0.2985   57.9572 C   0  0  0  0  0  0  0  0  0  0  0  0
   22.3659   -0.2617   59.2859 N   0  0  0  0  0  0  0  0  0  0  0  0
   21.9820   -1.1422   59.5018 H   0  0  0  0  0  0  0  0  0  0  0  0
   23.1146    0.3923   60.2587 C   0  0  0  0  0  0  0  0  0  0  0  0
   24.4770    0.0796   60.3784 C   0  0  0  0  0  0  0  0  0  0  0  0
   25.2786    0.6696   61.3598 C   0  0  0  0  0  0  0  0  0  0  0  0
   24.7216    1.5710   62.2598 C   0  0  0  0  0  0  0  0  0  0  0  0
   23.3637    1.8656   62.1844 C   0  0  0  0  0  0  0  0  0  0  0  0
   22.5669    1.2689   61.2005 C   0  0  0  0  0  0  0  0  0  0  0  0
   18.9108    0.6886   54.6797 C   0  0  0  0  0  0  0  0  0  0  0  0
   19.8505   -0.0976   54.5767 O   0  0  0  0  0  0  0  0  0  0  0  0
   17.6532    0.2894   55.0617 N   0  0  0  0  0  0  0  0  0  0  0  0
   16.9751    0.9742   55.2629 H   0  0  0  0  0  0  0  0  0  0  0  0
   17.2970   -1.1040   55.1767 C   0  0  0  0  0  0  0  0  0  0  0  0
   17.4286   -1.5678   56.6039 C   0  0  0  0  0  0  0  0  0  0  0  0
   17.2682   -0.6689   57.6678 C   0  0  0  0  0  0  0  0  0  0  0  0
   17.3640   -1.1119   58.9882 C   0  0  0  0  0  0  0  0  0  0  0  0
   17.6110   -2.4566   59.2579 C   0  0  0  0  0  0  0  0  0  0  0  0
   17.7605   -3.3610   58.2084 C   0  0  0  0  0  0  0  0  0  0  0  0
   17.6678   -2.9201   56.8878 C   0  0  0  0  0  0  0  0  0  0  0  0
 12 13  2  0
 13 16  1  0
 16 17  1  0
 17 18  1  0
 18 20  1  0
 20 21  2  0
 21 22  1  0
 22 23  2  0
 23 24  1  0
 24 25  2  0
 13 14  1  0
 14  1  1  0
  1  2  1  0
  2  3  1  0
  3  4  2  0
  4  6  1  0
  6  7  2  0
  7  8  1  0
  8  9  2  0
  9 10  1  0
 10 11  2  0
  4  5  1  0
  5 26  1  0
 26 27  2  0
 26 28  1  0
 28 30  1  0
 30 31  1  0
 31 32  2  0
 32 33  1  0
 33 34  2  0
 34 35  1  0
 35 36  2  0
 25 20  1  0
  5  1  2  0
 36 31  1  0
 11  6  1  0
 18 19  1  0
 14 15  1  0
 28 29  1  0
M  END
> <minimizedAffinity>
-8.05069

> <CNNscore>
0.3725901544

> <CNNaffinity>
5.7709770203

> <CNN_VS>
2.1502091885

> <CNNaffinity_variance>
0.5848856568

$$$$



 36 39  0  0  0  0  0  0  0  0999 V2000
   25.0654    6.6556   58.6353 C   0  0  0  0  0  0  0  0  0  0  0  0
   24.1272    7.7751   57.7773 S   0  0  0  0  0  0  0  0  0  0  0  0
   25.1776    9.0566   58.1628 C   0  0  0  0  0  0  0  0  0  0  0  0
   26.2532    8.6454   58.9264 C   0  0  0  0  0  0  0  0  0  0  0  0
   26.2080    7.2211   59.1950 C   0  0  0  0  0  0  0  0  0  0  0  0
   27.2119    9.6360   59.3996 C   0  0  0  0  0  0  0  0  0  0  0  0
   28.5763    9.4928   59.1168 C   0  0  0  0  0  0  0  0  0  0  0  0
   29.4944   10.4279   59.5985 C   0  0  0  0  0  0  0  0  0  0  0  0
   29.0548   11.5075   60.3636 C   0  0  0  0  0  0  0  0  0  0  0  0
   27.6976   11.6567   60.6449 C   0  0  0  0  0  0  0  0  0  0  0  0
   26.7765   10.7253   60.1632 C   0  0  0  0  0  0  0  0  0  0  0  0
   23.1889    5.0417   56.9512 O   0  0  0  0  0  0  0  0  0  0  0  0
   23.8301    4.6195   57.9078 C   0  0  0  0  0  0  0  0  0  0  0  0
   24.7006    5.3203   58.7208 N   0  0  0  0  0  0  0  0  0  0  0  0
   25.1137    4.8072   59.4525 H   0  0  0  0  0  0  0  0  0  0  0  0
   23.7564    3.1545   58.2835 C   0  0  0  0  0  0  0  0  0  0  0  0
   22.3329    2.6342   58.1283 C   0  0  0  0  0  0  0  0  0  0  0  0
   21.9118    1.7542   59.2177 N   0  0  0  0  0  0  0  0  0  0  0  0
   20.9703    1.4689   59.2537 H   0  0  0  0  0  0  0  0  0  0  0  0
   22.7806    1.3019   60.2052 C   0  0  0  0  0  0  0  0  0  0  0  0
   23.0640    2.1486   61.2874 C   0  0  0  0  0  0  0  0  0  0  0  0
   23.9585    1.7735   62.2939 C   0  0  0  0  0  0  0  0  0  0  0  0
   24.6074    0.5460   62.2221 C   0  0  0  0  0  0  0  0  0  0  0  0
   24.3712   -0.2926   61.1371 C   0  0  0  0  0  0  0  0  0  0  0  0
   23.4761    0.0910   60.1319 C   0  0  0  0  0  0  0  0  0  0  0  0
   27.1573    6.3978   59.9564 C   0  0  0  0  0  0  0  0  0  0  0  0
   27.5981    5.3457   59.4975 O   0  0  0  0  0  0  0  0  0  0  0  0
   27.5575    6.8978   61.1716 N   0  0  0  0  0  0  0  0  0  0  0  0
   27.2816    7.8073   61.4284 H   0  0  0  0  0  0  0  0  0  0  0  0
   28.3704    6.1291   62.0827 C   0  0  0  0  0  0  0  0  0  0  0  0
   29.0680    7.0355   63.0631 C   0  0  0  0  0  0  0  0  0  0  0  0
   29.2775    8.3892   62.7645 C   0  0  0  0  0  0  0  0  0  0  0  0
   29.8999    9.2293   63.6896 C   0  0  0  0  0  0  0  0  0  0  0  0
   30.3094    8.7279   64.9237 C   0  0  0  0  0  0  0  0  0  0  0  0
   30.0957    7.3867   65.2358 C   0  0  0  0  0  0  0  0  0  0  0  0
   29.4763    6.5446   64.3116 C   0  0  0  0  0  0  0  0  0  0  0  0
 12 13  2  0
 13 16  1  0
 16 17  1  0
 17 18  1  0
 18 20  1  0
 20 21  2  0
 21 22  1  0
 22 23  2  0
 23 24  1  0
 24 25  2  0
 13 14  1  0
 14  1  1  0
  1  2  1  0
  2  3  1  0
  3  4  2  0
  4  6  1  0
  6  7  2  0
  7  8  1  0
  8  9  2  0
  9 10  1  0
 10 11  2  0
  4  5  1  0
  5 26  1  0
 26 27  2  0
 26 28  1  0
 28 30  1  0
 30 31  1  0
 31 32  2  0
 32 33  1  0
 33 34  2  0
 34 35  1  0
 35 36  2  0
 25 20  1  0
  5  1  2  0
 36 31  1  0
 11  6  1  0
 18 19  1  0
 14 15  1  0
 28 29  1  0
M  END
> <minimizedAffinity>
-8.57586

> <CNNscore>
0.3723863959

> <CNNaffinity>
6.2313647270

> <CNN_VS>
2.3204753399

> <CNNaffinity_variance>
0.3602401912

$$$$
