


 47 52  0  0  0  0  0  0  0  0999 V2000
   25.8888    5.2742   37.5073 C   0  0  0  0  0  0  0  0  0  0  0  0
   25.1521    5.6811   38.4134 O   0  0  0  0  0  0  0  0  0  0  0  0
   27.2624    5.6260   37.4284 N   0  0  0  0  0  0  0  0  0  0  0  0
   27.9579    5.7714   36.1752 C   0  0  0  0  0  0  0  0  0  0  0  0
   27.2109    6.0654   35.0114 C   0  0  0  0  0  0  0  0  0  0  0  0
   27.7894    6.1351   33.7384 C   0  0  0  0  0  0  0  0  0  0  0  0
   29.1503    5.9292   33.5845 C   0  0  0  0  0  0  0  0  0  0  0  0
   29.9150    5.7016   34.7194 C   0  0  0  0  0  0  0  0  0  0  0  0
   31.2806    5.5553   34.6116 O   0  0  0  0  0  0  0  0  0  0  0  0
   29.3516    5.6532   36.0192 C   0  0  0  0  0  0  0  0  0  0  0  0
   30.2805    5.5201   37.0910 N   0  0  0  0  0  0  0  0  0  0  0  0
   30.2608    6.4528   38.1148 C   0  0  0  0  0  0  0  0  0  0  0  0
   29.1452    6.6588   38.8408 C   0  0  0  0  0  0  0  0  0  0  0  0
   27.8739    5.8521   38.7517 C   0  0  0  0  0  0  0  0  0  0  0  0
   29.0885    7.9153   40.0458 S   0  0  0  0  0  0  0  0  0  0  0  0
   28.9733    7.3084   41.3610 O   0  0  0  0  0  0  0  0  0  0  0  0
   28.1095    8.9048   39.6303 O   0  0  0  0  0  0  0  0  0  0  0  0
   30.6579    8.7304   40.0000 C   0  0  0  0  0  0  0  0  0  0  0  0
   31.8314    7.8035   39.6911 C   0  0  0  0  0  0  0  0  0  0  0  0
   32.0343    6.7283   40.7758 C   0  0  0  0  0  0  0  0  0  0  0  0
   33.1175    8.6505   39.6261 C   0  0  0  0  0  0  0  0  0  0  0  0
   31.5889    7.1626   38.3133 C   0  0  0  0  0  0  0  0  0  0  0  0
   31.6895    5.5817   33.7689 H   0  0  0  0  0  0  0  0  0  0  0  0
   30.9262    4.7770   37.1038 H   0  0  0  0  0  0  0  0  0  0  0  0
   24.3014    0.7326   36.6683 C   0  0  0  0  0  0  0  0  0  0  0  0
   24.5169    2.1263   36.1585 C   0  0  0  0  0  0  0  0  0  0  0  0
   24.0830    2.4842   34.8850 C   0  0  0  0  0  0  0  0  0  0  0  0
   24.2776    3.7926   34.4507 C   0  0  0  0  0  0  0  0  0  0  0  0
   24.8893    4.7054   35.3002 C   0  0  0  0  0  0  0  0  0  0  0  0
   25.2918    4.2736   36.5601 C   0  0  0  0  0  0  0  0  0  0  0  0
   25.1076    3.0027   37.0003 N   0  0  0  0  0  0  0  0  0  0  0  0
   27.9201    4.5778   39.6097 C   0  0  0  0  0  0  0  0  0  0  0  0
   27.2184    4.5410   40.8297 C   0  0  0  0  0  0  0  0  0  0  0  0
   27.2370    3.4068   41.6532 C   0  0  0  0  0  0  0  0  0  0  0  0
   27.9639    2.2813   41.2777 C   0  0  0  0  0  0  0  0  0  0  0  0
   28.6536    2.2986   40.0673 C   0  0  0  0  0  0  0  0  0  0  0  0
   28.6245    3.4285   39.2469 C   0  0  0  0  0  0  0  0  0  0  0  0
   29.2911    3.3605   38.0892 F   0  0  0  0  0  0  0  0  0  0  0  0
   28.0829    1.1224   41.9946 O   0  0  0  0  0  0  0  0  0  0  0  0
   26.9125    0.3179   42.1261 C   0  0  0  0  0  0  0  0  0  0  0  0
   26.9911   -0.7908   41.1064 C   0  0  0  0  0  0  0  0  0  0  0  0
   28.2336   -1.2439   40.6398 C   0  0  0  0  0  0  0  0  0  0  0  0
   28.3049   -2.2596   39.6839 C   0  0  0  0  0  0  0  0  0  0  0  0
   27.1321   -2.8202   39.1838 C   0  0  0  0  0  0  0  0  0  0  0  0
   27.2188   -4.1941   37.8891 Br  0  0  0  0  0  0  0  0  0  0  0  0
   25.8900   -2.3715   39.6266 C   0  0  0  0  0  0  0  0  0  0  0  0
   25.8201   -1.3574   40.5839 C   0  0  0  0  0  0  0  0  0  0  0  0
 25 26  1  0
 26 27  2  0
 27 28  1  0
 28 29  2  0
 29 30  1  0
 30  1  1  0
  1  2  2  0
  1  3  1  0
  3  4  1  0
  4  5  2  0
  5  6  1  0
  6  7  2  0
  7  8  1  0
  8  9  1  0
  8 10  2  0
 10 11  1  0
 11 12  1  0
 12 13  2  0
 13 14  1  0
 14 32  1  0
 32 33  2  0
 33 34  1  0
 34 35  2  0
 35 39  1  0
 39 40  1  0
 40 41  1  0
 41 42  2  0
 42 43  1  0
 43 44  2  0
 44 45  1  0
 44 46  1  0
 46 47  2  0
 35 36  1  0
 36 37  2  0
 37 38  1  0
 13 15  1  0
 15 16  2  0
 15 17  2  0
 15 18  1  0
 18 19  1  0
 19 20  1  0
 19 21  1  0
 19 22  1  0
 30 31  2  0
 31 26  1  0
 14  3  1  0
 37 32  1  0
 10  4  1  0
 22 12  1  0
 47 41  1  0
  9 23  1  0
 11 24  1  0
M  END
> <minimizedAffinity>
-9.52638

> <CNNscore>
0.2225788981

> <CNNaffinity>
6.6530756950

> <CNN_VS>
1.4808342457

> <CNNaffinity_variance>
0.4362197816

$$$$



 47 52  0  0  0  0  0  0  0  0999 V2000
   27.4156    3.9338   38.7217 C   0  0  0  0  0  0  0  0  0  0  0  0
   26.8666    4.6767   39.5439 O   0  0  0  0  0  0  0  0  0  0  0  0
   27.6317    4.3208   37.3726 N   0  0  0  0  0  0  0  0  0  0  0  0
   27.6187    3.3805   36.2813 C   0  0  0  0  0  0  0  0  0  0  0  0
   26.9085    2.1677   36.4353 C   0  0  0  0  0  0  0  0  0  0  0  0
   26.9152    1.1584   35.4652 C   0  0  0  0  0  0  0  0  0  0  0  0
   27.6238    1.3344   34.2883 C   0  0  0  0  0  0  0  0  0  0  0  0
   28.2770    2.5416   34.0865 C   0  0  0  0  0  0  0  0  0  0  0  0
   28.9391    2.7765   32.9014 O   0  0  0  0  0  0  0  0  0  0  0  0
   28.2603    3.5852   35.0456 C   0  0  0  0  0  0  0  0  0  0  0  0
   28.8849    4.8017   34.6463 N   0  0  0  0  0  0  0  0  0  0  0  0
   28.1578    5.9790   34.7044 C   0  0  0  0  0  0  0  0  0  0  0  0
   27.6183    6.4018   35.8639 C   0  0  0  0  0  0  0  0  0  0  0  0
   27.8353    5.7737   37.2179 C   0  0  0  0  0  0  0  0  0  0  0  0
   26.6048    7.8177   35.9085 S   0  0  0  0  0  0  0  0  0  0  0  0
   27.2758    8.8595   36.6673 O   0  0  0  0  0  0  0  0  0  0  0  0
   25.2641    7.4098   36.2911 O   0  0  0  0  0  0  0  0  0  0  0  0
   26.4817    8.4035   34.2437 C   0  0  0  0  0  0  0  0  0  0  0  0
   27.7519    8.2062   33.4195 C   0  0  0  0  0  0  0  0  0  0  0  0
   28.9460    9.0042   33.9769 C   0  0  0  0  0  0  0  0  0  0  0  0
   27.4848    8.7049   31.9857 C   0  0  0  0  0  0  0  0  0  0  0  0
   28.0651    6.7004   33.3709 C   0  0  0  0  0  0  0  0  0  0  0  0
   28.9718    2.1106   32.2431 H   0  0  0  0  0  0  0  0  0  0  0  0
   29.8186    4.8054   34.3340 H   0  0  0  0  0  0  0  0  0  0  0  0
   31.2030    0.8904   39.2155 C   0  0  0  0  0  0  0  0  0  0  0  0
   29.7661    1.2019   39.5108 C   0  0  0  0  0  0  0  0  0  0  0  0
   29.0185    0.3612   40.3308 C   0  0  0  0  0  0  0  0  0  0  0  0
   27.6938    0.6912   40.6039 C   0  0  0  0  0  0  0  0  0  0  0  0
   27.1578    1.8514   40.0602 C   0  0  0  0  0  0  0  0  0  0  0  0
   27.9691    2.6430   39.2533 C   0  0  0  0  0  0  0  0  0  0  0  0
   29.2630    2.3375   38.9789 N   0  0  0  0  0  0  0  0  0  0  0  0
   29.1196    6.2691   37.9013 C   0  0  0  0  0  0  0  0  0  0  0  0
   29.0670    7.4074   38.7280 C   0  0  0  0  0  0  0  0  0  0  0  0
   30.2119    7.9052   39.3656 C   0  0  0  0  0  0  0  0  0  0  0  0
   31.4409    7.2777   39.1870 C   0  0  0  0  0  0  0  0  0  0  0  0
   31.5063    6.1430   38.3811 C   0  0  0  0  0  0  0  0  0  0  0  0
   30.3606    5.6468   37.7552 C   0  0  0  0  0  0  0  0  0  0  0  0
   30.4983    4.5395   37.0173 F   0  0  0  0  0  0  0  0  0  0  0  0
   32.6331    7.6702   39.7309 O   0  0  0  0  0  0  0  0  0  0  0  0
   33.1226    6.9126   40.8358 C   0  0  0  0  0  0  0  0  0  0  0  0
   32.3425    7.3175   42.0616 C   0  0  0  0  0  0  0  0  0  0  0  0
   32.0783    8.6695   42.3246 C   0  0  0  0  0  0  0  0  0  0  0  0
   31.3696    9.0445   43.4681 C   0  0  0  0  0  0  0  0  0  0  0  0
   30.9301    8.0679   44.3588 C   0  0  0  0  0  0  0  0  0  0  0  0
   29.9718    8.5661   45.9095 Br  0  0  0  0  0  0  0  0  0  0  0  0
   31.1968    6.7220   44.1192 C   0  0  0  0  0  0  0  0  0  0  0  0
   31.9035    6.3483   42.9743 C   0  0  0  0  0  0  0  0  0  0  0  0
 25 26  1  0
 26 27  2  0
 27 28  1  0
 28 29  2  0
 29 30  1  0
 30  1  1  0
  1  2  2  0
  1  3  1  0
  3  4  1  0
  4  5  2  0
  5  6  1  0
  6  7  2  0
  7  8  1  0
  8  9  1  0
  8 10  2  0
 10 11  1  0
 11 12  1  0
 12 13  2  0
 13 14  1  0
 14 32  1  0
 32 33  2  0
 33 34  1  0
 34 35  2  0
 35 39  1  0
 39 40  1  0
 40 41  1  0
 41 42  2  0
 42 43  1  0
 43 44  2  0
 44 45  1  0
 44 46  1  0
 46 47  2  0
 35 36  1  0
 36 37  2  0
 37 38  1  0
 13 15  1  0
 15 16  2  0
 15 17  2  0
 15 18  1  0
 18 19  1  0
 19 20  1  0
 19 21  1  0
 19 22  1  0
 30 31  2  0
 31 26  1  0
 14  3  1  0
 37 32  1  0
 10  4  1  0
 22 12  1  0
 47 41  1  0
  9 23  1  0
 11 24  1  0
M  END
> <minimizedAffinity>
-8.15697

> <CNNscore>
0.1726057082

> <CNNaffinity>
6.7956557274

> <CNN_VS>
1.1729689837

> <CNNaffinity_variance>
0.1468329877

$$$$



 47 52  0  0  0  0  0  0  0  0999 V2000
   26.7394    2.9175   38.9798 C   0  0  0  0  0  0  0  0  0  0  0  0
   26.0333    3.5540   39.7706 O   0  0  0  0  0  0  0  0  0  0  0  0
   27.1817    3.4638   37.7458 N   0  0  0  0  0  0  0  0  0  0  0  0
   27.3882    2.6602   36.5682 C   0  0  0  0  0  0  0  0  0  0  0  0
   26.6947    1.4338   36.4498 C   0  0  0  0  0  0  0  0  0  0  0  0
   26.9010    0.5474   35.3861 C   0  0  0  0  0  0  0  0  0  0  0  0
   27.8027    0.8663   34.3844 C   0  0  0  0  0  0  0  0  0  0  0  0
   28.4488    2.0925   34.4451 C   0  0  0  0  0  0  0  0  0  0  0  0
   29.3047    2.4706   33.4340 O   0  0  0  0  0  0  0  0  0  0  0  0
   28.2337    3.0142   35.5003 C   0  0  0  0  0  0  0  0  0  0  0  0
   28.8866    4.2730   35.3641 N   0  0  0  0  0  0  0  0  0  0  0  0
   28.1294    5.4311   35.4270 C   0  0  0  0  0  0  0  0  0  0  0  0
   27.3812    5.7096   36.5117 C   0  0  0  0  0  0  0  0  0  0  0  0
   27.3705    4.9258   37.8003 C   0  0  0  0  0  0  0  0  0  0  0  0
   26.3384    7.1046   36.5376 S   0  0  0  0  0  0  0  0  0  0  0  0
   26.8355    8.0521   37.5207 O   0  0  0  0  0  0  0  0  0  0  0  0
   24.9624    6.6466   36.6228 O   0  0  0  0  0  0  0  0  0  0  0  0
   26.4977    7.8840   34.9575 C   0  0  0  0  0  0  0  0  0  0  0  0
   27.8991    7.7932   34.3579 C   0  0  0  0  0  0  0  0  0  0  0  0
   28.9532    8.5256   35.2100 C   0  0  0  0  0  0  0  0  0  0  0  0
   27.8781    8.4579   32.9673 C   0  0  0  0  0  0  0  0  0  0  0  0
   28.2563    6.3058   34.1917 C   0  0  0  0  0  0  0  0  0  0  0  0
   29.4718    1.8881   32.7193 H   0  0  0  0  0  0  0  0  0  0  0  0
   29.8605    4.3191   35.2274 H   0  0  0  0  0  0  0  0  0  0  0  0
   25.9113   -1.8583   39.5769 C   0  0  0  0  0  0  0  0  0  0  0  0
   26.8482   -0.6957   39.7171 C   0  0  0  0  0  0  0  0  0  0  0  0
   28.1481   -0.8915   40.1754 C   0  0  0  0  0  0  0  0  0  0  0  0
   29.0000    0.2055   40.2719 C   0  0  0  0  0  0  0  0  0  0  0  0
   28.5346    1.4604   39.9010 C   0  0  0  0  0  0  0  0  0  0  0  0
   27.2239    1.5756   39.4485 C   0  0  0  0  0  0  0  0  0  0  0  0
   26.3810    0.5165   39.3458 N   0  0  0  0  0  0  0  0  0  0  0  0
   28.4991    5.3433   38.7564 C   0  0  0  0  0  0  0  0  0  0  0  0
   28.2493    6.3276   39.7315 C   0  0  0  0  0  0  0  0  0  0  0  0
   29.2475    6.7504   40.6202 C   0  0  0  0  0  0  0  0  0  0  0  0
   30.5241    6.2010   40.5515 C   0  0  0  0  0  0  0  0  0  0  0  0
   30.7829    5.2173   39.5994 C   0  0  0  0  0  0  0  0  0  0  0  0
   29.7820    4.7940   38.7221 C   0  0  0  0  0  0  0  0  0  0  0  0
   30.0997    3.8285   37.8525 F   0  0  0  0  0  0  0  0  0  0  0  0
   31.5899    6.5370   41.3403 O   0  0  0  0  0  0  0  0  0  0  0  0
   31.3035    6.9574   42.6729 C   0  0  0  0  0  0  0  0  0  0  0  0
   32.5899    6.9237   43.4597 C   0  0  0  0  0  0  0  0  0  0  0  0
   33.6931    6.1949   42.9921 C   0  0  0  0  0  0  0  0  0  0  0  0
   34.8786    6.1514   43.7292 C   0  0  0  0  0  0  0  0  0  0  0  0
   34.9620    6.8300   44.9427 C   0  0  0  0  0  0  0  0  0  0  0  0
   36.5615    6.7755   45.9476 Br  0  0  0  0  0  0  0  0  0  0  0  0
   33.8705    7.5466   45.4276 C   0  0  0  0  0  0  0  0  0  0  0  0
   32.6866    7.5911   44.6887 C   0  0  0  0  0  0  0  0  0  0  0  0
 25 26  1  0
 26 27  2  0
 27 28  1  0
 28 29  2  0
 29 30  1  0
 30  1  1  0
  1  2  2  0
  1  3  1  0
  3  4  1  0
  4  5  2  0
  5  6  1  0
  6  7  2  0
  7  8  1  0
  8  9  1  0
  8 10  2  0
 10 11  1  0
 11 12  1  0
 12 13  2  0
 13 14  1  0
 14 32  1  0
 32 33  2  0
 33 34  1  0
 34 35  2  0
 35 39  1  0
 39 40  1  0
 40 41  1  0
 41 42  2  0
 42 43  1  0
 43 44  2  0
 44 45  1  0
 44 46  1  0
 46 47  2  0
 35 36  1  0
 36 37  2  0
 37 38  1  0
 13 15  1  0
 15 16  2  0
 15 17  2  0
 15 18  1  0
 18 19  1  0
 19 20  1  0
 19 21  1  0
 19 22  1  0
 30 31  2  0
 31 26  1  0
 14  3  1  0
 37 32  1  0
 10  4  1  0
 22 12  1  0
 47 41  1  0
  9 23  1  0
 11 24  1  0
M  END
> <minimizedAffinity>
-9.16441

> <CNNscore>
0.1506671309

> <CNNaffinity>
6.4803624153

> <CNN_VS>
0.9763776064

> <CNNaffinity_variance>
0.1922111958

$$$$



 47 52  0  0  0  0  0  0  0  0999 V2000
   26.8082    2.8252   38.7262 C   0  0  0  0  0  0  0  0  0  0  0  0
   26.1306    3.4504   39.5504 O   0  0  0  0  0  0  0  0  0  0  0  0
   27.1940    3.3836   37.4787 N   0  0  0  0  0  0  0  0  0  0  0  0
   27.3576    2.5898   36.2878 C   0  0  0  0  0  0  0  0  0  0  0  0
   26.6698    1.3584   36.1898 C   0  0  0  0  0  0  0  0  0  0  0  0
   26.8386    0.4810   35.1121 C   0  0  0  0  0  0  0  0  0  0  0  0
   27.6950    0.8143   34.0759 C   0  0  0  0  0  0  0  0  0  0  0  0
   28.3329    2.0455   34.1183 C   0  0  0  0  0  0  0  0  0  0  0  0
   29.1426    2.4377   33.0749 O   0  0  0  0  0  0  0  0  0  0  0  0
   28.1547    2.9582   35.1881 C   0  0  0  0  0  0  0  0  0  0  0  0
   28.7910    4.2234   35.0337 N   0  0  0  0  0  0  0  0  0  0  0  0
   28.0277    5.3745   35.1364 C   0  0  0  0  0  0  0  0  0  0  0  0
   27.3232    5.6394   36.2534 C   0  0  0  0  0  0  0  0  0  0  0  0
   27.3729    4.8468   37.5357 C   0  0  0  0  0  0  0  0  0  0  0  0
   26.2710    7.0252   36.3328 S   0  0  0  0  0  0  0  0  0  0  0  0
   26.8011    7.9703   37.3010 O   0  0  0  0  0  0  0  0  0  0  0  0
   24.9036    6.5550   36.4722 O   0  0  0  0  0  0  0  0  0  0  0  0
   26.3577    7.8166   34.7530 C   0  0  0  0  0  0  0  0  0  0  0  0
   27.7335    7.7419   34.0947 C   0  0  0  0  0  0  0  0  0  0  0  0
   28.8163    8.4774   34.9072 C   0  0  0  0  0  0  0  0  0  0  0  0
   27.6489    8.4157   32.7110 C   0  0  0  0  0  0  0  0  0  0  0  0
   28.0955    6.2586   33.9031 C   0  0  0  0  0  0  0  0  0  0  0  0
   29.2845    1.8615   32.3498 H   0  0  0  0  0  0  0  0  0  0  0  0
   29.7579    4.2787   34.8567 H   0  0  0  0  0  0  0  0  0  0  0  0
   25.9090   -1.8423   39.8469 C   0  0  0  0  0  0  0  0  0  0  0  0
   26.9091   -0.7376   39.6785 C   0  0  0  0  0  0  0  0  0  0  0  0
   28.2693   -0.9910   39.8322 C   0  0  0  0  0  0  0  0  0  0  0  0
   29.1733    0.0514   39.6463 C   0  0  0  0  0  0  0  0  0  0  0  0
   28.6962    1.3102   39.3045 C   0  0  0  0  0  0  0  0  0  0  0  0
   27.3229    1.4843   39.1647 C   0  0  0  0  0  0  0  0  0  0  0  0
   26.4280    0.4787   39.3398 N   0  0  0  0  0  0  0  0  0  0  0  0
   28.5371    5.2673   38.4468 C   0  0  0  0  0  0  0  0  0  0  0  0
   28.3067    6.2008   39.4751 C   0  0  0  0  0  0  0  0  0  0  0  0
   29.3368    6.6245   40.3262 C   0  0  0  0  0  0  0  0  0  0  0  0
   30.6264    6.1271   40.1654 C   0  0  0  0  0  0  0  0  0  0  0  0
   30.8671    5.1936   39.1596 C   0  0  0  0  0  0  0  0  0  0  0  0
   29.8348    4.7689   38.3200 C   0  0  0  0  0  0  0  0  0  0  0  0
   30.1381    3.8524   37.3940 F   0  0  0  0  0  0  0  0  0  0  0  0
   31.7216    6.4708   40.9095 O   0  0  0  0  0  0  0  0  0  0  0  0
   32.3833    7.6869   40.5664 C   0  0  0  0  0  0  0  0  0  0  0  0
   33.8599    7.3997   40.4556 C   0  0  0  0  0  0  0  0  0  0  0  0
   34.6576    8.1064   39.5440 C   0  0  0  0  0  0  0  0  0  0  0  0
   36.0216    7.8287   39.4309 C   0  0  0  0  0  0  0  0  0  0  0  0
   36.5917    6.8355   40.2237 C   0  0  0  0  0  0  0  0  0  0  0  0
   38.4363    6.4519   40.0766 Br  0  0  0  0  0  0  0  0  0  0  0  0
   35.8102    6.1150   41.1238 C   0  0  0  0  0  0  0  0  0  0  0  0
   34.4470    6.3950   41.2374 C   0  0  0  0  0  0  0  0  0  0  0  0
 25 26  1  0
 26 27  2  0
 27 28  1  0
 28 29  2  0
 29 30  1  0
 30  1  1  0
  1  2  2  0
  1  3  1  0
  3  4  1  0
  4  5  2  0
  5  6  1  0
  6  7  2  0
  7  8  1  0
  8  9  1  0
  8 10  2  0
 10 11  1  0
 11 12  1  0
 12 13  2  0
 13 14  1  0
 14 32  1  0
 32 33  2  0
 33 34  1  0
 34 35  2  0
 35 39  1  0
 39 40  1  0
 40 41  1  0
 41 42  2  0
 42 43  1  0
 43 44  2  0
 44 45  1  0
 44 46  1  0
 46 47  2  0
 35 36  1  0
 36 37  2  0
 37 38  1  0
 13 15  1  0
 15 16  2  0
 15 17  2  0
 15 18  1  0
 18 19  1  0
 19 20  1  0
 19 21  1  0
 19 22  1  0
 30 31  2  0
 31 26  1  0
 14  3  1  0
 37 32  1  0
 10  4  1  0
 22 12  1  0
 47 41  1  0
  9 23  1  0
 11 24  1  0
M  END
> <minimizedAffinity>
-8.53080

> <CNNscore>
0.1468316466

> <CNNaffinity>
6.4639811516

> <CNN_VS>
0.9491170049

> <CNNaffinity_variance>
0.2598977983

$$$$



 47 52  0  0  0  0  0  0  0  0999 V2000
   29.1914    6.2885   34.6153 C   0  0  0  0  0  0  0  0  0  0  0  0
   30.2680    5.8712   34.1726 O   0  0  0  0  0  0  0  0  0  0  0  0
   28.4575    5.5917   35.6116 N   0  0  0  0  0  0  0  0  0  0  0  0
   27.0186    5.6160   35.6782 C   0  0  0  0  0  0  0  0  0  0  0  0
   26.2866    5.8971   34.5017 C   0  0  0  0  0  0  0  0  0  0  0  0
   24.8931    6.0302   34.4911 C   0  0  0  0  0  0  0  0  0  0  0  0
   24.1735    5.8677   35.6633 C   0  0  0  0  0  0  0  0  0  0  0  0
   24.8630    5.5289   36.8184 C   0  0  0  0  0  0  0  0  0  0  0  0
   24.1741    5.2975   37.9888 O   0  0  0  0  0  0  0  0  0  0  0  0
   26.2707    5.3645   36.8435 C   0  0  0  0  0  0  0  0  0  0  0  0
   26.8181    4.9099   38.0777 N   0  0  0  0  0  0  0  0  0  0  0  0
   27.6060    3.7708   38.0823 C   0  0  0  0  0  0  0  0  0  0  0  0
   28.7207    3.6983   37.3298 C   0  0  0  0  0  0  0  0  0  0  0  0
   29.3213    4.8291   36.5326 C   0  0  0  0  0  0  0  0  0  0  0  0
   29.6419    2.2224   37.2459 S   0  0  0  0  0  0  0  0  0  0  0  0
   30.9368    2.4336   37.8704 O   0  0  0  0  0  0  0  0  0  0  0  0
   29.5818    1.7215   35.8837 O   0  0  0  0  0  0  0  0  0  0  0  0
   28.7871    1.0360   38.2417 C   0  0  0  0  0  0  0  0  0  0  0  0
   28.1117    1.6308   39.4753 C   0  0  0  0  0  0  0  0  0  0  0  0
   29.1229    2.2434   40.4631 C   0  0  0  0  0  0  0  0  0  0  0  0
   27.3628    0.5029   40.2123 C   0  0  0  0  0  0  0  0  0  0  0  0
   27.0896    2.6807   39.0054 C   0  0  0  0  0  0  0  0  0  0  0  0
   23.2425    5.3960   38.0113 H   0  0  0  0  0  0  0  0  0  0  0  0
   26.6391    5.3976   38.9139 H   0  0  0  0  0  0  0  0  0  0  0  0
   27.2183    9.0755   31.1238 C   0  0  0  0  0  0  0  0  0  0  0  0
   27.8030    8.9743   32.5011 C   0  0  0  0  0  0  0  0  0  0  0  0
   27.8424   10.0906   33.3321 C   0  0  0  0  0  0  0  0  0  0  0  0
   28.3705    9.9574   34.6134 C   0  0  0  0  0  0  0  0  0  0  0  0
   28.8340    8.7163   35.0304 C   0  0  0  0  0  0  0  0  0  0  0  0
   28.7572    7.6466   34.1440 C   0  0  0  0  0  0  0  0  0  0  0  0
   28.2432    7.7583   32.8926 N   0  0  0  0  0  0  0  0  0  0  0  0
   30.2296    5.7338   37.3804 C   0  0  0  0  0  0  0  0  0  0  0  0
   31.6016    5.4348   37.4815 C   0  0  0  0  0  0  0  0  0  0  0  0
   32.4698    6.2224   38.2501 C   0  0  0  0  0  0  0  0  0  0  0  0
   31.9844    7.3280   38.9417 C   0  0  0  0  0  0  0  0  0  0  0  0
   30.6310    7.6434   38.8415 C   0  0  0  0  0  0  0  0  0  0  0  0
   29.7723    6.8598   38.0674 C   0  0  0  0  0  0  0  0  0  0  0  0
   28.4916    7.2400   38.0004 F   0  0  0  0  0  0  0  0  0  0  0  0
   32.7154    8.1640   39.7404 O   0  0  0  0  0  0  0  0  0  0  0  0
   32.0944    9.3832   40.1435 C   0  0  0  0  0  0  0  0  0  0  0  0
   31.5987    9.2093   41.5574 C   0  0  0  0  0  0  0  0  0  0  0  0
   32.0162    8.1160   42.3302 C   0  0  0  0  0  0  0  0  0  0  0  0
   31.5443    7.9473   43.6338 C   0  0  0  0  0  0  0  0  0  0  0  0
   30.6448    8.8677   44.1667 C   0  0  0  0  0  0  0  0  0  0  0  0
   29.9998    8.6467   45.9292 Br  0  0  0  0  0  0  0  0  0  0  0  0
   30.2097    9.9511   43.4070 C   0  0  0  0  0  0  0  0  0  0  0  0
   30.6839   10.1197   42.1045 C   0  0  0  0  0  0  0  0  0  0  0  0
 25 26  1  0
 26 27  2  0
 27 28  1  0
 28 29  2  0
 29 30  1  0
 30  1  1  0
  1  2  2  0
  1  3  1  0
  3  4  1  0
  4  5  2  0
  5  6  1  0
  6  7  2  0
  7  8  1  0
  8  9  1  0
  8 10  2  0
 10 11  1  0
 11 12  1  0
 12 13  2  0
 13 14  1  0
 14 32  1  0
 32 33  2  0
 33 34  1  0
 34 35  2  0
 35 39  1  0
 39 40  1  0
 40 41  1  0
 41 42  2  0
 42 43  1  0
 43 44  2  0
 44 45  1  0
 44 46  1  0
 46 47  2  0
 35 36  1  0
 36 37  2  0
 37 38  1  0
 13 15  1  0
 15 16  2  0
 15 17  2  0
 15 18  1  0
 18 19  1  0
 19 20  1  0
 19 21  1  0
 19 22  1  0
 30 31  2  0
 31 26  1  0
 14  3  1  0
 37 32  1  0
 10  4  1  0
 22 12  1  0
 47 41  1  0
  9 23  1  0
 11 24  1  0
M  END
> <minimizedAffinity>
-10.06688

> <CNNscore>
0.1418430805

> <CNNaffinity>
6.3604311943

> <CNN_VS>
0.9021831751

> <CNNaffinity_variance>
1.0877478123

$$$$



 47 52  0  0  0  0  0  0  0  0999 V2000
   26.9728    2.2371   39.1533 C   0  0  0  0  0  0  0  0  0  0  0  0
   26.4271    2.7604   40.1320 O   0  0  0  0  0  0  0  0  0  0  0  0
   27.3072    2.9727   37.9855 N   0  0  0  0  0  0  0  0  0  0  0  0
   27.2970    2.3892   36.6684 C   0  0  0  0  0  0  0  0  0  0  0  0
   26.4892    1.2530   36.4327 C   0  0  0  0  0  0  0  0  0  0  0  0
   26.4854    0.5673   35.2122 C   0  0  0  0  0  0  0  0  0  0  0  0
   27.2825    1.0074   34.1687 C   0  0  0  0  0  0  0  0  0  0  0  0
   28.0363    2.1572   34.3546 C   0  0  0  0  0  0  0  0  0  0  0  0
   28.7920    2.6601   33.3183 O   0  0  0  0  0  0  0  0  0  0  0  0
   28.0335    2.8796   35.5741 C   0  0  0  0  0  0  0  0  0  0  0  0
   28.7728    4.0974   35.5728 N   0  0  0  0  0  0  0  0  0  0  0  0
   28.1336    5.2700   35.9399 C   0  0  0  0  0  0  0  0  0  0  0  0
   27.5508    5.3905   37.1481 C   0  0  0  0  0  0  0  0  0  0  0  0
   27.6289    4.3842   38.2690 C   0  0  0  0  0  0  0  0  0  0  0  0
   26.6454    6.8206   37.5595 S   0  0  0  0  0  0  0  0  0  0  0  0
   27.3402    7.5360   38.6163 O   0  0  0  0  0  0  0  0  0  0  0  0
   25.2553    6.4441   37.7495 O   0  0  0  0  0  0  0  0  0  0  0  0
   26.6784    7.8670   36.1334 C   0  0  0  0  0  0  0  0  0  0  0  0
   27.9826    7.7990   35.3421 C   0  0  0  0  0  0  0  0  0  0  0  0
   29.1931    8.2919   36.1578 C   0  0  0  0  0  0  0  0  0  0  0  0
   27.8503    8.7094   34.1054 C   0  0  0  0  0  0  0  0  0  0  0  0
   28.1848    6.3481   34.8711 C   0  0  0  0  0  0  0  0  0  0  0  0
   28.8189    2.2103   32.4968 H   0  0  0  0  0  0  0  0  0  0  0  0
   29.7229    4.1053   35.3151 H   0  0  0  0  0  0  0  0  0  0  0  0
   25.7499   -2.4887   39.3047 C   0  0  0  0  0  0  0  0  0  0  0  0
   26.8236   -1.4433   39.3623 C   0  0  0  0  0  0  0  0  0  0  0  0
   28.1619   -1.8144   39.4591 C   0  0  0  0  0  0  0  0  0  0  0  0
   29.1357   -0.8199   39.4871 C   0  0  0  0  0  0  0  0  0  0  0  0
   28.7480    0.5115   39.4088 C   0  0  0  0  0  0  0  0  0  0  0  0
   27.3912    0.8033   39.3096 C   0  0  0  0  0  0  0  0  0  0  0  0
   26.4290   -0.1537   39.2785 N   0  0  0  0  0  0  0  0  0  0  0  0
   28.8980    4.5442   39.1208 C   0  0  0  0  0  0  0  0  0  0  0  0
   28.8448    5.3075   40.3026 C   0  0  0  0  0  0  0  0  0  0  0  0
   29.9766    5.4922   41.1087 C   0  0  0  0  0  0  0  0  0  0  0  0
   31.1930    4.9206   40.7486 C   0  0  0  0  0  0  0  0  0  0  0  0
   31.2583    4.1526   39.5879 C   0  0  0  0  0  0  0  0  0  0  0  0
   30.1252    3.9652   38.7931 C   0  0  0  0  0  0  0  0  0  0  0  0
   30.2607    3.1952   37.7077 F   0  0  0  0  0  0  0  0  0  0  0  0
   32.3728    5.0392   41.4306 O   0  0  0  0  0  0  0  0  0  0  0  0
   33.1083    6.2478   41.2492 C   0  0  0  0  0  0  0  0  0  0  0  0
   32.6128    7.2519   42.2599 C   0  0  0  0  0  0  0  0  0  0  0  0
   32.7936    7.0307   43.6329 C   0  0  0  0  0  0  0  0  0  0  0  0
   32.3204    7.9533   44.5685 C   0  0  0  0  0  0  0  0  0  0  0  0
   31.6555    9.0975   44.1339 C   0  0  0  0  0  0  0  0  0  0  0  0
   31.0104   10.3508   45.3927 Br  0  0  0  0  0  0  0  0  0  0  0  0
   31.4554    9.3247   42.7744 C   0  0  0  0  0  0  0  0  0  0  0  0
   31.9309    8.4025   41.8399 C   0  0  0  0  0  0  0  0  0  0  0  0
 25 26  1  0
 26 27  2  0
 27 28  1  0
 28 29  2  0
 29 30  1  0
 30  1  1  0
  1  2  2  0
  1  3  1  0
  3  4  1  0
  4  5  2  0
  5  6  1  0
  6  7  2  0
  7  8  1  0
  8  9  1  0
  8 10  2  0
 10 11  1  0
 11 12  1  0
 12 13  2  0
 13 14  1  0
 14 32  1  0
 32 33  2  0
 33 34  1  0
 34 35  2  0
 35 39  1  0
 39 40  1  0
 40 41  1  0
 41 42  2  0
 42 43  1  0
 43 44  2  0
 44 45  1  0
 44 46  1  0
 46 47  2  0
 35 36  1  0
 36 37  2  0
 37 38  1  0
 13 15  1  0
 15 16  2  0
 15 17  2  0
 15 18  1  0
 18 19  1  0
 19 20  1  0
 19 21  1  0
 19 22  1  0
 30 31  2  0
 31 26  1  0
 14  3  1  0
 37 32  1  0
 10  4  1  0
 22 12  1  0
 47 41  1  0
  9 23  1  0
 11 24  1  0
M  END
> <minimizedAffinity>
-8.62197

> <CNNscore>
0.1371736676

> <CNNaffinity>
6.4079208374

> <CNN_VS>
0.8789979815

> <CNNaffinity_variance>
0.2595723569

$$$$



 47 52  0  0  0  0  0  0  0  0999 V2000
   29.1478    6.3968   34.2374 C   0  0  0  0  0  0  0  0  0  0  0  0
   30.1450    5.9607   33.6501 O   0  0  0  0  0  0  0  0  0  0  0  0
   28.5564    5.7203   35.3370 N   0  0  0  0  0  0  0  0  0  0  0  0
   27.1423    5.7642   35.6087 C   0  0  0  0  0  0  0  0  0  0  0  0
   26.2525    6.0425   34.5459 C   0  0  0  0  0  0  0  0  0  0  0  0
   24.8734    6.1937   34.7334 C   0  0  0  0  0  0  0  0  0  0  0  0
   24.3276    6.0531   35.9986 C   0  0  0  0  0  0  0  0  0  0  0  0
   25.1717    5.7175   37.0471 C   0  0  0  0  0  0  0  0  0  0  0  0
   24.6551    5.5075   38.3068 O   0  0  0  0  0  0  0  0  0  0  0  0
   26.5664    5.5348   36.8722 C   0  0  0  0  0  0  0  0  0  0  0  0
   27.2799    5.0861   38.0207 N   0  0  0  0  0  0  0  0  0  0  0  0
   28.0472    3.9369   37.9265 C   0  0  0  0  0  0  0  0  0  0  0  0
   29.0415    3.8418   37.0230 C   0  0  0  0  0  0  0  0  0  0  0  0
   29.5346    4.9562   36.1341 C   0  0  0  0  0  0  0  0  0  0  0  0
   29.9241    2.3531   36.8262 S   0  0  0  0  0  0  0  0  0  0  0  0
   31.2976    2.5538   37.2560 O   0  0  0  0  0  0  0  0  0  0  0  0
   29.6635    1.8387   35.4929 O   0  0  0  0  0  0  0  0  0  0  0  0
   29.2074    1.1887   37.9487 C   0  0  0  0  0  0  0  0  0  0  0  0
   28.7227    1.8052   39.2589 C   0  0  0  0  0  0  0  0  0  0  0  0
   29.8722    2.4148   40.0840 C   0  0  0  0  0  0  0  0  0  0  0  0
   28.0744    0.6951   40.1094 C   0  0  0  0  0  0  0  0  0  0  0  0
   27.6560    2.8634   38.9274 C   0  0  0  0  0  0  0  0  0  0  0  0
   23.7376    5.6185   38.4614 H   0  0  0  0  0  0  0  0  0  0  0  0
   27.2283    5.5850   38.8679 H   0  0  0  0  0  0  0  0  0  0  0  0
   26.9912    9.2223   30.8882 C   0  0  0  0  0  0  0  0  0  0  0  0
   27.6252    9.1006   32.2418 C   0  0  0  0  0  0  0  0  0  0  0  0
   27.6674   10.1963   33.0996 C   0  0  0  0  0  0  0  0  0  0  0  0
   28.2423   10.0438   34.3584 C   0  0  0  0  0  0  0  0  0  0  0  0
   28.7486    8.8041   34.7272 C   0  0  0  0  0  0  0  0  0  0  0  0
   28.6662    7.7555   33.8164 C   0  0  0  0  0  0  0  0  0  0  0  0
   28.1068    7.8861   32.5864 N   0  0  0  0  0  0  0  0  0  0  0  0
   30.5654    5.8577   36.8317 C   0  0  0  0  0  0  0  0  0  0  0  0
   31.9385    5.6028   36.6537 C   0  0  0  0  0  0  0  0  0  0  0  0
   32.9178    6.3892   37.2761 C   0  0  0  0  0  0  0  0  0  0  0  0
   32.5462    7.4491   38.0976 C   0  0  0  0  0  0  0  0  0  0  0  0
   31.1911    7.7210   38.2737 C   0  0  0  0  0  0  0  0  0  0  0  0
   30.2200    6.9391   37.6442 C   0  0  0  0  0  0  0  0  0  0  0  0
   28.9409    7.2769   37.8419 F   0  0  0  0  0  0  0  0  0  0  0  0
   33.3955    8.2778   38.7781 O   0  0  0  0  0  0  0  0  0  0  0  0
   34.7657    7.8875   38.8472 C   0  0  0  0  0  0  0  0  0  0  0  0
   34.9651    7.1081   40.1231 C   0  0  0  0  0  0  0  0  0  0  0  0
   33.9080    6.9404   41.0292 C   0  0  0  0  0  0  0  0  0  0  0  0
   34.0980    6.2321   42.2178 C   0  0  0  0  0  0  0  0  0  0  0  0
   35.3501    5.6961   42.5091 C   0  0  0  0  0  0  0  0  0  0  0  0
   35.6169    4.7375   44.1157 Br  0  0  0  0  0  0  0  0  0  0  0  0
   36.4139    5.8661   41.6262 C   0  0  0  0  0  0  0  0  0  0  0  0
   36.2221    6.5726   40.4372 C   0  0  0  0  0  0  0  0  0  0  0  0
 25 26  1  0
 26 27  2  0
 27 28  1  0
 28 29  2  0
 29 30  1  0
 30  1  1  0
  1  2  2  0
  1  3  1  0
  3  4  1  0
  4  5  2  0
  5  6  1  0
  6  7  2  0
  7  8  1  0
  8  9  1  0
  8 10  2  0
 10 11  1  0
 11 12  1  0
 12 13  2  0
 13 14  1  0
 14 32  1  0
 32 33  2  0
 33 34  1  0
 34 35  2  0
 35 39  1  0
 39 40  1  0
 40 41  1  0
 41 42  2  0
 42 43  1  0
 43 44  2  0
 44 45  1  0
 44 46  1  0
 46 47  2  0
 35 36  1  0
 36 37  2  0
 37 38  1  0
 13 15  1  0
 15 16  2  0
 15 17  2  0
 15 18  1  0
 18 19  1  0
 19 20  1  0
 19 21  1  0
 19 22  1  0
 30 31  2  0
 31 26  1  0
 14  3  1  0
 37 32  1  0
 10  4  1  0
 22 12  1  0
 47 41  1  0
  9 23  1  0
 11 24  1  0
M  END
> <minimizedAffinity>
-8.99226

> <CNNscore>
0.1305543631

> <CNNaffinity>
6.1000800133

> <CNN_VS>
0.7963920832

> <CNNaffinity_variance>
0.8000046611

$$$$



 47 52  0  0  0  0  0  0  0  0999 V2000
   31.8127    3.1194   40.7506 C   0  0  0  0  0  0  0  0  0  0  0  0
   31.1691    3.2127   41.8025 O   0  0  0  0  0  0  0  0  0  0  0  0
   31.2034    2.7792   39.5138 N   0  0  0  0  0  0  0  0  0  0  0  0
   31.8873    2.0340   38.4880 C   0  0  0  0  0  0  0  0  0  0  0  0
   32.9671    1.1994   38.8573 C   0  0  0  0  0  0  0  0  0  0  0  0
   33.7454    0.5097   37.9200 C   0  0  0  0  0  0  0  0  0  0  0  0
   33.4584    0.6167   36.5693 C   0  0  0  0  0  0  0  0  0  0  0  0
   32.3646    1.3793   36.1863 C   0  0  0  0  0  0  0  0  0  0  0  0
   32.0112    1.4573   34.8571 O   0  0  0  0  0  0  0  0  0  0  0  0
   31.5493    2.0638   37.1222 C   0  0  0  0  0  0  0  0  0  0  0  0
   30.4018    2.7137   36.5834 N   0  0  0  0  0  0  0  0  0  0  0  0
   29.1542    2.4110   37.1033 C   0  0  0  0  0  0  0  0  0  0  0  0
   28.8891    2.5883   38.4119 C   0  0  0  0  0  0  0  0  0  0  0  0
   29.8056    3.2407   39.4166 C   0  0  0  0  0  0  0  0  0  0  0  0
   27.3599    2.0942   39.0838 S   0  0  0  0  0  0  0  0  0  0  0  0
   26.6231    3.2728   39.5071 O   0  0  0  0  0  0  0  0  0  0  0  0
   27.6024    1.0257   40.0377 O   0  0  0  0  0  0  0  0  0  0  0  0
   26.4373    1.3686   37.7602 C   0  0  0  0  0  0  0  0  0  0  0  0
   26.6773    2.0244   36.4023 C   0  0  0  0  0  0  0  0  0  0  0  0
   26.2239    3.4964   36.3704 C   0  0  0  0  0  0  0  0  0  0  0  0
   25.8608    1.2606   35.3412 C   0  0  0  0  0  0  0  0  0  0  0  0
   28.1730    1.8972   36.0639 C   0  0  0  0  0  0  0  0  0  0  0  0
   32.5258    1.0180   34.2089 H   0  0  0  0  0  0  0  0  0  0  0  0
   30.4940    3.3674   35.8532 H   0  0  0  0  0  0  0  0  0  0  0  0
   36.3815    2.0837   42.1307 C   0  0  0  0  0  0  0  0  0  0  0  0
   35.4342    3.0250   41.4483 C   0  0  0  0  0  0  0  0  0  0  0  0
   35.9128    4.1712   40.8196 C   0  0  0  0  0  0  0  0  0  0  0  0
   35.0097    5.0122   40.1752 C   0  0  0  0  0  0  0  0  0  0  0  0
   33.6607    4.6817   40.1689 C   0  0  0  0  0  0  0  0  0  0  0  0
   33.2594    3.5170   40.8157 C   0  0  0  0  0  0  0  0  0  0  0  0
   34.1266    2.6847   41.4465 N   0  0  0  0  0  0  0  0  0  0  0  0
   29.6849    4.7728   39.4205 C   0  0  0  0  0  0  0  0  0  0  0  0
   28.7439    5.3892   40.2672 C   0  0  0  0  0  0  0  0  0  0  0  0
   28.5878    6.7818   40.3005 C   0  0  0  0  0  0  0  0  0  0  0  0
   29.3675    7.5931   39.4820 C   0  0  0  0  0  0  0  0  0  0  0  0
   30.3114    6.9982   38.6475 C   0  0  0  0  0  0  0  0  0  0  0  0
   30.4682    5.6106   38.6248 C   0  0  0  0  0  0  0  0  0  0  0  0
   31.4116    5.1153   37.8159 F   0  0  0  0  0  0  0  0  0  0  0  0
   29.3023    8.9571   39.4013 O   0  0  0  0  0  0  0  0  0  0  0  0
   30.4203    9.6905   39.8980 C   0  0  0  0  0  0  0  0  0  0  0  0
   30.4869    9.4856   41.3909 C   0  0  0  0  0  0  0  0  0  0  0  0
   29.3910    9.8075   42.2046 C   0  0  0  0  0  0  0  0  0  0  0  0
   29.4594    9.6324   43.5885 C   0  0  0  0  0  0  0  0  0  0  0  0
   30.6288    9.1427   44.1653 C   0  0  0  0  0  0  0  0  0  0  0  0
   30.7309    8.9039   46.0371 Br  0  0  0  0  0  0  0  0  0  0  0  0
   31.7308    8.8317   43.3722 C   0  0  0  0  0  0  0  0  0  0  0  0
   31.6605    9.0052   41.9885 C   0  0  0  0  0  0  0  0  0  0  0  0
 25 26  1  0
 26 27  2  0
 27 28  1  0
 28 29  2  0
 29 30  1  0
 30  1  1  0
  1  2  2  0
  1  3  1  0
  3  4  1  0
  4  5  2  0
  5  6  1  0
  6  7  2  0
  7  8  1  0
  8  9  1  0
  8 10  2  0
 10 11  1  0
 11 12  1  0
 12 13  2  0
 13 14  1  0
 14 32  1  0
 32 33  2  0
 33 34  1  0
 34 35  2  0
 35 39  1  0
 39 40  1  0
 40 41  1  0
 41 42  2  0
 42 43  1  0
 43 44  2  0
 44 45  1  0
 44 46  1  0
 46 47  2  0
 35 36  1  0
 36 37  2  0
 37 38  1  0
 13 15  1  0
 15 16  2  0
 15 17  2  0
 15 18  1  0
 18 19  1  0
 19 20  1  0
 19 21  1  0
 19 22  1  0
 30 31  2  0
 31 26  1  0
 14  3  1  0
 37 32  1  0
 10  4  1  0
 22 12  1  0
 47 41  1  0
  9 23  1  0
 11 24  1  0
M  END
> <minimizedAffinity>
-8.44760

> <CNNscore>
0.1265107244

> <CNNaffinity>
5.2913985252

> <CNN_VS>
0.6694186330

> <CNNaffinity_variance>
1.1978076696

$$$$



 47 52  0  0  0  0  0  0  0  0999 V2000
   31.7187    3.3428   40.2237 C   0  0  0  0  0  0  0  0  0  0  0  0
   30.9650    3.5372   41.1847 O   0  0  0  0  0  0  0  0  0  0  0  0
   31.2402    2.9197   38.9554 N   0  0  0  0  0  0  0  0  0  0  0  0
   32.0083    2.0768   38.0751 C   0  0  0  0  0  0  0  0  0  0  0  0
   33.0104    1.2472   38.6287 C   0  0  0  0  0  0  0  0  0  0  0  0
   33.8644    0.4645   37.8426 C   0  0  0  0  0  0  0  0  0  0  0  0
   33.7341    0.4694   36.4638 C   0  0  0  0  0  0  0  0  0  0  0  0
   32.7171    1.2265   35.9005 C   0  0  0  0  0  0  0  0  0  0  0  0
   32.5176    1.2061   34.5376 O   0  0  0  0  0  0  0  0  0  0  0  0
   31.8265    2.0050   36.6814 C   0  0  0  0  0  0  0  0  0  0  0  0
   30.7696    2.6385   35.9664 N   0  0  0  0  0  0  0  0  0  0  0  0
   29.4620    2.4110   36.3622 C   0  0  0  0  0  0  0  0  0  0  0  0
   29.0585    2.7000   37.6143 C   0  0  0  0  0  0  0  0  0  0  0  0
   29.8789    3.4076   38.6637 C   0  0  0  0  0  0  0  0  0  0  0  0
   27.4475    2.3012   38.1432 S   0  0  0  0  0  0  0  0  0  0  0  0
   26.7092    3.5286   38.3872 O   0  0  0  0  0  0  0  0  0  0  0  0
   27.5445    1.3072   39.1982 O   0  0  0  0  0  0  0  0  0  0  0  0
   26.6542    1.4951   36.7829 C   0  0  0  0  0  0  0  0  0  0  0  0
   27.0672    2.0328   35.4146 C   0  0  0  0  0  0  0  0  0  0  0  0
   26.6715    3.5086   35.2176 C   0  0  0  0  0  0  0  0  0  0  0  0
   26.3485    1.2071   34.3294 C   0  0  0  0  0  0  0  0  0  0  0  0
   28.5860    1.8403   35.2602 C   0  0  0  0  0  0  0  0  0  0  0  0
   33.0860    0.7029   33.9883 H   0  0  0  0  0  0  0  0  0  0  0  0
   30.9656    3.2287   35.2032 H   0  0  0  0  0  0  0  0  0  0  0  0
   35.5387    6.1323   39.0083 C   0  0  0  0  0  0  0  0  0  0  0  0
   34.9750    5.0399   39.8674 C   0  0  0  0  0  0  0  0  0  0  0  0
   35.7486    4.4657   40.8724 C   0  0  0  0  0  0  0  0  0  0  0  0
   35.1877    3.4699   41.6674 C   0  0  0  0  0  0  0  0  0  0  0  0
   33.8725    3.0836   41.4436 C   0  0  0  0  0  0  0  0  0  0  0  0
   33.1619    3.7071   40.4227 C   0  0  0  0  0  0  0  0  0  0  0  0
   33.6924    4.6811   39.6400 N   0  0  0  0  0  0  0  0  0  0  0  0
   29.8116    4.9376   38.5354 C   0  0  0  0  0  0  0  0  0  0  0  0
   28.8207    5.6468   39.2407 C   0  0  0  0  0  0  0  0  0  0  0  0
   28.7108    7.0412   39.1493 C   0  0  0  0  0  0  0  0  0  0  0  0
   29.5883    7.7611   38.3444 C   0  0  0  0  0  0  0  0  0  0  0  0
   30.5818    7.0742   37.6499 C   0  0  0  0  0  0  0  0  0  0  0  0
   30.6917    5.6856   37.7514 C   0  0  0  0  0  0  0  0  0  0  0  0
   31.6858    5.1001   37.0744 F   0  0  0  0  0  0  0  0  0  0  0  0
   29.5780    9.1152   38.1505 O   0  0  0  0  0  0  0  0  0  0  0  0
   28.3414    9.7039   37.7523 C   0  0  0  0  0  0  0  0  0  0  0  0
   28.3688    9.8793   36.2544 C   0  0  0  0  0  0  0  0  0  0  0  0
   28.6086   11.1396   35.6881 C   0  0  0  0  0  0  0  0  0  0  0  0
   28.6180   11.3040   34.3012 C   0  0  0  0  0  0  0  0  0  0  0  0
   28.3783   10.2088   33.4748 C   0  0  0  0  0  0  0  0  0  0  0  0
   28.3876   10.4220   31.5971 Br  0  0  0  0  0  0  0  0  0  0  0  0
   28.1245    8.9533   34.0220 C   0  0  0  0  0  0  0  0  0  0  0  0
   28.1174    8.7898   35.4088 C   0  0  0  0  0  0  0  0  0  0  0  0
 25 26  1  0
 26 27  2  0
 27 28  1  0
 28 29  2  0
 29 30  1  0
 30  1  1  0
  1  2  2  0
  1  3  1  0
  3  4  1  0
  4  5  2  0
  5  6  1  0
  6  7  2  0
  7  8  1  0
  8  9  1  0
  8 10  2  0
 10 11  1  0
 11 12  1  0
 12 13  2  0
 13 14  1  0
 14 32  1  0
 32 33  2  0
 33 34  1  0
 34 35  2  0
 35 39  1  0
 39 40  1  0
 40 41  1  0
 41 42  2  0
 42 43  1  0
 43 44  2  0
 44 45  1  0
 44 46  1  0
 46 47  2  0
 35 36  1  0
 36 37  2  0
 37 38  1  0
 13 15  1  0
 15 16  2  0
 15 17  2  0
 15 18  1  0
 18 19  1  0
 19 20  1  0
 19 21  1  0
 19 22  1  0
 30 31  2  0
 31 26  1  0
 14  3  1  0
 37 32  1  0
 10  4  1  0
 22 12  1  0
 47 41  1  0
  9 23  1  0
 11 24  1  0
M  END
> <minimizedAffinity>
-8.84877

> <CNNscore>
0.1259479970

> <CNNaffinity>
5.8463606834

> <CNN_VS>
0.7363374233

> <CNNaffinity_variance>
0.6885051727

$$$$
