


 32 35  0  0  0  0  0  0  0  0999 V2000
   -1.3579   -8.3406   40.7240 C   0  0  0  0  0  0  0  0  0  0  0  0
   -0.6326   -9.3287   41.3884 C   0  0  0  0  0  0  0  0  0  0  0  0
    0.1580  -10.2517   40.6950 C   0  0  0  0  0  0  0  0  0  0  0  0
    0.2032  -10.1574   39.2956 C   0  0  0  0  0  0  0  0  0  0  0  0
   -0.5090   -9.1761   38.6060 C   0  0  0  0  0  0  0  0  0  0  0  0
   -1.3005   -8.2569   39.3292 C   0  0  0  0  0  0  0  0  0  0  0  0
   -0.2350   -9.3522   37.2250 C   0  0  0  0  0  0  0  0  0  0  0  0
    0.6350  -10.4171   37.0827 C   0  0  0  0  0  0  0  0  0  0  0  0
    0.8769  -10.9144   38.3504 N   0  0  0  0  0  0  0  0  0  0  0  0
   -2.9414   -6.5764   40.9172 C   0  0  0  0  0  0  0  0  0  0  0  0
   -2.0809   -7.5176   41.5459 O   0  0  0  0  0  0  0  0  0  0  0  0
    1.2570  -10.9525   35.8364 C   0  0  0  0  0  0  0  0  0  0  0  0
    0.5870  -10.3028   34.7109 N   0  0  0  0  0  0  0  0  0  0  0  0
   -0.2806   -9.8913   35.0547 H   0  0  0  0  0  0  0  0  0  0  0  0
    1.4751   -9.0891   33.9528 S   0  0  0  0  0  0  0  0  0  0  0  0
    0.7280   -7.8606   34.0921 O   0  0  0  0  0  0  0  0  0  0  0  0
    2.8508   -9.2021   34.3831 O   0  0  0  0  0  0  0  0  0  0  0  0
    1.5081   -9.4204   32.1944 C   0  0  0  0  0  0  0  0  0  0  0  0
    1.1457  -10.5598   31.4840 C   0  0  0  0  0  0  0  0  0  0  0  0
    1.3591  -10.3022   30.1074 C   0  0  0  0  0  0  0  0  0  0  0  0
    1.1932  -11.0229   28.9115 C   0  0  0  0  0  0  0  0  0  0  0  0
    1.5334  -10.3954   27.7056 C   0  0  0  0  0  0  0  0  0  0  0  0
    1.3379  -11.2567   26.2266 Cl  0  0  0  0  0  0  0  0  0  0  0  0
    2.0268   -9.0887   27.6772 C   0  0  0  0  0  0  0  0  0  0  0  0
    2.1970   -8.3587   28.8593 C   0  0  0  0  0  0  0  0  0  0  0  0
    1.8487   -9.0059   30.0430 C   0  0  0  0  0  0  0  0  0  0  0  0
    1.9352   -8.4701   31.2873 O   0  0  0  0  0  0  0  0  0  0  0  0
    1.6735  -12.0918   38.6743 C   0  0  0  0  0  0  0  0  0  0  0  0
    1.5798  -13.1816   37.6451 C   0  0  0  0  0  0  0  0  0  0  0  0
    2.4763  -13.5068   36.8792 O   0  0  0  0  0  0  0  0  0  0  0  0
    0.4293  -13.8828   37.6599 O   0  0  0  0  0  0  0  0  0  0  0  0
   -0.2609  -13.6383   38.2445 H   0  0  0  0  0  0  0  0  0  0  0  0
 10 11  1  0
 11  1  1  0
  1  2  2  0
  2  3  1  0
  3  4  2  0
  4  5  1  0
  5  6  2  0
  5  7  1  0
  7  8  2  0
  8 12  1  0
 12 13  1  0
 13 15  1  0
 15 16  2  0
 15 17  2  0
 15 18  1  0
 18 19  2  0
 19 20  1  0
 20 21  2  0
 21 22  1  0
 22 23  1  0
 22 24  2  0
 24 25  1  0
 25 26  2  0
 26 27  1  0
  8  9  1  0
  9 28  1  0
 28 29  1  0
 29 30  2  0
 29 31  1  0
  6  1  1  0
 27 18  1  0
  9  4  1  0
 26 20  1  0
 13 14  1  0
 31 32  1  0
M  END
> <minimizedAffinity>
-10.57348

> <CNNscore>
0.9527388811

> <CNNaffinity>
6.8237590790

> <CNN_VS>
6.5012607574

> <CNNaffinity_variance>
0.3546503484

$$$$



 32 35  0  0  0  0  0  0  0  0999 V2000
   -1.3721   -8.4396   40.6109 C   0  0  0  0  0  0  0  0  0  0  0  0
   -1.6622   -8.0077   39.3174 C   0  0  0  0  0  0  0  0  0  0  0  0
   -1.1050   -8.6271   38.1933 C   0  0  0  0  0  0  0  0  0  0  0  0
   -0.2349   -9.7079   38.4027 C   0  0  0  0  0  0  0  0  0  0  0  0
    0.0694  -10.1632   39.6856 C   0  0  0  0  0  0  0  0  0  0  0  0
   -0.5055   -9.5201   40.8038 C   0  0  0  0  0  0  0  0  0  0  0  0
    0.9549  -11.2623   39.5411 C   0  0  0  0  0  0  0  0  0  0  0  0
    1.1758  -11.4733   38.1928 C   0  0  0  0  0  0  0  0  0  0  0  0
    0.4632  -10.5049   37.5094 N   0  0  0  0  0  0  0  0  0  0  0  0
   -2.8334   -6.6545   41.1896 C   0  0  0  0  0  0  0  0  0  0  0  0
   -1.9970   -7.7284   41.6004 O   0  0  0  0  0  0  0  0  0  0  0  0
    1.9849  -12.5420   37.5369 C   0  0  0  0  0  0  0  0  0  0  0  0
    3.2820  -12.5709   38.2110 N   0  0  0  0  0  0  0  0  0  0  0  0
    3.1712  -12.1375   39.1277 H   0  0  0  0  0  0  0  0  0  0  0  0
    3.9379  -14.1057   38.4358 S   0  0  0  0  0  0  0  0  0  0  0  0
    4.9965  -13.9809   39.4108 O   0  0  0  0  0  0  0  0  0  0  0  0
    2.8481  -15.0410   38.6038 O   0  0  0  0  0  0  0  0  0  0  0  0
    4.7517  -14.6053   36.9222 C   0  0  0  0  0  0  0  0  0  0  0  0
    4.7171  -15.8144   36.2360 C   0  0  0  0  0  0  0  0  0  0  0  0
    5.5361  -15.6877   35.0869 C   0  0  0  0  0  0  0  0  0  0  0  0
    5.9076  -16.5238   34.0193 C   0  0  0  0  0  0  0  0  0  0  0  0
    6.7730  -16.0103   33.0440 C   0  0  0  0  0  0  0  0  0  0  0  0
    7.2419  -17.0143   31.7251 Cl  0  0  0  0  0  0  0  0  0  0  0  0
    7.2626  -14.7040   33.1183 C   0  0  0  0  0  0  0  0  0  0  0  0
    6.9013  -13.8600   34.1749 C   0  0  0  0  0  0  0  0  0  0  0  0
    6.0382  -14.3953   35.1286 C   0  0  0  0  0  0  0  0  0  0  0  0
    5.5688  -13.7400   36.2208 O   0  0  0  0  0  0  0  0  0  0  0  0
    0.4673  -10.2921   36.0670 C   0  0  0  0  0  0  0  0  0  0  0  0
    1.3869   -9.1898   35.6255 C   0  0  0  0  0  0  0  0  0  0  0  0
    1.1283   -7.9953   35.6712 O   0  0  0  0  0  0  0  0  0  0  0  0
    2.6120   -9.5915   35.2339 O   0  0  0  0  0  0  0  0  0  0  0  0
    2.8159  -10.5054   35.1969 H   0  0  0  0  0  0  0  0  0  0  0  0
 10 11  1  0
 11  1  1  0
  1  2  2  0
  2  3  1  0
  3  4  2  0
  4  5  1  0
  5  6  2  0
  5  7  1  0
  7  8  2  0
  8 12  1  0
 12 13  1  0
 13 15  1  0
 15 16  2  0
 15 17  2  0
 15 18  1  0
 18 19  2  0
 19 20  1  0
 20 21  2  0
 21 22  1  0
 22 23  1  0
 22 24  2  0
 24 25  1  0
 25 26  2  0
 26 27  1  0
  8  9  1  0
  9 28  1  0
 28 29  1  0
 29 30  2  0
 29 31  1  0
  6  1  1  0
 27 18  1  0
  9  4  1  0
 26 20  1  0
 13 14  1  0
 31 32  1  0
M  END
> <minimizedAffinity>
-8.69054

> <CNNscore>
0.6364738345

> <CNNaffinity>
5.7874693871

> <CNN_VS>
3.6835727692

> <CNNaffinity_variance>
0.0570488460

$$$$



 32 35  0  0  0  0  0  0  0  0999 V2000
    2.0214  -10.0776   29.2605 C   0  0  0  0  0  0  0  0  0  0  0  0
    2.0406   -8.7478   29.6790 C   0  0  0  0  0  0  0  0  0  0  0  0
    1.7234   -8.3861   30.9928 C   0  0  0  0  0  0  0  0  0  0  0  0
    1.3803   -9.4083   31.8909 C   0  0  0  0  0  0  0  0  0  0  0  0
    1.3572  -10.7472   31.4999 C   0  0  0  0  0  0  0  0  0  0  0  0
    1.6807  -11.0859   30.1676 C   0  0  0  0  0  0  0  0  0  0  0  0
    0.9884  -11.5097   32.6382 C   0  0  0  0  0  0  0  0  0  0  0  0
    0.7997  -10.6470   33.7019 C   0  0  0  0  0  0  0  0  0  0  0  0
    1.0192   -9.3662   33.2282 N   0  0  0  0  0  0  0  0  0  0  0  0
    1.5745  -11.1962   27.2096 C   0  0  0  0  0  0  0  0  0  0  0  0
    2.3559  -10.2638   27.9456 O   0  0  0  0  0  0  0  0  0  0  0  0
    0.4607  -10.9733   35.1179 C   0  0  0  0  0  0  0  0  0  0  0  0
    1.0241  -12.2929   35.3994 N   0  0  0  0  0  0  0  0  0  0  0  0
    1.8872  -12.3883   34.8643 H   0  0  0  0  0  0  0  0  0  0  0  0
    1.3792  -12.5890   37.0188 S   0  0  0  0  0  0  0  0  0  0  0  0
    0.7357  -13.8313   37.3786 O   0  0  0  0  0  0  0  0  0  0  0  0
    2.7956  -12.3749   37.2156 O   0  0  0  0  0  0  0  0  0  0  0  0
    0.5758  -11.3392   38.0166 C   0  0  0  0  0  0  0  0  0  0  0  0
   -0.2403  -10.2760   37.6458 C   0  0  0  0  0  0  0  0  0  0  0  0
   -0.6215   -9.5870   38.8235 C   0  0  0  0  0  0  0  0  0  0  0  0
   -1.4129   -8.4633   39.1201 C   0  0  0  0  0  0  0  0  0  0  0  0
   -1.5476   -8.0816   40.4617 C   0  0  0  0  0  0  0  0  0  0  0  0
   -2.5131   -6.7092   40.8513 Cl  0  0  0  0  0  0  0  0  0  0  0  0
   -0.9167   -8.7889   41.4881 C   0  0  0  0  0  0  0  0  0  0  0  0
   -0.1261   -9.9095   41.2083 C   0  0  0  0  0  0  0  0  0  0  0  0
   -0.0116  -10.2680   39.8669 C   0  0  0  0  0  0  0  0  0  0  0  0
    0.7018  -11.3208   39.3921 O   0  0  0  0  0  0  0  0  0  0  0  0
    0.8510   -8.1301   33.9827 C   0  0  0  0  0  0  0  0  0  0  0  0
    2.0469   -7.7680   34.8159 C   0  0  0  0  0  0  0  0  0  0  0  0
    2.1586   -6.7493   35.4835 O   0  0  0  0  0  0  0  0  0  0  0  0
    3.0118   -8.7071   34.8672 O   0  0  0  0  0  0  0  0  0  0  0  0
    2.9315   -9.4896   34.3580 H   0  0  0  0  0  0  0  0  0  0  0  0
 10 11  1  0
 11  1  1  0
  1  2  2  0
  2  3  1  0
  3  4  2  0
  4  5  1  0
  5  6  2  0
  5  7  1  0
  7  8  2  0
  8 12  1  0
 12 13  1  0
 13 15  1  0
 15 16  2  0
 15 17  2  0
 15 18  1  0
 18 19  2  0
 19 20  1  0
 20 21  2  0
 21 22  1  0
 22 23  1  0
 22 24  2  0
 24 25  1  0
 25 26  2  0
 26 27  1  0
  8  9  1  0
  9 28  1  0
 28 29  1  0
 29 30  2  0
 29 31  1  0
  6  1  1  0
 27 18  1  0
  9  4  1  0
 26 20  1  0
 13 14  1  0
 31 32  1  0
M  END
> <minimizedAffinity>
-10.11975

> <CNNscore>
0.5595838428

> <CNNaffinity>
6.0760784149

> <CNN_VS>
3.4000751972

> <CNNaffinity_variance>
0.3611851931

$$$$



 32 35  0  0  0  0  0  0  0  0999 V2000
   -1.1323   -8.6440   40.4044 C   0  0  0  0  0  0  0  0  0  0  0  0
   -1.4759   -8.0983   39.1683 C   0  0  0  0  0  0  0  0  0  0  0  0
   -0.9741   -8.6185   37.9702 C   0  0  0  0  0  0  0  0  0  0  0  0
   -0.1046   -9.7174   38.0444 C   0  0  0  0  0  0  0  0  0  0  0  0
    0.2524  -10.2855   39.2674 C   0  0  0  0  0  0  0  0  0  0  0  0
   -0.2671   -9.7411   40.4625 C   0  0  0  0  0  0  0  0  0  0  0  0
    1.1214  -11.3714   38.9872 C   0  0  0  0  0  0  0  0  0  0  0  0
    1.2807  -11.4636   37.6170 C   0  0  0  0  0  0  0  0  0  0  0  0
    0.5466  -10.4354   37.0540 N   0  0  0  0  0  0  0  0  0  0  0  0
   -2.5302   -6.8940   41.2049 C   0  0  0  0  0  0  0  0  0  0  0  0
   -1.7069   -8.0202   41.4797 O   0  0  0  0  0  0  0  0  0  0  0  0
    2.0509  -12.4737   36.8340 C   0  0  0  0  0  0  0  0  0  0  0  0
    3.2583  -12.7787   37.6002 N   0  0  0  0  0  0  0  0  0  0  0  0
    3.2505  -12.2049   38.4434 H   0  0  0  0  0  0  0  0  0  0  0  0
    3.4225  -14.3886   38.0666 S   0  0  0  0  0  0  0  0  0  0  0  0
    4.6354  -14.4879   38.8450 O   0  0  0  0  0  0  0  0  0  0  0  0
    2.1471  -14.8427   38.5744 O   0  0  0  0  0  0  0  0  0  0  0  0
    3.7213  -15.3780   36.6055 C   0  0  0  0  0  0  0  0  0  0  0  0
    4.9152  -15.7555   36.0003 C   0  0  0  0  0  0  0  0  0  0  0  0
    4.5995  -16.5455   34.8674 C   0  0  0  0  0  0  0  0  0  0  0  0
    5.3326  -17.2098   33.8683 C   0  0  0  0  0  0  0  0  0  0  0  0
    4.6261  -17.9083   32.8801 C   0  0  0  0  0  0  0  0  0  0  0  0
    5.5013  -18.7317   31.6458 Cl  0  0  0  0  0  0  0  0  0  0  0  0
    3.2297  -17.9512   32.8745 C   0  0  0  0  0  0  0  0  0  0  0  0
    2.4865  -17.2952   33.8626 C   0  0  0  0  0  0  0  0  0  0  0  0
    3.2143  -16.6108   34.8337 C   0  0  0  0  0  0  0  0  0  0  0  0
    2.6822  -15.9193   35.8737 O   0  0  0  0  0  0  0  0  0  0  0  0
    0.4886  -10.0962   35.6373 C   0  0  0  0  0  0  0  0  0  0  0  0
    1.3976   -8.9639   35.2535 C   0  0  0  0  0  0  0  0  0  0  0  0
    2.5279   -9.0889   34.8032 O   0  0  0  0  0  0  0  0  0  0  0  0
    0.8520   -7.7358   35.3523 O   0  0  0  0  0  0  0  0  0  0  0  0
   -0.0135   -7.6340   35.6965 H   0  0  0  0  0  0  0  0  0  0  0  0
 10 11  1  0
 11  1  1  0
  1  2  2  0
  2  3  1  0
  3  4  2  0
  4  5  1  0
  5  6  2  0
  5  7  1  0
  7  8  2  0
  8 12  1  0
 12 13  1  0
 13 15  1  0
 15 16  2  0
 15 17  2  0
 15 18  1  0
 18 19  2  0
 19 20  1  0
 20 21  2  0
 21 22  1  0
 22 23  1  0
 22 24  2  0
 24 25  1  0
 25 26  2  0
 26 27  1  0
  8  9  1  0
  9 28  1  0
 28 29  1  0
 29 30  2  0
 29 31  1  0
  6  1  1  0
 27 18  1  0
  9  4  1  0
 26 20  1  0
 13 14  1  0
 31 32  1  0
M  END
> <minimizedAffinity>
-8.70153

> <CNNscore>
0.4587219357

> <CNNaffinity>
5.4777569771

> <CNN_VS>
2.5127673149

> <CNNaffinity_variance>
0.4025514126

$$$$



 32 35  0  0  0  0  0  0  0  0999 V2000
    2.3342   -9.2846   31.7435 C   0  0  0  0  0  0  0  0  0  0  0  0
    3.5635   -9.7484   31.2772 C   0  0  0  0  0  0  0  0  0  0  0  0
    4.3561  -10.6182   32.0342 C   0  0  0  0  0  0  0  0  0  0  0  0
    3.8770  -11.0172   33.2914 C   0  0  0  0  0  0  0  0  0  0  0  0
    2.6489  -10.5717   33.7804 C   0  0  0  0  0  0  0  0  0  0  0  0
    1.8682   -9.6934   32.9970 C   0  0  0  0  0  0  0  0  0  0  0  0
    2.4643  -11.1675   35.0548 C   0  0  0  0  0  0  0  0  0  0  0  0
    3.5589  -11.9665   35.3281 C   0  0  0  0  0  0  0  0  0  0  0  0
    4.4241  -11.8487   34.2556 N   0  0  0  0  0  0  0  0  0  0  0  0
    2.0667   -8.4952   29.5158 C   0  0  0  0  0  0  0  0  0  0  0  0
    1.6826   -8.4409   30.8838 O   0  0  0  0  0  0  0  0  0  0  0  0
    3.8031  -12.8391   36.5138 C   0  0  0  0  0  0  0  0  0  0  0  0
    3.2644  -12.1385   37.6786 N   0  0  0  0  0  0  0  0  0  0  0  0
    3.1173  -11.1629   37.4201 H   0  0  0  0  0  0  0  0  0  0  0  0
    1.8093  -12.7463   38.2698 S   0  0  0  0  0  0  0  0  0  0  0  0
    1.0595  -13.2401   37.1381 O   0  0  0  0  0  0  0  0  0  0  0  0
    2.1010  -13.5769   39.4167 O   0  0  0  0  0  0  0  0  0  0  0  0
    0.8425  -11.3850   38.9141 C   0  0  0  0  0  0  0  0  0  0  0  0
    0.1100  -10.4058   38.2519 C   0  0  0  0  0  0  0  0  0  0  0  0
   -0.4757   -9.5633   39.2288 C   0  0  0  0  0  0  0  0  0  0  0  0
   -1.3043   -8.4275   39.2115 C   0  0  0  0  0  0  0  0  0  0  0  0
   -1.6781   -7.8597   40.4368 C   0  0  0  0  0  0  0  0  0  0  0  0
   -2.6941   -6.4686   40.4424 Cl  0  0  0  0  0  0  0  0  0  0  0  0
   -1.2452   -8.3966   41.6518 C   0  0  0  0  0  0  0  0  0  0  0  0
   -0.4205   -9.5270   41.6849 C   0  0  0  0  0  0  0  0  0  0  0  0
   -0.0665  -10.0723   40.4526 C   0  0  0  0  0  0  0  0  0  0  0  0
    0.7179  -11.1655   40.2723 O   0  0  0  0  0  0  0  0  0  0  0  0
    5.7468  -12.4525   34.1478 C   0  0  0  0  0  0  0  0  0  0  0  0
    6.8568  -11.5529   34.6108 C   0  0  0  0  0  0  0  0  0  0  0  0
    6.7331  -10.3698   34.8954 O   0  0  0  0  0  0  0  0  0  0  0  0
    8.0458  -12.1606   34.7913 O   0  0  0  0  0  0  0  0  0  0  0  0
    8.1464  -13.0668   34.5751 H   0  0  0  0  0  0  0  0  0  0  0  0
 10 11  1  0
 11  1  1  0
  1  2  2  0
  2  3  1  0
  3  4  2  0
  4  5  1  0
  5  6  2  0
  5  7  1  0
  7  8  2  0
  8 12  1  0
 12 13  1  0
 13 15  1  0
 15 16  2  0
 15 17  2  0
 15 18  1  0
 18 19  2  0
 19 20  1  0
 20 21  2  0
 21 22  1  0
 22 23  1  0
 22 24  2  0
 24 25  1  0
 25 26  2  0
 26 27  1  0
  8  9  1  0
  9 28  1  0
 28 29  1  0
 29 30  2  0
 29 31  1  0
  6  1  1  0
 27 18  1  0
  9  4  1  0
 26 20  1  0
 13 14  1  0
 31 32  1  0
M  END
> <minimizedAffinity>
-7.22855

> <CNNscore>
0.4366316199

> <CNNaffinity>
6.0468153954

> <CNN_VS>
2.6402308941

> <CNNaffinity_variance>
0.0218740907

$$$$



 32 35  0  0  0  0  0  0  0  0999 V2000
   -0.9880   -8.8613   40.4052 C   0  0  0  0  0  0  0  0  0  0  0  0
   -1.3237   -8.2390   39.2036 C   0  0  0  0  0  0  0  0  0  0  0  0
   -0.7996   -8.6713   37.9804 C   0  0  0  0  0  0  0  0  0  0  0  0
    0.0845   -9.7609   37.9930 C   0  0  0  0  0  0  0  0  0  0  0  0
    0.4342  -10.4046   39.1802 C   0  0  0  0  0  0  0  0  0  0  0  0
   -0.1080   -9.9482   40.4017 C   0  0  0  0  0  0  0  0  0  0  0  0
    1.3221  -11.4577   38.8400 C   0  0  0  0  0  0  0  0  0  0  0  0
    1.4998  -11.4560   37.4690 C   0  0  0  0  0  0  0  0  0  0  0  0
    0.7583  -10.4025   36.9659 N   0  0  0  0  0  0  0  0  0  0  0  0
   -2.3511   -7.1373   41.3142 C   0  0  0  0  0  0  0  0  0  0  0  0
   -1.5848   -8.3185   41.5118 O   0  0  0  0  0  0  0  0  0  0  0  0
    2.2942  -12.4012   36.6309 C   0  0  0  0  0  0  0  0  0  0  0  0
    2.0831  -13.7400   37.1792 N   0  0  0  0  0  0  0  0  0  0  0  0
    1.5031  -13.6516   38.0136 H   0  0  0  0  0  0  0  0  0  0  0  0
    1.3344  -14.8306   36.1370 S   0  0  0  0  0  0  0  0  0  0  0  0
    0.4303  -15.6304   36.9305 O   0  0  0  0  0  0  0  0  0  0  0  0
    0.8900  -14.1042   34.9684 O   0  0  0  0  0  0  0  0  0  0  0  0
    2.5667  -15.9785   35.5314 C   0  0  0  0  0  0  0  0  0  0  0  0
    2.5566  -16.8066   34.4142 C   0  0  0  0  0  0  0  0  0  0  0  0
    3.7834  -17.5144   34.3844 C   0  0  0  0  0  0  0  0  0  0  0  0
    4.3718  -18.4726   33.5402 C   0  0  0  0  0  0  0  0  0  0  0  0
    5.6489  -18.9489   33.8652 C   0  0  0  0  0  0  0  0  0  0  0  0
    6.3920  -20.1221   32.8459 Cl  0  0  0  0  0  0  0  0  0  0  0  0
    6.3312  -18.4936   34.9961 C   0  0  0  0  0  0  0  0  0  0  0  0
    5.7585  -17.5399   35.8456 C   0  0  0  0  0  0  0  0  0  0  0  0
    4.4896  -17.0820   35.4973 C   0  0  0  0  0  0  0  0  0  0  0  0
    3.7702  -16.1588   36.1852 O   0  0  0  0  0  0  0  0  0  0  0  0
    0.7132   -9.9703   35.5742 C   0  0  0  0  0  0  0  0  0  0  0  0
    1.6013   -8.7949   35.2817 C   0  0  0  0  0  0  0  0  0  0  0  0
    1.2957   -7.6222   35.4466 O   0  0  0  0  0  0  0  0  0  0  0  0
    2.8511   -9.1084   34.8877 O   0  0  0  0  0  0  0  0  0  0  0  0
    3.0909  -10.0051   34.7598 H   0  0  0  0  0  0  0  0  0  0  0  0
 10 11  1  0
 11  1  1  0
  1  2  2  0
  2  3  1  0
  3  4  2  0
  4  5  1  0
  5  6  2  0
  5  7  1  0
  7  8  2  0
  8 12  1  0
 12 13  1  0
 13 15  1  0
 15 16  2  0
 15 17  2  0
 15 18  1  0
 18 19  2  0
 19 20  1  0
 20 21  2  0
 21 22  1  0
 22 23  1  0
 22 24  2  0
 24 25  1  0
 25 26  2  0
 26 27  1  0
  8  9  1  0
  9 28  1  0
 28 29  1  0
 29 30  2  0
 29 31  1  0
  6  1  1  0
 27 18  1  0
  9  4  1  0
 26 20  1  0
 13 14  1  0
 31 32  1  0
M  END
> <minimizedAffinity>
-8.26754

> <CNNscore>
0.4251973033

> <CNNaffinity>
5.4919161797

> <CNN_VS>
2.3351478577

> <CNNaffinity_variance>
0.1184270158

$$$$



 32 35  0  0  0  0  0  0  0  0999 V2000
    1.9809   -9.8336   29.6038 C   0  0  0  0  0  0  0  0  0  0  0  0
    2.2362   -8.6724   30.3320 C   0  0  0  0  0  0  0  0  0  0  0  0
    2.0828   -8.6279   31.7221 C   0  0  0  0  0  0  0  0  0  0  0  0
    1.6596   -9.7963   32.3739 C   0  0  0  0  0  0  0  0  0  0  0  0
    1.4013  -10.9728   31.6704 C   0  0  0  0  0  0  0  0  0  0  0  0
    1.5628  -10.9913   30.2676 C   0  0  0  0  0  0  0  0  0  0  0  0
    1.0115  -11.9520   32.6204 C   0  0  0  0  0  0  0  0  0  0  0  0
    1.0417  -11.3793   33.8783 C   0  0  0  0  0  0  0  0  0  0  0  0
    1.4161  -10.0582   33.7128 N   0  0  0  0  0  0  0  0  0  0  0  0
    1.2252  -10.3409   27.4064 C   0  0  0  0  0  0  0  0  0  0  0  0
    2.1779   -9.7121   28.2540 O   0  0  0  0  0  0  0  0  0  0  0  0
    0.7698  -12.0171   35.1997 C   0  0  0  0  0  0  0  0  0  0  0  0
    1.9554  -11.8058   36.0287 N   0  0  0  0  0  0  0  0  0  0  0  0
    2.1552  -10.8057   36.0448 H   0  0  0  0  0  0  0  0  0  0  0  0
    1.8192  -12.3360   37.6213 S   0  0  0  0  0  0  0  0  0  0  0  0
    0.9957  -13.5228   37.6092 O   0  0  0  0  0  0  0  0  0  0  0  0
    3.1379  -12.3247   38.2141 O   0  0  0  0  0  0  0  0  0  0  0  0
    0.8817  -11.1249   38.5473 C   0  0  0  0  0  0  0  0  0  0  0  0
    0.1573  -10.0202   38.1126 C   0  0  0  0  0  0  0  0  0  0  0  0
   -0.4036   -9.3906   39.2511 C   0  0  0  0  0  0  0  0  0  0  0  0
   -1.2142   -8.2650   39.4811 C   0  0  0  0  0  0  0  0  0  0  0  0
   -1.5648   -7.9582   40.8027 C   0  0  0  0  0  0  0  0  0  0  0  0
   -2.5583   -6.5851   41.1107 Cl  0  0  0  0  0  0  0  0  0  0  0  0
   -1.1265   -8.7407   41.8739 C   0  0  0  0  0  0  0  0  0  0  0  0
   -0.3195   -9.8643   41.6605 C   0  0  0  0  0  0  0  0  0  0  0  0
    0.0115  -10.1473   40.3370 C   0  0  0  0  0  0  0  0  0  0  0  0
    0.7762  -11.1898   39.9231 O   0  0  0  0  0  0  0  0  0  0  0  0
    1.4991   -9.0502   34.7629 C   0  0  0  0  0  0  0  0  0  0  0  0
    0.2274   -8.2738   34.9514 C   0  0  0  0  0  0  0  0  0  0  0  0
   -0.0495   -7.6027   35.9357 O   0  0  0  0  0  0  0  0  0  0  0  0
   -0.6066   -8.2795   33.8931 O   0  0  0  0  0  0  0  0  0  0  0  0
   -0.3997   -8.7917   33.1363 H   0  0  0  0  0  0  0  0  0  0  0  0
 10 11  1  0
 11  1  1  0
  1  2  2  0
  2  3  1  0
  3  4  2  0
  4  5  1  0
  5  6  2  0
  5  7  1  0
  7  8  2  0
  8 12  1  0
 12 13  1  0
 13 15  1  0
 15 16  2  0
 15 17  2  0
 15 18  1  0
 18 19  2  0
 19 20  1  0
 20 21  2  0
 21 22  1  0
 22 23  1  0
 22 24  2  0
 24 25  1  0
 25 26  2  0
 26 27  1  0
  8  9  1  0
  9 28  1  0
 28 29  1  0
 29 30  2  0
 29 31  1  0
  6  1  1  0
 27 18  1  0
  9  4  1  0
 26 20  1  0
 13 14  1  0
 31 32  1  0
M  END
> <minimizedAffinity>
-9.17677

> <CNNscore>
0.3881401420

> <CNNaffinity>
5.7836914062

> <CNN_VS>
2.2448828220

> <CNNaffinity_variance>
0.4251714051

$$$$



 32 35  0  0  0  0  0  0  0  0999 V2000
   -0.5364   -9.2858   40.0546 C   0  0  0  0  0  0  0  0  0  0  0  0
   -0.5853   -8.6424   38.8188 C   0  0  0  0  0  0  0  0  0  0  0  0
    0.0819   -9.1503   37.6987 C   0  0  0  0  0  0  0  0  0  0  0  0
    0.8117  -10.3390   37.8520 C   0  0  0  0  0  0  0  0  0  0  0  0
    0.8740  -11.0055   39.0758 C   0  0  0  0  0  0  0  0  0  0  0  0
    0.1924  -10.4716   40.1914 C   0  0  0  0  0  0  0  0  0  0  0  0
    1.6717  -12.1628   38.8824 C   0  0  0  0  0  0  0  0  0  0  0  0
    2.0782  -12.1998   37.5615 C   0  0  0  0  0  0  0  0  0  0  0  0
    1.5665  -11.0704   36.9487 N   0  0  0  0  0  0  0  0  0  0  0  0
   -1.7104   -7.3467   40.7747 C   0  0  0  0  0  0  0  0  0  0  0  0
   -1.2416   -8.6608   41.0484 O   0  0  0  0  0  0  0  0  0  0  0  0
    2.8819  -13.2448   36.8625 C   0  0  0  0  0  0  0  0  0  0  0  0
    2.7888  -14.4637   37.6646 N   0  0  0  0  0  0  0  0  0  0  0  0
    2.1480  -15.1029   37.1944 H   0  0  0  0  0  0  0  0  0  0  0  0
    4.2456  -15.2725   37.9096 S   0  0  0  0  0  0  0  0  0  0  0  0
    5.2504  -14.2719   38.1852 O   0  0  0  0  0  0  0  0  0  0  0  0
    4.0007  -16.3796   38.8068 O   0  0  0  0  0  0  0  0  0  0  0  0
    4.7461  -16.0260   36.3654 C   0  0  0  0  0  0  0  0  0  0  0  0
    3.9833  -16.4939   35.3009 C   0  0  0  0  0  0  0  0  0  0  0  0
    4.8696  -16.9951   34.3158 C   0  0  0  0  0  0  0  0  0  0  0  0
    4.7336  -17.5855   33.0470 C   0  0  0  0  0  0  0  0  0  0  0  0
    5.8966  -17.9617   32.3617 C   0  0  0  0  0  0  0  0  0  0  0  0
    5.7566  -18.6856   30.8048 Cl  0  0  0  0  0  0  0  0  0  0  0  0
    7.1647  -17.7627   32.9131 C   0  0  0  0  0  0  0  0  0  0  0  0
    7.3158  -17.1760   34.1749 C   0  0  0  0  0  0  0  0  0  0  0  0
    6.1435  -16.8095   34.8325 C   0  0  0  0  0  0  0  0  0  0  0  0
    6.0777  -16.2251   36.0560 O   0  0  0  0  0  0  0  0  0  0  0  0
    1.8110  -10.6532   35.5733 C   0  0  0  0  0  0  0  0  0  0  0  0
    0.8533  -11.2540   34.5846 C   0  0  0  0  0  0  0  0  0  0  0  0
    1.0054  -12.3277   34.0189 O   0  0  0  0  0  0  0  0  0  0  0  0
   -0.2869  -10.5600   34.4009 O   0  0  0  0  0  0  0  0  0  0  0  0
   -0.4090   -9.7369   34.8317 H   0  0  0  0  0  0  0  0  0  0  0  0
 10 11  1  0
 11  1  1  0
  1  2  2  0
  2  3  1  0
  3  4  2  0
  4  5  1  0
  5  6  2  0
  5  7  1  0
  7  8  2  0
  8 12  1  0
 12 13  1  0
 13 15  1  0
 15 16  2  0
 15 17  2  0
 15 18  1  0
 18 19  2  0
 19 20  1  0
 20 21  2  0
 21 22  1  0
 22 23  1  0
 22 24  2  0
 24 25  1  0
 25 26  2  0
 26 27  1  0
  8  9  1  0
  9 28  1  0
 28 29  1  0
 29 30  2  0
 29 31  1  0
  6  1  1  0
 27 18  1  0
  9  4  1  0
 26 20  1  0
 13 14  1  0
 31 32  1  0
M  END
> <minimizedAffinity>
-7.61667

> <CNNscore>
0.3528110385

> <CNNaffinity>
5.3406162262

> <CNN_VS>
1.8842283487

> <CNNaffinity_variance>
0.1106076613

$$$$



 32 35  0  0  0  0  0  0  0  0999 V2000
    5.2651  -18.5121   35.1013 C   0  0  0  0  0  0  0  0  0  0  0  0
    3.9560  -18.6727   34.6494 C   0  0  0  0  0  0  0  0  0  0  0  0
    3.0287  -17.6259   34.6957 C   0  0  0  0  0  0  0  0  0  0  0  0
    3.4544  -16.3940   35.2157 C   0  0  0  0  0  0  0  0  0  0  0  0
    4.7593  -16.2046   35.6708 C   0  0  0  0  0  0  0  0  0  0  0  0
    5.6758  -17.2775   35.6139 C   0  0  0  0  0  0  0  0  0  0  0  0
    4.8580  -14.8598   36.1123 C   0  0  0  0  0  0  0  0  0  0  0  0
    3.6353  -14.2440   35.9197 C   0  0  0  0  0  0  0  0  0  0  0  0
    2.7809  -15.1959   35.3937 N   0  0  0  0  0  0  0  0  0  0  0  0
    7.3010  -19.4758   34.3374 C   0  0  0  0  0  0  0  0  0  0  0  0
    6.0462  -19.6312   34.9877 O   0  0  0  0  0  0  0  0  0  0  0  0
    3.2568  -12.8233   36.1747 C   0  0  0  0  0  0  0  0  0  0  0  0
    3.7030  -12.4982   37.5286 N   0  0  0  0  0  0  0  0  0  0  0  0
    3.8287  -11.4875   37.5855 H   0  0  0  0  0  0  0  0  0  0  0  0
    2.6521  -12.9630   38.7597 S   0  0  0  0  0  0  0  0  0  0  0  0
    1.8576  -14.0586   38.2545 O   0  0  0  0  0  0  0  0  0  0  0  0
    3.4126  -13.0694   39.9848 O   0  0  0  0  0  0  0  0  0  0  0  0
    1.4881  -11.6343   39.0477 C   0  0  0  0  0  0  0  0  0  0  0  0
    0.8940  -11.1951   40.2259 C   0  0  0  0  0  0  0  0  0  0  0  0
    0.0506  -10.1020   39.9082 C   0  0  0  0  0  0  0  0  0  0  0  0
   -0.7998   -9.2448   40.6287 C   0  0  0  0  0  0  0  0  0  0  0  0
   -1.4913   -8.2499   39.9246 C   0  0  0  0  0  0  0  0  0  0  0  0
   -2.5380   -7.1861   40.7848 Cl  0  0  0  0  0  0  0  0  0  0  0  0
   -1.3502   -8.1027   38.5425 C   0  0  0  0  0  0  0  0  0  0  0  0
   -0.5072   -8.9481   37.8119 C   0  0  0  0  0  0  0  0  0  0  0  0
    0.1696   -9.9263   38.5374 C   0  0  0  0  0  0  0  0  0  0  0  0
    1.0324  -10.8359   38.0167 O   0  0  0  0  0  0  0  0  0  0  0  0
    1.3627  -15.0145   35.1087 C   0  0  0  0  0  0  0  0  0  0  0  0
    1.0106  -13.6192   34.6787 C   0  0  0  0  0  0  0  0  0  0  0  0
    0.9419  -13.2349   33.5196 O   0  0  0  0  0  0  0  0  0  0  0  0
    0.6711  -12.7826   35.6790 O   0  0  0  0  0  0  0  0  0  0  0  0
    0.7218  -13.0715   36.5689 H   0  0  0  0  0  0  0  0  0  0  0  0
 10 11  1  0
 11  1  1  0
  1  2  2  0
  2  3  1  0
  3  4  2  0
  4  5  1  0
  5  6  2  0
  5  7  1  0
  7  8  2  0
  8 12  1  0
 12 13  1  0
 13 15  1  0
 15 16  2  0
 15 17  2  0
 15 18  1  0
 18 19  2  0
 19 20  1  0
 20 21  2  0
 21 22  1  0
 22 23  1  0
 22 24  2  0
 24 25  1  0
 25 26  2  0
 26 27  1  0
  8  9  1  0
  9 28  1  0
 28 29  1  0
 29 30  2  0
 29 31  1  0
  6  1  1  0
 27 18  1  0
  9  4  1  0
 26 20  1  0
 13 14  1  0
 31 32  1  0
M  END
> <minimizedAffinity>
-7.14935

> <CNNscore>
0.3280847967

> <CNNaffinity>
5.3348083496

> <CNN_VS>
1.7502695322

> <CNNaffinity_variance>
0.1238998771

$$$$
