


 25 25  0  0  0  0  0  0  0  0999 V2000
   44.1806   15.0035   -0.4207 C   0  0  0  0  0  0  0  0  0  0  0  0
   43.9250   15.6703   -1.8108 N   0  0  0  0  0  0  0  0  0  0  0  0
   42.4147   15.7624   -2.1226 C   0  0  0  0  0  0  0  0  0  0  0  0
   44.4956   14.7007   -2.9050 C   0  0  0  0  0  0  0  0  0  0  0  0
   44.6588   16.9915   -2.0289 C   0  0  0  0  0  0  0  0  0  0  0  0
   44.7705   17.6746   -3.3754 N   0  0  0  0  0  0  0  0  0  0  0  0
   44.5454   19.2032   -3.2739 C   0  0  0  0  0  0  0  0  0  0  0  0
   46.1323   17.4884   -4.0480 C   0  0  0  0  0  0  0  0  0  0  0  0
   43.6384   17.2196   -4.3413 C   0  0  0  0  0  0  0  0  0  0  0  0
   41.7195   17.3338   -5.8774 C   0  0  0  0  0  0  0  0  0  0  0  0
   42.9284   18.1707   -5.2865 N   0  0  0  0  0  0  0  0  0  0  0  0
   43.7369   18.5764   -6.5241 C   0  0  0  0  0  0  0  0  0  0  0  0
   42.2757   19.4056   -4.6765 C   0  0  0  0  0  0  0  0  0  0  0  0
   44.3364   15.9505    0.7856 C   0  0  0  0  0  0  0  0  0  0  0  0
   43.9787   15.2308    1.9666 O   0  0  0  0  0  0  0  0  0  0  0  0
   45.0748   14.7693    2.6203 C   0  0  0  0  0  0  0  0  0  0  0  0
   45.6351   13.4736    2.4474 C   0  0  0  0  0  0  0  0  0  0  0  0
   44.9478   12.2006    1.2324 Br  0  0  0  0  0  0  0  0  0  0  0  0
   46.7164   13.2445    3.2582 C   0  0  0  0  0  0  0  0  0  0  0  0
   47.0359   14.5917    4.2591 S   0  0  0  0  0  0  0  0  0  0  0  0
   45.7154   15.4917    3.6127 C   0  0  0  0  0  0  0  0  0  0  0  0
   45.4709   16.8042    4.1604 C   0  0  0  0  0  0  0  0  0  0  0  0
   44.5665   17.1793    4.8891 O   0  0  0  0  0  0  0  0  0  0  0  0
   46.4123   17.7207    3.8024 O   0  0  0  0  0  0  0  0  0  0  0  0
   47.1218   17.4700    3.2441 H   0  0  0  0  0  0  0  0  0  0  0  0
 10 11  1  0
 11 12  1  0
 11 13  1  0
 11  9  1  0
  9  6  1  0
  6  7  1  0
  6  8  1  0
  6  5  1  0
  5  2  1  0
  2  3  1  0
  2  4  1  0
  2  1  1  0
  1 14  1  0
 14 15  1  0
 15 16  1  0
 16 17  1  0
 17 18  1  0
 17 19  2  0
 19 20  1  0
 20 21  1  0
 21 22  1  0
 22 23  2  0
 22 24  1  0
 21 16  2  0
 24 25  1  0
M  CHG 1   2   1
M  CHG 1   6   1
M  CHG 1  11   1
M  END
> <minimizedAffinity>
-5.76456

> <CNNscore>
0.4532896280

> <CNNaffinity>
5.1593880653

> <CNN_VS>
2.3386971951

> <CNNaffinity_variance>
0.0577739775

$$$$



 25 25  0  0  0  0  0  0  0  0999 V2000
   43.7087   16.1207   -0.4217 C   0  0  0  0  0  0  0  0  0  0  0  0
   43.6776   16.0140   -1.9805 N   0  0  0  0  0  0  0  0  0  0  0  0
   42.2284   15.9990   -2.5157 C   0  0  0  0  0  0  0  0  0  0  0  0
   44.2543   14.6055   -2.3631 C   0  0  0  0  0  0  0  0  0  0  0  0
   44.5691   17.0190   -2.7065 C   0  0  0  0  0  0  0  0  0  0  0  0
   44.2777   17.5459   -4.0956 N   0  0  0  0  0  0  0  0  0  0  0  0
   44.0957   16.4042   -5.1257 C   0  0  0  0  0  0  0  0  0  0  0  0
   43.0094   18.3983   -4.1761 C   0  0  0  0  0  0  0  0  0  0  0  0
   45.4858   18.3421   -4.6685 C   0  0  0  0  0  0  0  0  0  0  0  0
   46.8466   19.7671   -6.1424 C   0  0  0  0  0  0  0  0  0  0  0  0
   45.4780   18.9738   -6.0480 N   0  0  0  0  0  0  0  0  0  0  0  0
   44.4099   20.0529   -6.2595 C   0  0  0  0  0  0  0  0  0  0  0  0
   45.4981   18.0341   -7.2479 C   0  0  0  0  0  0  0  0  0  0  0  0
   44.4563   15.0056    0.3359 C   0  0  0  0  0  0  0  0  0  0  0  0
   44.1365   15.1178    1.7236 O   0  0  0  0  0  0  0  0  0  0  0  0
   45.1427   14.6526    2.5064 C   0  0  0  0  0  0  0  0  0  0  0  0
   45.7610   13.3803    2.3595 C   0  0  0  0  0  0  0  0  0  0  0  0
   45.2910   12.1494    1.0054 Br  0  0  0  0  0  0  0  0  0  0  0  0
   46.7234   13.1394    3.3055 C   0  0  0  0  0  0  0  0  0  0  0  0
   46.8573   14.4455    4.3986 S   0  0  0  0  0  0  0  0  0  0  0  0
   45.6146   15.3429    3.6100 C   0  0  0  0  0  0  0  0  0  0  0  0
   45.2555   16.6220    4.1731 C   0  0  0  0  0  0  0  0  0  0  0  0
   44.2914   16.9185    4.8604 O   0  0  0  0  0  0  0  0  0  0  0  0
   46.1514   17.6067    3.8870 O   0  0  0  0  0  0  0  0  0  0  0  0
   46.9041   17.4172    3.3621 H   0  0  0  0  0  0  0  0  0  0  0  0
 10 11  1  0
 11 12  1  0
 11 13  1  0
 11  9  1  0
  9  6  1  0
  6  7  1  0
  6  8  1  0
  6  5  1  0
  5  2  1  0
  2  3  1  0
  2  4  1  0
  2  1  1  0
  1 14  1  0
 14 15  1  0
 15 16  1  0
 16 17  1  0
 17 18  1  0
 17 19  2  0
 19 20  1  0
 20 21  1  0
 21 22  1  0
 22 23  2  0
 22 24  1  0
 21 16  2  0
 24 25  1  0
M  CHG 1   2   1
M  CHG 1   6   1
M  CHG 1  11   1
M  END
> <minimizedAffinity>
-5.50331

> <CNNscore>
0.4256160557

> <CNNaffinity>
4.9151620865

> <CNN_VS>
2.0919718742

> <CNNaffinity_variance>
0.1947327107

$$$$



 25 25  0  0  0  0  0  0  0  0999 V2000
   43.5425   16.1945   -0.7142 C   0  0  0  0  0  0  0  0  0  0  0  0
   43.8374   15.6786   -2.1595 N   0  0  0  0  0  0  0  0  0  0  0  0
   43.4053   16.7101   -3.2254 C   0  0  0  0  0  0  0  0  0  0  0  0
   42.9086   14.4388   -2.4106 C   0  0  0  0  0  0  0  0  0  0  0  0
   45.2578   15.1610   -2.3744 C   0  0  0  0  0  0  0  0  0  0  0  0
   46.1611   15.6350   -3.4931 N   0  0  0  0  0  0  0  0  0  0  0  0
   47.5199   14.8926   -3.4993 C   0  0  0  0  0  0  0  0  0  0  0  0
   45.5641   15.4421   -4.8888 C   0  0  0  0  0  0  0  0  0  0  0  0
   46.5778   17.1217   -3.2985 C   0  0  0  0  0  0  0  0  0  0  0  0
   46.5033   18.9216   -4.9747 C   0  0  0  0  0  0  0  0  0  0  0  0
   47.4613   17.8664   -4.2817 N   0  0  0  0  0  0  0  0  0  0  0  0
   47.9862   17.0218   -5.4482 C   0  0  0  0  0  0  0  0  0  0  0  0
   48.5978   18.7032   -3.7061 C   0  0  0  0  0  0  0  0  0  0  0  0
   44.6509   15.9873    0.3368 C   0  0  0  0  0  0  0  0  0  0  0  0
   44.0817   15.3079    1.4571 O   0  0  0  0  0  0  0  0  0  0  0  0
   45.0369   14.7244    2.2244 C   0  0  0  0  0  0  0  0  0  0  0  0
   45.5178   13.3975    2.0490 C   0  0  0  0  0  0  0  0  0  0  0  0
   44.9157   12.2499    0.6743 Br  0  0  0  0  0  0  0  0  0  0  0  0
   46.4537   13.0384    2.9841 C   0  0  0  0  0  0  0  0  0  0  0  0
   46.7284   14.3013    4.1014 S   0  0  0  0  0  0  0  0  0  0  0  0
   45.5832   15.3394    3.3382 C   0  0  0  0  0  0  0  0  0  0  0  0
   45.3625   16.6377    3.9282 C   0  0  0  0  0  0  0  0  0  0  0  0
   45.9039   17.7018    3.6749 O   0  0  0  0  0  0  0  0  0  0  0  0
   44.3962   16.6356    4.8877 O   0  0  0  0  0  0  0  0  0  0  0  0
   43.9581   15.8376    5.1096 H   0  0  0  0  0  0  0  0  0  0  0  0
 10 11  1  0
 11 12  1  0
 11 13  1  0
 11  9  1  0
  9  6  1  0
  6  7  1  0
  6  8  1  0
  6  5  1  0
  5  2  1  0
  2  3  1  0
  2  4  1  0
  2  1  1  0
  1 14  1  0
 14 15  1  0
 15 16  1  0
 16 17  1  0
 17 18  1  0
 17 19  2  0
 19 20  1  0
 20 21  1  0
 21 22  1  0
 22 23  2  0
 22 24  1  0
 21 16  2  0
 24 25  1  0
M  CHG 1   2   1
M  CHG 1   6   1
M  CHG 1  11   1
M  END
> <minimizedAffinity>
-5.02214

> <CNNscore>
0.4186626673

> <CNNaffinity>
4.8213248253

> <CNN_VS>
2.0185086727

> <CNNaffinity_variance>
0.1979255676

$$$$



 25 25  0  0  0  0  0  0  0  0999 V2000
   43.7378   16.2096   -0.3522 C   0  0  0  0  0  0  0  0  0  0  0  0
   43.4899   15.9850   -1.8788 N   0  0  0  0  0  0  0  0  0  0  0  0
   44.1818   14.6974   -2.3787 C   0  0  0  0  0  0  0  0  0  0  0  0
   44.2158   17.1463   -2.6449 C   0  0  0  0  0  0  0  0  0  0  0  0
   42.0274   16.0791   -2.3079 C   0  0  0  0  0  0  0  0  0  0  0  0
   41.5887   16.3664   -3.7282 N   0  0  0  0  0  0  0  0  0  0  0  0
   42.2751   17.6281   -4.3064 C   0  0  0  0  0  0  0  0  0  0  0  0
   41.8924   15.2299   -4.7070 C   0  0  0  0  0  0  0  0  0  0  0  0
   40.0773   16.7308   -3.7955 C   0  0  0  0  0  0  0  0  0  0  0  0
   38.3855   16.3497   -2.0498 C   0  0  0  0  0  0  0  0  0  0  0  0
   38.9771   15.7644   -3.3984 N   0  0  0  0  0  0  0  0  0  0  0  0
   39.4571   14.3606   -3.0128 C   0  0  0  0  0  0  0  0  0  0  0  0
   37.7735   15.6547   -4.3271 C   0  0  0  0  0  0  0  0  0  0  0  0
   44.4135   15.0581    0.4184 C   0  0  0  0  0  0  0  0  0  0  0  0
   44.1579   15.2436    1.8115 O   0  0  0  0  0  0  0  0  0  0  0  0
   45.1710   14.7587    2.5732 C   0  0  0  0  0  0  0  0  0  0  0  0
   45.7126   13.4484    2.4615 C   0  0  0  0  0  0  0  0  0  0  0  0
   45.1180   12.1859    1.1879 Br  0  0  0  0  0  0  0  0  0  0  0  0
   46.7013   13.1971    3.3772 C   0  0  0  0  0  0  0  0  0  0  0  0
   46.9533   14.5416    4.4007 S   0  0  0  0  0  0  0  0  0  0  0  0
   45.7274   15.4706    3.6224 C   0  0  0  0  0  0  0  0  0  0  0  0
   45.4628   16.7920    4.1385 C   0  0  0  0  0  0  0  0  0  0  0  0
   44.5481   17.1723    4.8514 O   0  0  0  0  0  0  0  0  0  0  0  0
   46.3961   17.7115    3.7676 O   0  0  0  0  0  0  0  0  0  0  0  0
   47.1131   17.4569    3.2207 H   0  0  0  0  0  0  0  0  0  0  0  0
 10 11  1  0
 11 12  1  0
 11 13  1  0
 11  9  1  0
  9  6  1  0
  6  7  1  0
  6  8  1  0
  6  5  1  0
  5  2  1  0
  2  3  1  0
  2  4  1  0
  2  1  1  0
  1 14  1  0
 14 15  1  0
 15 16  1  0
 16 17  1  0
 17 18  1  0
 17 19  2  0
 19 20  1  0
 20 21  1  0
 21 22  1  0
 22 23  2  0
 22 24  1  0
 21 16  2  0
 24 25  1  0
M  CHG 1   2   1
M  CHG 1   6   1
M  CHG 1  11   1
M  END
> <minimizedAffinity>
-5.79527

> <CNNscore>
0.4011712670

> <CNNaffinity>
4.9383673668

> <CNN_VS>
1.9811310768

> <CNNaffinity_variance>
0.1175913215

$$$$



 25 25  0  0  0  0  0  0  0  0999 V2000
   44.4444   14.0134   -0.9682 C   0  0  0  0  0  0  0  0  0  0  0  0
   44.7676   13.4439   -2.3871 N   0  0  0  0  0  0  0  0  0  0  0  0
   43.9294   12.1827   -2.6926 C   0  0  0  0  0  0  0  0  0  0  0  0
   46.2516   12.9343   -2.3580 C   0  0  0  0  0  0  0  0  0  0  0  0
   44.7234   14.4744   -3.5131 C   0  0  0  0  0  0  0  0  0  0  0  0
   43.4385   15.0392   -4.0809 N   0  0  0  0  0  0  0  0  0  0  0  0
   42.4696   15.5139   -2.9703 C   0  0  0  0  0  0  0  0  0  0  0  0
   43.6505   16.2414   -5.0036 C   0  0  0  0  0  0  0  0  0  0  0  0
   42.6126   13.9465   -4.8195 C   0  0  0  0  0  0  0  0  0  0  0  0
   42.2065   12.0342   -6.3139 C   0  0  0  0  0  0  0  0  0  0  0  0
   42.9984   13.4005   -6.1815 N   0  0  0  0  0  0  0  0  0  0  0  0
   44.4688   12.9906   -6.3215 C   0  0  0  0  0  0  0  0  0  0  0  0
   42.5752   14.2068   -7.4038 C   0  0  0  0  0  0  0  0  0  0  0  0
   45.0046   13.2332    0.2375 C   0  0  0  0  0  0  0  0  0  0  0  0
   44.3567   13.7107    1.4177 O   0  0  0  0  0  0  0  0  0  0  0  0
   45.1739   14.5136    2.1450 C   0  0  0  0  0  0  0  0  0  0  0  0
   46.2415   14.0535    2.9643 C   0  0  0  0  0  0  0  0  0  0  0  0
   46.7102   12.2307    3.1296 Br  0  0  0  0  0  0  0  0  0  0  0  0
   46.8857   15.0672    3.6250 C   0  0  0  0  0  0  0  0  0  0  0  0
   46.1743   16.5815    3.2790 S   0  0  0  0  0  0  0  0  0  0  0  0
   44.9883   15.8823    2.2418 C   0  0  0  0  0  0  0  0  0  0  0  0
   44.0177   16.7682    1.6455 C   0  0  0  0  0  0  0  0  0  0  0  0
   43.2735   16.5711    0.6985 O   0  0  0  0  0  0  0  0  0  0  0  0
   43.9418   17.9785    2.2648 O   0  0  0  0  0  0  0  0  0  0  0  0
   44.4973   18.1666    2.9955 H   0  0  0  0  0  0  0  0  0  0  0  0
 10 11  1  0
 11 12  1  0
 11 13  1  0
 11  9  1  0
  9  6  1  0
  6  7  1  0
  6  8  1  0
  6  5  1  0
  5  2  1  0
  2  3  1  0
  2  4  1  0
  2  1  1  0
  1 14  1  0
 14 15  1  0
 15 16  1  0
 16 17  1  0
 17 18  1  0
 17 19  2  0
 19 20  1  0
 20 21  1  0
 21 22  1  0
 22 23  2  0
 22 24  1  0
 21 16  2  0
 24 25  1  0
M  CHG 1   2   1
M  CHG 1   6   1
M  CHG 1  11   1
M  END
> <minimizedAffinity>
-4.54139

> <CNNscore>
0.3584493995

> <CNNaffinity>
4.3199038506

> <CNN_VS>
1.5484669209

> <CNNaffinity_variance>
0.4757271707

$$$$



 25 25  0  0  0  0  0  0  0  0999 V2000
   44.0843   16.2453   -0.7195 C   0  0  0  0  0  0  0  0  0  0  0  0
   44.3149   16.2654   -2.2650 N   0  0  0  0  0  0  0  0  0  0  0  0
   44.7977   14.8915   -2.7807 C   0  0  0  0  0  0  0  0  0  0  0  0
   45.5156   17.2364   -2.5447 C   0  0  0  0  0  0  0  0  0  0  0  0
   43.1505   16.8293   -3.0762 C   0  0  0  0  0  0  0  0  0  0  0  0
   42.5491   16.1284   -4.2758 N   0  0  0  0  0  0  0  0  0  0  0  0
   43.6178   15.3806   -5.1102 C   0  0  0  0  0  0  0  0  0  0  0  0
   41.4882   15.0875   -3.9115 C   0  0  0  0  0  0  0  0  0  0  0  0
   41.9611   17.1464   -5.2955 C   0  0  0  0  0  0  0  0  0  0  0  0
   41.8852   19.0466   -6.8570 C   0  0  0  0  0  0  0  0  0  0  0  0
   42.5494   18.5276   -5.5150 N   0  0  0  0  0  0  0  0  0  0  0  0
   44.0527   18.5506   -5.8136 C   0  0  0  0  0  0  0  0  0  0  0  0
   42.2175   19.6010   -4.4850 C   0  0  0  0  0  0  0  0  0  0  0  0
   44.4282   14.9355    0.0171 C   0  0  0  0  0  0  0  0  0  0  0  0
   44.1117   15.1052    1.3997 O   0  0  0  0  0  0  0  0  0  0  0  0
   45.1418   14.7252    2.1973 C   0  0  0  0  0  0  0  0  0  0  0  0
   45.6049   13.3882    2.3401 C   0  0  0  0  0  0  0  0  0  0  0  0
   44.8675   11.9289    1.3936 Br  0  0  0  0  0  0  0  0  0  0  0  0
   46.6325   13.2699    3.2397 C   0  0  0  0  0  0  0  0  0  0  0  0
   47.0177   14.7793    3.9412 S   0  0  0  0  0  0  0  0  0  0  0  0
   45.7981   15.6029    3.0435 C   0  0  0  0  0  0  0  0  0  0  0  0
   45.6363   17.0173    3.2797 C   0  0  0  0  0  0  0  0  0  0  0  0
   46.3822   17.7930    3.8554 O   0  0  0  0  0  0  0  0  0  0  0  0
   44.4841   17.5217    2.7581 O   0  0  0  0  0  0  0  0  0  0  0  0
   43.8864   16.9568    2.3089 H   0  0  0  0  0  0  0  0  0  0  0  0
 10 11  1  0
 11 12  1  0
 11 13  1  0
 11  9  1  0
  9  6  1  0
  6  7  1  0
  6  8  1  0
  6  5  1  0
  5  2  1  0
  2  3  1  0
  2  4  1  0
  2  1  1  0
  1 14  1  0
 14 15  1  0
 15 16  1  0
 16 17  1  0
 17 18  1  0
 17 19  2  0
 19 20  1  0
 20 21  1  0
 21 22  1  0
 22 23  2  0
 22 24  1  0
 21 16  2  0
 24 25  1  0
M  CHG 1   2   1
M  CHG 1   6   1
M  CHG 1  11   1
M  END
> <minimizedAffinity>
-5.41547

> <CNNscore>
0.3454147279

> <CNNaffinity>
4.7693448067

> <CNN_VS>
1.6474019289

> <CNNaffinity_variance>
0.1953659207

$$$$



 25 25  0  0  0  0  0  0  0  0999 V2000
   44.0083   16.1061   -0.7707 C   0  0  0  0  0  0  0  0  0  0  0  0
   43.5257   15.9441   -2.2483 N   0  0  0  0  0  0  0  0  0  0  0  0
   43.8562   17.1969   -3.0897 C   0  0  0  0  0  0  0  0  0  0  0  0
   41.9576   15.8878   -2.2231 C   0  0  0  0  0  0  0  0  0  0  0  0
   43.9592   14.6441   -2.9218 C   0  0  0  0  0  0  0  0  0  0  0  0
   45.1259   14.5475   -3.8819 N   0  0  0  0  0  0  0  0  0  0  0  0
   44.7757   15.1060   -5.2829 C   0  0  0  0  0  0  0  0  0  0  0  0
   46.3686   15.3104   -3.4177 C   0  0  0  0  0  0  0  0  0  0  0  0
   45.4974   13.0661   -4.1807 C   0  0  0  0  0  0  0  0  0  0  0  0
   46.3981   10.8050   -3.8188 C   0  0  0  0  0  0  0  0  0  0  0  0
   45.7101   12.0328   -3.0903 N   0  0  0  0  0  0  0  0  0  0  0  0
   44.4252   11.4401   -2.5008 C   0  0  0  0  0  0  0  0  0  0  0  0
   46.6695   12.3936   -1.9622 C   0  0  0  0  0  0  0  0  0  0  0  0
   44.4322   14.8202   -0.0337 C   0  0  0  0  0  0  0  0  0  0  0  0
   44.0786   14.9584    1.3434 O   0  0  0  0  0  0  0  0  0  0  0  0
   45.1104   14.6244    2.1590 C   0  0  0  0  0  0  0  0  0  0  0  0
   45.6186   13.3063    2.3237 C   0  0  0  0  0  0  0  0  0  0  0  0
   44.9464   11.8112    1.3845 Br  0  0  0  0  0  0  0  0  0  0  0  0
   46.6373   13.2348    3.2383 C   0  0  0  0  0  0  0  0  0  0  0  0
   46.9591   14.7647    3.9271 S   0  0  0  0  0  0  0  0  0  0  0  0
   45.7236   15.5343    3.0036 C   0  0  0  0  0  0  0  0  0  0  0  0
   45.5085   16.9445    3.2210 C   0  0  0  0  0  0  0  0  0  0  0  0
   46.1456   17.7242    3.9109 O   0  0  0  0  0  0  0  0  0  0  0  0
   44.4448   17.4396    2.5299 O   0  0  0  0  0  0  0  0  0  0  0  0
   43.9317   16.8715    1.9896 H   0  0  0  0  0  0  0  0  0  0  0  0
 10 11  1  0
 11 12  1  0
 11 13  1  0
 11  9  1  0
  9  6  1  0
  6  7  1  0
  6  8  1  0
  6  5  1  0
  5  2  1  0
  2  3  1  0
  2  4  1  0
  2  1  1  0
  1 14  1  0
 14 15  1  0
 15 16  1  0
 16 17  1  0
 17 18  1  0
 17 19  2  0
 19 20  1  0
 20 21  1  0
 21 22  1  0
 22 23  2  0
 22 24  1  0
 21 16  2  0
 24 25  1  0
M  CHG 1   2   1
M  CHG 1   6   1
M  CHG 1  11   1
M  END
> <minimizedAffinity>
-5.16792

> <CNNscore>
0.3130534589

> <CNNaffinity>
4.8822135925

> <CNN_VS>
1.5283938646

> <CNNaffinity_variance>
0.1364517361

$$$$



 25 25  0  0  0  0  0  0  0  0999 V2000
   43.8485   16.0129   -0.6724 C   0  0  0  0  0  0  0  0  0  0  0  0
   43.7590   16.0227   -2.2326 N   0  0  0  0  0  0  0  0  0  0  0  0
   44.0312   17.4320   -2.8039 C   0  0  0  0  0  0  0  0  0  0  0  0
   42.2671   15.7225   -2.6159 C   0  0  0  0  0  0  0  0  0  0  0  0
   44.5742   14.9328   -2.9249 C   0  0  0  0  0  0  0  0  0  0  0  0
   43.9547   13.7472   -3.6340 N   0  0  0  0  0  0  0  0  0  0  0  0
   44.9388   13.0833   -4.6281 C   0  0  0  0  0  0  0  0  0  0  0  0
   43.4925   12.6375   -2.6871 C   0  0  0  0  0  0  0  0  0  0  0  0
   42.7754   14.1834   -4.5508 C   0  0  0  0  0  0  0  0  0  0  0  0
   40.5677   13.0980   -4.4972 C   0  0  0  0  0  0  0  0  0  0  0  0
   41.9188   13.1950   -5.3198 N   0  0  0  0  0  0  0  0  0  0  0  0
   42.4466   11.7559   -5.3346 C   0  0  0  0  0  0  0  0  0  0  0  0
   41.4823   13.5925   -6.7249 C   0  0  0  0  0  0  0  0  0  0  0  0
   44.6683   14.8759   -0.0310 C   0  0  0  0  0  0  0  0  0  0  0  0
   44.1118   14.5953    1.2544 O   0  0  0  0  0  0  0  0  0  0  0  0
   45.0780   14.3210    2.1670 C   0  0  0  0  0  0  0  0  0  0  0  0
   45.7972   13.0963    2.2417 C   0  0  0  0  0  0  0  0  0  0  0  0
   45.5359   11.6655    1.0359 Br  0  0  0  0  0  0  0  0  0  0  0  0
   46.6896   13.0611    3.2816 C   0  0  0  0  0  0  0  0  0  0  0  0
   46.6340   14.5045    4.1939 S   0  0  0  0  0  0  0  0  0  0  0  0
   45.4019   15.1854    3.1990 C   0  0  0  0  0  0  0  0  0  0  0  0
   44.9039   16.4924    3.5541 C   0  0  0  0  0  0  0  0  0  0  0  0
   44.7569   17.4788    2.8506 O   0  0  0  0  0  0  0  0  0  0  0  0
   44.5443   16.5938    4.8636 O   0  0  0  0  0  0  0  0  0  0  0  0
   44.6426   15.8575    5.4348 H   0  0  0  0  0  0  0  0  0  0  0  0
 10 11  1  0
 11 12  1  0
 11 13  1  0
 11  9  1  0
  9  6  1  0
  6  7  1  0
  6  8  1  0
  6  5  1  0
  5  2  1  0
  2  3  1  0
  2  4  1  0
  2  1  1  0
  1 14  1  0
 14 15  1  0
 15 16  1  0
 16 17  1  0
 17 18  1  0
 17 19  2  0
 19 20  1  0
 20 21  1  0
 21 22  1  0
 22 23  2  0
 22 24  1  0
 21 16  2  0
 24 25  1  0
M  CHG 1   2   1
M  CHG 1   6   1
M  CHG 1  11   1
M  END
> <minimizedAffinity>
-4.73666

> <CNNscore>
0.3124323487

> <CNNaffinity>
4.6508007050

> <CNN_VS>
1.4530606270

> <CNNaffinity_variance>
0.2387387305

$$$$



 25 25  0  0  0  0  0  0  0  0999 V2000
   52.9104   10.4681    0.6676 C   0  0  0  0  0  0  0  0  0  0  0  0
   54.3378   10.6874    0.0704 N   0  0  0  0  0  0  0  0  0  0  0  0
   54.5423    9.8614   -1.2190 C   0  0  0  0  0  0  0  0  0  0  0  0
   55.3676   10.0873    1.0912 C   0  0  0  0  0  0  0  0  0  0  0  0
   54.7440   12.1506   -0.0901 C   0  0  0  0  0  0  0  0  0  0  0  0
   54.0921   13.0970   -1.0758 N   0  0  0  0  0  0  0  0  0  0  0  0
   53.2725   12.3438   -2.1521 C   0  0  0  0  0  0  0  0  0  0  0  0
   53.1287   14.0929   -0.4264 C   0  0  0  0  0  0  0  0  0  0  0  0
   55.1530   13.8623   -1.9186 C   0  0  0  0  0  0  0  0  0  0  0  0
   57.3111   14.8257   -2.6036 C   0  0  0  0  0  0  0  0  0  0  0  0
   56.6470   13.6964   -1.7120 N   0  0  0  0  0  0  0  0  0  0  0  0
   57.2360   12.3940   -2.2659 C   0  0  0  0  0  0  0  0  0  0  0  0
   57.1915   13.9470   -0.3107 C   0  0  0  0  0  0  0  0  0  0  0  0
   52.8151    9.6012    1.9387 C   0  0  0  0  0  0  0  0  0  0  0  0
   52.4151    8.2854    1.5521 O   0  0  0  0  0  0  0  0  0  0  0  0
   51.2952    7.8913    2.2095 C   0  0  0  0  0  0  0  0  0  0  0  0
   49.9725    8.0138    1.7015 C   0  0  0  0  0  0  0  0  0  0  0  0
   49.5792    8.7170   -0.0074 Br  0  0  0  0  0  0  0  0  0  0  0  0
   49.0172    7.5775    2.5826 C   0  0  0  0  0  0  0  0  0  0  0  0
   49.7211    7.0478    4.0463 S   0  0  0  0  0  0  0  0  0  0  0  0
   51.3182    7.4086    3.5071 C   0  0  0  0  0  0  0  0  0  0  0  0
   52.4032    7.1700    4.4279 C   0  0  0  0  0  0  0  0  0  0  0  0
   53.0348    7.9701    5.0992 O   0  0  0  0  0  0  0  0  0  0  0  0
   52.7277    5.8530    4.5477 O   0  0  0  0  0  0  0  0  0  0  0  0
   52.2650    5.2092    4.0483 H   0  0  0  0  0  0  0  0  0  0  0  0
 10 11  1  0
 11 12  1  0
 11 13  1  0
 11  9  1  0
  9  6  1  0
  6  7  1  0
  6  8  1  0
  6  5  1  0
  5  2  1  0
  2  3  1  0
  2  4  1  0
  2  1  1  0
  1 14  1  0
 14 15  1  0
 15 16  1  0
 16 17  1  0
 17 18  1  0
 17 19  2  0
 19 20  1  0
 20 21  1  0
 21 22  1  0
 22 23  2  0
 22 24  1  0
 21 16  2  0
 24 25  1  0
M  CHG 1   2   1
M  CHG 1   6   1
M  CHG 1  11   1
M  END
> <minimizedAffinity>
-4.25816

> <CNNscore>
0.2986634076

> <CNNaffinity>
4.4077534676

> <CNN_VS>
1.3164346218

> <CNNaffinity_variance>
0.4602069855

$$$$
