


 44 48  0  0  0  0  0  0  0  0999 V2000
   -3.1983   17.5751   13.6819 C   0  0  0  0  0  0  0  0  0  0  0  0
   -3.7746   16.4843   14.2214 C   0  0  0  0  0  0  0  0  0  0  0  0
   -4.1084   21.0081   13.5050 C   0  0  0  0  0  0  0  0  0  0  0  0
   -3.3349   19.8559   13.0840 O   0  0  0  0  0  0  0  0  0  0  0  0
   -3.1755   18.9816   14.2162 C   0  0  0  0  0  0  0  0  0  0  0  0
   -4.2487   19.3921   15.2311 C   0  0  0  0  0  0  0  0  0  0  0  0
   -3.9156   19.0805   16.5811 O   0  0  0  0  0  0  0  0  0  0  0  0
   -4.2914   20.8963   15.0217 C   0  0  0  0  0  0  0  0  0  0  0  0
   -3.1873   21.4999   15.7160 O   0  0  0  0  0  0  0  0  0  0  0  0
   -3.0775   19.5094   16.8146 H   0  0  0  0  0  0  0  0  0  0  0  0
   -2.3581   21.0919   15.4215 H   0  0  0  0  0  0  0  0  0  0  0  0
   -8.8747   22.0031    9.7368 C   0  0  0  0  0  0  0  0  0  0  0  0
   -7.4842   22.1943   10.2480 C   0  0  0  0  0  0  0  0  0  0  0  0
   -6.6830   23.0855    9.5911 N   0  0  0  0  0  0  0  0  0  0  0  0
   -5.4244   23.2609   10.0409 C   0  0  0  0  0  0  0  0  0  0  0  0
   -4.4800   24.3912    9.1706 Cl  0  0  0  0  0  0  0  0  0  0  0  0
   -4.8102   22.6737   11.0865 N   0  0  0  0  0  0  0  0  0  0  0  0
   -5.6359   21.8025   11.6890 C   0  0  0  0  0  0  0  0  0  0  0  0
   -6.9487   21.5109   11.3489 C   0  0  0  0  0  0  0  0  0  0  0  0
   -7.4730   20.5741   12.2069 N   0  0  0  0  0  0  0  0  0  0  0  0
   -6.4927   20.2834   13.0361 C   0  0  0  0  0  0  0  0  0  0  0  0
   -5.3665   21.0192   12.7780 N   0  0  0  0  0  0  0  0  0  0  0  0
   -3.8197   15.0934   13.6535 C   0  0  0  0  0  0  0  0  0  0  0  0
   -2.5367   14.4402   13.7474 N   0  0  0  0  0  0  0  0  0  0  0  0
   -2.3131   13.5345   14.7678 C   0  0  0  0  0  0  0  0  0  0  0  0
   -3.1837   13.1374   15.5281 O   0  0  0  0  0  0  0  0  0  0  0  0
   -1.8286   14.6372   13.0923 H   0  0  0  0  0  0  0  0  0  0  0  0
   -0.9106   13.0725   14.9151 C   0  0  0  0  0  0  0  0  0  0  0  0
   -0.6796   11.8956   15.6473 C   0  0  0  0  0  0  0  0  0  0  0  0
    0.6259   11.4191   15.8752 C   0  0  0  0  0  0  0  0  0  0  0  0
    1.6980   12.1546   15.3421 C   0  0  0  0  0  0  0  0  0  0  0  0
    1.4635   13.3043   14.5952 C   0  0  0  0  0  0  0  0  0  0  0  0
    2.5313   13.9788   14.0745 O   0  0  0  0  0  0  0  0  0  0  0  0
    0.1705   13.7623   14.3644 C   0  0  0  0  0  0  0  0  0  0  0  0
    0.0464   14.8773   13.5734 O   0  0  0  0  0  0  0  0  0  0  0  0
    3.4020   13.6696   14.2304 H   0  0  0  0  0  0  0  0  0  0  0  0
    0.8114   15.2974   13.2324 H   0  0  0  0  0  0  0  0  0  0  0  0
    0.8625   10.1865   16.6498 C   0  0  0  0  0  0  0  0  0  0  0  0
    0.2361    9.9765   17.8931 C   0  0  0  0  0  0  0  0  0  0  0  0
    0.4643    8.8090   18.6264 C   0  0  0  0  0  0  0  0  0  0  0  0
    1.3195    7.8391   18.1229 C   0  0  0  0  0  0  0  0  0  0  0  0
    1.5381    6.7209   18.8263 F   0  0  0  0  0  0  0  0  0  0  0  0
    1.9514    8.0145   16.9001 C   0  0  0  0  0  0  0  0  0  0  0  0
    1.7240    9.1826   16.1679 C   0  0  0  0  0  0  0  0  0  0  0  0
 12 13  1  0
 13 14  2  0
 14 15  1  0
 15 16  1  0
 15 17  2  0
 17 18  1  0
 18 19  2  0
 19 20  1  0
 20 21  2  0
 21 22  1  0
  3 22  1  0
  3  4  1  0
  4  5  1  0
  5  1  1  0
  1  2  2  0
  2 23  1  0
 23 24  1  0
 24 25  1  0
 25 26  2  0
 25 28  1  0
 28 29  2  0
 29 30  1  0
 30 38  1  0
 38 39  2  0
 39 40  1  0
 40 41  2  0
 41 42  1  0
 41 43  1  0
 43 44  2  0
 30 31  2  0
 31 32  1  0
 32 33  1  0
 32 34  2  0
 34 35  1  0
  5  6  1  0
  6  7  1  0
  6  8  1  0
  8  9  1  0
 19 13  1  0
  8  3  1  0
 22 18  1  0
 34 28  1  0
 44 38  1  0
 24 27  1  0
 33 36  1  0
 35 37  1  0
  7 10  1  0
  9 11  1  0
M  END
> <minimizedAffinity>
-10.23571

> <CNNscore>
0.8150396943

> <CNNaffinity>
7.4373488426

> <CNN_VS>
6.0617346764

> <CNNaffinity_variance>
0.0079768151

$$$$



 44 48  0  0  0  0  0  0  0  0999 V2000
   -5.5147   15.7013   17.1860 C   0  0  0  0  0  0  0  0  0  0  0  0
   -4.5999   15.7525   16.1992 C   0  0  0  0  0  0  0  0  0  0  0  0
   -5.6817   19.0910   18.2475 C   0  0  0  0  0  0  0  0  0  0  0  0
   -4.9646   17.8637   17.9602 O   0  0  0  0  0  0  0  0  0  0  0  0
   -5.8502   16.7559   18.2055 C   0  0  0  0  0  0  0  0  0  0  0  0
   -7.2700   17.3341   18.2143 C   0  0  0  0  0  0  0  0  0  0  0  0
   -8.1985   16.5726   18.9815 O   0  0  0  0  0  0  0  0  0  0  0  0
   -7.0308   18.6915   18.8533 C   0  0  0  0  0  0  0  0  0  0  0  0
   -6.9242   18.5295   20.2773 O   0  0  0  0  0  0  0  0  0  0  0  0
   -7.8800   16.4994   19.8948 H   0  0  0  0  0  0  0  0  0  0  0  0
   -6.2320   17.8802   20.4780 H   0  0  0  0  0  0  0  0  0  0  0  0
   -5.0213   21.9228   12.8206 C   0  0  0  0  0  0  0  0  0  0  0  0
   -4.6100   21.0320   13.9469 C   0  0  0  0  0  0  0  0  0  0  0  0
   -3.3939   20.4150   13.8571 N   0  0  0  0  0  0  0  0  0  0  0  0
   -3.0159   19.6043   14.8657 C   0  0  0  0  0  0  0  0  0  0  0  0
   -1.4828   18.8669   14.6853 Cl  0  0  0  0  0  0  0  0  0  0  0  0
   -3.6766   19.3007   15.9999 N   0  0  0  0  0  0  0  0  0  0  0  0
   -4.8661   19.9236   16.0330 C   0  0  0  0  0  0  0  0  0  0  0  0
   -5.3957   20.7823   15.0811 C   0  0  0  0  0  0  0  0  0  0  0  0
   -6.6340   21.2320   15.4721 N   0  0  0  0  0  0  0  0  0  0  0  0
   -6.8640   20.6404   16.6254 C   0  0  0  0  0  0  0  0  0  0  0  0
   -5.8123   19.8562   17.0192 N   0  0  0  0  0  0  0  0  0  0  0  0
   -4.2515   14.6732   15.2127 C   0  0  0  0  0  0  0  0  0  0  0  0
   -2.8842   14.2380   15.3635 N   0  0  0  0  0  0  0  0  0  0  0  0
   -1.9460   14.6217   14.4232 C   0  0  0  0  0  0  0  0  0  0  0  0
   -2.1658   15.4297   13.5330 O   0  0  0  0  0  0  0  0  0  0  0  0
   -2.6224   13.6744   16.1270 H   0  0  0  0  0  0  0  0  0  0  0  0
   -0.6217   13.9619   14.5371 C   0  0  0  0  0  0  0  0  0  0  0  0
   -0.5548   12.7350   15.2189 C   0  0  0  0  0  0  0  0  0  0  0  0
    0.6720   12.0713   15.4136 C   0  0  0  0  0  0  0  0  0  0  0  0
    1.8341   12.6707   14.8993 C   0  0  0  0  0  0  0  0  0  0  0  0
    1.7599   13.8717   14.2017 C   0  0  0  0  0  0  0  0  0  0  0  0
    2.9094   14.4108   13.6974 O   0  0  0  0  0  0  0  0  0  0  0  0
    0.5430   14.5156   14.0032 C   0  0  0  0  0  0  0  0  0  0  0  0
    0.5730   15.6687   13.2591 O   0  0  0  0  0  0  0  0  0  0  0  0
    3.7287   13.9764   13.8316 H   0  0  0  0  0  0  0  0  0  0  0  0
    1.3878   15.9911   12.9272 H   0  0  0  0  0  0  0  0  0  0  0  0
    0.7367   10.7867   16.1355 C   0  0  0  0  0  0  0  0  0  0  0  0
    1.6713    9.7966   15.7771 C   0  0  0  0  0  0  0  0  0  0  0  0
    1.7286    8.5792   16.4608 C   0  0  0  0  0  0  0  0  0  0  0  0
    0.8532    8.3405   17.5108 C   0  0  0  0  0  0  0  0  0  0  0  0
    0.9084    7.1735   18.1652 F   0  0  0  0  0  0  0  0  0  0  0  0
   -0.0787    9.2960   17.8901 C   0  0  0  0  0  0  0  0  0  0  0  0
   -0.1366   10.5126   17.2053 C   0  0  0  0  0  0  0  0  0  0  0  0
 12 13  1  0
 13 14  2  0
 14 15  1  0
 15 16  1  0
 15 17  2  0
 17 18  1  0
 18 19  2  0
 19 20  1  0
 20 21  2  0
 21 22  1  0
  3 22  1  0
  3  4  1  0
  4  5  1  0
  5  1  1  0
  1  2  2  0
  2 23  1  0
 23 24  1  0
 24 25  1  0
 25 26  2  0
 25 28  1  0
 28 29  2  0
 29 30  1  0
 30 38  1  0
 38 39  2  0
 39 40  1  0
 40 41  2  0
 41 42  1  0
 41 43  1  0
 43 44  2  0
 30 31  2  0
 31 32  1  0
 32 33  1  0
 32 34  2  0
 34 35  1  0
  5  6  1  0
  6  7  1  0
  6  8  1  0
  8  9  1  0
 19 13  1  0
  8  3  1  0
 22 18  1  0
 34 28  1  0
 44 38  1  0
 24 27  1  0
 33 36  1  0
 35 37  1  0
  7 10  1  0
  9 11  1  0
M  END
> <minimizedAffinity>
-10.31143

> <CNNscore>
0.3994289041

> <CNNaffinity>
6.7391605377

> <CNN_VS>
2.6918156147

> <CNNaffinity_variance>
0.1875191778

$$$$



 44 48  0  0  0  0  0  0  0  0999 V2000
   -3.4668   17.2020   13.6514 C   0  0  0  0  0  0  0  0  0  0  0  0
   -3.6845   16.1125   14.4122 C   0  0  0  0  0  0  0  0  0  0  0  0
   -4.5097   20.0107   15.5666 C   0  0  0  0  0  0  0  0  0  0  0  0
   -4.6403   19.0868   14.4565 O   0  0  0  0  0  0  0  0  0  0  0  0
   -3.3242   18.6346   14.0889 C   0  0  0  0  0  0  0  0  0  0  0  0
   -2.4140   18.9438   15.2831 C   0  0  0  0  0  0  0  0  0  0  0  0
   -1.0432   19.1168   14.9344 O   0  0  0  0  0  0  0  0  0  0  0  0
   -3.0115   20.2502   15.7778 C   0  0  0  0  0  0  0  0  0  0  0  0
   -2.5436   21.3262   14.9479 O   0  0  0  0  0  0  0  0  0  0  0  0
   -0.9632   19.8297   14.2815 H   0  0  0  0  0  0  0  0  0  0  0  0
   -2.7510   21.1328   14.0202 H   0  0  0  0  0  0  0  0  0  0  0  0
   -8.1643   18.5330   20.2961 C   0  0  0  0  0  0  0  0  0  0  0  0
   -7.7634   19.2954   19.0756 C   0  0  0  0  0  0  0  0  0  0  0  0
   -8.6090   20.2725   18.6310 N   0  0  0  0  0  0  0  0  0  0  0  0
   -8.2592   20.9623   17.5268 C   0  0  0  0  0  0  0  0  0  0  0  0
   -9.3648   22.1692   17.0290 Cl  0  0  0  0  0  0  0  0  0  0  0  0
   -7.1548   20.8368   16.7655 N   0  0  0  0  0  0  0  0  0  0  0  0
   -6.3650   19.8591   17.2392 C   0  0  0  0  0  0  0  0  0  0  0  0
   -6.5832   19.0642   18.3548 C   0  0  0  0  0  0  0  0  0  0  0  0
   -5.5450   18.1808   18.5287 N   0  0  0  0  0  0  0  0  0  0  0  0
   -4.7245   18.4160   17.5265 C   0  0  0  0  0  0  0  0  0  0  0  0
   -5.1657   19.4401   16.7310 N   0  0  0  0  0  0  0  0  0  0  0  0
   -3.8624   14.6923   13.9534 C   0  0  0  0  0  0  0  0  0  0  0  0
   -2.6207   13.9593   14.0028 N   0  0  0  0  0  0  0  0  0  0  0  0
   -2.2238   13.3831   15.1953 C   0  0  0  0  0  0  0  0  0  0  0  0
   -2.9271   13.3319   16.1936 O   0  0  0  0  0  0  0  0  0  0  0  0
   -2.0624   13.8706   13.1968 H   0  0  0  0  0  0  0  0  0  0  0  0
   -0.8453   12.8340   15.2111 C   0  0  0  0  0  0  0  0  0  0  0  0
   -0.6208   11.6411   15.9191 C   0  0  0  0  0  0  0  0  0  0  0  0
    0.6680   11.0832   16.0242 C   0  0  0  0  0  0  0  0  0  0  0  0
    1.7294   11.7535   15.3930 C   0  0  0  0  0  0  0  0  0  0  0  0
    1.4984   12.9195   14.6707 C   0  0  0  0  0  0  0  0  0  0  0  0
    2.5530   13.5291   14.0522 O   0  0  0  0  0  0  0  0  0  0  0  0
    0.2207   13.4582   14.5615 C   0  0  0  0  0  0  0  0  0  0  0  0
    0.0931   14.5830   13.7850 O   0  0  0  0  0  0  0  0  0  0  0  0
    3.4135   13.1656   14.1262 H   0  0  0  0  0  0  0  0  0  0  0  0
    0.8477   14.9566   13.3739 H   0  0  0  0  0  0  0  0  0  0  0  0
    0.8985    9.8341   16.7739 C   0  0  0  0  0  0  0  0  0  0  0  0
    0.2953    9.6154   18.0272 C   0  0  0  0  0  0  0  0  0  0  0  0
    0.5177    8.4323   18.7368 C   0  0  0  0  0  0  0  0  0  0  0  0
    1.3438    7.4553   18.1994 C   0  0  0  0  0  0  0  0  0  0  0  0
    1.5568    6.3220   18.8801 F   0  0  0  0  0  0  0  0  0  0  0  0
    1.9522    7.6390   16.9659 C   0  0  0  0  0  0  0  0  0  0  0  0
    1.7307    8.8227   16.2574 C   0  0  0  0  0  0  0  0  0  0  0  0
 12 13  1  0
 13 14  2  0
 14 15  1  0
 15 16  1  0
 15 17  2  0
 17 18  1  0
 18 19  2  0
 19 20  1  0
 20 21  2  0
 21 22  1  0
  3 22  1  0
  3  4  1  0
  4  5  1  0
  5  1  1  0
  1  2  2  0
  2 23  1  0
 23 24  1  0
 24 25  1  0
 25 26  2  0
 25 28  1  0
 28 29  2  0
 29 30  1  0
 30 38  1  0
 38 39  2  0
 39 40  1  0
 40 41  2  0
 41 42  1  0
 41 43  1  0
 43 44  2  0
 30 31  2  0
 31 32  1  0
 32 33  1  0
 32 34  2  0
 34 35  1  0
  5  6  1  0
  6  7  1  0
  6  8  1  0
  8  9  1  0
 19 13  1  0
  8  3  1  0
 22 18  1  0
 34 28  1  0
 44 38  1  0
 24 27  1  0
 33 36  1  0
 35 37  1  0
  7 10  1  0
  9 11  1  0
M  END
> <minimizedAffinity>
-10.06254

> <CNNscore>
0.3810327053

> <CNNaffinity>
6.5050988197

> <CNN_VS>
2.4786553383

> <CNNaffinity_variance>
0.2388386875

$$$$



 44 48  0  0  0  0  0  0  0  0999 V2000
   -4.5120   15.0449   17.4421 C   0  0  0  0  0  0  0  0  0  0  0  0
   -5.0444   14.7240   16.2477 C   0  0  0  0  0  0  0  0  0  0  0  0
   -6.1466   17.1856   19.7637 C   0  0  0  0  0  0  0  0  0  0  0  0
   -4.9672   16.6619   19.1022 O   0  0  0  0  0  0  0  0  0  0  0  0
   -5.2212   15.2907   18.7463 C   0  0  0  0  0  0  0  0  0  0  0  0
   -6.7427   15.1089   18.7929 C   0  0  0  0  0  0  0  0  0  0  0  0
   -7.1564   13.7685   19.0434 O   0  0  0  0  0  0  0  0  0  0  0  0
   -7.1111   16.0115   19.9582 C   0  0  0  0  0  0  0  0  0  0  0  0
   -6.8384   15.3244   21.1907 O   0  0  0  0  0  0  0  0  0  0  0  0
   -6.7746   13.4635   19.8813 H   0  0  0  0  0  0  0  0  0  0  0  0
   -5.9122   15.0364   21.2023 H   0  0  0  0  0  0  0  0  0  0  0  0
   -9.3807   21.8005   17.2836 C   0  0  0  0  0  0  0  0  0  0  0  0
   -9.0210   20.8084   18.3409 C   0  0  0  0  0  0  0  0  0  0  0  0
   -9.7604   20.8091   19.4902 N   0  0  0  0  0  0  0  0  0  0  0  0
   -9.4400   19.9215   20.4530 C   0  0  0  0  0  0  0  0  0  0  0  0
  -10.4079   19.9797   21.8625 Cl  0  0  0  0  0  0  0  0  0  0  0  0
   -8.4668   18.9898   20.4548 N   0  0  0  0  0  0  0  0  0  0  0  0
   -7.7662   19.0386   19.3100 C   0  0  0  0  0  0  0  0  0  0  0  0
   -7.9694   19.8875   18.2320 C   0  0  0  0  0  0  0  0  0  0  0  0
   -7.0578   19.6302   17.2363 N   0  0  0  0  0  0  0  0  0  0  0  0
   -6.3003   18.6625   17.7082 C   0  0  0  0  0  0  0  0  0  0  0  0
   -6.7046   18.2534   18.9513 N   0  0  0  0  0  0  0  0  0  0  0  0
   -4.3225   14.5194   14.9453 C   0  0  0  0  0  0  0  0  0  0  0  0
   -2.9577   14.1016   15.1552 N   0  0  0  0  0  0  0  0  0  0  0  0
   -1.9627   14.6114   14.3417 C   0  0  0  0  0  0  0  0  0  0  0  0
   -2.1393   15.5103   13.5326 O   0  0  0  0  0  0  0  0  0  0  0  0
   -2.7373   13.4609   15.8695 H   0  0  0  0  0  0  0  0  0  0  0  0
   -0.6307   13.9738   14.4866 C   0  0  0  0  0  0  0  0  0  0  0  0
   -0.5580   12.7524   15.1777 C   0  0  0  0  0  0  0  0  0  0  0  0
    0.6749   12.1097   15.4016 C   0  0  0  0  0  0  0  0  0  0  0  0
    1.8376   12.7244   14.9069 C   0  0  0  0  0  0  0  0  0  0  0  0
    1.7584   13.9197   14.2000 C   0  0  0  0  0  0  0  0  0  0  0  0
    2.9091   14.4740   13.7154 O   0  0  0  0  0  0  0  0  0  0  0  0
    0.5357   14.5427   13.9727 C   0  0  0  0  0  0  0  0  0  0  0  0
    0.5623   15.6914   13.2217 O   0  0  0  0  0  0  0  0  0  0  0  0
    3.7324   14.0537   13.8690 H   0  0  0  0  0  0  0  0  0  0  0  0
    1.3785   16.0248   12.9043 H   0  0  0  0  0  0  0  0  0  0  0  0
    0.7455   10.8309   16.1331 C   0  0  0  0  0  0  0  0  0  0  0  0
    1.7532    9.8878   15.8549 C   0  0  0  0  0  0  0  0  0  0  0  0
    1.8161    8.6756   16.5475 C   0  0  0  0  0  0  0  0  0  0  0  0
    0.8731    8.3953   17.5262 C   0  0  0  0  0  0  0  0  0  0  0  0
    0.9336    7.2334   18.1890 F   0  0  0  0  0  0  0  0  0  0  0  0
   -0.1319    9.3040   17.8255 C   0  0  0  0  0  0  0  0  0  0  0  0
   -0.1952   10.5153   17.1319 C   0  0  0  0  0  0  0  0  0  0  0  0
 12 13  1  0
 13 14  2  0
 14 15  1  0
 15 16  1  0
 15 17  2  0
 17 18  1  0
 18 19  2  0
 19 20  1  0
 20 21  2  0
 21 22  1  0
  3 22  1  0
  3  4  1  0
  4  5  1  0
  5  1  1  0
  1  2  2  0
  2 23  1  0
 23 24  1  0
 24 25  1  0
 25 26  2  0
 25 28  1  0
 28 29  2  0
 29 30  1  0
 30 38  1  0
 38 39  2  0
 39 40  1  0
 40 41  2  0
 41 42  1  0
 41 43  1  0
 43 44  2  0
 30 31  2  0
 31 32  1  0
 32 33  1  0
 32 34  2  0
 34 35  1  0
  5  6  1  0
  6  7  1  0
  6  8  1  0
  8  9  1  0
 19 13  1  0
  8  3  1  0
 22 18  1  0
 34 28  1  0
 44 38  1  0
 24 27  1  0
 33 36  1  0
 35 37  1  0
  7 10  1  0
  9 11  1  0
M  END
> <minimizedAffinity>
-8.78042

> <CNNscore>
0.3114234805

> <CNNaffinity>
6.3988833427

> <CNN_VS>
1.9927625656

> <CNNaffinity_variance>
0.0895468220

$$$$



 44 48  0  0  0  0  0  0  0  0999 V2000
   -3.0084   16.1462   14.1682 C   0  0  0  0  0  0  0  0  0  0  0  0
   -3.7330   15.2028   13.5372 C   0  0  0  0  0  0  0  0  0  0  0  0
   -3.8950   19.5895   14.1213 C   0  0  0  0  0  0  0  0  0  0  0  0
   -4.0536   18.2114   13.6987 O   0  0  0  0  0  0  0  0  0  0  0  0
   -2.7653   17.5719   13.7529 C   0  0  0  0  0  0  0  0  0  0  0  0
   -1.8860   18.4513   14.6494 C   0  0  0  0  0  0  0  0  0  0  0  0
   -0.4914   18.3386   14.3789 O   0  0  0  0  0  0  0  0  0  0  0  0
   -2.3927   19.8376   14.2894 C   0  0  0  0  0  0  0  0  0  0  0  0
   -1.7997   20.2477   13.0462 O   0  0  0  0  0  0  0  0  0  0  0  0
   -0.3229   18.5634   13.4505 H   0  0  0  0  0  0  0  0  0  0  0  0
   -1.9815   19.5807   12.3657 H   0  0  0  0  0  0  0  0  0  0  0  0
   -7.0233   19.1577   19.4065 C   0  0  0  0  0  0  0  0  0  0  0  0
   -6.2297   18.6404   18.2516 C   0  0  0  0  0  0  0  0  0  0  0  0
   -5.9663   17.3000   18.2116 N   0  0  0  0  0  0  0  0  0  0  0  0
   -5.2457   16.8240   17.1765 C   0  0  0  0  0  0  0  0  0  0  0  0
   -4.9553   15.1381   17.1922 Cl  0  0  0  0  0  0  0  0  0  0  0  0
   -4.7289   17.4926   16.1271 N   0  0  0  0  0  0  0  0  0  0  0  0
   -5.0074   18.8032   16.2205 C   0  0  0  0  0  0  0  0  0  0  0  0
   -5.7311   19.4431   17.2158 C   0  0  0  0  0  0  0  0  0  0  0  0
   -5.8150   20.7910   16.9610 N   0  0  0  0  0  0  0  0  0  0  0  0
   -5.1360   20.9713   15.8477 C   0  0  0  0  0  0  0  0  0  0  0  0
   -4.6474   19.7935   15.3476 N   0  0  0  0  0  0  0  0  0  0  0  0
   -3.9336   13.7710   13.9480 C   0  0  0  0  0  0  0  0  0  0  0  0
   -2.6761   13.0772   14.0848 N   0  0  0  0  0  0  0  0  0  0  0  0
   -2.1808   12.8202   15.3498 C   0  0  0  0  0  0  0  0  0  0  0  0
   -2.8080   13.0198   16.3796 O   0  0  0  0  0  0  0  0  0  0  0  0
   -2.1763   12.7901   13.2866 H   0  0  0  0  0  0  0  0  0  0  0  0
   -0.7933   12.2963   15.3977 C   0  0  0  0  0  0  0  0  0  0  0  0
   -0.5504   11.1479   16.1703 C   0  0  0  0  0  0  0  0  0  0  0  0
    0.7474   10.6186   16.3077 C   0  0  0  0  0  0  0  0  0  0  0  0
    1.7989   11.2712   15.6421 C   0  0  0  0  0  0  0  0  0  0  0  0
    1.5499   12.3918   14.8566 C   0  0  0  0  0  0  0  0  0  0  0  0
    2.5956   12.9844   14.2071 O   0  0  0  0  0  0  0  0  0  0  0  0
    0.2636   12.9020   14.7163 C   0  0  0  0  0  0  0  0  0  0  0  0
    0.1188   13.9802   13.8791 O   0  0  0  0  0  0  0  0  0  0  0  0
    3.4618   12.6401   14.3022 H   0  0  0  0  0  0  0  0  0  0  0  0
    0.8680   14.3434   13.4492 H   0  0  0  0  0  0  0  0  0  0  0  0
    0.9972    9.4166   17.1251 C   0  0  0  0  0  0  0  0  0  0  0  0
    0.5792    9.3496   18.4678 C   0  0  0  0  0  0  0  0  0  0  0  0
    0.8196    8.2106   19.2410 C   0  0  0  0  0  0  0  0  0  0  0  0
    1.4787    7.1266   18.6785 C   0  0  0  0  0  0  0  0  0  0  0  0
    1.7093    6.0357   19.4201 F   0  0  0  0  0  0  0  0  0  0  0  0
    1.9023    7.1599   17.3576 C   0  0  0  0  0  0  0  0  0  0  0  0
    1.6629    8.2995   16.5854 C   0  0  0  0  0  0  0  0  0  0  0  0
 12 13  1  0
 13 14  2  0
 14 15  1  0
 15 16  1  0
 15 17  2  0
 17 18  1  0
 18 19  2  0
 19 20  1  0
 20 21  2  0
 21 22  1  0
  3 22  1  0
  3  4  1  0
  4  5  1  0
  5  1  1  0
  1  2  2  0
  2 23  1  0
 23 24  1  0
 24 25  1  0
 25 26  2  0
 25 28  1  0
 28 29  2  0
 29 30  1  0
 30 38  1  0
 38 39  2  0
 39 40  1  0
 40 41  2  0
 41 42  1  0
 41 43  1  0
 43 44  2  0
 30 31  2  0
 31 32  1  0
 32 33  1  0
 32 34  2  0
 34 35  1  0
  5  6  1  0
  6  7  1  0
  6  8  1  0
  8  9  1  0
 19 13  1  0
  8  3  1  0
 22 18  1  0
 34 28  1  0
 44 38  1  0
 24 27  1  0
 33 36  1  0
 35 37  1  0
  7 10  1  0
  9 11  1  0
M  END
> <minimizedAffinity>
-10.11782

> <CNNscore>
0.3107912242

> <CNNaffinity>
6.4388785362

> <CNN_VS>
2.0011470318

> <CNNaffinity_variance>
0.1483980268

$$$$



 44 48  0  0  0  0  0  0  0  0999 V2000
   -5.7354   14.0787   15.9228 C   0  0  0  0  0  0  0  0  0  0  0  0
   -4.6599   14.2067   15.1229 C   0  0  0  0  0  0  0  0  0  0  0  0
   -5.7498   14.6418   19.4339 C   0  0  0  0  0  0  0  0  0  0  0  0
   -6.2128   13.9728   18.2334 O   0  0  0  0  0  0  0  0  0  0  0  0
   -6.1031   14.8940   17.1330 C   0  0  0  0  0  0  0  0  0  0  0  0
   -5.1392   15.9956   17.5886 C   0  0  0  0  0  0  0  0  0  0  0  0
   -5.3353   17.2433   16.9287 O   0  0  0  0  0  0  0  0  0  0  0  0
   -5.4937   16.1056   19.0619 C   0  0  0  0  0  0  0  0  0  0  0  0
   -6.6925   16.8860   19.2009 O   0  0  0  0  0  0  0  0  0  0  0  0
   -6.2475   17.5425   17.0673 H   0  0  0  0  0  0  0  0  0  0  0  0
   -7.3974   16.4945   18.6617 H   0  0  0  0  0  0  0  0  0  0  0  0
   -0.6558   12.7551   22.3318 C   0  0  0  0  0  0  0  0  0  0  0  0
   -1.8314   13.6447   22.0916 C   0  0  0  0  0  0  0  0  0  0  0  0
   -2.0055   14.7079   22.9323 N   0  0  0  0  0  0  0  0  0  0  0  0
   -3.0669   15.5135   22.7276 C   0  0  0  0  0  0  0  0  0  0  0  0
   -3.2209   16.8232   23.8175 Cl  0  0  0  0  0  0  0  0  0  0  0  0
   -4.0192   15.4331   21.7780 N   0  0  0  0  0  0  0  0  0  0  0  0
   -3.8070   14.3684   20.9873 C   0  0  0  0  0  0  0  0  0  0  0  0
   -2.7696   13.4511   21.0677 C   0  0  0  0  0  0  0  0  0  0  0  0
   -2.8831   12.5057   20.0768 N   0  0  0  0  0  0  0  0  0  0  0  0
   -3.9797   12.8262   19.4227 C   0  0  0  0  0  0  0  0  0  0  0  0
   -4.5622   13.9611   19.9215 N   0  0  0  0  0  0  0  0  0  0  0  0
   -4.2890   13.3576   13.9394 C   0  0  0  0  0  0  0  0  0  0  0  0
   -2.9745   12.7824   14.0903 N   0  0  0  0  0  0  0  0  0  0  0  0
   -2.3101   12.9232   15.2946 C   0  0  0  0  0  0  0  0  0  0  0  0
   -2.8202   13.3892   16.3028 O   0  0  0  0  0  0  0  0  0  0  0  0
   -2.5555   12.2952   13.3444 H   0  0  0  0  0  0  0  0  0  0  0  0
   -0.8909   12.4895   15.2950 C   0  0  0  0  0  0  0  0  0  0  0  0
   -0.5601   11.3231   16.0053 C   0  0  0  0  0  0  0  0  0  0  0  0
    0.7715   10.8738   16.0962 C   0  0  0  0  0  0  0  0  0  0  0  0
    1.7661   11.6257   15.4482 C   0  0  0  0  0  0  0  0  0  0  0  0
    1.4308   12.7647   14.7238 C   0  0  0  0  0  0  0  0  0  0  0  0
    2.4238   13.4556   14.0890 O   0  0  0  0  0  0  0  0  0  0  0  0
    0.1118   13.1958   14.6288 C   0  0  0  0  0  0  0  0  0  0  0  0
   -0.1177   14.3020   13.8491 O   0  0  0  0  0  0  0  0  0  0  0  0
    3.3121   13.1645   14.1535 H   0  0  0  0  0  0  0  0  0  0  0  0
    0.5983   14.7341   13.4265 H   0  0  0  0  0  0  0  0  0  0  0  0
    1.1135    9.6520   16.8484 C   0  0  0  0  0  0  0  0  0  0  0  0
    1.7832    8.5795   16.2293 C   0  0  0  0  0  0  0  0  0  0  0  0
    2.1034    7.4218   16.9435 C   0  0  0  0  0  0  0  0  0  0  0  0
    1.7588    7.3260   18.2844 C   0  0  0  0  0  0  0  0  0  0  0  0
    2.0654    6.2161   18.9680 F   0  0  0  0  0  0  0  0  0  0  0  0
    1.0997    8.3656   18.9246 C   0  0  0  0  0  0  0  0  0  0  0  0
    0.7785    9.5224   18.2098 C   0  0  0  0  0  0  0  0  0  0  0  0
 12 13  1  0
 13 14  2  0
 14 15  1  0
 15 16  1  0
 15 17  2  0
 17 18  1  0
 18 19  2  0
 19 20  1  0
 20 21  2  0
 21 22  1  0
  3 22  1  0
  3  4  1  0
  4  5  1  0
  5  1  1  0
  1  2  2  0
  2 23  1  0
 23 24  1  0
 24 25  1  0
 25 26  2  0
 25 28  1  0
 28 29  2  0
 29 30  1  0
 30 38  1  0
 38 39  2  0
 39 40  1  0
 40 41  2  0
 41 42  1  0
 41 43  1  0
 43 44  2  0
 30 31  2  0
 31 32  1  0
 32 33  1  0
 32 34  2  0
 34 35  1  0
  5  6  1  0
  6  7  1  0
  6  8  1  0
  8  9  1  0
 19 13  1  0
  8  3  1  0
 22 18  1  0
 34 28  1  0
 44 38  1  0
 24 27  1  0
 33 36  1  0
 35 37  1  0
  7 10  1  0
  9 11  1  0
M  END
> <minimizedAffinity>
-7.67770

> <CNNscore>
0.2380476445

> <CNNaffinity>
6.3273844719

> <CNN_VS>
1.5062189102

> <CNNaffinity_variance>
0.0194723252

$$$$



 44 48  0  0  0  0  0  0  0  0999 V2000
   -7.0809   11.7832   14.6069 C   0  0  0  0  0  0  0  0  0  0  0  0
   -6.2028   12.7642   14.8891 C   0  0  0  0  0  0  0  0  0  0  0  0
   -9.9332   12.0739   12.5036 C   0  0  0  0  0  0  0  0  0  0  0  0
   -9.2125   11.5086   13.6279 O   0  0  0  0  0  0  0  0  0  0  0  0
   -7.8076   11.5218   13.3155 C   0  0  0  0  0  0  0  0  0  0  0  0
   -7.6317   12.5210   12.1663 C   0  0  0  0  0  0  0  0  0  0  0  0
   -6.4911   12.2676   11.3506 O   0  0  0  0  0  0  0  0  0  0  0  0
   -8.9135   12.2960   11.3823 C   0  0  0  0  0  0  0  0  0  0  0  0
   -8.7722   11.1134   10.5779 O   0  0  0  0  0  0  0  0  0  0  0  0
   -6.5476   11.3708   10.9854 H   0  0  0  0  0  0  0  0  0  0  0  0
   -8.5286   10.3644   11.1442 H   0  0  0  0  0  0  0  0  0  0  0  0
  -13.4077   17.1018   13.2488 C   0  0  0  0  0  0  0  0  0  0  0  0
  -12.9781   15.8333   12.5873 C   0  0  0  0  0  0  0  0  0  0  0  0
  -13.6754   15.4240   11.4855 N   0  0  0  0  0  0  0  0  0  0  0  0
  -13.2993   14.2773   10.8846 C   0  0  0  0  0  0  0  0  0  0  0  0
  -14.2165   13.8276    9.5122 Cl  0  0  0  0  0  0  0  0  0  0  0  0
  -12.2956   13.4404   11.2120 N   0  0  0  0  0  0  0  0  0  0  0  0
  -11.6510   13.8828   12.3042 C   0  0  0  0  0  0  0  0  0  0  0  0
  -11.9150   15.0342   13.0311 C   0  0  0  0  0  0  0  0  0  0  0  0
  -11.0336   15.1567   14.0784 N   0  0  0  0  0  0  0  0  0  0  0  0
  -10.2655   14.0900   14.0052 C   0  0  0  0  0  0  0  0  0  0  0  0
  -10.5848   13.2998   12.9330 N   0  0  0  0  0  0  0  0  0  0  0  0
   -5.5148   13.0327   16.1983 C   0  0  0  0  0  0  0  0  0  0  0  0
   -4.0891   12.8352   16.0986 N   0  0  0  0  0  0  0  0  0  0  0  0
   -3.3122   13.8117   15.5033 C   0  0  0  0  0  0  0  0  0  0  0  0
   -3.7348   14.9099   15.1728 O   0  0  0  0  0  0  0  0  0  0  0  0
   -3.6742   12.0146   16.4504 H   0  0  0  0  0  0  0  0  0  0  0  0
   -1.8980   13.4381   15.2537 C   0  0  0  0  0  0  0  0  0  0  0  0
   -1.3984   12.2907   15.8930 C   0  0  0  0  0  0  0  0  0  0  0  0
   -0.0537   11.8983   15.7478 C   0  0  0  0  0  0  0  0  0  0  0  0
    0.7789   12.6875   14.9365 C   0  0  0  0  0  0  0  0  0  0  0  0
    0.2737   13.8072   14.2841 C   0  0  0  0  0  0  0  0  0  0  0  0
    1.1096   14.5356   13.4859 O   0  0  0  0  0  0  0  0  0  0  0  0
   -1.0586   14.1820   14.4230 C   0  0  0  0  0  0  0  0  0  0  0  0
   -1.4681   15.2730   13.6975 O   0  0  0  0  0  0  0  0  0  0  0  0
    2.0070   14.2824   13.3929 H   0  0  0  0  0  0  0  0  0  0  0  0
   -0.8564   15.7323   13.1565 H   0  0  0  0  0  0  0  0  0  0  0  0
    0.4664   10.6964   16.4262 C   0  0  0  0  0  0  0  0  0  0  0  0
    0.0163   10.3327   17.7098 C   0  0  0  0  0  0  0  0  0  0  0  0
    0.5129    9.1951   18.3516 C   0  0  0  0  0  0  0  0  0  0  0  0
    1.4631    8.4087   17.7155 C   0  0  0  0  0  0  0  0  0  0  0  0
    1.9390    7.3190   18.3313 F   0  0  0  0  0  0  0  0  0  0  0  0
    1.9265    8.7385   16.4499 C   0  0  0  0  0  0  0  0  0  0  0  0
    1.4307    9.8768   15.8091 C   0  0  0  0  0  0  0  0  0  0  0  0
 12 13  1  0
 13 14  2  0
 14 15  1  0
 15 16  1  0
 15 17  2  0
 17 18  1  0
 18 19  2  0
 19 20  1  0
 20 21  2  0
 21 22  1  0
  3 22  1  0
  3  4  1  0
  4  5  1  0
  5  1  1  0
  1  2  2  0
  2 23  1  0
 23 24  1  0
 24 25  1  0
 25 26  2  0
 25 28  1  0
 28 29  2  0
 29 30  1  0
 30 38  1  0
 38 39  2  0
 39 40  1  0
 40 41  2  0
 41 42  1  0
 41 43  1  0
 43 44  2  0
 30 31  2  0
 31 32  1  0
 32 33  1  0
 32 34  2  0
 34 35  1  0
  5  6  1  0
  6  7  1  0
  6  8  1  0
  8  9  1  0
 19 13  1  0
  8  3  1  0
 22 18  1  0
 34 28  1  0
 44 38  1  0
 24 27  1  0
 33 36  1  0
 35 37  1  0
  7 10  1  0
  9 11  1  0
M  END
> <minimizedAffinity>
-7.96896

> <CNNscore>
0.2087335438

> <CNNaffinity>
5.3044753075

> <CNN_VS>
1.1072219610

> <CNNaffinity_variance>
0.2506509125

$$$$



 44 48  0  0  0  0  0  0  0  0999 V2000
   -2.3130   18.7248   13.8779 C   0  0  0  0  0  0  0  0  0  0  0  0
   -1.8241   17.5807   14.3927 C   0  0  0  0  0  0  0  0  0  0  0  0
   -4.7139   21.3478   13.8590 C   0  0  0  0  0  0  0  0  0  0  0  0
   -3.4001   20.8004   13.5810 O   0  0  0  0  0  0  0  0  0  0  0  0
   -3.1116   19.7957   14.5705 C   0  0  0  0  0  0  0  0  0  0  0  0
   -4.4566   19.4102   15.1970 C   0  0  0  0  0  0  0  0  0  0  0  0
   -4.3506   18.9023   16.5242 O   0  0  0  0  0  0  0  0  0  0  0  0
   -5.1784   20.7470   15.1894 C   0  0  0  0  0  0  0  0  0  0  0  0
   -4.7165   21.5380   16.2968 O   0  0  0  0  0  0  0  0  0  0  0  0
   -3.9147   19.5602   17.0883 H   0  0  0  0  0  0  0  0  0  0  0  0
   -3.7508   21.6197   16.2553 H   0  0  0  0  0  0  0  0  0  0  0  0
   -8.4401   21.2877    8.9581 C   0  0  0  0  0  0  0  0  0  0  0  0
   -7.5301   21.9116    9.9651 C   0  0  0  0  0  0  0  0  0  0  0  0
   -7.2937   23.2536    9.8621 N   0  0  0  0  0  0  0  0  0  0  0  0
   -6.4692   23.8252   10.7626 C   0  0  0  0  0  0  0  0  0  0  0  0
   -6.2201   25.5070   10.5724 Cl  0  0  0  0  0  0  0  0  0  0  0  0
   -5.8201   23.2552   11.7964 N   0  0  0  0  0  0  0  0  0  0  0  0
   -6.0783   21.9381   11.8460 C   0  0  0  0  0  0  0  0  0  0  0  0
   -6.8977   21.2065   10.9989 C   0  0  0  0  0  0  0  0  0  0  0  0
   -6.9217   19.8844   11.3733 N   0  0  0  0  0  0  0  0  0  0  0  0
   -6.1148   19.8083   12.4108 C   0  0  0  0  0  0  0  0  0  0  0  0
   -5.5981   21.0305   12.7504 N   0  0  0  0  0  0  0  0  0  0  0  0
   -1.0603   16.5032   13.6753 C   0  0  0  0  0  0  0  0  0  0  0  0
   -1.3781   15.1941   14.1918 N   0  0  0  0  0  0  0  0  0  0  0  0
   -2.6427   14.6752   13.9845 C   0  0  0  0  0  0  0  0  0  0  0  0
   -3.4823   15.1958   13.2649 O   0  0  0  0  0  0  0  0  0  0  0  0
   -0.7022   14.6762   14.6861 H   0  0  0  0  0  0  0  0  0  0  0  0
   -2.9491   13.4259   14.7244 C   0  0  0  0  0  0  0  0  0  0  0  0
   -1.8807   12.7382   15.3246 C   0  0  0  0  0  0  0  0  0  0  0  0
   -2.0817   11.5194   16.0009 C   0  0  0  0  0  0  0  0  0  0  0  0
   -3.3893   11.0092   16.0643 C   0  0  0  0  0  0  0  0  0  0  0  0
   -4.4481   11.7065   15.4921 C   0  0  0  0  0  0  0  0  0  0  0  0
   -5.7080   11.1886   15.5950 O   0  0  0  0  0  0  0  0  0  0  0  0
   -4.2435   12.9157   14.8358 C   0  0  0  0  0  0  0  0  0  0  0  0
   -5.3614   13.5473   14.3503 O   0  0  0  0  0  0  0  0  0  0  0  0
   -5.8450   10.3740   16.0373 H   0  0  0  0  0  0  0  0  0  0  0  0
   -6.2050   13.1537   14.4560 H   0  0  0  0  0  0  0  0  0  0  0  0
   -0.9553   10.7991   16.6236 C   0  0  0  0  0  0  0  0  0  0  0  0
   -1.0538   10.2839   17.9301 C   0  0  0  0  0  0  0  0  0  0  0  0
    0.0160    9.6044   18.5189 C   0  0  0  0  0  0  0  0  0  0  0  0
    1.1942    9.4317   17.8063 C   0  0  0  0  0  0  0  0  0  0  0  0
    2.2191    8.7809   18.3713 F   0  0  0  0  0  0  0  0  0  0  0  0
    1.3232    9.9258   16.5162 C   0  0  0  0  0  0  0  0  0  0  0  0
    0.2538   10.6064   15.9284 C   0  0  0  0  0  0  0  0  0  0  0  0
 12 13  1  0
 13 14  2  0
 14 15  1  0
 15 16  1  0
 15 17  2  0
 17 18  1  0
 18 19  2  0
 19 20  1  0
 20 21  2  0
 21 22  1  0
  3 22  1  0
  3  4  1  0
  4  5  1  0
  5  1  1  0
  1  2  2  0
  2 23  1  0
 23 24  1  0
 24 25  1  0
 25 26  2  0
 25 28  1  0
 28 29  2  0
 29 30  1  0
 30 38  1  0
 38 39  2  0
 39 40  1  0
 40 41  2  0
 41 42  1  0
 41 43  1  0
 43 44  2  0
 30 31  2  0
 31 32  1  0
 32 33  1  0
 32 34  2  0
 34 35  1  0
  5  6  1  0
  6  7  1  0
  6  8  1  0
  8  9  1  0
 19 13  1  0
  8  3  1  0
 22 18  1  0
 34 28  1  0
 44 38  1  0
 24 27  1  0
 33 36  1  0
 35 37  1  0
  7 10  1  0
  9 11  1  0
M  END
> <minimizedAffinity>
-8.79476

> <CNNscore>
0.1928356588

> <CNNaffinity>
6.5621886253

> <CNN_VS>
1.2654240131

> <CNNaffinity_variance>
0.0654873028

$$$$



 44 48  0  0  0  0  0  0  0  0999 V2000
   -4.8386   11.5610   13.0130 C   0  0  0  0  0  0  0  0  0  0  0  0
   -5.1348   12.8739   12.9705 C   0  0  0  0  0  0  0  0  0  0  0  0
   -8.0444   10.0711   12.6296 C   0  0  0  0  0  0  0  0  0  0  0  0
   -6.9432   10.5732   13.4285 O   0  0  0  0  0  0  0  0  0  0  0  0
   -5.7256   10.3912   12.6829 C   0  0  0  0  0  0  0  0  0  0  0  0
   -6.1424   10.1832   11.2224 C   0  0  0  0  0  0  0  0  0  0  0  0
   -5.2015    9.4381   10.4542 O   0  0  0  0  0  0  0  0  0  0  0  0
   -7.4344    9.4025   11.3937 C   0  0  0  0  0  0  0  0  0  0  0  0
   -7.1209    8.0253   11.6595 O   0  0  0  0  0  0  0  0  0  0  0  0
   -5.0577    8.5733   10.8693 H   0  0  0  0  0  0  0  0  0  0  0  0
   -6.5311    7.9705   12.4276 H   0  0  0  0  0  0  0  0  0  0  0  0
  -11.4356   15.2051   12.4095 C   0  0  0  0  0  0  0  0  0  0  0  0
  -10.4445   14.2560   12.9997 C   0  0  0  0  0  0  0  0  0  0  0  0
   -9.8715   14.5967   14.1927 N   0  0  0  0  0  0  0  0  0  0  0  0
   -8.9714   13.7497   14.7308 C   0  0  0  0  0  0  0  0  0  0  0  0
   -8.2961   14.2409   16.2240 Cl  0  0  0  0  0  0  0  0  0  0  0  0
   -8.5358   12.5658   14.2579 N   0  0  0  0  0  0  0  0  0  0  0  0
   -9.1211   12.2843   13.0822 C   0  0  0  0  0  0  0  0  0  0  0  0
  -10.0593   13.0472   12.4027 C   0  0  0  0  0  0  0  0  0  0  0  0
  -10.4344   12.4249   11.2363 N   0  0  0  0  0  0  0  0  0  0  0  0
   -9.7216   11.3190   11.1944 C   0  0  0  0  0  0  0  0  0  0  0  0
   -8.9284   11.1769   12.3020 N   0  0  0  0  0  0  0  0  0  0  0  0
   -4.2466   14.0285   13.3409 C   0  0  0  0  0  0  0  0  0  0  0  0
   -2.9579   13.5779   13.8076 N   0  0  0  0  0  0  0  0  0  0  0  0
   -1.9603   14.5071   14.0374 C   0  0  0  0  0  0  0  0  0  0  0  0
   -2.1359   15.7162   14.0047 O   0  0  0  0  0  0  0  0  0  0  0  0
   -2.7908   12.6198   13.9607 H   0  0  0  0  0  0  0  0  0  0  0  0
   -0.6144   13.9445   14.3097 C   0  0  0  0  0  0  0  0  0  0  0  0
   -0.5397   12.7252   15.0042 C   0  0  0  0  0  0  0  0  0  0  0  0
    0.7003   12.1515   15.3456 C   0  0  0  0  0  0  0  0  0  0  0  0
    1.8686   12.8334   14.9653 C   0  0  0  0  0  0  0  0  0  0  0  0
    1.7903   14.0264   14.2544 C   0  0  0  0  0  0  0  0  0  0  0  0
    2.9492   14.6472   13.8831 O   0  0  0  0  0  0  0  0  0  0  0  0
    0.5619   14.5810   13.9107 C   0  0  0  0  0  0  0  0  0  0  0  0
    0.5957   15.7337   13.1661 O   0  0  0  0  0  0  0  0  0  0  0  0
    3.7763   14.2730   14.1151 H   0  0  0  0  0  0  0  0  0  0  0  0
    1.4184   16.1142   12.9288 H   0  0  0  0  0  0  0  0  0  0  0  0
    0.7724   10.8745   16.0800 C   0  0  0  0  0  0  0  0  0  0  0  0
   -0.1206   10.5872   17.1299 C   0  0  0  0  0  0  0  0  0  0  0  0
   -0.0483    9.3777   17.8262 C   0  0  0  0  0  0  0  0  0  0  0  0
    0.9164    8.4428   17.4782 C   0  0  0  0  0  0  0  0  0  0  0  0
    0.9854    7.2842   18.1462 F   0  0  0  0  0  0  0  0  0  0  0  0
    1.8105    8.6944   16.4475 C   0  0  0  0  0  0  0  0  0  0  0  0
    1.7388    9.9044   15.7525 C   0  0  0  0  0  0  0  0  0  0  0  0
 12 13  1  0
 13 14  2  0
 14 15  1  0
 15 16  1  0
 15 17  2  0
 17 18  1  0
 18 19  2  0
 19 20  1  0
 20 21  2  0
 21 22  1  0
  3 22  1  0
  3  4  1  0
  4  5  1  0
  5  1  1  0
  1  2  2  0
  2 23  1  0
 23 24  1  0
 24 25  1  0
 25 26  2  0
 25 28  1  0
 28 29  2  0
 29 30  1  0
 30 38  1  0
 38 39  2  0
 39 40  1  0
 40 41  2  0
 41 42  1  0
 41 43  1  0
 43 44  2  0
 30 31  2  0
 31 32  1  0
 32 33  1  0
 32 34  2  0
 34 35  1  0
  5  6  1  0
  6  7  1  0
  6  8  1  0
  8  9  1  0
 19 13  1  0
  8  3  1  0
 22 18  1  0
 34 28  1  0
 44 38  1  0
 24 27  1  0
 33 36  1  0
 35 37  1  0
  7 10  1  0
  9 11  1  0
M  END
> <minimizedAffinity>
-9.46957

> <CNNscore>
0.1908755302

> <CNNaffinity>
5.9382553101

> <CNN_VS>
1.1334676743

> <CNNaffinity_variance>
0.1964457184

$$$$
