


 29 30  0  0  0  0  0  0  0  0999 V2000
   19.4350   53.8622   37.8464 C   0  0  0  0  0  0  0  0  0  0  0  0
   18.5069   54.9399   37.3455 C   0  0  0  0  0  0  0  0  0  0  0  0
   18.9955   55.9842   36.5485 C   0  0  0  0  0  0  0  0  0  0  0  0
   18.1321   56.9658   36.0580 C   0  0  0  0  0  0  0  0  0  0  0  0
   16.7728   56.9154   36.3627 C   0  0  0  0  0  0  0  0  0  0  0  0
   16.2806   55.8904   37.1688 C   0  0  0  0  0  0  0  0  0  0  0  0
   17.1376   54.8915   37.6411 C   0  0  0  0  0  0  0  0  0  0  0  0
   14.9235   55.8782   37.4016 O   0  0  0  0  0  0  0  0  0  0  0  0
   14.3582   57.0304   37.8983 C   0  0  0  0  0  0  0  0  0  0  0  0
   14.7055   57.3960   39.2013 C   0  0  0  0  0  0  0  0  0  0  0  0
   14.1397   58.5347   39.7751 C   0  0  0  0  0  0  0  0  0  0  0  0
   13.2220   59.2847   39.0469 C   0  0  0  0  0  0  0  0  0  0  0  0
   12.6780   60.3768   39.5992 F   0  0  0  0  0  0  0  0  0  0  0  0
   12.8526   58.9142   37.7574 C   0  0  0  0  0  0  0  0  0  0  0  0
   13.4168   57.7762   37.1798 C   0  0  0  0  0  0  0  0  0  0  0  0
   19.3623   52.6026   36.9758 C   0  0  0  0  0  0  0  0  0  0  0  0
   20.6589   52.4076   36.1844 C   0  0  0  0  0  0  0  0  0  0  0  0
   21.6063   51.3268   36.7126 C   0  0  0  0  0  0  0  0  0  0  0  0
   23.3829   51.0193   38.7901 O   0  0  0  0  0  0  0  0  0  0  0  0
   22.9782   51.8958   37.6461 P   0  0  0  0  0  0  0  0  0  0  0  0
   24.2244   52.0973   36.6651 O   0  0  0  0  0  0  0  0  0  0  0  0
   22.7309   53.3864   38.1621 O   0  0  0  0  0  0  0  0  0  0  0  0
   24.9883   52.4121   37.1733 H   0  0  0  0  0  0  0  0  0  0  0  0
   23.4990   53.6826   38.6751 H   0  0  0  0  0  0  0  0  0  0  0  0
   22.2744   50.2427   35.4905 S   0  0  0  0  0  0  0  0  0  0  0  0
   22.6895   48.9845   36.0648 O   0  0  0  0  0  0  0  0  0  0  0  0
   23.0701   50.9384   34.5059 O   0  0  0  0  0  0  0  0  0  0  0  0
   20.8923   49.9216   34.7096 O   0  0  0  0  0  0  0  0  0  0  0  0
   20.2882   49.4484   35.3029 H   0  0  0  0  0  0  0  0  0  0  0  0
 19 20  2  0
 20 21  1  0
 20 22  1  0
 20 18  1  0
 18 17  1  0
 17 16  1  0
 16  1  1  0
  1  2  1  0
  2  3  2  0
  3  4  1  0
  4  5  2  0
  5  6  1  0
  6  8  1  0
  8  9  1  0
  9 10  2  0
 10 11  1  0
 11 12  2  0
 12 13  1  0
 12 14  1  0
 14 15  2  0
  6  7  2  0
 18 25  1  0
 25 26  2  0
 25 27  2  0
 25 28  1  0
  7  2  1  0
 15  9  1  0
 21 23  1  0
 22 24  1  0
 28 29  1  0
M  END
> <minimizedAffinity>
-9.15054

> <CNNscore>
0.7862922549

> <CNNaffinity>
6.1684937477

> <CNN_VS>
4.8502388000

> <CNNaffinity_variance>
0.0160462987

$$$$



 29 30  0  0  0  0  0  0  0  0999 V2000
   15.0113   54.3886   39.8057 C   0  0  0  0  0  0  0  0  0  0  0  0
   14.8305   55.4621   38.7624 C   0  0  0  0  0  0  0  0  0  0  0  0
   14.8669   55.1407   37.3986 C   0  0  0  0  0  0  0  0  0  0  0  0
   14.6686   56.1281   36.4316 C   0  0  0  0  0  0  0  0  0  0  0  0
   14.4361   57.4471   36.8182 C   0  0  0  0  0  0  0  0  0  0  0  0
   14.4152   57.7794   38.1716 C   0  0  0  0  0  0  0  0  0  0  0  0
   14.5882   56.7891   39.1436 C   0  0  0  0  0  0  0  0  0  0  0  0
   14.1444   59.0922   38.4865 O   0  0  0  0  0  0  0  0  0  0  0  0
   12.8515   59.5295   38.3106 C   0  0  0  0  0  0  0  0  0  0  0  0
   12.2015   60.0529   39.4311 C   0  0  0  0  0  0  0  0  0  0  0  0
   10.8781   60.4814   39.3268 C   0  0  0  0  0  0  0  0  0  0  0  0
   10.2152   60.3668   38.1092 C   0  0  0  0  0  0  0  0  0  0  0  0
    8.9440   60.7769   38.0103 F   0  0  0  0  0  0  0  0  0  0  0  0
   10.8475   59.8247   36.9944 C   0  0  0  0  0  0  0  0  0  0  0  0
   12.1714   59.3956   37.0947 C   0  0  0  0  0  0  0  0  0  0  0  0
   16.1090   53.3942   39.4109 C   0  0  0  0  0  0  0  0  0  0  0  0
   17.4151   54.1224   39.0800 C   0  0  0  0  0  0  0  0  0  0  0  0
   18.6280   53.2272   38.8114 C   0  0  0  0  0  0  0  0  0  0  0  0
   20.1052   55.4398   38.1117 O   0  0  0  0  0  0  0  0  0  0  0  0
   19.9451   53.9643   37.9170 P   0  0  0  0  0  0  0  0  0  0  0  0
   21.3099   53.2269   38.3033 O   0  0  0  0  0  0  0  0  0  0  0  0
   19.8278   53.6290   36.3604 O   0  0  0  0  0  0  0  0  0  0  0  0
   22.0443   53.6283   37.8130 H   0  0  0  0  0  0  0  0  0  0  0  0
   20.5634   54.0445   35.8839 H   0  0  0  0  0  0  0  0  0  0  0  0
   18.2789   51.7073   37.9850 S   0  0  0  0  0  0  0  0  0  0  0  0
   19.4825   50.9510   37.7307 O   0  0  0  0  0  0  0  0  0  0  0  0
   17.2305   51.8383   37.0001 O   0  0  0  0  0  0  0  0  0  0  0  0
   17.5526   50.9530   39.2206 O   0  0  0  0  0  0  0  0  0  0  0  0
   18.1909   50.8209   39.9389 H   0  0  0  0  0  0  0  0  0  0  0  0
 19 20  2  0
 20 21  1  0
 20 22  1  0
 20 18  1  0
 18 17  1  0
 17 16  1  0
 16  1  1  0
  1  2  1  0
  2  3  2  0
  3  4  1  0
  4  5  2  0
  5  6  1  0
  6  8  1  0
  8  9  1  0
  9 10  2  0
 10 11  1  0
 11 12  2  0
 12 13  1  0
 12 14  1  0
 14 15  2  0
  6  7  2  0
 18 25  1  0
 25 26  2  0
 25 27  2  0
 25 28  1  0
  7  2  1  0
 15  9  1  0
 21 23  1  0
 22 24  1  0
 28 29  1  0
M  END
> <minimizedAffinity>
-9.37010

> <CNNscore>
0.7604385614

> <CNNaffinity>
6.4627909660

> <CNN_VS>
4.9145555496

> <CNNaffinity_variance>
0.0021414834

$$$$



 29 30  0  0  0  0  0  0  0  0999 V2000
   16.9925   56.4392   35.7935 C   0  0  0  0  0  0  0  0  0  0  0  0
   15.8013   56.6639   36.6903 C   0  0  0  0  0  0  0  0  0  0  0  0
   15.8061   56.1908   38.0097 C   0  0  0  0  0  0  0  0  0  0  0  0
   14.7169   56.4251   38.8511 C   0  0  0  0  0  0  0  0  0  0  0  0
   13.6106   57.1310   38.3809 C   0  0  0  0  0  0  0  0  0  0  0  0
   13.5895   57.5905   37.0652 C   0  0  0  0  0  0  0  0  0  0  0  0
   14.6888   57.3798   36.2271 C   0  0  0  0  0  0  0  0  0  0  0  0
   12.4833   58.3116   36.6750 O   0  0  0  0  0  0  0  0  0  0  0  0
   12.0300   59.2860   37.5345 C   0  0  0  0  0  0  0  0  0  0  0  0
   12.9966   60.0575   38.1846 C   0  0  0  0  0  0  0  0  0  0  0  0
   12.6026   61.0385   39.0946 C   0  0  0  0  0  0  0  0  0  0  0  0
   11.2493   61.2258   39.3565 C   0  0  0  0  0  0  0  0  0  0  0  0
   10.8720   62.1668   40.2317 F   0  0  0  0  0  0  0  0  0  0  0  0
   10.2812   60.4458   38.7313 C   0  0  0  0  0  0  0  0  0  0  0  0
   10.6714   59.4640   37.8199 C   0  0  0  0  0  0  0  0  0  0  0  0
   18.0923   55.6404   36.5021 C   0  0  0  0  0  0  0  0  0  0  0  0
   17.9297   54.1389   36.2476 C   0  0  0  0  0  0  0  0  0  0  0  0
   18.6380   53.2137   37.2411 C   0  0  0  0  0  0  0  0  0  0  0  0
   19.3633   54.0561   39.7573 O   0  0  0  0  0  0  0  0  0  0  0  0
   19.7858   53.9813   38.3232 P   0  0  0  0  0  0  0  0  0  0  0  0
   21.1854   53.2155   38.2215 O   0  0  0  0  0  0  0  0  0  0  0  0
   20.1759   55.4359   37.7930 O   0  0  0  0  0  0  0  0  0  0  0  0
   21.8268   53.6335   38.8172 H   0  0  0  0  0  0  0  0  0  0  0  0
   20.8101   55.8433   38.4036 H   0  0  0  0  0  0  0  0  0  0  0  0
   19.4948   51.8472   36.5243 S   0  0  0  0  0  0  0  0  0  0  0  0
   18.6736   51.1488   35.5635 O   0  0  0  0  0  0  0  0  0  0  0  0
   20.3242   51.1489   37.4788 O   0  0  0  0  0  0  0  0  0  0  0  0
   20.5555   52.6969   35.6435 O   0  0  0  0  0  0  0  0  0  0  0  0
   20.0807   53.2046   34.9669 H   0  0  0  0  0  0  0  0  0  0  0  0
 19 20  2  0
 20 21  1  0
 20 22  1  0
 20 18  1  0
 18 17  1  0
 17 16  1  0
 16  1  1  0
  1  2  1  0
  2  3  2  0
  3  4  1  0
  4  5  2  0
  5  6  1  0
  6  8  1  0
  8  9  1  0
  9 10  2  0
 10 11  1  0
 11 12  2  0
 12 13  1  0
 12 14  1  0
 14 15  2  0
  6  7  2  0
 18 25  1  0
 25 26  2  0
 25 27  2  0
 25 28  1  0
  7  2  1  0
 15  9  1  0
 21 23  1  0
 22 24  1  0
 28 29  1  0
M  END
> <minimizedAffinity>
-9.47671

> <CNNscore>
0.7580471039

> <CNNaffinity>
6.4885640144

> <CNN_VS>
4.9186372757

> <CNNaffinity_variance>
0.0931255519

$$$$



 29 30  0  0  0  0  0  0  0  0999 V2000
   14.8958   54.3410   39.0514 C   0  0  0  0  0  0  0  0  0  0  0  0
   14.6004   55.5893   38.2588 C   0  0  0  0  0  0  0  0  0  0  0  0
   14.4885   55.5345   36.8627 C   0  0  0  0  0  0  0  0  0  0  0  0
   14.1842   56.6833   36.1299 C   0  0  0  0  0  0  0  0  0  0  0  0
   13.9928   57.8988   36.7850 C   0  0  0  0  0  0  0  0  0  0  0  0
   14.1190   57.9667   38.1714 C   0  0  0  0  0  0  0  0  0  0  0  0
   14.3987   56.8134   38.9111 C   0  0  0  0  0  0  0  0  0  0  0  0
   13.8818   59.1889   38.7593 O   0  0  0  0  0  0  0  0  0  0  0  0
   12.6309   59.7374   38.5920 C   0  0  0  0  0  0  0  0  0  0  0  0
   12.2898   60.8044   39.4270 C   0  0  0  0  0  0  0  0  0  0  0  0
   11.0236   61.3818   39.3309 C   0  0  0  0  0  0  0  0  0  0  0  0
   10.1082   60.8759   38.4138 C   0  0  0  0  0  0  0  0  0  0  0  0
    8.8921   61.4297   38.3233 F   0  0  0  0  0  0  0  0  0  0  0  0
   10.4314   59.7982   37.5949 C   0  0  0  0  0  0  0  0  0  0  0  0
   11.6972   59.2184   37.6877 C   0  0  0  0  0  0  0  0  0  0  0  0
   16.3495   53.8881   38.8738 C   0  0  0  0  0  0  0  0  0  0  0  0
   16.6068   53.4219   37.4377 C   0  0  0  0  0  0  0  0  0  0  0  0
   18.0074   53.7029   36.8864 C   0  0  0  0  0  0  0  0  0  0  0  0
   19.5912   53.8659   39.1296 O   0  0  0  0  0  0  0  0  0  0  0  0
   19.3473   53.1181   37.8560 P   0  0  0  0  0  0  0  0  0  0  0  0
   19.1121   51.5715   38.1853 O   0  0  0  0  0  0  0  0  0  0  0  0
   20.6882   53.0624   36.9909 O   0  0  0  0  0  0  0  0  0  0  0  0
   19.8489   51.2394   38.7216 H   0  0  0  0  0  0  0  0  0  0  0  0
   21.4161   52.7372   37.5435 H   0  0  0  0  0  0  0  0  0  0  0  0
   18.3626   55.3988   36.5507 S   0  0  0  0  0  0  0  0  0  0  0  0
   19.7799   55.6240   36.3900 O   0  0  0  0  0  0  0  0  0  0  0  0
   17.5206   56.3018   37.3004 O   0  0  0  0  0  0  0  0  0  0  0  0
   17.7478   55.4547   35.0534 O   0  0  0  0  0  0  0  0  0  0  0  0
   18.2585   54.8697   34.4722 H   0  0  0  0  0  0  0  0  0  0  0  0
 19 20  2  0
 20 21  1  0
 20 22  1  0
 20 18  1  0
 18 17  1  0
 17 16  1  0
 16  1  1  0
  1  2  1  0
  2  3  2  0
  3  4  1  0
  4  5  2  0
  5  6  1  0
  6  8  1  0
  8  9  1  0
  9 10  2  0
 10 11  1  0
 11 12  2  0
 12 13  1  0
 12 14  1  0
 14 15  2  0
  6  7  2  0
 18 25  1  0
 25 26  2  0
 25 27  2  0
 25 28  1  0
  7  2  1  0
 15  9  1  0
 21 23  1  0
 22 24  1  0
 28 29  1  0
M  END
> <minimizedAffinity>
-8.80578

> <CNNscore>
0.7249681354

> <CNNaffinity>
6.4731192589

> <CNN_VS>
4.6928052902

> <CNNaffinity_variance>
0.0934237465

$$$$



 29 30  0  0  0  0  0  0  0  0999 V2000
   15.5786   53.3738   37.7555 C   0  0  0  0  0  0  0  0  0  0  0  0
   15.4660   54.8534   37.4874 C   0  0  0  0  0  0  0  0  0  0  0  0
   15.6859   55.3607   36.1995 C   0  0  0  0  0  0  0  0  0  0  0  0
   15.5514   56.7266   35.9427 C   0  0  0  0  0  0  0  0  0  0  0  0
   15.1999   57.5990   36.9715 C   0  0  0  0  0  0  0  0  0  0  0  0
   14.9961   57.1061   38.2592 C   0  0  0  0  0  0  0  0  0  0  0  0
   15.1050   55.7357   38.5151 C   0  0  0  0  0  0  0  0  0  0  0  0
   14.6157   58.0150   39.2211 O   0  0  0  0  0  0  0  0  0  0  0  0
   13.4905   58.7662   38.9695 C   0  0  0  0  0  0  0  0  0  0  0  0
   12.5583   58.2319   38.0764 C   0  0  0  0  0  0  0  0  0  0  0  0
   11.4131   58.9598   37.7529 C   0  0  0  0  0  0  0  0  0  0  0  0
   11.2211   60.2189   38.3123 C   0  0  0  0  0  0  0  0  0  0  0  0
   10.1222   60.9177   37.9999 F   0  0  0  0  0  0  0  0  0  0  0  0
   12.1562   60.7685   39.1842 C   0  0  0  0  0  0  0  0  0  0  0  0
   13.3026   60.0432   39.5107 C   0  0  0  0  0  0  0  0  0  0  0  0
   17.0409   52.9295   37.8746 C   0  0  0  0  0  0  0  0  0  0  0  0
   17.7914   53.1555   36.5588 C   0  0  0  0  0  0  0  0  0  0  0  0
   19.3141   53.2711   36.6711 C   0  0  0  0  0  0  0  0  0  0  0  0
   20.4242   50.9720   37.6953 O   0  0  0  0  0  0  0  0  0  0  0  0
   20.2166   51.7825   36.4540 P   0  0  0  0  0  0  0  0  0  0  0  0
   19.4814   50.8871   35.3524 O   0  0  0  0  0  0  0  0  0  0  0  0
   21.6202   52.0707   35.7497 O   0  0  0  0  0  0  0  0  0  0  0  0
   19.9740   50.0612   35.2257 H   0  0  0  0  0  0  0  0  0  0  0  0
   22.1034   51.2370   35.6386 H   0  0  0  0  0  0  0  0  0  0  0  0
   19.9108   53.9788   38.1738 S   0  0  0  0  0  0  0  0  0  0  0  0
   19.3375   53.3325   39.3309 O   0  0  0  0  0  0  0  0  0  0  0  0
   20.0633   55.4128   38.0906 O   0  0  0  0  0  0  0  0  0  0  0  0
   21.4302   53.4254   38.0834 O   0  0  0  0  0  0  0  0  0  0  0  0
   21.4249   52.4566   38.1320 H   0  0  0  0  0  0  0  0  0  0  0  0
 19 20  2  0
 20 21  1  0
 20 22  1  0
 20 18  1  0
 18 17  1  0
 17 16  1  0
 16  1  1  0
  1  2  1  0
  2  3  2  0
  3  4  1  0
  4  5  2  0
  5  6  1  0
  6  8  1  0
  8  9  1  0
  9 10  2  0
 10 11  1  0
 11 12  2  0
 12 13  1  0
 12 14  1  0
 14 15  2  0
  6  7  2  0
 18 25  1  0
 25 26  2  0
 25 27  2  0
 25 28  1  0
  7  2  1  0
 15  9  1  0
 21 23  1  0
 22 24  1  0
 28 29  1  0
M  END
> <minimizedAffinity>
-9.05318

> <CNNscore>
0.7078428864

> <CNNaffinity>
6.1670002937

> <CNN_VS>
4.3652672768

> <CNNaffinity_variance>
0.1219557747

$$$$



 29 30  0  0  0  0  0  0  0  0999 V2000
   15.2390   55.0031   39.7432 C   0  0  0  0  0  0  0  0  0  0  0  0
   14.7990   56.0350   38.7355 C   0  0  0  0  0  0  0  0  0  0  0  0
   14.6633   55.6943   37.3828 C   0  0  0  0  0  0  0  0  0  0  0  0
   14.2260   56.6402   36.4535 C   0  0  0  0  0  0  0  0  0  0  0  0
   13.9242   57.9369   36.8666 C   0  0  0  0  0  0  0  0  0  0  0  0
   14.0726   58.2898   38.2068 C   0  0  0  0  0  0  0  0  0  0  0  0
   14.4859   57.3386   39.1447 C   0  0  0  0  0  0  0  0  0  0  0  0
   13.7230   59.5754   38.5547 O   0  0  0  0  0  0  0  0  0  0  0  0
   12.4178   59.9545   38.3394 C   0  0  0  0  0  0  0  0  0  0  0  0
   11.7674   60.6111   39.3873 C   0  0  0  0  0  0  0  0  0  0  0  0
   10.4327   60.9906   39.2444 C   0  0  0  0  0  0  0  0  0  0  0  0
    9.7593   60.6952   38.0636 C   0  0  0  0  0  0  0  0  0  0  0  0
    8.4773   61.0584   37.9280 F   0  0  0  0  0  0  0  0  0  0  0  0
   10.3925   60.0205   37.0242 C   0  0  0  0  0  0  0  0  0  0  0  0
   11.7277   59.6398   37.1631 C   0  0  0  0  0  0  0  0  0  0  0  0
   16.0774   53.8972   39.0921 C   0  0  0  0  0  0  0  0  0  0  0  0
   17.2342   54.4908   38.2828 C   0  0  0  0  0  0  0  0  0  0  0  0
   18.3971   53.5399   37.9858 C   0  0  0  0  0  0  0  0  0  0  0  0
   16.8549   51.2816   37.6880 O   0  0  0  0  0  0  0  0  0  0  0  0
   18.1006   51.8400   38.3020 P   0  0  0  0  0  0  0  0  0  0  0  0
   19.3625   50.9932   37.8056 O   0  0  0  0  0  0  0  0  0  0  0  0
   18.1140   51.5469   39.8714 O   0  0  0  0  0  0  0  0  0  0  0  0
   19.2073   50.0511   37.9766 H   0  0  0  0  0  0  0  0  0  0  0  0
   17.9486   50.6036   40.0256 H   0  0  0  0  0  0  0  0  0  0  0  0
   19.9146   53.9219   38.8019 S   0  0  0  0  0  0  0  0  0  0  0  0
   20.9990   53.0978   38.3222 O   0  0  0  0  0  0  0  0  0  0  0  0
   19.7330   54.2137   40.2048 O   0  0  0  0  0  0  0  0  0  0  0  0
   20.1564   55.3780   38.1352 O   0  0  0  0  0  0  0  0  0  0  0  0
   20.2898   55.2779   37.1797 H   0  0  0  0  0  0  0  0  0  0  0  0
 19 20  2  0
 20 21  1  0
 20 22  1  0
 20 18  1  0
 18 17  1  0
 17 16  1  0
 16  1  1  0
  1  2  1  0
  2  3  2  0
  3  4  1  0
  4  5  2  0
  5  6  1  0
  6  8  1  0
  8  9  1  0
  9 10  2  0
 10 11  1  0
 11 12  2  0
 12 13  1  0
 12 14  1  0
 14 15  2  0
  6  7  2  0
 18 25  1  0
 25 26  2  0
 25 27  2  0
 25 28  1  0
  7  2  1  0
 15  9  1  0
 21 23  1  0
 22 24  1  0
 28 29  1  0
M  END
> <minimizedAffinity>
-9.21995

> <CNNscore>
0.6981567144

> <CNNaffinity>
6.3030261993

> <CNN_VS>
4.4005002975

> <CNNaffinity_variance>
0.0318001360

$$$$



 29 30  0  0  0  0  0  0  0  0999 V2000
   16.3097   49.5495   36.9804 C   0  0  0  0  0  0  0  0  0  0  0  0
   16.2260   50.5794   38.0786 C   0  0  0  0  0  0  0  0  0  0  0  0
   16.8514   50.3546   39.3126 C   0  0  0  0  0  0  0  0  0  0  0  0
   16.8013   51.3205   40.3196 C   0  0  0  0  0  0  0  0  0  0  0  0
   16.1221   52.5186   40.1044 C   0  0  0  0  0  0  0  0  0  0  0  0
   15.4825   52.7440   38.8867 C   0  0  0  0  0  0  0  0  0  0  0  0
   15.5518   51.7899   37.8667 C   0  0  0  0  0  0  0  0  0  0  0  0
   14.8609   53.9621   38.7257 O   0  0  0  0  0  0  0  0  0  0  0  0
   14.5065   54.6452   39.8665 C   0  0  0  0  0  0  0  0  0  0  0  0
   13.5042   54.0794   40.6585 C   0  0  0  0  0  0  0  0  0  0  0  0
   13.0755   54.7403   41.8098 C   0  0  0  0  0  0  0  0  0  0  0  0
   13.6412   55.9655   42.1469 C   0  0  0  0  0  0  0  0  0  0  0  0
   13.2279   56.6002   43.2515 F   0  0  0  0  0  0  0  0  0  0  0  0
   14.6232   56.5476   41.3509 C   0  0  0  0  0  0  0  0  0  0  0  0
   15.0550   55.8893   40.1989 C   0  0  0  0  0  0  0  0  0  0  0  0
   17.1981   50.0245   35.8251 C   0  0  0  0  0  0  0  0  0  0  0  0
   17.8472   51.3728   36.1511 C   0  0  0  0  0  0  0  0  0  0  0  0
   19.3002   51.3148   36.6309 C   0  0  0  0  0  0  0  0  0  0  0  0
   19.6477   54.0436   36.6338 O   0  0  0  0  0  0  0  0  0  0  0  0
   19.9221   52.7746   37.3789 P   0  0  0  0  0  0  0  0  0  0  0  0
   19.3308   52.8901   38.8597 O   0  0  0  0  0  0  0  0  0  0  0  0
   21.4866   52.6388   37.6672 O   0  0  0  0  0  0  0  0  0  0  0  0
   19.6697   53.6952   39.2814 H   0  0  0  0  0  0  0  0  0  0  0  0
   21.8113   53.4543   38.0801 H   0  0  0  0  0  0  0  0  0  0  0  0
   20.4851   50.8626   35.4035 S   0  0  0  0  0  0  0  0  0  0  0  0
   19.8511   50.3107   34.2293 O   0  0  0  0  0  0  0  0  0  0  0  0
   21.6828   50.2893   35.9720 O   0  0  0  0  0  0  0  0  0  0  0  0
   20.9388   52.3590   34.9815 O   0  0  0  0  0  0  0  0  0  0  0  0
   20.1864   52.8252   34.5849 H   0  0  0  0  0  0  0  0  0  0  0  0
 19 20  2  0
 20 21  1  0
 20 22  1  0
 20 18  1  0
 18 17  1  0
 17 16  1  0
 16  1  1  0
  1  2  1  0
  2  3  2  0
  3  4  1  0
  4  5  2  0
  5  6  1  0
  6  8  1  0
  8  9  1  0
  9 10  2  0
 10 11  1  0
 11 12  2  0
 12 13  1  0
 12 14  1  0
 14 15  2  0
  6  7  2  0
 18 25  1  0
 25 26  2  0
 25 27  2  0
 25 28  1  0
  7  2  1  0
 15  9  1  0
 21 23  1  0
 22 24  1  0
 28 29  1  0
M  END
> <minimizedAffinity>
-8.97064

> <CNNscore>
0.6783713102

> <CNNaffinity>
6.0712375641

> <CNN_VS>
4.1185531616

> <CNNaffinity_variance>
0.0105621284

$$$$



 29 30  0  0  0  0  0  0  0  0999 V2000
   15.5464   55.7821   36.9867 C   0  0  0  0  0  0  0  0  0  0  0  0
   15.0774   56.4808   38.2379 C   0  0  0  0  0  0  0  0  0  0  0  0
   15.0666   55.8064   39.4666 C   0  0  0  0  0  0  0  0  0  0  0  0
   14.6623   56.4613   40.6316 C   0  0  0  0  0  0  0  0  0  0  0  0
   14.2610   57.7952   40.5791 C   0  0  0  0  0  0  0  0  0  0  0  0
   14.2520   58.4691   39.3591 C   0  0  0  0  0  0  0  0  0  0  0  0
   14.6802   57.8244   38.1944 C   0  0  0  0  0  0  0  0  0  0  0  0
   13.8798   59.7945   39.3823 O   0  0  0  0  0  0  0  0  0  0  0  0
   12.6019   60.0983   38.9719 C   0  0  0  0  0  0  0  0  0  0  0  0
   11.9488   61.1331   39.6462 C   0  0  0  0  0  0  0  0  0  0  0  0
   10.6391   61.4667   39.3008 C   0  0  0  0  0  0  0  0  0  0  0  0
    9.9923   60.7520   38.2978 C   0  0  0  0  0  0  0  0  0  0  0  0
    8.7342   61.0718   37.9680 F   0  0  0  0  0  0  0  0  0  0  0  0
   10.6271   59.7044   37.6375 C   0  0  0  0  0  0  0  0  0  0  0  0
   11.9374   59.3683   37.9798 C   0  0  0  0  0  0  0  0  0  0  0  0
   16.7327   54.8530   37.2677 C   0  0  0  0  0  0  0  0  0  0  0  0
   16.3949   53.4055   36.8983 C   0  0  0  0  0  0  0  0  0  0  0  0
   17.1615   52.3251   37.6662 C   0  0  0  0  0  0  0  0  0  0  0  0
   19.4427   52.9801   36.2753 O   0  0  0  0  0  0  0  0  0  0  0  0
   18.9104   52.3883   37.5431 P   0  0  0  0  0  0  0  0  0  0  0  0
   19.4884   53.2016   38.7921 O   0  0  0  0  0  0  0  0  0  0  0  0
   19.5456   50.9426   37.7789 O   0  0  0  0  0  0  0  0  0  0  0  0
   20.4557   53.2416   38.7323 H   0  0  0  0  0  0  0  0  0  0  0  0
   20.5113   50.9981   37.7070 H   0  0  0  0  0  0  0  0  0  0  0  0
   16.7136   50.6617   37.2824 S   0  0  0  0  0  0  0  0  0  0  0  0
   16.6584   49.8384   38.4674 O   0  0  0  0  0  0  0  0  0  0  0  0
   17.3065   50.1968   36.0500 O   0  0  0  0  0  0  0  0  0  0  0  0
   15.1691   50.9417   36.8834 O   0  0  0  0  0  0  0  0  0  0  0  0
   14.6871   51.2620   37.6619 H   0  0  0  0  0  0  0  0  0  0  0  0
 19 20  2  0
 20 21  1  0
 20 22  1  0
 20 18  1  0
 18 17  1  0
 17 16  1  0
 16  1  1  0
  1  2  1  0
  2  3  2  0
  3  4  1  0
  4  5  2  0
  5  6  1  0
  6  8  1  0
  8  9  1  0
  9 10  2  0
 10 11  1  0
 11 12  2  0
 12 13  1  0
 12 14  1  0
 14 15  2  0
  6  7  2  0
 18 25  1  0
 25 26  2  0
 25 27  2  0
 25 28  1  0
  7  2  1  0
 15  9  1  0
 21 23  1  0
 22 24  1  0
 28 29  1  0
M  END
> <minimizedAffinity>
-9.49627

> <CNNscore>
0.6763601303

> <CNNaffinity>
6.1725192070

> <CNN_VS>
4.1748456955

> <CNNaffinity_variance>
0.0013906363

$$$$



 29 30  0  0  0  0  0  0  0  0999 V2000
   18.7603   51.1158   36.6185 C   0  0  0  0  0  0  0  0  0  0  0  0
   17.9344   51.3450   37.8591 C   0  0  0  0  0  0  0  0  0  0  0  0
   17.6453   50.2825   38.7264 C   0  0  0  0  0  0  0  0  0  0  0  0
   16.9073   50.4989   39.8917 C   0  0  0  0  0  0  0  0  0  0  0  0
   16.4476   51.7784   40.1994 C   0  0  0  0  0  0  0  0  0  0  0  0
   16.7154   52.8380   39.3343 C   0  0  0  0  0  0  0  0  0  0  0  0
   17.4757   52.6302   38.1792 C   0  0  0  0  0  0  0  0  0  0  0  0
   16.2643   54.0820   39.7148 O   0  0  0  0  0  0  0  0  0  0  0  0
   15.6718   54.8614   38.7477 C   0  0  0  0  0  0  0  0  0  0  0  0
   15.4168   56.1951   39.0768 C   0  0  0  0  0  0  0  0  0  0  0  0
   14.7867   57.0282   38.1523 C   0  0  0  0  0  0  0  0  0  0  0  0
   14.4043   56.5151   36.9172 C   0  0  0  0  0  0  0  0  0  0  0  0
   13.7979   57.3153   36.0308 F   0  0  0  0  0  0  0  0  0  0  0  0
   14.6330   55.1819   36.5904 C   0  0  0  0  0  0  0  0  0  0  0  0
   15.2636   54.3456   37.5123 C   0  0  0  0  0  0  0  0  0  0  0  0
   19.6086   52.3435   36.2680 C   0  0  0  0  0  0  0  0  0  0  0  0
   20.9042   51.9314   35.5630 C   0  0  0  0  0  0  0  0  0  0  0  0
   21.7828   50.9282   36.3155 C   0  0  0  0  0  0  0  0  0  0  0  0
   22.6498   52.2265   38.5804 O   0  0  0  0  0  0  0  0  0  0  0  0
   23.0760   51.6128   37.2834 P   0  0  0  0  0  0  0  0  0  0  0  0
   24.1672   50.4791   37.5659 O   0  0  0  0  0  0  0  0  0  0  0  0
   23.9207   52.6672   36.4325 O   0  0  0  0  0  0  0  0  0  0  0  0
   24.8867   50.8490   38.1010 H   0  0  0  0  0  0  0  0  0  0  0  0
   24.6295   53.0339   36.9839 H   0  0  0  0  0  0  0  0  0  0  0  0
   22.5384   49.6850   35.3162 S   0  0  0  0  0  0  0  0  0  0  0  0
   21.8043   49.4673   34.0919 O   0  0  0  0  0  0  0  0  0  0  0  0
   23.0728   48.5935   36.0969 O   0  0  0  0  0  0  0  0  0  0  0  0
   23.8526   50.5267   34.8833 O   0  0  0  0  0  0  0  0  0  0  0  0
   23.5857   51.2901   34.3478 H   0  0  0  0  0  0  0  0  0  0  0  0
 19 20  2  0
 20 21  1  0
 20 22  1  0
 20 18  1  0
 18 17  1  0
 17 16  1  0
 16  1  1  0
  1  2  1  0
  2  3  2  0
  3  4  1  0
  4  5  2  0
  5  6  1  0
  6  8  1  0
  8  9  1  0
  9 10  2  0
 10 11  1  0
 11 12  2  0
 12 13  1  0
 12 14  1  0
 14 15  2  0
  6  7  2  0
 18 25  1  0
 25 26  2  0
 25 27  2  0
 25 28  1  0
  7  2  1  0
 15  9  1  0
 21 23  1  0
 22 24  1  0
 28 29  1  0
M  END
> <minimizedAffinity>
-8.54999

> <CNNscore>
0.6522356868

> <CNNaffinity>
5.7697138786

> <CNN_VS>
3.7632133961

> <CNNaffinity_variance>
0.0632944331

$$$$
