


 27 31  0  0  0  0  0  0  0  0999 V2000
   11.8391   25.0204    7.4389 N   0  0  0  0  0  0  0  0  0  0  0  0
   13.0877   25.0416    8.1985 C   0  0  0  0  0  0  0  0  0  0  0  0
   12.9249   25.9234    9.4415 C   0  0  0  0  0  0  0  0  0  0  0  0
   12.0191   27.1411    9.1882 C   0  0  0  0  0  0  0  0  0  0  0  0
   12.0362   27.5130    7.6998 C   0  0  0  0  0  0  0  0  0  0  0  0
   11.5307   26.3374    6.8527 C   0  0  0  0  0  0  0  0  0  0  0  0
   12.3396   28.2381   10.0900 N   0  0  0  0  0  0  0  0  0  0  0  0
   12.6030   29.5328    9.6906 C   0  0  0  0  0  0  0  0  0  0  0  0
   12.8242   30.3404   10.7073 N   0  0  0  0  0  0  0  0  0  0  0  0
   12.7330   29.5412   11.8188 C   0  0  0  0  0  0  0  0  0  0  0  0
   12.8796   29.8194   13.1904 C   0  0  0  0  0  0  0  0  0  0  0  0
   12.7651   28.8574   14.1596 N   0  0  0  0  0  0  0  0  0  0  0  0
   12.5101   27.6200   13.6998 C   0  0  0  0  0  0  0  0  0  0  0  0
   12.3624   26.4770   14.4343 N   0  0  0  0  0  0  0  0  0  0  0  0
   12.1286   25.4120   13.5873 C   0  0  0  0  0  0  0  0  0  0  0  0
   12.1189   25.8755   12.2809 C   0  0  0  0  0  0  0  0  0  0  0  0
   12.3516   27.2675   12.3789 C   0  0  0  0  0  0  0  0  0  0  0  0
   12.4535   28.2417   11.4331 C   0  0  0  0  0  0  0  0  0  0  0  0
   12.4147   26.4216   15.4158 H   0  0  0  0  0  0  0  0  0  0  0  0
   11.8434   23.9557    6.4218 C   0  0  0  0  0  0  0  0  0  0  0  0
    6.8859   20.5154    6.5813 Cl  0  0  0  0  0  0  0  0  0  0  0  0
    8.2982   21.4973    6.5341 C   0  0  0  0  0  0  0  0  0  0  0  0
    8.2657   22.7819    7.0731 C   0  0  0  0  0  0  0  0  0  0  0  0
    9.4114   23.5803    7.0372 C   0  0  0  0  0  0  0  0  0  0  0  0
   10.5959   23.0966    6.4622 C   0  0  0  0  0  0  0  0  0  0  0  0
   10.6108   21.8009    5.9219 C   0  0  0  0  0  0  0  0  0  0  0  0
    9.4652   21.0031    5.9570 C   0  0  0  0  0  0  0  0  0  0  0  0
 21 22  1  0
 22 23  2  0
 23 24  1  0
 24 25  2  0
 25 20  1  0
 20  1  1  0
  1  2  1  0
  2  3  1  0
  3  4  1  0
  4  7  1  0
  7  8  1  0
  8  9  2  0
  9 10  1  0
 10 11  2  0
 11 12  1  0
 12 13  2  0
 13 14  1  0
 14 15  1  0
 15 16  2  0
 16 17  1  0
 17 18  2  0
  4  5  1  0
  5  6  1  0
 25 26  1  0
 26 27  2  0
 27 22  1  0
  6  1  1  0
 18  7  1  0
 18 10  1  0
 17 13  1  0
 14 19  1  0
M  END
> <minimizedAffinity>
-9.70568

> <CNNscore>
0.9899582267

> <CNNaffinity>
7.9956035614

> <CNN_VS>
7.9153137207

> <CNNaffinity_variance>
0.0055907853

$$$$



 27 31  0  0  0  0  0  0  0  0999 V2000
   10.9311   24.4916    8.1867 N   0  0  0  0  0  0  0  0  0  0  0  0
   12.3610   24.7870    8.2543 C   0  0  0  0  0  0  0  0  0  0  0  0
   12.6455   25.7081    9.4458 C   0  0  0  0  0  0  0  0  0  0  0  0
   11.5165   26.7245    9.6905 C   0  0  0  0  0  0  0  0  0  0  0  0
   10.7528   26.9912    8.3868 C   0  0  0  0  0  0  0  0  0  0  0  0
   10.1381   25.6893    7.8554 C   0  0  0  0  0  0  0  0  0  0  0  0
   12.0132   27.9199   10.3565 N   0  0  0  0  0  0  0  0  0  0  0  0
   12.2601   29.1243    9.7291 C   0  0  0  0  0  0  0  0  0  0  0  0
   12.6656   30.0566   10.5663 N   0  0  0  0  0  0  0  0  0  0  0  0
   12.7171   29.4350   11.7884 C   0  0  0  0  0  0  0  0  0  0  0  0
   13.0839   29.9009   13.0646 C   0  0  0  0  0  0  0  0  0  0  0  0
   13.0844   29.0992   14.1759 N   0  0  0  0  0  0  0  0  0  0  0  0
   12.7153   27.8256   13.9537 C   0  0  0  0  0  0  0  0  0  0  0  0
   12.6400   26.8129   14.8683 N   0  0  0  0  0  0  0  0  0  0  0  0
   12.2386   25.6518   14.2382 C   0  0  0  0  0  0  0  0  0  0  0  0
   12.0449   25.9196   12.8920 C   0  0  0  0  0  0  0  0  0  0  0  0
   12.3418   27.2945   12.7402 C   0  0  0  0  0  0  0  0  0  0  0  0
   12.3330   28.1124   11.6516 C   0  0  0  0  0  0  0  0  0  0  0  0
   12.8410   26.8981   15.8283 H   0  0  0  0  0  0  0  0  0  0  0  0
   10.6525   23.3780    7.2646 C   0  0  0  0  0  0  0  0  0  0  0  0
    9.5716   25.2137    1.6165 Cl  0  0  0  0  0  0  0  0  0  0  0  0
    9.8811   24.6889    3.2258 C   0  0  0  0  0  0  0  0  0  0  0  0
   11.0603   25.0704    3.8628 C   0  0  0  0  0  0  0  0  0  0  0  0
   11.3132   24.6467    5.1698 C   0  0  0  0  0  0  0  0  0  0  0  0
   10.3865   23.8395    5.8460 C   0  0  0  0  0  0  0  0  0  0  0  0
    9.2045   23.4625    5.1888 C   0  0  0  0  0  0  0  0  0  0  0  0
    8.9522   23.8854    3.8821 C   0  0  0  0  0  0  0  0  0  0  0  0
 21 22  1  0
 22 23  2  0
 23 24  1  0
 24 25  2  0
 25 20  1  0
 20  1  1  0
  1  2  1  0
  2  3  1  0
  3  4  1  0
  4  7  1  0
  7  8  1  0
  8  9  2  0
  9 10  1  0
 10 11  2  0
 11 12  1  0
 12 13  2  0
 13 14  1  0
 14 15  1  0
 15 16  2  0
 16 17  1  0
 17 18  2  0
  4  5  1  0
  5  6  1  0
 25 26  1  0
 26 27  2  0
 27 22  1  0
  6  1  1  0
 18  7  1  0
 18 10  1  0
 17 13  1  0
 14 19  1  0
M  END
> <minimizedAffinity>
-9.17374

> <CNNscore>
0.9679867625

> <CNNaffinity>
7.8837418556

> <CNN_VS>
7.6313576698

> <CNNaffinity_variance>
0.0446226560

$$$$



 27 31  0  0  0  0  0  0  0  0999 V2000
   11.3491   25.3465    7.5703 N   0  0  0  0  0  0  0  0  0  0  0  0
   10.3338   26.1573    8.2398 C   0  0  0  0  0  0  0  0  0  0  0  0
   10.9400   26.8340    9.4742 C   0  0  0  0  0  0  0  0  0  0  0  0
   11.9788   25.9483   10.1840 C   0  0  0  0  0  0  0  0  0  0  0  0
   11.6940   24.4676    9.9002 C   0  0  0  0  0  0  0  0  0  0  0  0
   11.7604   24.1936    8.3917 C   0  0  0  0  0  0  0  0  0  0  0  0
   12.0865   26.2841   11.5965 N   0  0  0  0  0  0  0  0  0  0  0  0
   11.8821   25.3964   12.6335 C   0  0  0  0  0  0  0  0  0  0  0  0
   12.0815   25.9441   13.8145 N   0  0  0  0  0  0  0  0  0  0  0  0
   12.4004   27.2517   13.5476 C   0  0  0  0  0  0  0  0  0  0  0  0
   12.7097   28.3343   14.3916 C   0  0  0  0  0  0  0  0  0  0  0  0
   12.9871   29.5897   13.9176 N   0  0  0  0  0  0  0  0  0  0  0  0
   12.9326   29.7133   12.5799 C   0  0  0  0  0  0  0  0  0  0  0  0
   13.1477   30.8435   11.8424 N   0  0  0  0  0  0  0  0  0  0  0  0
   12.9785   30.5584   10.5021 C   0  0  0  0  0  0  0  0  0  0  0  0
   12.6537   29.2173   10.3695 C   0  0  0  0  0  0  0  0  0  0  0  0
   12.6403   28.7061   11.6886 C   0  0  0  0  0  0  0  0  0  0  0  0
   12.3833   27.4624   12.1798 C   0  0  0  0  0  0  0  0  0  0  0  0
   13.3865   31.7250   12.2101 H   0  0  0  0  0  0  0  0  0  0  0  0
   10.9110   24.9333    6.2267 C   0  0  0  0  0  0  0  0  0  0  0  0
    7.0097   20.3282    6.3345 Cl  0  0  0  0  0  0  0  0  0  0  0  0
    8.1225   21.6404    6.3058 C   0  0  0  0  0  0  0  0  0  0  0  0
    9.4760   21.3946    6.0829 C   0  0  0  0  0  0  0  0  0  0  0  0
   10.3810   22.4585    6.0577 C   0  0  0  0  0  0  0  0  0  0  0  0
    9.9358   23.7739    6.2550 C   0  0  0  0  0  0  0  0  0  0  0  0
    8.5692   24.0037    6.4805 C   0  0  0  0  0  0  0  0  0  0  0  0
    7.6647   22.9402    6.5064 C   0  0  0  0  0  0  0  0  0  0  0  0
 21 22  1  0
 22 23  2  0
 23 24  1  0
 24 25  2  0
 25 20  1  0
 20  1  1  0
  1  2  1  0
  2  3  1  0
  3  4  1  0
  4  7  1  0
  7  8  1  0
  8  9  2  0
  9 10  1  0
 10 11  2  0
 11 12  1  0
 12 13  2  0
 13 14  1  0
 14 15  1  0
 15 16  2  0
 16 17  1  0
 17 18  2  0
  4  5  1  0
  5  6  1  0
 25 26  1  0
 26 27  2  0
 27 22  1  0
  6  1  1  0
 18  7  1  0
 18 10  1  0
 17 13  1  0
 14 19  1  0
M  END
> <minimizedAffinity>
-10.25873

> <CNNscore>
0.9622559547

> <CNNaffinity>
7.7572493553

> <CNN_VS>
7.4644594193

> <CNNaffinity_variance>
0.0611666441

$$$$



 27 31  0  0  0  0  0  0  0  0999 V2000
   12.0038   26.5459    6.4132 N   0  0  0  0  0  0  0  0  0  0  0  0
   12.2628   27.9684    6.1992 C   0  0  0  0  0  0  0  0  0  0  0  0
   12.9697   28.5580    7.4246 C   0  0  0  0  0  0  0  0  0  0  0  0
   12.4857   27.9326    8.7444 C   0  0  0  0  0  0  0  0  0  0  0  0
   11.0582   27.3938    8.5827 C   0  0  0  0  0  0  0  0  0  0  0  0
   11.0159   26.3228    7.4844 C   0  0  0  0  0  0  0  0  0  0  0  0
   12.6643   28.8475    9.8626 N   0  0  0  0  0  0  0  0  0  0  0  0
   12.9444   30.1935    9.7402 C   0  0  0  0  0  0  0  0  0  0  0  0
   13.0170   30.8028   10.9055 N   0  0  0  0  0  0  0  0  0  0  0  0
   12.8066   29.8146   11.8339 C   0  0  0  0  0  0  0  0  0  0  0  0
   12.7737   29.8388   13.2405 C   0  0  0  0  0  0  0  0  0  0  0  0
   12.5619   28.7165   13.9976 N   0  0  0  0  0  0  0  0  0  0  0  0
   12.3963   27.5830   13.2936 C   0  0  0  0  0  0  0  0  0  0  0  0
   12.1854   26.3254   13.7849 N   0  0  0  0  0  0  0  0  0  0  0  0
   12.0851   25.4321   12.7370 C   0  0  0  0  0  0  0  0  0  0  0  0
   12.2279   26.1255   11.5453 C   0  0  0  0  0  0  0  0  0  0  0  0
   12.4129   27.4767   11.9215 C   0  0  0  0  0  0  0  0  0  0  0  0
   12.6090   28.6068   11.1877 C   0  0  0  0  0  0  0  0  0  0  0  0
   12.1156   26.0924   14.7389 H   0  0  0  0  0  0  0  0  0  0  0  0
   11.6163   25.8730    5.1621 C   0  0  0  0  0  0  0  0  0  0  0  0
    8.5408   20.7607    6.0809 Cl  0  0  0  0  0  0  0  0  0  0  0  0
    9.4171   22.2186    5.8212 C   0  0  0  0  0  0  0  0  0  0  0  0
   10.7250   22.3320    6.2886 C   0  0  0  0  0  0  0  0  0  0  0  0
   11.4389   23.5140    6.0776 C   0  0  0  0  0  0  0  0  0  0  0  0
   10.8475   24.5886    5.3970 C   0  0  0  0  0  0  0  0  0  0  0  0
    9.5283   24.4584    4.9346 C   0  0  0  0  0  0  0  0  0  0  0  0
    8.8144   23.2771    5.1462 C   0  0  0  0  0  0  0  0  0  0  0  0
 21 22  1  0
 22 23  2  0
 23 24  1  0
 24 25  2  0
 25 20  1  0
 20  1  1  0
  1  2  1  0
  2  3  1  0
  3  4  1  0
  4  7  1  0
  7  8  1  0
  8  9  2  0
  9 10  1  0
 10 11  2  0
 11 12  1  0
 12 13  2  0
 13 14  1  0
 14 15  1  0
 15 16  2  0
 16 17  1  0
 17 18  2  0
  4  5  1  0
  5  6  1  0
 25 26  1  0
 26 27  2  0
 27 22  1  0
  6  1  1  0
 18  7  1  0
 18 10  1  0
 17 13  1  0
 14 19  1  0
M  END
> <minimizedAffinity>
-9.25857

> <CNNscore>
0.9374904037

> <CNNaffinity>
7.8222064972

> <CNN_VS>
7.3332433701

> <CNNaffinity_variance>
0.0731897354

$$$$



 27 31  0  0  0  0  0  0  0  0999 V2000
   11.6373   24.6178    7.7526 N   0  0  0  0  0  0  0  0  0  0  0  0
   11.4240   23.6876    8.8597 C   0  0  0  0  0  0  0  0  0  0  0  0
   11.0928   24.4673   10.1370 C   0  0  0  0  0  0  0  0  0  0  0  0
   11.8566   25.7996   10.2315 C   0  0  0  0  0  0  0  0  0  0  0  0
   13.1579   25.7222    9.4223 C   0  0  0  0  0  0  0  0  0  0  0  0
   12.8495   25.4338    7.9469 C   0  0  0  0  0  0  0  0  0  0  0  0
   12.0285   26.2162   11.6158 N   0  0  0  0  0  0  0  0  0  0  0  0
   11.9043   25.3827   12.7089 C   0  0  0  0  0  0  0  0  0  0  0  0
   12.1494   26.0003   13.8461 N   0  0  0  0  0  0  0  0  0  0  0  0
   12.4161   27.2988   13.4918 C   0  0  0  0  0  0  0  0  0  0  0  0
   12.7378   28.4344   14.2580 C   0  0  0  0  0  0  0  0  0  0  0  0
   12.9536   29.6682   13.7024 N   0  0  0  0  0  0  0  0  0  0  0  0
   12.8256   29.7156   12.3648 C   0  0  0  0  0  0  0  0  0  0  0  0
   12.9691   30.8082   11.5567 N   0  0  0  0  0  0  0  0  0  0  0  0
   12.7382   30.4446   10.2449 C   0  0  0  0  0  0  0  0  0  0  0  0
   12.4457   29.0903   10.2029 C   0  0  0  0  0  0  0  0  0  0  0  0
   12.5162   28.6532   11.5465 C   0  0  0  0  0  0  0  0  0  0  0  0
   12.3213   27.4325   12.1175 C   0  0  0  0  0  0  0  0  0  0  0  0
   13.2013   31.7147   11.8626 H   0  0  0  0  0  0  0  0  0  0  0  0
   11.6485   23.9206    6.4558 C   0  0  0  0  0  0  0  0  0  0  0  0
    9.2854   27.2295    1.9942 Cl  0  0  0  0  0  0  0  0  0  0  0  0
    9.9573   26.2868    3.2673 C   0  0  0  0  0  0  0  0  0  0  0  0
    9.4646   25.0068    3.5142 C   0  0  0  0  0  0  0  0  0  0  0  0
   10.0094   24.2390    4.5463 C   0  0  0  0  0  0  0  0  0  0  0  0
   11.0507   24.7483    5.3361 C   0  0  0  0  0  0  0  0  0  0  0  0
   11.5339   26.0405    5.0752 C   0  0  0  0  0  0  0  0  0  0  0  0
   10.9887   26.8082    4.0441 C   0  0  0  0  0  0  0  0  0  0  0  0
 21 22  1  0
 22 23  2  0
 23 24  1  0
 24 25  2  0
 25 20  1  0
 20  1  1  0
  1  2  1  0
  2  3  1  0
  3  4  1  0
  4  7  1  0
  7  8  1  0
  8  9  2  0
  9 10  1  0
 10 11  2  0
 11 12  1  0
 12 13  2  0
 13 14  1  0
 14 15  1  0
 15 16  2  0
 16 17  1  0
 17 18  2  0
  4  5  1  0
  5  6  1  0
 25 26  1  0
 26 27  2  0
 27 22  1  0
  6  1  1  0
 18  7  1  0
 18 10  1  0
 17 13  1  0
 14 19  1  0
M  END
> <minimizedAffinity>
-8.99843

> <CNNscore>
0.9254490137

> <CNNaffinity>
7.6468720436

> <CNN_VS>
7.0767903328

> <CNNaffinity_variance>
0.0131538622

$$$$



 27 31  0  0  0  0  0  0  0  0999 V2000
   11.6819   25.0068    7.0071 N   0  0  0  0  0  0  0  0  0  0  0  0
   10.4660   25.4674    7.6748 C   0  0  0  0  0  0  0  0  0  0  0  0
   10.8334   26.3504    8.8724 C   0  0  0  0  0  0  0  0  0  0  0  0
   12.1130   25.8785    9.5847 C   0  0  0  0  0  0  0  0  0  0  0  0
   12.3235   24.3762    9.3545 C   0  0  0  0  0  0  0  0  0  0  0  0
   12.4569   24.0823    7.8542 C   0  0  0  0  0  0  0  0  0  0  0  0
   12.1228   26.2838   10.9829 N   0  0  0  0  0  0  0  0  0  0  0  0
   11.9143   25.4331   12.0496 C   0  0  0  0  0  0  0  0  0  0  0  0
   12.0157   26.0449   13.2115 N   0  0  0  0  0  0  0  0  0  0  0  0
   12.2710   27.3562   12.8985 C   0  0  0  0  0  0  0  0  0  0  0  0
   12.4689   28.4929   13.7041 C   0  0  0  0  0  0  0  0  0  0  0  0
   12.6974   29.7402   13.1849 N   0  0  0  0  0  0  0  0  0  0  0  0
   12.7094   29.7996   11.8418 C   0  0  0  0  0  0  0  0  0  0  0  0
   12.8977   30.9064   11.0627 N   0  0  0  0  0  0  0  0  0  0  0  0
   12.8198   30.5510    9.7307 C   0  0  0  0  0  0  0  0  0  0  0  0
   12.5825   29.1879    9.6465 C   0  0  0  0  0  0  0  0  0  0  0  0
   12.5266   28.7370   10.9863 C   0  0  0  0  0  0  0  0  0  0  0  0
   12.3169   27.5034   11.5231 C   0  0  0  0  0  0  0  0  0  0  0  0
   13.0634   31.8166   11.3991 H   0  0  0  0  0  0  0  0  0  0  0  0
   11.3860   24.4234    5.6880 C   0  0  0  0  0  0  0  0  0  0  0  0
    6.8823   20.4079    5.8642 Cl  0  0  0  0  0  0  0  0  0  0  0  0
    8.1662   21.5523    5.8117 C   0  0  0  0  0  0  0  0  0  0  0  0
    7.9148   22.8546    5.3843 C   0  0  0  0  0  0  0  0  0  0  0  0
    8.9553   23.7858    5.3422 C   0  0  0  0  0  0  0  0  0  0  0  0
   10.2528   23.4183    5.7285 C   0  0  0  0  0  0  0  0  0  0  0  0
   10.4891   22.1016    6.1546 C   0  0  0  0  0  0  0  0  0  0  0  0
    9.4492   21.1706    6.1958 C   0  0  0  0  0  0  0  0  0  0  0  0
 21 22  1  0
 22 23  2  0
 23 24  1  0
 24 25  2  0
 25 20  1  0
 20  1  1  0
  1  2  1  0
  2  3  1  0
  3  4  1  0
  4  7  1  0
  7  8  1  0
  8  9  2  0
  9 10  1  0
 10 11  2  0
 11 12  1  0
 12 13  2  0
 13 14  1  0
 14 15  1  0
 15 16  2  0
 16 17  1  0
 17 18  2  0
  4  5  1  0
  5  6  1  0
 25 26  1  0
 26 27  2  0
 27 22  1  0
  6  1  1  0
 18  7  1  0
 18 10  1  0
 17 13  1  0
 14 19  1  0
M  END
> <minimizedAffinity>
-9.66303

> <CNNscore>
0.9165581465

> <CNNaffinity>
7.6168670654

> <CNN_VS>
6.9813017845

> <CNNaffinity_variance>
0.0847190842

$$$$



 27 31  0  0  0  0  0  0  0  0999 V2000
   11.5387   26.8409    6.5278 N   0  0  0  0  0  0  0  0  0  0  0  0
   11.2075   25.6146    7.2510 C   0  0  0  0  0  0  0  0  0  0  0  0
   10.9240   25.9391    8.7218 C   0  0  0  0  0  0  0  0  0  0  0  0
   11.8134   27.0739    9.2592 C   0  0  0  0  0  0  0  0  0  0  0  0
   13.1199   27.1467    8.4581 C   0  0  0  0  0  0  0  0  0  0  0  0
   12.8206   27.4137    6.9768 C   0  0  0  0  0  0  0  0  0  0  0  0
   11.9918   26.9717   10.7004 N   0  0  0  0  0  0  0  0  0  0  0  0
   11.8391   25.8107   11.4311 C   0  0  0  0  0  0  0  0  0  0  0  0
   12.0976   25.9815   12.7112 N   0  0  0  0  0  0  0  0  0  0  0  0
   12.4033   27.3134   12.8347 C   0  0  0  0  0  0  0  0  0  0  0  0
   12.7549   28.0971   13.9493 C   0  0  0  0  0  0  0  0  0  0  0  0
   13.0087   29.4408   13.8619 N   0  0  0  0  0  0  0  0  0  0  0  0
   12.8874   29.9594   12.6274 C   0  0  0  0  0  0  0  0  0  0  0  0
   13.0658   31.2619   12.2544 N   0  0  0  0  0  0  0  0  0  0  0  0
   12.8296   31.3899   10.9001 C   0  0  0  0  0  0  0  0  0  0  0  0
   12.4980   30.1459   10.3862 C   0  0  0  0  0  0  0  0  0  0  0  0
   12.5504   29.2622   11.4897 C   0  0  0  0  0  0  0  0  0  0  0  0
   12.3179   27.9247   11.5960 C   0  0  0  0  0  0  0  0  0  0  0  0
   13.3230   31.9958   12.8582 H   0  0  0  0  0  0  0  0  0  0  0  0
   11.5125   26.6325    5.0705 C   0  0  0  0  0  0  0  0  0  0  0  0
    8.1302   21.9012    3.4540 Cl  0  0  0  0  0  0  0  0  0  0  0  0
    9.0961   23.2488    3.9140 C   0  0  0  0  0  0  0  0  0  0  0  0
    9.5321   24.1502    2.9448 C   0  0  0  0  0  0  0  0  0  0  0  0
   10.3153   25.2458    3.3161 C   0  0  0  0  0  0  0  0  0  0  0  0
   10.6654   25.4451    4.6597 C   0  0  0  0  0  0  0  0  0  0  0  0
   10.2196   24.5264    5.6231 C   0  0  0  0  0  0  0  0  0  0  0  0
    9.4375   23.4308    5.2518 C   0  0  0  0  0  0  0  0  0  0  0  0
 21 22  1  0
 22 23  2  0
 23 24  1  0
 24 25  2  0
 25 20  1  0
 20  1  1  0
  1  2  1  0
  2  3  1  0
  3  4  1  0
  4  7  1  0
  7  8  1  0
  8  9  2  0
  9 10  1  0
 10 11  2  0
 11 12  1  0
 12 13  2  0
 13 14  1  0
 14 15  1  0
 15 16  2  0
 16 17  1  0
 17 18  2  0
  4  5  1  0
  5  6  1  0
 25 26  1  0
 26 27  2  0
 27 22  1  0
  6  1  1  0
 18  7  1  0
 18 10  1  0
 17 13  1  0
 14 19  1  0
M  END
> <minimizedAffinity>
-9.28641

> <CNNscore>
0.9094052911

> <CNNaffinity>
7.5725541115

> <CNN_VS>
6.8865208626

> <CNNaffinity_variance>
0.0316631533

$$$$



 27 31  0  0  0  0  0  0  0  0999 V2000
   11.8024   25.5015    7.1310 N   0  0  0  0  0  0  0  0  0  0  0  0
   12.5800   26.6805    6.7547 C   0  0  0  0  0  0  0  0  0  0  0  0
   13.1744   27.3327    8.0079 C   0  0  0  0  0  0  0  0  0  0  0  0
   12.2373   27.2385    9.2247 C   0  0  0  0  0  0  0  0  0  0  0  0
   10.7794   27.1181    8.7618 C   0  0  0  0  0  0  0  0  0  0  0  0
   10.5976   25.8610    7.9005 C   0  0  0  0  0  0  0  0  0  0  0  0
   12.4850   28.3170   10.1706 N   0  0  0  0  0  0  0  0  0  0  0  0
   12.7272   29.6299    9.8202 C   0  0  0  0  0  0  0  0  0  0  0  0
   12.8792   30.4130   10.8681 N   0  0  0  0  0  0  0  0  0  0  0  0
   12.7629   29.5791   11.9515 C   0  0  0  0  0  0  0  0  0  0  0  0
   12.8406   29.8206   13.3356 C   0  0  0  0  0  0  0  0  0  0  0  0
   12.7121   28.8276   14.2710 N   0  0  0  0  0  0  0  0  0  0  0  0
   12.5144   27.5975   13.7655 C   0  0  0  0  0  0  0  0  0  0  0  0
   12.3686   26.4296   14.4600 N   0  0  0  0  0  0  0  0  0  0  0  0
   12.2041   25.3839   13.5736 C   0  0  0  0  0  0  0  0  0  0  0  0
   12.2382   25.8854   12.2817 C   0  0  0  0  0  0  0  0  0  0  0  0
   12.4248   27.2799   12.4294 C   0  0  0  0  0  0  0  0  0  0  0  0
   12.5394   28.2841   11.5169 C   0  0  0  0  0  0  0  0  0  0  0  0
   12.3791   26.3467   15.4409 H   0  0  0  0  0  0  0  0  0  0  0  0
   11.4762   24.6727    5.9585 C   0  0  0  0  0  0  0  0  0  0  0  0
   10.4000   27.9408    0.9987 Cl  0  0  0  0  0  0  0  0  0  0  0  0
   10.7057   27.0107    2.4138 C   0  0  0  0  0  0  0  0  0  0  0  0
    9.6899   26.2287    2.9602 C   0  0  0  0  0  0  0  0  0  0  0  0
    9.9361   25.4717    4.1081 C   0  0  0  0  0  0  0  0  0  0  0  0
   11.2008   25.4930    4.7146 C   0  0  0  0  0  0  0  0  0  0  0  0
   12.2123   26.2879    4.1524 C   0  0  0  0  0  0  0  0  0  0  0  0
   11.9659   27.0452    3.0054 C   0  0  0  0  0  0  0  0  0  0  0  0
 21 22  1  0
 22 23  2  0
 23 24  1  0
 24 25  2  0
 25 20  1  0
 20  1  1  0
  1  2  1  0
  2  3  1  0
  3  4  1  0
  4  7  1  0
  7  8  1  0
  8  9  2  0
  9 10  1  0
 10 11  2  0
 11 12  1  0
 12 13  2  0
 13 14  1  0
 14 15  1  0
 15 16  2  0
 16 17  1  0
 17 18  2  0
  4  5  1  0
  5  6  1  0
 25 26  1  0
 26 27  2  0
 27 22  1  0
  6  1  1  0
 18  7  1  0
 18 10  1  0
 17 13  1  0
 14 19  1  0
M  END
> <minimizedAffinity>
-9.04937

> <CNNscore>
0.9052262902

> <CNNaffinity>
7.5643482208

> <CNN_VS>
6.8474469185

> <CNNaffinity_variance>
0.0882407799

$$$$



 27 31  0  0  0  0  0  0  0  0999 V2000
   11.5547   24.9399    7.5973 N   0  0  0  0  0  0  0  0  0  0  0  0
   10.7655   25.4562    8.7139 C   0  0  0  0  0  0  0  0  0  0  0  0
   10.8556   26.9857    8.7507 C   0  0  0  0  0  0  0  0  0  0  0  0
   12.2396   27.5070    8.3258 C   0  0  0  0  0  0  0  0  0  0  0  0
   13.3106   26.4405    8.5895 C   0  0  0  0  0  0  0  0  0  0  0  0
   12.9980   25.1657    7.7943 C   0  0  0  0  0  0  0  0  0  0  0  0
   12.5217   28.8073    8.9166 N   0  0  0  0  0  0  0  0  0  0  0  0
   12.7942   29.9544    8.1990 C   0  0  0  0  0  0  0  0  0  0  0  0
   12.9739   31.0044    8.9735 N   0  0  0  0  0  0  0  0  0  0  0  0
   12.8450   30.5253   10.2528 C   0  0  0  0  0  0  0  0  0  0  0  0
   12.9394   31.1572   11.5065 C   0  0  0  0  0  0  0  0  0  0  0  0
   12.7932   30.4833   12.6906 N   0  0  0  0  0  0  0  0  0  0  0  0
   12.5607   29.1650   12.5653 C   0  0  0  0  0  0  0  0  0  0  0  0
   12.3908   28.2541   13.5697 N   0  0  0  0  0  0  0  0  0  0  0  0
   12.1932   27.0003   13.0263 C   0  0  0  0  0  0  0  0  0  0  0  0
   12.2300   27.1029   11.6444 C   0  0  0  0  0  0  0  0  0  0  0  0
   12.4529   28.4746   11.3795 C   0  0  0  0  0  0  0  0  0  0  0  0
   12.5856   29.1663   10.2142 C   0  0  0  0  0  0  0  0  0  0  0  0
   12.4069   28.4601   14.5323 H   0  0  0  0  0  0  0  0  0  0  0  0
   11.2532   23.5233    7.3320 C   0  0  0  0  0  0  0  0  0  0  0  0
    8.5024   22.6425    2.0314 Cl  0  0  0  0  0  0  0  0  0  0  0  0
    9.2886   22.8934    3.5414 C   0  0  0  0  0  0  0  0  0  0  0  0
    9.8398   24.1390    3.8355 C   0  0  0  0  0  0  0  0  0  0  0  0
   10.4773   24.3455    5.0613 C   0  0  0  0  0  0  0  0  0  0  0  0
   10.5656   23.3063    5.9993 C   0  0  0  0  0  0  0  0  0  0  0  0
   10.0067   22.0570    5.6861 C   0  0  0  0  0  0  0  0  0  0  0  0
    9.3703   21.8504    4.4605 C   0  0  0  0  0  0  0  0  0  0  0  0
 21 22  1  0
 22 23  2  0
 23 24  1  0
 24 25  2  0
 25 20  1  0
 20  1  1  0
  1  2  1  0
  2  3  1  0
  3  4  1  0
  4  7  1  0
  7  8  1  0
  8  9  2  0
  9 10  1  0
 10 11  2  0
 11 12  1  0
 12 13  2  0
 13 14  1  0
 14 15  1  0
 15 16  2  0
 16 17  1  0
 17 18  2  0
  4  5  1  0
  5  6  1  0
 25 26  1  0
 26 27  2  0
 27 22  1  0
  6  1  1  0
 18  7  1  0
 18 10  1  0
 17 13  1  0
 14 19  1  0
M  END
> <minimizedAffinity>
-8.47742

> <CNNscore>
0.8173438907

> <CNNaffinity>
7.4231009483

> <CNN_VS>
6.0672264099

> <CNNaffinity_variance>
0.1812747568

$$$$
