


 25 25  0  0  0  0  0  0  0  0999 V2000
   43.9922   16.1565   -0.4518 C   0  0  0  0  0  0  0  0  0  0  0  0
   44.2863   16.2881   -1.9800 C   0  0  0  0  0  0  0  0  0  0  0  0
   45.3444   17.3975   -2.2145 C   0  0  0  0  0  0  0  0  0  0  0  0
   43.0183   16.7037   -2.7380 C   0  0  0  0  0  0  0  0  0  0  0  0
   44.9263   14.9628   -2.5411 C   0  0  0  0  0  0  0  0  0  0  0  0
   44.1144   13.7711   -3.1890 C   0  0  0  0  0  0  0  0  0  0  0  0
   42.6017   14.0679   -3.1204 C   0  0  0  0  0  0  0  0  0  0  0  0
   44.5087   13.7781   -4.6830 C   0  0  0  0  0  0  0  0  0  0  0  0
   44.4703   12.4186   -2.5056 C   0  0  0  0  0  0  0  0  0  0  0  0
   43.9698    9.9683   -1.8836 C   0  0  0  0  0  0  0  0  0  0  0  0
   43.9727   11.0230   -3.0055 C   0  0  0  0  0  0  0  0  0  0  0  0
   44.7485   10.4845   -4.2124 C   0  0  0  0  0  0  0  0  0  0  0  0
   42.4973   11.2072   -3.4454 C   0  0  0  0  0  0  0  0  0  0  0  0
   44.4585   14.8794    0.2615 C   0  0  0  0  0  0  0  0  0  0  0  0
   44.0068   14.8825    1.6184 O   0  0  0  0  0  0  0  0  0  0  0  0
   45.0024   14.5621    2.4809 C   0  0  0  0  0  0  0  0  0  0  0  0
   45.7817   13.3779    2.3980 C   0  0  0  0  0  0  0  0  0  0  0  0
   45.4986   12.0430    1.0920 Br  0  0  0  0  0  0  0  0  0  0  0  0
   46.7539   13.3085    3.3616 C   0  0  0  0  0  0  0  0  0  0  0  0
   46.7425   14.6986    4.3547 S   0  0  0  0  0  0  0  0  0  0  0  0
   45.4332   15.4107    3.4873 C   0  0  0  0  0  0  0  0  0  0  0  0
   44.9169   16.7143    3.8436 C   0  0  0  0  0  0  0  0  0  0  0  0
   44.7098   17.1641    4.9621 O   0  0  0  0  0  0  0  0  0  0  0  0
   44.6547   17.4983    2.7715 O   0  0  0  0  0  0  0  0  0  0  0  0
   44.8060   17.1739    1.9056 H   0  0  0  0  0  0  0  0  0  0  0  0
 10 11  1  0
 11 12  1  0
 11 13  1  0
 11  9  1  0
  9  6  1  0
  6  7  1  0
  6  8  1  0
  6  5  1  0
  5  2  1  0
  2  3  1  0
  2  4  1  0
  2  1  1  0
  1 14  1  0
 14 15  1  0
 15 16  1  0
 16 17  1  0
 17 18  1  0
 17 19  2  0
 19 20  1  0
 20 21  1  0
 21 22  1  0
 22 23  2  0
 22 24  1  0
 21 16  2  0
 24 25  1  0
M  END
> <minimizedAffinity>
-5.91422

> <CNNscore>
0.5809696913

> <CNNaffinity>
6.0455093384

> <CNN_VS>
3.5122575760

> <CNNaffinity_variance>
0.0654426143

$$$$



 25 25  0  0  0  0  0  0  0  0999 V2000
   44.0527   14.5437   -0.7609 C   0  0  0  0  0  0  0  0  0  0  0  0
   44.4652   15.0062   -2.1945 C   0  0  0  0  0  0  0  0  0  0  0  0
   43.4087   14.5249   -3.2228 C   0  0  0  0  0  0  0  0  0  0  0  0
   45.8072   14.3798   -2.5965 C   0  0  0  0  0  0  0  0  0  0  0  0
   44.4711   16.5783   -2.2933 C   0  0  0  0  0  0  0  0  0  0  0  0
   45.0861   17.4060   -3.4915 C   0  0  0  0  0  0  0  0  0  0  0  0
   46.5250   17.8422   -3.1444 C   0  0  0  0  0  0  0  0  0  0  0  0
   45.1882   16.4050   -4.6642 C   0  0  0  0  0  0  0  0  0  0  0  0
   44.1832   18.6224   -3.8492 C   0  0  0  0  0  0  0  0  0  0  0  0
   41.8914   17.4682   -4.0878 C   0  0  0  0  0  0  0  0  0  0  0  0
   42.8545   18.5208   -4.6673 C   0  0  0  0  0  0  0  0  0  0  0  0
   43.0656   18.2538   -6.1615 C   0  0  0  0  0  0  0  0  0  0  0  0
   42.1440   19.8926   -4.5357 C   0  0  0  0  0  0  0  0  0  0  0  0
   44.4729   15.4227    0.4256 C   0  0  0  0  0  0  0  0  0  0  0  0
   44.0038   14.8514    1.6498 O   0  0  0  0  0  0  0  0  0  0  0  0
   45.0261   14.5383    2.4833 C   0  0  0  0  0  0  0  0  0  0  0  0
   45.7397   13.3112    2.4474 C   0  0  0  0  0  0  0  0  0  0  0  0
   45.3221   11.9065    1.2555 Br  0  0  0  0  0  0  0  0  0  0  0  0
   46.7565   13.2563    3.3647 C   0  0  0  0  0  0  0  0  0  0  0  0
   46.8668   14.7102    4.2552 S   0  0  0  0  0  0  0  0  0  0  0  0
   45.5509   15.4299    3.4042 C   0  0  0  0  0  0  0  0  0  0  0  0
   45.1199   16.7807    3.6912 C   0  0  0  0  0  0  0  0  0  0  0  0
   44.6485   17.6028    2.9176 O   0  0  0  0  0  0  0  0  0  0  0  0
   45.2693   17.1262    4.9916 O   0  0  0  0  0  0  0  0  0  0  0  0
   45.6283   16.5119    5.6013 H   0  0  0  0  0  0  0  0  0  0  0  0
 10 11  1  0
 11 12  1  0
 11 13  1  0
 11  9  1  0
  9  6  1  0
  6  7  1  0
  6  8  1  0
  6  5  1  0
  5  2  1  0
  2  3  1  0
  2  4  1  0
  2  1  1  0
  1 14  1  0
 14 15  1  0
 15 16  1  0
 16 17  1  0
 17 18  1  0
 17 19  2  0
 19 20  1  0
 20 21  1  0
 21 22  1  0
 22 23  2  0
 22 24  1  0
 21 16  2  0
 24 25  1  0
M  END
> <minimizedAffinity>
-5.74067

> <CNNscore>
0.3649432957

> <CNNaffinity>
5.4799766541

> <CNN_VS>
1.9998807907

> <CNNaffinity_variance>
0.0221294966

$$$$



 25 25  0  0  0  0  0  0  0  0999 V2000
   43.7958   15.9404   -0.7320 C   0  0  0  0  0  0  0  0  0  0  0  0
   43.8414   15.7046   -2.2752 C   0  0  0  0  0  0  0  0  0  0  0  0
   43.4642   14.2336   -2.5901 C   0  0  0  0  0  0  0  0  0  0  0  0
   45.2605   15.9336   -2.8127 C   0  0  0  0  0  0  0  0  0  0  0  0
   42.7615   16.5877   -3.0067 C   0  0  0  0  0  0  0  0  0  0  0  0
   41.3617   16.0624   -3.5202 C   0  0  0  0  0  0  0  0  0  0  0  0
   40.7288   17.0990   -4.4720 C   0  0  0  0  0  0  0  0  0  0  0  0
   41.6851   14.8107   -4.3665 C   0  0  0  0  0  0  0  0  0  0  0  0
   40.4221   15.7237   -2.3263 C   0  0  0  0  0  0  0  0  0  0  0  0
   38.2146   15.0813   -1.1621 C   0  0  0  0  0  0  0  0  0  0  0  0
   39.0181   15.0517   -2.4754 C   0  0  0  0  0  0  0  0  0  0  0  0
   39.0716   13.6167   -3.0105 C   0  0  0  0  0  0  0  0  0  0  0  0
   38.2240   15.9014   -3.5009 C   0  0  0  0  0  0  0  0  0  0  0  0
   44.5194   14.9307    0.1702 C   0  0  0  0  0  0  0  0  0  0  0  0
   44.1720   15.1585    1.5386 O   0  0  0  0  0  0  0  0  0  0  0  0
   45.1488   14.7426    2.3816 C   0  0  0  0  0  0  0  0  0  0  0  0
   45.6277   13.4078    2.4539 C   0  0  0  0  0  0  0  0  0  0  0  0
   44.9230   11.9985    1.4121 Br  0  0  0  0  0  0  0  0  0  0  0  0
   46.6485   13.2535    3.3553 C   0  0  0  0  0  0  0  0  0  0  0  0
   47.0497   14.7391    4.0976 S   0  0  0  0  0  0  0  0  0  0  0  0
   45.8570   15.6050    3.2022 C   0  0  0  0  0  0  0  0  0  0  0  0
   45.6869   17.0326    3.3629 C   0  0  0  0  0  0  0  0  0  0  0  0
   46.4402   17.8254    3.9109 O   0  0  0  0  0  0  0  0  0  0  0  0
   44.5412   17.5009    2.8144 O   0  0  0  0  0  0  0  0  0  0  0  0
   43.9498   16.9111    2.3898 H   0  0  0  0  0  0  0  0  0  0  0  0
 10 11  1  0
 11 12  1  0
 11 13  1  0
 11  9  1  0
  9  6  1  0
  6  7  1  0
  6  8  1  0
  6  5  1  0
  5  2  1  0
  2  3  1  0
  2  4  1  0
  2  1  1  0
  1 14  1  0
 14 15  1  0
 15 16  1  0
 16 17  1  0
 17 18  1  0
 17 19  2  0
 19 20  1  0
 20 21  1  0
 21 22  1  0
 22 23  2  0
 22 24  1  0
 21 16  2  0
 24 25  1  0
M  END
> <minimizedAffinity>
-6.21665

> <CNNscore>
0.3605841994

> <CNNaffinity>
5.4718194008

> <CNN_VS>
1.9730516672

> <CNNaffinity_variance>
0.0187113658

$$$$



 25 25  0  0  0  0  0  0  0  0999 V2000
   44.7580   11.7808    1.2161 C   0  0  0  0  0  0  0  0  0  0  0  0
   45.3165   10.8759    0.0722 C   0  0  0  0  0  0  0  0  0  0  0  0
   45.0303   11.5352   -1.3021 C   0  0  0  0  0  0  0  0  0  0  0  0
   44.6150    9.5110    0.0749 C   0  0  0  0  0  0  0  0  0  0  0  0
   46.8841   10.7570    0.1700 C   0  0  0  0  0  0  0  0  0  0  0  0
   47.7731    9.7867   -0.7059 C   0  0  0  0  0  0  0  0  0  0  0  0
   46.8947    8.6701   -1.3081 C   0  0  0  0  0  0  0  0  0  0  0  0
   48.2749   10.6513   -1.8842 C   0  0  0  0  0  0  0  0  0  0  0  0
   48.9534    9.2082    0.1278 C   0  0  0  0  0  0  0  0  0  0  0  0
   48.2514    6.9018    1.0382 C   0  0  0  0  0  0  0  0  0  0  0  0
   48.7773    8.3052    1.3921 C   0  0  0  0  0  0  0  0  0  0  0  0
   47.8913    8.9250    2.4780 C   0  0  0  0  0  0  0  0  0  0  0  0
   50.1902    8.1093    2.0002 C   0  0  0  0  0  0  0  0  0  0  0  0
   45.2017   13.2502    1.2505 C   0  0  0  0  0  0  0  0  0  0  0  0
   44.5261   13.9421    2.3040 O   0  0  0  0  0  0  0  0  0  0  0  0
   45.1174   15.1288    2.5868 C   0  0  0  0  0  0  0  0  0  0  0  0
   44.9474   16.3101    1.8173 C   0  0  0  0  0  0  0  0  0  0  0  0
   43.9058   16.3779    0.2430 Br  0  0  0  0  0  0  0  0  0  0  0  0
   45.6167   17.3878    2.3362 C   0  0  0  0  0  0  0  0  0  0  0  0
   46.4320   16.9746    3.7796 S   0  0  0  0  0  0  0  0  0  0  0  0
   45.8811   15.3414    3.7226 C   0  0  0  0  0  0  0  0  0  0  0  0
   46.2304   14.3944    4.7589 C   0  0  0  0  0  0  0  0  0  0  0  0
   46.0299   14.4843    5.9622 O   0  0  0  0  0  0  0  0  0  0  0  0
   46.8452   13.2848    4.2858 O   0  0  0  0  0  0  0  0  0  0  0  0
   47.0086   13.1952    3.3675 H   0  0  0  0  0  0  0  0  0  0  0  0
 10 11  1  0
 11 12  1  0
 11 13  1  0
 11  9  1  0
  9  6  1  0
  6  7  1  0
  6  8  1  0
  6  5  1  0
  5  2  1  0
  2  3  1  0
  2  4  1  0
  2  1  1  0
  1 14  1  0
 14 15  1  0
 15 16  1  0
 16 17  1  0
 17 18  1  0
 17 19  2  0
 19 20  1  0
 20 21  1  0
 21 22  1  0
 22 23  2  0
 22 24  1  0
 21 16  2  0
 24 25  1  0
M  END
> <minimizedAffinity>
-5.78272

> <CNNscore>
0.3577222228

> <CNNaffinity>
5.4549860954

> <CNN_VS>
1.9513697624

> <CNNaffinity_variance>
0.0072630607

$$$$



 25 25  0  0  0  0  0  0  0  0999 V2000
   43.7328   15.7311   -0.4371 C   0  0  0  0  0  0  0  0  0  0  0  0
   44.2353   16.2148   -1.8345 C   0  0  0  0  0  0  0  0  0  0  0  0
   45.1455   15.1297   -2.4665 C   0  0  0  0  0  0  0  0  0  0  0  0
   45.0802   17.4879   -1.6912 C   0  0  0  0  0  0  0  0  0  0  0  0
   43.0281   16.3920   -2.8307 C   0  0  0  0  0  0  0  0  0  0  0  0
   43.1513   16.9250   -4.3139 C   0  0  0  0  0  0  0  0  0  0  0  0
   42.9363   15.7648   -5.3083 C   0  0  0  0  0  0  0  0  0  0  0  0
   41.9654   17.8991   -4.4935 C   0  0  0  0  0  0  0  0  0  0  0  0
   44.5186   17.6341   -4.5390 C   0  0  0  0  0  0  0  0  0  0  0  0
   46.2427   19.1941   -5.6503 C   0  0  0  0  0  0  0  0  0  0  0  0
   44.8048   18.6449   -5.6971 C   0  0  0  0  0  0  0  0  0  0  0  0
   43.8131   19.8115   -5.7607 C   0  0  0  0  0  0  0  0  0  0  0  0
   44.6756   17.8517   -7.0231 C   0  0  0  0  0  0  0  0  0  0  0  0
   44.4860   16.2241    0.8067 C   0  0  0  0  0  0  0  0  0  0  0  0
   44.0439   15.5089    1.9635 O   0  0  0  0  0  0  0  0  0  0  0  0
   45.0746   14.9106    2.6095 C   0  0  0  0  0  0  0  0  0  0  0  0
   45.5606   13.6108    2.3079 C   0  0  0  0  0  0  0  0  0  0  0  0
   44.7932   12.5007    0.9862 Br  0  0  0  0  0  0  0  0  0  0  0  0
   46.6384   13.2512    3.0744 C   0  0  0  0  0  0  0  0  0  0  0  0
   47.0832   14.5057    4.1455 S   0  0  0  0  0  0  0  0  0  0  0  0
   45.8326   15.5484    3.5776 C   0  0  0  0  0  0  0  0  0  0  0  0
   45.6696   16.8842    4.1085 C   0  0  0  0  0  0  0  0  0  0  0  0
   46.4444   17.8275    4.0292 O   0  0  0  0  0  0  0  0  0  0  0  0
   44.4946   17.0638    4.7565 O   0  0  0  0  0  0  0  0  0  0  0  0
   43.8864   16.3547    4.8290 H   0  0  0  0  0  0  0  0  0  0  0  0
 10 11  1  0
 11 12  1  0
 11 13  1  0
 11  9  1  0
  9  6  1  0
  6  7  1  0
  6  8  1  0
  6  5  1  0
  5  2  1  0
  2  3  1  0
  2  4  1  0
  2  1  1  0
  1 14  1  0
 14 15  1  0
 15 16  1  0
 16 17  1  0
 17 18  1  0
 17 19  2  0
 19 20  1  0
 20 21  1  0
 21 22  1  0
 22 23  2  0
 22 24  1  0
 21 16  2  0
 24 25  1  0
M  END
> <minimizedAffinity>
-6.08076

> <CNNscore>
0.3473021090

> <CNNaffinity>
5.4136748314

> <CNN_VS>
1.8801807165

> <CNNaffinity_variance>
0.0552300699

$$$$



 25 25  0  0  0  0  0  0  0  0999 V2000
   45.0088   11.4881    1.3724 C   0  0  0  0  0  0  0  0  0  0  0  0
   45.2551   10.9084   -0.0567 C   0  0  0  0  0  0  0  0  0  0  0  0
   44.5785   11.8195   -1.1137 C   0  0  0  0  0  0  0  0  0  0  0  0
   44.6242    9.5156   -0.1883 C   0  0  0  0  0  0  0  0  0  0  0  0
   46.7911   10.9183   -0.4056 C   0  0  0  0  0  0  0  0  0  0  0  0
   47.6900    9.6277   -0.5649 C   0  0  0  0  0  0  0  0  0  0  0  0
   48.3541    9.2807    0.7840 C   0  0  0  0  0  0  0  0  0  0  0  0
   46.7023    8.4845   -0.8891 C   0  0  0  0  0  0  0  0  0  0  0  0
   48.7422    9.8181   -1.6959 C   0  0  0  0  0  0  0  0  0  0  0  0
   50.3455   11.6295   -0.8073 C   0  0  0  0  0  0  0  0  0  0  0  0
   49.4801   11.1643   -1.9930 C   0  0  0  0  0  0  0  0  0  0  0  0
   48.5464   12.3011   -2.4223 C   0  0  0  0  0  0  0  0  0  0  0  0
   50.4510   10.8900   -3.1704 C   0  0  0  0  0  0  0  0  0  0  0  0
   44.5124   12.9367    1.4837 C   0  0  0  0  0  0  0  0  0  0  0  0
   45.6220   13.8386    1.4620 O   0  0  0  0  0  0  0  0  0  0  0  0
   45.3509   14.9861    2.1310 C   0  0  0  0  0  0  0  0  0  0  0  0
   44.6451   16.0868    1.5772 C   0  0  0  0  0  0  0  0  0  0  0  0
   44.0275   16.1269   -0.2075 Br  0  0  0  0  0  0  0  0  0  0  0  0
   44.4625   17.1098    2.4708 C   0  0  0  0  0  0  0  0  0  0  0  0
   45.1237   16.7239    3.9981 S   0  0  0  0  0  0  0  0  0  0  0  0
   45.6527   15.1698    3.4703 C   0  0  0  0  0  0  0  0  0  0  0  0
   46.3214   14.2577    4.3724 C   0  0  0  0  0  0  0  0  0  0  0  0
   46.9600   13.2525    4.0929 O   0  0  0  0  0  0  0  0  0  0  0  0
   46.2033   14.6088    5.6745 O   0  0  0  0  0  0  0  0  0  0  0  0
   45.7186   15.3750    5.9111 H   0  0  0  0  0  0  0  0  0  0  0  0
 10 11  1  0
 11 12  1  0
 11 13  1  0
 11  9  1  0
  9  6  1  0
  6  7  1  0
  6  8  1  0
  6  5  1  0
  5  2  1  0
  2  3  1  0
  2  4  1  0
  2  1  1  0
  1 14  1  0
 14 15  1  0
 15 16  1  0
 16 17  1  0
 17 18  1  0
 17 19  2  0
 19 20  1  0
 20 21  1  0
 21 22  1  0
 22 23  2  0
 22 24  1  0
 21 16  2  0
 24 25  1  0
M  END
> <minimizedAffinity>
-5.38413

> <CNNscore>
0.3311668336

> <CNNaffinity>
5.2303447723

> <CNN_VS>
1.7321166992

> <CNNaffinity_variance>
0.2634910643

$$$$



 25 25  0  0  0  0  0  0  0  0999 V2000
   43.7778   16.0675   -1.0191 C   0  0  0  0  0  0  0  0  0  0  0  0
   43.1916   15.5854   -2.3841 C   0  0  0  0  0  0  0  0  0  0  0  0
   41.6522   15.7742   -2.3873 C   0  0  0  0  0  0  0  0  0  0  0  0
   43.4652   14.0893   -2.5887 C   0  0  0  0  0  0  0  0  0  0  0  0
   43.7325   16.4726   -3.5680 C   0  0  0  0  0  0  0  0  0  0  0  0
   44.6969   17.7138   -3.3995 C   0  0  0  0  0  0  0  0  0  0  0  0
   43.8900   19.0244   -3.5097 C   0  0  0  0  0  0  0  0  0  0  0  0
   45.2193   17.6259   -1.9479 C   0  0  0  0  0  0  0  0  0  0  0  0
   45.8586   17.6607   -4.4341 C   0  0  0  0  0  0  0  0  0  0  0  0
   46.8832   15.4534   -3.5860 C   0  0  0  0  0  0  0  0  0  0  0  0
   47.1604   16.8139   -4.2520 C   0  0  0  0  0  0  0  0  0  0  0  0
   48.2710   17.5415   -3.4868 C   0  0  0  0  0  0  0  0  0  0  0  0
   47.6974   16.5104   -5.6746 C   0  0  0  0  0  0  0  0  0  0  0  0
   44.4806   15.0293   -0.1330 C   0  0  0  0  0  0  0  0  0  0  0  0
   44.0707   15.1879    1.2279 O   0  0  0  0  0  0  0  0  0  0  0  0
   45.0120   14.7364    2.0928 C   0  0  0  0  0  0  0  0  0  0  0  0
   45.5056   13.4051    2.1137 C   0  0  0  0  0  0  0  0  0  0  0  0
   44.8714   12.0488    0.9621 Br  0  0  0  0  0  0  0  0  0  0  0  0
   46.4844   13.2119    3.0535 C   0  0  0  0  0  0  0  0  0  0  0  0
   46.8287   14.6578    3.8959 S   0  0  0  0  0  0  0  0  0  0  0  0
   45.6680   15.5592    2.9935 C   0  0  0  0  0  0  0  0  0  0  0  0
   45.4703   16.9734    3.2250 C   0  0  0  0  0  0  0  0  0  0  0  0
   46.1496   17.7287    3.9065 O   0  0  0  0  0  0  0  0  0  0  0  0
   44.3924   17.4768    2.5789 O   0  0  0  0  0  0  0  0  0  0  0  0
   43.8582   16.9160    2.0516 H   0  0  0  0  0  0  0  0  0  0  0  0
 10 11  1  0
 11 12  1  0
 11 13  1  0
 11  9  1  0
  9  6  1  0
  6  7  1  0
  6  8  1  0
  6  5  1  0
  5  2  1  0
  2  3  1  0
  2  4  1  0
  2  1  1  0
  1 14  1  0
 14 15  1  0
 15 16  1  0
 16 17  1  0
 17 18  1  0
 17 19  2  0
 19 20  1  0
 20 21  1  0
 21 22  1  0
 22 23  2  0
 22 24  1  0
 21 16  2  0
 24 25  1  0
M  END
> <minimizedAffinity>
-6.05422

> <CNNscore>
0.3271484971

> <CNNaffinity>
5.3206157684

> <CNN_VS>
1.7406314611

> <CNNaffinity_variance>
0.0556567125

$$$$



 25 25  0  0  0  0  0  0  0  0999 V2000
   43.7662   16.0228   -0.7070 C   0  0  0  0  0  0  0  0  0  0  0  0
   44.1935   16.3883   -2.1640 C   0  0  0  0  0  0  0  0  0  0  0  0
   44.8780   15.1662   -2.8297 C   0  0  0  0  0  0  0  0  0  0  0  0
   45.2176   17.5313   -2.1536 C   0  0  0  0  0  0  0  0  0  0  0  0
   42.9321   16.7067   -3.0520 C   0  0  0  0  0  0  0  0  0  0  0  0
   42.9593   17.5414   -4.3942 C   0  0  0  0  0  0  0  0  0  0  0  0
   43.4049   18.9897   -4.1029 C   0  0  0  0  0  0  0  0  0  0  0  0
   44.0682   16.8918   -5.2521 C   0  0  0  0  0  0  0  0  0  0  0  0
   41.5767   17.4938   -5.1076 C   0  0  0  0  0  0  0  0  0  0  0  0
   39.7185   16.3688   -3.7210 C   0  0  0  0  0  0  0  0  0  0  0  0
   40.5725   16.3000   -5.0005 C   0  0  0  0  0  0  0  0  0  0  0  0
   41.2353   14.9219   -5.1001 C   0  0  0  0  0  0  0  0  0  0  0  0
   39.5933   16.4327   -6.1954 C   0  0  0  0  0  0  0  0  0  0  0  0
   44.6658   15.0639    0.0857 C   0  0  0  0  0  0  0  0  0  0  0  0
   44.0829   14.7864    1.3618 O   0  0  0  0  0  0  0  0  0  0  0  0
   45.0168   14.4149    2.2716 C   0  0  0  0  0  0  0  0  0  0  0  0
   45.7382   13.1928    2.2234 C   0  0  0  0  0  0  0  0  0  0  0  0
   45.4532   11.8752    0.9002 Br  0  0  0  0  0  0  0  0  0  0  0  0
   46.6564   13.0731    3.2338 C   0  0  0  0  0  0  0  0  0  0  0  0
   46.6661   14.4610    4.2300 S   0  0  0  0  0  0  0  0  0  0  0  0
   45.4394   15.2396    3.3011 C   0  0  0  0  0  0  0  0  0  0  0  0
   44.9728   16.5674    3.6359 C   0  0  0  0  0  0  0  0  0  0  0  0
   44.9592   17.5637    2.9263 O   0  0  0  0  0  0  0  0  0  0  0  0
   44.4940   16.6648    4.8984 O   0  0  0  0  0  0  0  0  0  0  0  0
   44.4950   15.9141    5.4591 H   0  0  0  0  0  0  0  0  0  0  0  0
 10 11  1  0
 11 12  1  0
 11 13  1  0
 11  9  1  0
  9  6  1  0
  6  7  1  0
  6  8  1  0
  6  5  1  0
  5  2  1  0
  2  3  1  0
  2  4  1  0
  2  1  1  0
  1 14  1  0
 14 15  1  0
 15 16  1  0
 16 17  1  0
 17 18  1  0
 17 19  2  0
 19 20  1  0
 20 21  1  0
 21 22  1  0
 22 23  2  0
 22 24  1  0
 21 16  2  0
 24 25  1  0
M  END
> <minimizedAffinity>
-5.72701

> <CNNscore>
0.3246604204

> <CNNaffinity>
5.3118305206

> <CNN_VS>
1.7245411873

> <CNNaffinity_variance>
0.0583210997

$$$$



 25 25  0  0  0  0  0  0  0  0999 V2000
   44.5847   11.9827    0.9175 C   0  0  0  0  0  0  0  0  0  0  0  0
   45.2697   11.0353   -0.1180 C   0  0  0  0  0  0  0  0  0  0  0  0
   45.0040   11.5534   -1.5555 C   0  0  0  0  0  0  0  0  0  0  0  0
   44.6773    9.6225   -0.0287 C   0  0  0  0  0  0  0  0  0  0  0  0
   46.8348   11.0536    0.0593 C   0  0  0  0  0  0  0  0  0  0  0  0
   47.7514    9.7675    0.1283 C   0  0  0  0  0  0  0  0  0  0  0  0
   47.3528    8.7782   -0.9869 C   0  0  0  0  0  0  0  0  0  0  0  0
   49.1759   10.2680   -0.2001 C   0  0  0  0  0  0  0  0  0  0  0  0
   47.6824    9.1095    1.5372 C   0  0  0  0  0  0  0  0  0  0  0  0
   48.2153    7.4188    3.4078 C   0  0  0  0  0  0  0  0  0  0  0  0
   48.5612    7.8963    1.9852 C   0  0  0  0  0  0  0  0  0  0  0  0
   50.0687    8.1520    1.8836 C   0  0  0  0  0  0  0  0  0  0  0  0
   48.2228    6.7236    1.0289 C   0  0  0  0  0  0  0  0  0  0  0  0
   44.9406   13.4754    0.8700 C   0  0  0  0  0  0  0  0  0  0  0  0
   44.3435   14.1576    1.9760 O   0  0  0  0  0  0  0  0  0  0  0  0
   45.2225   14.9876    2.5892 C   0  0  0  0  0  0  0  0  0  0  0  0
   46.3946   14.5539    3.2635 C   0  0  0  0  0  0  0  0  0  0  0  0
   46.8675   12.7346    3.4490 Br  0  0  0  0  0  0  0  0  0  0  0  0
   47.1398   15.5905    3.7620 C   0  0  0  0  0  0  0  0  0  0  0  0
   46.4319   17.0994    3.3866 S   0  0  0  0  0  0  0  0  0  0  0  0
   45.1198   16.3680    2.5396 C   0  0  0  0  0  0  0  0  0  0  0  0
   44.0947   17.1690    1.9068 C   0  0  0  0  0  0  0  0  0  0  0  0
   43.7014   18.2820    2.2275 O   0  0  0  0  0  0  0  0  0  0  0  0
   43.5391   16.5723    0.8260 O   0  0  0  0  0  0  0  0  0  0  0  0
   43.8254   15.7198    0.5627 H   0  0  0  0  0  0  0  0  0  0  0  0
 10 11  1  0
 11 12  1  0
 11 13  1  0
 11  9  1  0
  9  6  1  0
  6  7  1  0
  6  8  1  0
  6  5  1  0
  5  2  1  0
  2  3  1  0
  2  4  1  0
  2  1  1  0
  1 14  1  0
 14 15  1  0
 15 16  1  0
 16 17  1  0
 17 18  1  0
 17 19  2  0
 19 20  1  0
 20 21  1  0
 21 22  1  0
 22 23  2  0
 22 24  1  0
 21 16  2  0
 24 25  1  0
M  END
> <minimizedAffinity>
-6.63734

> <CNNscore>
0.3061015904

> <CNNaffinity>
5.3178329468

> <CNN_VS>
1.6277971268

> <CNNaffinity_variance>
0.2045107335

$$$$
