


 25 26  0  0  0  0  0  0  0  0999 V2000
   24.6863   24.2963   29.7069 C   0  0  0  0  0  0  0  0  0  0  0  0
   25.9640   24.2520   29.0751 O   0  0  0  0  0  0  0  0  0  0  0  0
   26.0414   23.5431   27.8276 C   0  0  0  0  0  0  0  0  0  0  0  0
   25.0167   22.4062   27.7385 C   0  0  0  0  0  0  0  0  0  0  0  0
   25.2769   21.4422   28.7734 O   0  0  0  0  0  0  0  0  0  0  0  0
   23.5848   22.9190   27.9047 C   0  0  0  0  0  0  0  0  0  0  0  0
   23.0938   23.2004   26.6568 F   0  0  0  0  0  0  0  0  0  0  0  0
   23.4810   24.1949   28.7483 C   0  0  0  0  0  0  0  0  0  0  0  0
   22.2437   24.1854   29.4854 O   0  0  0  0  0  0  0  0  0  0  0  0
   25.1856   21.8665   29.6409 H   0  0  0  0  0  0  0  0  0  0  0  0
   22.2231   23.4138   30.0729 H   0  0  0  0  0  0  0  0  0  0  0  0
   24.4423   28.8351   32.8818 N   0  0  0  0  0  0  0  0  0  0  0  0
   24.5176   27.7262   32.0807 C   0  0  0  0  0  0  0  0  0  0  0  0
   23.8233   26.6873   32.4386 N   0  0  0  0  0  0  0  0  0  0  0  0
   23.8382   25.5455   31.6677 C   0  0  0  0  0  0  0  0  0  0  0  0
   23.1616   24.5710   31.9915 O   0  0  0  0  0  0  0  0  0  0  0  0
   24.6534   25.5144   30.5272 N   0  0  0  0  0  0  0  0  0  0  0  0
   25.4024   26.6120   30.1504 C   0  0  0  0  0  0  0  0  0  0  0  0
   25.3709   27.7259   30.8724 C   0  0  0  0  0  0  0  0  0  0  0  0
   26.0784   28.8315   30.5861 F   0  0  0  0  0  0  0  0  0  0  0  0
   23.8714   28.8250   33.6838 H   0  0  0  0  0  0  0  0  0  0  0  0
   24.9590   29.6419   32.6555 H   0  0  0  0  0  0  0  0  0  0  0  0
   25.9622   24.5157   26.6391 C   0  0  0  0  0  0  0  0  0  0  0  0
   26.5689   25.7577   26.9837 O   0  0  0  0  0  0  0  0  0  0  0  0
   26.1032   26.1460   27.7407 H   0  0  0  0  0  0  0  0  0  0  0  0
 12 13  1  0
 13 14  2  0
 14 15  1  0
 15 16  2  0
 15 17  1  0
  1 17  1  0
  1  2  1  0
  2  3  1  0
  3 23  1  0
 23 24  1  0
  3  4  1  0
  4  5  1  0
  4  6  1  0
  6  7  1  0
  6  8  1  0
  8  9  1  0
 17 18  1  0
 18 19  2  0
 19 20  1  0
 19 13  1  0
  8  1  1  0
 12 21  1  0
 12 22  1  0
 24 25  1  0
  5 10  1  0
  9 11  1  0
M  END
> <minimizedAffinity>
-7.41846

> <CNNscore>
0.4719738662

> <CNNaffinity>
4.4304661751

> <CNN_VS>
2.0910642147

> <CNNaffinity_variance>
0.0638423935

$$$$



 25 26  0  0  0  0  0  0  0  0999 V2000
   25.7371   25.0545   29.2695 C   0  0  0  0  0  0  0  0  0  0  0  0
   25.4088   25.4246   27.9319 O   0  0  0  0  0  0  0  0  0  0  0  0
   25.0243   24.3611   27.0454 C   0  0  0  0  0  0  0  0  0  0  0  0
   25.6853   23.0276   27.4133 C   0  0  0  0  0  0  0  0  0  0  0  0
   27.1138   23.1533   27.3058 O   0  0  0  0  0  0  0  0  0  0  0  0
   25.3440   22.6007   28.8424 C   0  0  0  0  0  0  0  0  0  0  0  0
   24.2259   21.8104   28.7871 F   0  0  0  0  0  0  0  0  0  0  0  0
   25.0427   23.7747   29.7811 C   0  0  0  0  0  0  0  0  0  0  0  0
   25.4863   23.4525   31.1129 O   0  0  0  0  0  0  0  0  0  0  0  0
   27.4266   23.8293   27.9271 H   0  0  0  0  0  0  0  0  0  0  0  0
   26.4425   23.2899   31.1047 H   0  0  0  0  0  0  0  0  0  0  0  0
   24.8372   29.5273   32.4197 N   0  0  0  0  0  0  0  0  0  0  0  0
   25.0423   28.4090   31.6552 C   0  0  0  0  0  0  0  0  0  0  0  0
   25.9545   28.4805   30.7321 N   0  0  0  0  0  0  0  0  0  0  0  0
   26.2255   27.3860   29.9403 C   0  0  0  0  0  0  0  0  0  0  0  0
   27.1060   27.4443   29.0838 O   0  0  0  0  0  0  0  0  0  0  0  0
   25.4647   26.2218   30.1186 N   0  0  0  0  0  0  0  0  0  0  0  0
   24.4859   26.1460   31.0901 C   0  0  0  0  0  0  0  0  0  0  0  0
   24.2386   27.1871   31.8763 C   0  0  0  0  0  0  0  0  0  0  0  0
   23.2963   27.2032   32.8338 F   0  0  0  0  0  0  0  0  0  0  0  0
   25.3775   30.3356   32.2646 H   0  0  0  0  0  0  0  0  0  0  0  0
   24.1495   29.5227   33.1242 H   0  0  0  0  0  0  0  0  0  0  0  0
   23.4933   24.2620   26.9403 C   0  0  0  0  0  0  0  0  0  0  0  0
   22.9977   25.2729   26.0674 O   0  0  0  0  0  0  0  0  0  0  0  0
   23.2342   26.1463   26.4169 H   0  0  0  0  0  0  0  0  0  0  0  0
 12 13  1  0
 13 14  2  0
 14 15  1  0
 15 16  2  0
 15 17  1  0
  1 17  1  0
  1  2  1  0
  2  3  1  0
  3 23  1  0
 23 24  1  0
  3  4  1  0
  4  5  1  0
  4  6  1  0
  6  7  1  0
  6  8  1  0
  8  9  1  0
 17 18  1  0
 18 19  2  0
 19 20  1  0
 19 13  1  0
  8  1  1  0
 12 21  1  0
 12 22  1  0
 24 25  1  0
  5 10  1  0
  9 11  1  0
M  END
> <minimizedAffinity>
-7.58861

> <CNNscore>
0.4177346230

> <CNNaffinity>
5.0151257515

> <CNN_VS>
2.0949916840

> <CNNaffinity_variance>
0.1243445054

$$$$



 25 26  0  0  0  0  0  0  0  0999 V2000
   32.8929   23.1453   28.0531 C   0  0  0  0  0  0  0  0  0  0  0  0
   32.6944   21.7566   28.3102 O   0  0  0  0  0  0  0  0  0  0  0  0
   32.4718   20.9153   27.1668 C   0  0  0  0  0  0  0  0  0  0  0  0
   31.7932   21.6649   26.0145 C   0  0  0  0  0  0  0  0  0  0  0  0
   30.4999   22.1290   26.4385 O   0  0  0  0  0  0  0  0  0  0  0  0
   32.6156   22.8731   25.5616 C   0  0  0  0  0  0  0  0  0  0  0  0
   33.4430   22.4605   24.5503 F   0  0  0  0  0  0  0  0  0  0  0  0
   33.4904   23.4730   26.6684 C   0  0  0  0  0  0  0  0  0  0  0  0
   33.5927   24.8976   26.4823 O   0  0  0  0  0  0  0  0  0  0  0  0
   30.6045   22.7440   27.1813 H   0  0  0  0  0  0  0  0  0  0  0  0
   32.7085   25.2938   26.5268 H   0  0  0  0  0  0  0  0  0  0  0  0
   35.8388   25.2495   32.2523 N   0  0  0  0  0  0  0  0  0  0  0  0
   35.1321   24.7181   31.2057 C   0  0  0  0  0  0  0  0  0  0  0  0
   33.8801   25.0521   31.1048 N   0  0  0  0  0  0  0  0  0  0  0  0
   33.1163   24.5691   30.0648 C   0  0  0  0  0  0  0  0  0  0  0  0
   31.9384   24.9048   29.9537 O   0  0  0  0  0  0  0  0  0  0  0  0
   33.7035   23.6762   29.1570 N   0  0  0  0  0  0  0  0  0  0  0  0
   35.0303   23.3090   29.2681 C   0  0  0  0  0  0  0  0  0  0  0  0
   35.7806   23.7929   30.2510 C   0  0  0  0  0  0  0  0  0  0  0  0
   37.0725   23.4767   30.4405 F   0  0  0  0  0  0  0  0  0  0  0  0
   35.3979   25.8644   32.8822 H   0  0  0  0  0  0  0  0  0  0  0  0
   36.7875   25.0165   32.3744 H   0  0  0  0  0  0  0  0  0  0  0  0
   33.7726   20.2137   26.7415 C   0  0  0  0  0  0  0  0  0  0  0  0
   33.7218   18.8350   27.0964 O   0  0  0  0  0  0  0  0  0  0  0  0
   33.6183   18.7520   28.0573 H   0  0  0  0  0  0  0  0  0  0  0  0
 12 13  1  0
 13 14  2  0
 14 15  1  0
 15 16  2  0
 15 17  1  0
  1 17  1  0
  1  2  1  0
  2  3  1  0
  3 23  1  0
 23 24  1  0
  3  4  1  0
  4  5  1  0
  4  6  1  0
  6  7  1  0
  6  8  1  0
  8  9  1  0
 17 18  1  0
 18 19  2  0
 19 20  1  0
 19 13  1  0
  8  1  1  0
 12 21  1  0
 12 22  1  0
 24 25  1  0
  5 10  1  0
  9 11  1  0
M  END
> <minimizedAffinity>
-9.95091

> <CNNscore>
0.4165878296

> <CNNaffinity>
4.8165135384

> <CNN_VS>
2.0065009594

> <CNNaffinity_variance>
0.0420439951

$$$$



 25 26  0  0  0  0  0  0  0  0999 V2000
   28.1973   25.4008   24.1964 C   0  0  0  0  0  0  0  0  0  0  0  0
   29.3744   24.9246   24.8455 O   0  0  0  0  0  0  0  0  0  0  0  0
   29.2537   24.5974   26.2395 C   0  0  0  0  0  0  0  0  0  0  0  0
   28.1828   25.4376   26.9450 C   0  0  0  0  0  0  0  0  0  0  0  0
   28.5436   26.8281   26.8813 O   0  0  0  0  0  0  0  0  0  0  0  0
   26.8079   25.2648   26.2963 C   0  0  0  0  0  0  0  0  0  0  0  0
   26.1630   24.2464   26.9477 F   0  0  0  0  0  0  0  0  0  0  0  0
   26.8697   24.9046   24.8074 C   0  0  0  0  0  0  0  0  0  0  0  0
   25.7448   25.4887   24.1235 O   0  0  0  0  0  0  0  0  0  0  0  0
   28.5878   27.1086   25.9538 H   0  0  0  0  0  0  0  0  0  0  0  0
   25.7743   26.4537   24.2182 H   0  0  0  0  0  0  0  0  0  0  0  0
   28.6073   23.9879   18.8508 N   0  0  0  0  0  0  0  0  0  0  0  0
   28.5227   24.3561   20.1678 C   0  0  0  0  0  0  0  0  0  0  0  0
   27.7824   23.6212   20.9430 N   0  0  0  0  0  0  0  0  0  0  0  0
   27.6690   23.9237   22.2824 C   0  0  0  0  0  0  0  0  0  0  0  0
   26.9895   23.2141   23.0220 O   0  0  0  0  0  0  0  0  0  0  0  0
   28.3238   25.0626   22.7725 N   0  0  0  0  0  0  0  0  0  0  0  0
   29.1014   25.8533   21.9492 C   0  0  0  0  0  0  0  0  0  0  0  0
   29.2387   25.5518   20.6634 C   0  0  0  0  0  0  0  0  0  0  0  0
   29.9623   26.2739   19.7917 F   0  0  0  0  0  0  0  0  0  0  0  0
   28.1269   23.1903   18.5308 H   0  0  0  0  0  0  0  0  0  0  0  0
   29.1484   24.5208   18.2244 H   0  0  0  0  0  0  0  0  0  0  0  0
   29.0514   23.0851   26.4315 C   0  0  0  0  0  0  0  0  0  0  0  0
   30.2958   22.4051   26.2948 O   0  0  0  0  0  0  0  0  0  0  0  0
   30.6561   22.5652   25.4086 H   0  0  0  0  0  0  0  0  0  0  0  0
 12 13  1  0
 13 14  2  0
 14 15  1  0
 15 16  2  0
 15 17  1  0
  1 17  1  0
  1  2  1  0
  2  3  1  0
  3 23  1  0
 23 24  1  0
  3  4  1  0
  4  5  1  0
  4  6  1  0
  6  7  1  0
  6  8  1  0
  8  9  1  0
 17 18  1  0
 18 19  2  0
 19 20  1  0
 19 13  1  0
  8  1  1  0
 12 21  1  0
 12 22  1  0
 24 25  1  0
  5 10  1  0
  9 11  1  0
M  END
> <minimizedAffinity>
-3.16621

> <CNNscore>
0.3162084818

> <CNNaffinity>
3.4821135998

> <CNN_VS>
1.1010738611

> <CNNaffinity_variance>
0.6515529752

$$$$



 25 26  0  0  0  0  0  0  0  0999 V2000
   25.8812   25.1633   28.3864 C   0  0  0  0  0  0  0  0  0  0  0  0
   27.2892   24.9724   28.5084 O   0  0  0  0  0  0  0  0  0  0  0  0
   28.0257   24.8113   27.2851 C   0  0  0  0  0  0  0  0  0  0  0  0
   27.1813   24.1737   26.1757 C   0  0  0  0  0  0  0  0  0  0  0  0
   26.7696   22.8570   26.5814 O   0  0  0  0  0  0  0  0  0  0  0  0
   25.9294   24.9989   25.8706 C   0  0  0  0  0  0  0  0  0  0  0  0
   26.2410   25.8752   24.8644 F   0  0  0  0  0  0  0  0  0  0  0  0
   25.4239   25.8164   27.0649 C   0  0  0  0  0  0  0  0  0  0  0  0
   23.9875   25.9077   27.0125 O   0  0  0  0  0  0  0  0  0  0  0  0
   26.2234   22.9208   27.3805 H   0  0  0  0  0  0  0  0  0  0  0  0
   23.6052   25.0171   27.0528 H   0  0  0  0  0  0  0  0  0  0  0  0
   24.3521   28.1085   32.8279 N   0  0  0  0  0  0  0  0  0  0  0  0
   24.7146   27.3616   31.7380 C   0  0  0  0  0  0  0  0  0  0  0  0
   25.6131   27.8656   30.9456 N   0  0  0  0  0  0  0  0  0  0  0  0
   26.0377   27.1587   29.8418 C   0  0  0  0  0  0  0  0  0  0  0  0
   26.9063   27.6233   29.1056 O   0  0  0  0  0  0  0  0  0  0  0  0
   25.4447   25.9177   29.5688 N   0  0  0  0  0  0  0  0  0  0  0  0
   24.4806   25.3844   30.4016 C   0  0  0  0  0  0  0  0  0  0  0  0
   24.0869   26.0466   31.4831 C   0  0  0  0  0  0  0  0  0  0  0  0
   23.1463   25.6082   32.3362 F   0  0  0  0  0  0  0  0  0  0  0  0
   24.7758   28.9825   32.9887 H   0  0  0  0  0  0  0  0  0  0  0  0
   23.6678   27.7713   33.4502 H   0  0  0  0  0  0  0  0  0  0  0  0
   28.6737   26.1386   26.8570 C   0  0  0  0  0  0  0  0  0  0  0  0
   29.3974   26.7021   27.9471 O   0  0  0  0  0  0  0  0  0  0  0  0
   28.7910   26.8706   28.6852 H   0  0  0  0  0  0  0  0  0  0  0  0
 12 13  1  0
 13 14  2  0
 14 15  1  0
 15 16  2  0
 15 17  1  0
  1 17  1  0
  1  2  1  0
  2  3  1  0
  3 23  1  0
 23 24  1  0
  3  4  1  0
  4  5  1  0
  4  6  1  0
  6  7  1  0
  6  8  1  0
  8  9  1  0
 17 18  1  0
 18 19  2  0
 19 20  1  0
 19 13  1  0
  8  1  1  0
 12 21  1  0
 12 22  1  0
 24 25  1  0
  5 10  1  0
  9 11  1  0
M  END
> <minimizedAffinity>
-8.82446

> <CNNscore>
0.2280705273

> <CNNaffinity>
4.3218436241

> <CNN_VS>
0.9856851697

> <CNNaffinity_variance>
0.1190434098

$$$$



 25 26  0  0  0  0  0  0  0  0999 V2000
   33.7877   22.7122   27.7187 C   0  0  0  0  0  0  0  0  0  0  0  0
   33.3101   23.6805   26.7870 O   0  0  0  0  0  0  0  0  0  0  0  0
   32.3732   23.2178   25.8006 C   0  0  0  0  0  0  0  0  0  0  0  0
   32.5783   21.7395   25.4500 C   0  0  0  0  0  0  0  0  0  0  0  0
   33.8887   21.5562   24.8868 O   0  0  0  0  0  0  0  0  0  0  0  0
   32.4519   20.8415   26.6823 C   0  0  0  0  0  0  0  0  0  0  0  0
   31.1453   20.4392   26.7745 F   0  0  0  0  0  0  0  0  0  0  0  0
   32.8211   21.5413   27.9954 C   0  0  0  0  0  0  0  0  0  0  0  0
   33.4187   20.5899   28.8966 O   0  0  0  0  0  0  0  0  0  0  0  0
   34.5596   21.8096   25.5400 H   0  0  0  0  0  0  0  0  0  0  0  0
   34.2223   20.2245   28.4947 H   0  0  0  0  0  0  0  0  0  0  0  0
   35.0549   25.5229   32.3268 N   0  0  0  0  0  0  0  0  0  0  0  0
   34.7665   24.8215   31.1857 C   0  0  0  0  0  0  0  0  0  0  0  0
   33.5428   24.8736   30.7506 N   0  0  0  0  0  0  0  0  0  0  0  0
   33.1890   24.2073   29.5977 C   0  0  0  0  0  0  0  0  0  0  0  0
   32.0378   24.2768   29.1710 O   0  0  0  0  0  0  0  0  0  0  0  0
   34.1595   23.4372   28.9410 N   0  0  0  0  0  0  0  0  0  0  0  0
   35.4578   23.3692   29.4072 C   0  0  0  0  0  0  0  0  0  0  0  0
   35.8135   24.0318   30.5016 C   0  0  0  0  0  0  0  0  0  0  0  0
   37.0482   24.0082   31.0306 F   0  0  0  0  0  0  0  0  0  0  0  0
   34.3509   26.0454   32.7746 H   0  0  0  0  0  0  0  0  0  0  0  0
   35.9662   25.5043   32.6989 H   0  0  0  0  0  0  0  0  0  0  0  0
   30.9298   23.5387   26.2230 C   0  0  0  0  0  0  0  0  0  0  0  0
   30.5580   24.8293   25.7480 O   0  0  0  0  0  0  0  0  0  0  0  0
   31.1528   25.4964   26.1250 H   0  0  0  0  0  0  0  0  0  0  0  0
 12 13  1  0
 13 14  2  0
 14 15  1  0
 15 16  2  0
 15 17  1  0
  1 17  1  0
  1  2  1  0
  2  3  1  0
  3 23  1  0
 23 24  1  0
  3  4  1  0
  4  5  1  0
  4  6  1  0
  6  7  1  0
  6  8  1  0
  8  9  1  0
 17 18  1  0
 18 19  2  0
 19 20  1  0
 19 13  1  0
  8  1  1  0
 12 21  1  0
 12 22  1  0
 24 25  1  0
  5 10  1  0
  9 11  1  0
M  END
> <minimizedAffinity>
-8.72534

> <CNNscore>
0.1947267056

> <CNNaffinity>
3.9545142651

> <CNN_VS>
0.7700495124

> <CNNaffinity_variance>
0.5312967896

$$$$



 25 26  0  0  0  0  0  0  0  0999 V2000
   32.9116   23.1514   28.4507 C   0  0  0  0  0  0  0  0  0  0  0  0
   33.5750   22.1520   27.6794 O   0  0  0  0  0  0  0  0  0  0  0  0
   33.0596   21.9087   26.3603 C   0  0  0  0  0  0  0  0  0  0  0  0
   31.5559   22.1907   26.2608 C   0  0  0  0  0  0  0  0  0  0  0  0
   30.8422   21.3116   27.1472 O   0  0  0  0  0  0  0  0  0  0  0  0
   31.2233   23.6349   26.6412 C   0  0  0  0  0  0  0  0  0  0  0  0
   31.2441   24.3849   25.4946 F   0  0  0  0  0  0  0  0  0  0  0  0
   32.2187   24.2575   27.6270 C   0  0  0  0  0  0  0  0  0  0  0  0
   31.5276   25.1788   28.4918 O   0  0  0  0  0  0  0  0  0  0  0  0
   31.1225   21.4766   28.0610 H   0  0  0  0  0  0  0  0  0  0  0  0
   30.8431   24.7042   28.9889 H   0  0  0  0  0  0  0  0  0  0  0  0
   36.5148   25.2508   32.1043 N   0  0  0  0  0  0  0  0  0  0  0  0
   35.6441   24.7255   31.1861 C   0  0  0  0  0  0  0  0  0  0  0  0
   34.3744   24.8419   31.4383 N   0  0  0  0  0  0  0  0  0  0  0  0
   33.4439   24.3532   30.5474 C   0  0  0  0  0  0  0  0  0  0  0  0
   32.2422   24.4856   30.7725 O   0  0  0  0  0  0  0  0  0  0  0  0
   33.8966   23.6880   29.3991 N   0  0  0  0  0  0  0  0  0  0  0  0
   35.2451   23.5512   29.1338 C   0  0  0  0  0  0  0  0  0  0  0  0
   36.1477   24.0448   29.9733 C   0  0  0  0  0  0  0  0  0  0  0  0
   37.4760   23.9428   29.7993 F   0  0  0  0  0  0  0  0  0  0  0  0
   36.1695   25.7019   32.9083 H   0  0  0  0  0  0  0  0  0  0  0  0
   37.4859   25.1770   31.9601 H   0  0  0  0  0  0  0  0  0  0  0  0
   33.8821   22.6638   25.3029 C   0  0  0  0  0  0  0  0  0  0  0  0
   33.2745   22.5252   24.0218 O   0  0  0  0  0  0  0  0  0  0  0  0
   33.2375   21.5862   23.7814 H   0  0  0  0  0  0  0  0  0  0  0  0
 12 13  1  0
 13 14  2  0
 14 15  1  0
 15 16  2  0
 15 17  1  0
  1 17  1  0
  1  2  1  0
  2  3  1  0
  3 23  1  0
 23 24  1  0
  3  4  1  0
  4  5  1  0
  4  6  1  0
  6  7  1  0
  6  8  1  0
  8  9  1  0
 17 18  1  0
 18 19  2  0
 19 20  1  0
 19 13  1  0
  8  1  1  0
 12 21  1  0
 12 22  1  0
 24 25  1  0
  5 10  1  0
  9 11  1  0
M  END
> <minimizedAffinity>
-8.76715

> <CNNscore>
0.1899444014

> <CNNaffinity>
3.8709690571

> <CNN_VS>
0.7352688909

> <CNNaffinity_variance>
0.5784607530

$$$$



 25 26  0  0  0  0  0  0  0  0999 V2000
   25.5949   26.2630   28.5267 C   0  0  0  0  0  0  0  0  0  0  0  0
   24.3750   25.5791   28.2472 O   0  0  0  0  0  0  0  0  0  0  0  0
   24.4668   24.4138   27.4116 C   0  0  0  0  0  0  0  0  0  0  0  0
   25.6329   24.4978   26.4198 C   0  0  0  0  0  0  0  0  0  0  0  0
   25.4354   25.6176   25.5394 O   0  0  0  0  0  0  0  0  0  0  0  0
   26.9739   24.6758   27.1347 C   0  0  0  0  0  0  0  0  0  0  0  0
   27.5008   23.4297   27.3517 F   0  0  0  0  0  0  0  0  0  0  0  0
   26.8602   25.3799   28.4918 C   0  0  0  0  0  0  0  0  0  0  0  0
   28.0405   26.1721   28.7236 O   0  0  0  0  0  0  0  0  0  0  0  0
   25.4176   26.4372   26.0578 H   0  0  0  0  0  0  0  0  0  0  0  0
   28.1238   26.8402   28.0252 H   0  0  0  0  0  0  0  0  0  0  0  0
   24.8839   28.7109   33.4503 N   0  0  0  0  0  0  0  0  0  0  0  0
   25.0615   28.1292   32.2226 C   0  0  0  0  0  0  0  0  0  0  0  0
   24.9887   26.8328   32.1642 N   0  0  0  0  0  0  0  0  0  0  0  0
   25.1384   26.1846   30.9577 C   0  0  0  0  0  0  0  0  0  0  0  0
   25.0441   24.9599   30.8970 O   0  0  0  0  0  0  0  0  0  0  0  0
   25.4200   26.9468   29.8150 N   0  0  0  0  0  0  0  0  0  0  0  0
   25.5106   28.3236   29.8752 C   0  0  0  0  0  0  0  0  0  0  0  0
   25.3390   28.9577   31.0291 C   0  0  0  0  0  0  0  0  0  0  0  0
   25.4249   30.2901   31.1786 F   0  0  0  0  0  0  0  0  0  0  0  0
   24.6997   28.1505   34.2386 H   0  0  0  0  0  0  0  0  0  0  0  0
   24.9405   29.6893   33.5443 H   0  0  0  0  0  0  0  0  0  0  0  0
   24.4936   23.1318   28.2606 C   0  0  0  0  0  0  0  0  0  0  0  0
   24.7104   21.9981   27.4255 O   0  0  0  0  0  0  0  0  0  0  0  0
   23.9920   21.9321   26.7770 H   0  0  0  0  0  0  0  0  0  0  0  0
 12 13  1  0
 13 14  2  0
 14 15  1  0
 15 16  2  0
 15 17  1  0
  1 17  1  0
  1  2  1  0
  2  3  1  0
  3 23  1  0
 23 24  1  0
  3  4  1  0
  4  5  1  0
  4  6  1  0
  6  7  1  0
  6  8  1  0
  8  9  1  0
 17 18  1  0
 18 19  2  0
 19 20  1  0
 19 13  1  0
  8  1  1  0
 12 21  1  0
 12 22  1  0
 24 25  1  0
  5 10  1  0
  9 11  1  0
M  END
> <minimizedAffinity>
-7.63190

> <CNNscore>
0.1657771170

> <CNNaffinity>
3.7849876881

> <CNN_VS>
0.6274643540

> <CNNaffinity_variance>
0.2490357161

$$$$



 25 26  0  0  0  0  0  0  0  0999 V2000
   25.9867   24.5284   27.8125 C   0  0  0  0  0  0  0  0  0  0  0  0
   27.3322   24.3661   28.2565 O   0  0  0  0  0  0  0  0  0  0  0  0
   28.3654   24.6691   27.3049 C   0  0  0  0  0  0  0  0  0  0  0  0
   27.9184   24.4199   25.8598 C   0  0  0  0  0  0  0  0  0  0  0  0
   27.6000   23.0281   25.6882 O   0  0  0  0  0  0  0  0  0  0  0  0
   26.6828   25.2465   25.4977 C   0  0  0  0  0  0  0  0  0  0  0  0
   27.1145   26.4291   24.9566 F   0  0  0  0  0  0  0  0  0  0  0  0
   25.7898   25.5786   26.6988 C   0  0  0  0  0  0  0  0  0  0  0  0
   24.4131   25.6221   26.2778 O   0  0  0  0  0  0  0  0  0  0  0  0
   26.8683   22.7887   26.2783 H   0  0  0  0  0  0  0  0  0  0  0  0
   24.1566   24.7574   25.9209 H   0  0  0  0  0  0  0  0  0  0  0  0
   23.0100   25.6956   32.3420 N   0  0  0  0  0  0  0  0  0  0  0  0
   23.7326   25.3851   31.2201 C   0  0  0  0  0  0  0  0  0  0  0  0
   24.6783   26.2080   30.8769 N   0  0  0  0  0  0  0  0  0  0  0  0
   25.4563   25.9460   29.7704 C   0  0  0  0  0  0  0  0  0  0  0  0
   26.3680   26.7105   29.4595 O   0  0  0  0  0  0  0  0  0  0  0  0
   25.1714   24.8083   29.0019 N   0  0  0  0  0  0  0  0  0  0  0  0
   24.1592   23.9380   29.3563 C   0  0  0  0  0  0  0  0  0  0  0  0
   23.4238   24.1684   30.4376 C   0  0  0  0  0  0  0  0  0  0  0  0
   22.4125   23.3831   30.8443 F   0  0  0  0  0  0  0  0  0  0  0  0
   23.2234   26.5077   32.8559 H   0  0  0  0  0  0  0  0  0  0  0  0
   22.2772   25.1066   32.6342 H   0  0  0  0  0  0  0  0  0  0  0  0
   28.9145   26.0885   27.5259 C   0  0  0  0  0  0  0  0  0  0  0  0
   30.0065   26.0522   28.4402 O   0  0  0  0  0  0  0  0  0  0  0  0
   29.7050   25.6947   29.2900 H   0  0  0  0  0  0  0  0  0  0  0  0
 12 13  1  0
 13 14  2  0
 14 15  1  0
 15 16  2  0
 15 17  1  0
  1 17  1  0
  1  2  1  0
  2  3  1  0
  3 23  1  0
 23 24  1  0
  3  4  1  0
  4  5  1  0
  4  6  1  0
  6  7  1  0
  6  8  1  0
  8  9  1  0
 17 18  1  0
 18 19  2  0
 19 20  1  0
 19 13  1  0
  8  1  1  0
 12 21  1  0
 12 22  1  0
 24 25  1  0
  5 10  1  0
  9 11  1  0
M  END
> <minimizedAffinity>
-7.75779

> <CNNscore>
0.1562805772

> <CNNaffinity>
4.0683054924

> <CNN_VS>
0.6357971430

> <CNNaffinity_variance>
0.2821317613

$$$$
