


 27 28  0  0  0  0  0  0  0  0999 V2000
  -38.9710  -60.9238  -51.5462 C   0  0  0  0  0  0  0  0  0  0  0  0
  -38.9531  -59.6957  -52.3089 O   0  0  0  0  0  0  0  0  0  0  0  0
  -39.4528  -60.5747  -50.1347 C   0  0  0  0  0  0  0  0  0  0  0  0
  -40.8322  -59.8750  -50.1258 C   0  0  0  0  0  0  0  0  0  0  0  0
  -41.7342  -60.3546  -51.2926 C   0  0  0  0  0  0  0  0  0  0  0  0
  -41.6438  -59.4279  -52.3793 O   0  0  0  0  0  0  0  0  0  0  0  0
  -41.3783  -61.7661  -51.7935 C   0  0  0  0  0  0  0  0  0  0  0  0
  -41.6016  -62.7290  -50.7606 O   0  0  0  0  0  0  0  0  0  0  0  0
  -39.9232  -61.8902  -52.2672 C   0  0  0  0  0  0  0  0  0  0  0  0
  -38.3596  -59.0584  -51.8818 H   0  0  0  0  0  0  0  0  0  0  0  0
  -40.7313  -59.4023  -52.7074 H   0  0  0  0  0  0  0  0  0  0  0  0
  -41.0146  -62.5416  -50.0115 H   0  0  0  0  0  0  0  0  0  0  0  0
  -36.6253  -60.9829  -50.8713 O   0  0  0  0  0  0  0  0  0  0  0  0
  -37.5476  -61.4945  -51.4920 C   0  0  0  0  0  0  0  0  0  0  0  0
  -37.3706  -62.6429  -52.1660 O   0  0  0  0  0  0  0  0  0  0  0  0
  -38.0849  -63.0244  -52.6374 H   0  0  0  0  0  0  0  0  0  0  0  0
  -41.5425  -60.0550  -48.7660 C   0  0  0  0  0  0  0  0  0  0  0  0
  -40.6031  -59.9001  -47.5681 C   0  0  0  0  0  0  0  0  0  0  0  0
  -39.1394  -60.0568  -47.9769 C   0  0  0  0  0  0  0  0  0  0  0  0
  -38.3486  -59.2963  -47.0634 O   0  0  0  0  0  0  0  0  0  0  0  0
  -37.8066  -59.9646  -46.0009 C   0  0  0  0  0  0  0  0  0  0  0  0
  -36.4692  -60.3398  -45.8611 C   0  0  0  0  0  0  0  0  0  0  0  0
  -36.0471  -61.0233  -44.7151 C   0  0  0  0  0  0  0  0  0  0  0  0
  -36.9633  -61.3306  -43.7111 C   0  0  0  0  0  0  0  0  0  0  0  0
  -36.3886  -62.2538  -42.1654 Br  0  0  0  0  0  0  0  0  0  0  0  0
  -38.2989  -60.9613  -43.8408 C   0  0  0  0  0  0  0  0  0  0  0  0
  -38.7157  -60.2792  -44.9861 C   0  0  0  0  0  0  0  0  0  0  0  0
 13 14  2  0
 14 15  1  0
 14  1  1  0
  1  2  1  0
  1  3  1  0
  3  4  1  0
  4 17  1  0
 17 18  1  0
 18 19  1  0
 19 20  1  0
 20 21  1  0
 21 22  2  0
 22 23  1  0
 23 24  2  0
 24 25  1  0
 24 26  1  0
 26 27  2  0
  4  5  1  0
  5  6  1  0
  5  7  1  0
  7  8  1  0
  7  9  1  0
  9  1  1  0
 27 21  1  0
 15 16  1  0
  2 10  1  0
  6 11  1  0
  8 12  1  0
M  END
> <minimizedAffinity>
-9.53635

> <CNNscore>
0.9118664265

> <CNNaffinity>
5.6753597260

> <CNN_VS>
5.1751699448

> <CNNaffinity_variance>
0.1215566397

$$$$



 27 28  0  0  0  0  0  0  0  0999 V2000
  -38.9208  -60.7871  -51.4097 C   0  0  0  0  0  0  0  0  0  0  0  0
  -38.9130  -59.5965  -52.2298 O   0  0  0  0  0  0  0  0  0  0  0  0
  -39.5395  -60.4058  -50.0614 C   0  0  0  0  0  0  0  0  0  0  0  0
  -40.9545  -59.7965  -50.1997 C   0  0  0  0  0  0  0  0  0  0  0  0
  -41.7248  -60.3859  -51.4098 C   0  0  0  0  0  0  0  0  0  0  0  0
  -41.5996  -59.5058  -52.5313 O   0  0  0  0  0  0  0  0  0  0  0  0
  -41.2435  -61.7929  -51.8080 C   0  0  0  0  0  0  0  0  0  0  0  0
  -41.4942  -62.7201  -50.7490 O   0  0  0  0  0  0  0  0  0  0  0  0
  -39.7490  -61.8446  -52.1554 C   0  0  0  0  0  0  0  0  0  0  0  0
  -38.3970  -58.9035  -51.7890 H   0  0  0  0  0  0  0  0  0  0  0  0
  -40.6660  -59.4366  -52.7853 H   0  0  0  0  0  0  0  0  0  0  0  0
  -40.9846  -62.4613  -49.9653 H   0  0  0  0  0  0  0  0  0  0  0  0
  -36.9877  -62.2334  -51.7742 O   0  0  0  0  0  0  0  0  0  0  0  0
  -37.4751  -61.2620  -51.2116 C   0  0  0  0  0  0  0  0  0  0  0  0
  -36.7397  -60.5091  -50.3768 O   0  0  0  0  0  0  0  0  0  0  0  0
  -37.1248  -59.7679  -49.9522 H   0  0  0  0  0  0  0  0  0  0  0  0
  -41.7643  -59.9597  -48.8945 C   0  0  0  0  0  0  0  0  0  0  0  0
  -40.9031  -59.8661  -47.6331 C   0  0  0  0  0  0  0  0  0  0  0  0
  -41.7600  -59.7284  -46.3757 C   0  0  0  0  0  0  0  0  0  0  0  0
  -41.3523  -60.7431  -45.4580 O   0  0  0  0  0  0  0  0  0  0  0  0
  -40.0230  -60.8028  -45.1437 C   0  0  0  0  0  0  0  0  0  0  0  0
  -39.4783  -61.3287  -43.9708 C   0  0  0  0  0  0  0  0  0  0  0  0
  -38.0923  -61.3270  -43.7772 C   0  0  0  0  0  0  0  0  0  0  0  0
  -37.2535  -60.7991  -44.7568 C   0  0  0  0  0  0  0  0  0  0  0  0
  -35.3823  -60.7989  -44.4908 Br  0  0  0  0  0  0  0  0  0  0  0  0
  -37.7864  -60.2722  -45.9295 C   0  0  0  0  0  0  0  0  0  0  0  0
  -39.1702  -60.2761  -46.1186 C   0  0  0  0  0  0  0  0  0  0  0  0
 13 14  2  0
 14 15  1  0
 14  1  1  0
  1  2  1  0
  1  3  1  0
  3  4  1  0
  4 17  1  0
 17 18  1  0
 18 19  1  0
 19 20  1  0
 20 21  1  0
 21 22  2  0
 22 23  1  0
 23 24  2  0
 24 25  1  0
 24 26  1  0
 26 27  2  0
  4  5  1  0
  5  6  1  0
  5  7  1  0
  7  8  1  0
  7  9  1  0
  9  1  1  0
 27 21  1  0
 15 16  1  0
  2 10  1  0
  6 11  1  0
  8 12  1  0
M  END
> <minimizedAffinity>
-9.19013

> <CNNscore>
0.7916676998

> <CNNaffinity>
5.5610394478

> <CNN_VS>
4.4024953842

> <CNNaffinity_variance>
0.0466789342

$$$$



 27 28  0  0  0  0  0  0  0  0999 V2000
  -38.9914  -60.9222  -51.4084 C   0  0  0  0  0  0  0  0  0  0  0  0
  -39.0244  -59.7462  -52.2487 O   0  0  0  0  0  0  0  0  0  0  0  0
  -39.3824  -60.4812  -49.9945 C   0  0  0  0  0  0  0  0  0  0  0  0
  -40.7595  -59.7789  -49.9427 C   0  0  0  0  0  0  0  0  0  0  0  0
  -41.7336  -60.3308  -51.0159 C   0  0  0  0  0  0  0  0  0  0  0  0
  -41.7145  -59.4767  -52.1639 O   0  0  0  0  0  0  0  0  0  0  0  0
  -41.4082  -61.7727  -51.4460 C   0  0  0  0  0  0  0  0  0  0  0  0
  -41.5633  -62.6661  -50.3406 O   0  0  0  0  0  0  0  0  0  0  0  0
  -39.9862  -61.9309  -52.0028 C   0  0  0  0  0  0  0  0  0  0  0  0
  -38.4057  -59.0840  -51.9027 H   0  0  0  0  0  0  0  0  0  0  0  0
  -40.8250  -59.4747  -52.5506 H   0  0  0  0  0  0  0  0  0  0  0  0
  -40.9298  -62.4320  -49.6444 H   0  0  0  0  0  0  0  0  0  0  0  0
  -37.2335  -62.5098  -52.0005 O   0  0  0  0  0  0  0  0  0  0  0  0
  -37.5665  -61.4918  -51.4086 C   0  0  0  0  0  0  0  0  0  0  0  0
  -36.6667  -60.7700  -50.7202 O   0  0  0  0  0  0  0  0  0  0  0  0
  -36.9345  -59.9924  -50.2712 H   0  0  0  0  0  0  0  0  0  0  0  0
  -41.3809  -59.8687  -48.5315 C   0  0  0  0  0  0  0  0  0  0  0  0
  -40.3891  -59.5442  -47.4124 C   0  0  0  0  0  0  0  0  0  0  0  0
  -40.5092  -60.5293  -46.2508 C   0  0  0  0  0  0  0  0  0  0  0  0
  -39.2392  -60.5938  -45.6018 O   0  0  0  0  0  0  0  0  0  0  0  0
  -39.2336  -60.9070  -44.2710 C   0  0  0  0  0  0  0  0  0  0  0  0
  -40.3512  -60.9723  -43.4370 C   0  0  0  0  0  0  0  0  0  0  0  0
  -40.2018  -61.3073  -42.0864 C   0  0  0  0  0  0  0  0  0  0  0  0
  -38.9348  -61.5761  -41.5723 C   0  0  0  0  0  0  0  0  0  0  0  0
  -38.7379  -62.0280  -39.7477 Br  0  0  0  0  0  0  0  0  0  0  0  0
  -37.8141  -61.5134  -42.3951 C   0  0  0  0  0  0  0  0  0  0  0  0
  -37.9679  -61.1789  -43.7424 C   0  0  0  0  0  0  0  0  0  0  0  0
 13 14  2  0
 14 15  1  0
 14  1  1  0
  1  2  1  0
  1  3  1  0
  3  4  1  0
  4 17  1  0
 17 18  1  0
 18 19  1  0
 19 20  1  0
 20 21  1  0
 21 22  2  0
 22 23  1  0
 23 24  2  0
 24 25  1  0
 24 26  1  0
 26 27  2  0
  4  5  1  0
  5  6  1  0
  5  7  1  0
  7  8  1  0
  7  9  1  0
  9  1  1  0
 27 21  1  0
 15 16  1  0
  2 10  1  0
  6 11  1  0
  8 12  1  0
M  END
> <minimizedAffinity>
-8.95073

> <CNNscore>
0.5310720205

> <CNNaffinity>
5.0209851265

> <CNN_VS>
2.6665046215

> <CNNaffinity_variance>
0.0947856307

$$$$



 27 28  0  0  0  0  0  0  0  0999 V2000
  -39.0112  -60.9543  -51.5798 C   0  0  0  0  0  0  0  0  0  0  0  0
  -39.0929  -59.7379  -52.3570 O   0  0  0  0  0  0  0  0  0  0  0  0
  -39.2503  -60.5744  -50.1153 C   0  0  0  0  0  0  0  0  0  0  0  0
  -40.5957  -59.8437  -49.8955 C   0  0  0  0  0  0  0  0  0  0  0  0
  -41.6846  -60.3195  -50.8921 C   0  0  0  0  0  0  0  0  0  0  0  0
  -41.7535  -59.4107  -51.9953 O   0  0  0  0  0  0  0  0  0  0  0  0
  -41.4429  -61.7456  -51.4189 C   0  0  0  0  0  0  0  0  0  0  0  0
  -41.5147  -62.6884  -50.3465 O   0  0  0  0  0  0  0  0  0  0  0  0
  -40.0868  -61.9092  -52.1198 C   0  0  0  0  0  0  0  0  0  0  0  0
  -38.4253  -59.1082  -52.0431 H   0  0  0  0  0  0  0  0  0  0  0  0
  -40.9060  -59.4103  -52.4672 H   0  0  0  0  0  0  0  0  0  0  0  0
  -40.8102  -62.5036  -49.7058 H   0  0  0  0  0  0  0  0  0  0  0  0
  -36.5852  -61.0415  -51.3184 O   0  0  0  0  0  0  0  0  0  0  0  0
  -37.6095  -61.5561  -51.7468 C   0  0  0  0  0  0  0  0  0  0  0  0
  -37.5710  -62.7353  -52.3892 O   0  0  0  0  0  0  0  0  0  0  0  0
  -38.3625  -63.1187  -52.7125 H   0  0  0  0  0  0  0  0  0  0  0  0
  -41.0793  -59.9883  -48.4356 C   0  0  0  0  0  0  0  0  0  0  0  0
  -42.5518  -60.3891  -48.3235 C   0  0  0  0  0  0  0  0  0  0  0  0
  -43.3948  -59.2699  -47.7144 C   0  0  0  0  0  0  0  0  0  0  0  0
  -43.8026  -59.6912  -46.4128 O   0  0  0  0  0  0  0  0  0  0  0  0
  -44.4949  -58.7895  -45.6532 C   0  0  0  0  0  0  0  0  0  0  0  0
  -44.9250  -57.5267  -46.0644 C   0  0  0  0  0  0  0  0  0  0  0  0
  -45.6283  -56.7012  -45.1798 C   0  0  0  0  0  0  0  0  0  0  0  0
  -45.9000  -57.1401  -43.8855 C   0  0  0  0  0  0  0  0  0  0  0  0
  -46.8501  -56.0218  -42.6944 Br  0  0  0  0  0  0  0  0  0  0  0  0
  -45.4754  -58.3972  -43.4655 C   0  0  0  0  0  0  0  0  0  0  0  0
  -44.7739  -59.2177  -44.3516 C   0  0  0  0  0  0  0  0  0  0  0  0
 13 14  2  0
 14 15  1  0
 14  1  1  0
  1  2  1  0
  1  3  1  0
  3  4  1  0
  4 17  1  0
 17 18  1  0
 18 19  1  0
 19 20  1  0
 20 21  1  0
 21 22  2  0
 22 23  1  0
 23 24  2  0
 24 25  1  0
 24 26  1  0
 26 27  2  0
  4  5  1  0
  5  6  1  0
  5  7  1  0
  7  8  1  0
  7  9  1  0
  9  1  1  0
 27 21  1  0
 15 16  1  0
  2 10  1  0
  6 11  1  0
  8 12  1  0
M  END
> <minimizedAffinity>
-6.77245

> <CNNscore>
0.5093034506

> <CNNaffinity>
5.0820784569

> <CNN_VS>
2.5883200169

> <CNNaffinity_variance>
0.1347481310

$$$$



 27 28  0  0  0  0  0  0  0  0999 V2000
  -38.9988  -60.9717  -51.4609 C   0  0  0  0  0  0  0  0  0  0  0  0
  -39.0496  -59.7572  -52.2437 O   0  0  0  0  0  0  0  0  0  0  0  0
  -39.3303  -60.5936  -50.0140 C   0  0  0  0  0  0  0  0  0  0  0  0
  -40.6959  -59.8803  -49.8765 C   0  0  0  0  0  0  0  0  0  0  0  0
  -41.7168  -60.3712  -50.9358 C   0  0  0  0  0  0  0  0  0  0  0  0
  -41.7311  -59.4644  -52.0427 O   0  0  0  0  0  0  0  0  0  0  0  0
  -41.4254  -61.7946  -51.4447 C   0  0  0  0  0  0  0  0  0  0  0  0
  -41.5491  -62.7372  -50.3770 O   0  0  0  0  0  0  0  0  0  0  0  0
  -40.0276  -61.9411  -52.0627 C   0  0  0  0  0  0  0  0  0  0  0  0
  -38.4102  -59.1185  -51.8913 H   0  0  0  0  0  0  0  0  0  0  0  0
  -40.8569  -59.4534  -52.4630 H   0  0  0  0  0  0  0  0  0  0  0  0
  -40.8868  -62.5426  -49.6955 H   0  0  0  0  0  0  0  0  0  0  0  0
  -37.3013  -62.6010  -52.1130 O   0  0  0  0  0  0  0  0  0  0  0  0
  -37.5819  -61.5553  -51.5425 C   0  0  0  0  0  0  0  0  0  0  0  0
  -36.6281  -60.8141  -50.9549 O   0  0  0  0  0  0  0  0  0  0  0  0
  -36.8561  -60.0153  -50.5213 H   0  0  0  0  0  0  0  0  0  0  0  0
  -41.2643  -60.0299  -48.4480 C   0  0  0  0  0  0  0  0  0  0  0  0
  -42.7324  -59.6138  -48.3350 C   0  0  0  0  0  0  0  0  0  0  0  0
  -43.1547  -59.4302  -46.8782 C   0  0  0  0  0  0  0  0  0  0  0  0
  -43.2631  -58.0285  -46.6299 O   0  0  0  0  0  0  0  0  0  0  0  0
  -44.5111  -57.4755  -46.7080 C   0  0  0  0  0  0  0  0  0  0  0  0
  -45.7021  -58.1640  -46.9454 C   0  0  0  0  0  0  0  0  0  0  0  0
  -46.9162  -57.4700  -47.0001 C   0  0  0  0  0  0  0  0  0  0  0  0
  -46.9370  -56.0887  -46.8175 C   0  0  0  0  0  0  0  0  0  0  0  0
  -48.5790  -55.1559  -46.8923 Br  0  0  0  0  0  0  0  0  0  0  0  0
  -45.7552  -55.3928  -46.5805 C   0  0  0  0  0  0  0  0  0  0  0  0
  -44.5459  -56.0894  -46.5266 C   0  0  0  0  0  0  0  0  0  0  0  0
 13 14  2  0
 14 15  1  0
 14  1  1  0
  1  2  1  0
  1  3  1  0
  3  4  1  0
  4 17  1  0
 17 18  1  0
 18 19  1  0
 19 20  1  0
 20 21  1  0
 21 22  2  0
 22 23  1  0
 23 24  2  0
 24 25  1  0
 24 26  1  0
 26 27  2  0
  4  5  1  0
  5  6  1  0
  5  7  1  0
  7  8  1  0
  7  9  1  0
  9  1  1  0
 27 21  1  0
 15 16  1  0
  2 10  1  0
  6 11  1  0
  8 12  1  0
M  END
> <minimizedAffinity>
-7.48940

> <CNNscore>
0.4736580551

> <CNNaffinity>
5.0796184540

> <CNN_VS>
2.4060022831

> <CNNaffinity_variance>
0.0287478175

$$$$



 27 28  0  0  0  0  0  0  0  0999 V2000
  -40.3103  -61.7360  -51.3980 C   0  0  0  0  0  0  0  0  0  0  0  0
  -39.6741  -63.0249  -51.2426 O   0  0  0  0  0  0  0  0  0  0  0  0
  -40.0274  -60.9334  -50.1243 C   0  0  0  0  0  0  0  0  0  0  0  0
  -38.5164  -60.7938  -49.8245 C   0  0  0  0  0  0  0  0  0  0  0  0
  -37.6682  -60.7526  -51.1222 C   0  0  0  0  0  0  0  0  0  0  0  0
  -37.1525  -62.0586  -51.3984 O   0  0  0  0  0  0  0  0  0  0  0  0
  -38.4542  -60.2444  -52.3445 C   0  0  0  0  0  0  0  0  0  0  0  0
  -38.8552  -58.8865  -52.1457 O   0  0  0  0  0  0  0  0  0  0  0  0
  -39.7051  -61.0808  -52.6489 C   0  0  0  0  0  0  0  0  0  0  0  0
  -40.0327  -63.4701  -50.4590 H   0  0  0  0  0  0  0  0  0  0  0  0
  -37.8888  -62.6715  -51.5503 H   0  0  0  0  0  0  0  0  0  0  0  0
  -39.4555  -58.8346  -51.3855 H   0  0  0  0  0  0  0  0  0  0  0  0
  -42.3438  -63.0294  -51.7892 O   0  0  0  0  0  0  0  0  0  0  0  0
  -41.8212  -61.9458  -51.5650 C   0  0  0  0  0  0  0  0  0  0  0  0
  -42.5675  -60.8383  -51.4194 O   0  0  0  0  0  0  0  0  0  0  0  0
  -42.1550  -60.0147  -51.2479 H   0  0  0  0  0  0  0  0  0  0  0  0
  -38.2332  -59.5611  -48.9379 C   0  0  0  0  0  0  0  0  0  0  0  0
  -39.4911  -58.9843  -48.2849 C   0  0  0  0  0  0  0  0  0  0  0  0
  -39.6268  -59.4335  -46.8309 C   0  0  0  0  0  0  0  0  0  0  0  0
  -40.4103  -60.6268  -46.8155 O   0  0  0  0  0  0  0  0  0  0  0  0
  -41.7693  -60.4808  -46.7782 C   0  0  0  0  0  0  0  0  0  0  0  0
  -42.4994  -59.4335  -47.3430 C   0  0  0  0  0  0  0  0  0  0  0  0
  -43.8941  -59.4081  -47.2299 C   0  0  0  0  0  0  0  0  0  0  0  0
  -44.5560  -60.4300  -46.5522 C   0  0  0  0  0  0  0  0  0  0  0  0
  -46.4397  -60.3914  -46.4021 Br  0  0  0  0  0  0  0  0  0  0  0  0
  -43.8375  -61.4785  -45.9853 C   0  0  0  0  0  0  0  0  0  0  0  0
  -42.4457  -61.4999  -46.1006 C   0  0  0  0  0  0  0  0  0  0  0  0
 13 14  2  0
 14 15  1  0
 14  1  1  0
  1  2  1  0
  1  3  1  0
  3  4  1  0
  4 17  1  0
 17 18  1  0
 18 19  1  0
 19 20  1  0
 20 21  1  0
 21 22  2  0
 22 23  1  0
 23 24  2  0
 24 25  1  0
 24 26  1  0
 26 27  2  0
  4  5  1  0
  5  6  1  0
  5  7  1  0
  7  8  1  0
  7  9  1  0
  9  1  1  0
 27 21  1  0
 15 16  1  0
  2 10  1  0
  6 11  1  0
  8 12  1  0
M  END
> <minimizedAffinity>
-5.52112

> <CNNscore>
0.4310489595

> <CNNaffinity>
4.6876502037

> <CNN_VS>
2.0206067562

> <CNNaffinity_variance>
0.9964714050

$$$$



 27 28  0  0  0  0  0  0  0  0999 V2000
  -39.0051  -60.8744  -51.4019 C   0  0  0  0  0  0  0  0  0  0  0  0
  -39.0869  -59.6194  -52.1150 O   0  0  0  0  0  0  0  0  0  0  0  0
  -39.4195  -60.6012  -49.9528 C   0  0  0  0  0  0  0  0  0  0  0  0
  -40.8262  -59.9683  -49.8387 C   0  0  0  0  0  0  0  0  0  0  0  0
  -41.7718  -60.4465  -50.9711 C   0  0  0  0  0  0  0  0  0  0  0  0
  -41.7865  -59.4769  -52.0235 O   0  0  0  0  0  0  0  0  0  0  0  0
  -41.3821  -61.8200  -51.5470 C   0  0  0  0  0  0  0  0  0  0  0  0
  -41.5015  -62.8300  -50.5422 O   0  0  0  0  0  0  0  0  0  0  0  0
  -39.9528  -61.8574  -52.1061 C   0  0  0  0  0  0  0  0  0  0  0  0
  -38.4989  -58.9710  -51.6969 H   0  0  0  0  0  0  0  0  0  0  0  0
  -40.8966  -59.3959  -52.4010 H   0  0  0  0  0  0  0  0  0  0  0  0
  -40.8811  -62.6430  -49.8204 H   0  0  0  0  0  0  0  0  0  0  0  0
  -36.6151  -60.8181  -50.9055 O   0  0  0  0  0  0  0  0  0  0  0  0
  -37.5566  -61.3787  -51.4505 C   0  0  0  0  0  0  0  0  0  0  0  0
  -37.3774  -62.5258  -52.1262 O   0  0  0  0  0  0  0  0  0  0  0  0
  -38.1065  -62.9451  -52.5391 H   0  0  0  0  0  0  0  0  0  0  0  0
  -41.4477  -60.2321  -48.4494 C   0  0  0  0  0  0  0  0  0  0  0  0
  -41.9788  -58.9657  -47.7744 C   0  0  0  0  0  0  0  0  0  0  0  0
  -43.4208  -59.1425  -47.3017 C   0  0  0  0  0  0  0  0  0  0  0  0
  -44.1826  -59.6361  -48.4036 O   0  0  0  0  0  0  0  0  0  0  0  0
  -45.5445  -59.5842  -48.2939 C   0  0  0  0  0  0  0  0  0  0  0  0
  -46.4175  -58.9547  -49.1829 C   0  0  0  0  0  0  0  0  0  0  0  0
  -47.7971  -58.9789  -48.9489 C   0  0  0  0  0  0  0  0  0  0  0  0
  -48.3011  -59.6326  -47.8262 C   0  0  0  0  0  0  0  0  0  0  0  0
  -50.1649  -59.6627  -47.5144 Br  0  0  0  0  0  0  0  0  0  0  0  0
  -47.4392  -60.2632  -46.9336 C   0  0  0  0  0  0  0  0  0  0  0  0
  -46.0632  -60.2365  -47.1711 C   0  0  0  0  0  0  0  0  0  0  0  0
 13 14  2  0
 14 15  1  0
 14  1  1  0
  1  2  1  0
  1  3  1  0
  3  4  1  0
  4 17  1  0
 17 18  1  0
 18 19  1  0
 19 20  1  0
 20 21  1  0
 21 22  2  0
 22 23  1  0
 23 24  2  0
 24 25  1  0
 24 26  1  0
 26 27  2  0
  4  5  1  0
  5  6  1  0
  5  7  1  0
  7  8  1  0
  7  9  1  0
  9  1  1  0
 27 21  1  0
 15 16  1  0
  2 10  1  0
  6 11  1  0
  8 12  1  0
M  END
> <minimizedAffinity>
-7.98832

> <CNNscore>
0.3724844754

> <CNNaffinity>
4.7035579681

> <CNN_VS>
1.7520023584

> <CNNaffinity_variance>
0.1281793416

$$$$



 27 28  0  0  0  0  0  0  0  0999 V2000
  -40.5961  -61.2914  -51.2996 C   0  0  0  0  0  0  0  0  0  0  0  0
  -40.3834  -62.7212  -51.2734 O   0  0  0  0  0  0  0  0  0  0  0  0
  -39.9504  -60.7129  -50.0368 C   0  0  0  0  0  0  0  0  0  0  0  0
  -38.4497  -61.0665  -49.9126 C   0  0  0  0  0  0  0  0  0  0  0  0
  -37.7653  -61.1893  -51.2989 C   0  0  0  0  0  0  0  0  0  0  0  0
  -37.7148  -62.5657  -51.6872 O   0  0  0  0  0  0  0  0  0  0  0  0
  -38.4705  -60.3737  -52.3977 C   0  0  0  0  0  0  0  0  0  0  0  0
  -38.4041  -58.9774  -52.0976 O   0  0  0  0  0  0  0  0  0  0  0  0
  -39.9443  -60.7606  -52.5857 C   0  0  0  0  0  0  0  0  0  0  0  0
  -40.7832  -63.0929  -50.4716 H   0  0  0  0  0  0  0  0  0  0  0  0
  -38.6174  -62.9100  -51.7757 H   0  0  0  0  0  0  0  0  0  0  0  0
  -38.8788  -58.8016  -51.2702 H   0  0  0  0  0  0  0  0  0  0  0  0
  -42.6459  -60.1640  -50.6005 O   0  0  0  0  0  0  0  0  0  0  0  0
  -42.1054  -61.0145  -51.2950 C   0  0  0  0  0  0  0  0  0  0  0  0
  -42.8230  -61.7662  -52.1461 O   0  0  0  0  0  0  0  0  0  0  0  0
  -42.3971  -62.4141  -52.6723 H   0  0  0  0  0  0  0  0  0  0  0  0
  -37.7076  -60.0507  -49.0162 C   0  0  0  0  0  0  0  0  0  0  0  0
  -38.5666  -59.5173  -47.8678 C   0  0  0  0  0  0  0  0  0  0  0  0
  -38.0264  -59.9592  -46.5087 C   0  0  0  0  0  0  0  0  0  0  0  0
  -39.0948  -60.5854  -45.7984 O   0  0  0  0  0  0  0  0  0  0  0  0
  -38.8756  -60.8913  -44.4839 C   0  0  0  0  0  0  0  0  0  0  0  0
  -37.6302  -61.0436  -43.8719 C   0  0  0  0  0  0  0  0  0  0  0  0
  -37.5499  -61.3588  -42.5106 C   0  0  0  0  0  0  0  0  0  0  0  0
  -38.7153  -61.5211  -41.7641 C   0  0  0  0  0  0  0  0  0  0  0  0
  -38.6019  -61.9467  -39.9262 Br  0  0  0  0  0  0  0  0  0  0  0  0
  -39.9618  -61.3717  -42.3648 C   0  0  0  0  0  0  0  0  0  0  0  0
  -40.0373  -61.0570  -43.7235 C   0  0  0  0  0  0  0  0  0  0  0  0
 13 14  2  0
 14 15  1  0
 14  1  1  0
  1  2  1  0
  1  3  1  0
  3  4  1  0
  4 17  1  0
 17 18  1  0
 18 19  1  0
 19 20  1  0
 20 21  1  0
 21 22  2  0
 22 23  1  0
 23 24  2  0
 24 25  1  0
 24 26  1  0
 26 27  2  0
  4  5  1  0
  5  6  1  0
  5  7  1  0
  7  8  1  0
  7  9  1  0
  9  1  1  0
 27 21  1  0
 15 16  1  0
  2 10  1  0
  6 11  1  0
  8 12  1  0
M  END
> <minimizedAffinity>
-6.76683

> <CNNscore>
0.3447840214

> <CNNaffinity>
4.9212856293

> <CNN_VS>
1.6967806816

> <CNNaffinity_variance>
0.5639157891

$$$$



 27 28  0  0  0  0  0  0  0  0999 V2000
  -28.6974  -68.7989  -50.3711 C   0  0  0  0  0  0  0  0  0  0  0  0
  -28.5039  -69.5593  -51.5855 O   0  0  0  0  0  0  0  0  0  0  0  0
  -30.1583  -68.9818  -49.9487 C   0  0  0  0  0  0  0  0  0  0  0  0
  -30.5494  -70.4667  -49.7630 C   0  0  0  0  0  0  0  0  0  0  0  0
  -29.3551  -71.3245  -49.2701 C   0  0  0  0  0  0  0  0  0  0  0  0
  -28.7385  -71.9728  -50.3870 O   0  0  0  0  0  0  0  0  0  0  0  0
  -28.2975  -70.5086  -48.5049 C   0  0  0  0  0  0  0  0  0  0  0  0
  -28.8596  -69.9704  -47.3056 O   0  0  0  0  0  0  0  0  0  0  0  0
  -27.7134  -69.3525  -49.3291 C   0  0  0  0  0  0  0  0  0  0  0  0
  -29.1112  -69.2363  -52.2694 H   0  0  0  0  0  0  0  0  0  0  0  0
  -28.3863  -71.3041  -50.9950 H   0  0  0  0  0  0  0  0  0  0  0  0
  -29.5766  -69.3573  -47.5314 H   0  0  0  0  0  0  0  0  0  0  0  0
  -28.8424  -66.3918  -49.9887 O   0  0  0  0  0  0  0  0  0  0  0  0
  -28.4133  -67.3192  -50.6621 C   0  0  0  0  0  0  0  0  0  0  0  0
  -27.6166  -67.0915  -51.7194 O   0  0  0  0  0  0  0  0  0  0  0  0
  -27.2948  -67.8104  -52.2270 H   0  0  0  0  0  0  0  0  0  0  0  0
  -31.7632  -70.6121  -48.8188 C   0  0  0  0  0  0  0  0  0  0  0  0
  -33.0924  -70.7622  -49.5617 C   0  0  0  0  0  0  0  0  0  0  0  0
  -33.3344  -69.5994  -50.5227 C   0  0  0  0  0  0  0  0  0  0  0  0
  -33.5131  -70.1450  -51.8298 O   0  0  0  0  0  0  0  0  0  0  0  0
  -34.7905  -70.4505  -52.2094 C   0  0  0  0  0  0  0  0  0  0  0  0
  -35.1832  -71.5657  -52.9516 C   0  0  0  0  0  0  0  0  0  0  0  0
  -36.5321  -71.7574  -53.2718 C   0  0  0  0  0  0  0  0  0  0  0  0
  -37.4857  -70.8333  -52.8494 C   0  0  0  0  0  0  0  0  0  0  0  0
  -39.3060  -71.0963  -53.2844 Br  0  0  0  0  0  0  0  0  0  0  0  0
  -37.1046  -69.7179  -52.1093 C   0  0  0  0  0  0  0  0  0  0  0  0
  -35.7574  -69.5307  -51.7919 C   0  0  0  0  0  0  0  0  0  0  0  0
 13 14  2  0
 14 15  1  0
 14  1  1  0
  1  2  1  0
  1  3  1  0
  3  4  1  0
  4 17  1  0
 17 18  1  0
 18 19  1  0
 19 20  1  0
 20 21  1  0
 21 22  2  0
 22 23  1  0
 23 24  2  0
 24 25  1  0
 24 26  1  0
 26 27  2  0
  4  5  1  0
  5  6  1  0
  5  7  1  0
  7  8  1  0
  7  9  1  0
  9  1  1  0
 27 21  1  0
 15 16  1  0
  2 10  1  0
  6 11  1  0
  8 12  1  0
M  END
> <minimizedAffinity>
-4.38815

> <CNNscore>
0.3026308119

> <CNNaffinity>
3.5696861744

> <CNN_VS>
1.0802969933

> <CNNaffinity_variance>
0.3591303527

$$$$
