


 21 22  0  0  0  0  0  0  0  0999 V2000
   20.5488   18.9834   -6.2636 C   0  0  0  0  0  0  0  0  0  0  0  0
   19.2873   18.6728   -5.7401 C   0  0  0  0  0  0  0  0  0  0  0  0
   18.1407   18.6300   -6.5476 C   0  0  0  0  0  0  0  0  0  0  0  0
   18.2795   18.9034   -7.9192 C   0  0  0  0  0  0  0  0  0  0  0  0
   17.4038   18.9498   -9.0505 C   0  0  0  0  0  0  0  0  0  0  0  0
   18.1983   19.3123  -10.1210 C   0  0  0  0  0  0  0  0  0  0  0  0
   19.4904   19.4517   -9.7386 O   0  0  0  0  0  0  0  0  0  0  0  0
   19.5461   19.2121   -8.4014 C   0  0  0  0  0  0  0  0  0  0  0  0
   20.7027   19.2634   -7.6235 C   0  0  0  0  0  0  0  0  0  0  0  0
   21.3089   18.2761   -4.1191 C   0  0  0  0  0  0  0  0  0  0  0  0
   21.5548   18.9755   -5.3351 O   0  0  0  0  0  0  0  0  0  0  0  0
   15.9419   18.6555   -9.0775 C   0  0  0  0  0  0  0  0  0  0  0  0
   15.1873   19.7703   -9.8248 C   0  0  0  0  0  0  0  0  0  0  0  0
   14.5385   19.3654  -11.2177 N   0  0  0  0  0  0  0  0  0  0  0  0
   13.0921   19.8629  -11.2203 C   0  0  0  0  0  0  0  0  0  0  0  0
   15.3228   20.0497  -12.3194 C   0  0  0  0  0  0  0  0  0  0  0  0
   14.6141   17.8387  -11.2311 C   0  0  0  0  0  0  0  0  0  0  0  0
   14.2038   17.0168  -12.4365 N   0  0  0  0  0  0  0  0  0  0  0  0
   13.2067   15.9025  -12.1798 C   0  0  0  0  0  0  0  0  0  0  0  0
   15.5103   16.3109  -12.9243 C   0  0  0  0  0  0  0  0  0  0  0  0
   13.7425   17.8617  -13.6271 C   0  0  0  0  0  0  0  0  0  0  0  0
 10 11  1  0
 11  1  1  0
  1  2  2  0
  2  3  1  0
  3  4  2  0
  4  5  1  0
  5 12  1  0
 12 13  1  0
 13 14  1  0
 14 15  1  0
 14 16  1  0
 14 17  1  0
 17 18  1  0
 18 19  1  0
 18 20  1  0
 18 21  1  0
  5  6  2  0
  6  7  1  0
  7  8  1  0
  8  9  2  0
  9  1  1  0
  8  4  1  0
M  CHG 1  14   1
M  CHG 1  18   1
M  END
> <minimizedAffinity>
-3.56724

> <CNNscore>
0.1838143170

> <CNNaffinity>
3.3732681274

> <CNN_VS>
0.6200549603

> <CNNaffinity_variance>
0.6494641900

$$$$



 21 22  0  0  0  0  0  0  0  0999 V2000
    6.2544   13.8018  -10.0279 C   0  0  0  0  0  0  0  0  0  0  0  0
    6.8990   13.0434  -11.0133 C   0  0  0  0  0  0  0  0  0  0  0  0
    7.0268   11.6499  -10.9096 C   0  0  0  0  0  0  0  0  0  0  0  0
    6.4824   11.0118   -9.7820 C   0  0  0  0  0  0  0  0  0  0  0  0
    6.3841    9.6627   -9.3134 C   0  0  0  0  0  0  0  0  0  0  0  0
    5.7343    9.7382   -8.0966 C   0  0  0  0  0  0  0  0  0  0  0  0
    5.3967   11.0179   -7.8076 O   0  0  0  0  0  0  0  0  0  0  0  0
    5.8542   11.7978   -8.8231 C   0  0  0  0  0  0  0  0  0  0  0  0
    5.7132   13.1834   -8.8983 C   0  0  0  0  0  0  0  0  0  0  0  0
    6.8489   15.5858  -11.4911 C   0  0  0  0  0  0  0  0  0  0  0  0
    6.2176   15.1444  -10.2931 O   0  0  0  0  0  0  0  0  0  0  0  0
    6.8668    8.4285   -9.9975 C   0  0  0  0  0  0  0  0  0  0  0  0
    8.4061    8.3955  -10.0144 C   0  0  0  0  0  0  0  0  0  0  0  0
    9.0913    8.3922  -11.4481 N   0  0  0  0  0  0  0  0  0  0  0  0
    9.8969    7.0984  -11.5766 C   0  0  0  0  0  0  0  0  0  0  0  0
    7.9950    8.4250  -12.4943 C   0  0  0  0  0  0  0  0  0  0  0  0
    9.9953    9.6247  -11.4289 C   0  0  0  0  0  0  0  0  0  0  0  0
   10.8052   10.0555  -12.6353 N   0  0  0  0  0  0  0  0  0  0  0  0
   12.2029    9.4759  -12.7456 C   0  0  0  0  0  0  0  0  0  0  0  0
   10.9985   11.5986  -12.4785 C   0  0  0  0  0  0  0  0  0  0  0  0
   10.0654    9.8826  -13.9646 C   0  0  0  0  0  0  0  0  0  0  0  0
 10 11  1  0
 11  1  1  0
  1  2  2  0
  2  3  1  0
  3  4  2  0
  4  5  1  0
  5 12  1  0
 12 13  1  0
 13 14  1  0
 14 15  1  0
 14 16  1  0
 14 17  1  0
 17 18  1  0
 18 19  1  0
 18 20  1  0
 18 21  1  0
  5  6  2  0
  6  7  1  0
  7  8  1  0
  8  9  2  0
  9  1  1  0
  8  4  1  0
M  CHG 1  14   1
M  CHG 1  18   1
M  END
> <minimizedAffinity>
-3.64658

> <CNNscore>
0.1778749377

> <CNNaffinity>
2.8487141132

> <CNN_VS>
0.5067148209

> <CNNaffinity_variance>
1.5487285852

$$$$



 21 22  0  0  0  0  0  0  0  0999 V2000
   13.1536    9.7301   -3.9329 C   0  0  0  0  0  0  0  0  0  0  0  0
   14.5513    9.7709   -4.0146 C   0  0  0  0  0  0  0  0  0  0  0  0
   15.3528    9.9947   -2.8849 C   0  0  0  0  0  0  0  0  0  0  0  0
   14.7204   10.1756   -1.6429 C   0  0  0  0  0  0  0  0  0  0  0  0
   15.1488   10.4051   -0.2965 C   0  0  0  0  0  0  0  0  0  0  0  0
   13.9906   10.5147    0.4486 C   0  0  0  0  0  0  0  0  0  0  0  0
   12.8965   10.3322   -0.3292 O   0  0  0  0  0  0  0  0  0  0  0  0
   13.3316   10.1330   -1.6018 C   0  0  0  0  0  0  0  0  0  0  0  0
   12.5095    9.9139   -2.7070 C   0  0  0  0  0  0  0  0  0  0  0  0
   11.1085    9.5448   -5.1412 C   0  0  0  0  0  0  0  0  0  0  0  0
   12.5319    9.4975   -5.1302 O   0  0  0  0  0  0  0  0  0  0  0  0
   16.5503   10.4937    0.2058 C   0  0  0  0  0  0  0  0  0  0  0  0
   16.5948   10.2001    1.7166 C   0  0  0  0  0  0  0  0  0  0  0  0
   17.5084   11.1623    2.5909 N   0  0  0  0  0  0  0  0  0  0  0  0
   18.8635   10.4774    2.7757 C   0  0  0  0  0  0  0  0  0  0  0  0
   17.6851   12.4622    1.8319 C   0  0  0  0  0  0  0  0  0  0  0  0
   16.7517   11.2905    3.9130 C   0  0  0  0  0  0  0  0  0  0  0  0
   16.0125   10.1259    4.5407 N   0  0  0  0  0  0  0  0  0  0  0  0
   14.7789   10.4745    5.3522 C   0  0  0  0  0  0  0  0  0  0  0  0
   17.0190    9.4899    5.5533 C   0  0  0  0  0  0  0  0  0  0  0  0
   15.6833    9.0037    3.5525 C   0  0  0  0  0  0  0  0  0  0  0  0
 10 11  1  0
 11  1  1  0
  1  2  2  0
  2  3  1  0
  3  4  2  0
  4  5  1  0
  5 12  1  0
 12 13  1  0
 13 14  1  0
 14 15  1  0
 14 16  1  0
 14 17  1  0
 17 18  1  0
 18 19  1  0
 18 20  1  0
 18 21  1  0
  5  6  2  0
  6  7  1  0
  7  8  1  0
  8  9  2  0
  9  1  1  0
  8  4  1  0
M  CHG 1  14   1
M  CHG 1  18   1
M  END
> <minimizedAffinity>
-7.07604

> <CNNscore>
0.1492604613

> <CNNaffinity>
4.2522759438

> <CNN_VS>
0.6346966624

> <CNNaffinity_variance>
0.8599548340

$$$$



 21 22  0  0  0  0  0  0  0  0999 V2000
   13.3746    9.7733   -3.8119 C   0  0  0  0  0  0  0  0  0  0  0  0
   14.7657    9.9218   -3.7442 C   0  0  0  0  0  0  0  0  0  0  0  0
   15.4307   10.1192   -2.5246 C   0  0  0  0  0  0  0  0  0  0  0  0
   14.6658   10.1610   -1.3463 C   0  0  0  0  0  0  0  0  0  0  0  0
   14.9389   10.3207    0.0498 C   0  0  0  0  0  0  0  0  0  0  0  0
   13.7075   10.2902    0.6753 C   0  0  0  0  0  0  0  0  0  0  0  0
   12.7140   10.0865   -0.2229 O   0  0  0  0  0  0  0  0  0  0  0  0
   13.2878   10.0144   -1.4535 C   0  0  0  0  0  0  0  0  0  0  0  0
   12.5995    9.8183   -2.6506 C   0  0  0  0  0  0  0  0  0  0  0  0
   11.4806    9.5382   -5.2382 C   0  0  0  0  0  0  0  0  0  0  0  0
   12.8952    9.5852   -5.0804 O   0  0  0  0  0  0  0  0  0  0  0  0
   16.2720   10.4739    0.7006 C   0  0  0  0  0  0  0  0  0  0  0  0
   16.1019   10.8900    2.1733 C   0  0  0  0  0  0  0  0  0  0  0  0
   17.4140   11.3919    2.9158 N   0  0  0  0  0  0  0  0  0  0  0  0
   18.6029   10.6310    2.3265 C   0  0  0  0  0  0  0  0  0  0  0  0
   17.5670   12.8763    2.6503 C   0  0  0  0  0  0  0  0  0  0  0  0
   17.1739   11.0246    4.3801 C   0  0  0  0  0  0  0  0  0  0  0  0
   16.3790    9.8011    4.7897 N   0  0  0  0  0  0  0  0  0  0  0  0
   16.4418    8.6146    3.8464 C   0  0  0  0  0  0  0  0  0  0  0  0
   14.8841   10.2577    4.7958 C   0  0  0  0  0  0  0  0  0  0  0  0
   16.6575    9.3399    6.2228 C   0  0  0  0  0  0  0  0  0  0  0  0
 10 11  1  0
 11  1  1  0
  1  2  2  0
  2  3  1  0
  3  4  2  0
  4  5  1  0
  5 12  1  0
 12 13  1  0
 13 14  1  0
 14 15  1  0
 14 16  1  0
 14 17  1  0
 17 18  1  0
 18 19  1  0
 18 20  1  0
 18 21  1  0
  5  6  2  0
  6  7  1  0
  7  8  1  0
  8  9  2  0
  9  1  1  0
  8  4  1  0
M  CHG 1  14   1
M  CHG 1  18   1
M  END
> <minimizedAffinity>
-6.67286

> <CNNscore>
0.1432152092

> <CNNaffinity>
4.2266564369

> <CNN_VS>
0.6053214669

> <CNNaffinity_variance>
0.9199208617

$$$$



 21 22  0  0  0  0  0  0  0  0999 V2000
    7.1119    9.3186   -8.9768 C   0  0  0  0  0  0  0  0  0  0  0  0
    6.7932    8.0876   -9.5642 C   0  0  0  0  0  0  0  0  0  0  0  0
    7.6148    7.4958  -10.5355 C   0  0  0  0  0  0  0  0  0  0  0  0
    8.7899    8.1670  -10.9147 C   0  0  0  0  0  0  0  0  0  0  0  0
    9.8691    7.9152  -11.8208 C   0  0  0  0  0  0  0  0  0  0  0  0
   10.7012    9.0136  -11.7222 C   0  0  0  0  0  0  0  0  0  0  0  0
   10.2348    9.8923  -10.8027 O   0  0  0  0  0  0  0  0  0  0  0  0
    9.0706    9.3884  -10.3134 C   0  0  0  0  0  0  0  0  0  0  0  0
    8.2732   10.0012   -9.3471 C   0  0  0  0  0  0  0  0  0  0  0  0
    5.1556   10.5944   -8.5058 C   0  0  0  0  0  0  0  0  0  0  0  0
    6.2022    9.7445   -8.0467 O   0  0  0  0  0  0  0  0  0  0  0  0
   10.0673    6.7143  -12.6826 C   0  0  0  0  0  0  0  0  0  0  0  0
   10.7650    5.5960  -11.8867 C   0  0  0  0  0  0  0  0  0  0  0  0
   12.1656    5.1025  -12.4523 N   0  0  0  0  0  0  0  0  0  0  0  0
   11.8965    3.9532  -13.4251 C   0  0  0  0  0  0  0  0  0  0  0  0
   12.8119    6.2605  -13.1860 C   0  0  0  0  0  0  0  0  0  0  0  0
   12.9205    4.6300  -11.2099 C   0  0  0  0  0  0  0  0  0  0  0  0
   13.0323    3.1655  -10.8367 N   0  0  0  0  0  0  0  0  0  0  0  0
   11.7354    2.3784  -10.8162 C   0  0  0  0  0  0  0  0  0  0  0  0
   13.5601    3.1490   -9.3656 C   0  0  0  0  0  0  0  0  0  0  0  0
   14.0878    2.4053  -11.6442 C   0  0  0  0  0  0  0  0  0  0  0  0
 10 11  1  0
 11  1  1  0
  1  2  2  0
  2  3  1  0
  3  4  2  0
  4  5  1  0
  5 12  1  0
 12 13  1  0
 13 14  1  0
 14 15  1  0
 14 16  1  0
 14 17  1  0
 17 18  1  0
 18 19  1  0
 18 20  1  0
 18 21  1  0
  5  6  2  0
  6  7  1  0
  7  8  1  0
  8  9  2  0
  9  1  1  0
  8  4  1  0
M  CHG 1  14   1
M  CHG 1  18   1
M  END
> <minimizedAffinity>
-4.07913

> <CNNscore>
0.1247262508

> <CNNaffinity>
2.5621612072

> <CNN_VS>
0.3195687532

> <CNNaffinity_variance>
1.7171306610

$$$$



 21 22  0  0  0  0  0  0  0  0999 V2000
   13.2741    9.7699   -3.6307 C   0  0  0  0  0  0  0  0  0  0  0  0
   12.5441    9.9500   -2.4490 C   0  0  0  0  0  0  0  0  0  0  0  0
   13.1746   10.1835   -1.2175 C   0  0  0  0  0  0  0  0  0  0  0  0
   14.5785   10.2409   -1.1866 C   0  0  0  0  0  0  0  0  0  0  0  0
   15.5751   10.4637   -0.1834 C   0  0  0  0  0  0  0  0  0  0  0  0
   16.7886   10.3628   -0.8360 C   0  0  0  0  0  0  0  0  0  0  0  0
   16.6083   10.1355   -2.1593 O   0  0  0  0  0  0  0  0  0  0  0  0
   15.2689   10.0530   -2.3783 C   0  0  0  0  0  0  0  0  0  0  0  0
   14.6701    9.8183   -3.6159 C   0  0  0  0  0  0  0  0  0  0  0  0
   11.1315    9.2228   -4.5175 C   0  0  0  0  0  0  0  0  0  0  0  0
   12.4981    9.5574   -4.7383 O   0  0  0  0  0  0  0  0  0  0  0  0
   15.3557   10.7580    1.2621 C   0  0  0  0  0  0  0  0  0  0  0  0
   14.9515    9.4754    2.0121 C   0  0  0  0  0  0  0  0  0  0  0  0
   13.5995    9.5465    2.8440 N   0  0  0  0  0  0  0  0  0  0  0  0
   13.1632   11.0115    2.8997 C   0  0  0  0  0  0  0  0  0  0  0  0
   12.5551    8.7231    2.1170 C   0  0  0  0  0  0  0  0  0  0  0  0
   13.9862    9.0161    4.2245 C   0  0  0  0  0  0  0  0  0  0  0  0
   15.3224    9.3277    4.8682 N   0  0  0  0  0  0  0  0  0  0  0  0
   15.4818    8.9088    6.3176 C   0  0  0  0  0  0  0  0  0  0  0  0
   15.4339   10.8867    4.8639 C   0  0  0  0  0  0  0  0  0  0  0  0
   16.5242    8.8429    4.0528 C   0  0  0  0  0  0  0  0  0  0  0  0
 10 11  1  0
 11  1  1  0
  1  2  2  0
  2  3  1  0
  3  4  2  0
  4  5  1  0
  5 12  1  0
 12 13  1  0
 13 14  1  0
 14 15  1  0
 14 16  1  0
 14 17  1  0
 17 18  1  0
 18 19  1  0
 18 20  1  0
 18 21  1  0
  5  6  2  0
  6  7  1  0
  7  8  1  0
  8  9  2  0
  9  1  1  0
  8  4  1  0
M  CHG 1  14   1
M  CHG 1  18   1
M  END
> <minimizedAffinity>
-7.18671

> <CNNscore>
0.1226571873

> <CNNaffinity>
4.2491211891

> <CNN_VS>
0.5211852789

> <CNNaffinity_variance>
1.1011470556

$$$$



 21 22  0  0  0  0  0  0  0  0999 V2000
   14.0794    9.8689   -3.2536 C   0  0  0  0  0  0  0  0  0  0  0  0
   12.8983    9.9882   -2.5102 C   0  0  0  0  0  0  0  0  0  0  0  0
   12.9142   10.1672   -1.1186 C   0  0  0  0  0  0  0  0  0  0  0  0
   14.1583   10.2320   -0.4681 C   0  0  0  0  0  0  0  0  0  0  0  0
   14.6036   10.4134    0.8802 C   0  0  0  0  0  0  0  0  0  0  0  0
   15.9827   10.3512    0.8278 C   0  0  0  0  0  0  0  0  0  0  0  0
   16.4109   10.1855   -0.4467 O   0  0  0  0  0  0  0  0  0  0  0  0
   15.3084   10.1051   -1.2383 C   0  0  0  0  0  0  0  0  0  0  0  0
   15.3237    9.9253   -2.6213 C   0  0  0  0  0  0  0  0  0  0  0  0
   15.0060    9.8805   -5.4486 C   0  0  0  0  0  0  0  0  0  0  0  0
   13.8777    9.7042   -4.5976 O   0  0  0  0  0  0  0  0  0  0  0  0
   13.7611   10.6375    2.0903 C   0  0  0  0  0  0  0  0  0  0  0  0
   13.8290    9.4133    3.0216 C   0  0  0  0  0  0  0  0  0  0  0  0
   14.7365    9.5676    4.3168 N   0  0  0  0  0  0  0  0  0  0  0  0
   16.0133    8.7563    4.0906 C   0  0  0  0  0  0  0  0  0  0  0  0
   15.0783   11.0351    4.4805 C   0  0  0  0  0  0  0  0  0  0  0  0
   13.8816    8.9800    5.4397 C   0  0  0  0  0  0  0  0  0  0  0  0
   14.3703    8.8953    6.8717 N   0  0  0  0  0  0  0  0  0  0  0  0
   13.9199    7.6815    7.6626 C   0  0  0  0  0  0  0  0  0  0  0  0
   13.7458   10.1296    7.5993 C   0  0  0  0  0  0  0  0  0  0  0  0
   15.8839    9.0756    7.0152 C   0  0  0  0  0  0  0  0  0  0  0  0
 10 11  1  0
 11  1  1  0
  1  2  2  0
  2  3  1  0
  3  4  2  0
  4  5  1  0
  5 12  1  0
 12 13  1  0
 13 14  1  0
 14 15  1  0
 14 16  1  0
 14 17  1  0
 17 18  1  0
 18 19  1  0
 18 20  1  0
 18 21  1  0
  5  6  2  0
  6  7  1  0
  7  8  1  0
  8  9  2  0
  9  1  1  0
  8  4  1  0
M  CHG 1  14   1
M  CHG 1  18   1
M  END
> <minimizedAffinity>
-7.34901

> <CNNscore>
0.1219479293

> <CNNaffinity>
3.8222198486

> <CNN_VS>
0.4661118090

> <CNNaffinity_variance>
2.0270252228

$$$$



 21 22  0  0  0  0  0  0  0  0999 V2000
   26.2768   19.2802   -8.1803 C   0  0  0  0  0  0  0  0  0  0  0  0
   25.3670   19.9095   -7.3213 C   0  0  0  0  0  0  0  0  0  0  0  0
   24.0466   19.4563   -7.1805 C   0  0  0  0  0  0  0  0  0  0  0  0
   23.6428   18.3349   -7.9251 C   0  0  0  0  0  0  0  0  0  0  0  0
   22.4399   17.5706   -8.0594 C   0  0  0  0  0  0  0  0  0  0  0  0
   22.7222   16.5944   -8.9952 C   0  0  0  0  0  0  0  0  0  0  0  0
   24.0088   16.6806   -9.4105 O   0  0  0  0  0  0  0  0  0  0  0  0
   24.5719   17.7397   -8.7704 C   0  0  0  0  0  0  0  0  0  0  0  0
   25.8894   18.1681   -8.9317 C   0  0  0  0  0  0  0  0  0  0  0  0
   27.6407   21.1528   -7.6237 C   0  0  0  0  0  0  0  0  0  0  0  0
   27.5208   19.8516   -8.1901 O   0  0  0  0  0  0  0  0  0  0  0  0
   21.1527   17.7718   -7.3333 C   0  0  0  0  0  0  0  0  0  0  0  0
   20.4970   19.0957   -7.7671 C   0  0  0  0  0  0  0  0  0  0  0  0
   19.3972   19.6878   -6.7850 N   0  0  0  0  0  0  0  0  0  0  0  0
   18.7018   18.5103   -6.0997 C   0  0  0  0  0  0  0  0  0  0  0  0
   20.1006   20.5454   -5.7520 C   0  0  0  0  0  0  0  0  0  0  0  0
   18.4469   20.4489   -7.7094 C   0  0  0  0  0  0  0  0  0  0  0  0
   17.0528   19.9483   -8.0298 N   0  0  0  0  0  0  0  0  0  0  0  0
   16.9701   18.6967   -8.8832 C   0  0  0  0  0  0  0  0  0  0  0  0
   16.3868   21.0815   -8.8755 C   0  0  0  0  0  0  0  0  0  0  0  0
   16.1572   19.7961   -6.7974 C   0  0  0  0  0  0  0  0  0  0  0  0
 10 11  1  0
 11  1  1  0
  1  2  2  0
  2  3  1  0
  3  4  2  0
  4  5  1  0
  5 12  1  0
 12 13  1  0
 13 14  1  0
 14 15  1  0
 14 16  1  0
 14 17  1  0
 17 18  1  0
 18 19  1  0
 18 20  1  0
 18 21  1  0
  5  6  2  0
  6  7  1  0
  7  8  1  0
  8  9  2  0
  9  1  1  0
  8  4  1  0
M  CHG 1  14   1
M  CHG 1  18   1
M  END
> <minimizedAffinity>
-4.20980

> <CNNscore>
0.1147836670

> <CNNaffinity>
2.7850382328

> <CNN_VS>
0.3196769059

> <CNNaffinity_variance>
1.5368658304

$$$$



 21 22  0  0  0  0  0  0  0  0999 V2000
   26.5644   18.9181   -9.3595 C   0  0  0  0  0  0  0  0  0  0  0  0
   26.4350   19.7709   -8.2560 C   0  0  0  0  0  0  0  0  0  0  0  0
   25.2482   19.8429   -7.5109 C   0  0  0  0  0  0  0  0  0  0  0  0
   24.1701   19.0260   -7.8923 C   0  0  0  0  0  0  0  0  0  0  0  0
   22.8416   18.7899   -7.4142 C   0  0  0  0  0  0  0  0  0  0  0  0
   22.2945   17.8623   -8.2794 C   0  0  0  0  0  0  0  0  0  0  0  0
   23.1952   17.4882   -9.2196 O   0  0  0  0  0  0  0  0  0  0  0  0
   24.3342   18.1961   -8.9952 C   0  0  0  0  0  0  0  0  0  0  0  0
   25.5002   18.1041   -9.7549 C   0  0  0  0  0  0  0  0  0  0  0  0
   27.8681   19.6609  -11.2103 C   0  0  0  0  0  0  0  0  0  0  0  0
   27.7907   18.9730   -9.9656 O   0  0  0  0  0  0  0  0  0  0  0  0
   22.1848   19.4027   -6.2236 C   0  0  0  0  0  0  0  0  0  0  0  0
   21.0449   20.3385   -6.6661 C   0  0  0  0  0  0  0  0  0  0  0  0
   20.4792   21.3266   -5.5578 N   0  0  0  0  0  0  0  0  0  0  0  0
   21.1241   20.9484   -4.2233 C   0  0  0  0  0  0  0  0  0  0  0  0
   20.8731   22.7392   -5.9406 C   0  0  0  0  0  0  0  0  0  0  0  0
   18.9741   21.0593   -5.5572 C   0  0  0  0  0  0  0  0  0  0  0  0
   18.0690   21.5145   -6.6843 N   0  0  0  0  0  0  0  0  0  0  0  0
   16.6956   22.0162   -6.2796 C   0  0  0  0  0  0  0  0  0  0  0  0
   17.8146   20.2416   -7.5550 C   0  0  0  0  0  0  0  0  0  0  0  0
   18.7289   22.5180   -7.6340 C   0  0  0  0  0  0  0  0  0  0  0  0
 10 11  1  0
 11  1  1  0
  1  2  2  0
  2  3  1  0
  3  4  2  0
  4  5  1  0
  5 12  1  0
 12 13  1  0
 13 14  1  0
 14 15  1  0
 14 16  1  0
 14 17  1  0
 17 18  1  0
 18 19  1  0
 18 20  1  0
 18 21  1  0
  5  6  2  0
  6  7  1  0
  7  8  1  0
  8  9  2  0
  9  1  1  0
  8  4  1  0
M  CHG 1  14   1
M  CHG 1  18   1
M  END
> <minimizedAffinity>
-3.37793

> <CNNscore>
0.1143027693

> <CNNaffinity>
2.6693413258

> <CNN_VS>
0.3051131070

> <CNNaffinity_variance>
1.2545789480

$$$$
