


 26 27  0  0  0  0  0  0  0  0999 V2000
   13.6524    2.8718   38.7825 C   0  0  0  0  0  0  0  0  0  0  0  0
   13.6040    3.4959   40.1750 C   0  0  0  0  0  0  0  0  0  0  0  0
   14.4932    4.2482   40.5888 O   0  0  0  0  0  0  0  0  0  0  0  0
   12.4429    3.1036   41.1058 C   0  0  0  0  0  0  0  0  0  0  0  0
   11.9454    1.7033   40.7120 C   0  0  0  0  0  0  0  0  0  0  0  0
   11.4215    1.6737   39.2687 C   0  0  0  0  0  0  0  0  0  0  0  0
   12.2260    2.5600   38.2917 C   0  0  0  0  0  0  0  0  0  0  0  0
   11.4992    3.7840   38.1424 O   0  0  0  0  0  0  0  0  0  0  0  0
   10.6003    3.5907   37.8333 H   0  0  0  0  0  0  0  0  0  0  0  0
   12.2860    1.8137   36.9482 C   0  0  0  0  0  0  0  0  0  0  0  0
   12.8166    2.1810   35.9144 O   0  0  0  0  0  0  0  0  0  0  0  0
   11.6835    0.6017   37.0159 O   0  0  0  0  0  0  0  0  0  0  0  0
   11.2771    0.3244   37.8133 H   0  0  0  0  0  0  0  0  0  0  0  0
   11.3229    3.9799   41.1322 O   0  0  0  0  0  0  0  0  0  0  0  0
   10.0789    3.2952   41.2082 C   0  0  0  0  0  0  0  0  0  0  0  0
   12.9781    0.7101   40.8117 O   0  0  0  0  0  0  0  0  0  0  0  0
   14.0682    1.1046   41.6373 C   0  0  0  0  0  0  0  0  0  0  0  0
   14.5648    3.6668   37.8149 C   0  0  0  0  0  0  0  0  0  0  0  0
   18.5613    2.1798   37.0540 C   0  0  0  0  0  0  0  0  0  0  0  0
   18.1872    2.5704   38.3386 C   0  0  0  0  0  0  0  0  0  0  0  0
   16.8951    3.0526   38.5798 C   0  0  0  0  0  0  0  0  0  0  0  0
   15.9554    3.1452   37.5433 C   0  0  0  0  0  0  0  0  0  0  0  0
   16.3440    2.7645   36.2551 C   0  0  0  0  0  0  0  0  0  0  0  0
   17.6336    2.2825   36.0165 C   0  0  0  0  0  0  0  0  0  0  0  0
   19.8511    0.9999   35.4444 C   0  0  0  0  0  0  0  0  0  0  0  0
   19.7848    1.6938   36.6831 O   0  0  0  0  0  0  0  0  0  0  0  0
 25 26  1  0
 26 19  1  0
 19 20  2  0
 20 21  1  0
 21 22  2  0
 22 18  1  0
  1 18  1  0
  1  2  1  0
  2  3  2  0
  2  4  1  0
  4 14  1  0
 14 15  1  0
  4  5  1  0
  5 16  1  0
 16 17  1  0
  5  6  1  0
  6  7  1  0
  7  8  1  0
  7 10  1  0
 10 11  2  0
 10 12  1  0
 22 23  1  0
 23 24  2  0
 24 19  1  0
  7  1  1  0
  8  9  1  0
 12 13  1  0
M  END
> <minimizedAffinity>
-7.64959

> <CNNscore>
0.7995036840

> <CNNaffinity>
5.5799536705

> <CNN_VS>
4.4611935616

> <CNNaffinity_variance>
0.0037458166

$$$$



 26 27  0  0  0  0  0  0  0  0999 V2000
   17.4156    4.6315   43.9028 C   0  0  0  0  0  0  0  0  0  0  0  0
   18.3118    3.8129   44.8288 C   0  0  0  0  0  0  0  0  0  0  0  0
   18.6973    4.2452   45.9207 O   0  0  0  0  0  0  0  0  0  0  0  0
   18.8023    2.4399   44.3363 C   0  0  0  0  0  0  0  0  0  0  0  0
   18.8401    2.4510   42.7994 C   0  0  0  0  0  0  0  0  0  0  0  0
   17.4472    2.6951   42.2005 C   0  0  0  0  0  0  0  0  0  0  0  0
   16.5861    3.6951   43.0041 C   0  0  0  0  0  0  0  0  0  0  0  0
   15.6983    2.9221   43.8184 O   0  0  0  0  0  0  0  0  0  0  0  0
   15.1746    2.3313   43.2549 H   0  0  0  0  0  0  0  0  0  0  0  0
   15.7837    4.5222   41.9854 C   0  0  0  0  0  0  0  0  0  0  0  0
   16.1747    5.4614   41.3143 O   0  0  0  0  0  0  0  0  0  0  0  0
   14.5133    4.0689   41.8549 O   0  0  0  0  0  0  0  0  0  0  0  0
   14.2180    3.3465   42.3734 H   0  0  0  0  0  0  0  0  0  0  0  0
   18.0495    1.3071   44.7522 O   0  0  0  0  0  0  0  0  0  0  0  0
   18.8318    0.1244   44.8591 C   0  0  0  0  0  0  0  0  0  0  0  0
   19.7114    3.4694   42.2830 O   0  0  0  0  0  0  0  0  0  0  0  0
   21.0914    3.1307   42.3629 C   0  0  0  0  0  0  0  0  0  0  0  0
   16.6396    5.7362   44.6635 C   0  0  0  0  0  0  0  0  0  0  0  0
   14.4713    4.6451   48.2509 C   0  0  0  0  0  0  0  0  0  0  0  0
   13.9993    4.2598   46.9972 C   0  0  0  0  0  0  0  0  0  0  0  0
   14.7021    4.6165   45.8401 C   0  0  0  0  0  0  0  0  0  0  0  0
   15.8901    5.3571   45.9180 C   0  0  0  0  0  0  0  0  0  0  0  0
   16.3483    5.7514   47.1789 C   0  0  0  0  0  0  0  0  0  0  0  0
   15.6463    5.3936   48.3328 C   0  0  0  0  0  0  0  0  0  0  0  0
   12.7084    5.0927   49.7801 C   0  0  0  0  0  0  0  0  0  0  0  0
   13.8850    4.3648   49.4544 O   0  0  0  0  0  0  0  0  0  0  0  0
 25 26  1  0
 26 19  1  0
 19 20  2  0
 20 21  1  0
 21 22  2  0
 22 18  1  0
  1 18  1  0
  1  2  1  0
  2  3  2  0
  2  4  1  0
  4 14  1  0
 14 15  1  0
  4  5  1  0
  5 16  1  0
 16 17  1  0
  5  6  1  0
  6  7  1  0
  7  8  1  0
  7 10  1  0
 10 11  2  0
 10 12  1  0
 22 23  1  0
 23 24  2  0
 24 19  1  0
  7  1  1  0
  8  9  1  0
 12 13  1  0
M  END
> <minimizedAffinity>
-4.59131

> <CNNscore>
0.2677391469

> <CNNaffinity>
3.6683967113

> <CNN_VS>
0.9821733832

> <CNNaffinity_variance>
0.3628518879

$$$$



 26 27  0  0  0  0  0  0  0  0999 V2000
   18.2112   -1.8584   43.9442 C   0  0  0  0  0  0  0  0  0  0  0  0
   18.2481   -0.6711   44.9032 C   0  0  0  0  0  0  0  0  0  0  0  0
   18.2653    0.4976   44.5012 O   0  0  0  0  0  0  0  0  0  0  0  0
   18.3437   -0.9598   46.4118 C   0  0  0  0  0  0  0  0  0  0  0  0
   19.0310   -2.3204   46.6119 C   0  0  0  0  0  0  0  0  0  0  0  0
   18.2299   -3.4599   45.9650 C   0  0  0  0  0  0  0  0  0  0  0  0
   17.5567   -3.0728   44.6293 C   0  0  0  0  0  0  0  0  0  0  0  0
   16.1889   -2.7697   44.9230 O   0  0  0  0  0  0  0  0  0  0  0  0
   15.7741   -3.5329   45.3546 H   0  0  0  0  0  0  0  0  0  0  0  0
   17.6395   -4.3015   43.7078 C   0  0  0  0  0  0  0  0  0  0  0  0
   18.6365   -4.9203   43.3782 O   0  0  0  0  0  0  0  0  0  0  0  0
   16.4155   -4.6973   43.2817 O   0  0  0  0  0  0  0  0  0  0  0  0
   15.6525   -4.2178   43.5382 H   0  0  0  0  0  0  0  0  0  0  0  0
   17.1206   -0.9709   47.1376 O   0  0  0  0  0  0  0  0  0  0  0  0
   17.3065   -0.9382   48.5471 C   0  0  0  0  0  0  0  0  0  0  0  0
   20.3511   -2.3525   46.0471 O   0  0  0  0  0  0  0  0  0  0  0  0
   21.3172   -1.6495   46.8203 C   0  0  0  0  0  0  0  0  0  0  0  0
   17.6658   -1.4675   42.5476 C   0  0  0  0  0  0  0  0  0  0  0  0
   20.4207   -1.3990   39.2058 C   0  0  0  0  0  0  0  0  0  0  0  0
   19.8334   -2.5965   39.6108 C   0  0  0  0  0  0  0  0  0  0  0  0
   18.9453   -2.6145   40.6930 C   0  0  0  0  0  0  0  0  0  0  0  0
   18.6249   -1.4362   41.3820 C   0  0  0  0  0  0  0  0  0  0  0  0
   19.2297   -0.2421   40.9777 C   0  0  0  0  0  0  0  0  0  0  0  0
   20.1151   -0.2257   39.8968 C   0  0  0  0  0  0  0  0  0  0  0  0
   22.0517   -0.0356   38.1440 C   0  0  0  0  0  0  0  0  0  0  0  0
   21.3005   -1.2420   38.1704 O   0  0  0  0  0  0  0  0  0  0  0  0
 25 26  1  0
 26 19  1  0
 19 20  2  0
 20 21  1  0
 21 22  2  0
 22 18  1  0
  1 18  1  0
  1  2  1  0
  2  3  2  0
  2  4  1  0
  4 14  1  0
 14 15  1  0
  4  5  1  0
  5 16  1  0
 16 17  1  0
  5  6  1  0
  6  7  1  0
  7  8  1  0
  7 10  1  0
 10 11  2  0
 10 12  1  0
 22 23  1  0
 23 24  2  0
 24 19  1  0
  7  1  1  0
  8  9  1  0
 12 13  1  0
M  END
> <minimizedAffinity>
-4.55995

> <CNNscore>
0.2328648716

> <CNNaffinity>
3.0487585068

> <CNN_VS>
0.7099487782

> <CNNaffinity_variance>
0.7361794114

$$$$



 26 27  0  0  0  0  0  0  0  0999 V2000
   16.9697    3.4438   41.8505 C   0  0  0  0  0  0  0  0  0  0  0  0
   16.7491    4.8586   42.3799 C   0  0  0  0  0  0  0  0  0  0  0  0
   16.2471    5.7491   41.6851 O   0  0  0  0  0  0  0  0  0  0  0  0
   17.2437    5.1871   43.7997 C   0  0  0  0  0  0  0  0  0  0  0  0
   18.4154    4.2530   44.1433 C   0  0  0  0  0  0  0  0  0  0  0  0
   17.9880    2.7780   44.1239 C   0  0  0  0  0  0  0  0  0  0  0  0
   16.9678    2.4358   43.0152 C   0  0  0  0  0  0  0  0  0  0  0  0
   15.6739    2.4229   43.6272 O   0  0  0  0  0  0  0  0  0  0  0  0
   15.6698    1.7888   44.3613 H   0  0  0  0  0  0  0  0  0  0  0  0
   17.3198    1.0324   42.4937 C   0  0  0  0  0  0  0  0  0  0  0  0
   18.4026    0.6321   42.1029 O   0  0  0  0  0  0  0  0  0  0  0  0
   16.2549    0.1953   42.5367 O   0  0  0  0  0  0  0  0  0  0  0  0
   15.4248    0.5084   42.8380 H   0  0  0  0  0  0  0  0  0  0  0  0
   16.2844    5.0969   44.8459 O   0  0  0  0  0  0  0  0  0  0  0  0
   16.2854    6.2302   45.7049 C   0  0  0  0  0  0  0  0  0  0  0  0
   19.5107    4.3922   43.2248 O   0  0  0  0  0  0  0  0  0  0  0  0
   20.4792    3.3550   43.3340 C   0  0  0  0  0  0  0  0  0  0  0  0
   16.0517    3.1188   40.6453 C   0  0  0  0  0  0  0  0  0  0  0  0
   17.8579    2.4587   36.7641 C   0  0  0  0  0  0  0  0  0  0  0  0
   16.5097    2.7978   36.8657 C   0  0  0  0  0  0  0  0  0  0  0  0
   15.9293    3.0080   38.1224 C   0  0  0  0  0  0  0  0  0  0  0  0
   16.6881    2.8898   39.2954 C   0  0  0  0  0  0  0  0  0  0  0  0
   18.0362    2.5354   39.1845 C   0  0  0  0  0  0  0  0  0  0  0  0
   18.6141    2.3269   37.9295 C   0  0  0  0  0  0  0  0  0  0  0  0
   19.6938    1.3935   35.6957 C   0  0  0  0  0  0  0  0  0  0  0  0
   18.5459    2.2268   35.6049 O   0  0  0  0  0  0  0  0  0  0  0  0
 25 26  1  0
 26 19  1  0
 19 20  2  0
 20 21  1  0
 21 22  2  0
 22 18  1  0
  1 18  1  0
  1  2  1  0
  2  3  2  0
  2  4  1  0
  4 14  1  0
 14 15  1  0
  4  5  1  0
  5 16  1  0
 16 17  1  0
  5  6  1  0
  6  7  1  0
  7  8  1  0
  7 10  1  0
 10 11  2  0
 10 12  1  0
 22 23  1  0
 23 24  2  0
 24 19  1  0
  7  1  1  0
  8  9  1  0
 12 13  1  0
M  END
> <minimizedAffinity>
-6.25129

> <CNNscore>
0.2274439633

> <CNNaffinity>
3.4280765057

> <CNN_VS>
0.7796953321

> <CNNaffinity_variance>
1.1113367081

$$$$



 26 27  0  0  0  0  0  0  0  0999 V2000
   15.7846   -7.0125   42.7858 C   0  0  0  0  0  0  0  0  0  0  0  0
   16.8431   -8.0088   42.3189 C   0  0  0  0  0  0  0  0  0  0  0  0
   16.8145   -8.5181   41.1931 O   0  0  0  0  0  0  0  0  0  0  0  0
   17.9281   -8.4378   43.3224 C   0  0  0  0  0  0  0  0  0  0  0  0
   17.3667   -8.2983   44.7468 C   0  0  0  0  0  0  0  0  0  0  0  0
   16.9814   -6.8458   45.0637 C   0  0  0  0  0  0  0  0  0  0  0  0
   16.3706   -6.0841   43.8661 C   0  0  0  0  0  0  0  0  0  0  0  0
   17.4191   -5.2954   43.2938 O   0  0  0  0  0  0  0  0  0  0  0  0
   17.7901   -4.7096   43.9721 H   0  0  0  0  0  0  0  0  0  0  0  0
   15.2674   -5.1704   44.4260 C   0  0  0  0  0  0  0  0  0  0  0  0
   14.1166   -5.4692   44.6943 O   0  0  0  0  0  0  0  0  0  0  0  0
   15.7178   -3.9118   44.6485 O   0  0  0  0  0  0  0  0  0  0  0  0
   16.6035   -3.6876   44.4403 H   0  0  0  0  0  0  0  0  0  0  0  0
   19.1643   -7.7370   43.2633 O   0  0  0  0  0  0  0  0  0  0  0  0
   20.2259   -8.4194   43.9187 C   0  0  0  0  0  0  0  0  0  0  0  0
   16.1966   -9.1051   44.9530 O   0  0  0  0  0  0  0  0  0  0  0  0
   15.5250   -8.8299   46.1772 C   0  0  0  0  0  0  0  0  0  0  0  0
   15.0574   -6.3306   41.5997 C   0  0  0  0  0  0  0  0  0  0  0  0
   11.2142   -7.8801   40.3386 C   0  0  0  0  0  0  0  0  0  0  0  0
   11.8906   -6.9482   39.5532 C   0  0  0  0  0  0  0  0  0  0  0  0
   13.1316   -6.4482   39.9657 C   0  0  0  0  0  0  0  0  0  0  0  0
   13.7187   -6.8766   41.1648 C   0  0  0  0  0  0  0  0  0  0  0  0
   13.0262   -7.8009   41.9531 C   0  0  0  0  0  0  0  0  0  0  0  0
   11.7882   -8.2996   41.5394 C   0  0  0  0  0  0  0  0  0  0  0  0
    9.3556   -8.0142   38.8641 C   0  0  0  0  0  0  0  0  0  0  0  0
   10.0017   -8.4458   40.0543 O   0  0  0  0  0  0  0  0  0  0  0  0
 25 26  1  0
 26 19  1  0
 19 20  2  0
 20 21  1  0
 21 22  2  0
 22 18  1  0
  1 18  1  0
  1  2  1  0
  2  3  2  0
  2  4  1  0
  4 14  1  0
 14 15  1  0
  4  5  1  0
  5 16  1  0
 16 17  1  0
  5  6  1  0
  6  7  1  0
  7  8  1  0
  7 10  1  0
 10 11  2  0
 10 12  1  0
 22 23  1  0
 23 24  2  0
 24 19  1  0
  7  1  1  0
  8  9  1  0
 12 13  1  0
M  END
> <minimizedAffinity>
-4.33915

> <CNNscore>
0.2218165398

> <CNNaffinity>
3.0721015930

> <CNN_VS>
0.6814429164

> <CNNaffinity_variance>
0.6998640895

$$$$



 26 27  0  0  0  0  0  0  0  0999 V2000
   16.5463    7.9998   45.9616 C   0  0  0  0  0  0  0  0  0  0  0  0
   15.2328    8.1958   46.7146 C   0  0  0  0  0  0  0  0  0  0  0  0
   14.4765    9.1449   46.4800 O   0  0  0  0  0  0  0  0  0  0  0  0
   14.8941    7.2138   47.8500 C   0  0  0  0  0  0  0  0  0  0  0  0
   16.2047    6.6526   48.4253 C   0  0  0  0  0  0  0  0  0  0  0  0
   17.0063    5.8853   47.3637 C   0  0  0  0  0  0  0  0  0  0  0  0
   16.9343    6.5092   45.9520 C   0  0  0  0  0  0  0  0  0  0  0  0
   15.9530    5.7698   45.2177 O   0  0  0  0  0  0  0  0  0  0  0  0
   16.1948    4.8305   45.2100 H   0  0  0  0  0  0  0  0  0  0  0  0
   18.3198    6.3329   45.3080 C   0  0  0  0  0  0  0  0  0  0  0  0
   18.5896    5.7674   44.2625 O   0  0  0  0  0  0  0  0  0  0  0  0
   19.2947    6.9325   46.0337 O   0  0  0  0  0  0  0  0  0  0  0  0
   19.0816    7.3658   46.8367 H   0  0  0  0  0  0  0  0  0  0  0  0
   14.0526    6.1171   47.5147 O   0  0  0  0  0  0  0  0  0  0  0  0
   13.6495    5.3554   48.6458 C   0  0  0  0  0  0  0  0  0  0  0  0
   17.0592    7.6849   48.9420 O   0  0  0  0  0  0  0  0  0  0  0  0
   18.3093    7.2013   49.4204 C   0  0  0  0  0  0  0  0  0  0  0  0
   16.5541    8.7314   44.5957 C   0  0  0  0  0  0  0  0  0  0  0  0
   19.2132   12.1119   44.0825 C   0  0  0  0  0  0  0  0  0  0  0  0
   19.6420   10.8235   43.7677 C   0  0  0  0  0  0  0  0  0  0  0  0
   18.7800    9.7334   43.9372 C   0  0  0  0  0  0  0  0  0  0  0  0
   17.4750    9.9144   44.4168 C   0  0  0  0  0  0  0  0  0  0  0  0
   17.0583   11.2085   44.7435 C   0  0  0  0  0  0  0  0  0  0  0  0
   17.9196   12.2955   44.5726 C   0  0  0  0  0  0  0  0  0  0  0  0
   21.2823   13.1189   43.4899 C   0  0  0  0  0  0  0  0  0  0  0  0
   19.9499   13.2583   43.9648 O   0  0  0  0  0  0  0  0  0  0  0  0
 25 26  1  0
 26 19  1  0
 19 20  2  0
 20 21  1  0
 21 22  2  0
 22 18  1  0
  1 18  1  0
  1  2  1  0
  2  3  2  0
  2  4  1  0
  4 14  1  0
 14 15  1  0
  4  5  1  0
  5 16  1  0
 16 17  1  0
  5  6  1  0
  6  7  1  0
  7  8  1  0
  7 10  1  0
 10 11  2  0
 10 12  1  0
 22 23  1  0
 23 24  2  0
 24 19  1  0
  7  1  1  0
  8  9  1  0
 12 13  1  0
M  END
> <minimizedAffinity>
-4.07063

> <CNNscore>
0.2186573148

> <CNNaffinity>
2.9811103344

> <CNN_VS>
0.6518415809

> <CNNaffinity_variance>
1.0049614906

$$$$



 26 27  0  0  0  0  0  0  0  0999 V2000
   17.3147    4.7643   44.6536 C   0  0  0  0  0  0  0  0  0  0  0  0
   18.1152    4.0601   45.7464 C   0  0  0  0  0  0  0  0  0  0  0  0
   18.4613    4.6379   46.7827 O   0  0  0  0  0  0  0  0  0  0  0  0
   18.5613    2.6085   45.4974 C   0  0  0  0  0  0  0  0  0  0  0  0
   18.6847    2.3824   43.9818 C   0  0  0  0  0  0  0  0  0  0  0  0
   17.3414    2.5905   43.2671 C   0  0  0  0  0  0  0  0  0  0  0  0
   16.4894    3.7372   43.8558 C   0  0  0  0  0  0  0  0  0  0  0  0
   15.5195    3.1361   44.7200 O   0  0  0  0  0  0  0  0  0  0  0  0
   14.9982    2.4886   44.2201 H   0  0  0  0  0  0  0  0  0  0  0  0
   15.7880    4.4316   42.6763 C   0  0  0  0  0  0  0  0  0  0  0  0
   16.2265    5.3200   41.9664 O   0  0  0  0  0  0  0  0  0  0  0  0
   14.5566    3.9151   42.4453 O   0  0  0  0  0  0  0  0  0  0  0  0
   14.2245    3.2322   42.9942 H   0  0  0  0  0  0  0  0  0  0  0  0
   17.7297    1.5854   46.0311 O   0  0  0  0  0  0  0  0  0  0  0  0
   18.3075    0.9206   47.1474 C   0  0  0  0  0  0  0  0  0  0  0  0
   19.6342    3.2721   43.3736 O   0  0  0  0  0  0  0  0  0  0  0  0
   19.8779    2.9904   42.0000 C   0  0  0  0  0  0  0  0  0  0  0  0
   16.5553    6.0041   45.1895 C   0  0  0  0  0  0  0  0  0  0  0  0
   18.1450    9.9332   44.2968 C   0  0  0  0  0  0  0  0  0  0  0  0
   19.0012    8.8434   44.4449 C   0  0  0  0  0  0  0  0  0  0  0  0
   18.4833    7.5755   44.7357 C   0  0  0  0  0  0  0  0  0  0  0  0
   17.1026    7.3759   44.8758 C   0  0  0  0  0  0  0  0  0  0  0  0
   16.2525    8.4777   44.7396 C   0  0  0  0  0  0  0  0  0  0  0  0
   16.7710    9.7421   44.4483 C   0  0  0  0  0  0  0  0  0  0  0  0
   17.5795   12.2411   44.3230 C   0  0  0  0  0  0  0  0  0  0  0  0
   18.5173   11.2187   44.0140 O   0  0  0  0  0  0  0  0  0  0  0  0
 25 26  1  0
 26 19  1  0
 19 20  2  0
 20 21  1  0
 21 22  2  0
 22 18  1  0
  1 18  1  0
  1  2  1  0
  2  3  2  0
  2  4  1  0
  4 14  1  0
 14 15  1  0
  4  5  1  0
  5 16  1  0
 16 17  1  0
  5  6  1  0
  6  7  1  0
  7  8  1  0
  7 10  1  0
 10 11  2  0
 10 12  1  0
 22 23  1  0
 23 24  2  0
 24 19  1  0
  7  1  1  0
  8  9  1  0
 12 13  1  0
M  END
> <minimizedAffinity>
-4.56094

> <CNNscore>
0.2184781730

> <CNNaffinity>
2.9839222431

> <CNN_VS>
0.6519218683

> <CNNaffinity_variance>
1.1077532768

$$$$



 26 27  0  0  0  0  0  0  0  0999 V2000
   18.4553    1.6993   39.7338 C   0  0  0  0  0  0  0  0  0  0  0  0
   19.6413    0.8637   39.2583 C   0  0  0  0  0  0  0  0  0  0  0  0
   19.9734    0.8119   38.0690 O   0  0  0  0  0  0  0  0  0  0  0  0
   20.3867    0.0060   40.2961 C   0  0  0  0  0  0  0  0  0  0  0  0
   19.4159   -0.3464   41.4349 C   0  0  0  0  0  0  0  0  0  0  0  0
   18.8996    0.9117   42.1485 C   0  0  0  0  0  0  0  0  0  0  0  0
   18.6524    2.1101   41.2052 C   0  0  0  0  0  0  0  0  0  0  0  0
   19.7952    2.9659   41.3082 O   0  0  0  0  0  0  0  0  0  0  0  0
   19.9217    3.2262   42.2340 H   0  0  0  0  0  0  0  0  0  0  0  0
   17.3986    2.8386   41.7179 C   0  0  0  0  0  0  0  0  0  0  0  0
   17.2660    4.0302   41.9371 O   0  0  0  0  0  0  0  0  0  0  0  0
   16.3559    1.9903   41.8899 O   0  0  0  0  0  0  0  0  0  0  0  0
   16.4635    1.0752   41.7199 H   0  0  0  0  0  0  0  0  0  0  0  0
   21.5562    0.5750   40.8718 O   0  0  0  0  0  0  0  0  0  0  0  0
   22.7557   -0.0533   40.4376 C   0  0  0  0  0  0  0  0  0  0  0  0
   18.2687   -1.0734   40.9677 O   0  0  0  0  0  0  0  0  0  0  0  0
   18.4438   -2.4856   40.9881 C   0  0  0  0  0  0  0  0  0  0  0  0
   18.0966    2.8293   38.7362 C   0  0  0  0  0  0  0  0  0  0  0  0
   14.2246    2.7383   36.7968 C   0  0  0  0  0  0  0  0  0  0  0  0
   15.3713    2.3619   36.0995 C   0  0  0  0  0  0  0  0  0  0  0  0
   16.6212    2.3950   36.7295 C   0  0  0  0  0  0  0  0  0  0  0  0
   16.7435    2.7975   38.0670 C   0  0  0  0  0  0  0  0  0  0  0  0
   15.5898    3.1870   38.7542 C   0  0  0  0  0  0  0  0  0  0  0  0
   14.3430    3.1523   38.1242 C   0  0  0  0  0  0  0  0  0  0  0  0
   12.0196    1.8589   36.9019 C   0  0  0  0  0  0  0  0  0  0  0  0
   12.9489    2.7524   36.3034 O   0  0  0  0  0  0  0  0  0  0  0  0
 25 26  1  0
 26 19  1  0
 19 20  2  0
 20 21  1  0
 21 22  2  0
 22 18  1  0
  1 18  1  0
  1  2  1  0
  2  3  2  0
  2  4  1  0
  4 14  1  0
 14 15  1  0
  4  5  1  0
  5 16  1  0
 16 17  1  0
  5  6  1  0
  6  7  1  0
  7  8  1  0
  7 10  1  0
 10 11  2  0
 10 12  1  0
 22 23  1  0
 23 24  2  0
 24 19  1  0
  7  1  1  0
  8  9  1  0
 12 13  1  0
M  END
> <minimizedAffinity>
-6.74088

> <CNNscore>
0.1941340566

> <CNNaffinity>
3.1881122589

> <CNN_VS>
0.6189211607

> <CNNaffinity_variance>
1.3870544434

$$$$



 26 27  0  0  0  0  0  0  0  0999 V2000
   21.9431    0.3275   40.1675 C   0  0  0  0  0  0  0  0  0  0  0  0
   21.9807   -0.0485   38.6883 C   0  0  0  0  0  0  0  0  0  0  0  0
   22.4361   -1.1287   38.2966 O   0  0  0  0  0  0  0  0  0  0  0  0
   21.5026    0.9943   37.6625 C   0  0  0  0  0  0  0  0  0  0  0  0
   21.7016    2.3986   38.2559 C   0  0  0  0  0  0  0  0  0  0  0  0
   20.8816    2.5920   39.5399 C   0  0  0  0  0  0  0  0  0  0  0  0
   20.8050    1.3316   40.4304 C   0  0  0  0  0  0  0  0  0  0  0  0
   19.5479    0.7034   40.1584 O   0  0  0  0  0  0  0  0  0  0  0  0
   18.8292    1.3336   40.3231 H   0  0  0  0  0  0  0  0  0  0  0  0
   20.8531    1.8067   41.8924 C   0  0  0  0  0  0  0  0  0  0  0  0
   21.8264    2.1815   42.5229 O   0  0  0  0  0  0  0  0  0  0  0  0
   19.6243    1.8092   42.4637 O   0  0  0  0  0  0  0  0  0  0  0  0
   18.8794    1.5200   41.9743 H   0  0  0  0  0  0  0  0  0  0  0  0
   20.1538    0.8861   37.2245 O   0  0  0  0  0  0  0  0  0  0  0  0
   19.9497    1.3936   35.9119 C   0  0  0  0  0  0  0  0  0  0  0  0
   23.0751    2.6625   38.5828 O   0  0  0  0  0  0  0  0  0  0  0  0
   23.2443    3.7351   39.5028 C   0  0  0  0  0  0  0  0  0  0  0  0
   22.0033   -0.9158   41.0903 C   0  0  0  0  0  0  0  0  0  0  0  0
   18.3465   -3.0978   41.8826 C   0  0  0  0  0  0  0  0  0  0  0  0
   18.9502   -2.3451   42.8885 C   0  0  0  0  0  0  0  0  0  0  0  0
   20.1334   -1.6432   42.6287 C   0  0  0  0  0  0  0  0  0  0  0  0
   20.7273   -1.6767   41.3590 C   0  0  0  0  0  0  0  0  0  0  0  0
   20.1223   -2.4458   40.3602 C   0  0  0  0  0  0  0  0  0  0  0  0
   18.9408   -3.1449   40.6209 C   0  0  0  0  0  0  0  0  0  0  0  0
   17.2784   -5.0417   42.7353 C   0  0  0  0  0  0  0  0  0  0  0  0
   17.1955   -3.8271   42.0017 O   0  0  0  0  0  0  0  0  0  0  0  0
 25 26  1  0
 26 19  1  0
 19 20  2  0
 20 21  1  0
 21 22  2  0
 22 18  1  0
  1 18  1  0
  1  2  1  0
  2  3  2  0
  2  4  1  0
  4 14  1  0
 14 15  1  0
  4  5  1  0
  5 16  1  0
 16 17  1  0
  5  6  1  0
  6  7  1  0
  7  8  1  0
  7 10  1  0
 10 11  2  0
 10 12  1  0
 22 23  1  0
 23 24  2  0
 24 19  1  0
  7  1  1  0
  8  9  1  0
 12 13  1  0
M  END
> <minimizedAffinity>
-4.74973

> <CNNscore>
0.1898520440

> <CNNaffinity>
2.6862976551

> <CNN_VS>
0.5099990964

> <CNNaffinity_variance>
1.4565086365

$$$$
