


 49 53  0  0  0  0  0  0  0  0999 V2000
   13.5186   21.6095    6.0173 N   0  0  0  0  0  0  0  0  0  0  0  0
   14.3814   22.8232    5.9540 C   0  0  0  0  0  0  0  0  0  0  0  0
   13.9078   23.8331    4.8817 C   0  0  0  0  0  0  0  0  0  0  0  0
   15.0323   24.6009    4.3826 O   0  0  0  0  0  0  0  0  0  0  0  0
   12.8197   24.8539    5.2590 C   0  0  0  0  0  0  0  0  0  0  0  0
   12.4418   25.5310    4.0401 O   0  0  0  0  0  0  0  0  0  0  0  0
   11.5749   24.3029    5.9840 C   0  0  0  0  0  0  0  0  0  0  0  0
   11.3224   22.8711    5.5973 N   0  0  0  0  0  0  0  0  0  0  0  0
   11.9559   21.6922    6.6246 S   0  0  0  0  0  0  0  0  0  0  0  0
   12.0437   22.2426    7.9564 O   0  0  0  0  0  0  0  0  0  0  0  0
   11.3024   20.4296    6.3854 O   0  0  0  0  0  0  0  0  0  0  0  0
   15.3810   25.1624    5.0926 H   0  0  0  0  0  0  0  0  0  0  0  0
   12.0623   24.8902    3.4187 H   0  0  0  0  0  0  0  0  0  0  0  0
   13.7761   20.6135    4.9502 C   0  0  0  0  0  0  0  0  0  0  0  0
   17.0555   18.9851    3.8413 C   0  0  0  0  0  0  0  0  0  0  0  0
   17.8970   19.3069    4.9135 C   0  0  0  0  0  0  0  0  0  0  0  0
   17.4129   20.0669    5.9791 C   0  0  0  0  0  0  0  0  0  0  0  0
   16.0875   20.5026    5.9849 C   0  0  0  0  0  0  0  0  0  0  0  0
   15.2230   20.1744    4.9310 C   0  0  0  0  0  0  0  0  0  0  0  0
   15.7169   19.4032    3.8663 C   0  0  0  0  0  0  0  0  0  0  0  0
   16.9173   16.9060    0.6764 C   0  0  0  0  0  0  0  0  0  0  0  0
   16.5662   17.7702    1.7754 N   0  0  0  0  0  0  0  0  0  0  0  0
   17.5312   18.1886    2.6719 C   0  0  0  0  0  0  0  0  0  0  0  0
   18.7175   17.9020    2.5568 O   0  0  0  0  0  0  0  0  0  0  0  0
   15.6334   18.0641    1.8880 H   0  0  0  0  0  0  0  0  0  0  0  0
   14.6903   23.4357    7.3295 C   0  0  0  0  0  0  0  0  0  0  0  0
   14.5278   22.4079    8.3184 O   0  0  0  0  0  0  0  0  0  0  0  0
   15.6703   21.8105    8.7765 C   0  0  0  0  0  0  0  0  0  0  0  0
   16.9619   22.3321    8.6869 C   0  0  0  0  0  0  0  0  0  0  0  0
   18.0462   21.6121    9.1980 C   0  0  0  0  0  0  0  0  0  0  0  0
   17.8461   20.3705    9.7982 C   0  0  0  0  0  0  0  0  0  0  0  0
   16.5600   19.8453    9.8880 C   0  0  0  0  0  0  0  0  0  0  0  0
   15.4772   20.5638    9.3777 C   0  0  0  0  0  0  0  0  0  0  0  0
   10.3762   25.2643    5.8583 C   0  0  0  0  0  0  0  0  0  0  0  0
    9.5941   25.1826    7.0546 O   0  0  0  0  0  0  0  0  0  0  0  0
    9.2302   26.3610    7.6437 C   0  0  0  0  0  0  0  0  0  0  0  0
    9.4407   26.4098    9.0241 C   0  0  0  0  0  0  0  0  0  0  0  0
    9.1150   27.5543    9.7535 C   0  0  0  0  0  0  0  0  0  0  0  0
    8.5724   28.6598    9.1034 C   0  0  0  0  0  0  0  0  0  0  0  0
    8.3561   28.6168    7.7273 C   0  0  0  0  0  0  0  0  0  0  0  0
    8.6834   27.4697    6.9968 C   0  0  0  0  0  0  0  0  0  0  0  0
   10.1145   22.5065    4.8289 C   0  0  0  0  0  0  0  0  0  0  0  0
    9.6855   23.5998    3.8741 C   0  0  0  0  0  0  0  0  0  0  0  0
   10.4753   23.9155    2.7577 C   0  0  0  0  0  0  0  0  0  0  0  0
   10.0755   24.9137    1.8667 C   0  0  0  0  0  0  0  0  0  0  0  0
    8.8850   25.6033    2.0880 C   0  0  0  0  0  0  0  0  0  0  0  0
    8.3884   26.8264    0.9856 Cl  0  0  0  0  0  0  0  0  0  0  0  0
    8.0920   25.3055    3.1934 C   0  0  0  0  0  0  0  0  0  0  0  0
    8.4934   24.3087    4.0855 C   0  0  0  0  0  0  0  0  0  0  0  0
 21 22  1  0
 22 23  1  0
 23 24  2  0
 23 15  1  0
 15 16  2  0
 16 17  1  0
 17 18  2  0
 18 19  1  0
 19 14  1  0
 14  1  1  0
  1  2  1  0
  2 26  1  0
 26 27  1  0
 27 28  1  0
 28 29  2  0
 29 30  1  0
 30 31  2  0
 31 32  1  0
 32 33  2  0
  2  3  1  0
  3  4  1  0
  3  5  1  0
  5  6  1  0
  5  7  1  0
  7 34  1  0
 34 35  1  0
 35 36  1  0
 36 37  2  0
 37 38  1  0
 38 39  2  0
 39 40  1  0
 40 41  2  0
  7  8  1  0
  8 42  1  0
 42 43  1  0
 43 44  2  0
 44 45  1  0
 45 46  2  0
 46 47  1  0
 46 48  1  0
 48 49  2  0
  8  9  1  0
  9 10  2  0
  9 11  2  0
 19 20  2  0
 20 15  1  0
  9  1  1  0
 33 28  1  0
 41 36  1  0
 49 43  1  0
 22 25  1  0
  4 12  1  0
  6 13  1  0
M  END
> <minimizedAffinity>
-10.60313

> <CNNscore>
0.9449177384

> <CNNaffinity>
8.9252634048

> <CNN_VS>
8.4336395264

> <CNNaffinity_variance>
0.1032559052

$$$$



 49 53  0  0  0  0  0  0  0  0999 V2000
   13.6318   21.5905    5.4167 N   0  0  0  0  0  0  0  0  0  0  0  0
   14.5361   22.7754    5.4167 C   0  0  0  0  0  0  0  0  0  0  0  0
   13.8949   24.0116    4.7425 C   0  0  0  0  0  0  0  0  0  0  0  0
   14.9213   24.8602    4.1686 O   0  0  0  0  0  0  0  0  0  0  0  0
   12.9963   24.9306    5.5889 C   0  0  0  0  0  0  0  0  0  0  0  0
   12.3914   25.8758    4.6792 O   0  0  0  0  0  0  0  0  0  0  0  0
   11.9205   24.2421    6.4533 C   0  0  0  0  0  0  0  0  0  0  0  0
   11.4887   22.9417    5.8320 N   0  0  0  0  0  0  0  0  0  0  0  0
   12.2630   21.5495    6.3875 S   0  0  0  0  0  0  0  0  0  0  0  0
   12.6959   21.7758    7.7461 O   0  0  0  0  0  0  0  0  0  0  0  0
   11.4880   20.3845    6.0403 O   0  0  0  0  0  0  0  0  0  0  0  0
   15.4630   25.2380    4.8791 H   0  0  0  0  0  0  0  0  0  0  0  0
   11.8350   25.4008    4.0422 H   0  0  0  0  0  0  0  0  0  0  0  0
   13.5655   20.8653    4.1258 C   0  0  0  0  0  0  0  0  0  0  0  0
   16.9727   19.1885    4.5901 C   0  0  0  0  0  0  0  0  0  0  0  0
   17.2787   18.8216    3.2737 C   0  0  0  0  0  0  0  0  0  0  0  0
   16.3771   19.0939    2.2439 C   0  0  0  0  0  0  0  0  0  0  0  0
   15.1713   19.7395    2.5197 C   0  0  0  0  0  0  0  0  0  0  0  0
   14.8547   20.1332    3.8276 C   0  0  0  0  0  0  0  0  0  0  0  0
   15.7711   19.8613    4.8563 C   0  0  0  0  0  0  0  0  0  0  0  0
   18.3861   17.4969    7.6722 C   0  0  0  0  0  0  0  0  0  0  0  0
   17.6134   17.7883    6.4907 N   0  0  0  0  0  0  0  0  0  0  0  0
   17.8972   18.9047    5.7272 C   0  0  0  0  0  0  0  0  0  0  0  0
   18.8306   19.6605    5.9723 O   0  0  0  0  0  0  0  0  0  0  0  0
   16.8791   17.1883    6.2261 H   0  0  0  0  0  0  0  0  0  0  0  0
   15.1978   23.0493    6.7768 C   0  0  0  0  0  0  0  0  0  0  0  0
   16.3892   22.2526    6.8580 O   0  0  0  0  0  0  0  0  0  0  0  0
   16.5062   21.4321    7.9467 C   0  0  0  0  0  0  0  0  0  0  0  0
   15.4989   20.6252    8.4783 C   0  0  0  0  0  0  0  0  0  0  0  0
   15.7548   19.8322    9.6013 C   0  0  0  0  0  0  0  0  0  0  0  0
   17.0142   19.8425   10.1975 C   0  0  0  0  0  0  0  0  0  0  0  0
   18.0214   20.6472    9.6721 C   0  0  0  0  0  0  0  0  0  0  0  0
   17.7662   21.4391    8.5510 C   0  0  0  0  0  0  0  0  0  0  0  0
   10.7934   25.2210    6.8382 C   0  0  0  0  0  0  0  0  0  0  0  0
   11.1499   25.8745    8.0610 O   0  0  0  0  0  0  0  0  0  0  0  0
   10.2053   26.6761    8.6384 C   0  0  0  0  0  0  0  0  0  0  0  0
    8.9187   26.5285    8.1138 C   0  0  0  0  0  0  0  0  0  0  0  0
    7.8564   27.2846    8.6116 C   0  0  0  0  0  0  0  0  0  0  0  0
    8.0769   28.1979    9.6393 C   0  0  0  0  0  0  0  0  0  0  0  0
    9.3584   28.3532   10.1647 C   0  0  0  0  0  0  0  0  0  0  0  0
   10.4225   27.5946    9.6659 C   0  0  0  0  0  0  0  0  0  0  0  0
   10.1132   22.7795    5.3182 C   0  0  0  0  0  0  0  0  0  0  0  0
    9.7690   23.8015    4.2562 C   0  0  0  0  0  0  0  0  0  0  0  0
   10.4854   23.8383    3.0499 C   0  0  0  0  0  0  0  0  0  0  0  0
   10.1614   24.7704    2.0618 C   0  0  0  0  0  0  0  0  0  0  0  0
    9.1207   25.6721    2.2750 C   0  0  0  0  0  0  0  0  0  0  0  0
    8.7159   26.8141    1.0542 Cl  0  0  0  0  0  0  0  0  0  0  0  0
    8.4028   25.6520    3.4681 C   0  0  0  0  0  0  0  0  0  0  0  0
    8.7288   24.7212    4.4570 C   0  0  0  0  0  0  0  0  0  0  0  0
 21 22  1  0
 22 23  1  0
 23 24  2  0
 23 15  1  0
 15 16  2  0
 16 17  1  0
 17 18  2  0
 18 19  1  0
 19 14  1  0
 14  1  1  0
  1  2  1  0
  2 26  1  0
 26 27  1  0
 27 28  1  0
 28 29  2  0
 29 30  1  0
 30 31  2  0
 31 32  1  0
 32 33  2  0
  2  3  1  0
  3  4  1  0
  3  5  1  0
  5  6  1  0
  5  7  1  0
  7 34  1  0
 34 35  1  0
 35 36  1  0
 36 37  2  0
 37 38  1  0
 38 39  2  0
 39 40  1  0
 40 41  2  0
  7  8  1  0
  8 42  1  0
 42 43  1  0
 43 44  2  0
 44 45  1  0
 45 46  2  0
 46 47  1  0
 46 48  1  0
 48 49  2  0
  8  9  1  0
  9 10  2  0
  9 11  2  0
 19 20  2  0
 20 15  1  0
  9  1  1  0
 33 28  1  0
 41 36  1  0
 49 43  1  0
 22 25  1  0
  4 12  1  0
  6 13  1  0
M  END
> <minimizedAffinity>
-9.68575

> <CNNscore>
0.8961690664

> <CNNaffinity>
8.8096504211

> <CNN_VS>
7.8949360847

> <CNNaffinity_variance>
0.0775438920

$$$$



 49 53  0  0  0  0  0  0  0  0999 V2000
   11.3548   24.2432    6.3000 N   0  0  0  0  0  0  0  0  0  0  0  0
   11.0910   23.9000    4.8737 C   0  0  0  0  0  0  0  0  0  0  0  0
   12.3790   23.8947    4.0164 C   0  0  0  0  0  0  0  0  0  0  0  0
   12.0675   24.2243    2.6389 O   0  0  0  0  0  0  0  0  0  0  0  0
   13.2314   22.6141    3.9731 C   0  0  0  0  0  0  0  0  0  0  0  0
   14.4472   22.9456    3.2669 O   0  0  0  0  0  0  0  0  0  0  0  0
   13.5525   21.9500    5.3276 C   0  0  0  0  0  0  0  0  0  0  0  0
   13.5825   22.9736    6.4298 N   0  0  0  0  0  0  0  0  0  0  0  0
   12.1576   23.1707    7.3115 S   0  0  0  0  0  0  0  0  0  0  0  0
   11.4246   21.9272    7.2838 O   0  0  0  0  0  0  0  0  0  0  0  0
   12.4396   23.8380    8.5580 O   0  0  0  0  0  0  0  0  0  0  0  0
   11.5277   23.5177    2.2515 H   0  0  0  0  0  0  0  0  0  0  0  0
   14.9335   23.6239    3.7611 H   0  0  0  0  0  0  0  0  0  0  0  0
   11.5472   25.6895    6.5609 C   0  0  0  0  0  0  0  0  0  0  0  0
    8.1986   26.9542    7.9112 C   0  0  0  0  0  0  0  0  0  0  0  0
    8.5452   27.2980    9.2238 C   0  0  0  0  0  0  0  0  0  0  0  0
    9.8498   27.1000    9.6776 C   0  0  0  0  0  0  0  0  0  0  0  0
   10.8160   26.5663    8.8241 C   0  0  0  0  0  0  0  0  0  0  0  0
   10.4948   26.2342    7.5004 C   0  0  0  0  0  0  0  0  0  0  0  0
    9.1811   26.4436    7.0503 C   0  0  0  0  0  0  0  0  0  0  0  0
    5.1625   26.4889    5.6921 C   0  0  0  0  0  0  0  0  0  0  0  0
    6.4408   26.3143    6.3351 N   0  0  0  0  0  0  0  0  0  0  0  0
    6.8132   27.1324    7.3848 C   0  0  0  0  0  0  0  0  0  0  0  0
    6.0769   27.9937    7.8527 O   0  0  0  0  0  0  0  0  0  0  0  0
    7.0522   25.6080    6.0245 H   0  0  0  0  0  0  0  0  0  0  0  0
   10.1850   22.6721    4.6897 C   0  0  0  0  0  0  0  0  0  0  0  0
    9.6965   22.6807    3.3398 O   0  0  0  0  0  0  0  0  0  0  0  0
    8.6766   23.5494    3.0615 C   0  0  0  0  0  0  0  0  0  0  0  0
    7.3754   23.4744    3.5610 C   0  0  0  0  0  0  0  0  0  0  0  0
    6.4262   24.4327    3.1921 C   0  0  0  0  0  0  0  0  0  0  0  0
    6.7711   25.4667    2.3239 C   0  0  0  0  0  0  0  0  0  0  0  0
    8.0671   25.5443    1.8215 C   0  0  0  0  0  0  0  0  0  0  0  0
    9.0149   24.5877    2.1895 C   0  0  0  0  0  0  0  0  0  0  0  0
   14.7797   21.0226    5.2252 C   0  0  0  0  0  0  0  0  0  0  0  0
   14.7450   20.3522    3.9607 O   0  0  0  0  0  0  0  0  0  0  0  0
   15.7979   19.5348    3.6589 C   0  0  0  0  0  0  0  0  0  0  0  0
   16.7968   19.4895    4.6347 C   0  0  0  0  0  0  0  0  0  0  0  0
   17.9294   18.6934    4.4572 C   0  0  0  0  0  0  0  0  0  0  0  0
   18.0705   17.9372    3.2965 C   0  0  0  0  0  0  0  0  0  0  0  0
   17.0799   17.9805    2.3170 C   0  0  0  0  0  0  0  0  0  0  0  0
   15.9448   18.7780    2.4958 C   0  0  0  0  0  0  0  0  0  0  0  0
   14.8469   23.2823    7.1286 C   0  0  0  0  0  0  0  0  0  0  0  0
   15.3128   22.1433    8.0098 C   0  0  0  0  0  0  0  0  0  0  0  0
   14.4994   21.6771    9.0541 C   0  0  0  0  0  0  0  0  0  0  0  0
   14.9196   20.6170    9.8601 C   0  0  0  0  0  0  0  0  0  0  0  0
   16.1563   20.0185    9.6279 C   0  0  0  0  0  0  0  0  0  0  0  0
   16.6697   18.7069   10.6150 Cl  0  0  0  0  0  0  0  0  0  0  0  0
   16.9776   20.4720    8.5988 C   0  0  0  0  0  0  0  0  0  0  0  0
   16.5580   21.5338    7.7944 C   0  0  0  0  0  0  0  0  0  0  0  0
 21 22  1  0
 22 23  1  0
 23 24  2  0
 23 15  1  0
 15 16  2  0
 16 17  1  0
 17 18  2  0
 18 19  1  0
 19 14  1  0
 14  1  1  0
  1  2  1  0
  2 26  1  0
 26 27  1  0
 27 28  1  0
 28 29  2  0
 29 30  1  0
 30 31  2  0
 31 32  1  0
 32 33  2  0
  2  3  1  0
  3  4  1  0
  3  5  1  0
  5  6  1  0
  5  7  1  0
  7 34  1  0
 34 35  1  0
 35 36  1  0
 36 37  2  0
 37 38  1  0
 38 39  2  0
 39 40  1  0
 40 41  2  0
  7  8  1  0
  8 42  1  0
 42 43  1  0
 43 44  2  0
 44 45  1  0
 45 46  2  0
 46 47  1  0
 46 48  1  0
 48 49  2  0
  8  9  1  0
  9 10  2  0
  9 11  2  0
 19 20  2  0
 20 15  1  0
  9  1  1  0
 33 28  1  0
 41 36  1  0
 49 43  1  0
 22 25  1  0
  4 12  1  0
  6 13  1  0
M  END
> <minimizedAffinity>
-10.67806

> <CNNscore>
0.8882164955

> <CNNaffinity>
8.7364149094

> <CNN_VS>
7.7598276138

> <CNNaffinity_variance>
0.2657746971

$$$$



 49 53  0  0  0  0  0  0  0  0999 V2000
   13.3627   21.8916    4.9530 N   0  0  0  0  0  0  0  0  0  0  0  0
   13.8524   22.2196    6.3220 C   0  0  0  0  0  0  0  0  0  0  0  0
   13.8385   23.7399    6.6091 C   0  0  0  0  0  0  0  0  0  0  0  0
   14.8687   24.0792    7.5717 O   0  0  0  0  0  0  0  0  0  0  0  0
   12.5376   24.3821    7.1225 C   0  0  0  0  0  0  0  0  0  0  0  0
   12.7493   25.8111    7.1228 O   0  0  0  0  0  0  0  0  0  0  0  0
   11.2428   24.0238    6.3649 C   0  0  0  0  0  0  0  0  0  0  0  0
   11.5390   23.6984    4.9262 N   0  0  0  0  0  0  0  0  0  0  0  0
   11.7422   22.0661    4.5512 S   0  0  0  0  0  0  0  0  0  0  0  0
   10.9814   21.2802    5.4934 O   0  0  0  0  0  0  0  0  0  0  0  0
   11.5968   21.8666    3.1308 O   0  0  0  0  0  0  0  0  0  0  0  0
   14.6546   23.6790    8.4290 H   0  0  0  0  0  0  0  0  0  0  0  0
   12.9067   26.1148    6.2151 H   0  0  0  0  0  0  0  0  0  0  0  0
   14.3534   22.1152    3.8736 C   0  0  0  0  0  0  0  0  0  0  0  0
   16.7788   19.1606    4.0274 C   0  0  0  0  0  0  0  0  0  0  0  0
   16.4905   18.5069    2.8229 C   0  0  0  0  0  0  0  0  0  0  0  0
   15.5000   19.0058    1.9758 C   0  0  0  0  0  0  0  0  0  0  0  0
   14.7985   20.1615    2.3210 C   0  0  0  0  0  0  0  0  0  0  0  0
   15.0857   20.8423    3.5126 C   0  0  0  0  0  0  0  0  0  0  0  0
   16.0889   20.3369    4.3554 C   0  0  0  0  0  0  0  0  0  0  0  0
   18.4365   16.9582    6.6274 C   0  0  0  0  0  0  0  0  0  0  0  0
   17.5422   17.4654    5.6171 N   0  0  0  0  0  0  0  0  0  0  0  0
   17.8178   18.6569    4.9734 C   0  0  0  0  0  0  0  0  0  0  0  0
   18.8375   19.3055    5.1790 O   0  0  0  0  0  0  0  0  0  0  0  0
   16.7300   16.9600    5.3842 H   0  0  0  0  0  0  0  0  0  0  0  0
   13.2356   21.3460    7.4261 C   0  0  0  0  0  0  0  0  0  0  0  0
   13.8824   21.6756    8.6646 O   0  0  0  0  0  0  0  0  0  0  0  0
   14.9700   20.9204    9.0093 C   0  0  0  0  0  0  0  0  0  0  0  0
   15.1385   20.2225   10.2063 C   0  0  0  0  0  0  0  0  0  0  0  0
   16.3064   19.4870   10.4311 C   0  0  0  0  0  0  0  0  0  0  0  0
   17.3091   19.4463    9.4643 C   0  0  0  0  0  0  0  0  0  0  0  0
   17.1464   20.1424    8.2697 C   0  0  0  0  0  0  0  0  0  0  0  0
   15.9807   20.8770    8.0451 C   0  0  0  0  0  0  0  0  0  0  0  0
   10.1356   25.0674    6.6136 C   0  0  0  0  0  0  0  0  0  0  0  0
   10.6164   26.0318    7.5562 O   0  0  0  0  0  0  0  0  0  0  0  0
    9.7192   26.9534    8.0184 C   0  0  0  0  0  0  0  0  0  0  0  0
    9.6884   27.0879    9.4087 C   0  0  0  0  0  0  0  0  0  0  0  0
    8.8192   27.9949   10.0168 C   0  0  0  0  0  0  0  0  0  0  0  0
    7.9708   28.7737    9.2340 C   0  0  0  0  0  0  0  0  0  0  0  0
    7.9933   28.6421    7.8467 C   0  0  0  0  0  0  0  0  0  0  0  0
    8.8652   27.7334    7.2378 C   0  0  0  0  0  0  0  0  0  0  0  0
   11.0433   24.5742    3.8448 C   0  0  0  0  0  0  0  0  0  0  0  0
    9.5316   24.6131    3.7802 C   0  0  0  0  0  0  0  0  0  0  0  0
    8.8465   25.8271    3.9431 C   0  0  0  0  0  0  0  0  0  0  0  0
    7.4525   25.8692    3.8698 C   0  0  0  0  0  0  0  0  0  0  0  0
    6.7357   24.6976    3.6354 C   0  0  0  0  0  0  0  0  0  0  0  0
    5.0195   24.7512    3.5363 Cl  0  0  0  0  0  0  0  0  0  0  0  0
    7.3998   23.4839    3.4761 C   0  0  0  0  0  0  0  0  0  0  0  0
    8.7937   23.4418    3.5518 C   0  0  0  0  0  0  0  0  0  0  0  0
 21 22  1  0
 22 23  1  0
 23 24  2  0
 23 15  1  0
 15 16  2  0
 16 17  1  0
 17 18  2  0
 18 19  1  0
 19 14  1  0
 14  1  1  0
  1  2  1  0
  2 26  1  0
 26 27  1  0
 27 28  1  0
 28 29  2  0
 29 30  1  0
 30 31  2  0
 31 32  1  0
 32 33  2  0
  2  3  1  0
  3  4  1  0
  3  5  1  0
  5  6  1  0
  5  7  1  0
  7 34  1  0
 34 35  1  0
 35 36  1  0
 36 37  2  0
 37 38  1  0
 38 39  2  0
 39 40  1  0
 40 41  2  0
  7  8  1  0
  8 42  1  0
 42 43  1  0
 43 44  2  0
 44 45  1  0
 45 46  2  0
 46 47  1  0
 46 48  1  0
 48 49  2  0
  8  9  1  0
  9 10  2  0
  9 11  2  0
 19 20  2  0
 20 15  1  0
  9  1  1  0
 33 28  1  0
 41 36  1  0
 49 43  1  0
 22 25  1  0
  4 12  1  0
  6 13  1  0
M  END
> <minimizedAffinity>
-10.40902

> <CNNscore>
0.6596133113

> <CNNaffinity>
8.6801967621

> <CNN_VS>
5.7255735397

> <CNNaffinity_variance>
0.4782440662

$$$$



 49 53  0  0  0  0  0  0  0  0999 V2000
   12.7289   21.6372    4.7565 N   0  0  0  0  0  0  0  0  0  0  0  0
   13.5124   22.5519    5.6346 C   0  0  0  0  0  0  0  0  0  0  0  0
   13.7371   23.9421    4.9936 C   0  0  0  0  0  0  0  0  0  0  0  0
   14.9686   24.5293    5.4853 O   0  0  0  0  0  0  0  0  0  0  0  0
   12.6481   25.0165    5.1608 C   0  0  0  0  0  0  0  0  0  0  0  0
   13.0254   26.1280    4.3187 O   0  0  0  0  0  0  0  0  0  0  0  0
   11.1968   24.5822    4.8712 C   0  0  0  0  0  0  0  0  0  0  0  0
   11.1650   23.4665    3.8624 N   0  0  0  0  0  0  0  0  0  0  0  0
   11.0940   21.8977    4.4790 S   0  0  0  0  0  0  0  0  0  0  0  0
   10.4433   21.9394    5.7671 O   0  0  0  0  0  0  0  0  0  0  0  0
   10.6510   20.9864    3.4534 O   0  0  0  0  0  0  0  0  0  0  0  0
   14.8798   24.7216    6.4318 H   0  0  0  0  0  0  0  0  0  0  0  0
   13.0376   25.8419    3.3919 H   0  0  0  0  0  0  0  0  0  0  0  0
   13.5092   21.0171    3.6594 C   0  0  0  0  0  0  0  0  0  0  0  0
   16.6831   18.9346    4.1344 C   0  0  0  0  0  0  0  0  0  0  0  0
   17.4052   19.7363    5.0272 C   0  0  0  0  0  0  0  0  0  0  0  0
   16.8789   20.9557    5.4553 C   0  0  0  0  0  0  0  0  0  0  0  0
   15.6284   21.3778    5.0026 C   0  0  0  0  0  0  0  0  0  0  0  0
   14.8804   20.5809    4.1244 C   0  0  0  0  0  0  0  0  0  0  0  0
   15.4150   19.3520    3.7044 C   0  0  0  0  0  0  0  0  0  0  0  0
   18.7594   15.7676    4.0037 C   0  0  0  0  0  0  0  0  0  0  0  0
   18.1157   16.9773    4.4508 N   0  0  0  0  0  0  0  0  0  0  0  0
   17.2107   17.6304    3.6357 C   0  0  0  0  0  0  0  0  0  0  0  0
   16.8711   17.2016    2.5386 O   0  0  0  0  0  0  0  0  0  0  0  0
   18.3220   17.3406    5.3423 H   0  0  0  0  0  0  0  0  0  0  0  0
   13.0231   22.5814    7.0913 C   0  0  0  0  0  0  0  0  0  0  0  0
   14.0685   23.1445    7.8982 O   0  0  0  0  0  0  0  0  0  0  0  0
   15.0471   22.2869    8.3212 C   0  0  0  0  0  0  0  0  0  0  0  0
   14.8633   20.9580    8.7069 C   0  0  0  0  0  0  0  0  0  0  0  0
   15.9561   20.1903    9.1213 C   0  0  0  0  0  0  0  0  0  0  0  0
   17.2339   20.7453    9.1536 C   0  0  0  0  0  0  0  0  0  0  0  0
   17.4218   22.0708    8.7718 C   0  0  0  0  0  0  0  0  0  0  0  0
   16.3309   22.8376    8.3582 C   0  0  0  0  0  0  0  0  0  0  0  0
   10.2927   25.7953    4.5743 C   0  0  0  0  0  0  0  0  0  0  0  0
   10.2072   26.6039    5.7526 O   0  0  0  0  0  0  0  0  0  0  0  0
    9.0077   26.6274    6.4074 C   0  0  0  0  0  0  0  0  0  0  0  0
    7.9072   26.9095    5.5942 C   0  0  0  0  0  0  0  0  0  0  0  0
    6.6204   26.9636    6.1319 C   0  0  0  0  0  0  0  0  0  0  0  0
    6.4272   26.7372    7.4922 C   0  0  0  0  0  0  0  0  0  0  0  0
    7.5208   26.4591    8.3102 C   0  0  0  0  0  0  0  0  0  0  0  0
    8.8102   26.4044    7.7705 C   0  0  0  0  0  0  0  0  0  0  0  0
   10.5760   23.6846    2.5253 C   0  0  0  0  0  0  0  0  0  0  0  0
    9.1490   24.1838    2.5972 C   0  0  0  0  0  0  0  0  0  0  0  0
    8.7776   25.3650    1.9365 C   0  0  0  0  0  0  0  0  0  0  0  0
    7.4587   25.8211    1.9886 C   0  0  0  0  0  0  0  0  0  0  0  0
    6.5043   25.1000    2.7032 C   0  0  0  0  0  0  0  0  0  0  0  0
    4.8781   25.6570    2.7598 Cl  0  0  0  0  0  0  0  0  0  0  0  0
    6.8573   23.9284    3.3683 C   0  0  0  0  0  0  0  0  0  0  0  0
    8.1769   23.4739    3.3179 C   0  0  0  0  0  0  0  0  0  0  0  0
 21 22  1  0
 22 23  1  0
 23 24  2  0
 23 15  1  0
 15 16  2  0
 16 17  1  0
 17 18  2  0
 18 19  1  0
 19 14  1  0
 14  1  1  0
  1  2  1  0
  2 26  1  0
 26 27  1  0
 27 28  1  0
 28 29  2  0
 29 30  1  0
 30 31  2  0
 31 32  1  0
 32 33  2  0
  2  3  1  0
  3  4  1  0
  3  5  1  0
  5  6  1  0
  5  7  1  0
  7 34  1  0
 34 35  1  0
 35 36  1  0
 36 37  2  0
 37 38  1  0
 38 39  2  0
 39 40  1  0
 40 41  2  0
  7  8  1  0
  8 42  1  0
 42 43  1  0
 43 44  2  0
 44 45  1  0
 45 46  2  0
 46 47  1  0
 46 48  1  0
 48 49  2  0
  8  9  1  0
  9 10  2  0
  9 11  2  0
 19 20  2  0
 20 15  1  0
  9  1  1  0
 33 28  1  0
 41 36  1  0
 49 43  1  0
 22 25  1  0
  4 12  1  0
  6 13  1  0
M  END
> <minimizedAffinity>
-8.35540

> <CNNscore>
0.6580421329

> <CNNaffinity>
8.3897800446

> <CNN_VS>
5.5208287239

> <CNNaffinity_variance>
0.0558661781

$$$$



 49 53  0  0  0  0  0  0  0  0999 V2000
   12.9482   22.5230    6.9560 N   0  0  0  0  0  0  0  0  0  0  0  0
   12.3615   23.8866    7.0901 C   0  0  0  0  0  0  0  0  0  0  0  0
   12.5530   24.7432    5.8159 C   0  0  0  0  0  0  0  0  0  0  0  0
   12.6076   26.1509    6.1600 O   0  0  0  0  0  0  0  0  0  0  0  0
   11.5238   24.6149    4.6789 C   0  0  0  0  0  0  0  0  0  0  0  0
   12.0418   25.3678    3.5601 O   0  0  0  0  0  0  0  0  0  0  0  0
   11.1471   23.1838    4.2442 C   0  0  0  0  0  0  0  0  0  0  0  0
   12.2868   22.2335    4.4922 N   0  0  0  0  0  0  0  0  0  0  0  0
   12.2497   21.3784    5.9461 S   0  0  0  0  0  0  0  0  0  0  0  0
   10.8735   21.2296    6.3564 O   0  0  0  0  0  0  0  0  0  0  0  0
   13.1278   20.2377    5.8677 O   0  0  0  0  0  0  0  0  0  0  0  0
   11.7453   26.4337    6.5026 H   0  0  0  0  0  0  0  0  0  0  0  0
   12.8783   24.9750    3.2656 H   0  0  0  0  0  0  0  0  0  0  0  0
   14.4195   22.4653    7.1254 C   0  0  0  0  0  0  0  0  0  0  0  0
   16.2168   19.9230    9.3487 C   0  0  0  0  0  0  0  0  0  0  0  0
   15.5139   20.0663   10.5515 C   0  0  0  0  0  0  0  0  0  0  0  0
   14.4791   20.9973   10.6505 C   0  0  0  0  0  0  0  0  0  0  0  0
   14.1350   21.7833    9.5502 C   0  0  0  0  0  0  0  0  0  0  0  0
   14.8127   21.6414    8.3310 C   0  0  0  0  0  0  0  0  0  0  0  0
   15.8479   20.6970    8.2387 C   0  0  0  0  0  0  0  0  0  0  0  0
   18.8558   17.3792   10.3093 C   0  0  0  0  0  0  0  0  0  0  0  0
   17.7120   18.2561   10.3330 N   0  0  0  0  0  0  0  0  0  0  0  0
   17.3411   18.9528    9.1986 C   0  0  0  0  0  0  0  0  0  0  0  0
   17.9138   18.8274    8.1220 O   0  0  0  0  0  0  0  0  0  0  0  0
   17.1917   18.3593   11.1625 H   0  0  0  0  0  0  0  0  0  0  0  0
   10.9371   23.8937    7.6677 C   0  0  0  0  0  0  0  0  0  0  0  0
   10.2325   25.0054    7.0945 O   0  0  0  0  0  0  0  0  0  0  0  0
    9.6946   25.9088    7.9701 C   0  0  0  0  0  0  0  0  0  0  0  0
    8.3340   26.1190    8.1999 C   0  0  0  0  0  0  0  0  0  0  0  0
    7.9194   27.0805    9.1268 C   0  0  0  0  0  0  0  0  0  0  0  0
    8.8595   27.8353    9.8255 C   0  0  0  0  0  0  0  0  0  0  0  0
   10.2176   27.6307    9.5982 C   0  0  0  0  0  0  0  0  0  0  0  0
   10.6318   26.6709    8.6728 C   0  0  0  0  0  0  0  0  0  0  0  0
   10.5402   23.1652    2.8271 C   0  0  0  0  0  0  0  0  0  0  0  0
    9.9863   24.4553    2.5474 O   0  0  0  0  0  0  0  0  0  0  0  0
    8.6266   24.5778    2.6128 C   0  0  0  0  0  0  0  0  0  0  0  0
    8.0988   25.6151    1.8398 C   0  0  0  0  0  0  0  0  0  0  0  0
    6.7238   25.8532    1.8120 C   0  0  0  0  0  0  0  0  0  0  0  0
    5.8662   25.0530    2.5625 C   0  0  0  0  0  0  0  0  0  0  0  0
    6.3860   24.0190    3.3391 C   0  0  0  0  0  0  0  0  0  0  0  0
    7.7640   23.7805    3.3660 C   0  0  0  0  0  0  0  0  0  0  0  0
   12.9849   21.5921    3.3592 C   0  0  0  0  0  0  0  0  0  0  0  0
   14.3337   21.0308    3.7549 C   0  0  0  0  0  0  0  0  0  0  0  0
   15.2217   21.7975    4.5250 C   0  0  0  0  0  0  0  0  0  0  0  0
   16.4612   21.2777    4.9042 C   0  0  0  0  0  0  0  0  0  0  0  0
   16.8205   19.9892    4.5138 C   0  0  0  0  0  0  0  0  0  0  0  0
   18.3432   19.3459    4.9885 Cl  0  0  0  0  0  0  0  0  0  0  0  0
   15.9528   19.2169    3.7456 C   0  0  0  0  0  0  0  0  0  0  0  0
   14.7143   19.7381    3.3646 C   0  0  0  0  0  0  0  0  0  0  0  0
 21 22  1  0
 22 23  1  0
 23 24  2  0
 23 15  1  0
 15 16  2  0
 16 17  1  0
 17 18  2  0
 18 19  1  0
 19 14  1  0
 14  1  1  0
  1  2  1  0
  2 26  1  0
 26 27  1  0
 27 28  1  0
 28 29  2  0
 29 30  1  0
 30 31  2  0
 31 32  1  0
 32 33  2  0
  2  3  1  0
  3  4  1  0
  3  5  1  0
  5  6  1  0
  5  7  1  0
  7 34  1  0
 34 35  1  0
 35 36  1  0
 36 37  2  0
 37 38  1  0
 38 39  2  0
 39 40  1  0
 40 41  2  0
  7  8  1  0
  8 42  1  0
 42 43  1  0
 43 44  2  0
 44 45  1  0
 45 46  2  0
 46 47  1  0
 46 48  1  0
 48 49  2  0
  8  9  1  0
  9 10  2  0
  9 11  2  0
 19 20  2  0
 20 15  1  0
  9  1  1  0
 33 28  1  0
 41 36  1  0
 49 43  1  0
 22 25  1  0
  4 12  1  0
  6 13  1  0
M  END
> <minimizedAffinity>
-9.14486

> <CNNscore>
0.4394670427

> <CNNaffinity>
7.6502737999

> <CNN_VS>
3.3620431423

> <CNNaffinity_variance>
0.1836565286

$$$$



 49 53  0  0  0  0  0  0  0  0999 V2000
   14.8832   20.6562    6.8088 N   0  0  0  0  0  0  0  0  0  0  0  0
   14.9299   22.0577    7.3144 C   0  0  0  0  0  0  0  0  0  0  0  0
   15.5049   23.0460    6.2720 C   0  0  0  0  0  0  0  0  0  0  0  0
   16.1441   24.1641    6.9385 O   0  0  0  0  0  0  0  0  0  0  0  0
   14.5525   23.6522    5.2261 C   0  0  0  0  0  0  0  0  0  0  0  0
   15.3740   24.3741    4.2822 O   0  0  0  0  0  0  0  0  0  0  0  0
   13.6147   22.6715    4.4928 C   0  0  0  0  0  0  0  0  0  0  0  0
   14.2331   21.3025    4.4107 N   0  0  0  0  0  0  0  0  0  0  0  0
   13.7931   20.2054    5.6145 S   0  0  0  0  0  0  0  0  0  0  0  0
   12.4735   20.5489    6.0889 O   0  0  0  0  0  0  0  0  0  0  0  0
   14.1033   18.8623    5.1924 O   0  0  0  0  0  0  0  0  0  0  0  0
   15.4750   24.6857    7.4087 H   0  0  0  0  0  0  0  0  0  0  0  0
   15.9716   23.7552    3.8341 H   0  0  0  0  0  0  0  0  0  0  0  0
   16.1841   19.9466    6.8378 C   0  0  0  0  0  0  0  0  0  0  0  0
   16.9295   18.8157   10.4157 C   0  0  0  0  0  0  0  0  0  0  0  0
   17.7953   19.8281   10.8479 C   0  0  0  0  0  0  0  0  0  0  0  0
   18.1551   20.8590    9.9790 C   0  0  0  0  0  0  0  0  0  0  0  0
   17.6483   20.8902    8.6794 C   0  0  0  0  0  0  0  0  0  0  0  0
   16.7644   19.8973    8.2334 C   0  0  0  0  0  0  0  0  0  0  0  0
   16.4023   18.8677    9.1170 C   0  0  0  0  0  0  0  0  0  0  0  0
   14.7803   16.0822   11.9215 C   0  0  0  0  0  0  0  0  0  0  0  0
   15.2979   17.1073   11.0503 N   0  0  0  0  0  0  0  0  0  0  0  0
   16.5281   17.6842   11.3026 C   0  0  0  0  0  0  0  0  0  0  0  0
   17.2545   17.3293   12.2242 O   0  0  0  0  0  0  0  0  0  0  0  0
   14.7717   17.3984   10.2707 H   0  0  0  0  0  0  0  0  0  0  0  0
   13.6283   22.5151    7.9919 C   0  0  0  0  0  0  0  0  0  0  0  0
   12.8057   23.1393    6.9947 O   0  0  0  0  0  0  0  0  0  0  0  0
   11.8366   23.9938    7.4450 C   0  0  0  0  0  0  0  0  0  0  0  0
   12.0321   25.3138    7.8546 C   0  0  0  0  0  0  0  0  0  0  0  0
   10.9482   26.0792    8.2958 C   0  0  0  0  0  0  0  0  0  0  0  0
    9.6677   25.5307    8.3309 C   0  0  0  0  0  0  0  0  0  0  0  0
    9.4681   24.2140    7.9253 C   0  0  0  0  0  0  0  0  0  0  0  0
   10.5501   23.4495    7.4850 C   0  0  0  0  0  0  0  0  0  0  0  0
   13.0990   23.2670    3.1676 C   0  0  0  0  0  0  0  0  0  0  0  0
   12.2563   24.3859    3.4637 O   0  0  0  0  0  0  0  0  0  0  0  0
   10.9376   24.2820    3.1197 C   0  0  0  0  0  0  0  0  0  0  0  0
   10.3666   23.0331    3.3770 C   0  0  0  0  0  0  0  0  0  0  0  0
    9.0260   22.7880    3.0759 C   0  0  0  0  0  0  0  0  0  0  0  0
    8.2469   23.7945    2.5111 C   0  0  0  0  0  0  0  0  0  0  0  0
    8.8109   25.0415    2.2480 C   0  0  0  0  0  0  0  0  0  0  0  0
   10.1543   25.2868    2.5506 C   0  0  0  0  0  0  0  0  0  0  0  0
   14.6238   20.7363    3.1033 C   0  0  0  0  0  0  0  0  0  0  0  0
   15.7518   19.7341    3.2217 C   0  0  0  0  0  0  0  0  0  0  0  0
   15.7400   18.5601    2.4528 C   0  0  0  0  0  0  0  0  0  0  0  0
   16.7861   17.6399    2.5486 C   0  0  0  0  0  0  0  0  0  0  0  0
   17.8487   17.8873    3.4154 C   0  0  0  0  0  0  0  0  0  0  0  0
   19.1413   16.7583    3.5267 Cl  0  0  0  0  0  0  0  0  0  0  0  0
   17.8735   19.0451    4.1889 C   0  0  0  0  0  0  0  0  0  0  0  0
   16.8260   19.9640    4.0944 C   0  0  0  0  0  0  0  0  0  0  0  0
 21 22  1  0
 22 23  1  0
 23 24  2  0
 23 15  1  0
 15 16  2  0
 16 17  1  0
 17 18  2  0
 18 19  1  0
 19 14  1  0
 14  1  1  0
  1  2  1  0
  2 26  1  0
 26 27  1  0
 27 28  1  0
 28 29  2  0
 29 30  1  0
 30 31  2  0
 31 32  1  0
 32 33  2  0
  2  3  1  0
  3  4  1  0
  3  5  1  0
  5  6  1  0
  5  7  1  0
  7 34  1  0
 34 35  1  0
 35 36  1  0
 36 37  2  0
 37 38  1  0
 38 39  2  0
 39 40  1  0
 40 41  2  0
  7  8  1  0
  8 42  1  0
 42 43  1  0
 43 44  2  0
 44 45  1  0
 45 46  2  0
 46 47  1  0
 46 48  1  0
 48 49  2  0
  8  9  1  0
  9 10  2  0
  9 11  2  0
 19 20  2  0
 20 15  1  0
  9  1  1  0
 33 28  1  0
 41 36  1  0
 49 43  1  0
 22 25  1  0
  4 12  1  0
  6 13  1  0
M  END
> <minimizedAffinity>
-7.72600

> <CNNscore>
0.3998547792

> <CNNaffinity>
7.7193398476

> <CNN_VS>
3.0866148472

> <CNNaffinity_variance>
0.2942540646

$$$$



 49 53  0  0  0  0  0  0  0  0999 V2000
   12.1322   22.9806    5.2796 N   0  0  0  0  0  0  0  0  0  0  0  0
   12.3800   24.2838    5.9592 C   0  0  0  0  0  0  0  0  0  0  0  0
   11.9184   25.4928    5.1111 C   0  0  0  0  0  0  0  0  0  0  0  0
   12.7182   26.6613    5.4242 O   0  0  0  0  0  0  0  0  0  0  0  0
   10.4479   25.9381    5.1999 C   0  0  0  0  0  0  0  0  0  0  0  0
   10.2545   26.9451    4.1823 O   0  0  0  0  0  0  0  0  0  0  0  0
    9.3808   24.8310    5.0799 C   0  0  0  0  0  0  0  0  0  0  0  0
    9.8905   23.6868    4.2465 N   0  0  0  0  0  0  0  0  0  0  0  0
   10.5724   22.3914    5.0852 S   0  0  0  0  0  0  0  0  0  0  0  0
    9.9734   22.3272    6.3972 O   0  0  0  0  0  0  0  0  0  0  0  0
   10.6232   21.2280    4.2352 O   0  0  0  0  0  0  0  0  0  0  0  0
   12.5432   26.9377    6.3373 H   0  0  0  0  0  0  0  0  0  0  0  0
   10.4068   26.5543    3.3077 H   0  0  0  0  0  0  0  0  0  0  0  0
   13.1199   22.6349    4.2299 C   0  0  0  0  0  0  0  0  0  0  0  0
   16.1222   20.2867    4.5579 C   0  0  0  0  0  0  0  0  0  0  0  0
   16.5129   20.5253    5.8815 C   0  0  0  0  0  0  0  0  0  0  0  0
   15.8234   21.4584    6.6570 C   0  0  0  0  0  0  0  0  0  0  0  0
   14.7379   22.1515    6.1204 C   0  0  0  0  0  0  0  0  0  0  0  0
   14.3181   21.9128    4.8041 C   0  0  0  0  0  0  0  0  0  0  0  0
   15.0134   20.9669    4.0334 C   0  0  0  0  0  0  0  0  0  0  0  0
   16.6717   17.6863    1.8571 C   0  0  0  0  0  0  0  0  0  0  0  0
   16.0947   18.7198    2.6798 N   0  0  0  0  0  0  0  0  0  0  0  0
   16.8377   19.3105    3.6843 C   0  0  0  0  0  0  0  0  0  0  0  0
   18.0142   19.0365    3.8926 O   0  0  0  0  0  0  0  0  0  0  0  0
   15.1657   19.0066    2.5251 H   0  0  0  0  0  0  0  0  0  0  0  0
   11.9276   24.3121    7.4279 C   0  0  0  0  0  0  0  0  0  0  0  0
   11.9049   25.6815    7.8579 O   0  0  0  0  0  0  0  0  0  0  0  0
   10.7567   26.1167    8.4615 C   0  0  0  0  0  0  0  0  0  0  0  0
    9.5385   25.4360    8.4952 C   0  0  0  0  0  0  0  0  0  0  0  0
    8.4384   25.9989    9.1496 C   0  0  0  0  0  0  0  0  0  0  0  0
    8.5493   27.2414    9.7705 C   0  0  0  0  0  0  0  0  0  0  0  0
    9.7616   27.9250    9.7377 C   0  0  0  0  0  0  0  0  0  0  0  0
   10.8601   27.3633    9.0843 C   0  0  0  0  0  0  0  0  0  0  0  0
    8.0095   25.4094    4.6776 C   0  0  0  0  0  0  0  0  0  0  0  0
    7.8282   26.6654    5.3402 O   0  0  0  0  0  0  0  0  0  0  0  0
    6.5435   27.0575    5.5931 C   0  0  0  0  0  0  0  0  0  0  0  0
    5.9889   26.5162    6.7557 C   0  0  0  0  0  0  0  0  0  0  0  0
    4.6840   26.8333    7.1359 C   0  0  0  0  0  0  0  0  0  0  0  0
    3.9228   27.6951    6.3505 C   0  0  0  0  0  0  0  0  0  0  0  0
    4.4682   28.2357    5.1874 C   0  0  0  0  0  0  0  0  0  0  0  0
    5.7763   27.9182    4.8072 C   0  0  0  0  0  0  0  0  0  0  0  0
    9.2763   23.3842    2.9375 C   0  0  0  0  0  0  0  0  0  0  0  0
    7.9339   24.0603    2.7593 C   0  0  0  0  0  0  0  0  0  0  0  0
    7.8126   25.1873    1.9317 C   0  0  0  0  0  0  0  0  0  0  0  0
    6.5729   25.8051    1.7534 C   0  0  0  0  0  0  0  0  0  0  0  0
    5.4481   25.3009    2.4031 C   0  0  0  0  0  0  0  0  0  0  0  0
    3.9198   26.0564    2.1763 Cl  0  0  0  0  0  0  0  0  0  0  0  0
    5.5520   24.1861    3.2314 C   0  0  0  0  0  0  0  0  0  0  0  0
    6.7925   23.5700    3.4113 C   0  0  0  0  0  0  0  0  0  0  0  0
 21 22  1  0
 22 23  1  0
 23 24  2  0
 23 15  1  0
 15 16  2  0
 16 17  1  0
 17 18  2  0
 18 19  1  0
 19 14  1  0
 14  1  1  0
  1  2  1  0
  2 26  1  0
 26 27  1  0
 27 28  1  0
 28 29  2  0
 29 30  1  0
 30 31  2  0
 31 32  1  0
 32 33  2  0
  2  3  1  0
  3  4  1  0
  3  5  1  0
  5  6  1  0
  5  7  1  0
  7 34  1  0
 34 35  1  0
 35 36  1  0
 36 37  2  0
 37 38  1  0
 38 39  2  0
 39 40  1  0
 40 41  2  0
  7  8  1  0
  8 42  1  0
 42 43  1  0
 43 44  2  0
 44 45  1  0
 45 46  2  0
 46 47  1  0
 46 48  1  0
 48 49  2  0
  8  9  1  0
  9 10  2  0
  9 11  2  0
 19 20  2  0
 20 15  1  0
  9  1  1  0
 33 28  1  0
 41 36  1  0
 49 43  1  0
 22 25  1  0
  4 12  1  0
  6 13  1  0
M  END
> <minimizedAffinity>
-8.98010

> <CNNscore>
0.3812178969

> <CNNaffinity>
7.5544490814

> <CNN_VS>
2.8798911572

> <CNNaffinity_variance>
0.6705036759

$$$$



 49 53  0  0  0  0  0  0  0  0999 V2000
   12.4163   23.0987    5.9233 N   0  0  0  0  0  0  0  0  0  0  0  0
   12.5472   24.5033    6.4047 C   0  0  0  0  0  0  0  0  0  0  0  0
   11.9050   25.5250    5.4364 C   0  0  0  0  0  0  0  0  0  0  0  0
   12.5798   26.8048    5.5359 O   0  0  0  0  0  0  0  0  0  0  0  0
   10.3997   25.8180    5.5648 C   0  0  0  0  0  0  0  0  0  0  0  0
   10.0379   26.6460    4.4377 O   0  0  0  0  0  0  0  0  0  0  0  0
    9.4628   24.5970    5.6663 C   0  0  0  0  0  0  0  0  0  0  0  0
   10.0567   23.4087    4.9601 N   0  0  0  0  0  0  0  0  0  0  0  0
   10.9270   22.3243    5.9156 S   0  0  0  0  0  0  0  0  0  0  0  0
   10.4092   22.3806    7.2621 O   0  0  0  0  0  0  0  0  0  0  0  0
   11.0670   21.0655    5.2268 O   0  0  0  0  0  0  0  0  0  0  0  0
   12.4223   27.1860    6.4138 H   0  0  0  0  0  0  0  0  0  0  0  0
   10.1881   26.1552    3.6146 H   0  0  0  0  0  0  0  0  0  0  0  0
   13.3806   22.7174    4.8643 C   0  0  0  0  0  0  0  0  0  0  0  0
   15.6462   20.8334    7.3044 C   0  0  0  0  0  0  0  0  0  0  0  0
   16.6012   20.2965    6.4321 C   0  0  0  0  0  0  0  0  0  0  0  0
   16.5000   20.5229    5.0588 C   0  0  0  0  0  0  0  0  0  0  0  0
   15.4523   21.2909    4.5497 C   0  0  0  0  0  0  0  0  0  0  0  0
   14.4971   21.8542    5.4077 C   0  0  0  0  0  0  0  0  0  0  0  0
   14.6110   21.6270    6.7888 C   0  0  0  0  0  0  0  0  0  0  0  0
   16.8460   19.4989   10.6418 C   0  0  0  0  0  0  0  0  0  0  0  0
   16.7673   19.8606    9.2486 N   0  0  0  0  0  0  0  0  0  0  0  0
   15.7028   20.6060    8.7785 C   0  0  0  0  0  0  0  0  0  0  0  0
   14.8170   21.0373    9.5081 O   0  0  0  0  0  0  0  0  0  0  0  0
   17.4763   19.5748    8.6282 H   0  0  0  0  0  0  0  0  0  0  0  0
   12.1725   24.6882    7.8838 C   0  0  0  0  0  0  0  0  0  0  0  0
   10.7418   24.7663    7.9717 O   0  0  0  0  0  0  0  0  0  0  0  0
   10.2255   25.8423    8.6410 C   0  0  0  0  0  0  0  0  0  0  0  0
    8.8869   26.0258    8.9911 C   0  0  0  0  0  0  0  0  0  0  0  0
    8.4929   27.1790    9.6769 C   0  0  0  0  0  0  0  0  0  0  0  0
    9.4316   28.1521   10.0141 C   0  0  0  0  0  0  0  0  0  0  0  0
   10.7676   27.9744    9.6652 C   0  0  0  0  0  0  0  0  0  0  0  0
   11.1611   26.8233    8.9804 C   0  0  0  0  0  0  0  0  0  0  0  0
    8.0146   24.9629    5.2847 C   0  0  0  0  0  0  0  0  0  0  0  0
    7.7261   26.2746    5.7805 O   0  0  0  0  0  0  0  0  0  0  0  0
    6.4187   26.6728    5.7674 C   0  0  0  0  0  0  0  0  0  0  0  0
    5.8342   26.7899    7.0310 C   0  0  0  0  0  0  0  0  0  0  0  0
    4.5037   27.1896    7.1653 C   0  0  0  0  0  0  0  0  0  0  0  0
    3.7470   27.4732    6.0313 C   0  0  0  0  0  0  0  0  0  0  0  0
    4.3223   27.3548    4.7674 C   0  0  0  0  0  0  0  0  0  0  0  0
    5.6560   26.9548    4.6335 C   0  0  0  0  0  0  0  0  0  0  0  0
    9.4136   22.8617    3.7479 C   0  0  0  0  0  0  0  0  0  0  0  0
    8.9827   23.9458    2.7835 C   0  0  0  0  0  0  0  0  0  0  0  0
    9.9424   24.7193    2.1124 C   0  0  0  0  0  0  0  0  0  0  0  0
    9.5489   25.7107    1.2109 C   0  0  0  0  0  0  0  0  0  0  0  0
    8.1938   25.9356    0.9771 C   0  0  0  0  0  0  0  0  0  0  0  0
    7.7095   27.1505   -0.1399 Cl  0  0  0  0  0  0  0  0  0  0  0  0
    7.2286   25.1800    1.6382 C   0  0  0  0  0  0  0  0  0  0  0  0
    7.6226   24.1903    2.5414 C   0  0  0  0  0  0  0  0  0  0  0  0
 21 22  1  0
 22 23  1  0
 23 24  2  0
 23 15  1  0
 15 16  2  0
 16 17  1  0
 17 18  2  0
 18 19  1  0
 19 14  1  0
 14  1  1  0
  1  2  1  0
  2 26  1  0
 26 27  1  0
 27 28  1  0
 28 29  2  0
 29 30  1  0
 30 31  2  0
 31 32  1  0
 32 33  2  0
  2  3  1  0
  3  4  1  0
  3  5  1  0
  5  6  1  0
  5  7  1  0
  7 34  1  0
 34 35  1  0
 35 36  1  0
 36 37  2  0
 37 38  1  0
 38 39  2  0
 39 40  1  0
 40 41  2  0
  7  8  1  0
  8 42  1  0
 42 43  1  0
 43 44  2  0
 44 45  1  0
 45 46  2  0
 46 47  1  0
 46 48  1  0
 48 49  2  0
  8  9  1  0
  9 10  2  0
  9 11  2  0
 19 20  2  0
 20 15  1  0
  9  1  1  0
 33 28  1  0
 41 36  1  0
 49 43  1  0
 22 25  1  0
  4 12  1  0
  6 13  1  0
M  END
> <minimizedAffinity>
-7.82028

> <CNNscore>
0.2538909018

> <CNNaffinity>
7.2506413460

> <CNN_VS>
1.8408718109

> <CNNaffinity_variance>
0.5070958138

$$$$
