


 54 59  0  0  0  0  0  0  0  0999 V2000
   12.8477   24.2156    6.0179 C   0  0  0  0  0  0  0  0  0  0  0  0
   13.2939   25.2377    6.9479 O   0  0  0  0  0  0  0  0  0  0  0  0
   13.5977   26.0147    6.4531 H   0  0  0  0  0  0  0  0  0  0  0  0
   14.0628   23.8146    5.1554 C   0  0  0  0  0  0  0  0  0  0  0  0
   14.6307   25.0235    4.5826 O   0  0  0  0  0  0  0  0  0  0  0  0
   14.9526   25.5983    5.2946 H   0  0  0  0  0  0  0  0  0  0  0  0
   15.1695   23.0227    5.8851 C   0  0  0  0  0  0  0  0  0  0  0  0
   15.0280   21.5005    5.7488 C   0  0  0  0  0  0  0  0  0  0  0  0
   13.9467   20.9378    5.8926 O   0  0  0  0  0  0  0  0  0  0  0  0
   16.1874   20.8465    5.4308 N   0  0  0  0  0  0  0  0  0  0  0  0
   17.0142   21.3723    5.3350 H   0  0  0  0  0  0  0  0  0  0  0  0
   16.2496   19.4144    5.2295 C   0  0  0  0  0  0  0  0  0  0  0  0
   16.0187   19.0719    3.7861 C   0  0  0  0  0  0  0  0  0  0  0  0
   14.8127   19.0584    3.1014 C   0  0  0  0  0  0  0  0  0  0  0  0
   14.8272   18.7627    1.7375 C   0  0  0  0  0  0  0  0  0  0  0  0
   16.0376   18.4892    1.0809 C   0  0  0  0  0  0  0  0  0  0  0  0
   17.2486   18.5063    1.7781 C   0  0  0  0  0  0  0  0  0  0  0  0
   17.2234   18.7931    3.1325 C   0  0  0  0  0  0  0  0  0  0  0  0
   18.3821   18.8925    4.0727 C   0  0  0  0  0  0  0  0  0  0  0  0
   17.6882   18.8671    5.4507 C   0  0  0  0  0  0  0  0  0  0  0  0
   18.4337   19.6356    6.3923 O   0  0  0  0  0  0  0  0  0  0  0  0
   18.5140   20.5482    6.0734 H   0  0  0  0  0  0  0  0  0  0  0  0
   15.1047   23.4515    7.2570 O   0  0  0  0  0  0  0  0  0  0  0  0
   16.3754   23.4695    7.9025 C   0  0  0  0  0  0  0  0  0  0  0  0
   16.4524   22.2329    8.7561 C   0  0  0  0  0  0  0  0  0  0  0  0
   15.3237   21.7824    9.4544 C   0  0  0  0  0  0  0  0  0  0  0  0
   15.3946   20.6469   10.2617 C   0  0  0  0  0  0  0  0  0  0  0  0
   16.5968   19.9548   10.3892 C   0  0  0  0  0  0  0  0  0  0  0  0
   17.7322   20.4035    9.7150 C   0  0  0  0  0  0  0  0  0  0  0  0
   17.6609   21.5390    8.9059 C   0  0  0  0  0  0  0  0  0  0  0  0
   11.6461   24.7918    5.2199 C   0  0  0  0  0  0  0  0  0  0  0  0
   10.9597   26.5906    6.7436 O   0  0  0  0  0  0  0  0  0  0  0  0
   10.6735   25.5681    6.1315 C   0  0  0  0  0  0  0  0  0  0  0  0
    9.4159   24.9938    6.1595 N   0  0  0  0  0  0  0  0  0  0  0  0
    9.2228   24.2399    5.5564 H   0  0  0  0  0  0  0  0  0  0  0  0
    8.3728   25.4660    7.0482 C   0  0  0  0  0  0  0  0  0  0  0  0
    8.9327   26.2521    8.2020 C   0  0  0  0  0  0  0  0  0  0  0  0
    9.5519   25.7653    9.3441 C   0  0  0  0  0  0  0  0  0  0  0  0
   10.0291   26.6771   10.2868 C   0  0  0  0  0  0  0  0  0  0  0  0
    9.8921   28.0581   10.0779 C   0  0  0  0  0  0  0  0  0  0  0  0
    9.2714   28.5443    8.9255 C   0  0  0  0  0  0  0  0  0  0  0  0
    8.7895   27.6308    8.0018 C   0  0  0  0  0  0  0  0  0  0  0  0
    8.1222   27.9159    6.6970 C   0  0  0  0  0  0  0  0  0  0  0  0
    7.4940   26.5515    6.3532 C   0  0  0  0  0  0  0  0  0  0  0  0
    7.4393   26.3612    4.9342 O   0  0  0  0  0  0  0  0  0  0  0  0
    8.3358   26.4083    4.5668 H   0  0  0  0  0  0  0  0  0  0  0  0
   10.8462   23.7746    4.6005 O   0  0  0  0  0  0  0  0  0  0  0  0
   10.9101   23.7896    3.1774 C   0  0  0  0  0  0  0  0  0  0  0  0
    9.5643   24.2525    2.6881 C   0  0  0  0  0  0  0  0  0  0  0  0
    8.4300   23.4516    2.8777 C   0  0  0  0  0  0  0  0  0  0  0  0
    7.1906   23.8430    2.3725 C   0  0  0  0  0  0  0  0  0  0  0  0
    7.0732   25.0362    1.6612 C   0  0  0  0  0  0  0  0  0  0  0  0
    8.1943   25.8400    1.4619 C   0  0  0  0  0  0  0  0  0  0  0  0
    9.4341   25.4508    1.9721 C   0  0  0  0  0  0  0  0  0  0  0  0
 32 33  2  0
 33 34  1  0
 36 34  1  0
 36 37  1  0
 37 38  2  0
 38 39  1  0
 39 40  2  0
 40 41  1  0
 41 42  2  0
 42 43  1  0
 43 44  1  0
 44 45  1  0
 33 31  1  0
 31 47  1  0
 47 48  1  0
 48 49  1  0
 49 50  2  0
 50 51  1  0
 51 52  2  0
 52 53  1  0
 53 54  2  0
 31  1  1  0
  1  2  1  0
  1  4  1  0
  4  5  1  0
  4  7  1  0
  7 23  1  0
 23 24  1  0
 24 25  1  0
 25 26  2  0
 26 27  1  0
 27 28  2  0
 28 29  1  0
 29 30  2  0
  7  8  1  0
  8  9  2  0
  8 10  1  0
 12 10  1  0
 12 13  1  0
 13 14  2  0
 14 15  1  0
 15 16  2  0
 16 17  1  0
 17 18  2  0
 18 19  1  0
 19 20  1  0
 20 21  1  0
 44 36  1  0
 54 49  1  0
 30 25  1  0
 20 12  1  0
 42 37  1  0
 18 13  1  0
 34 35  1  0
 45 46  1  0
  2  3  1  0
  5  6  1  0
 10 11  1  0
 21 22  1  0
M  END
> <minimizedAffinity>
-11.83328

> <CNNscore>
0.9582355618

> <CNNaffinity>
9.0265722275

> <CNN_VS>
8.6495828629

> <CNNaffinity_variance>
0.0165630076

$$$$



 54 59  0  0  0  0  0  0  0  0999 V2000
   13.9591   23.9436    5.1554 C   0  0  0  0  0  0  0  0  0  0  0  0
   14.5150   25.1734    4.6194 O   0  0  0  0  0  0  0  0  0  0  0  0
   14.8396   25.7259    5.3476 H   0  0  0  0  0  0  0  0  0  0  0  0
   12.7685   24.3304    6.0577 C   0  0  0  0  0  0  0  0  0  0  0  0
   13.2461   25.2661    7.0617 O   0  0  0  0  0  0  0  0  0  0  0  0
   13.5600   26.0745    6.6270 H   0  0  0  0  0  0  0  0  0  0  0  0
   11.5470   24.9346    5.3317 C   0  0  0  0  0  0  0  0  0  0  0  0
   10.5410   25.6068    6.2761 C   0  0  0  0  0  0  0  0  0  0  0  0
   10.8772   26.5025    7.0450 O   0  0  0  0  0  0  0  0  0  0  0  0
    9.2575   25.1453    6.1636 N   0  0  0  0  0  0  0  0  0  0  0  0
    9.0712   24.4216    5.5227 H   0  0  0  0  0  0  0  0  0  0  0  0
    8.1621   25.6763    6.9470 C   0  0  0  0  0  0  0  0  0  0  0  0
    8.6781   26.3964    8.1591 C   0  0  0  0  0  0  0  0  0  0  0  0
    9.1700   25.8387    9.3298 C   0  0  0  0  0  0  0  0  0  0  0  0
    9.6549   26.6946   10.3199 C   0  0  0  0  0  0  0  0  0  0  0  0
    9.6441   28.0851   10.1271 C   0  0  0  0  0  0  0  0  0  0  0  0
    9.1480   28.6388    8.9438 C   0  0  0  0  0  0  0  0  0  0  0  0
    8.6620   27.7821    7.9704 C   0  0  0  0  0  0  0  0  0  0  0  0
    8.1098   28.1365    6.6266 C   0  0  0  0  0  0  0  0  0  0  0  0
    7.4250   26.8221    6.1974 C   0  0  0  0  0  0  0  0  0  0  0  0
    7.4774   26.6791    4.7797 O   0  0  0  0  0  0  0  0  0  0  0  0
    8.4024   26.6868    4.4879 H   0  0  0  0  0  0  0  0  0  0  0  0
   10.9582   23.8435    4.6017 O   0  0  0  0  0  0  0  0  0  0  0  0
   11.0478   23.9979    3.1876 C   0  0  0  0  0  0  0  0  0  0  0  0
    9.6703   24.3501    2.6956 C   0  0  0  0  0  0  0  0  0  0  0  0
    8.5874   23.4972    2.9497 C   0  0  0  0  0  0  0  0  0  0  0  0
    7.3116   23.8100    2.4801 C   0  0  0  0  0  0  0  0  0  0  0  0
    7.1052   24.9730    1.7416 C   0  0  0  0  0  0  0  0  0  0  0  0
    8.1777   25.8206    1.4652 C   0  0  0  0  0  0  0  0  0  0  0  0
    9.4541   25.5083    1.9365 C   0  0  0  0  0  0  0  0  0  0  0  0
   15.1027   23.1816    5.8794 C   0  0  0  0  0  0  0  0  0  0  0  0
   13.9159   21.0326    5.9205 O   0  0  0  0  0  0  0  0  0  0  0  0
   14.9556   21.6533    5.7307 C   0  0  0  0  0  0  0  0  0  0  0  0
   16.1337   21.0542    5.3243 N   0  0  0  0  0  0  0  0  0  0  0  0
   16.8987   21.6240    5.0806 H   0  0  0  0  0  0  0  0  0  0  0  0
   16.2786   19.6141    5.2456 C   0  0  0  0  0  0  0  0  0  0  0  0
   16.0744   19.1057    3.8447 C   0  0  0  0  0  0  0  0  0  0  0  0
   14.8757   18.9253    3.1699 C   0  0  0  0  0  0  0  0  0  0  0  0
   14.9121   18.4658    1.8526 C   0  0  0  0  0  0  0  0  0  0  0  0
   16.1376   18.2003    1.2223 C   0  0  0  0  0  0  0  0  0  0  0  0
   17.3421   18.3863    1.9036 C   0  0  0  0  0  0  0  0  0  0  0  0
   17.2949   18.8305    3.2152 C   0  0  0  0  0  0  0  0  0  0  0  0
   18.4436   19.1250    4.1224 C   0  0  0  0  0  0  0  0  0  0  0  0
   17.7566   19.1853    5.5004 C   0  0  0  0  0  0  0  0  0  0  0  0
   18.4344   20.1047    6.3654 O   0  0  0  0  0  0  0  0  0  0  0  0
   18.4341   20.9873    5.9629 H   0  0  0  0  0  0  0  0  0  0  0  0
   15.1254   23.4190    7.2941 O   0  0  0  0  0  0  0  0  0  0  0  0
   16.4358   23.4000    7.8525 C   0  0  0  0  0  0  0  0  0  0  0  0
   16.5153   22.1798    8.7299 C   0  0  0  0  0  0  0  0  0  0  0  0
   15.3943   21.7594    9.4581 C   0  0  0  0  0  0  0  0  0  0  0  0
   15.4759   20.6676   10.3219 C   0  0  0  0  0  0  0  0  0  0  0  0
   16.6842   19.9897   10.4759 C   0  0  0  0  0  0  0  0  0  0  0  0
   17.8078   20.4000    9.7606 C   0  0  0  0  0  0  0  0  0  0  0  0
   17.7249   21.4898    8.8920 C   0  0  0  0  0  0  0  0  0  0  0  0
 32 33  2  0
 33 34  1  0
 36 34  1  0
 36 37  1  0
 37 38  2  0
 38 39  1  0
 39 40  2  0
 40 41  1  0
 41 42  2  0
 42 43  1  0
 43 44  1  0
 44 45  1  0
 33 31  1  0
 31 47  1  0
 47 48  1  0
 48 49  1  0
 49 50  2  0
 50 51  1  0
 51 52  2  0
 52 53  1  0
 53 54  2  0
 31  1  1  0
  1  2  1  0
  1  4  1  0
  4  5  1  0
  4  7  1  0
  7 23  1  0
 23 24  1  0
 24 25  1  0
 25 26  2  0
 26 27  1  0
 27 28  2  0
 28 29  1  0
 29 30  2  0
  7  8  1  0
  8  9  2  0
  8 10  1  0
 12 10  1  0
 12 13  1  0
 13 14  2  0
 14 15  1  0
 15 16  2  0
 16 17  1  0
 17 18  2  0
 18 19  1  0
 19 20  1  0
 20 21  1  0
 44 36  1  0
 54 49  1  0
 30 25  1  0
 20 12  1  0
 42 37  1  0
 18 13  1  0
 34 35  1  0
 45 46  1  0
  2  3  1  0
  5  6  1  0
 10 11  1  0
 21 22  1  0
M  END
> <minimizedAffinity>
-11.81102

> <CNNscore>
0.9281626940

> <CNNaffinity>
8.9951353073

> <CNN_VS>
8.3489494324

> <CNNaffinity_variance>
0.0193546489

$$$$



 54 59  0  0  0  0  0  0  0  0999 V2000
   13.5249   24.1428    5.0986 C   0  0  0  0  0  0  0  0  0  0  0  0
   14.4978   25.0890    4.5820 O   0  0  0  0  0  0  0  0  0  0  0  0
   14.5064   25.0472    3.6129 H   0  0  0  0  0  0  0  0  0  0  0  0
   13.9768   22.7329    4.6637 C   0  0  0  0  0  0  0  0  0  0  0  0
   15.3318   22.8304    4.1475 O   0  0  0  0  0  0  0  0  0  0  0  0
   15.9268   23.1245    4.8549 H   0  0  0  0  0  0  0  0  0  0  0  0
   13.9207   21.6448    5.7578 C   0  0  0  0  0  0  0  0  0  0  0  0
   15.0798   21.7213    6.7611 C   0  0  0  0  0  0  0  0  0  0  0  0
   16.2244   21.4062    6.4495 O   0  0  0  0  0  0  0  0  0  0  0  0
   14.7321   22.1902    7.9990 N   0  0  0  0  0  0  0  0  0  0  0  0
   13.7898   22.4194    8.1687 H   0  0  0  0  0  0  0  0  0  0  0  0
   15.6911   22.3632    9.0693 C   0  0  0  0  0  0  0  0  0  0  0  0
   16.2945   21.0447    9.4583 C   0  0  0  0  0  0  0  0  0  0  0  0
   15.7147   20.0390   10.2172 C   0  0  0  0  0  0  0  0  0  0  0  0
   16.4338   18.8596   10.4165 C   0  0  0  0  0  0  0  0  0  0  0  0
   17.7116   18.7014    9.8570 C   0  0  0  0  0  0  0  0  0  0  0  0
   18.2880   19.7193    9.0923 C   0  0  0  0  0  0  0  0  0  0  0  0
   17.5702   20.8887    8.9064 C   0  0  0  0  0  0  0  0  0  0  0  0
   17.9657   22.0940    8.1146 C   0  0  0  0  0  0  0  0  0  0  0  0
   16.9456   23.1486    8.5925 C   0  0  0  0  0  0  0  0  0  0  0  0
   16.6567   24.0669    7.5408 O   0  0  0  0  0  0  0  0  0  0  0  0
   16.3066   23.5833    6.7763 H   0  0  0  0  0  0  0  0  0  0  0  0
   13.8994   20.3922    5.0502 O   0  0  0  0  0  0  0  0  0  0  0  0
   15.0434   19.5812    5.3051 C   0  0  0  0  0  0  0  0  0  0  0  0
   15.5881   19.1566    3.9684 C   0  0  0  0  0  0  0  0  0  0  0  0
   14.9592   19.5656    2.7845 C   0  0  0  0  0  0  0  0  0  0  0  0
   15.4493   19.1598    1.5431 C   0  0  0  0  0  0  0  0  0  0  0  0
   16.5671   18.3314    1.4707 C   0  0  0  0  0  0  0  0  0  0  0  0
   17.1908   17.9015    2.6417 C   0  0  0  0  0  0  0  0  0  0  0  0
   16.7011   18.3090    3.8840 C   0  0  0  0  0  0  0  0  0  0  0  0
   12.1254   24.5671    4.5749 C   0  0  0  0  0  0  0  0  0  0  0  0
   10.9002   23.4790    6.4034 O   0  0  0  0  0  0  0  0  0  0  0  0
   11.0453   24.4502    5.6699 C   0  0  0  0  0  0  0  0  0  0  0  0
   10.2661   25.5894    5.7561 N   0  0  0  0  0  0  0  0  0  0  0  0
   10.5092   26.3749    5.2148 H   0  0  0  0  0  0  0  0  0  0  0  0
    9.1031   25.6639    6.6179 C   0  0  0  0  0  0  0  0  0  0  0  0
    9.4104   26.3600    7.9155 C   0  0  0  0  0  0  0  0  0  0  0  0
   10.0762   25.8485    9.0199 C   0  0  0  0  0  0  0  0  0  0  0  0
   10.2830   26.6807   10.1211 C   0  0  0  0  0  0  0  0  0  0  0  0
    9.8332   28.0100   10.1063 C   0  0  0  0  0  0  0  0  0  0  0  0
    9.1665   28.5222    8.9915 C   0  0  0  0  0  0  0  0  0  0  0  0
    8.9548   27.6843    7.9084 C   0  0  0  0  0  0  0  0  0  0  0  0
    8.2971   28.0173    6.6101 C   0  0  0  0  0  0  0  0  0  0  0  0
    8.0243   26.6198    6.0211 C   0  0  0  0  0  0  0  0  0  0  0  0
    8.0784   26.6531    4.5897 O   0  0  0  0  0  0  0  0  0  0  0  0
    8.9537   26.9604    4.3063 H   0  0  0  0  0  0  0  0  0  0  0  0
   11.6570   23.7426    3.4984 O   0  0  0  0  0  0  0  0  0  0  0  0
   11.3620   24.4721    2.3109 C   0  0  0  0  0  0  0  0  0  0  0  0
    9.8622   24.5357    2.2028 C   0  0  0  0  0  0  0  0  0  0  0  0
    9.0765   23.4604    2.6390 C   0  0  0  0  0  0  0  0  0  0  0  0
    7.6907   23.4838    2.4851 C   0  0  0  0  0  0  0  0  0  0  0  0
    7.0749   24.5796    1.8823 C   0  0  0  0  0  0  0  0  0  0  0  0
    7.8451   25.6538    1.4402 C   0  0  0  0  0  0  0  0  0  0  0  0
    9.2319   25.6327    1.5989 C   0  0  0  0  0  0  0  0  0  0  0  0
 32 33  2  0
 33 34  1  0
 36 34  1  0
 36 37  1  0
 37 38  2  0
 38 39  1  0
 39 40  2  0
 40 41  1  0
 41 42  2  0
 42 43  1  0
 43 44  1  0
 44 45  1  0
 33 31  1  0
 31 47  1  0
 47 48  1  0
 48 49  1  0
 49 50  2  0
 50 51  1  0
 51 52  2  0
 52 53  1  0
 53 54  2  0
 31  1  1  0
  1  2  1  0
  1  4  1  0
  4  5  1  0
  4  7  1  0
  7 23  1  0
 23 24  1  0
 24 25  1  0
 25 26  2  0
 26 27  1  0
 27 28  2  0
 28 29  1  0
 29 30  2  0
  7  8  1  0
  8  9  2  0
  8 10  1  0
 12 10  1  0
 12 13  1  0
 13 14  2  0
 14 15  1  0
 15 16  2  0
 16 17  1  0
 17 18  2  0
 18 19  1  0
 19 20  1  0
 20 21  1  0
 44 36  1  0
 54 49  1  0
 30 25  1  0
 20 12  1  0
 42 37  1  0
 18 13  1  0
 34 35  1  0
 45 46  1  0
  2  3  1  0
  5  6  1  0
 10 11  1  0
 21 22  1  0
M  END
> <minimizedAffinity>
-12.44658

> <CNNscore>
0.8986064792

> <CNNaffinity>
8.9981184006

> <CNN_VS>
8.0857677460

> <CNNaffinity_variance>
0.2274693996

$$$$



 54 59  0  0  0  0  0  0  0  0999 V2000
   13.8910   22.8038    4.4385 C   0  0  0  0  0  0  0  0  0  0  0  0
   15.2577   22.9868    3.9831 O   0  0  0  0  0  0  0  0  0  0  0  0
   15.8140   23.2575    4.7302 H   0  0  0  0  0  0  0  0  0  0  0  0
   13.3934   24.1669    4.9634 C   0  0  0  0  0  0  0  0  0  0  0  0
   14.3980   25.1683    4.6475 O   0  0  0  0  0  0  0  0  0  0  0  0
   14.4911   25.2404    3.6847 H   0  0  0  0  0  0  0  0  0  0  0  0
   12.0208   24.6295    4.4286 C   0  0  0  0  0  0  0  0  0  0  0  0
   10.8870   24.5050    5.4557 C   0  0  0  0  0  0  0  0  0  0  0  0
   10.7323   23.4883    6.1257 O   0  0  0  0  0  0  0  0  0  0  0  0
   10.0997   25.6183    5.5732 N   0  0  0  0  0  0  0  0  0  0  0  0
   10.2896   26.3931    4.9962 H   0  0  0  0  0  0  0  0  0  0  0  0
    8.9996   25.7050    6.5100 C   0  0  0  0  0  0  0  0  0  0  0  0
    9.4449   26.3467    7.7921 C   0  0  0  0  0  0  0  0  0  0  0  0
   10.1924   25.7744    8.8106 C   0  0  0  0  0  0  0  0  0  0  0  0
   10.5479   26.5703    9.9006 C   0  0  0  0  0  0  0  0  0  0  0  0
   10.1569   27.9175    9.9564 C   0  0  0  0  0  0  0  0  0  0  0  0
    9.4050   28.4867    8.9251 C   0  0  0  0  0  0  0  0  0  0  0  0
    9.0505   27.6873    7.8515 C   0  0  0  0  0  0  0  0  0  0  0  0
    8.2781   28.0762    6.6314 C   0  0  0  0  0  0  0  0  0  0  0  0
    7.9122   26.7052    6.0252 C   0  0  0  0  0  0  0  0  0  0  0  0
    7.8402   26.7981    4.6042 O   0  0  0  0  0  0  0  0  0  0  0  0
    8.6930   27.1023    4.2564 H   0  0  0  0  0  0  0  0  0  0  0  0
   11.7788   23.8312    3.2562 O   0  0  0  0  0  0  0  0  0  0  0  0
   11.3885   24.6002    2.1213 C   0  0  0  0  0  0  0  0  0  0  0  0
    9.8878   24.5314    2.0387 C   0  0  0  0  0  0  0  0  0  0  0  0
    9.1494   25.6457    1.6171 C   0  0  0  0  0  0  0  0  0  0  0  0
    7.7568   25.5931    1.5561 C   0  0  0  0  0  0  0  0  0  0  0  0
    7.0852   24.4301    1.9263 C   0  0  0  0  0  0  0  0  0  0  0  0
    7.8067   23.3206    2.3659 C   0  0  0  0  0  0  0  0  0  0  0  0
    9.2006   23.3728    2.4254 C   0  0  0  0  0  0  0  0  0  0  0  0
   13.8905   21.6622    5.4919 C   0  0  0  0  0  0  0  0  0  0  0  0
   13.6203   23.1246    7.4455 O   0  0  0  0  0  0  0  0  0  0  0  0
   14.2023   22.1897    6.9074 C   0  0  0  0  0  0  0  0  0  0  0  0
   15.2038   21.4631    7.5247 N   0  0  0  0  0  0  0  0  0  0  0  0
   15.5491   20.6551    7.0807 H   0  0  0  0  0  0  0  0  0  0  0  0
   15.7616   21.8529    8.8045 C   0  0  0  0  0  0  0  0  0  0  0  0
   16.4809   20.7134    9.4731 C   0  0  0  0  0  0  0  0  0  0  0  0
   15.9274   19.6369   10.1510 C   0  0  0  0  0  0  0  0  0  0  0  0
   16.7816   18.6663   10.6765 C   0  0  0  0  0  0  0  0  0  0  0  0
   18.1714   18.7745   10.5141 C   0  0  0  0  0  0  0  0  0  0  0  0
   18.7245   19.8576    9.8282 C   0  0  0  0  0  0  0  0  0  0  0  0
   17.8689   20.8225    9.3214 C   0  0  0  0  0  0  0  0  0  0  0  0
   18.2276   22.0410    8.5369 C   0  0  0  0  0  0  0  0  0  0  0  0
   16.9307   22.8690    8.6197 C   0  0  0  0  0  0  0  0  0  0  0  0
   16.7606   23.6648    7.4404 O   0  0  0  0  0  0  0  0  0  0  0  0
   16.7283   23.0867    6.6621 H   0  0  0  0  0  0  0  0  0  0  0  0
   14.8893   20.6645    5.2365 O   0  0  0  0  0  0  0  0  0  0  0  0
   14.3489   19.4087    4.8362 C   0  0  0  0  0  0  0  0  0  0  0  0
   15.1652   18.9402    3.6618 C   0  0  0  0  0  0  0  0  0  0  0  0
   16.1522   17.9604    3.8337 C   0  0  0  0  0  0  0  0  0  0  0  0
   16.9560   17.5655    2.7648 C   0  0  0  0  0  0  0  0  0  0  0  0
   16.7891   18.1548    1.5125 C   0  0  0  0  0  0  0  0  0  0  0  0
   15.8139   19.1335    1.3289 C   0  0  0  0  0  0  0  0  0  0  0  0
   15.0057   19.5252    2.3977 C   0  0  0  0  0  0  0  0  0  0  0  0
 32 33  2  0
 33 34  1  0
 36 34  1  0
 36 37  1  0
 37 38  2  0
 38 39  1  0
 39 40  2  0
 40 41  1  0
 41 42  2  0
 42 43  1  0
 43 44  1  0
 44 45  1  0
 33 31  1  0
 31 47  1  0
 47 48  1  0
 48 49  1  0
 49 50  2  0
 50 51  1  0
 51 52  2  0
 52 53  1  0
 53 54  2  0
 31  1  1  0
  1  2  1  0
  1  4  1  0
  4  5  1  0
  4  7  1  0
  7 23  1  0
 23 24  1  0
 24 25  1  0
 25 26  2  0
 26 27  1  0
 27 28  2  0
 28 29  1  0
 29 30  2  0
  7  8  1  0
  8  9  2  0
  8 10  1  0
 12 10  1  0
 12 13  1  0
 13 14  2  0
 14 15  1  0
 15 16  2  0
 16 17  1  0
 17 18  2  0
 18 19  1  0
 19 20  1  0
 20 21  1  0
 44 36  1  0
 54 49  1  0
 30 25  1  0
 20 12  1  0
 42 37  1  0
 18 13  1  0
 34 35  1  0
 45 46  1  0
  2  3  1  0
  5  6  1  0
 10 11  1  0
 21 22  1  0
M  END
> <minimizedAffinity>
-12.42440

> <CNNscore>
0.8804197907

> <CNNaffinity>
8.8064641953

> <CNN_VS>
7.7533855438

> <CNNaffinity_variance>
0.0213483106

$$$$



 54 59  0  0  0  0  0  0  0  0999 V2000
   13.8195   24.0681    5.2905 C   0  0  0  0  0  0  0  0  0  0  0  0
   14.1480   25.3271    4.6457 O   0  0  0  0  0  0  0  0  0  0  0  0
   14.6700   25.8747    5.2528 H   0  0  0  0  0  0  0  0  0  0  0  0
   12.9616   24.3952    6.5307 C   0  0  0  0  0  0  0  0  0  0  0  0
   13.0412   25.8260    6.7723 O   0  0  0  0  0  0  0  0  0  0  0  0
   12.6611   26.3029    6.0181 H   0  0  0  0  0  0  0  0  0  0  0  0
   11.4796   23.9692    6.4508 C   0  0  0  0  0  0  0  0  0  0  0  0
   11.1058   23.2895    5.1263 C   0  0  0  0  0  0  0  0  0  0  0  0
   11.2010   22.0752    4.9751 O   0  0  0  0  0  0  0  0  0  0  0  0
   10.6396   24.1402    4.1608 N   0  0  0  0  0  0  0  0  0  0  0  0
   10.5961   25.1029    4.3618 H   0  0  0  0  0  0  0  0  0  0  0  0
   10.2079   23.6842    2.8566 C   0  0  0  0  0  0  0  0  0  0  0  0
    8.7391   23.9315    2.6685 C   0  0  0  0  0  0  0  0  0  0  0  0
    7.6832   23.2111    3.2068 C   0  0  0  0  0  0  0  0  0  0  0  0
    6.3827   23.6469    2.9490 C   0  0  0  0  0  0  0  0  0  0  0  0
    6.1567   24.7894    2.1651 C   0  0  0  0  0  0  0  0  0  0  0  0
    7.2263   25.5104    1.6275 C   0  0  0  0  0  0  0  0  0  0  0  0
    8.5128   25.0660    1.8823 C   0  0  0  0  0  0  0  0  0  0  0  0
    9.8022   25.6806    1.4397 C   0  0  0  0  0  0  0  0  0  0  0  0
   10.8156   24.5505    1.7172 C   0  0  0  0  0  0  0  0  0  0  0  0
   12.0861   25.1005    2.0580 O   0  0  0  0  0  0  0  0  0  0  0  0
   11.9937   25.6681    2.8392 H   0  0  0  0  0  0  0  0  0  0  0  0
   10.7236   25.1730    6.6734 O   0  0  0  0  0  0  0  0  0  0  0  0
    9.5435   24.9630    7.4448 C   0  0  0  0  0  0  0  0  0  0  0  0
    9.3878   26.1588    8.3446 C   0  0  0  0  0  0  0  0  0  0  0  0
    8.1762   26.8623    8.3849 C   0  0  0  0  0  0  0  0  0  0  0  0
    8.0324   27.9826    9.2037 C   0  0  0  0  0  0  0  0  0  0  0  0
    9.1012   28.4193    9.9833 C   0  0  0  0  0  0  0  0  0  0  0  0
   10.3182   27.7398    9.9379 C   0  0  0  0  0  0  0  0  0  0  0  0
   10.4616   26.6178    9.1197 C   0  0  0  0  0  0  0  0  0  0  0  0
   15.1513   23.3302    5.5976 C   0  0  0  0  0  0  0  0  0  0  0  0
   13.9247   21.2043    5.6641 O   0  0  0  0  0  0  0  0  0  0  0  0
   14.9873   21.7983    5.5217 C   0  0  0  0  0  0  0  0  0  0  0  0
   16.1816   21.1603    5.2411 N   0  0  0  0  0  0  0  0  0  0  0  0
   16.9735   21.7044    5.0265 H   0  0  0  0  0  0  0  0  0  0  0  0
   16.3049   19.7162    5.2527 C   0  0  0  0  0  0  0  0  0  0  0  0
   16.1143   19.1261    3.8822 C   0  0  0  0  0  0  0  0  0  0  0  0
   14.9233   18.9225    3.2003 C   0  0  0  0  0  0  0  0  0  0  0  0
   14.9726   18.3828    1.9141 C   0  0  0  0  0  0  0  0  0  0  0  0
   16.2033   18.0611    1.3212 C   0  0  0  0  0  0  0  0  0  0  0  0
   17.4000   18.2707    2.0093 C   0  0  0  0  0  0  0  0  0  0  0  0
   17.3397   18.7949    3.2905 C   0  0  0  0  0  0  0  0  0  0  0  0
   18.4789   19.1273    4.1965 C   0  0  0  0  0  0  0  0  0  0  0  0
   17.7720   19.2819    5.5570 C   0  0  0  0  0  0  0  0  0  0  0  0
   18.4508   20.2424    6.3752 O   0  0  0  0  0  0  0  0  0  0  0  0
   18.4706   21.0987    5.9198 H   0  0  0  0  0  0  0  0  0  0  0  0
   15.6420   23.5884    6.9208 O   0  0  0  0  0  0  0  0  0  0  0  0
   15.0178   22.7922    7.9237 C   0  0  0  0  0  0  0  0  0  0  0  0
   16.1133   22.0194    8.6075 C   0  0  0  0  0  0  0  0  0  0  0  0
   17.4234   22.5165    8.6246 C   0  0  0  0  0  0  0  0  0  0  0  0
   18.4568   21.7779    9.2005 C   0  0  0  0  0  0  0  0  0  0  0  0
   18.1933   20.5272    9.7567 C   0  0  0  0  0  0  0  0  0  0  0  0
   16.8954   20.0193    9.7426 C   0  0  0  0  0  0  0  0  0  0  0  0
   15.8600   20.7608    9.1707 C   0  0  0  0  0  0  0  0  0  0  0  0
 32 33  2  0
 33 34  1  0
 36 34  1  0
 36 37  1  0
 37 38  2  0
 38 39  1  0
 39 40  2  0
 40 41  1  0
 41 42  2  0
 42 43  1  0
 43 44  1  0
 44 45  1  0
 33 31  1  0
 31 47  1  0
 47 48  1  0
 48 49  1  0
 49 50  2  0
 50 51  1  0
 51 52  2  0
 52 53  1  0
 53 54  2  0
 31  1  1  0
  1  2  1  0
  1  4  1  0
  4  5  1  0
  4  7  1  0
  7 23  1  0
 23 24  1  0
 24 25  1  0
 25 26  2  0
 26 27  1  0
 27 28  2  0
 28 29  1  0
 29 30  2  0
  7  8  1  0
  8  9  2  0
  8 10  1  0
 12 10  1  0
 12 13  1  0
 13 14  2  0
 14 15  1  0
 15 16  2  0
 16 17  1  0
 17 18  2  0
 18 19  1  0
 19 20  1  0
 20 21  1  0
 44 36  1  0
 54 49  1  0
 30 25  1  0
 20 12  1  0
 42 37  1  0
 18 13  1  0
 34 35  1  0
 45 46  1  0
  2  3  1  0
  5  6  1  0
 10 11  1  0
 21 22  1  0
M  END
> <minimizedAffinity>
-12.27827

> <CNNscore>
0.8716248274

> <CNNaffinity>
8.7365465164

> <CNN_VS>
7.6149907112

> <CNNaffinity_variance>
0.0563114583

$$$$



 54 59  0  0  0  0  0  0  0  0999 V2000
   12.9633   24.3590    6.6949 C   0  0  0  0  0  0  0  0  0  0  0  0
   13.0780   25.8041    6.7813 O   0  0  0  0  0  0  0  0  0  0  0  0
   12.6986   26.2067    5.9846 H   0  0  0  0  0  0  0  0  0  0  0  0
   13.7808   23.9040    5.4678 C   0  0  0  0  0  0  0  0  0  0  0  0
   14.0703   25.0746    4.6568 O   0  0  0  0  0  0  0  0  0  0  0  0
   14.6208   25.6914    5.1642 H   0  0  0  0  0  0  0  0  0  0  0  0
   15.0955   23.1565    5.7790 C   0  0  0  0  0  0  0  0  0  0  0  0
   14.9643   21.6286    5.7141 C   0  0  0  0  0  0  0  0  0  0  0  0
   13.8945   21.0637    5.9216 O   0  0  0  0  0  0  0  0  0  0  0  0
   16.1179   20.9710    5.3826 N   0  0  0  0  0  0  0  0  0  0  0  0
   16.9354   21.4990    5.2340 H   0  0  0  0  0  0  0  0  0  0  0  0
   16.1869   19.5320    5.2414 C   0  0  0  0  0  0  0  0  0  0  0  0
   16.0121   19.1318    3.8051 C   0  0  0  0  0  0  0  0  0  0  0  0
   14.8336   19.0897    3.0750 C   0  0  0  0  0  0  0  0  0  0  0  0
   14.9009   18.7397    1.7257 C   0  0  0  0  0  0  0  0  0  0  0  0
   16.1357   18.4412    1.1281 C   0  0  0  0  0  0  0  0  0  0  0  0
   17.3188   18.4873    1.8706 C   0  0  0  0  0  0  0  0  0  0  0  0
   17.2411   18.8282    3.2104 C   0  0  0  0  0  0  0  0  0  0  0  0
   18.3624   18.9662    4.1902 C   0  0  0  0  0  0  0  0  0  0  0  0
   17.6155   18.9954    5.5401 C   0  0  0  0  0  0  0  0  0  0  0  0
   18.3244   19.8017    6.4784 O   0  0  0  0  0  0  0  0  0  0  0  0
   18.4176   20.7009    6.1266 H   0  0  0  0  0  0  0  0  0  0  0  0
   15.4930   23.6104    7.0852 O   0  0  0  0  0  0  0  0  0  0  0  0
   14.9878   22.7984    8.1421 C   0  0  0  0  0  0  0  0  0  0  0  0
   16.1558   22.0383    8.7094 C   0  0  0  0  0  0  0  0  0  0  0  0
   17.4611   22.5247    8.5532 C   0  0  0  0  0  0  0  0  0  0  0  0
   18.5490   21.8146    9.0613 C   0  0  0  0  0  0  0  0  0  0  0  0
   18.3463   20.6048    9.7216 C   0  0  0  0  0  0  0  0  0  0  0  0
   17.0544   20.1001    9.8670 C   0  0  0  0  0  0  0  0  0  0  0  0
   15.9654   20.8115    9.3598 C   0  0  0  0  0  0  0  0  0  0  0  0
   11.4520   24.0054    6.6366 C   0  0  0  0  0  0  0  0  0  0  0  0
   11.3275   22.0842    5.1128 O   0  0  0  0  0  0  0  0  0  0  0  0
   11.0874   23.2657    5.3330 C   0  0  0  0  0  0  0  0  0  0  0  0
   10.4228   24.0846    4.4385 N   0  0  0  0  0  0  0  0  0  0  0  0
   10.1623   24.9899    4.7242 H   0  0  0  0  0  0  0  0  0  0  0  0
   10.0976   23.6526    3.0937 C   0  0  0  0  0  0  0  0  0  0  0  0
    8.6599   23.9292    2.7482 C   0  0  0  0  0  0  0  0  0  0  0  0
    7.5364   23.2185    3.1446 C   0  0  0  0  0  0  0  0  0  0  0  0
    6.2809   23.6667    2.7313 C   0  0  0  0  0  0  0  0  0  0  0  0
    6.1590   24.8178    1.9378 C   0  0  0  0  0  0  0  0  0  0  0  0
    7.2919   25.5324    1.5437 C   0  0  0  0  0  0  0  0  0  0  0  0
    8.5346   25.0721    1.9484 C   0  0  0  0  0  0  0  0  0  0  0  0
    9.8692   25.6827    1.6742 C   0  0  0  0  0  0  0  0  0  0  0  0
   10.8283   24.5307    2.0314 C   0  0  0  0  0  0  0  0  0  0  0  0
   12.0712   25.0412    2.5290 O   0  0  0  0  0  0  0  0  0  0  0  0
   11.9061   25.5829    3.3165 H   0  0  0  0  0  0  0  0  0  0  0  0
   10.6050   25.1632    6.6587 O   0  0  0  0  0  0  0  0  0  0  0  0
    9.4556   25.0107    7.4864 C   0  0  0  0  0  0  0  0  0  0  0  0
    9.3769   26.2410    8.3496 C   0  0  0  0  0  0  0  0  0  0  0  0
   10.4716   26.6226    9.1369 C   0  0  0  0  0  0  0  0  0  0  0  0
   10.3863   27.7246    9.9873 C   0  0  0  0  0  0  0  0  0  0  0  0
    9.1999   28.4519   10.0683 C   0  0  0  0  0  0  0  0  0  0  0  0
    8.1023   28.0807    9.2938 C   0  0  0  0  0  0  0  0  0  0  0  0
    8.1893   26.9806    8.4386 C   0  0  0  0  0  0  0  0  0  0  0  0
 32 33  2  0
 33 34  1  0
 36 34  1  0
 36 37  1  0
 37 38  2  0
 38 39  1  0
 39 40  2  0
 40 41  1  0
 41 42  2  0
 42 43  1  0
 43 44  1  0
 44 45  1  0
 33 31  1  0
 31 47  1  0
 47 48  1  0
 48 49  1  0
 49 50  2  0
 50 51  1  0
 51 52  2  0
 52 53  1  0
 53 54  2  0
 31  1  1  0
  1  2  1  0
  1  4  1  0
  4  5  1  0
  4  7  1  0
  7 23  1  0
 23 24  1  0
 24 25  1  0
 25 26  2  0
 26 27  1  0
 27 28  2  0
 28 29  1  0
 29 30  2  0
  7  8  1  0
  8  9  2  0
  8 10  1  0
 12 10  1  0
 12 13  1  0
 13 14  2  0
 14 15  1  0
 15 16  2  0
 16 17  1  0
 17 18  2  0
 18 19  1  0
 19 20  1  0
 20 21  1  0
 44 36  1  0
 54 49  1  0
 30 25  1  0
 20 12  1  0
 42 37  1  0
 18 13  1  0
 34 35  1  0
 45 46  1  0
  2  3  1  0
  5  6  1  0
 10 11  1  0
 21 22  1  0
M  END
> <minimizedAffinity>
-12.45471

> <CNNscore>
0.8441395164

> <CNNaffinity>
8.5215587616

> <CNN_VS>
7.1933846474

> <CNNaffinity_variance>
0.0681653842

$$$$



 54 59  0  0  0  0  0  0  0  0999 V2000
   12.9812   23.9215    5.0016 C   0  0  0  0  0  0  0  0  0  0  0  0
   13.2383   25.0586    4.1357 O   0  0  0  0  0  0  0  0  0  0  0  0
   12.9242   24.8602    3.2396 H   0  0  0  0  0  0  0  0  0  0  0  0
   13.7834   22.7269    4.4444 C   0  0  0  0  0  0  0  0  0  0  0  0
   15.1316   23.1835    4.1513 O   0  0  0  0  0  0  0  0  0  0  0  0
   15.5619   23.4690    4.9724 H   0  0  0  0  0  0  0  0  0  0  0  0
   13.8492   21.4817    5.3551 C   0  0  0  0  0  0  0  0  0  0  0  0
   14.0605   21.8152    6.8384 C   0  0  0  0  0  0  0  0  0  0  0  0
   13.1283   21.8241    7.6367 O   0  0  0  0  0  0  0  0  0  0  0  0
   15.3599   22.0680    7.1862 N   0  0  0  0  0  0  0  0  0  0  0  0
   16.0493   22.0428    6.4838 H   0  0  0  0  0  0  0  0  0  0  0  0
   15.7633   22.3707    8.5430 C   0  0  0  0  0  0  0  0  0  0  0  0
   16.3293   21.1516    9.2118 C   0  0  0  0  0  0  0  0  0  0  0  0
   15.6337   20.0654    9.7216 C   0  0  0  0  0  0  0  0  0  0  0  0
   16.3626   19.0025   10.2572 C   0  0  0  0  0  0  0  0  0  0  0  0
   17.7659   19.0380   10.2735 C   0  0  0  0  0  0  0  0  0  0  0  0
   18.4592   20.1358    9.7565 C   0  0  0  0  0  0  0  0  0  0  0  0
   17.7273   21.1889    9.2342 C   0  0  0  0  0  0  0  0  0  0  0  0
   18.2428   22.4458    8.6091 C   0  0  0  0  0  0  0  0  0  0  0  0
   16.9825   23.3354    8.5759 C   0  0  0  0  0  0  0  0  0  0  0  0
   17.0261   24.2103    7.4510 O   0  0  0  0  0  0  0  0  0  0  0  0
   17.0895   23.6871    6.6367 H   0  0  0  0  0  0  0  0  0  0  0  0
   14.9166   20.6761    4.8242 O   0  0  0  0  0  0  0  0  0  0  0  0
   14.5562   19.3085    4.6473 C   0  0  0  0  0  0  0  0  0  0  0  0
   15.4681   18.7466    3.5906 C   0  0  0  0  0  0  0  0  0  0  0  0
   16.4960   17.8601    3.9400 C   0  0  0  0  0  0  0  0  0  0  0  0
   17.3557   17.3506    2.9667 C   0  0  0  0  0  0  0  0  0  0  0  0
   17.2052   17.7297    1.6347 C   0  0  0  0  0  0  0  0  0  0  0  0
   16.1987   18.6260    1.2764 C   0  0  0  0  0  0  0  0  0  0  0  0
   15.3373   19.1347    2.2502 C   0  0  0  0  0  0  0  0  0  0  0  0
   11.4442   23.7039    5.0556 C   0  0  0  0  0  0  0  0  0  0  0  0
   11.0438   24.3600    2.7237 O   0  0  0  0  0  0  0  0  0  0  0  0
   10.7223   24.4335    3.9041 C   0  0  0  0  0  0  0  0  0  0  0  0
    9.6380   25.1662    4.3511 N   0  0  0  0  0  0  0  0  0  0  0  0
    9.3682   25.0905    5.2948 H   0  0  0  0  0  0  0  0  0  0  0  0
    8.8861   26.0422    3.4746 C   0  0  0  0  0  0  0  0  0  0  0  0
    7.5910   25.4169    3.0335 C   0  0  0  0  0  0  0  0  0  0  0  0
    7.4019   24.4431    2.0636 C   0  0  0  0  0  0  0  0  0  0  0  0
    6.1080   23.9761    1.8278 C   0  0  0  0  0  0  0  0  0  0  0  0
    5.0228   24.4766    2.5636 C   0  0  0  0  0  0  0  0  0  0  0  0
    5.2176   25.4542    3.5413 C   0  0  0  0  0  0  0  0  0  0  0  0
    6.5041   25.9205    3.7590 C   0  0  0  0  0  0  0  0  0  0  0  0
    6.9521   26.9323    4.7614 C   0  0  0  0  0  0  0  0  0  0  0  0
    8.3601   27.2908    4.2478 C   0  0  0  0  0  0  0  0  0  0  0  0
    9.2226   27.6431    5.3363 O   0  0  0  0  0  0  0  0  0  0  0  0
    9.2820   26.8990    5.9557 H   0  0  0  0  0  0  0  0  0  0  0  0
   10.8480   24.2172    6.2552 O   0  0  0  0  0  0  0  0  0  0  0  0
   11.7254   25.0398    7.0188 C   0  0  0  0  0  0  0  0  0  0  0  0
   10.8699   25.7843    8.0081 C   0  0  0  0  0  0  0  0  0  0  0  0
    9.4755   25.6476    7.9796 C   0  0  0  0  0  0  0  0  0  0  0  0
    8.6710   26.3815    8.8508 C   0  0  0  0  0  0  0  0  0  0  0  0
    9.2520   27.2702    9.7541 C   0  0  0  0  0  0  0  0  0  0  0  0
   10.6374   27.4187    9.7900 C   0  0  0  0  0  0  0  0  0  0  0  0
   11.4431   26.6802    8.9215 C   0  0  0  0  0  0  0  0  0  0  0  0
 32 33  2  0
 33 34  1  0
 36 34  1  0
 36 37  1  0
 37 38  2  0
 38 39  1  0
 39 40  2  0
 40 41  1  0
 41 42  2  0
 42 43  1  0
 43 44  1  0
 44 45  1  0
 33 31  1  0
 31 47  1  0
 47 48  1  0
 48 49  1  0
 49 50  2  0
 50 51  1  0
 51 52  2  0
 52 53  1  0
 53 54  2  0
 31  1  1  0
  1  2  1  0
  1  4  1  0
  4  5  1  0
  4  7  1  0
  7 23  1  0
 23 24  1  0
 24 25  1  0
 25 26  2  0
 26 27  1  0
 27 28  2  0
 28 29  1  0
 29 30  2  0
  7  8  1  0
  8  9  2  0
  8 10  1  0
 12 10  1  0
 12 13  1  0
 13 14  2  0
 14 15  1  0
 15 16  2  0
 16 17  1  0
 17 18  2  0
 18 19  1  0
 19 20  1  0
 20 21  1  0
 44 36  1  0
 54 49  1  0
 30 25  1  0
 20 12  1  0
 42 37  1  0
 18 13  1  0
 34 35  1  0
 45 46  1  0
  2  3  1  0
  5  6  1  0
 10 11  1  0
 21 22  1  0
M  END
> <minimizedAffinity>
-11.56907

> <CNNscore>
0.7357908487

> <CNNaffinity>
8.4967470169

> <CNN_VS>
6.2518286705

> <CNNaffinity_variance>
0.5146159530

$$$$



 54 59  0  0  0  0  0  0  0  0999 V2000
   13.4095   23.7677    4.7549 C   0  0  0  0  0  0  0  0  0  0  0  0
   14.6001   24.5532    5.0272 O   0  0  0  0  0  0  0  0  0  0  0  0
   14.4848   25.0372    5.8598 H   0  0  0  0  0  0  0  0  0  0  0  0
   12.2321   24.7531    4.6006 C   0  0  0  0  0  0  0  0  0  0  0  0
   12.0588   25.0340    3.1853 O   0  0  0  0  0  0  0  0  0  0  0  0
   11.8208   24.2167    2.7202 H   0  0  0  0  0  0  0  0  0  0  0  0
   10.8874   24.2886    5.2007 C   0  0  0  0  0  0  0  0  0  0  0  0
    9.6609   24.8246    4.4495 C   0  0  0  0  0  0  0  0  0  0  0  0
    8.7437   24.0865    4.1025 O   0  0  0  0  0  0  0  0  0  0  0  0
    9.6711   26.1759    4.2326 N   0  0  0  0  0  0  0  0  0  0  0  0
   10.4472   26.6971    4.5413 H   0  0  0  0  0  0  0  0  0  0  0  0
    8.5890   26.8712    3.5685 C   0  0  0  0  0  0  0  0  0  0  0  0
    7.6097   25.8937    2.9860 C   0  0  0  0  0  0  0  0  0  0  0  0
    7.7537   25.1355    1.8336 C   0  0  0  0  0  0  0  0  0  0  0  0
    6.7380   24.2392    1.4977 C   0  0  0  0  0  0  0  0  0  0  0  0
    5.6022   24.1119    2.3129 C   0  0  0  0  0  0  0  0  0  0  0  0
    5.4656   24.8787    3.4732 C   0  0  0  0  0  0  0  0  0  0  0  0
    6.4749   25.7707    3.7942 C   0  0  0  0  0  0  0  0  0  0  0  0
    6.5618   26.6704    4.9856 C   0  0  0  0  0  0  0  0  0  0  0  0
    7.6939   27.6384    4.5825 C   0  0  0  0  0  0  0  0  0  0  0  0
    8.4101   28.0678    5.7382 O   0  0  0  0  0  0  0  0  0  0  0  0
    8.7760   27.2956    6.1973 H   0  0  0  0  0  0  0  0  0  0  0  0
   10.9124   24.7198    6.5732 O   0  0  0  0  0  0  0  0  0  0  0  0
    9.6223   24.7485    7.1786 C   0  0  0  0  0  0  0  0  0  0  0  0
    9.6277   25.8788    8.1717 C   0  0  0  0  0  0  0  0  0  0  0  0
    8.4283   26.5026    8.5418 C   0  0  0  0  0  0  0  0  0  0  0  0
    8.4297   27.5630    9.4482 C   0  0  0  0  0  0  0  0  0  0  0  0
    9.6306   28.0196    9.9868 C   0  0  0  0  0  0  0  0  0  0  0  0
   10.8329   27.4202    9.6122 C   0  0  0  0  0  0  0  0  0  0  0  0
   10.8313   26.3580    8.7063 C   0  0  0  0  0  0  0  0  0  0  0  0
   13.2477   22.7367    5.9054 C   0  0  0  0  0  0  0  0  0  0  0  0
   13.8452   24.2967    7.7047 O   0  0  0  0  0  0  0  0  0  0  0  0
   13.9727   23.1925    7.1883 C   0  0  0  0  0  0  0  0  0  0  0  0
   14.7706   22.1948    7.7176 N   0  0  0  0  0  0  0  0  0  0  0  0
   14.7388   21.2962    7.3166 H   0  0  0  0  0  0  0  0  0  0  0  0
   15.6522   22.4295    8.8440 C   0  0  0  0  0  0  0  0  0  0  0  0
   16.2385   21.1494    9.3734 C   0  0  0  0  0  0  0  0  0  0  0  0
   15.6244   20.1987   10.1758 C   0  0  0  0  0  0  0  0  0  0  0  0
   16.3454   19.0584   10.5332 C   0  0  0  0  0  0  0  0  0  0  0  0
   17.6617   18.8750   10.0823 C   0  0  0  0  0  0  0  0  0  0  0  0
   18.2751   19.8325    9.2721 C   0  0  0  0  0  0  0  0  0  0  0  0
   17.5555   20.9670    8.9333 C   0  0  0  0  0  0  0  0  0  0  0  0
   17.9912   22.1000    8.0640 C   0  0  0  0  0  0  0  0  0  0  0  0
   16.9442   23.1805    8.3968 C   0  0  0  0  0  0  0  0  0  0  0  0
   16.7036   24.0206    7.2613 O   0  0  0  0  0  0  0  0  0  0  0  0
   16.3887   23.4799    6.5200 H   0  0  0  0  0  0  0  0  0  0  0  0
   13.8122   21.4555    5.5923 O   0  0  0  0  0  0  0  0  0  0  0  0
   14.8746   21.5187    4.6453 C   0  0  0  0  0  0  0  0  0  0  0  0
   14.8803   20.2044    3.9122 C   0  0  0  0  0  0  0  0  0  0  0  0
   15.0004   19.0012    4.6204 C   0  0  0  0  0  0  0  0  0  0  0  0
   15.0700   17.7827    3.9456 C   0  0  0  0  0  0  0  0  0  0  0  0
   15.0315   17.7545    2.5525 C   0  0  0  0  0  0  0  0  0  0  0  0
   14.9164   18.9443    1.8358 C   0  0  0  0  0  0  0  0  0  0  0  0
   14.8414   20.1637    2.5113 C   0  0  0  0  0  0  0  0  0  0  0  0
 32 33  2  0
 33 34  1  0
 36 34  1  0
 36 37  1  0
 37 38  2  0
 38 39  1  0
 39 40  2  0
 40 41  1  0
 41 42  2  0
 42 43  1  0
 43 44  1  0
 44 45  1  0
 33 31  1  0
 31 47  1  0
 47 48  1  0
 48 49  1  0
 49 50  2  0
 50 51  1  0
 51 52  2  0
 52 53  1  0
 53 54  2  0
 31  1  1  0
  1  2  1  0
  1  4  1  0
  4  5  1  0
  4  7  1  0
  7 23  1  0
 23 24  1  0
 24 25  1  0
 25 26  2  0
 26 27  1  0
 27 28  2  0
 28 29  1  0
 29 30  2  0
  7  8  1  0
  8  9  2  0
  8 10  1  0
 12 10  1  0
 12 13  1  0
 13 14  2  0
 14 15  1  0
 15 16  2  0
 16 17  1  0
 17 18  2  0
 18 19  1  0
 19 20  1  0
 20 21  1  0
 44 36  1  0
 54 49  1  0
 30 25  1  0
 20 12  1  0
 42 37  1  0
 18 13  1  0
 34 35  1  0
 45 46  1  0
  2  3  1  0
  5  6  1  0
 10 11  1  0
 21 22  1  0
M  END
> <minimizedAffinity>
-11.72716

> <CNNscore>
0.7217670083

> <CNNaffinity>
8.2694892883

> <CNN_VS>
5.9686446190

> <CNNaffinity_variance>
0.0977260098

$$$$



 54 59  0  0  0  0  0  0  0  0999 V2000
   14.7792   23.4032    7.0721 C   0  0  0  0  0  0  0  0  0  0  0  0
   13.8946   22.9882    8.1463 O   0  0  0  0  0  0  0  0  0  0  0  0
   13.6050   22.0753    7.9921 H   0  0  0  0  0  0  0  0  0  0  0  0
   13.9679   23.3515    5.7605 C   0  0  0  0  0  0  0  0  0  0  0  0
   13.1858   22.1267    5.7594 O   0  0  0  0  0  0  0  0  0  0  0  0
   12.5539   22.1459    6.4951 H   0  0  0  0  0  0  0  0  0  0  0  0
   13.0371   24.5559    5.5012 C   0  0  0  0  0  0  0  0  0  0  0  0
   11.6493   24.4091    6.1403 C   0  0  0  0  0  0  0  0  0  0  0  0
   11.2635   23.3413    6.6064 O   0  0  0  0  0  0  0  0  0  0  0  0
   10.9098   25.5604    6.1676 N   0  0  0  0  0  0  0  0  0  0  0  0
   11.2920   26.3758    5.7696 H   0  0  0  0  0  0  0  0  0  0  0  0
    9.5894   25.6301    6.7567 C   0  0  0  0  0  0  0  0  0  0  0  0
    9.6259   26.3916    8.0500 C   0  0  0  0  0  0  0  0  0  0  0  0
   10.0892   25.9496    9.2803 C   0  0  0  0  0  0  0  0  0  0  0  0
   10.0850   26.8442   10.3515 C   0  0  0  0  0  0  0  0  0  0  0  0
    9.6238   28.1590   10.1794 C   0  0  0  0  0  0  0  0  0  0  0  0
    9.1599   28.5967    8.9360 C   0  0  0  0  0  0  0  0  0  0  0  0
    9.1607   27.6998    7.8811 C   0  0  0  0  0  0  0  0  0  0  0  0
    8.7393   27.9434    6.4671 C   0  0  0  0  0  0  0  0  0  0  0  0
    8.6291   26.5098    5.9071 C   0  0  0  0  0  0  0  0  0  0  0  0
    8.9507   26.4971    4.5180 O   0  0  0  0  0  0  0  0  0  0  0  0
    9.8495   26.8391    4.3911 H   0  0  0  0  0  0  0  0  0  0  0  0
   12.9632   24.6804    4.0697 O   0  0  0  0  0  0  0  0  0  0  0  0
   12.5023   23.4962    3.4240 C   0  0  0  0  0  0  0  0  0  0  0  0
   11.1088   23.7779    2.9315 C   0  0  0  0  0  0  0  0  0  0  0  0
   10.8694   24.8437    2.0533 C   0  0  0  0  0  0  0  0  0  0  0  0
    9.5766   25.1204    1.6082 C   0  0  0  0  0  0  0  0  0  0  0  0
    8.5066   24.3422    2.0440 C   0  0  0  0  0  0  0  0  0  0  0  0
    8.7283   23.2906    2.9329 C   0  0  0  0  0  0  0  0  0  0  0  0
   10.0223   23.0128    3.3772 C   0  0  0  0  0  0  0  0  0  0  0  0
   16.0274   22.4792    7.1012 C   0  0  0  0  0  0  0  0  0  0  0  0
   14.7151   20.4041    7.1217 O   0  0  0  0  0  0  0  0  0  0  0  0
   15.6777   21.0324    6.6964 C   0  0  0  0  0  0  0  0  0  0  0  0
   16.5638   20.5240    5.7645 N   0  0  0  0  0  0  0  0  0  0  0  0
   17.2468   21.1207    5.3815 H   0  0  0  0  0  0  0  0  0  0  0  0
   16.5193   19.1408    5.3335 C   0  0  0  0  0  0  0  0  0  0  0  0
   16.1575   19.0183    3.8786 C   0  0  0  0  0  0  0  0  0  0  0  0
   14.9024   19.1384    3.2997 C   0  0  0  0  0  0  0  0  0  0  0  0
   14.7904   19.0167    1.9138 C   0  0  0  0  0  0  0  0  0  0  0  0
   15.9266   18.7859    1.1229 C   0  0  0  0  0  0  0  0  0  0  0  0
   17.1885   18.6691    1.7089 C   0  0  0  0  0  0  0  0  0  0  0  0
   17.2874   18.7786    3.0866 C   0  0  0  0  0  0  0  0  0  0  0  0
   18.5233   18.7165    3.9220 C   0  0  0  0  0  0  0  0  0  0  0  0
   17.9451   18.5077    5.3350 C   0  0  0  0  0  0  0  0  0  0  0  0
   18.7912   19.1081    6.3232 O   0  0  0  0  0  0  0  0  0  0  0  0
   18.8753   20.0575    6.1432 H   0  0  0  0  0  0  0  0  0  0  0  0
   16.6133   22.3709    8.4062 O   0  0  0  0  0  0  0  0  0  0  0  0
   17.9190   21.8013    8.3974 C   0  0  0  0  0  0  0  0  0  0  0  0
   17.9254   20.7161    9.4401 C   0  0  0  0  0  0  0  0  0  0  0  0
   18.9747   20.6316   10.3651 C   0  0  0  0  0  0  0  0  0  0  0  0
   19.0217   19.5928   11.2943 C   0  0  0  0  0  0  0  0  0  0  0  0
   18.0243   18.6190   11.3018 C   0  0  0  0  0  0  0  0  0  0  0  0
   16.9772   18.6889   10.3846 C   0  0  0  0  0  0  0  0  0  0  0  0
   16.9273   19.7317    9.4578 C   0  0  0  0  0  0  0  0  0  0  0  0
 32 33  2  0
 33 34  1  0
 36 34  1  0
 36 37  1  0
 37 38  2  0
 38 39  1  0
 39 40  2  0
 40 41  1  0
 41 42  2  0
 42 43  1  0
 43 44  1  0
 44 45  1  0
 33 31  1  0
 31 47  1  0
 47 48  1  0
 48 49  1  0
 49 50  2  0
 50 51  1  0
 51 52  2  0
 52 53  1  0
 53 54  2  0
 31  1  1  0
  1  2  1  0
  1  4  1  0
  4  5  1  0
  4  7  1  0
  7 23  1  0
 23 24  1  0
 24 25  1  0
 25 26  2  0
 26 27  1  0
 27 28  2  0
 28 29  1  0
 29 30  2  0
  7  8  1  0
  8  9  2  0
  8 10  1  0
 12 10  1  0
 12 13  1  0
 13 14  2  0
 14 15  1  0
 15 16  2  0
 16 17  1  0
 17 18  2  0
 18 19  1  0
 19 20  1  0
 20 21  1  0
 44 36  1  0
 54 49  1  0
 30 25  1  0
 20 12  1  0
 42 37  1  0
 18 13  1  0
 34 35  1  0
 45 46  1  0
  2  3  1  0
  5  6  1  0
 10 11  1  0
 21 22  1  0
M  END
> <minimizedAffinity>
-9.67327

> <CNNscore>
0.5706627965

> <CNNaffinity>
8.3577413559

> <CNN_VS>
4.7694520950

> <CNNaffinity_variance>
0.2760509849

$$$$
