


 29 30  0  0  0  0  0  0  0  0999 V2000
   19.3937   53.5929   36.4634 C   0  0  0  0  0  0  0  0  0  0  0  0
   18.4869   54.7970   36.5211 C   0  0  0  0  0  0  0  0  0  0  0  0
   18.9679   56.0682   36.1770 C   0  0  0  0  0  0  0  0  0  0  0  0
   18.1197   57.1772   36.1981 C   0  0  0  0  0  0  0  0  0  0  0  0
   16.7832   57.0270   36.5652 C   0  0  0  0  0  0  0  0  0  0  0  0
   16.2991   55.7697   36.9237 C   0  0  0  0  0  0  0  0  0  0  0  0
   17.1404   54.6529   36.8833 C   0  0  0  0  0  0  0  0  0  0  0  0
   14.9611   55.6843   37.2406 O   0  0  0  0  0  0  0  0  0  0  0  0
   14.3674   56.8160   37.7493 C   0  0  0  0  0  0  0  0  0  0  0  0
   13.5054   57.5214   36.9081 C   0  0  0  0  0  0  0  0  0  0  0  0
   12.8965   58.6927   37.3623 C   0  0  0  0  0  0  0  0  0  0  0  0
   13.1685   59.1587   38.6486 C   0  0  0  0  0  0  0  0  0  0  0  0
   12.4194   60.6028   39.2078 Cl  0  0  0  0  0  0  0  0  0  0  0  0
   14.0491   58.4671   39.4841 C   0  0  0  0  0  0  0  0  0  0  0  0
   14.6561   57.2940   39.0318 C   0  0  0  0  0  0  0  0  0  0  0  0
   18.5950   52.2917   36.3289 C   0  0  0  0  0  0  0  0  0  0  0  0
   19.5247   51.0942   36.1092 C   0  0  0  0  0  0  0  0  0  0  0  0
   20.9178   51.4259   35.5672 C   0  0  0  0  0  0  0  0  0  0  0  0
   20.4973   50.7791   32.9242 O   0  0  0  0  0  0  0  0  0  0  0  0
   21.3979   50.5847   34.1047 P   0  0  0  0  0  0  0  0  0  0  0  0
   22.8801   51.0417   33.7139 O   0  0  0  0  0  0  0  0  0  0  0  0
   21.6066   49.0270   34.3862 O   0  0  0  0  0  0  0  0  0  0  0  0
   23.1574   50.5827   32.9056 H   0  0  0  0  0  0  0  0  0  0  0  0
   21.8711   48.5827   33.5655 H   0  0  0  0  0  0  0  0  0  0  0  0
   22.2405   51.1925   36.7136 S   0  0  0  0  0  0  0  0  0  0  0  0
   22.9048   49.9254   36.5135 O   0  0  0  0  0  0  0  0  0  0  0  0
   21.9320   51.6957   38.0307 O   0  0  0  0  0  0  0  0  0  0  0  0
   23.2714   52.2614   36.0675 O   0  0  0  0  0  0  0  0  0  0  0  0
   23.5170   51.9745   35.1741 H   0  0  0  0  0  0  0  0  0  0  0  0
 19 20  2  0
 20 21  1  0
 20 22  1  0
 20 18  1  0
 18 17  1  0
 17 16  1  0
 16  1  1  0
  1  2  1  0
  2  3  2  0
  3  4  1  0
  4  5  2  0
  5  6  1  0
  6  8  1  0
  8  9  1  0
  9 10  2  0
 10 11  1  0
 11 12  2  0
 12 13  1  0
 12 14  1  0
 14 15  2  0
  6  7  2  0
 18 25  1  0
 25 26  2  0
 25 27  2  0
 25 28  1  0
  7  2  1  0
 15  9  1  0
 21 23  1  0
 22 24  1  0
 28 29  1  0
M  END
> <minimizedAffinity>
-9.44583

> <CNNscore>
0.7914150357

> <CNNaffinity>
6.3194441795

> <CNN_VS>
5.0013031960

> <CNNaffinity_variance>
0.0100982785

$$$$



 29 30  0  0  0  0  0  0  0  0999 V2000
   15.4533   54.6862   36.6266 C   0  0  0  0  0  0  0  0  0  0  0  0
   15.1419   55.5058   37.8540 C   0  0  0  0  0  0  0  0  0  0  0  0
   15.1426   54.9140   39.1249 C   0  0  0  0  0  0  0  0  0  0  0  0
   14.8873   55.6798   40.2643 C   0  0  0  0  0  0  0  0  0  0  0  0
   14.6270   57.0441   40.1444 C   0  0  0  0  0  0  0  0  0  0  0  0
   14.6091   57.6391   38.8837 C   0  0  0  0  0  0  0  0  0  0  0  0
   14.8853   56.8794   37.7421 C   0  0  0  0  0  0  0  0  0  0  0  0
   14.3816   58.9971   38.8387 O   0  0  0  0  0  0  0  0  0  0  0  0
   13.1031   59.4054   38.5371 C   0  0  0  0  0  0  0  0  0  0  0  0
   12.3495   59.9681   39.5686 C   0  0  0  0  0  0  0  0  0  0  0  0
   11.0361   60.3748   39.3266 C   0  0  0  0  0  0  0  0  0  0  0  0
   10.4810   60.1992   38.0591 C   0  0  0  0  0  0  0  0  0  0  0  0
    8.8621   60.6990   37.7612 Cl  0  0  0  0  0  0  0  0  0  0  0  0
   11.2254   59.6147   37.0314 C   0  0  0  0  0  0  0  0  0  0  0  0
   12.5400   59.2106   37.2716 C   0  0  0  0  0  0  0  0  0  0  0  0
   16.9411   54.7559   36.2647 C   0  0  0  0  0  0  0  0  0  0  0  0
   17.5546   53.3547   36.1813 C   0  0  0  0  0  0  0  0  0  0  0  0
   18.3731   52.9149   37.3983 C   0  0  0  0  0  0  0  0  0  0  0  0
   20.5466   52.8052   35.7119 O   0  0  0  0  0  0  0  0  0  0  0  0
   20.0520   52.5082   37.0938 P   0  0  0  0  0  0  0  0  0  0  0  0
   20.9668   53.2799   38.1549 O   0  0  0  0  0  0  0  0  0  0  0  0
   20.3453   50.9836   37.4666 O   0  0  0  0  0  0  0  0  0  0  0  0
   21.8988   53.0629   37.9967 H   0  0  0  0  0  0  0  0  0  0  0  0
   21.2775   50.7813   37.2906 H   0  0  0  0  0  0  0  0  0  0  0  0
   17.7022   51.5505   38.2964 S   0  0  0  0  0  0  0  0  0  0  0  0
   18.6530   50.4696   38.4168 O   0  0  0  0  0  0  0  0  0  0  0  0
   16.3100   51.3158   37.9960 O   0  0  0  0  0  0  0  0  0  0  0  0
   17.7236   52.2329   39.7649 O   0  0  0  0  0  0  0  0  0  0  0  0
   18.6406   52.4155   40.0232 H   0  0  0  0  0  0  0  0  0  0  0  0
 19 20  2  0
 20 21  1  0
 20 22  1  0
 20 18  1  0
 18 17  1  0
 17 16  1  0
 16  1  1  0
  1  2  1  0
  2  3  2  0
  3  4  1  0
  4  5  2  0
  5  6  1  0
  6  8  1  0
  8  9  1  0
  9 10  2  0
 10 11  1  0
 11 12  2  0
 12 13  1  0
 12 14  1  0
 14 15  2  0
  6  7  2  0
 18 25  1  0
 25 26  2  0
 25 27  2  0
 25 28  1  0
  7  2  1  0
 15  9  1  0
 21 23  1  0
 22 24  1  0
 28 29  1  0
M  END
> <minimizedAffinity>
-9.61660

> <CNNscore>
0.7375777960

> <CNNaffinity>
6.2081909180

> <CNN_VS>
4.5790238380

> <CNNaffinity_variance>
0.0893450752

$$$$



 29 30  0  0  0  0  0  0  0  0999 V2000
   17.4643   53.0051   35.8468 C   0  0  0  0  0  0  0  0  0  0  0  0
   17.5293   54.4936   36.0823 C   0  0  0  0  0  0  0  0  0  0  0  0
   18.7022   55.2087   35.8021 C   0  0  0  0  0  0  0  0  0  0  0  0
   18.7515   56.5917   35.9884 C   0  0  0  0  0  0  0  0  0  0  0  0
   17.6297   57.2732   36.4583 C   0  0  0  0  0  0  0  0  0  0  0  0
   16.4633   56.5690   36.7541 C   0  0  0  0  0  0  0  0  0  0  0  0
   16.4035   55.1867   36.5487 C   0  0  0  0  0  0  0  0  0  0  0  0
   15.3808   57.3072   37.1796 O   0  0  0  0  0  0  0  0  0  0  0  0
   14.9865   57.1392   38.4866 C   0  0  0  0  0  0  0  0  0  0  0  0
   14.3797   58.2261   39.1183 C   0  0  0  0  0  0  0  0  0  0  0  0
   13.9845   58.1213   40.4531 C   0  0  0  0  0  0  0  0  0  0  0  0
   14.2153   56.9359   41.1509 C   0  0  0  0  0  0  0  0  0  0  0  0
   13.7296   56.8072   42.7962 Cl  0  0  0  0  0  0  0  0  0  0  0  0
   14.8437   55.8547   40.5279 C   0  0  0  0  0  0  0  0  0  0  0  0
   15.2364   55.9575   39.1921 C   0  0  0  0  0  0  0  0  0  0  0  0
   18.7013   52.2917   36.4038 C   0  0  0  0  0  0  0  0  0  0  0  0
   19.7360   52.0410   35.3025 C   0  0  0  0  0  0  0  0  0  0  0  0
   20.7092   50.8865   35.5561 C   0  0  0  0  0  0  0  0  0  0  0  0
   21.6352   51.9629   37.9150 O   0  0  0  0  0  0  0  0  0  0  0  0
   22.0184   51.2121   36.6772 P   0  0  0  0  0  0  0  0  0  0  0  0
   22.6931   49.8232   37.0945 O   0  0  0  0  0  0  0  0  0  0  0  0
   23.2290   51.9480   35.9408 O   0  0  0  0  0  0  0  0  0  0  0  0
   23.4195   49.9902   37.7152 H   0  0  0  0  0  0  0  0  0  0  0  0
   23.9400   52.1178   36.5784 H   0  0  0  0  0  0  0  0  0  0  0  0
   21.4692   50.2184   34.1089 S   0  0  0  0  0  0  0  0  0  0  0  0
   22.4398   49.1996   34.4359 O   0  0  0  0  0  0  0  0  0  0  0  0
   21.7195   51.2183   33.0985 O   0  0  0  0  0  0  0  0  0  0  0  0
   20.1985   49.3673   33.5765 O   0  0  0  0  0  0  0  0  0  0  0  0
   19.9813   48.6742   34.2193 H   0  0  0  0  0  0  0  0  0  0  0  0
 19 20  2  0
 20 21  1  0
 20 22  1  0
 20 18  1  0
 18 17  1  0
 17 16  1  0
 16  1  1  0
  1  2  1  0
  2  3  2  0
  3  4  1  0
  4  5  2  0
  5  6  1  0
  6  8  1  0
  8  9  1  0
  9 10  2  0
 10 11  1  0
 11 12  2  0
 12 13  1  0
 12 14  1  0
 14 15  2  0
  6  7  2  0
 18 25  1  0
 25 26  2  0
 25 27  2  0
 25 28  1  0
  7  2  1  0
 15  9  1  0
 21 23  1  0
 22 24  1  0
 28 29  1  0
M  END
> <minimizedAffinity>
-9.71664

> <CNNscore>
0.7320945859

> <CNNaffinity>
6.3560643196

> <CNN_VS>
4.6532402039

> <CNNaffinity_variance>
0.0171355810

$$$$



 29 30  0  0  0  0  0  0  0  0999 V2000
   15.4314   54.2665   38.6430 C   0  0  0  0  0  0  0  0  0  0  0  0
   15.0012   55.4788   39.4308 C   0  0  0  0  0  0  0  0  0  0  0  0
   14.8099   55.3964   40.8172 C   0  0  0  0  0  0  0  0  0  0  0  0
   14.4443   56.5265   41.5514 C   0  0  0  0  0  0  0  0  0  0  0  0
   14.2646   57.7495   40.9068 C   0  0  0  0  0  0  0  0  0  0  0  0
   14.4377   57.8385   39.5263 C   0  0  0  0  0  0  0  0  0  0  0  0
   14.8245   56.7134   38.7907 C   0  0  0  0  0  0  0  0  0  0  0  0
   14.2804   59.0833   38.9575 O   0  0  0  0  0  0  0  0  0  0  0  0
   12.9923   59.4972   38.7093 C   0  0  0  0  0  0  0  0  0  0  0  0
   12.4497   59.1910   37.4602 C   0  0  0  0  0  0  0  0  0  0  0  0
   11.1564   59.6105   37.1434 C   0  0  0  0  0  0  0  0  0  0  0  0
   10.4224   60.3481   38.0722 C   0  0  0  0  0  0  0  0  0  0  0  0
    8.8292   60.8662   37.6814 Cl  0  0  0  0  0  0  0  0  0  0  0  0
   10.9720   60.6759   39.3141 C   0  0  0  0  0  0  0  0  0  0  0  0
   12.2641   60.2543   39.6330 C   0  0  0  0  0  0  0  0  0  0  0  0
   16.6268   53.5644   39.2966 C   0  0  0  0  0  0  0  0  0  0  0  0
   16.4234   52.0465   39.3314 C   0  0  0  0  0  0  0  0  0  0  0  0
   17.4086   51.2253   38.4950 C   0  0  0  0  0  0  0  0  0  0  0  0
   19.4038   53.0914   38.8371 O   0  0  0  0  0  0  0  0  0  0  0  0
   18.8172   52.0834   37.8979 P   0  0  0  0  0  0  0  0  0  0  0  0
   19.9411   51.0143   37.5077 O   0  0  0  0  0  0  0  0  0  0  0  0
   18.5144   52.7605   36.4840 O   0  0  0  0  0  0  0  0  0  0  0  0
   20.7262   51.4771   37.1757 H   0  0  0  0  0  0  0  0  0  0  0  0
   19.3054   53.2285   36.1736 H   0  0  0  0  0  0  0  0  0  0  0  0
   16.7049   50.4184   37.0908 S   0  0  0  0  0  0  0  0  0  0  0  0
   15.7797   49.3789   37.4788 O   0  0  0  0  0  0  0  0  0  0  0  0
   17.6535   50.2377   36.0181 O   0  0  0  0  0  0  0  0  0  0  0  0
   15.7343   51.6254   36.6176 O   0  0  0  0  0  0  0  0  0  0  0  0
   15.0700   51.7941   37.3039 H   0  0  0  0  0  0  0  0  0  0  0  0
 19 20  2  0
 20 21  1  0
 20 22  1  0
 20 18  1  0
 18 17  1  0
 17 16  1  0
 16  1  1  0
  1  2  1  0
  2  3  2  0
  3  4  1  0
  4  5  2  0
  5  6  1  0
  6  8  1  0
  8  9  1  0
  9 10  2  0
 10 11  1  0
 11 12  2  0
 12 13  1  0
 12 14  1  0
 14 15  2  0
  6  7  2  0
 18 25  1  0
 25 26  2  0
 25 27  2  0
 25 28  1  0
  7  2  1  0
 15  9  1  0
 21 23  1  0
 22 24  1  0
 28 29  1  0
M  END
> <minimizedAffinity>
-9.67196

> <CNNscore>
0.7260173559

> <CNNaffinity>
6.1952538490

> <CNN_VS>
4.4978618622

> <CNNaffinity_variance>
0.0721209273

$$$$



 29 30  0  0  0  0  0  0  0  0999 V2000
   17.2110   56.5763   35.4487 C   0  0  0  0  0  0  0  0  0  0  0  0
   16.1109   56.5257   36.4796 C   0  0  0  0  0  0  0  0  0  0  0  0
   16.3617   56.0255   37.7651 C   0  0  0  0  0  0  0  0  0  0  0  0
   15.3520   56.0097   38.7295 C   0  0  0  0  0  0  0  0  0  0  0  0
   14.0816   56.4920   38.4181 C   0  0  0  0  0  0  0  0  0  0  0  0
   13.8181   56.9775   37.1381 C   0  0  0  0  0  0  0  0  0  0  0  0
   14.8327   57.0144   36.1758 C   0  0  0  0  0  0  0  0  0  0  0  0
   12.5533   57.4724   36.9075 O   0  0  0  0  0  0  0  0  0  0  0  0
   12.1891   58.6015   37.6035 C   0  0  0  0  0  0  0  0  0  0  0  0
   13.1691   59.2186   38.3828 C   0  0  0  0  0  0  0  0  0  0  0  0
   12.8483   60.3519   39.1323 C   0  0  0  0  0  0  0  0  0  0  0  0
   11.5452   60.8487   39.1101 C   0  0  0  0  0  0  0  0  0  0  0  0
   11.1495   62.2443   40.0348 Cl  0  0  0  0  0  0  0  0  0  0  0  0
   10.5569   60.2191   38.3494 C   0  0  0  0  0  0  0  0  0  0  0  0
   10.8774   59.0875   37.5971 C   0  0  0  0  0  0  0  0  0  0  0  0
   18.4451   55.7882   35.9020 C   0  0  0  0  0  0  0  0  0  0  0  0
   18.1734   54.2808   35.8855 C   0  0  0  0  0  0  0  0  0  0  0  0
   19.2756   53.4009   36.4817 C   0  0  0  0  0  0  0  0  0  0  0  0
   17.4975   51.3241   36.8062 O   0  0  0  0  0  0  0  0  0  0  0  0
   18.9314   51.6830   36.5662 P   0  0  0  0  0  0  0  0  0  0  0  0
   19.4241   50.9943   35.2093 O   0  0  0  0  0  0  0  0  0  0  0  0
   19.8651   50.9676   37.6460 O   0  0  0  0  0  0  0  0  0  0  0  0
   19.2389   50.0428   35.2439 H   0  0  0  0  0  0  0  0  0  0  0  0
   19.6579   50.0205   37.6758 H   0  0  0  0  0  0  0  0  0  0  0  0
   19.8092   53.8656   38.0995 S   0  0  0  0  0  0  0  0  0  0  0  0
   19.1286   53.1095   39.1253 O   0  0  0  0  0  0  0  0  0  0  0  0
   20.0444   55.2844   38.2230 O   0  0  0  0  0  0  0  0  0  0  0  0
   21.2764   53.1825   38.0427 O   0  0  0  0  0  0  0  0  0  0  0  0
   21.1823   52.2207   37.9591 H   0  0  0  0  0  0  0  0  0  0  0  0
 19 20  2  0
 20 21  1  0
 20 22  1  0
 20 18  1  0
 18 17  1  0
 17 16  1  0
 16  1  1  0
  1  2  1  0
  2  3  2  0
  3  4  1  0
  4  5  2  0
  5  6  1  0
  6  8  1  0
  8  9  1  0
  9 10  2  0
 10 11  1  0
 11 12  2  0
 12 13  1  0
 12 14  1  0
 14 15  2  0
  6  7  2  0
 18 25  1  0
 25 26  2  0
 25 27  2  0
 25 28  1  0
  7  2  1  0
 15  9  1  0
 21 23  1  0
 22 24  1  0
 28 29  1  0
M  END
> <minimizedAffinity>
-9.24995

> <CNNscore>
0.7041420341

> <CNNaffinity>
6.3261532784

> <CNN_VS>
4.4545102119

> <CNNaffinity_variance>
0.0358783007

$$$$



 29 30  0  0  0  0  0  0  0  0999 V2000
   15.6335   53.7727   36.7956 C   0  0  0  0  0  0  0  0  0  0  0  0
   15.2042   54.5852   37.9918 C   0  0  0  0  0  0  0  0  0  0  0  0
   14.8611   53.9541   39.1957 C   0  0  0  0  0  0  0  0  0  0  0  0
   14.4961   54.7079   40.3130 C   0  0  0  0  0  0  0  0  0  0  0  0
   14.4686   56.0997   40.2373 C   0  0  0  0  0  0  0  0  0  0  0  0
   14.7935   56.7362   39.0402 C   0  0  0  0  0  0  0  0  0  0  0  0
   15.1801   55.9852   37.9252 C   0  0  0  0  0  0  0  0  0  0  0  0
   14.7816   58.1138   39.0438 O   0  0  0  0  0  0  0  0  0  0  0  0
   13.5771   58.7276   38.7903 C   0  0  0  0  0  0  0  0  0  0  0  0
   12.6792   58.0586   37.9568 C   0  0  0  0  0  0  0  0  0  0  0  0
   11.4528   58.6472   37.6428 C   0  0  0  0  0  0  0  0  0  0  0  0
   11.1416   59.9083   38.1510 C   0  0  0  0  0  0  0  0  0  0  0  0
    9.6310   60.6342   37.7631 Cl  0  0  0  0  0  0  0  0  0  0  0  0
   12.0483   60.5901   38.9665 C   0  0  0  0  0  0  0  0  0  0  0  0
   13.2736   60.0009   39.2835 C   0  0  0  0  0  0  0  0  0  0  0  0
   17.0163   54.1998   36.2908 C   0  0  0  0  0  0  0  0  0  0  0  0
   17.7984   53.0011   35.7448 C   0  0  0  0  0  0  0  0  0  0  0  0
   19.2834   52.9529   36.1151 C   0  0  0  0  0  0  0  0  0  0  0  0
   19.4660   50.4021   35.0950 O   0  0  0  0  0  0  0  0  0  0  0  0
   20.2203   51.6633   35.3831 P   0  0  0  0  0  0  0  0  0  0  0  0
   20.8687   52.2077   34.0261 O   0  0  0  0  0  0  0  0  0  0  0  0
   21.5202   51.3398   36.2521 O   0  0  0  0  0  0  0  0  0  0  0  0
   21.3901   51.5028   33.6112 H   0  0  0  0  0  0  0  0  0  0  0  0
   22.0221   50.6254   35.8296 H   0  0  0  0  0  0  0  0  0  0  0  0
   19.6191   52.8693   37.8467 S   0  0  0  0  0  0  0  0  0  0  0  0
   18.5176   53.3784   38.6306 O   0  0  0  0  0  0  0  0  0  0  0  0
   20.9926   53.1796   38.1640 O   0  0  0  0  0  0  0  0  0  0  0  0
   19.4844   51.2638   38.0110 O   0  0  0  0  0  0  0  0  0  0  0  0
   18.5751   50.9932   37.8090 H   0  0  0  0  0  0  0  0  0  0  0  0
 19 20  2  0
 20 21  1  0
 20 22  1  0
 20 18  1  0
 18 17  1  0
 17 16  1  0
 16  1  1  0
  1  2  1  0
  2  3  2  0
  3  4  1  0
  4  5  2  0
  5  6  1  0
  6  8  1  0
  8  9  1  0
  9 10  2  0
 10 11  1  0
 11 12  2  0
 12 13  1  0
 12 14  1  0
 14 15  2  0
  6  7  2  0
 18 25  1  0
 25 26  2  0
 25 27  2  0
 25 28  1  0
  7  2  1  0
 15  9  1  0
 21 23  1  0
 22 24  1  0
 28 29  1  0
M  END
> <minimizedAffinity>
-8.95143

> <CNNscore>
0.6938046217

> <CNNaffinity>
6.4229340553

> <CNN_VS>
4.4562611580

> <CNNaffinity_variance>
0.0008111789

$$$$



 29 30  0  0  0  0  0  0  0  0999 V2000
   17.1808   50.5489   36.0796 C   0  0  0  0  0  0  0  0  0  0  0  0
   17.1914   51.0093   37.5160 C   0  0  0  0  0  0  0  0  0  0  0  0
   17.1549   50.0776   38.5631 C   0  0  0  0  0  0  0  0  0  0  0  0
   17.1986   50.5024   39.8925 C   0  0  0  0  0  0  0  0  0  0  0  0
   17.2771   51.8625   40.1885 C   0  0  0  0  0  0  0  0  0  0  0  0
   17.2987   52.7976   39.1547 C   0  0  0  0  0  0  0  0  0  0  0  0
   17.2765   52.3747   37.8215 C   0  0  0  0  0  0  0  0  0  0  0  0
   17.4137   54.1223   39.5150 O   0  0  0  0  0  0  0  0  0  0  0  0
   16.7230   55.0374   38.7551 C   0  0  0  0  0  0  0  0  0  0  0  0
   15.4586   55.4209   39.2053 C   0  0  0  0  0  0  0  0  0  0  0  0
   14.7011   56.3257   38.4593 C   0  0  0  0  0  0  0  0  0  0  0  0
   15.2071   56.8264   37.2598 C   0  0  0  0  0  0  0  0  0  0  0  0
   14.2731   57.9402   36.3398 Cl  0  0  0  0  0  0  0  0  0  0  0  0
   16.4624   56.4260   36.7953 C   0  0  0  0  0  0  0  0  0  0  0  0
   17.2220   55.5236   37.5421 C   0  0  0  0  0  0  0  0  0  0  0  0
   18.4582   50.9685   35.3437 C   0  0  0  0  0  0  0  0  0  0  0  0
   19.5458   51.4034   36.3310 C   0  0  0  0  0  0  0  0  0  0  0  0
   20.8902   50.6829   36.1975 C   0  0  0  0  0  0  0  0  0  0  0  0
   23.0300   50.5009   37.9204 O   0  0  0  0  0  0  0  0  0  0  0  0
   22.2465   51.4176   37.0327 P   0  0  0  0  0  0  0  0  0  0  0  0
   23.2286   52.0619   35.9471 O   0  0  0  0  0  0  0  0  0  0  0  0
   21.7808   52.7082   37.8495 O   0  0  0  0  0  0  0  0  0  0  0  0
   23.9837   52.4720   36.3972 H   0  0  0  0  0  0  0  0  0  0  0  0
   22.5452   53.0974   38.3024 H   0  0  0  0  0  0  0  0  0  0  0  0
   21.4332   50.4160   34.5386 S   0  0  0  0  0  0  0  0  0  0  0  0
   22.5613   49.5152   34.4830 O   0  0  0  0  0  0  0  0  0  0  0  0
   21.3670   51.6107   33.7312 O   0  0  0  0  0  0  0  0  0  0  0  0
   20.1932   49.4929   34.0560 O   0  0  0  0  0  0  0  0  0  0  0  0
   20.1856   48.6686   34.5673 H   0  0  0  0  0  0  0  0  0  0  0  0
 19 20  2  0
 20 21  1  0
 20 22  1  0
 20 18  1  0
 18 17  1  0
 17 16  1  0
 16  1  1  0
  1  2  1  0
  2  3  2  0
  3  4  1  0
  4  5  2  0
  5  6  1  0
  6  8  1  0
  8  9  1  0
  9 10  2  0
 10 11  1  0
 11 12  2  0
 12 13  1  0
 12 14  1  0
 14 15  2  0
  6  7  2  0
 18 25  1  0
 25 26  2  0
 25 27  2  0
 25 28  1  0
  7  2  1  0
 15  9  1  0
 21 23  1  0
 22 24  1  0
 28 29  1  0
M  END
> <minimizedAffinity>
-8.00906

> <CNNscore>
0.6727454066

> <CNNaffinity>
6.4641108513

> <CNN_VS>
4.3487010002

> <CNNaffinity_variance>
0.2364788055

$$$$



 29 30  0  0  0  0  0  0  0  0999 V2000
   17.7448   53.0113   36.2299 C   0  0  0  0  0  0  0  0  0  0  0  0
   17.6694   54.5165   36.2937 C   0  0  0  0  0  0  0  0  0  0  0  0
   18.7632   55.3017   35.9033 C   0  0  0  0  0  0  0  0  0  0  0  0
   18.6816   56.6954   35.9306 C   0  0  0  0  0  0  0  0  0  0  0  0
   17.5068   57.3178   36.3501 C   0  0  0  0  0  0  0  0  0  0  0  0
   16.4187   56.5458   36.7547 C   0  0  0  0  0  0  0  0  0  0  0  0
   16.4895   55.1495   36.7086 C   0  0  0  0  0  0  0  0  0  0  0  0
   15.2768   57.2228   37.1227 O   0  0  0  0  0  0  0  0  0  0  0  0
   14.9184   57.1659   38.4494 C   0  0  0  0  0  0  0  0  0  0  0  0
   15.0707   55.9419   39.1030 C   0  0  0  0  0  0  0  0  0  0  0  0
   14.6969   55.8188   40.4424 C   0  0  0  0  0  0  0  0  0  0  0  0
   14.1572   56.9165   41.1127 C   0  0  0  0  0  0  0  0  0  0  0  0
   13.6952   56.7645   42.7628 Cl  0  0  0  0  0  0  0  0  0  0  0  0
   13.9819   58.1361   40.4541 C   0  0  0  0  0  0  0  0  0  0  0  0
   14.3583   58.2610   39.1155 C   0  0  0  0  0  0  0  0  0  0  0  0
   19.0338   52.4837   36.8697 C   0  0  0  0  0  0  0  0  0  0  0  0
   19.6231   51.3299   36.0523 C   0  0  0  0  0  0  0  0  0  0  0  0
   21.0315   51.5606   35.4978 C   0  0  0  0  0  0  0  0  0  0  0  0
   20.6067   50.7899   32.8890 O   0  0  0  0  0  0  0  0  0  0  0  0
   21.4751   50.6055   34.0949 P   0  0  0  0  0  0  0  0  0  0  0  0
   22.9901   50.9397   33.7058 O   0  0  0  0  0  0  0  0  0  0  0  0
   21.5745   49.0565   34.4689 O   0  0  0  0  0  0  0  0  0  0  0  0
   23.2476   50.4170   32.9303 H   0  0  0  0  0  0  0  0  0  0  0  0
   21.8204   48.5485   33.6800 H   0  0  0  0  0  0  0  0  0  0  0  0
   22.3389   51.3397   36.6640 S   0  0  0  0  0  0  0  0  0  0  0  0
   23.2137   52.4885   36.7111 O   0  0  0  0  0  0  0  0  0  0  0  0
   22.8473   49.9890   36.6825 O   0  0  0  0  0  0  0  0  0  0  0  0
   21.4502   51.4909   38.0093 O   0  0  0  0  0  0  0  0  0  0  0  0
   21.0789   52.3860   38.0527 H   0  0  0  0  0  0  0  0  0  0  0  0
 19 20  2  0
 20 21  1  0
 20 22  1  0
 20 18  1  0
 18 17  1  0
 17 16  1  0
 16  1  1  0
  1  2  1  0
  2  3  2  0
  3  4  1  0
  4  5  2  0
  5  6  1  0
  6  8  1  0
  8  9  1  0
  9 10  2  0
 10 11  1  0
 11 12  2  0
 12 13  1  0
 12 14  1  0
 14 15  2  0
  6  7  2  0
 18 25  1  0
 25 26  2  0
 25 27  2  0
 25 28  1  0
  7  2  1  0
 15  9  1  0
 21 23  1  0
 22 24  1  0
 28 29  1  0
M  END
> <minimizedAffinity>
-9.45611

> <CNNscore>
0.6708976030

> <CNNaffinity>
6.3621926308

> <CNN_VS>
4.2683796883

> <CNNaffinity_variance>
0.0278742984

$$$$



 29 30  0  0  0  0  0  0  0  0999 V2000
   15.6502   54.7749   38.8894 C   0  0  0  0  0  0  0  0  0  0  0  0
   15.0706   55.9482   39.6397 C   0  0  0  0  0  0  0  0  0  0  0  0
   14.7808   55.8462   41.0076 C   0  0  0  0  0  0  0  0  0  0  0  0
   14.2756   56.9426   41.7094 C   0  0  0  0  0  0  0  0  0  0  0  0
   14.0534   58.1510   41.0505 C   0  0  0  0  0  0  0  0  0  0  0  0
   14.3242   58.2581   39.6871 C   0  0  0  0  0  0  0  0  0  0  0  0
   14.8502   57.1682   38.9855 C   0  0  0  0  0  0  0  0  0  0  0  0
   14.1169   59.4896   39.1055 O   0  0  0  0  0  0  0  0  0  0  0  0
   12.8128   59.8517   38.8604 C   0  0  0  0  0  0  0  0  0  0  0  0
   12.1984   59.3104   37.7299 C   0  0  0  0  0  0  0  0  0  0  0  0
   10.8848   59.6647   37.4169 C   0  0  0  0  0  0  0  0  0  0  0  0
   10.2021   60.5715   38.2275 C   0  0  0  0  0  0  0  0  0  0  0  0
    8.5839   61.0093   37.8410 Cl  0  0  0  0  0  0  0  0  0  0  0  0
   10.8228   61.1327   39.3463 C   0  0  0  0  0  0  0  0  0  0  0  0
   12.1353   60.7765   39.6619 C   0  0  0  0  0  0  0  0  0  0  0  0
   15.5170   53.4735   39.6881 C   0  0  0  0  0  0  0  0  0  0  0  0
   15.1993   52.2914   38.7672 C   0  0  0  0  0  0  0  0  0  0  0  0
   16.4058   51.6318   38.0934 C   0  0  0  0  0  0  0  0  0  0  0  0
   16.9751   50.1785   35.8253 O   0  0  0  0  0  0  0  0  0  0  0  0
   16.0505   50.3104   36.9959 P   0  0  0  0  0  0  0  0  0  0  0  0
   16.0544   48.9417   37.8237 O   0  0  0  0  0  0  0  0  0  0  0  0
   14.5359   50.3776   36.4950 O   0  0  0  0  0  0  0  0  0  0  0  0
   15.8589   48.2024   37.2269 H   0  0  0  0  0  0  0  0  0  0  0  0
   14.3621   49.6391   35.8906 H   0  0  0  0  0  0  0  0  0  0  0  0
   17.6381   51.0205   39.2006 S   0  0  0  0  0  0  0  0  0  0  0  0
   18.7334   50.3997   38.4922 O   0  0  0  0  0  0  0  0  0  0  0  0
   17.0750   50.4430   40.3976 O   0  0  0  0  0  0  0  0  0  0  0  0
   18.2471   52.4521   39.6505 O   0  0  0  0  0  0  0  0  0  0  0  0
   18.6427   52.8912   38.8813 H   0  0  0  0  0  0  0  0  0  0  0  0
 19 20  2  0
 20 21  1  0
 20 22  1  0
 20 18  1  0
 18 17  1  0
 17 16  1  0
 16  1  1  0
  1  2  1  0
  2  3  2  0
  3  4  1  0
  4  5  2  0
  5  6  1  0
  6  8  1  0
  8  9  1  0
  9 10  2  0
 10 11  1  0
 11 12  2  0
 12 13  1  0
 12 14  1  0
 14 15  2  0
  6  7  2  0
 18 25  1  0
 25 26  2  0
 25 27  2  0
 25 28  1  0
  7  2  1  0
 15  9  1  0
 21 23  1  0
 22 24  1  0
 28 29  1  0
M  END
> <minimizedAffinity>
-9.56524

> <CNNscore>
0.6671230197

> <CNNaffinity>
6.2624320984

> <CNN_VS>
4.1778125763

> <CNNaffinity_variance>
0.0385039933

$$$$
