


 30 34  0  0  0  0  0  0  0  0999 V2000
    7.5592   52.2568    1.4624 C   0  0  0  0  0  0  0  0  0  0  0  0
    6.8759   51.2680    1.1982 O   0  0  0  0  0  0  0  0  0  0  0  0
    7.0044   53.5505    1.4344 N   0  0  0  0  0  0  0  0  0  0  0  0
    5.5777   53.6092    1.1153 C   0  0  0  0  0  0  0  0  0  0  0  0
    4.9478   54.9506    1.4629 C   0  0  0  0  0  0  0  0  0  0  0  0
    5.7440   56.0712    0.7869 C   0  0  0  0  0  0  0  0  0  0  0  0
    7.1851   56.0564    1.3076 C   0  0  0  0  0  0  0  0  0  0  0  0
    7.8379   54.6987    1.0643 C   0  0  0  0  0  0  0  0  0  0  0  0
    5.1091   57.3707    0.9306 N   0  0  0  0  0  0  0  0  0  0  0  0
    3.8711   57.5507    1.5173 C   0  0  0  0  0  0  0  0  0  0  0  0
    3.5168   58.8178    1.5650 N   0  0  0  0  0  0  0  0  0  0  0  0
    4.5514   59.4974    0.9740 C   0  0  0  0  0  0  0  0  0  0  0  0
    4.7470   60.8702    0.7303 C   0  0  0  0  0  0  0  0  0  0  0  0
    5.8640   61.3621    0.1114 N   0  0  0  0  0  0  0  0  0  0  0  0
    6.7638   60.4325   -0.2517 C   0  0  0  0  0  0  0  0  0  0  0  0
    7.9504   60.6470   -0.8906 N   0  0  0  0  0  0  0  0  0  0  0  0
    8.5661   59.4399   -1.0892 C   0  0  0  0  0  0  0  0  0  0  0  0
    9.7487   59.2733   -1.6932 F   0  0  0  0  0  0  0  0  0  0  0  0
    7.7889   58.4208   -0.5801 C   0  0  0  0  0  0  0  0  0  0  0  0
    6.6486   59.0713   -0.0502 C   0  0  0  0  0  0  0  0  0  0  0  0
    5.5316   58.6010    0.5741 C   0  0  0  0  0  0  0  0  0  0  0  0
    8.3050   61.5239   -1.1636 H   0  0  0  0  0  0  0  0  0  0  0  0
    9.6116   50.7448    1.8249 N   0  0  0  0  0  0  0  0  0  0  0  0
   11.0746   50.9429    1.7487 C   0  0  0  0  0  0  0  0  0  0  0  0
   11.3299   52.2510    1.0029 C   0  0  0  0  0  0  0  0  0  0  0  0
    9.9615   52.8611    0.7700 C   0  0  0  0  0  0  0  0  0  0  0  0
    9.0619   52.1246    1.7514 C   0  0  0  0  0  0  0  0  0  0  0  0
    9.2286   48.2447    1.3165 C   0  0  0  0  0  0  0  0  0  0  0  0
    9.1667   49.7089    0.8657 C   0  0  0  0  0  0  0  0  0  0  0  0
    9.8210   49.8489   -0.5135 C   0  0  0  0  0  0  0  0  0  0  0  0
 28 29  1  0
 29 30  1  0
 29 23  1  0
 23 24  1  0
 24 25  1  0
 25 26  1  0
 26 27  1  0
 27  1  1  0
  1  2  2  0
  1  3  1  0
  3  4  1  0
  4  5  1  0
  5  6  1  0
  6  9  1  0
  9 10  1  0
 10 11  2  0
 11 12  1  0
 12 13  2  0
 13 14  1  0
 14 15  2  0
 15 16  1  0
 16 17  1  0
 17 18  1  0
 17 19  2  0
 19 20  1  0
 20 21  2  0
  6  7  1  0
  7  8  1  0
 27 23  1  0
  8  3  1  0
 21  9  1  0
 21 12  1  0
 20 15  1  0
 16 22  1  0
M  END
> <minimizedAffinity>
-10.23491

> <CNNscore>
0.8889769912

> <CNNaffinity>
7.6438560486

> <CNN_VS>
6.7952122688

> <CNNaffinity_variance>
0.0597667806

$$$$



 30 34  0  0  0  0  0  0  0  0999 V2000
    9.7997   52.9232    1.0363 C   0  0  0  0  0  0  0  0  0  0  0  0
   10.9634   53.1347    1.3764 O   0  0  0  0  0  0  0  0  0  0  0  0
    8.8530   53.9648    1.0031 N   0  0  0  0  0  0  0  0  0  0  0  0
    9.3698   55.2872    1.3564 C   0  0  0  0  0  0  0  0  0  0  0  0
    8.4351   56.4169    0.9475 C   0  0  0  0  0  0  0  0  0  0  0  0
    7.0444   56.1574    1.5349 C   0  0  0  0  0  0  0  0  0  0  0  0
    6.4947   54.8401    0.9776 C   0  0  0  0  0  0  0  0  0  0  0  0
    7.4415   53.6828    1.2827 C   0  0  0  0  0  0  0  0  0  0  0  0
    6.1366   57.2743    1.3322 N   0  0  0  0  0  0  0  0  0  0  0  0
    4.8699   57.3330    1.8811 C   0  0  0  0  0  0  0  0  0  0  0  0
    4.2461   58.4545    1.5871 N   0  0  0  0  0  0  0  0  0  0  0  0
    5.1269   59.1546    0.8026 C   0  0  0  0  0  0  0  0  0  0  0  0
    5.0262   60.4153    0.1840 C   0  0  0  0  0  0  0  0  0  0  0  0
    6.0293   60.9502   -0.5780 N   0  0  0  0  0  0  0  0  0  0  0  0
    7.1222   60.1773   -0.6956 C   0  0  0  0  0  0  0  0  0  0  0  0
    8.2544   60.4621   -1.4021 N   0  0  0  0  0  0  0  0  0  0  0  0
    9.1252   59.4126   -1.2771 C   0  0  0  0  0  0  0  0  0  0  0  0
   10.3355   59.3494   -1.8447 F   0  0  0  0  0  0  0  0  0  0  0  0
    8.5723   58.4285   -0.4847 C   0  0  0  0  0  0  0  0  0  0  0  0
    7.3002   58.9334   -0.1230 C   0  0  0  0  0  0  0  0  0  0  0  0
    6.2921   58.4203    0.6381 C   0  0  0  0  0  0  0  0  0  0  0  0
    8.4180   61.2855   -1.9164 H   0  0  0  0  0  0  0  0  0  0  0  0
    9.7345   50.9300   -0.5924 N   0  0  0  0  0  0  0  0  0  0  0  0
    9.4412   49.4873   -0.4578 C   0  0  0  0  0  0  0  0  0  0  0  0
    9.4963   49.1368    1.0276 C   0  0  0  0  0  0  0  0  0  0  0  0
    9.7014   50.4540    1.7499 C   0  0  0  0  0  0  0  0  0  0  0  0
    9.3163   51.5012    0.7154 C   0  0  0  0  0  0  0  0  0  0  0  0
   11.3173   52.2441   -2.1491 C   0  0  0  0  0  0  0  0  0  0  0  0
   11.1082   51.1462   -1.0996 C   0  0  0  0  0  0  0  0  0  0  0  0
   11.7840   49.8527   -1.5689 C   0  0  0  0  0  0  0  0  0  0  0  0
 28 29  1  0
 29 30  1  0
 29 23  1  0
 23 24  1  0
 24 25  1  0
 25 26  1  0
 26 27  1  0
 27  1  1  0
  1  2  2  0
  1  3  1  0
  3  4  1  0
  4  5  1  0
  5  6  1  0
  6  9  1  0
  9 10  1  0
 10 11  2  0
 11 12  1  0
 12 13  2  0
 13 14  1  0
 14 15  2  0
 15 16  1  0
 16 17  1  0
 17 18  1  0
 17 19  2  0
 19 20  1  0
 20 21  2  0
  6  7  1  0
  7  8  1  0
 27 23  1  0
  8  3  1  0
 21  9  1  0
 21 12  1  0
 20 15  1  0
 16 22  1  0
M  END
> <minimizedAffinity>
-8.68197

> <CNNscore>
0.6857243180

> <CNNaffinity>
7.2217121124

> <CNN_VS>
4.9521036148

> <CNNaffinity_variance>
0.0478794612

$$$$



 30 34  0  0  0  0  0  0  0  0999 V2000
    9.3017   52.2809    1.2929 C   0  0  0  0  0  0  0  0  0  0  0  0
    8.7245   51.2268    1.0280 O   0  0  0  0  0  0  0  0  0  0  0  0
    8.6101   53.5073    1.2898 N   0  0  0  0  0  0  0  0  0  0  0  0
    7.1799   53.4147    0.9953 C   0  0  0  0  0  0  0  0  0  0  0  0
    6.4153   54.6764    1.3697 C   0  0  0  0  0  0  0  0  0  0  0  0
    7.0736   55.8834    0.6942 C   0  0  0  0  0  0  0  0  0  0  0  0
    8.5171   56.0192    1.1906 C   0  0  0  0  0  0  0  0  0  0  0  0
    9.3081   54.7426    0.9199 C   0  0  0  0  0  0  0  0  0  0  0  0
    6.3049   57.1051    0.8643 N   0  0  0  0  0  0  0  0  0  0  0  0
    5.1259   57.1671    1.5823 C   0  0  0  0  0  0  0  0  0  0  0  0
    4.6274   58.3848    1.6260 N   0  0  0  0  0  0  0  0  0  0  0  0
    5.5006   59.1515    0.8971 C   0  0  0  0  0  0  0  0  0  0  0  0
    5.4998   60.5244    0.5850 C   0  0  0  0  0  0  0  0  0  0  0  0
    6.4741   61.1132   -0.1745 N   0  0  0  0  0  0  0  0  0  0  0  0
    7.4352   60.2788   -0.6056 C   0  0  0  0  0  0  0  0  0  0  0  0
    8.5097   60.5996   -1.3832 N   0  0  0  0  0  0  0  0  0  0  0  0
    9.2423   59.4647   -1.6088 C   0  0  0  0  0  0  0  0  0  0  0  0
   10.3631   59.4086   -2.3380 F   0  0  0  0  0  0  0  0  0  0  0  0
    8.6553   58.3874   -0.9789 C   0  0  0  0  0  0  0  0  0  0  0  0
    7.5093   58.9248   -0.3450 C   0  0  0  0  0  0  0  0  0  0  0  0
    6.5329   58.3577    0.4191 C   0  0  0  0  0  0  0  0  0  0  0  0
    8.7229   61.4978   -1.7253 H   0  0  0  0  0  0  0  0  0  0  0  0
   11.6482   51.3560    0.7750 N   0  0  0  0  0  0  0  0  0  0  0  0
   13.0270   51.8541    0.9661 C   0  0  0  0  0  0  0  0  0  0  0  0
   12.9460   53.3517    1.2541 C   0  0  0  0  0  0  0  0  0  0  0  0
   11.4665   53.6687    1.3516 C   0  0  0  0  0  0  0  0  0  0  0  0
   10.8148   52.3090    1.5552 C   0  0  0  0  0  0  0  0  0  0  0  0
   10.6974   52.2393   -1.4546 C   0  0  0  0  0  0  0  0  0  0  0  0
   11.3666   51.1132   -0.6578 C   0  0  0  0  0  0  0  0  0  0  0  0
   10.6226   49.7963   -0.9072 C   0  0  0  0  0  0  0  0  0  0  0  0
 28 29  1  0
 29 30  1  0
 29 23  1  0
 23 24  1  0
 24 25  1  0
 25 26  1  0
 26 27  1  0
 27  1  1  0
  1  2  2  0
  1  3  1  0
  3  4  1  0
  4  5  1  0
  5  6  1  0
  6  9  1  0
  9 10  1  0
 10 11  2  0
 11 12  1  0
 12 13  2  0
 13 14  1  0
 14 15  2  0
 15 16  1  0
 16 17  1  0
 17 18  1  0
 17 19  2  0
 19 20  1  0
 20 21  2  0
  6  7  1  0
  7  8  1  0
 27 23  1  0
  8  3  1  0
 21  9  1  0
 21 12  1  0
 20 15  1  0
 16 22  1  0
M  END
> <minimizedAffinity>
-9.17639

> <CNNscore>
0.6671650410

> <CNNaffinity>
7.1705489159

> <CNN_VS>
4.7839393616

> <CNNaffinity_variance>
0.0649953410

$$$$



 30 34  0  0  0  0  0  0  0  0999 V2000
    9.6753   52.9061    1.4921 C   0  0  0  0  0  0  0  0  0  0  0  0
    8.8197   52.0434    1.6873 O   0  0  0  0  0  0  0  0  0  0  0  0
    9.3126   54.2405    1.2267 N   0  0  0  0  0  0  0  0  0  0  0  0
    7.8747   54.5103    1.2457 C   0  0  0  0  0  0  0  0  0  0  0  0
    7.5519   55.9952    1.3336 C   0  0  0  0  0  0  0  0  0  0  0  0
    8.2699   56.7346    0.2003 C   0  0  0  0  0  0  0  0  0  0  0  0
    9.7837   56.5519    0.3528 C   0  0  0  0  0  0  0  0  0  0  0  0
   10.1552   55.0718    0.3613 C   0  0  0  0  0  0  0  0  0  0  0  0
    7.8798   58.1319    0.1117 N   0  0  0  0  0  0  0  0  0  0  0  0
    8.7424   59.1381   -0.2794 C   0  0  0  0  0  0  0  0  0  0  0  0
    8.1564   60.3165   -0.3162 N   0  0  0  0  0  0  0  0  0  0  0  0
    6.8644   60.0822    0.0803 C   0  0  0  0  0  0  0  0  0  0  0  0
    5.7664   60.9487    0.2410 C   0  0  0  0  0  0  0  0  0  0  0  0
    4.5364   60.5182    0.6588 N   0  0  0  0  0  0  0  0  0  0  0  0
    4.4545   59.2005    0.9092 C   0  0  0  0  0  0  0  0  0  0  0  0
    3.3573   58.5166    1.3457 N   0  0  0  0  0  0  0  0  0  0  0  0
    3.6915   57.1962    1.4882 C   0  0  0  0  0  0  0  0  0  0  0  0
    2.8580   56.2355    1.9046 F   0  0  0  0  0  0  0  0  0  0  0  0
    5.0127   57.0008    1.1443 C   0  0  0  0  0  0  0  0  0  0  0  0
    5.4803   58.2856    0.7771 C   0  0  0  0  0  0  0  0  0  0  0  0
    6.6966   58.7325    0.3532 C   0  0  0  0  0  0  0  0  0  0  0  0
    2.4723   58.9076    1.5280 H   0  0  0  0  0  0  0  0  0  0  0  0
   11.5410   51.3358    0.6659 N   0  0  0  0  0  0  0  0  0  0  0  0
   13.0066   51.4543    0.5118 C   0  0  0  0  0  0  0  0  0  0  0  0
   13.3656   52.9365    0.5921 C   0  0  0  0  0  0  0  0  0  0  0  0
   12.0717   53.6516    0.9289 C   0  0  0  0  0  0  0  0  0  0  0  0
   11.1672   52.5439    1.4483 C   0  0  0  0  0  0  0  0  0  0  0  0
   10.5102   52.2508   -1.5148 C   0  0  0  0  0  0  0  0  0  0  0  0
   10.8926   51.0550   -0.6347 C   0  0  0  0  0  0  0  0  0  0  0  0
    9.6968   50.1033   -0.5149 C   0  0  0  0  0  0  0  0  0  0  0  0
 28 29  1  0
 29 30  1  0
 29 23  1  0
 23 24  1  0
 24 25  1  0
 25 26  1  0
 26 27  1  0
 27  1  1  0
  1  2  2  0
  1  3  1  0
  3  4  1  0
  4  5  1  0
  5  6  1  0
  6  9  1  0
  9 10  1  0
 10 11  2  0
 11 12  1  0
 12 13  2  0
 13 14  1  0
 14 15  2  0
 15 16  1  0
 16 17  1  0
 17 18  1  0
 17 19  2  0
 19 20  1  0
 20 21  2  0
  6  7  1  0
  7  8  1  0
 27 23  1  0
  8  3  1  0
 21  9  1  0
 21 12  1  0
 20 15  1  0
 16 22  1  0
M  END
> <minimizedAffinity>
-8.77952

> <CNNscore>
0.5012709498

> <CNNaffinity>
7.3359208107

> <CNN_VS>
3.6772840023

> <CNNaffinity_variance>
0.0815466568

$$$$



 30 34  0  0  0  0  0  0  0  0999 V2000
   11.3703   53.3384    0.6924 C   0  0  0  0  0  0  0  0  0  0  0  0
   12.3724   54.0053    0.9482 O   0  0  0  0  0  0  0  0  0  0  0  0
   10.0808   53.8897    0.8169 N   0  0  0  0  0  0  0  0  0  0  0  0
   10.0411   55.2947    1.2231 C   0  0  0  0  0  0  0  0  0  0  0  0
    8.6857   55.9434    0.9798 C   0  0  0  0  0  0  0  0  0  0  0  0
    7.5978   55.1076    1.6611 C   0  0  0  0  0  0  0  0  0  0  0  0
    7.5837   53.7001    1.0553 C   0  0  0  0  0  0  0  0  0  0  0  0
    8.9502   53.0348    1.1923 C   0  0  0  0  0  0  0  0  0  0  0  0
    6.2942   55.7490    1.6194 N   0  0  0  0  0  0  0  0  0  0  0  0
    5.1578   55.1974    2.1794 C   0  0  0  0  0  0  0  0  0  0  0  0
    4.1036   55.9747    2.0461 N   0  0  0  0  0  0  0  0  0  0  0  0
    4.5571   57.0721    1.3594 C   0  0  0  0  0  0  0  0  0  0  0  0
    3.8973   58.2358    0.9203 C   0  0  0  0  0  0  0  0  0  0  0  0
    4.5324   59.2340    0.2326 N   0  0  0  0  0  0  0  0  0  0  0  0
    5.8388   59.0187    0.0029 C   0  0  0  0  0  0  0  0  0  0  0  0
    6.6991   59.8406   -0.6651 N   0  0  0  0  0  0  0  0  0  0  0  0
    7.9360   59.2533   -0.6909 C   0  0  0  0  0  0  0  0  0  0  0  0
    9.0220   59.7793   -1.2696 F   0  0  0  0  0  0  0  0  0  0  0  0
    7.8990   58.0393   -0.0376 C   0  0  0  0  0  0  0  0  0  0  0  0
    6.5585   57.9085    0.3982 C   0  0  0  0  0  0  0  0  0  0  0  0
    5.9098   56.9277    1.0882 C   0  0  0  0  0  0  0  0  0  0  0  0
    6.4689   60.7114   -1.0625 H   0  0  0  0  0  0  0  0  0  0  0  0
   12.5006   51.5063   -0.7202 N   0  0  0  0  0  0  0  0  0  0  0  0
   12.6230   50.0370   -0.6108 C   0  0  0  0  0  0  0  0  0  0  0  0
   12.2348   49.6414    0.8123 C   0  0  0  0  0  0  0  0  0  0  0  0
   11.7598   50.9195    1.4755 C   0  0  0  0  0  0  0  0  0  0  0  0
   11.4848   51.8558    0.3081 C   0  0  0  0  0  0  0  0  0  0  0  0
   14.2523   52.9491   -1.9472 C   0  0  0  0  0  0  0  0  0  0  0  0
   13.8329   52.1512   -0.7069 C   0  0  0  0  0  0  0  0  0  0  0  0
   14.9596   51.1904   -0.3100 C   0  0  0  0  0  0  0  0  0  0  0  0
 28 29  1  0
 29 30  1  0
 29 23  1  0
 23 24  1  0
 24 25  1  0
 25 26  1  0
 26 27  1  0
 27  1  1  0
  1  2  2  0
  1  3  1  0
  3  4  1  0
  4  5  1  0
  5  6  1  0
  6  9  1  0
  9 10  1  0
 10 11  2  0
 11 12  1  0
 12 13  2  0
 13 14  1  0
 14 15  2  0
 15 16  1  0
 16 17  1  0
 17 18  1  0
 17 19  2  0
 19 20  1  0
 20 21  2  0
  6  7  1  0
  7  8  1  0
 27 23  1  0
  8  3  1  0
 21  9  1  0
 21 12  1  0
 20 15  1  0
 16 22  1  0
M  END
> <minimizedAffinity>
-8.57046

> <CNNscore>
0.2870236039

> <CNNaffinity>
6.6054511070

> <CNN_VS>
1.8959203959

> <CNNaffinity_variance>
0.1812628508

$$$$



 30 34  0  0  0  0  0  0  0  0999 V2000
   11.2554   51.5053   -2.0546 C   0  0  0  0  0  0  0  0  0  0  0  0
   10.4185   50.6065   -1.9760 O   0  0  0  0  0  0  0  0  0  0  0  0
   11.3388   52.3206   -3.1995 N   0  0  0  0  0  0  0  0  0  0  0  0
   10.3453   52.0411   -4.2365 C   0  0  0  0  0  0  0  0  0  0  0  0
   10.2261   53.1616   -5.2598 C   0  0  0  0  0  0  0  0  0  0  0  0
   11.6106   53.4606   -5.8430 C   0  0  0  0  0  0  0  0  0  0  0  0
   12.5470   53.9194   -4.7201 C   0  0  0  0  0  0  0  0  0  0  0  0
   12.6335   52.8664   -3.6191 C   0  0  0  0  0  0  0  0  0  0  0  0
   11.5579   54.4021   -6.9490 N   0  0  0  0  0  0  0  0  0  0  0  0
   11.9372   55.7261   -6.8384 C   0  0  0  0  0  0  0  0  0  0  0  0
   11.8344   56.3756   -7.9789 N   0  0  0  0  0  0  0  0  0  0  0  0
   11.3547   55.4507   -8.8712 C   0  0  0  0  0  0  0  0  0  0  0  0
   11.0389   55.5514  -10.2395 C   0  0  0  0  0  0  0  0  0  0  0  0
   10.5583   54.4982  -10.9695 N   0  0  0  0  0  0  0  0  0  0  0  0
   10.4061   53.3555  -10.2790 C   0  0  0  0  0  0  0  0  0  0  0  0
    9.9375   52.1663  -10.7569 N   0  0  0  0  0  0  0  0  0  0  0  0
    9.9261   51.2563   -9.7335 C   0  0  0  0  0  0  0  0  0  0  0  0
    9.5204   49.9856   -9.8427 F   0  0  0  0  0  0  0  0  0  0  0  0
   10.3895   51.8403   -8.5733 C   0  0  0  0  0  0  0  0  0  0  0  0
   10.6915   53.1738   -8.9402 C   0  0  0  0  0  0  0  0  0  0  0  0
   11.1756   54.2330   -8.2314 C   0  0  0  0  0  0  0  0  0  0  0  0
    9.6545   51.9916  -11.6835 H   0  0  0  0  0  0  0  0  0  0  0  0
   12.1028   52.9025   -0.0648 N   0  0  0  0  0  0  0  0  0  0  0  0
   13.0014   52.6422    1.0799 C   0  0  0  0  0  0  0  0  0  0  0  0
   13.1771   51.1299    1.2004 C   0  0  0  0  0  0  0  0  0  0  0  0
   12.4542   50.5391    0.0057 C   0  0  0  0  0  0  0  0  0  0  0  0
   12.2938   51.7177   -0.9430 C   0  0  0  0  0  0  0  0  0  0  0  0
   10.5048   54.7486    0.7682 C   0  0  0  0  0  0  0  0  0  0  0  0
   10.7492   53.2805    0.3998 C   0  0  0  0  0  0  0  0  0  0  0  0
   10.2268   52.3763    1.5222 C   0  0  0  0  0  0  0  0  0  0  0  0
 28 29  1  0
 29 30  1  0
 29 23  1  0
 23 24  1  0
 24 25  1  0
 25 26  1  0
 26 27  1  0
 27  1  1  0
  1  2  2  0
  1  3  1  0
  3  4  1  0
  4  5  1  0
  5  6  1  0
  6  9  1  0
  9 10  1  0
 10 11  2  0
 11 12  1  0
 12 13  2  0
 13 14  1  0
 14 15  2  0
 15 16  1  0
 16 17  1  0
 17 18  1  0
 17 19  2  0
 19 20  1  0
 20 21  2  0
  6  7  1  0
  7  8  1  0
 27 23  1  0
  8  3  1  0
 21  9  1  0
 21 12  1  0
 20 15  1  0
 16 22  1  0
M  END
> <minimizedAffinity>
-5.40928

> <CNNscore>
0.1645004153

> <CNNaffinity>
4.9507236481

> <CNN_VS>
0.8143960834

> <CNNaffinity_variance>
0.2103309184

$$$$



 30 34  0  0  0  0  0  0  0  0999 V2000
   11.2256   53.4609    0.6923 C   0  0  0  0  0  0  0  0  0  0  0  0
   12.1013   53.7202    1.5173 O   0  0  0  0  0  0  0  0  0  0  0  0
    9.9370   54.0172    0.8033 N   0  0  0  0  0  0  0  0  0  0  0  0
    9.7500   54.9355    1.9268 C   0  0  0  0  0  0  0  0  0  0  0  0
    8.4960   55.7878    1.7925 C   0  0  0  0  0  0  0  0  0  0  0  0
    7.2860   54.8733    1.5782 C   0  0  0  0  0  0  0  0  0  0  0  0
    7.4759   54.0732    0.2852 C   0  0  0  0  0  0  0  0  0  0  0  0
    8.7701   53.2659    0.3298 C   0  0  0  0  0  0  0  0  0  0  0  0
    6.0269   55.5987    1.6090 N   0  0  0  0  0  0  0  0  0  0  0  0
    4.8736   55.0950    2.1796 C   0  0  0  0  0  0  0  0  0  0  0  0
    3.8694   55.9441    2.1171 N   0  0  0  0  0  0  0  0  0  0  0  0
    4.3737   57.0419    1.4675 C   0  0  0  0  0  0  0  0  0  0  0  0
    3.7794   58.2656    1.1047 C   0  0  0  0  0  0  0  0  0  0  0  0
    4.4582   59.2530    0.4435 N   0  0  0  0  0  0  0  0  0  0  0  0
    5.7402   58.9652    0.1615 C   0  0  0  0  0  0  0  0  0  0  0  0
    6.6326   59.7615   -0.4954 N   0  0  0  0  0  0  0  0  0  0  0  0
    7.8268   59.0976   -0.5888 C   0  0  0  0  0  0  0  0  0  0  0  0
    8.9275   59.5799   -1.1777 F   0  0  0  0  0  0  0  0  0  0  0  0
    7.7293   57.8583    0.0084 C   0  0  0  0  0  0  0  0  0  0  0  0
    6.3966   57.7932    0.4812 C   0  0  0  0  0  0  0  0  0  0  0  0
    5.7053   56.8240    1.1458 C   0  0  0  0  0  0  0  0  0  0  0  0
    6.4486   60.6635   -0.8443 H   0  0  0  0  0  0  0  0  0  0  0  0
   11.2715   51.0192   -0.1234 N   0  0  0  0  0  0  0  0  0  0  0  0
   11.2360   50.3656   -1.4490 C   0  0  0  0  0  0  0  0  0  0  0  0
   10.7716   51.4036   -2.4685 C   0  0  0  0  0  0  0  0  0  0  0  0
   10.6687   52.7087   -1.7034 C   0  0  0  0  0  0  0  0  0  0  0  0
   11.4805   52.4567   -0.4415 C   0  0  0  0  0  0  0  0  0  0  0  0
   10.4071   50.1495    2.1464 C   0  0  0  0  0  0  0  0  0  0  0  0
   10.1221   50.5949    0.7072 C   0  0  0  0  0  0  0  0  0  0  0  0
    9.2342   49.5547    0.0147 C   0  0  0  0  0  0  0  0  0  0  0  0
 28 29  1  0
 29 30  1  0
 29 23  1  0
 23 24  1  0
 24 25  1  0
 25 26  1  0
 26 27  1  0
 27  1  1  0
  1  2  2  0
  1  3  1  0
  3  4  1  0
  4  5  1  0
  5  6  1  0
  6  9  1  0
  9 10  1  0
 10 11  2  0
 11 12  1  0
 12 13  2  0
 13 14  1  0
 14 15  2  0
 15 16  1  0
 16 17  1  0
 17 18  1  0
 17 19  2  0
 19 20  1  0
 20 21  2  0
  6  7  1  0
  7  8  1  0
 27 23  1  0
  8  3  1  0
 21  9  1  0
 21 12  1  0
 20 15  1  0
 16 22  1  0
M  END
> <minimizedAffinity>
-5.45426

> <CNNscore>
0.1372792870

> <CNNaffinity>
6.6225810051

> <CNN_VS>
0.9091432095

> <CNNaffinity_variance>
0.0521020703

$$$$



 30 34  0  0  0  0  0  0  0  0999 V2000
    9.4601   53.5863    1.4598 C   0  0  0  0  0  0  0  0  0  0  0  0
    9.4076   54.7577    1.0861 O   0  0  0  0  0  0  0  0  0  0  0  0
   10.6552   52.8479    1.3657 N   0  0  0  0  0  0  0  0  0  0  0  0
   11.8038   53.5867    0.8409 C   0  0  0  0  0  0  0  0  0  0  0  0
   13.1296   52.8881    1.1079 C   0  0  0  0  0  0  0  0  0  0  0  0
   13.0613   51.4556    0.5697 C   0  0  0  0  0  0  0  0  0  0  0  0
   11.9493   50.6918    1.2965 C   0  0  0  0  0  0  0  0  0  0  0  0
   10.6075   51.4005    1.1359 C   0  0  0  0  0  0  0  0  0  0  0  0
   14.3437   50.7746    0.6339 N   0  0  0  0  0  0  0  0  0  0  0  0
   14.5771   49.6673    1.4268 C   0  0  0  0  0  0  0  0  0  0  0  0
   15.8021   49.2035    1.2946 N   0  0  0  0  0  0  0  0  0  0  0  0
   16.4041   50.0446    0.3937 C   0  0  0  0  0  0  0  0  0  0  0  0
   17.7065   50.0608   -0.1409 C   0  0  0  0  0  0  0  0  0  0  0  0
   18.1276   51.0023   -1.0404 N   0  0  0  0  0  0  0  0  0  0  0  0
   17.2020   51.9173   -1.3750 C   0  0  0  0  0  0  0  0  0  0  0  0
   17.3597   52.9649   -2.2350 N   0  0  0  0  0  0  0  0  0  0  0  0
   16.1845   53.6657   -2.2928 C   0  0  0  0  0  0  0  0  0  0  0  0
   15.9809   54.7601   -3.0357 F   0  0  0  0  0  0  0  0  0  0  0  0
   15.2429   53.0825   -1.4712 C   0  0  0  0  0  0  0  0  0  0  0  0
   15.9073   51.9716   -0.8980 C   0  0  0  0  0  0  0  0  0  0  0  0
   15.5043   51.0210   -0.0077 C   0  0  0  0  0  0  0  0  0  0  0  0
   18.1819   53.1811   -2.7315 H   0  0  0  0  0  0  0  0  0  0  0  0
    7.0300   53.7091    2.3018 N   0  0  0  0  0  0  0  0  0  0  0  0
    5.9136   52.7447    2.3980 C   0  0  0  0  0  0  0  0  0  0  0  0
    6.2584   51.5432    1.5206 C   0  0  0  0  0  0  0  0  0  0  0  0
    7.6685   51.7933    1.0226 C   0  0  0  0  0  0  0  0  0  0  0  0
    8.2042   52.8609    1.9651 C   0  0  0  0  0  0  0  0  0  0  0  0
    6.3106   56.1808    2.1332 C   0  0  0  0  0  0  0  0  0  0  0  0
    6.6648   54.8582    1.4432 C   0  0  0  0  0  0  0  0  0  0  0  0
    5.5867   54.5145    0.4090 C   0  0  0  0  0  0  0  0  0  0  0  0
 28 29  1  0
 29 30  1  0
 29 23  1  0
 23 24  1  0
 24 25  1  0
 25 26  1  0
 26 27  1  0
 27  1  1  0
  1  2  2  0
  1  3  1  0
  3  4  1  0
  4  5  1  0
  5  6  1  0
  6  9  1  0
  9 10  1  0
 10 11  2  0
 11 12  1  0
 12 13  2  0
 13 14  1  0
 14 15  2  0
 15 16  1  0
 16 17  1  0
 17 18  1  0
 17 19  2  0
 19 20  1  0
 20 21  2  0
  6  7  1  0
  7  8  1  0
 27 23  1  0
  8  3  1  0
 21  9  1  0
 21 12  1  0
 20 15  1  0
 16 22  1  0
M  END
> <minimizedAffinity>
-6.41812

> <CNNscore>
0.1340797842

> <CNNaffinity>
4.3617801666

> <CNN_VS>
0.5848265290

> <CNNaffinity_variance>
1.3087280989

$$$$



 30 34  0  0  0  0  0  0  0  0999 V2000
    8.9714   52.6730    1.1866 C   0  0  0  0  0  0  0  0  0  0  0  0
    9.5089   53.4695    0.4177 O   0  0  0  0  0  0  0  0  0  0  0  0
    9.4971   51.3807    1.3764 N   0  0  0  0  0  0  0  0  0  0  0  0
   10.7248   51.0929    0.6345 C   0  0  0  0  0  0  0  0  0  0  0  0
   11.4518   49.8583    1.1486 C   0  0  0  0  0  0  0  0  0  0  0  0
   10.4836   48.6713    1.1584 C   0  0  0  0  0  0  0  0  0  0  0  0
    9.3127   48.9779    2.0982 C   0  0  0  0  0  0  0  0  0  0  0  0
    8.6003   50.2609    1.6796 C   0  0  0  0  0  0  0  0  0  0  0  0
   11.1439   47.4162    1.4762 N   0  0  0  0  0  0  0  0  0  0  0  0
   12.3647   47.3416    2.1193 C   0  0  0  0  0  0  0  0  0  0  0  0
   12.7473   46.0995    2.3290 N   0  0  0  0  0  0  0  0  0  0  0  0
   11.7505   45.3260    1.7908 C   0  0  0  0  0  0  0  0  0  0  0  0
   11.5964   43.9291    1.7066 C   0  0  0  0  0  0  0  0  0  0  0  0
   10.5137   43.3363    1.1156 N   0  0  0  0  0  0  0  0  0  0  0  0
    9.6051   44.1909    0.6158 C   0  0  0  0  0  0  0  0  0  0  0  0
    8.4471   43.8692   -0.0303 N   0  0  0  0  0  0  0  0  0  0  0  0
    7.8099   45.0266   -0.3910 C   0  0  0  0  0  0  0  0  0  0  0  0
    6.6455   45.0874   -1.0479 F   0  0  0  0  0  0  0  0  0  0  0  0
    8.5444   46.1201    0.0172 C   0  0  0  0  0  0  0  0  0  0  0  0
    9.6807   45.5691    0.6569 C   0  0  0  0  0  0  0  0  0  0  0  0
   10.7637   46.1410    1.2558 C   0  0  0  0  0  0  0  0  0  0  0  0
    8.1233   42.9565   -0.2078 H   0  0  0  0  0  0  0  0  0  0  0  0
    7.4329   54.4668    2.2087 N   0  0  0  0  0  0  0  0  0  0  0  0
    5.9954   54.5322    2.5480 C   0  0  0  0  0  0  0  0  0  0  0  0
    5.2955   53.3755    1.8375 C   0  0  0  0  0  0  0  0  0  0  0  0
    6.4014   52.5682    1.1861 C   0  0  0  0  0  0  0  0  0  0  0  0
    7.6611   53.0292    1.9043 C   0  0  0  0  0  0  0  0  0  0  0  0
    8.9760   56.4254    1.5471 C   0  0  0  0  0  0  0  0  0  0  0  0
    7.7917   55.5083    1.2201 C   0  0  0  0  0  0  0  0  0  0  0  0
    6.5923   56.3562    0.7812 C   0  0  0  0  0  0  0  0  0  0  0  0
 28 29  1  0
 29 30  1  0
 29 23  1  0
 23 24  1  0
 24 25  1  0
 25 26  1  0
 26 27  1  0
 27  1  1  0
  1  2  2  0
  1  3  1  0
  3  4  1  0
  4  5  1  0
  5  6  1  0
  6  9  1  0
  9 10  1  0
 10 11  2  0
 11 12  1  0
 12 13  2  0
 13 14  1  0
 14 15  2  0
 15 16  1  0
 16 17  1  0
 17 18  1  0
 17 19  2  0
 19 20  1  0
 20 21  2  0
  6  7  1  0
  7  8  1  0
 27 23  1  0
  8  3  1  0
 21  9  1  0
 21 12  1  0
 20 15  1  0
 16 22  1  0
M  END
> <minimizedAffinity>
-5.65677

> <CNNscore>
0.1214882806

> <CNNaffinity>
4.8778762817

> <CNN_VS>
0.5926048160

> <CNNaffinity_variance>
0.5464279056

$$$$
