


 31 33  0  0  0  0  0  0  0  0999 V2000
   12.2819   52.7856   89.9086 C   0  0  0  0  0  0  0  0  0  0  0  0
   12.7450   51.7181   90.3101 O   0  0  0  0  0  0  0  0  0  0  0  0
   11.3156   52.8427   88.9321 N   0  0  0  0  0  0  0  0  0  0  0  0
   10.9384   53.7200   88.6927 H   0  0  0  0  0  0  0  0  0  0  0  0
   12.4505   54.2288   92.8300 C   0  0  0  0  0  0  0  0  0  0  0  0
   11.2390   54.0923   92.6627 O   0  0  0  0  0  0  0  0  0  0  0  0
   13.3228   54.2166   91.7570 N   0  0  0  0  0  0  0  0  0  0  0  0
   14.7039   54.6875   91.7950 C   0  0  0  0  0  0  0  0  0  0  0  0
   14.9113   55.3748   90.4460 C   0  0  0  0  0  0  0  0  0  0  0  0
   14.4115   56.7107   90.4688 O   0  0  0  0  0  0  0  0  0  0  0  0
   14.0546   54.5445   89.5079 C   0  0  0  0  0  0  0  0  0  0  0  0
   12.8350   54.1611   90.3633 C   0  0  0  0  0  0  0  0  0  0  0  0
   13.4735   56.7009   90.7159 H   0  0  0  0  0  0  0  0  0  0  0  0
   13.0792   54.3889   94.2126 C   0  0  0  0  0  0  0  0  0  0  0  0
   12.4448   56.5138   95.3618 C   0  0  0  0  0  0  0  0  0  0  0  0
   12.1900   54.9910   95.3306 C   0  0  0  0  0  0  0  0  0  0  0  0
   10.6938   54.7698   95.0513 C   0  0  0  0  0  0  0  0  0  0  0  0
   12.5591   54.4182   96.7094 C   0  0  0  0  0  0  0  0  0  0  0  0
   10.8320   51.6726   88.2446 C   0  0  0  0  0  0  0  0  0  0  0  0
   11.5788   51.4570   86.9537 C   0  0  0  0  0  0  0  0  0  0  0  0
   11.7090   50.1752   86.4078 C   0  0  0  0  0  0  0  0  0  0  0  0
   12.3831   49.9844   85.1967 C   0  0  0  0  0  0  0  0  0  0  0  0
   12.9344   51.0682   84.4976 C   0  0  0  0  0  0  0  0  0  0  0  0
   12.7876   52.3514   85.0431 C   0  0  0  0  0  0  0  0  0  0  0  0
   12.1146   52.5445   86.2542 C   0  0  0  0  0  0  0  0  0  0  0  0
   13.6364   50.8770   83.2358 C   0  0  0  0  0  0  0  0  0  0  0  0
   13.4958   50.0490   82.1428 C   0  0  0  0  0  0  0  0  0  0  0  0
   14.4686   50.3135   81.2118 N   0  0  0  0  0  0  0  0  0  0  0  0
   15.1675   51.2856   81.7603 C   0  0  0  0  0  0  0  0  0  0  0  0
   16.5271   51.9915   80.9816 Cl  0  0  0  0  0  0  0  0  0  0  0  0
   14.7199   51.6804   82.9896 O   0  0  0  0  0  0  0  0  0  0  0  0
 15 16  1  0
 16 17  1  0
 16 18  1  0
 16 14  1  0
 14  5  1  0
  5  6  2  0
  5  7  1  0
  7  8  1  0
  8  9  1  0
  9 10  1  0
  9 11  1  0
 11 12  1  0
 12  1  1  0
  1  2  2  0
  1  3  1  0
  3 19  1  0
 19 20  1  0
 20 21  2  0
 21 22  1  0
 22 23  2  0
 23 26  1  0
 26 27  2  0
 27 28  1  0
 28 29  2  0
 29 30  1  0
 29 31  1  0
 23 24  1  0
 24 25  2  0
 12  7  1  0
 25 20  1  0
 31 26  1  0
 10 13  1  0
  3  4  1  0
M  END
> <minimizedAffinity>
-8.35679

> <CNNscore>
0.9802388549

> <CNNaffinity>
6.7843894958

> <CNN_VS>
6.6503219604

> <CNNaffinity_variance>
0.0317409523

$$$$



 31 33  0  0  0  0  0  0  0  0999 V2000
   12.5379   53.1238   88.8864 C   0  0  0  0  0  0  0  0  0  0  0  0
   12.6162   53.0961   87.6583 O   0  0  0  0  0  0  0  0  0  0  0  0
   11.8451   52.1722   89.5970 N   0  0  0  0  0  0  0  0  0  0  0  0
   11.8664   52.2097   90.5806 H   0  0  0  0  0  0  0  0  0  0  0  0
   12.5940   53.6788   92.1012 C   0  0  0  0  0  0  0  0  0  0  0  0
   11.3896   53.6312   91.8536 O   0  0  0  0  0  0  0  0  0  0  0  0
   13.5153   53.9439   91.1045 N   0  0  0  0  0  0  0  0  0  0  0  0
   14.9011   54.3435   91.3296 C   0  0  0  0  0  0  0  0  0  0  0  0
   15.1833   55.3769   90.2398 C   0  0  0  0  0  0  0  0  0  0  0  0
   14.7061   56.6664   90.6198 O   0  0  0  0  0  0  0  0  0  0  0  0
   14.3574   54.8707   89.0715 C   0  0  0  0  0  0  0  0  0  0  0  0
   13.0926   54.2982   89.7337 C   0  0  0  0  0  0  0  0  0  0  0  0
   13.7576   56.6152   90.8161 H   0  0  0  0  0  0  0  0  0  0  0  0
   13.1598   53.4237   93.4966 C   0  0  0  0  0  0  0  0  0  0  0  0
   13.2015   53.7358   95.9744 C   0  0  0  0  0  0  0  0  0  0  0  0
   12.5672   54.2529   94.6647 C   0  0  0  0  0  0  0  0  0  0  0  0
   12.9083   55.7470   94.5346 C   0  0  0  0  0  0  0  0  0  0  0  0
   11.0440   54.0669   94.7675 C   0  0  0  0  0  0  0  0  0  0  0  0
   11.0894   51.1223   88.9625 C   0  0  0  0  0  0  0  0  0  0  0  0
    9.8139   51.6592   88.3662 C   0  0  0  0  0  0  0  0  0  0  0  0
    9.5090   51.4451   87.0174 C   0  0  0  0  0  0  0  0  0  0  0  0
    8.3122   51.9256   86.4751 C   0  0  0  0  0  0  0  0  0  0  0  0
    7.3877   52.6220   87.2673 C   0  0  0  0  0  0  0  0  0  0  0  0
    7.6930   52.8204   88.6212 C   0  0  0  0  0  0  0  0  0  0  0  0
    8.8895   52.3415   89.1655 C   0  0  0  0  0  0  0  0  0  0  0  0
    6.1392   53.1240   86.7097 C   0  0  0  0  0  0  0  0  0  0  0  0
    5.4705   52.9956   85.5113 C   0  0  0  0  0  0  0  0  0  0  0  0
    4.2975   53.7074   85.5373 N   0  0  0  0  0  0  0  0  0  0  0  0
    4.2865   54.2443   86.7398 C   0  0  0  0  0  0  0  0  0  0  0  0
    3.0041   55.2500   87.2847 Cl  0  0  0  0  0  0  0  0  0  0  0  0
    5.3728   53.9332   87.5083 O   0  0  0  0  0  0  0  0  0  0  0  0
 15 16  1  0
 16 17  1  0
 16 18  1  0
 16 14  1  0
 14  5  1  0
  5  6  2  0
  5  7  1  0
  7  8  1  0
  8  9  1  0
  9 10  1  0
  9 11  1  0
 11 12  1  0
 12  1  1  0
  1  2  2  0
  1  3  1  0
  3 19  1  0
 19 20  1  0
 20 21  2  0
 21 22  1  0
 22 23  2  0
 23 26  1  0
 26 27  2  0
 27 28  1  0
 28 29  2  0
 29 30  1  0
 29 31  1  0
 23 24  1  0
 24 25  2  0
 12  7  1  0
 25 20  1  0
 31 26  1  0
 10 13  1  0
  3  4  1  0
M  END
> <minimizedAffinity>
-5.71013

> <CNNscore>
0.8887761831

> <CNNaffinity>
6.1305561066

> <CNN_VS>
5.4486923218

> <CNNaffinity_variance>
0.4757258594

$$$$



 31 33  0  0  0  0  0  0  0  0999 V2000
   12.4515   52.7035   89.6663 C   0  0  0  0  0  0  0  0  0  0  0  0
   12.4467   51.6994   90.3783 O   0  0  0  0  0  0  0  0  0  0  0  0
   12.1369   52.6535   88.3287 N   0  0  0  0  0  0  0  0  0  0  0  0
   12.0982   53.4963   87.8215 H   0  0  0  0  0  0  0  0  0  0  0  0
   12.5681   54.0379   92.6414 C   0  0  0  0  0  0  0  0  0  0  0  0
   11.3637   53.8492   92.4741 O   0  0  0  0  0  0  0  0  0  0  0  0
   13.4332   54.1103   91.5650 N   0  0  0  0  0  0  0  0  0  0  0  0
   14.7901   54.6460   91.6155 C   0  0  0  0  0  0  0  0  0  0  0  0
   14.9555   55.3948   90.2937 C   0  0  0  0  0  0  0  0  0  0  0  0
   14.3916   56.7029   90.3713 O   0  0  0  0  0  0  0  0  0  0  0  0
   14.1342   54.5610   89.3274 C   0  0  0  0  0  0  0  0  0  0  0  0
   12.9400   54.0855   90.1723 C   0  0  0  0  0  0  0  0  0  0  0  0
   13.4568   56.6377   90.6218 H   0  0  0  0  0  0  0  0  0  0  0  0
   13.1969   54.1743   94.0265 C   0  0  0  0  0  0  0  0  0  0  0  0
   10.8440   54.4487   94.8185 C   0  0  0  0  0  0  0  0  0  0  0  0
   12.3157   54.7799   95.1490 C   0  0  0  0  0  0  0  0  0  0  0  0
   12.6392   54.1668   96.5219 C   0  0  0  0  0  0  0  0  0  0  0  0
   12.4576   56.3102   95.2085 C   0  0  0  0  0  0  0  0  0  0  0  0
   11.8616   51.4191   87.6384 C   0  0  0  0  0  0  0  0  0  0  0  0
   10.9583   51.6518   86.4549 C   0  0  0  0  0  0  0  0  0  0  0  0
   10.5873   52.9484   86.0819 C   0  0  0  0  0  0  0  0  0  0  0  0
    9.7675   53.1596   84.9679 C   0  0  0  0  0  0  0  0  0  0  0  0
    9.3071   52.0837   84.1948 C   0  0  0  0  0  0  0  0  0  0  0  0
    9.6946   50.7883   84.5657 C   0  0  0  0  0  0  0  0  0  0  0  0
   10.5135   50.5747   85.6796 C   0  0  0  0  0  0  0  0  0  0  0  0
    8.4545   52.2962   83.0331 C   0  0  0  0  0  0  0  0  0  0  0  0
    7.8067   51.4894   82.1224 C   0  0  0  0  0  0  0  0  0  0  0  0
    7.1213   52.2504   81.2090 N   0  0  0  0  0  0  0  0  0  0  0  0
    7.3702   53.4874   81.5861 C   0  0  0  0  0  0  0  0  0  0  0  0
    6.7304   54.8476   80.7533 Cl  0  0  0  0  0  0  0  0  0  0  0  0
    8.1725   53.5927   82.6874 O   0  0  0  0  0  0  0  0  0  0  0  0
 15 16  1  0
 16 17  1  0
 16 18  1  0
 16 14  1  0
 14  5  1  0
  5  6  2  0
  5  7  1  0
  7  8  1  0
  8  9  1  0
  9 10  1  0
  9 11  1  0
 11 12  1  0
 12  1  1  0
  1  2  2  0
  1  3  1  0
  3 19  1  0
 19 20  1  0
 20 21  2  0
 21 22  1  0
 22 23  2  0
 23 26  1  0
 26 27  2  0
 27 28  1  0
 28 29  2  0
 29 30  1  0
 29 31  1  0
 23 24  1  0
 24 25  2  0
 12  7  1  0
 25 20  1  0
 31 26  1  0
 10 13  1  0
  3  4  1  0
M  END
> <minimizedAffinity>
-7.67419

> <CNNscore>
0.7901211977

> <CNNaffinity>
6.0083899498

> <CNN_VS>
4.7473564148

> <CNNaffinity_variance>
0.1150436029

$$$$



 31 33  0  0  0  0  0  0  0  0999 V2000
   12.6301   52.9917   89.1511 C   0  0  0  0  0  0  0  0  0  0  0  0
   12.6625   51.9021   89.7228 O   0  0  0  0  0  0  0  0  0  0  0  0
   12.2934   53.1116   87.8234 N   0  0  0  0  0  0  0  0  0  0  0  0
   12.2250   54.0131   87.4337 H   0  0  0  0  0  0  0  0  0  0  0  0
   12.4722   54.0458   92.2349 C   0  0  0  0  0  0  0  0  0  0  0  0
   11.2872   53.9093   91.9323 O   0  0  0  0  0  0  0  0  0  0  0  0
   13.4432   54.1898   91.2609 N   0  0  0  0  0  0  0  0  0  0  0  0
   14.7988   54.6778   91.4953 C   0  0  0  0  0  0  0  0  0  0  0  0
   15.1127   55.5385   90.2723 C   0  0  0  0  0  0  0  0  0  0  0  0
   14.5710   56.8504   90.4157 O   0  0  0  0  0  0  0  0  0  0  0  0
   14.3765   54.8211   89.1557 C   0  0  0  0  0  0  0  0  0  0  0  0
   13.0932   54.3067   89.8301 C   0  0  0  0  0  0  0  0  0  0  0  0
   13.6145   56.7907   90.5652 H   0  0  0  0  0  0  0  0  0  0  0  0
   12.9600   54.0367   93.6820 C   0  0  0  0  0  0  0  0  0  0  0  0
   13.7018   51.6665   93.4165 C   0  0  0  0  0  0  0  0  0  0  0  0
   13.0412   52.6623   94.3946 C   0  0  0  0  0  0  0  0  0  0  0  0
   13.9122   52.7264   95.6607 C   0  0  0  0  0  0  0  0  0  0  0  0
   11.6416   52.1290   94.7441 C   0  0  0  0  0  0  0  0  0  0  0  0
   12.0364   51.9732   86.9785 C   0  0  0  0  0  0  0  0  0  0  0  0
   10.8108   52.1954   86.1304 C   0  0  0  0  0  0  0  0  0  0  0  0
   10.9048   52.8405   84.8923 C   0  0  0  0  0  0  0  0  0  0  0  0
    9.7672   53.0229   84.0985 C   0  0  0  0  0  0  0  0  0  0  0  0
    8.5119   52.5576   84.5165 C   0  0  0  0  0  0  0  0  0  0  0  0
    8.4275   51.8992   85.7515 C   0  0  0  0  0  0  0  0  0  0  0  0
    9.5635   51.7164   86.5472 C   0  0  0  0  0  0  0  0  0  0  0  0
    7.3236   52.7428   83.6947 C   0  0  0  0  0  0  0  0  0  0  0  0
    7.0731   53.0870   82.3837 C   0  0  0  0  0  0  0  0  0  0  0  0
    5.7224   53.1094   82.1428 N   0  0  0  0  0  0  0  0  0  0  0  0
    5.1942   52.7821   83.3040 C   0  0  0  0  0  0  0  0  0  0  0  0
    3.4961   52.6658   83.5403 Cl  0  0  0  0  0  0  0  0  0  0  0  0
    6.1062   52.5442   84.2935 O   0  0  0  0  0  0  0  0  0  0  0  0
 15 16  1  0
 16 17  1  0
 16 18  1  0
 16 14  1  0
 14  5  1  0
  5  6  2  0
  5  7  1  0
  7  8  1  0
  8  9  1  0
  9 10  1  0
  9 11  1  0
 11 12  1  0
 12  1  1  0
  1  2  2  0
  1  3  1  0
  3 19  1  0
 19 20  1  0
 20 21  2  0
 21 22  1  0
 22 23  2  0
 23 26  1  0
 26 27  2  0
 27 28  1  0
 28 29  2  0
 29 30  1  0
 29 31  1  0
 23 24  1  0
 24 25  2  0
 12  7  1  0
 25 20  1  0
 31 26  1  0
 10 13  1  0
  3  4  1  0
M  END
> <minimizedAffinity>
-7.14096

> <CNNscore>
0.7102171183

> <CNNaffinity>
5.7375907898

> <CNN_VS>
4.0749349594

> <CNNaffinity_variance>
0.0886495113

$$$$



 31 33  0  0  0  0  0  0  0  0999 V2000
   12.6395   53.4332   89.1707 C   0  0  0  0  0  0  0  0  0  0  0  0
   13.6018   53.9662   89.7231 O   0  0  0  0  0  0  0  0  0  0  0  0
   12.5180   53.3813   87.8021 N   0  0  0  0  0  0  0  0  0  0  0  0
   11.7582   52.8899   87.4143 H   0  0  0  0  0  0  0  0  0  0  0  0
   12.2336   52.5967   92.2982 C   0  0  0  0  0  0  0  0  0  0  0  0
   13.0979   51.8089   91.9150 O   0  0  0  0  0  0  0  0  0  0  0  0
   11.3948   53.2262   91.3968 N   0  0  0  0  0  0  0  0  0  0  0  0
   10.1506   53.9058   91.7443 C   0  0  0  0  0  0  0  0  0  0  0  0
    9.1973   53.5686   90.5987 C   0  0  0  0  0  0  0  0  0  0  0  0
    8.5993   52.2875   90.7893 O   0  0  0  0  0  0  0  0  0  0  0  0
   10.1215   53.5066   89.3964 C   0  0  0  0  0  0  0  0  0  0  0  0
   11.4165   52.8943   89.9571 C   0  0  0  0  0  0  0  0  0  0  0  0
    9.2940   51.6160   90.8754 H   0  0  0  0  0  0  0  0  0  0  0  0
   12.0417   52.9588   93.7693 C   0  0  0  0  0  0  0  0  0  0  0  0
   13.8482   54.5884   93.2040 C   0  0  0  0  0  0  0  0  0  0  0  0
   12.9305   54.0922   94.3426 C   0  0  0  0  0  0  0  0  0  0  0  0
   12.0909   55.2872   94.8250 C   0  0  0  0  0  0  0  0  0  0  0  0
   13.8237   53.5801   95.4852 C   0  0  0  0  0  0  0  0  0  0  0  0
   13.4561   54.0161   86.9116 C   0  0  0  0  0  0  0  0  0  0  0  0
   13.6878   53.1759   85.6824 C   0  0  0  0  0  0  0  0  0  0  0  0
   12.7492   52.2180   85.2830 C   0  0  0  0  0  0  0  0  0  0  0  0
   12.9586   51.4574   84.1275 C   0  0  0  0  0  0  0  0  0  0  0  0
   14.1036   51.6412   83.3387 C   0  0  0  0  0  0  0  0  0  0  0  0
   15.0328   52.6127   83.7368 C   0  0  0  0  0  0  0  0  0  0  0  0
   14.8259   53.3739   84.8921 C   0  0  0  0  0  0  0  0  0  0  0  0
   14.3274   50.8538   82.1339 C   0  0  0  0  0  0  0  0  0  0  0  0
   15.3019   50.7921   81.1610 C   0  0  0  0  0  0  0  0  0  0  0  0
   14.9918   49.8320   80.2309 N   0  0  0  0  0  0  0  0  0  0  0  0
   13.8473   49.3419   80.6601 C   0  0  0  0  0  0  0  0  0  0  0  0
   13.0180   48.0855   79.8314 Cl  0  0  0  0  0  0  0  0  0  0  0  0
   13.3829   49.9136   81.8112 O   0  0  0  0  0  0  0  0  0  0  0  0
 15 16  1  0
 16 17  1  0
 16 18  1  0
 16 14  1  0
 14  5  1  0
  5  6  2  0
  5  7  1  0
  7  8  1  0
  8  9  1  0
  9 10  1  0
  9 11  1  0
 11 12  1  0
 12  1  1  0
  1  2  2  0
  1  3  1  0
  3 19  1  0
 19 20  1  0
 20 21  2  0
 21 22  1  0
 22 23  2  0
 23 26  1  0
 26 27  2  0
 27 28  1  0
 28 29  2  0
 29 30  1  0
 29 31  1  0
 23 24  1  0
 24 25  2  0
 12  7  1  0
 25 20  1  0
 31 26  1  0
 10 13  1  0
  3  4  1  0
M  END
> <minimizedAffinity>
-7.47214

> <CNNscore>
0.6729221940

> <CNNaffinity>
5.9076151848

> <CNN_VS>
3.9753654003

> <CNNaffinity_variance>
0.0971806422

$$$$



 31 33  0  0  0  0  0  0  0  0999 V2000
   11.3054   51.6929   90.2926 C   0  0  0  0  0  0  0  0  0  0  0  0
   10.4413   50.8245   90.1718 O   0  0  0  0  0  0  0  0  0  0  0  0
   11.4223   52.7371   89.4058 N   0  0  0  0  0  0  0  0  0  0  0  0
   12.0928   53.4353   89.5851 H   0  0  0  0  0  0  0  0  0  0  0  0
   11.7218   53.2415   93.1341 C   0  0  0  0  0  0  0  0  0  0  0  0
   11.7322   54.1622   92.3176 O   0  0  0  0  0  0  0  0  0  0  0  0
   11.9920   51.9423   92.7450 N   0  0  0  0  0  0  0  0  0  0  0  0
   12.3268   50.8488   93.6520 C   0  0  0  0  0  0  0  0  0  0  0  0
   13.3933   50.0467   92.9074 C   0  0  0  0  0  0  0  0  0  0  0  0
   14.6835   50.6328   93.0712 O   0  0  0  0  0  0  0  0  0  0  0  0
   12.9698   50.1857   91.4566 C   0  0  0  0  0  0  0  0  0  0  0  0
   12.4202   51.6197   91.3680 C   0  0  0  0  0  0  0  0  0  0  0  0
   14.6615   51.5533   92.7660 H   0  0  0  0  0  0  0  0  0  0  0  0
   11.3860   53.4512   94.6091 C   0  0  0  0  0  0  0  0  0  0  0  0
   12.3883   55.6979   95.0411 C   0  0  0  0  0  0  0  0  0  0  0  0
   12.4236   54.2151   95.4712 C   0  0  0  0  0  0  0  0  0  0  0  0
   12.0792   54.1511   96.9688 C   0  0  0  0  0  0  0  0  0  0  0  0
   13.8477   53.6845   95.2347 C   0  0  0  0  0  0  0  0  0  0  0  0
   10.6047   52.8523   88.2250 C   0  0  0  0  0  0  0  0  0  0  0  0
   11.3702   52.4374   86.9952 C   0  0  0  0  0  0  0  0  0  0  0  0
   12.2846   53.3091   86.3936 C   0  0  0  0  0  0  0  0  0  0  0  0
   13.0098   52.9097   85.2657 C   0  0  0  0  0  0  0  0  0  0  0  0
   12.8471   51.6288   84.7179 C   0  0  0  0  0  0  0  0  0  0  0  0
   11.9399   50.7555   85.3344 C   0  0  0  0  0  0  0  0  0  0  0  0
   11.2131   51.1530   86.4617 C   0  0  0  0  0  0  0  0  0  0  0  0
   13.5997   51.2058   83.5448 C   0  0  0  0  0  0  0  0  0  0  0  0
   13.4899   50.1975   82.6115 C   0  0  0  0  0  0  0  0  0  0  0  0
   14.5080   50.2784   81.6950 N   0  0  0  0  0  0  0  0  0  0  0  0
   15.2026   51.3239   82.0938 C   0  0  0  0  0  0  0  0  0  0  0  0
   16.6098   51.8612   81.2667 Cl  0  0  0  0  0  0  0  0  0  0  0  0
   14.7098   51.9381   83.2107 O   0  0  0  0  0  0  0  0  0  0  0  0
 15 16  1  0
 16 17  1  0
 16 18  1  0
 16 14  1  0
 14  5  1  0
  5  6  2  0
  5  7  1  0
  7  8  1  0
  8  9  1  0
  9 10  1  0
  9 11  1  0
 11 12  1  0
 12  1  1  0
  1  2  2  0
  1  3  1  0
  3 19  1  0
 19 20  1  0
 20 21  2  0
 21 22  1  0
 22 23  2  0
 23 26  1  0
 26 27  2  0
 27 28  1  0
 28 29  2  0
 29 30  1  0
 29 31  1  0
 23 24  1  0
 24 25  2  0
 12  7  1  0
 25 20  1  0
 31 26  1  0
 10 13  1  0
  3  4  1  0
M  END
> <minimizedAffinity>
-6.06552

> <CNNscore>
0.4637422562

> <CNNaffinity>
5.4544005394

> <CNN_VS>
2.5294361115

> <CNNaffinity_variance>
0.2638584077

$$$$



 31 33  0  0  0  0  0  0  0  0999 V2000
   13.9958   54.1779   91.8030 C   0  0  0  0  0  0  0  0  0  0  0  0
   14.7023   55.1639   92.0125 O   0  0  0  0  0  0  0  0  0  0  0  0
   13.5958   53.8202   90.5370 N   0  0  0  0  0  0  0  0  0  0  0  0
   13.0819   52.9884   90.4222 H   0  0  0  0  0  0  0  0  0  0  0  0
   12.3482   54.9912   94.4992 C   0  0  0  0  0  0  0  0  0  0  0  0
   13.4384   55.5355   94.6711 O   0  0  0  0  0  0  0  0  0  0  0  0
   12.2128   53.9310   93.6217 N   0  0  0  0  0  0  0  0  0  0  0  0
   11.0763   53.0159   93.5827 C   0  0  0  0  0  0  0  0  0  0  0  0
   11.6950   51.6492   93.2923 C   0  0  0  0  0  0  0  0  0  0  0  0
   12.1920   51.0471   94.4862 O   0  0  0  0  0  0  0  0  0  0  0  0
   12.8658   51.9926   92.3897 C   0  0  0  0  0  0  0  0  0  0  0  0
   13.3821   53.3301   92.9472 C   0  0  0  0  0  0  0  0  0  0  0  0
   12.8354   51.6406   94.9040 H   0  0  0  0  0  0  0  0  0  0  0  0
   11.0752   55.4536   95.2048 C   0  0  0  0  0  0  0  0  0  0  0  0
    9.8045   57.1282   96.5538 C   0  0  0  0  0  0  0  0  0  0  0  0
   11.2183   56.5810   96.2592 C   0  0  0  0  0  0  0  0  0  0  0  0
   11.8044   56.0556   97.5806 C   0  0  0  0  0  0  0  0  0  0  0  0
   12.0763   57.7409   95.7263 C   0  0  0  0  0  0  0  0  0  0  0  0
   13.8971   54.6119   89.3715 C   0  0  0  0  0  0  0  0  0  0  0  0
   13.4449   53.9158   88.1138 C   0  0  0  0  0  0  0  0  0  0  0  0
   14.0466   54.1999   86.8829 C   0  0  0  0  0  0  0  0  0  0  0  0
   13.6387   53.5332   85.7225 C   0  0  0  0  0  0  0  0  0  0  0  0
   12.6284   52.5612   85.7645 C   0  0  0  0  0  0  0  0  0  0  0  0
   12.0400   52.2711   87.0036 C   0  0  0  0  0  0  0  0  0  0  0  0
   12.4458   52.9371   88.1650 C   0  0  0  0  0  0  0  0  0  0  0  0
   12.1997   51.8622   84.5607 C   0  0  0  0  0  0  0  0  0  0  0  0
   10.9994   51.4107   84.0552 C   0  0  0  0  0  0  0  0  0  0  0  0
   11.1886   50.8035   82.8392 N   0  0  0  0  0  0  0  0  0  0  0  0
   12.4870   50.9012   82.6417 C   0  0  0  0  0  0  0  0  0  0  0  0
   13.2506   50.2819   81.2324 Cl  0  0  0  0  0  0  0  0  0  0  0  0
   13.1660   51.5332   83.6453 O   0  0  0  0  0  0  0  0  0  0  0  0
 15 16  1  0
 16 17  1  0
 16 18  1  0
 16 14  1  0
 14  5  1  0
  5  6  2  0
  5  7  1  0
  7  8  1  0
  8  9  1  0
  9 10  1  0
  9 11  1  0
 11 12  1  0
 12  1  1  0
  1  2  2  0
  1  3  1  0
  3 19  1  0
 19 20  1  0
 20 21  2  0
 21 22  1  0
 22 23  2  0
 23 26  1  0
 26 27  2  0
 27 28  1  0
 28 29  2  0
 29 30  1  0
 29 31  1  0
 23 24  1  0
 24 25  2  0
 12  7  1  0
 25 20  1  0
 31 26  1  0
 10 13  1  0
  3  4  1  0
M  END
> <minimizedAffinity>
-7.45624

> <CNNscore>
0.4497691095

> <CNNaffinity>
5.4607601166

> <CNN_VS>
2.4560811520

> <CNNaffinity_variance>
0.6939840317

$$$$



 31 33  0  0  0  0  0  0  0  0999 V2000
   12.1561   52.4049   85.7294 C   0  0  0  0  0  0  0  0  0  0  0  0
   13.1576   51.9070   85.2153 O   0  0  0  0  0  0  0  0  0  0  0  0
   12.2360   53.4170   86.6567 N   0  0  0  0  0  0  0  0  0  0  0  0
   11.4011   53.8185   86.9897 H   0  0  0  0  0  0  0  0  0  0  0  0
   10.7569   51.0003   83.1381 C   0  0  0  0  0  0  0  0  0  0  0  0
   11.0498   52.1189   82.7171 O   0  0  0  0  0  0  0  0  0  0  0  0
   10.6337   50.7603   84.4944 N   0  0  0  0  0  0  0  0  0  0  0  0
    9.9847   49.5927   85.0828 C   0  0  0  0  0  0  0  0  0  0  0  0
    9.2514   50.1388   86.3072 C   0  0  0  0  0  0  0  0  0  0  0  0
    7.9941   50.7052   85.9417 O   0  0  0  0  0  0  0  0  0  0  0  0
   10.1706   51.2476   86.7856 C   0  0  0  0  0  0  0  0  0  0  0  0
   10.7279   51.8522   85.4855 C   0  0  0  0  0  0  0  0  0  0  0  0
    8.1328   51.3995   85.2786 H   0  0  0  0  0  0  0  0  0  0  0  0
   10.5402   49.8027   82.2156 C   0  0  0  0  0  0  0  0  0  0  0  0
   13.0378   49.7832   82.2158 C   0  0  0  0  0  0  0  0  0  0  0  0
   11.7862   48.9581   81.8450 C   0  0  0  0  0  0  0  0  0  0  0  0
   11.8391   47.6409   82.6374 C   0  0  0  0  0  0  0  0  0  0  0  0
   11.8375   48.6676   80.3355 C   0  0  0  0  0  0  0  0  0  0  0  0
   13.4905   53.9146   87.1614 C   0  0  0  0  0  0  0  0  0  0  0  0
   13.4705   54.0042   88.6654 C   0  0  0  0  0  0  0  0  0  0  0  0
   12.5779   53.2315   89.4165 C   0  0  0  0  0  0  0  0  0  0  0  0
   12.5801   53.3014   90.8139 C   0  0  0  0  0  0  0  0  0  0  0  0
   13.4789   54.1357   91.4945 C   0  0  0  0  0  0  0  0  0  0  0  0
   14.3802   54.8962   90.7362 C   0  0  0  0  0  0  0  0  0  0  0  0
   14.3792   54.8285   89.3389 C   0  0  0  0  0  0  0  0  0  0  0  0
   13.4878   54.2125   92.9490 C   0  0  0  0  0  0  0  0  0  0  0  0
   13.1945   55.1769   93.8891 C   0  0  0  0  0  0  0  0  0  0  0  0
   13.3826   54.6852   95.1563 N   0  0  0  0  0  0  0  0  0  0  0  0
   13.7822   53.4469   94.9530 C   0  0  0  0  0  0  0  0  0  0  0  0
   14.1585   52.3793   96.2459 Cl  0  0  0  0  0  0  0  0  0  0  0  0
   13.8688   53.0892   93.6369 O   0  0  0  0  0  0  0  0  0  0  0  0
 15 16  1  0
 16 17  1  0
 16 18  1  0
 16 14  1  0
 14  5  1  0
  5  6  2  0
  5  7  1  0
  7  8  1  0
  8  9  1  0
  9 10  1  0
  9 11  1  0
 11 12  1  0
 12  1  1  0
  1  2  2  0
  1  3  1  0
  3 19  1  0
 19 20  1  0
 20 21  2  0
 21 22  1  0
 22 23  2  0
 23 26  1  0
 26 27  2  0
 27 28  1  0
 28 29  2  0
 29 30  1  0
 29 31  1  0
 23 24  1  0
 24 25  2  0
 12  7  1  0
 25 20  1  0
 31 26  1  0
 10 13  1  0
  3  4  1  0
M  END
> <minimizedAffinity>
-6.46701

> <CNNscore>
0.3619401157

> <CNNaffinity>
5.5156764984

> <CNN_VS>
1.9963445663

> <CNNaffinity_variance>
0.0714581907

$$$$



 31 33  0  0  0  0  0  0  0  0999 V2000
   13.5062   49.4289   91.8010 C   0  0  0  0  0  0  0  0  0  0  0  0
   14.6270   49.2351   91.3304 O   0  0  0  0  0  0  0  0  0  0  0  0
   13.2477   50.4583   92.6751 N   0  0  0  0  0  0  0  0  0  0  0  0
   12.3205   50.6026   92.9727 H   0  0  0  0  0  0  0  0  0  0  0  0
   12.1842   48.2014   89.0823 C   0  0  0  0  0  0  0  0  0  0  0  0
   12.0087   49.4120   88.9484 O   0  0  0  0  0  0  0  0  0  0  0  0
   12.4043   47.6481   90.3305 N   0  0  0  0  0  0  0  0  0  0  0  0
   12.2976   46.2273   90.6475 C   0  0  0  0  0  0  0  0  0  0  0  0
   11.6702   46.1919   92.0404 C   0  0  0  0  0  0  0  0  0  0  0  0
   10.2517   46.3247   91.9675 O   0  0  0  0  0  0  0  0  0  0  0  0
   12.2472   47.4294   92.7030 C   0  0  0  0  0  0  0  0  0  0  0  0
   12.3198   48.4592   91.5627 C   0  0  0  0  0  0  0  0  0  0  0  0
   10.0273   47.1464   91.5036 H   0  0  0  0  0  0  0  0  0  0  0  0
   12.2029   47.2351   87.8999 C   0  0  0  0  0  0  0  0  0  0  0  0
   14.6756   47.5607   87.7644 C   0  0  0  0  0  0  0  0  0  0  0  0
   13.4015   47.3343   86.9217 C   0  0  0  0  0  0  0  0  0  0  0  0
   13.5924   46.0359   86.1195 C   0  0  0  0  0  0  0  0  0  0  0  0
   13.2458   48.5276   85.9640 C   0  0  0  0  0  0  0  0  0  0  0  0
   14.2770   51.3345   93.1738 C   0  0  0  0  0  0  0  0  0  0  0  0
   13.6819   52.5886   93.7599 C   0  0  0  0  0  0  0  0  0  0  0  0
   13.7779   53.8099   93.0838 C   0  0  0  0  0  0  0  0  0  0  0  0
   13.2028   54.9664   93.6217 C   0  0  0  0  0  0  0  0  0  0  0  0
   12.5104   54.9296   94.8409 C   0  0  0  0  0  0  0  0  0  0  0  0
   12.4055   53.6997   95.5057 C   0  0  0  0  0  0  0  0  0  0  0  0
   12.9805   52.5423   94.9702 C   0  0  0  0  0  0  0  0  0  0  0  0
   11.9080   56.1294   95.4061 C   0  0  0  0  0  0  0  0  0  0  0  0
   12.3272   57.4163   95.6666 C   0  0  0  0  0  0  0  0  0  0  0  0
   11.3087   58.1501   96.2210 N   0  0  0  0  0  0  0  0  0  0  0  0
   10.3081   57.2961   96.2821 C   0  0  0  0  0  0  0  0  0  0  0  0
    8.7689   57.7286   96.9120 Cl  0  0  0  0  0  0  0  0  0  0  0  0
   10.5984   56.0492   95.8041 O   0  0  0  0  0  0  0  0  0  0  0  0
 15 16  1  0
 16 17  1  0
 16 18  1  0
 16 14  1  0
 14  5  1  0
  5  6  2  0
  5  7  1  0
  7  8  1  0
  8  9  1  0
  9 10  1  0
  9 11  1  0
 11 12  1  0
 12  1  1  0
  1  2  2  0
  1  3  1  0
  3 19  1  0
 19 20  1  0
 20 21  2  0
 21 22  1  0
 22 23  2  0
 23 26  1  0
 26 27  2  0
 27 28  1  0
 28 29  2  0
 29 30  1  0
 29 31  1  0
 23 24  1  0
 24 25  2  0
 12  7  1  0
 25 20  1  0
 31 26  1  0
 10 13  1  0
  3  4  1  0
M  END
> <minimizedAffinity>
-5.63520

> <CNNscore>
0.3261552751

> <CNNaffinity>
4.7525668144

> <CNN_VS>
1.5500746965

> <CNNaffinity_variance>
0.5357977748

$$$$
