


 22 25  0  0  0  0  0  0  0  0999 V2000
   30.7516   18.6936    1.7175 C   0  0  0  0  0  0  0  0  0  0  0  0
   31.5084   17.8241    0.7863 C   0  0  0  0  0  0  0  0  0  0  0  0
   32.8014   17.9351    0.5571 N   0  0  0  0  0  0  0  0  0  0  0  0
   33.1336   17.0799   -0.4556 N   0  0  0  0  0  0  0  0  0  0  0  0
   32.0397   16.4534   -0.8313 C   0  0  0  0  0  0  0  0  0  0  0  0
   30.9775   16.8536   -0.0493 N   0  0  0  0  0  0  0  0  0  0  0  0
   29.6765   16.2883   -0.0826 C   0  0  0  0  0  0  0  0  0  0  0  0
   28.9594   16.1463    1.1176 C   0  0  0  0  0  0  0  0  0  0  0  0
   27.7168   15.5071    1.1296 C   0  0  0  0  0  0  0  0  0  0  0  0
   27.1892   14.9945   -0.0499 C   0  0  0  0  0  0  0  0  0  0  0  0
   25.6687   14.1923   -0.0282 Cl  0  0  0  0  0  0  0  0  0  0  0  0
   27.8843   15.1288   -1.2484 C   0  0  0  0  0  0  0  0  0  0  0  0
   29.1232   15.7940   -1.2809 C   0  0  0  0  0  0  0  0  0  0  0  0
   29.7479   16.0018   -2.6286 C   0  0  0  0  0  0  0  0  0  0  0  0
   30.9929   15.8063   -2.9030 N   0  0  0  0  0  0  0  0  0  0  0  0
   31.9210   15.3952   -1.8589 C   0  0  0  0  0  0  0  0  0  0  0  0
   28.8757   16.4742   -3.7535 C   0  0  0  0  0  0  0  0  0  0  0  0
   29.2981   16.2685   -5.0725 C   0  0  0  0  0  0  0  0  0  0  0  0
   28.5051   16.6996   -6.1370 C   0  0  0  0  0  0  0  0  0  0  0  0
   27.2948   17.3459   -5.8880 C   0  0  0  0  0  0  0  0  0  0  0  0
   26.8788   17.5710   -4.5757 C   0  0  0  0  0  0  0  0  0  0  0  0
   27.6689   17.1419   -3.5071 C   0  0  0  0  0  0  0  0  0  0  0  0
  1  2  1  0
  2  3  2  0
  3  4  1  0
  4  5  2  0
  5  6  1  0
  6  7  1  0
  7  8  2  0
  8  9  1  0
  9 10  2  0
 10 11  1  0
 10 12  1  0
 12 13  2  0
 13 14  1  0
 14 17  1  0
 17 18  2  0
 18 19  1  0
 19 20  2  0
 20 21  1  0
 21 22  2  0
 14 15  2  0
 15 16  1  0
  6  2  1  0
 13  7  1  0
 22 17  1  0
 16  5  1  0
M  END
> <minimizedAffinity>
-8.75033

> <CNNscore>
0.9502214789

> <CNNaffinity>
6.1547107697

> <CNN_VS>
5.8483386040

> <CNNaffinity_variance>
0.0284282658

$$$$



 22 25  0  0  0  0  0  0  0  0999 V2000
   31.6232   19.2697    1.2899 C   0  0  0  0  0  0  0  0  0  0  0  0
   32.4823   18.2000    0.7298 C   0  0  0  0  0  0  0  0  0  0  0  0
   33.7998   18.2316    0.7343 N   0  0  0  0  0  0  0  0  0  0  0  0
   34.2579   17.1661    0.0118 N   0  0  0  0  0  0  0  0  0  0  0  0
   33.2145   16.4934   -0.4230 C   0  0  0  0  0  0  0  0  0  0  0  0
   32.0541   17.0784    0.0364 N   0  0  0  0  0  0  0  0  0  0  0  0
   30.7488   16.5457   -0.1233 C   0  0  0  0  0  0  0  0  0  0  0  0
   29.8173   16.6886    0.9192 C   0  0  0  0  0  0  0  0  0  0  0  0
   28.5564   16.0928    0.8299 C   0  0  0  0  0  0  0  0  0  0  0  0
   28.2224   15.3409   -0.2907 C   0  0  0  0  0  0  0  0  0  0  0  0
   26.6771   14.5939   -0.3888 Cl  0  0  0  0  0  0  0  0  0  0  0  0
   29.1315   15.1914   -1.3341 C   0  0  0  0  0  0  0  0  0  0  0  0
   30.3941   15.8082   -1.2708 C   0  0  0  0  0  0  0  0  0  0  0  0
   31.2659   15.6983   -2.4863 C   0  0  0  0  0  0  0  0  0  0  0  0
   32.5255   15.4222   -2.4686 N   0  0  0  0  0  0  0  0  0  0  0  0
   33.2205   15.2356   -1.2026 C   0  0  0  0  0  0  0  0  0  0  0  0
   30.6443   15.9256   -3.8323 C   0  0  0  0  0  0  0  0  0  0  0  0
   29.3352   16.4173   -3.9011 C   0  0  0  0  0  0  0  0  0  0  0  0
   28.7338   16.6364   -5.1413 C   0  0  0  0  0  0  0  0  0  0  0  0
   29.4329   16.3557   -6.3147 C   0  0  0  0  0  0  0  0  0  0  0  0
   30.7302   15.8469   -6.2515 C   0  0  0  0  0  0  0  0  0  0  0  0
   31.3362   15.6256   -5.0129 C   0  0  0  0  0  0  0  0  0  0  0  0
  1  2  1  0
  2  3  2  0
  3  4  1  0
  4  5  2  0
  5  6  1  0
  6  7  1  0
  7  8  2  0
  8  9  1  0
  9 10  2  0
 10 11  1  0
 10 12  1  0
 12 13  2  0
 13 14  1  0
 14 17  1  0
 17 18  2  0
 18 19  1  0
 19 20  2  0
 20 21  1  0
 21 22  2  0
 14 15  2  0
 15 16  1  0
  6  2  1  0
 13  7  1  0
 22 17  1  0
 16  5  1  0
M  END
> <minimizedAffinity>
-8.09239

> <CNNscore>
0.9195972681

> <CNNaffinity>
6.2267284393

> <CNN_VS>
5.7260823250

> <CNNaffinity_variance>
0.0830070004

$$$$



 22 25  0  0  0  0  0  0  0  0999 V2000
   32.0593   13.3995   -4.9685 C   0  0  0  0  0  0  0  0  0  0  0  0
   32.3844   14.2867   -3.8270 C   0  0  0  0  0  0  0  0  0  0  0  0
   33.5043   14.2212   -3.1355 N   0  0  0  0  0  0  0  0  0  0  0  0
   33.4057   15.0777   -2.0752 N   0  0  0  0  0  0  0  0  0  0  0  0
   32.2273   15.6594   -2.1333 C   0  0  0  0  0  0  0  0  0  0  0  0
   31.5456   15.2283   -3.2510 N   0  0  0  0  0  0  0  0  0  0  0  0
   30.3040   15.7448   -3.7035 C   0  0  0  0  0  0  0  0  0  0  0  0
   30.0765   15.8725   -5.0844 C   0  0  0  0  0  0  0  0  0  0  0  0
   28.9030   16.4654   -5.5577 C   0  0  0  0  0  0  0  0  0  0  0  0
   27.9575   16.9461   -4.6590 C   0  0  0  0  0  0  0  0  0  0  0  0
   26.5234   17.6916   -5.2448 Cl  0  0  0  0  0  0  0  0  0  0  0  0
   28.1649   16.8252   -3.2879 C   0  0  0  0  0  0  0  0  0  0  0  0
   29.3284   16.2059   -2.7968 C   0  0  0  0  0  0  0  0  0  0  0  0
   29.4181   16.0075   -1.3128 C   0  0  0  0  0  0  0  0  0  0  0  0
   30.4649   16.2459   -0.5983 N   0  0  0  0  0  0  0  0  0  0  0  0
   31.6969   16.7018   -1.2267 C   0  0  0  0  0  0  0  0  0  0  0  0
   28.2104   15.4916   -0.5883 C   0  0  0  0  0  0  0  0  0  0  0  0
   28.1051   15.7027    0.7918 C   0  0  0  0  0  0  0  0  0  0  0  0
   26.9918   15.2317    1.4893 C   0  0  0  0  0  0  0  0  0  0  0  0
   25.9869   14.5402    0.8138 C   0  0  0  0  0  0  0  0  0  0  0  0
   26.0964   14.3099   -0.5576 C   0  0  0  0  0  0  0  0  0  0  0  0
   27.2086   14.7788   -1.2600 C   0  0  0  0  0  0  0  0  0  0  0  0
  1  2  1  0
  2  3  2  0
  3  4  1  0
  4  5  2  0
  5  6  1  0
  6  7  1  0
  7  8  2  0
  8  9  1  0
  9 10  2  0
 10 11  1  0
 10 12  1  0
 12 13  2  0
 13 14  1  0
 14 17  1  0
 17 18  2  0
 18 19  1  0
 19 20  2  0
 20 21  1  0
 21 22  2  0
 14 15  2  0
 15 16  1  0
  6  2  1  0
 13  7  1  0
 22 17  1  0
 16  5  1  0
M  END
> <minimizedAffinity>
-8.25438

> <CNNscore>
0.4012074172

> <CNNaffinity>
5.3534455299

> <CNN_VS>
2.1478421688

> <CNNaffinity_variance>
0.0598733984

$$$$



 22 25  0  0  0  0  0  0  0  0999 V2000
   25.5216   10.4718    3.3001 C   0  0  0  0  0  0  0  0  0  0  0  0
   25.9309   11.8688    3.0226 C   0  0  0  0  0  0  0  0  0  0  0  0
   26.9675   12.4602    3.5815 N   0  0  0  0  0  0  0  0  0  0  0  0
   26.9615   13.7763    3.2138 N   0  0  0  0  0  0  0  0  0  0  0  0
   25.9227   13.9730    2.4311 C   0  0  0  0  0  0  0  0  0  0  0  0
   25.2496   12.7859    2.2372 N   0  0  0  0  0  0  0  0  0  0  0  0
   24.1636   12.5959    1.3442 C   0  0  0  0  0  0  0  0  0  0  0  0
   24.0601   11.3856    0.6375 C   0  0  0  0  0  0  0  0  0  0  0  0
   23.0567   11.2065   -0.3184 C   0  0  0  0  0  0  0  0  0  0  0  0
   22.1609   12.2356   -0.5849 C   0  0  0  0  0  0  0  0  0  0  0  0
   20.9392   12.0182   -1.7748 Cl  0  0  0  0  0  0  0  0  0  0  0  0
   22.2466   13.4399    0.1078 C   0  0  0  0  0  0  0  0  0  0  0  0
   23.2339   13.6250    1.0924 C   0  0  0  0  0  0  0  0  0  0  0  0
   23.1819   14.9032    1.8753 C   0  0  0  0  0  0  0  0  0  0  0  0
   24.2033   15.6387    2.1562 N   0  0  0  0  0  0  0  0  0  0  0  0
   25.5399   15.2289    1.7485 C   0  0  0  0  0  0  0  0  0  0  0  0
   21.8510   15.3766    2.3796 C   0  0  0  0  0  0  0  0  0  0  0  0
   21.4698   15.0604    3.6892 C   0  0  0  0  0  0  0  0  0  0  0  0
   20.2362   15.4882    4.1821 C   0  0  0  0  0  0  0  0  0  0  0  0
   19.3762   16.2228    3.3665 C   0  0  0  0  0  0  0  0  0  0  0  0
   19.7427   16.5235    2.0546 C   0  0  0  0  0  0  0  0  0  0  0  0
   20.9759   16.0974    1.5567 C   0  0  0  0  0  0  0  0  0  0  0  0
  1  2  1  0
  2  3  2  0
  3  4  1  0
  4  5  2  0
  5  6  1  0
  6  7  1  0
  7  8  2  0
  8  9  1  0
  9 10  2  0
 10 11  1  0
 10 12  1  0
 12 13  2  0
 13 14  1  0
 14 17  1  0
 17 18  2  0
 18 19  1  0
 19 20  2  0
 20 21  1  0
 21 22  2  0
 14 15  2  0
 15 16  1  0
  6  2  1  0
 13  7  1  0
 22 17  1  0
 16  5  1  0
M  END
> <minimizedAffinity>
-5.56920

> <CNNscore>
0.3284989595

> <CNNaffinity>
4.6662383080

> <CNN_VS>
1.5328544378

> <CNNaffinity_variance>
0.0740702823

$$$$



 22 25  0  0  0  0  0  0  0  0999 V2000
   26.6763   15.4054    1.1271 C   0  0  0  0  0  0  0  0  0  0  0  0
   26.6221   14.6804    2.4184 C   0  0  0  0  0  0  0  0  0  0  0  0
   27.6026   14.6639    3.2987 N   0  0  0  0  0  0  0  0  0  0  0  0
   27.2730   13.7865    4.2931 N   0  0  0  0  0  0  0  0  0  0  0  0
   26.0927   13.2794    4.0104 C   0  0  0  0  0  0  0  0  0  0  0  0
   25.6065   13.8407    2.8492 N   0  0  0  0  0  0  0  0  0  0  0  0
   24.3072   13.6311    2.3190 C   0  0  0  0  0  0  0  0  0  0  0  0
   23.6375   14.7011    1.7013 C   0  0  0  0  0  0  0  0  0  0  0  0
   22.3217   14.5510    1.2553 C   0  0  0  0  0  0  0  0  0  0  0  0
   21.6624   13.3403    1.4344 C   0  0  0  0  0  0  0  0  0  0  0  0
   20.0375   13.1652    0.9011 Cl  0  0  0  0  0  0  0  0  0  0  0  0
   22.3114   12.2689    2.0414 C   0  0  0  0  0  0  0  0  0  0  0  0
   23.6449   12.3962    2.4705 C   0  0  0  0  0  0  0  0  0  0  0  0
   24.3084   11.1609    3.0029 C   0  0  0  0  0  0  0  0  0  0  0  0
   25.0364   11.1143    4.0665 N   0  0  0  0  0  0  0  0  0  0  0  0
   25.3079   12.3264    4.8264 C   0  0  0  0  0  0  0  0  0  0  0  0
   24.1248    9.8741    2.2546 C   0  0  0  0  0  0  0  0  0  0  0  0
   24.8042    9.6897    1.0444 C   0  0  0  0  0  0  0  0  0  0  0  0
   24.6495    8.5018    0.3284 C   0  0  0  0  0  0  0  0  0  0  0  0
   23.8088    7.5002    0.8125 C   0  0  0  0  0  0  0  0  0  0  0  0
   23.1142    7.6869    2.0077 C   0  0  0  0  0  0  0  0  0  0  0  0
   23.2654    8.8739    2.7276 C   0  0  0  0  0  0  0  0  0  0  0  0
  1  2  1  0
  2  3  2  0
  3  4  1  0
  4  5  2  0
  5  6  1  0
  6  7  1  0
  7  8  2  0
  8  9  1  0
  9 10  2  0
 10 11  1  0
 10 12  1  0
 12 13  2  0
 13 14  1  0
 14 17  1  0
 17 18  2  0
 18 19  1  0
 19 20  2  0
 20 21  1  0
 21 22  2  0
 14 15  2  0
 15 16  1  0
  6  2  1  0
 13  7  1  0
 22 17  1  0
 16  5  1  0
M  END
> <minimizedAffinity>
-5.94526

> <CNNscore>
0.3268447220

> <CNNaffinity>
4.3238978386

> <CNN_VS>
1.4132431746

> <CNNaffinity_variance>
0.5982359052

$$$$



 22 25  0  0  0  0  0  0  0  0999 V2000
   27.9359   14.7713    3.3040 C   0  0  0  0  0  0  0  0  0  0  0  0
   27.2215   15.0092    2.0277 C   0  0  0  0  0  0  0  0  0  0  0  0
   25.9534   14.7140    1.8241 N   0  0  0  0  0  0  0  0  0  0  0  0
   25.6688   14.9269    0.5047 N   0  0  0  0  0  0  0  0  0  0  0  0
   26.7661   15.3534   -0.0822 C   0  0  0  0  0  0  0  0  0  0  0  0
   27.7802   15.4669    0.8443 N   0  0  0  0  0  0  0  0  0  0  0  0
   29.0606   16.0246    0.5937 C   0  0  0  0  0  0  0  0  0  0  0  0
   29.6819   16.7925    1.5933 C   0  0  0  0  0  0  0  0  0  0  0  0
   30.8983   17.4328    1.3420 C   0  0  0  0  0  0  0  0  0  0  0  0
   31.4944   17.3230    0.0909 C   0  0  0  0  0  0  0  0  0  0  0  0
   32.9815   18.1273   -0.2205 Cl  0  0  0  0  0  0  0  0  0  0  0  0
   30.8946   16.5640   -0.9100 C   0  0  0  0  0  0  0  0  0  0  0  0
   29.6843   15.8912   -0.6632 C   0  0  0  0  0  0  0  0  0  0  0  0
   29.1682   14.9990   -1.7528 C   0  0  0  0  0  0  0  0  0  0  0  0
   27.9411   14.9494   -2.1468 N   0  0  0  0  0  0  0  0  0  0  0  0
   26.9252   15.7639   -1.4950 C   0  0  0  0  0  0  0  0  0  0  0  0
   30.1364   14.0874   -2.4463 C   0  0  0  0  0  0  0  0  0  0  0  0
   31.2823   14.6357   -3.0352 C   0  0  0  0  0  0  0  0  0  0  0  0
   32.1983   13.8091   -3.6874 C   0  0  0  0  0  0  0  0  0  0  0  0
   31.9680   12.4359   -3.7627 C   0  0  0  0  0  0  0  0  0  0  0  0
   30.8180   11.8871   -3.1950 C   0  0  0  0  0  0  0  0  0  0  0  0
   29.8982   12.7102   -2.5416 C   0  0  0  0  0  0  0  0  0  0  0  0
  1  2  1  0
  2  3  2  0
  3  4  1  0
  4  5  2  0
  5  6  1  0
  6  7  1  0
  7  8  2  0
  8  9  1  0
  9 10  2  0
 10 11  1  0
 10 12  1  0
 12 13  2  0
 13 14  1  0
 14 17  1  0
 17 18  2  0
 18 19  1  0
 19 20  2  0
 20 21  1  0
 21 22  2  0
 14 15  2  0
 15 16  1  0
  6  2  1  0
 13  7  1  0
 22 17  1  0
 16  5  1  0
M  END
> <minimizedAffinity>
-7.16416

> <CNNscore>
0.3180751204

> <CNNaffinity>
5.2518725395

> <CNN_VS>
1.6704900265

> <CNNaffinity_variance>
0.2875108123

$$$$



 22 25  0  0  0  0  0  0  0  0999 V2000
   20.1819   10.9214    4.8395 C   0  0  0  0  0  0  0  0  0  0  0  0
   21.3577   11.0774    5.7279 C   0  0  0  0  0  0  0  0  0  0  0  0
   21.2831   11.4048    7.0022 N   0  0  0  0  0  0  0  0  0  0  0  0
   22.5517   11.6032    7.4701 N   0  0  0  0  0  0  0  0  0  0  0  0
   23.3872   11.3910    6.4765 C   0  0  0  0  0  0  0  0  0  0  0  0
   22.6899   11.0116    5.3497 N   0  0  0  0  0  0  0  0  0  0  0  0
   23.2741   10.5736    4.1332 C   0  0  0  0  0  0  0  0  0  0  0  0
   22.6531    9.5441    3.4055 C   0  0  0  0  0  0  0  0  0  0  0  0
   23.2544    9.0270    2.2550 C   0  0  0  0  0  0  0  0  0  0  0  0
   24.4823    9.5225    1.8316 C   0  0  0  0  0  0  0  0  0  0  0  0
   25.2278    8.8710    0.4260 Cl  0  0  0  0  0  0  0  0  0  0  0  0
   25.1102   10.5442    2.5382 C   0  0  0  0  0  0  0  0  0  0  0  0
   24.5040   11.0938    3.6824 C   0  0  0  0  0  0  0  0  0  0  0  0
   25.1865   12.2705    4.3143 C   0  0  0  0  0  0  0  0  0  0  0  0
   25.3720   12.4232    5.5813 N   0  0  0  0  0  0  0  0  0  0  0  0
   24.8656   11.4353    6.5238 C   0  0  0  0  0  0  0  0  0  0  0  0
   25.6961   13.3628    3.4217 C   0  0  0  0  0  0  0  0  0  0  0  0
   27.0017   13.8345    3.6038 C   0  0  0  0  0  0  0  0  0  0  0  0
   27.4993   14.8509    2.7870 C   0  0  0  0  0  0  0  0  0  0  0  0
   26.6924   15.4060    1.7945 C   0  0  0  0  0  0  0  0  0  0  0  0
   25.3842   14.9534    1.6220 C   0  0  0  0  0  0  0  0  0  0  0  0
   24.8816   13.9368    2.4369 C   0  0  0  0  0  0  0  0  0  0  0  0
  1  2  1  0
  2  3  2  0
  3  4  1  0
  4  5  2  0
  5  6  1  0
  6  7  1  0
  7  8  2  0
  8  9  1  0
  9 10  2  0
 10 11  1  0
 10 12  1  0
 12 13  2  0
 13 14  1  0
 14 17  1  0
 17 18  2  0
 18 19  1  0
 19 20  2  0
 20 21  1  0
 21 22  2  0
 14 15  2  0
 15 16  1  0
  6  2  1  0
 13  7  1  0
 22 17  1  0
 16  5  1  0
M  END
> <minimizedAffinity>
-5.44069

> <CNNscore>
0.2940928340

> <CNNaffinity>
4.8909220695

> <CNN_VS>
1.4383851290

> <CNNaffinity_variance>
0.7276781201

$$$$



 22 25  0  0  0  0  0  0  0  0999 V2000
   22.9856    8.6222    3.8311 C   0  0  0  0  0  0  0  0  0  0  0  0
   22.8995    9.4954    5.0253 C   0  0  0  0  0  0  0  0  0  0  0  0
   22.3962    9.1171    6.1830 N   0  0  0  0  0  0  0  0  0  0  0  0
   22.3398   10.2078    7.0043 N   0  0  0  0  0  0  0  0  0  0  0  0
   22.8127   11.2397    6.3397 C   0  0  0  0  0  0  0  0  0  0  0  0
   23.2251   10.8416    5.0861 N   0  0  0  0  0  0  0  0  0  0  0  0
   23.9092   11.6597    4.1503 C   0  0  0  0  0  0  0  0  0  0  0  0
   24.9160   11.0926    3.3504 C   0  0  0  0  0  0  0  0  0  0  0  0
   25.6714   11.8923    2.4887 C   0  0  0  0  0  0  0  0  0  0  0  0
   25.4375   13.2613    2.4294 C   0  0  0  0  0  0  0  0  0  0  0  0
   26.3813   14.2448    1.3818 Cl  0  0  0  0  0  0  0  0  0  0  0  0
   24.4422   13.8396    3.2122 C   0  0  0  0  0  0  0  0  0  0  0  0
   23.6552   13.0434    4.0638 C   0  0  0  0  0  0  0  0  0  0  0  0
   22.5270   13.7242    4.7802 C   0  0  0  0  0  0  0  0  0  0  0  0
   22.2368   13.5583    6.0259 N   0  0  0  0  0  0  0  0  0  0  0  0
   22.9966   12.6201    6.8401 C   0  0  0  0  0  0  0  0  0  0  0  0
   21.6588   14.6708    4.0059 C   0  0  0  0  0  0  0  0  0  0  0  0
   22.2061   15.3550    2.9138 C   0  0  0  0  0  0  0  0  0  0  0  0
   21.4194   16.2420    2.1775 C   0  0  0  0  0  0  0  0  0  0  0  0
   20.0889   16.4564    2.5355 C   0  0  0  0  0  0  0  0  0  0  0  0
   19.5444   15.7924    3.6348 C   0  0  0  0  0  0  0  0  0  0  0  0
   20.3275   14.9040    4.3748 C   0  0  0  0  0  0  0  0  0  0  0  0
  1  2  1  0
  2  3  2  0
  3  4  1  0
  4  5  2  0
  5  6  1  0
  6  7  1  0
  7  8  2  0
  8  9  1  0
  9 10  2  0
 10 11  1  0
 10 12  1  0
 12 13  2  0
 13 14  1  0
 14 17  1  0
 17 18  2  0
 18 19  1  0
 19 20  2  0
 20 21  1  0
 21 22  2  0
 14 15  2  0
 15 16  1  0
  6  2  1  0
 13  7  1  0
 22 17  1  0
 16  5  1  0
M  END
> <minimizedAffinity>
-5.12260

> <CNNscore>
0.2940478325

> <CNNaffinity>
5.0391573906

> <CNN_VS>
1.4817533493

> <CNNaffinity_variance>
0.2775907815

$$$$



 22 25  0  0  0  0  0  0  0  0999 V2000
   26.9129   13.8315    3.8004 C   0  0  0  0  0  0  0  0  0  0  0  0
   25.8960   13.0788    4.5719 C   0  0  0  0  0  0  0  0  0  0  0  0
   25.9943   12.8089    5.8581 N   0  0  0  0  0  0  0  0  0  0  0  0
   24.9634   11.9812    6.2038 N   0  0  0  0  0  0  0  0  0  0  0  0
   24.2447   11.7577    5.1249 C   0  0  0  0  0  0  0  0  0  0  0  0
   24.7639   12.4632    4.0606 N   0  0  0  0  0  0  0  0  0  0  0  0
   24.1679   12.5667    2.7772 C   0  0  0  0  0  0  0  0  0  0  0  0
   24.2490   13.7838    2.0793 C   0  0  0  0  0  0  0  0  0  0  0  0
   23.5913   13.9453    0.8570 C   0  0  0  0  0  0  0  0  0  0  0  0
   22.8390   12.9014    0.3310 C   0  0  0  0  0  0  0  0  0  0  0  0
   22.0161   13.1100   -1.1640 Cl  0  0  0  0  0  0  0  0  0  0  0  0
   22.7502   11.6878    1.0070 C   0  0  0  0  0  0  0  0  0  0  0  0
   23.4292   11.5011    2.2246 C   0  0  0  0  0  0  0  0  0  0  0  0
   23.3805   10.1281    2.8263 C   0  0  0  0  0  0  0  0  0  0  0  0
   23.1684    9.8758    4.0732 N   0  0  0  0  0  0  0  0  0  0  0  0
   22.9998   10.9640    5.0260 C   0  0  0  0  0  0  0  0  0  0  0  0
   23.5946    8.9474    1.9264 C   0  0  0  0  0  0  0  0  0  0  0  0
   24.4990    9.0592    0.8635 C   0  0  0  0  0  0  0  0  0  0  0  0
   24.7154    7.9754    0.0112 C   0  0  0  0  0  0  0  0  0  0  0  0
   24.0223    6.7820    0.2109 C   0  0  0  0  0  0  0  0  0  0  0  0
   23.1054    6.6719    1.2564 C   0  0  0  0  0  0  0  0  0  0  0  0
   22.8852    7.7536    2.1117 C   0  0  0  0  0  0  0  0  0  0  0  0
  1  2  1  0
  2  3  2  0
  3  4  1  0
  4  5  2  0
  5  6  1  0
  6  7  1  0
  7  8  2  0
  8  9  1  0
  9 10  2  0
 10 11  1  0
 10 12  1  0
 12 13  2  0
 13 14  1  0
 14 17  1  0
 17 18  2  0
 18 19  1  0
 19 20  2  0
 20 21  1  0
 21 22  2  0
 14 15  2  0
 15 16  1  0
  6  2  1  0
 13  7  1  0
 22 17  1  0
 16  5  1  0
M  END
> <minimizedAffinity>
-4.95737

> <CNNscore>
0.2535595298

> <CNNaffinity>
4.4187889099

> <CNN_VS>
1.1204260588

> <CNNaffinity_variance>
0.1314115375

$$$$
