


 17 18  0  0  0  0  0  0  0  0999 V2000
   14.2094   15.7849   19.2653 C   0  0  0  0  0  0  0  0  0  0  0  0
   15.5419   16.4028   19.5843 C   0  0  0  0  0  0  0  0  0  0  0  0
   16.4233   16.7196   18.5356 C   0  0  0  0  0  0  0  0  0  0  0  0
   17.6773   17.2750   18.7995 C   0  0  0  0  0  0  0  0  0  0  0  0
   18.7345   17.6461   17.4942 Cl  0  0  0  0  0  0  0  0  0  0  0  0
   18.0788   17.5225   20.1055 C   0  0  0  0  0  0  0  0  0  0  0  0
   17.2045   17.2162   21.1520 C   0  0  0  0  0  0  0  0  0  0  0  0
   17.5931   17.4628   22.5674 C   0  0  0  0  0  0  0  0  0  0  0  0
   18.7241   17.8814   22.7928 O   0  0  0  0  0  0  0  0  0  0  0  0
   16.6798   17.2265   23.5725 N   0  0  0  0  0  0  0  0  0  0  0  0
   15.5480   16.6998   23.2512 C   0  0  0  0  0  0  0  0  0  0  0  0
   14.6158   16.4499   24.2049 N   0  0  0  0  0  0  0  0  0  0  0  0
   15.1353   16.3318   22.0101 N   0  0  0  0  0  0  0  0  0  0  0  0
   15.9302   16.6793   20.9077 C   0  0  0  0  0  0  0  0  0  0  0  0
   14.8013   16.6744   25.1454 H   0  0  0  0  0  0  0  0  0  0  0  0
   13.7540   16.0440   23.9565 H   0  0  0  0  0  0  0  0  0  0  0  0
   14.2962   15.8319   21.8870 H   0  0  0  0  0  0  0  0  0  0  0  0
  1  2  1  0
  2  3  2  0
  3  4  1  0
  4  5  1  0
  4  6  2  0
  6  7  1  0
  7  8  1  0
  8  9  2  0
  8 10  1  0
 10 11  2  0
 11 12  1  0
 11 13  1  0
 13 14  1  0
 14  2  1  0
 14  7  2  0
 12 15  1  0
 12 16  1  0
 13 17  1  0
M  END
> <minimizedAffinity>
-7.67133

> <CNNscore>
0.9759082198

> <CNNaffinity>
5.8588585854

> <CNN_VS>
5.7177081108

> <CNNaffinity_variance>
0.1321989894

$$$$



 17 18  0  0  0  0  0  0  0  0999 V2000
   22.1304   21.1579   12.5585 C   0  0  0  0  0  0  0  0  0  0  0  0
   21.6530   19.7582   12.2895 C   0  0  0  0  0  0  0  0  0  0  0  0
   20.3006   19.5406   11.9721 C   0  0  0  0  0  0  0  0  0  0  0  0
   19.8208   18.2501   11.7376 C   0  0  0  0  0  0  0  0  0  0  0  0
   18.1594   18.0171   11.3569 Cl  0  0  0  0  0  0  0  0  0  0  0  0
   20.6716   17.1556   11.8164 C   0  0  0  0  0  0  0  0  0  0  0  0
   22.0184   17.3661   12.1247 C   0  0  0  0  0  0  0  0  0  0  0  0
   22.9663   16.2227   12.2215 C   0  0  0  0  0  0  0  0  0  0  0  0
   22.5203   15.0877   12.0870 O   0  0  0  0  0  0  0  0  0  0  0  0
   24.3039   16.4678   12.4471 N   0  0  0  0  0  0  0  0  0  0  0  0
   24.6680   17.6844   12.6683 C   0  0  0  0  0  0  0  0  0  0  0  0
   25.9738   17.9762   12.8938 N   0  0  0  0  0  0  0  0  0  0  0  0
   23.8726   18.7850   12.7149 N   0  0  0  0  0  0  0  0  0  0  0  0
   22.5267   18.6571   12.3409 C   0  0  0  0  0  0  0  0  0  0  0  0
   26.6473   17.2581   12.8851 H   0  0  0  0  0  0  0  0  0  0  0  0
   26.2478   18.9059   13.0662 H   0  0  0  0  0  0  0  0  0  0  0  0
   24.2332   19.6539   13.0051 H   0  0  0  0  0  0  0  0  0  0  0  0
  1  2  1  0
  2  3  2  0
  3  4  1  0
  4  5  1  0
  4  6  2  0
  6  7  1  0
  7  8  1  0
  8  9  2  0
  8 10  1  0
 10 11  2  0
 11 12  1  0
 11 13  1  0
 13 14  1  0
 14  2  1  0
 14  7  2  0
 12 15  1  0
 12 16  1  0
 13 17  1  0
M  END
> <minimizedAffinity>
-5.69734

> <CNNscore>
0.4855668247

> <CNNaffinity>
3.9652404785

> <CNN_VS>
1.9253891706

> <CNNaffinity_variance>
0.2182774991

$$$$



 17 18  0  0  0  0  0  0  0  0999 V2000
   21.1149   20.5787   12.3949 C   0  0  0  0  0  0  0  0  0  0  0  0
   20.3588   19.3458   11.9855 C   0  0  0  0  0  0  0  0  0  0  0  0
   18.9972   19.2309   12.3169 C   0  0  0  0  0  0  0  0  0  0  0  0
   18.2715   18.0891   11.9698 C   0  0  0  0  0  0  0  0  0  0  0  0
   16.6084   17.9771   12.3948 Cl  0  0  0  0  0  0  0  0  0  0  0  0
   18.8833   17.0430   11.2919 C   0  0  0  0  0  0  0  0  0  0  0  0
   20.2348   17.1542   10.9536 C   0  0  0  0  0  0  0  0  0  0  0  0
   20.9322   16.0573   10.2288 C   0  0  0  0  0  0  0  0  0  0  0  0
   20.3061   15.0286    9.9940 O   0  0  0  0  0  0  0  0  0  0  0  0
   22.2428   16.2289    9.8374 N   0  0  0  0  0  0  0  0  0  0  0  0
   22.8498   17.3041   10.2076 C   0  0  0  0  0  0  0  0  0  0  0  0
   24.1397   17.5192    9.8458 N   0  0  0  0  0  0  0  0  0  0  0  0
   22.3452   18.3144   10.9633 N   0  0  0  0  0  0  0  0  0  0  0  0
   20.9769   18.3030   11.2721 C   0  0  0  0  0  0  0  0  0  0  0  0
   24.6139   16.8548    9.2955 H   0  0  0  0  0  0  0  0  0  0  0  0
   24.6014   18.3398   10.1335 H   0  0  0  0  0  0  0  0  0  0  0  0
   22.9276   19.0390   11.2873 H   0  0  0  0  0  0  0  0  0  0  0  0
  1  2  1  0
  2  3  2  0
  3  4  1  0
  4  5  1  0
  4  6  2  0
  6  7  1  0
  7  8  1  0
  8  9  2  0
  8 10  1  0
 10 11  2  0
 11 12  1  0
 11 13  1  0
 13 14  1  0
 14  2  1  0
 14  7  2  0
 12 15  1  0
 12 16  1  0
 13 17  1  0
M  END
> <minimizedAffinity>
-5.06137

> <CNNscore>
0.4069553614

> <CNNaffinity>
4.0506787300

> <CNN_VS>
1.6484453678

> <CNNaffinity_variance>
0.0196735077

$$$$



 17 18  0  0  0  0  0  0  0  0999 V2000
   13.3878   21.5563   15.8500 C   0  0  0  0  0  0  0  0  0  0  0  0
   12.1089   20.9211   15.3806 C   0  0  0  0  0  0  0  0  0  0  0  0
   11.2876   21.6144   14.4741 C   0  0  0  0  0  0  0  0  0  0  0  0
   10.0827   21.0612   14.0349 C   0  0  0  0  0  0  0  0  0  0  0  0
    9.0978   21.9376   12.9298 Cl  0  0  0  0  0  0  0  0  0  0  0  0
    9.6714   19.8149   14.4884 C   0  0  0  0  0  0  0  0  0  0  0  0
   10.4868   19.1177   15.3842 C   0  0  0  0  0  0  0  0  0  0  0  0
   10.0855   17.7799   15.8980 C   0  0  0  0  0  0  0  0  0  0  0  0
    8.9917   17.3356   15.5644 O   0  0  0  0  0  0  0  0  0  0  0  0
   10.9472   17.0812   16.7164 N   0  0  0  0  0  0  0  0  0  0  0  0
   12.0345   17.6642   17.0898 C   0  0  0  0  0  0  0  0  0  0  0  0
   12.9151   17.0168   17.8939 N   0  0  0  0  0  0  0  0  0  0  0  0
   12.4442   18.9204   16.7732 N   0  0  0  0  0  0  0  0  0  0  0  0
   11.7131   19.6450   15.8202 C   0  0  0  0  0  0  0  0  0  0  0  0
   12.7263   16.0973   18.1909 H   0  0  0  0  0  0  0  0  0  0  0  0
   13.7427   17.4665   18.1802 H   0  0  0  0  0  0  0  0  0  0  0  0
   13.2375   19.3138   17.2036 H   0  0  0  0  0  0  0  0  0  0  0  0
  1  2  1  0
  2  3  2  0
  3  4  1  0
  4  5  1  0
  4  6  2  0
  6  7  1  0
  7  8  1  0
  8  9  2  0
  8 10  1  0
 10 11  2  0
 11 12  1  0
 11 13  1  0
 13 14  1  0
 14  2  1  0
 14  7  2  0
 12 15  1  0
 12 16  1  0
 13 17  1  0
M  END
> <minimizedAffinity>
-5.61473

> <CNNscore>
0.3845316768

> <CNNaffinity>
4.3847618103

> <CNN_VS>
1.6860798597

> <CNNaffinity_variance>
0.0662987605

$$$$



 17 18  0  0  0  0  0  0  0  0999 V2000
   15.3894   18.0197   15.5659 C   0  0  0  0  0  0  0  0  0  0  0  0
   13.9600   18.4699   15.4507 C   0  0  0  0  0  0  0  0  0  0  0  0
   13.6837   19.8076   15.1171 C   0  0  0  0  0  0  0  0  0  0  0  0
   12.3667   20.2629   15.0229 C   0  0  0  0  0  0  0  0  0  0  0  0
   12.0626   21.9070   14.6182 Cl  0  0  0  0  0  0  0  0  0  0  0  0
   11.3036   19.4018   15.2601 C   0  0  0  0  0  0  0  0  0  0  0  0
   11.5715   18.0692   15.5854 C   0  0  0  0  0  0  0  0  0  0  0  0
   10.4637   17.1112   15.8496 C   0  0  0  0  0  0  0  0  0  0  0  0
    9.3135   17.5380   15.8372 O   0  0  0  0  0  0  0  0  0  0  0  0
   10.7561   15.7853   16.0883 N   0  0  0  0  0  0  0  0  0  0  0  0
   11.9961   15.4443   16.1743 C   0  0  0  0  0  0  0  0  0  0  0  0
   12.3343   14.1509   16.4063 N   0  0  0  0  0  0  0  0  0  0  0  0
   13.0812   16.2545   16.0626 N   0  0  0  0  0  0  0  0  0  0  0  0
   12.8874   17.5849   15.6623 C   0  0  0  0  0  0  0  0  0  0  0  0
   11.6315   13.4687   16.5058 H   0  0  0  0  0  0  0  0  0  0  0  0
   13.2823   13.8947   16.4751 H   0  0  0  0  0  0  0  0  0  0  0  0
   13.9843   15.9151   16.2584 H   0  0  0  0  0  0  0  0  0  0  0  0
  1  2  1  0
  2  3  2  0
  3  4  1  0
  4  5  1  0
  4  6  2  0
  6  7  1  0
  7  8  1  0
  8  9  2  0
  8 10  1  0
 10 11  2  0
 11 12  1  0
 11 13  1  0
 13 14  1  0
 14  2  1  0
 14  7  2  0
 12 15  1  0
 12 16  1  0
 13 17  1  0
M  END
> <minimizedAffinity>
-5.74671

> <CNNscore>
0.3735376596

> <CNNaffinity>
4.5054283142

> <CNN_VS>
1.6829471588

> <CNNaffinity_variance>
0.1102093384

$$$$



 17 18  0  0  0  0  0  0  0  0999 V2000
   12.0978   20.7209   17.0569 C   0  0  0  0  0  0  0  0  0  0  0  0
   11.3828   19.5925   16.3678 C   0  0  0  0  0  0  0  0  0  0  0  0
   10.4056   19.8850   15.4000 C   0  0  0  0  0  0  0  0  0  0  0  0
    9.7081   18.8600   14.7569 C   0  0  0  0  0  0  0  0  0  0  0  0
    8.5146   19.2514   13.5814 Cl  0  0  0  0  0  0  0  0  0  0  0  0
    9.9653   17.5305   15.0639 C   0  0  0  0  0  0  0  0  0  0  0  0
   10.9404   17.2331   16.0201 C   0  0  0  0  0  0  0  0  0  0  0  0
   11.2483   15.8228   16.3822 C   0  0  0  0  0  0  0  0  0  0  0  0
   10.5791   14.9331   15.8663 O   0  0  0  0  0  0  0  0  0  0  0  0
   12.2703   15.5577   17.2685 N   0  0  0  0  0  0  0  0  0  0  0  0
   12.8582   16.5570   17.8317 C   0  0  0  0  0  0  0  0  0  0  0  0
   13.8710   16.3470   18.7099 N   0  0  0  0  0  0  0  0  0  0  0  0
   12.5823   17.8764   17.6602 N   0  0  0  0  0  0  0  0  0  0  0  0
   11.6698   18.2472   16.6615 C   0  0  0  0  0  0  0  0  0  0  0  0
   14.1616   15.4292   18.9159 H   0  0  0  0  0  0  0  0  0  0  0  0
   14.3153   17.1125   19.1411 H   0  0  0  0  0  0  0  0  0  0  0  0
   13.0138   18.5576   18.2250 H   0  0  0  0  0  0  0  0  0  0  0  0
  1  2  1  0
  2  3  2  0
  3  4  1  0
  4  5  1  0
  4  6  2  0
  6  7  1  0
  7  8  1  0
  8  9  2  0
  8 10  1  0
 10 11  2  0
 11 12  1  0
 11 13  1  0
 13 14  1  0
 14  2  1  0
 14  7  2  0
 12 15  1  0
 12 16  1  0
 13 17  1  0
M  END
> <minimizedAffinity>
-5.91799

> <CNNscore>
0.2549372315

> <CNNaffinity>
3.8684530258

> <CNN_VS>
0.9862127304

> <CNNaffinity_variance>
0.6043661237

$$$$



 17 18  0  0  0  0  0  0  0  0999 V2000
   13.9878   19.7407   12.8414 C   0  0  0  0  0  0  0  0  0  0  0  0
   12.6943   19.2450   13.4249 C   0  0  0  0  0  0  0  0  0  0  0  0
   11.5398   20.0402   13.3159 C   0  0  0  0  0  0  0  0  0  0  0  0
   10.3273   19.6182   13.8658 C   0  0  0  0  0  0  0  0  0  0  0  0
    8.9344   20.6170   13.7200 Cl  0  0  0  0  0  0  0  0  0  0  0  0
   10.2400   18.4042   14.5342 C   0  0  0  0  0  0  0  0  0  0  0  0
   11.3825   17.6061   14.6399 C   0  0  0  0  0  0  0  0  0  0  0  0
   11.3362   16.2982   15.3488 C   0  0  0  0  0  0  0  0  0  0  0  0
   10.2860   15.9708   15.8920 O   0  0  0  0  0  0  0  0  0  0  0  0
   12.4574   15.4965   15.3669 N   0  0  0  0  0  0  0  0  0  0  0  0
   13.5431   15.9614   14.8504 C   0  0  0  0  0  0  0  0  0  0  0  0
   14.6723   15.2093   14.8427 N   0  0  0  0  0  0  0  0  0  0  0  0
   13.7257   17.1814   14.2806 N   0  0  0  0  0  0  0  0  0  0  0  0
   12.6057   18.0003   14.0740 C   0  0  0  0  0  0  0  0  0  0  0  0
   14.6633   14.3038   15.2291 H   0  0  0  0  0  0  0  0  0  0  0  0
   15.5007   15.5690   14.4508 H   0  0  0  0  0  0  0  0  0  0  0  0
   14.6250   17.4841   14.0184 H   0  0  0  0  0  0  0  0  0  0  0  0
  1  2  1  0
  2  3  2  0
  3  4  1  0
  4  5  1  0
  4  6  2  0
  6  7  1  0
  7  8  1  0
  8  9  2  0
  8 10  1  0
 10 11  2  0
 11 12  1  0
 11 13  1  0
 13 14  1  0
 14  2  1  0
 14  7  2  0
 12 15  1  0
 12 16  1  0
 13 17  1  0
M  END
> <minimizedAffinity>
-5.16759

> <CNNscore>
0.2254384011

> <CNNaffinity>
4.1407051086

> <CNN_VS>
0.9334739447

> <CNNaffinity_variance>
0.0397390127

$$$$



 17 18  0  0  0  0  0  0  0  0999 V2000
   12.1904   15.2004   18.0700 C   0  0  0  0  0  0  0  0  0  0  0  0
   13.4141   15.8039   17.4393 C   0  0  0  0  0  0  0  0  0  0  0  0
   13.4518   15.9869   16.0457 C   0  0  0  0  0  0  0  0  0  0  0  0
   14.5820   16.5253   15.4263 C   0  0  0  0  0  0  0  0  0  0  0  0
   14.5986   16.7312   13.7186 Cl  0  0  0  0  0  0  0  0  0  0  0  0
   15.6926   16.8880   16.1767 C   0  0  0  0  0  0  0  0  0  0  0  0
   15.6586   16.7150   17.5632 C   0  0  0  0  0  0  0  0  0  0  0  0
   16.8263   17.0880   18.4071 C   0  0  0  0  0  0  0  0  0  0  0  0
   17.8409   17.4905   17.8467 O   0  0  0  0  0  0  0  0  0  0  0  0
   16.7337   16.9818   19.7784 N   0  0  0  0  0  0  0  0  0  0  0  0
   15.6635   16.4624   20.2749 C   0  0  0  0  0  0  0  0  0  0  0  0
   15.5248   16.3382   21.6189 N   0  0  0  0  0  0  0  0  0  0  0  0
   14.5883   15.9867   19.5939 N   0  0  0  0  0  0  0  0  0  0  0  0
   14.5238   16.1976   18.2086 C   0  0  0  0  0  0  0  0  0  0  0  0
   16.2413   16.6487   22.2185 H   0  0  0  0  0  0  0  0  0  0  0  0
   14.7078   15.9375   21.9945 H   0  0  0  0  0  0  0  0  0  0  0  0
   13.8696   15.5041   20.0628 H   0  0  0  0  0  0  0  0  0  0  0  0
  1  2  1  0
  2  3  2  0
  3  4  1  0
  4  5  1  0
  4  6  2  0
  6  7  1  0
  7  8  1  0
  8  9  2  0
  8 10  1  0
 10 11  2  0
 11 12  1  0
 11 13  1  0
 13 14  1  0
 14  2  1  0
 14  7  2  0
 12 15  1  0
 12 16  1  0
 13 17  1  0
M  END
> <minimizedAffinity>
-6.09813

> <CNNscore>
0.1953440160

> <CNNaffinity>
4.4670100212

> <CNN_VS>
0.8726036549

> <CNNaffinity_variance>
0.2740089595

$$$$



 17 18  0  0  0  0  0  0  0  0999 V2000
   16.5863   17.4861   16.8355 C   0  0  0  0  0  0  0  0  0  0  0  0
   15.2010   17.3034   16.2815 C   0  0  0  0  0  0  0  0  0  0  0  0
   14.7871   18.0861   15.1892 C   0  0  0  0  0  0  0  0  0  0  0  0
   13.4994   17.9558   14.6644 C   0  0  0  0  0  0  0  0  0  0  0  0
   13.0220   18.9322   13.3310 Cl  0  0  0  0  0  0  0  0  0  0  0  0
   12.6012   17.0510   15.2146 C   0  0  0  0  0  0  0  0  0  0  0  0
   13.0090   16.2653   16.2962 C   0  0  0  0  0  0  0  0  0  0  0  0
   12.0796   15.2837   16.9189 C   0  0  0  0  0  0  0  0  0  0  0  0
   10.9281   15.2294   16.4989 O   0  0  0  0  0  0  0  0  0  0  0  0
   12.5351   14.4660   17.9309 N   0  0  0  0  0  0  0  0  0  0  0  0
   13.7316   14.6560   18.3711 C   0  0  0  0  0  0  0  0  0  0  0  0
   14.2256   13.8756   19.3651 N   0  0  0  0  0  0  0  0  0  0  0  0
   14.6218   15.5940   17.9539 N   0  0  0  0  0  0  0  0  0  0  0  0
   14.3065   16.3633   16.8241 C   0  0  0  0  0  0  0  0  0  0  0  0
   13.6711   13.1588   19.7498 H   0  0  0  0  0  0  0  0  0  0  0  0
   15.1385   14.0260   19.7015 H   0  0  0  0  0  0  0  0  0  0  0  0
   15.4702   15.7307   18.4343 H   0  0  0  0  0  0  0  0  0  0  0  0
  1  2  1  0
  2  3  2  0
  3  4  1  0
  4  5  1  0
  4  6  2  0
  6  7  1  0
  7  8  1  0
  8  9  2  0
  8 10  1  0
 10 11  2  0
 11 12  1  0
 11 13  1  0
 13 14  1  0
 14  2  1  0
 14  7  2  0
 12 15  1  0
 12 16  1  0
 13 17  1  0
M  END
> <minimizedAffinity>
-5.99103

> <CNNscore>
0.1930517703

> <CNNaffinity>
3.6045827866

> <CNN_VS>
0.6958711147

> <CNNaffinity_variance>
1.8092546463

$$$$
