


 27 28  0  0  0  0  0  0  0  0999 V2000
   28.6433   22.3164   -0.2492 C   0  0  0  0  0  0  0  0  0  0  0  0
   29.9240   22.0324    0.5284 C   0  0  0  0  0  0  0  0  0  0  0  0
   30.4553   23.2752    1.2496 C   0  0  0  0  0  0  0  0  0  0  0  0
   31.8312   23.0096    1.5639 O   0  0  0  0  0  0  0  0  0  0  0  0
   30.4610   24.4847    0.3603 C   0  0  0  0  0  0  0  0  0  0  0  0
   29.7670   24.6109   -0.7845 C   0  0  0  0  0  0  0  0  0  0  0  0
   28.8655   23.4952   -1.2124 C   0  0  0  0  0  0  0  0  0  0  0  0
   28.2893   23.5487   -2.2996 O   0  0  0  0  0  0  0  0  0  0  0  0
   31.8867   22.2318    2.1409 H   0  0  0  0  0  0  0  0  0  0  0  0
   29.7008   23.5142    2.5816 C   0  0  0  0  0  0  0  0  0  0  0  0
   28.6577   22.9483    2.8878 O   0  0  0  0  0  0  0  0  0  0  0  0
   30.2703   24.3963    3.4236 O   0  0  0  0  0  0  0  0  0  0  0  0
   31.0678   24.8255    3.1833 H   0  0  0  0  0  0  0  0  0  0  0  0
   27.4118   21.3643    1.5392 C   0  0  0  0  0  0  0  0  0  0  0  0
   27.5873   22.4911    0.6869 O   0  0  0  0  0  0  0  0  0  0  0  0
   29.8047   25.8506   -1.6391 C   0  0  0  0  0  0  0  0  0  0  0  0
   28.6101   25.9419   -2.5882 C   0  0  0  0  0  0  0  0  0  0  0  0
   27.9734   27.3224   -2.5632 C   0  0  0  0  0  0  0  0  0  0  0  0
   26.7611   27.4810   -2.6442 O   0  0  0  0  0  0  0  0  0  0  0  0
   28.9293   28.3153   -2.4155 N   0  0  0  0  0  0  0  0  0  0  0  0
   29.8647   28.0130   -2.3615 H   0  0  0  0  0  0  0  0  0  0  0  0
   28.7200   29.7075   -2.3335 C   0  0  0  0  0  0  0  0  0  0  0  0
   27.8062   30.2701   -3.2353 C   0  0  0  0  0  0  0  0  0  0  0  0
   27.5418   31.6424   -3.2219 C   0  0  0  0  0  0  0  0  0  0  0  0
   28.1891   32.4664   -2.3060 C   0  0  0  0  0  0  0  0  0  0  0  0
   29.0988   31.9170   -1.4061 C   0  0  0  0  0  0  0  0  0  0  0  0
   29.3635   30.5433   -1.4195 C   0  0  0  0  0  0  0  0  0  0  0  0
 14 15  1  0
  1 15  1  0
  1  2  1  0
  2  3  1  0
  3  4  1  0
  3 10  1  0
 10 11  2  0
 10 12  1  0
  3  5  1  0
  5  6  2  0
  6 16  1  0
 16 17  1  0
 17 18  1  0
 18 19  2  0
 18 20  1  0
 20 22  1  0
 22 23  2  0
 23 24  1  0
 24 25  2  0
 25 26  1  0
 26 27  2  0
  6  7  1  0
  7  8  2  0
  7  1  1  0
 27 22  1  0
  4  9  1  0
 12 13  1  0
 20 21  1  0
M  END
> <minimizedAffinity>
-9.46885

> <CNNscore>
0.5989583731

> <CNNaffinity>
5.7513051033

> <CNN_VS>
3.4447922707

> <CNNaffinity_variance>
0.0245532971

$$$$



 27 28  0  0  0  0  0  0  0  0999 V2000
   30.0571   23.7313    1.6489 C   0  0  0  0  0  0  0  0  0  0  0  0
   28.5433   23.5662    1.7312 C   0  0  0  0  0  0  0  0  0  0  0  0
   27.9348   23.1030    0.4038 C   0  0  0  0  0  0  0  0  0  0  0  0
   26.5310   23.3981    0.4715 O   0  0  0  0  0  0  0  0  0  0  0  0
   28.4651   23.8843   -0.7634 C   0  0  0  0  0  0  0  0  0  0  0  0
   29.5830   24.6315   -0.7550 C   0  0  0  0  0  0  0  0  0  0  0  0
   30.4194   24.6708    0.4858 C   0  0  0  0  0  0  0  0  0  0  0  0
   31.3974   25.4166    0.5485 O   0  0  0  0  0  0  0  0  0  0  0  0
   26.1347   22.9158    1.2139 H   0  0  0  0  0  0  0  0  0  0  0  0
   28.0907   21.5724    0.2209 C   0  0  0  0  0  0  0  0  0  0  0  0
   27.7737   20.7465    1.0690 O   0  0  0  0  0  0  0  0  0  0  0  0
   28.5987   21.1756   -0.9605 O   0  0  0  0  0  0  0  0  0  0  0  0
   28.8390   21.8121   -1.6047 H   0  0  0  0  0  0  0  0  0  0  0  0
   30.6978   21.9211    0.2581 C   0  0  0  0  0  0  0  0  0  0  0  0
   30.6401   22.4360    1.5842 O   0  0  0  0  0  0  0  0  0  0  0  0
   30.0742   25.3939   -1.9576 C   0  0  0  0  0  0  0  0  0  0  0  0
   28.9804   25.5994   -3.0052 C   0  0  0  0  0  0  0  0  0  0  0  0
   28.3367   26.9718   -2.8876 C   0  0  0  0  0  0  0  0  0  0  0  0
   27.1294   27.1370   -3.0162 O   0  0  0  0  0  0  0  0  0  0  0  0
   29.2790   27.9472   -2.6013 N   0  0  0  0  0  0  0  0  0  0  0  0
   30.2118   27.6413   -2.5269 H   0  0  0  0  0  0  0  0  0  0  0  0
   29.0591   29.3262   -2.4040 C   0  0  0  0  0  0  0  0  0  0  0  0
   28.3533   30.0097   -3.4036 C   0  0  0  0  0  0  0  0  0  0  0  0
   28.0937   31.3780   -3.2866 C   0  0  0  0  0  0  0  0  0  0  0  0
   28.5379   32.0769   -2.1681 C   0  0  0  0  0  0  0  0  0  0  0  0
   29.2401   31.4067   -1.1696 C   0  0  0  0  0  0  0  0  0  0  0  0
   29.5000   30.0371   -1.2867 C   0  0  0  0  0  0  0  0  0  0  0  0
 14 15  1  0
  1 15  1  0
  1  2  1  0
  2  3  1  0
  3  4  1  0
  3 10  1  0
 10 11  2  0
 10 12  1  0
  3  5  1  0
  5  6  2  0
  6 16  1  0
 16 17  1  0
 17 18  1  0
 18 19  2  0
 18 20  1  0
 20 22  1  0
 22 23  2  0
 23 24  1  0
 24 25  2  0
 25 26  1  0
 26 27  2  0
  6  7  1  0
  7  8  2  0
  7  1  1  0
 27 22  1  0
  4  9  1  0
 12 13  1  0
 20 21  1  0
M  END
> <minimizedAffinity>
-6.75278

> <CNNscore>
0.4466575384

> <CNNaffinity>
5.6236610413

> <CNN_VS>
2.5118505955

> <CNNaffinity_variance>
0.1346305162

$$$$



 27 28  0  0  0  0  0  0  0  0999 V2000
   19.3127   25.5750    4.4151 C   0  0  0  0  0  0  0  0  0  0  0  0
   19.0080   24.6128    5.5583 C   0  0  0  0  0  0  0  0  0  0  0  0
   19.4565   25.1614    6.9165 C   0  0  0  0  0  0  0  0  0  0  0  0
   19.5211   24.0393    7.8104 O   0  0  0  0  0  0  0  0  0  0  0  0
   20.8455   25.7289    6.8654 C   0  0  0  0  0  0  0  0  0  0  0  0
   21.5026   26.0754    5.7446 C   0  0  0  0  0  0  0  0  0  0  0  0
   20.8056   25.9461    4.4262 C   0  0  0  0  0  0  0  0  0  0  0  0
   21.4153   26.1716    3.3802 O   0  0  0  0  0  0  0  0  0  0  0  0
   18.6438   23.6314    7.8813 H   0  0  0  0  0  0  0  0  0  0  0  0
   18.4203   26.1632    7.4849 C   0  0  0  0  0  0  0  0  0  0  0  0
   17.3127   25.8406    7.8986 O   0  0  0  0  0  0  0  0  0  0  0  0
   18.8108   27.4508    7.5154 O   0  0  0  0  0  0  0  0  0  0  0  0
   19.6589   27.6908    7.1975 H   0  0  0  0  0  0  0  0  0  0  0  0
   17.1078   26.3631    4.0421 C   0  0  0  0  0  0  0  0  0  0  0  0
   18.4156   26.6740    4.5112 O   0  0  0  0  0  0  0  0  0  0  0  0
   22.8967   26.6458    5.7492 C   0  0  0  0  0  0  0  0  0  0  0  0
   23.0647   27.7683    6.7729 C   0  0  0  0  0  0  0  0  0  0  0  0
   24.1381   27.4408    7.7986 C   0  0  0  0  0  0  0  0  0  0  0  0
   24.3072   26.3037    8.2226 O   0  0  0  0  0  0  0  0  0  0  0  0
   24.8709   28.5674    8.1381 N   0  0  0  0  0  0  0  0  0  0  0  0
   24.6044   29.4073    7.6989 H   0  0  0  0  0  0  0  0  0  0  0  0
   25.9530   28.6525    9.0384 C   0  0  0  0  0  0  0  0  0  0  0  0
   27.1557   29.1754    8.5436 C   0  0  0  0  0  0  0  0  0  0  0  0
   28.2771   29.2929    9.3693 C   0  0  0  0  0  0  0  0  0  0  0  0
   28.2070   28.8881   10.6991 C   0  0  0  0  0  0  0  0  0  0  0  0
   27.0166   28.3671   11.2000 C   0  0  0  0  0  0  0  0  0  0  0  0
   25.8941   28.2495   10.3733 C   0  0  0  0  0  0  0  0  0  0  0  0
 14 15  1  0
  1 15  1  0
  1  2  1  0
  2  3  1  0
  3  4  1  0
  3 10  1  0
 10 11  2  0
 10 12  1  0
  3  5  1  0
  5  6  2  0
  6 16  1  0
 16 17  1  0
 17 18  1  0
 18 19  2  0
 18 20  1  0
 20 22  1  0
 22 23  2  0
 23 24  1  0
 24 25  2  0
 25 26  1  0
 26 27  2  0
  6  7  1  0
  7  8  2  0
  7  1  1  0
 27 22  1  0
  4  9  1  0
 12 13  1  0
 20 21  1  0
M  END
> <minimizedAffinity>
-5.06740

> <CNNscore>
0.3413879871

> <CNNaffinity>
3.2937982082

> <CNN_VS>
1.1244630814

> <CNNaffinity_variance>
0.8287211061

$$$$



 27 28  0  0  0  0  0  0  0  0999 V2000
   18.2106   27.0698    2.7500 C   0  0  0  0  0  0  0  0  0  0  0  0
   19.1601   27.1214    1.5578 C   0  0  0  0  0  0  0  0  0  0  0  0
   20.3837   26.2194    1.7481 C   0  0  0  0  0  0  0  0  0  0  0  0
   21.3737   26.6686    0.8098 O   0  0  0  0  0  0  0  0  0  0  0  0
   20.9993   26.3826    3.1076 C   0  0  0  0  0  0  0  0  0  0  0  0
   20.3951   26.9380    4.1728 C   0  0  0  0  0  0  0  0  0  0  0  0
   18.9759   27.3960    4.0441 C   0  0  0  0  0  0  0  0  0  0  0  0
   18.4306   27.9879    4.9763 O   0  0  0  0  0  0  0  0  0  0  0  0
   21.0262   26.5846   -0.0919 H   0  0  0  0  0  0  0  0  0  0  0  0
   20.0479   24.7439    1.4154 C   0  0  0  0  0  0  0  0  0  0  0  0
   20.4481   23.7875    2.0689 O   0  0  0  0  0  0  0  0  0  0  0  0
   19.2579   24.5538    0.3426 O   0  0  0  0  0  0  0  0  0  0  0  0
   18.9554   25.2894   -0.1527 H   0  0  0  0  0  0  0  0  0  0  0  0
   16.4553   25.7664    1.8325 C   0  0  0  0  0  0  0  0  0  0  0  0
   17.5535   25.8088    2.7375 O   0  0  0  0  0  0  0  0  0  0  0  0
   21.0577   27.0737    5.5187 C   0  0  0  0  0  0  0  0  0  0  0  0
   22.5655   26.8320    5.4540 C   0  0  0  0  0  0  0  0  0  0  0  0
   23.1142   26.3299    6.7801 C   0  0  0  0  0  0  0  0  0  0  0  0
   22.7066   25.3001    7.3044 O   0  0  0  0  0  0  0  0  0  0  0  0
   24.1121   27.1634    7.2604 N   0  0  0  0  0  0  0  0  0  0  0  0
   24.3214   27.9522    6.7097 H   0  0  0  0  0  0  0  0  0  0  0  0
   24.8630   27.0149    8.4448 C   0  0  0  0  0  0  0  0  0  0  0  0
   24.2947   26.2448    9.4688 C   0  0  0  0  0  0  0  0  0  0  0  0
   24.9721   26.0489   10.6755 C   0  0  0  0  0  0  0  0  0  0  0  0
   26.2254   26.6217   10.8704 C   0  0  0  0  0  0  0  0  0  0  0  0
   26.7984   27.3887    9.8590 C   0  0  0  0  0  0  0  0  0  0  0  0
   26.1202   27.5848    8.6511 C   0  0  0  0  0  0  0  0  0  0  0  0
 14 15  1  0
  1 15  1  0
  1  2  1  0
  2  3  1  0
  3  4  1  0
  3 10  1  0
 10 11  2  0
 10 12  1  0
  3  5  1  0
  5  6  2  0
  6 16  1  0
 16 17  1  0
 17 18  1  0
 18 19  2  0
 18 20  1  0
 20 22  1  0
 22 23  2  0
 23 24  1  0
 24 25  2  0
 25 26  1  0
 26 27  2  0
  6  7  1  0
  7  8  2  0
  7  1  1  0
 27 22  1  0
  4  9  1  0
 12 13  1  0
 20 21  1  0
M  END
> <minimizedAffinity>
-5.79961

> <CNNscore>
0.3253517747

> <CNNaffinity>
3.7036113739

> <CNN_VS>
1.2049765587

> <CNNaffinity_variance>
0.2182355374

$$$$



 27 28  0  0  0  0  0  0  0  0999 V2000
   34.0126   35.6562   -8.7707 C   0  0  0  0  0  0  0  0  0  0  0  0
   33.0593   35.8646   -7.5988 C   0  0  0  0  0  0  0  0  0  0  0  0
   32.9398   37.3389   -7.2001 C   0  0  0  0  0  0  0  0  0  0  0  0
   32.3930   37.3612   -5.8724 O   0  0  0  0  0  0  0  0  0  0  0  0
   34.2802   38.0087   -7.1059 C   0  0  0  0  0  0  0  0  0  0  0  0
   35.4213   37.5428   -7.6435 C   0  0  0  0  0  0  0  0  0  0  0  0
   35.3807   36.2833   -8.4514 C   0  0  0  0  0  0  0  0  0  0  0  0
   36.4248   35.7890   -8.8782 O   0  0  0  0  0  0  0  0  0  0  0  0
   31.5203   36.9378   -5.8749 H   0  0  0  0  0  0  0  0  0  0  0  0
   31.9576   38.0924   -8.1317 C   0  0  0  0  0  0  0  0  0  0  0  0
   30.7681   38.2537   -7.8844 O   0  0  0  0  0  0  0  0  0  0  0  0
   32.4924   38.5902   -9.2619 O   0  0  0  0  0  0  0  0  0  0  0  0
   33.4025   38.4633   -9.4450 H   0  0  0  0  0  0  0  0  0  0  0  0
   34.1718   35.9631  -11.1164 C   0  0  0  0  0  0  0  0  0  0  0  0
   33.3817   36.1476   -9.9465 O   0  0  0  0  0  0  0  0  0  0  0  0
   36.7415   38.2578   -7.5230 C   0  0  0  0  0  0  0  0  0  0  0  0
   37.2231   38.3543   -6.0756 C   0  0  0  0  0  0  0  0  0  0  0  0
   38.4992   37.5588   -5.8511 C   0  0  0  0  0  0  0  0  0  0  0  0
   39.4170   37.9834   -5.1591 O   0  0  0  0  0  0  0  0  0  0  0  0
   38.4491   36.3334   -6.4971 N   0  0  0  0  0  0  0  0  0  0  0  0
   37.6304   36.1466   -7.0110 H   0  0  0  0  0  0  0  0  0  0  0  0
   39.4325   35.3226   -6.5049 C   0  0  0  0  0  0  0  0  0  0  0  0
   40.4675   35.4459   -7.4420 C   0  0  0  0  0  0  0  0  0  0  0  0
   41.4814   34.4870   -7.5172 C   0  0  0  0  0  0  0  0  0  0  0  0
   41.4703   33.3942   -6.6554 C   0  0  0  0  0  0  0  0  0  0  0  0
   40.4462   33.2627   -5.7209 C   0  0  0  0  0  0  0  0  0  0  0  0
   39.4312   34.2227   -5.6458 C   0  0  0  0  0  0  0  0  0  0  0  0
 14 15  1  0
  1 15  1  0
  1  2  1  0
  2  3  1  0
  3  4  1  0
  3 10  1  0
 10 11  2  0
 10 12  1  0
  3  5  1  0
  5  6  2  0
  6 16  1  0
 16 17  1  0
 17 18  1  0
 18 19  2  0
 18 20  1  0
 20 22  1  0
 22 23  2  0
 23 24  1  0
 24 25  2  0
 25 26  1  0
 26 27  2  0
  6  7  1  0
  7  8  2  0
  7  1  1  0
 27 22  1  0
  4  9  1  0
 12 13  1  0
 20 21  1  0
M  END
> <minimizedAffinity>
-3.85805

> <CNNscore>
0.2608254254

> <CNNaffinity>
3.7894382477

> <CNN_VS>
0.9883818626

> <CNNaffinity_variance>
0.5413250327

$$$$



 27 28  0  0  0  0  0  0  0  0999 V2000
   33.5711   36.2210  -11.5424 C   0  0  0  0  0  0  0  0  0  0  0  0
   34.7725   35.4729  -12.1103 C   0  0  0  0  0  0  0  0  0  0  0  0
   35.1256   34.2289  -11.2889 C   0  0  0  0  0  0  0  0  0  0  0  0
   36.4726   33.8753  -11.6394 O   0  0  0  0  0  0  0  0  0  0  0  0
   35.1435   34.5123   -9.8147 C   0  0  0  0  0  0  0  0  0  0  0  0
   34.5767   35.5774   -9.2211 C   0  0  0  0  0  0  0  0  0  0  0  0
   33.8141   36.5545  -10.0604 C   0  0  0  0  0  0  0  0  0  0  0  0
   33.3628   37.5830   -9.5551 O   0  0  0  0  0  0  0  0  0  0  0  0
   36.5192   33.6806  -12.5885 H   0  0  0  0  0  0  0  0  0  0  0  0
   34.2091   33.0357  -11.6588 C   0  0  0  0  0  0  0  0  0  0  0  0
   34.2506   32.4492  -12.7340 O   0  0  0  0  0  0  0  0  0  0  0  0
   33.3404   32.6510  -10.7056 O   0  0  0  0  0  0  0  0  0  0  0  0
   33.3138   33.1038   -9.8857 H   0  0  0  0  0  0  0  0  0  0  0  0
   31.2854   36.2489  -12.1720 C   0  0  0  0  0  0  0  0  0  0  0  0
   32.4056   35.4502  -11.8056 O   0  0  0  0  0  0  0  0  0  0  0  0
   34.6201   35.8125   -7.7339 C   0  0  0  0  0  0  0  0  0  0  0  0
   35.9973   35.5237   -7.1372 C   0  0  0  0  0  0  0  0  0  0  0  0
   37.1178   35.9257   -8.0829 C   0  0  0  0  0  0  0  0  0  0  0  0
   37.1716   37.0393   -8.5915 O   0  0  0  0  0  0  0  0  0  0  0  0
   38.0318   34.8966   -8.2472 N   0  0  0  0  0  0  0  0  0  0  0  0
   37.8392   34.0630   -7.7601 H   0  0  0  0  0  0  0  0  0  0  0  0
   39.2049   34.9027   -9.0299 C   0  0  0  0  0  0  0  0  0  0  0  0
   39.2940   33.9502  -10.0543 C   0  0  0  0  0  0  0  0  0  0  0  0
   40.4233   33.8874  -10.8753 C   0  0  0  0  0  0  0  0  0  0  0  0
   41.4756   34.7771  -10.6798 C   0  0  0  0  0  0  0  0  0  0  0  0
   41.3964   35.7270   -9.6646 C   0  0  0  0  0  0  0  0  0  0  0  0
   40.2660   35.7898   -8.8427 C   0  0  0  0  0  0  0  0  0  0  0  0
 14 15  1  0
  1 15  1  0
  1  2  1  0
  2  3  1  0
  3  4  1  0
  3 10  1  0
 10 11  2  0
 10 12  1  0
  3  5  1  0
  5  6  2  0
  6 16  1  0
 16 17  1  0
 17 18  1  0
 18 19  2  0
 18 20  1  0
 20 22  1  0
 22 23  2  0
 23 24  1  0
 24 25  2  0
 25 26  1  0
 26 27  2  0
  6  7  1  0
  7  8  2  0
  7  1  1  0
 27 22  1  0
  4  9  1  0
 12 13  1  0
 20 21  1  0
M  END
> <minimizedAffinity>
-3.60310

> <CNNscore>
0.2355315387

> <CNNaffinity>
4.4197096825

> <CNN_VS>
1.0409810543

> <CNNaffinity_variance>
0.0669630840

$$$$



 27 28  0  0  0  0  0  0  0  0999 V2000
   34.5756   34.5045   -8.0664 C   0  0  0  0  0  0  0  0  0  0  0  0
   33.6739   35.7322   -7.9948 C   0  0  0  0  0  0  0  0  0  0  0  0
   33.5151   36.4184   -9.3553 C   0  0  0  0  0  0  0  0  0  0  0  0
   33.0343   37.7455   -9.0911 O   0  0  0  0  0  0  0  0  0  0  0  0
   34.8305   36.5882  -10.0588 C   0  0  0  0  0  0  0  0  0  0  0  0
   35.9613   35.9233   -9.7636 C   0  0  0  0  0  0  0  0  0  0  0  0
   35.9314   34.8853   -8.6855 C   0  0  0  0  0  0  0  0  0  0  0  0
   36.9722   34.3273   -8.3359 O   0  0  0  0  0  0  0  0  0  0  0  0
   32.1802   37.6950   -8.6340 H   0  0  0  0  0  0  0  0  0  0  0  0
   32.4584   35.6944  -10.2269 C   0  0  0  0  0  0  0  0  0  0  0  0
   31.3383   35.3911   -9.8327 O   0  0  0  0  0  0  0  0  0  0  0  0
   32.8366   35.4132  -11.4875 O   0  0  0  0  0  0  0  0  0  0  0  0
   33.6944   35.6478  -11.7826 H   0  0  0  0  0  0  0  0  0  0  0  0
   33.7973   32.2659   -7.9984 C   0  0  0  0  0  0  0  0  0  0  0  0
   33.8680   33.4753   -8.7461 O   0  0  0  0  0  0  0  0  0  0  0  0
   37.2561   36.1287  -10.5053 C   0  0  0  0  0  0  0  0  0  0  0  0
   37.1981   35.6002  -11.9383 C   0  0  0  0  0  0  0  0  0  0  0  0
   38.2808   34.5662  -12.2029 C   0  0  0  0  0  0  0  0  0  0  0  0
   38.9311   34.5567  -13.2414 O   0  0  0  0  0  0  0  0  0  0  0  0
   38.4241   33.7009  -11.1295 N   0  0  0  0  0  0  0  0  0  0  0  0
   37.8201   33.8515  -10.3668 H   0  0  0  0  0  0  0  0  0  0  0  0
   39.3330   32.6303  -11.0012 C   0  0  0  0  0  0  0  0  0  0  0  0
   40.5258   32.8846  -10.3106 C   0  0  0  0  0  0  0  0  0  0  0  0
   41.4810   31.8788  -10.1396 C   0  0  0  0  0  0  0  0  0  0  0  0
   41.2526   30.6076  -10.6582 C   0  0  0  0  0  0  0  0  0  0  0  0
   40.0705   30.3450  -11.3460 C   0  0  0  0  0  0  0  0  0  0  0  0
   39.1145   31.3520  -11.5171 C   0  0  0  0  0  0  0  0  0  0  0  0
 14 15  1  0
  1 15  1  0
  1  2  1  0
  2  3  1  0
  3  4  1  0
  3 10  1  0
 10 11  2  0
 10 12  1  0
  3  5  1  0
  5  6  2  0
  6 16  1  0
 16 17  1  0
 17 18  1  0
 18 19  2  0
 18 20  1  0
 20 22  1  0
 22 23  2  0
 23 24  1  0
 24 25  2  0
 25 26  1  0
 26 27  2  0
  6  7  1  0
  7  8  2  0
  7  1  1  0
 27 22  1  0
  4  9  1  0
 12 13  1  0
 20 21  1  0
M  END
> <minimizedAffinity>
-3.81566

> <CNNscore>
0.2142229378

> <CNNaffinity>
3.2674140930

> <CNN_VS>
0.6999550462

> <CNNaffinity_variance>
0.5334048271

$$$$



 27 28  0  0  0  0  0  0  0  0999 V2000
   18.5960   35.4963   -2.0374 C   0  0  0  0  0  0  0  0  0  0  0  0
   19.4636   36.7434   -1.9051 C   0  0  0  0  0  0  0  0  0  0  0  0
   20.8351   36.4368   -1.2954 C   0  0  0  0  0  0  0  0  0  0  0  0
   21.3658   37.6877   -0.8307 O   0  0  0  0  0  0  0  0  0  0  0  0
   20.7302   35.5571   -0.0833 C   0  0  0  0  0  0  0  0  0  0  0  0
   19.6609   34.8110    0.2452 C   0  0  0  0  0  0  0  0  0  0  0  0
   18.4803   34.7914   -0.6749 C   0  0  0  0  0  0  0  0  0  0  0  0
   17.4560   34.1881   -0.3531 O   0  0  0  0  0  0  0  0  0  0  0  0
   21.4551   38.2989   -1.5786 H   0  0  0  0  0  0  0  0  0  0  0  0
   21.8082   35.8742   -2.3617 C   0  0  0  0  0  0  0  0  0  0  0  0
   21.5836   34.8732   -3.0321 O   0  0  0  0  0  0  0  0  0  0  0  0
   22.9491   36.5672   -2.5327 O   0  0  0  0  0  0  0  0  0  0  0  0
   23.1147   37.3317   -2.0168 H   0  0  0  0  0  0  0  0  0  0  0  0
   18.4909   33.4285   -3.1927 C   0  0  0  0  0  0  0  0  0  0  0  0
   19.1261   34.6983   -3.0881 O   0  0  0  0  0  0  0  0  0  0  0  0
   19.6088   33.9404    1.4733 C   0  0  0  0  0  0  0  0  0  0  0  0
   20.3435   32.6141    1.2802 C   0  0  0  0  0  0  0  0  0  0  0  0
   19.3870   31.4842    0.9335 C   0  0  0  0  0  0  0  0  0  0  0  0
   18.3759   31.2637    1.5896 O   0  0  0  0  0  0  0  0  0  0  0  0
   19.8054   30.7989   -0.1964 N   0  0  0  0  0  0  0  0  0  0  0  0
   20.6442   31.1103   -0.6073 H   0  0  0  0  0  0  0  0  0  0  0  0
   19.1714   29.7084   -0.8269 C   0  0  0  0  0  0  0  0  0  0  0  0
   18.0585   29.9938   -1.6297 C   0  0  0  0  0  0  0  0  0  0  0  0
   17.3718   28.9706   -2.2891 C   0  0  0  0  0  0  0  0  0  0  0  0
   17.7914   27.6507   -2.1519 C   0  0  0  0  0  0  0  0  0  0  0  0
   18.8960   27.3570   -1.3563 C   0  0  0  0  0  0  0  0  0  0  0  0
   19.5833   28.3812   -0.6962 C   0  0  0  0  0  0  0  0  0  0  0  0
 14 15  1  0
  1 15  1  0
  1  2  1  0
  2  3  1  0
  3  4  1  0
  3 10  1  0
 10 11  2  0
 10 12  1  0
  3  5  1  0
  5  6  2  0
  6 16  1  0
 16 17  1  0
 17 18  1  0
 18 19  2  0
 18 20  1  0
 20 22  1  0
 22 23  2  0
 23 24  1  0
 24 25  2  0
 25 26  1  0
 26 27  2  0
  6  7  1  0
  7  8  2  0
  7  1  1  0
 27 22  1  0
  4  9  1  0
 12 13  1  0
 20 21  1  0
M  END
> <minimizedAffinity>
-5.15858

> <CNNscore>
0.2047773451

> <CNNaffinity>
3.5071296692

> <CNN_VS>
0.7181807160

> <CNNaffinity_variance>
0.7597351670

$$$$



 27 28  0  0  0  0  0  0  0  0999 V2000
   20.4096   26.8799   -0.7809 C   0  0  0  0  0  0  0  0  0  0  0  0
   21.2572   26.4769    0.4211 C   0  0  0  0  0  0  0  0  0  0  0  0
   20.4252   26.3369    1.6999 C   0  0  0  0  0  0  0  0  0  0  0  0
   21.3495   26.3893    2.7977 O   0  0  0  0  0  0  0  0  0  0  0  0
   19.4884   27.4940    1.8933 C   0  0  0  0  0  0  0  0  0  0  0  0
   19.1178   28.3624    0.9359 C   0  0  0  0  0  0  0  0  0  0  0  0
   19.6201   28.1606   -0.4597 C   0  0  0  0  0  0  0  0  0  0  0  0
   19.3680   28.9912   -1.3333 O   0  0  0  0  0  0  0  0  0  0  0  0
   21.9828   25.6584    2.7224 H   0  0  0  0  0  0  0  0  0  0  0  0
   19.7038   24.9667    1.7505 C   0  0  0  0  0  0  0  0  0  0  0  0
   18.5175   24.8282    2.0252 O   0  0  0  0  0  0  0  0  0  0  0  0
   20.4649   23.8963    1.4570 O   0  0  0  0  0  0  0  0  0  0  0  0
   21.3713   24.0091    1.2479 H   0  0  0  0  0  0  0  0  0  0  0  0
   20.3427   24.8064   -1.9287 C   0  0  0  0  0  0  0  0  0  0  0  0
   19.6186   25.7606   -1.1592 O   0  0  0  0  0  0  0  0  0  0  0  0
   18.1693   29.5062    1.1826 C   0  0  0  0  0  0  0  0  0  0  0  0
   18.8985   30.8095    1.5076 C   0  0  0  0  0  0  0  0  0  0  0  0
   18.7347   31.1990    2.9680 C   0  0  0  0  0  0  0  0  0  0  0  0
   19.4055   30.6875    3.8568 O   0  0  0  0  0  0  0  0  0  0  0  0
   17.7768   32.1893    3.1208 N   0  0  0  0  0  0  0  0  0  0  0  0
   17.3314   32.4933    2.2972 H   0  0  0  0  0  0  0  0  0  0  0  0
   17.3651   32.8127    4.3169 C   0  0  0  0  0  0  0  0  0  0  0  0
   17.5328   34.2015    4.4037 C   0  0  0  0  0  0  0  0  0  0  0  0
   17.1520   34.8968    5.5548 C   0  0  0  0  0  0  0  0  0  0  0  0
   16.5994   34.2094    6.6314 C   0  0  0  0  0  0  0  0  0  0  0  0
   16.4289   32.8294    6.5549 C   0  0  0  0  0  0  0  0  0  0  0  0
   16.8101   32.1335    5.4026 C   0  0  0  0  0  0  0  0  0  0  0  0
 14 15  1  0
  1 15  1  0
  1  2  1  0
  2  3  1  0
  3  4  1  0
  3 10  1  0
 10 11  2  0
 10 12  1  0
  3  5  1  0
  5  6  2  0
  6 16  1  0
 16 17  1  0
 17 18  1  0
 18 19  2  0
 18 20  1  0
 20 22  1  0
 22 23  2  0
 23 24  1  0
 24 25  2  0
 25 26  1  0
 26 27  2  0
  6  7  1  0
  7  8  2  0
  7  1  1  0
 27 22  1  0
  4  9  1  0
 12 13  1  0
 20 21  1  0
M  END
> <minimizedAffinity>
-4.16010

> <CNNscore>
0.1958151907

> <CNNaffinity>
3.5901114941

> <CNN_VS>
0.7029983401

> <CNNaffinity_variance>
0.6284719110

$$$$
