


 46 47  0  0  0  0  0  0  0  0999 V2000
   35.8632   42.4478   -5.7927 P   0  0  0  0  0  0  0  0  0  0  0  0
   37.2706   42.5496   -6.2933 O   0  0  0  0  0  0  0  0  0  0  0  0
   35.2804   43.9517   -5.7244 O   0  0  0  0  0  0  0  0  0  0  0  0
   35.8354   44.4872   -5.1361 H   0  0  0  0  0  0  0  0  0  0  0  0
   35.6608   41.8912   -4.2644 N   0  0  0  0  0  0  0  0  0  0  0  0
   34.7369   42.2043   -3.9663 H   0  0  0  0  0  0  0  0  0  0  0  0
   36.5878   42.2465   -3.1761 C   0  0  0  0  0  0  0  0  0  0  0  0
   37.8428   41.3515   -3.2397 C   0  0  0  0  0  0  0  0  0  0  0  0
   38.9766   41.7820   -3.4834 O   0  0  0  0  0  0  0  0  0  0  0  0
   37.6536   40.0119   -2.9598 N   0  0  0  0  0  0  0  0  0  0  0  0
   36.7388   39.6645   -2.8511 H   0  0  0  0  0  0  0  0  0  0  0  0
   38.7924   39.0995   -2.8219 C   0  0  0  0  0  0  0  0  0  0  0  0
   38.6131   38.2801   -1.5347 C   0  0  0  0  0  0  0  0  0  0  0  0
   38.9386   38.1312   -4.0492 C   0  0  0  0  0  0  0  0  0  0  0  0
   40.3924   37.4358   -4.2312 N   0  0  0  0  0  0  0  0  0  0  0  0
   40.3916   36.2636   -3.2641 C   0  0  0  0  0  0  0  0  0  0  0  0
   41.4489   38.4488   -3.7891 C   0  0  0  0  0  0  0  0  0  0  0  0
   40.5079   37.0186   -5.6869 C   0  0  0  0  0  0  0  0  0  0  0  0
   41.6427   36.1442   -6.1940 N   0  0  0  0  0  0  0  0  0  0  0  0
   42.0092   35.2436   -4.9732 C   0  0  0  0  0  0  0  0  0  0  0  0
   42.9155   36.9233   -6.5156 C   0  0  0  0  0  0  0  0  0  0  0  0
   41.3077   35.2111   -7.3304 C   0  0  0  0  0  0  0  0  0  0  0  0
   35.8916   42.1684   -1.8028 C   0  0  0  0  0  0  0  0  0  0  0  0
   37.0025   44.4159   -1.5375 C   0  0  0  0  0  0  0  0  0  0  0  0
   36.3419   43.2473   -0.7936 C   0  0  0  0  0  0  0  0  0  0  0  0
   37.3061   42.7142    0.2672 C   0  0  0  0  0  0  0  0  0  0  0  0
   34.7158   41.5861   -6.9276 C   0  0  0  0  0  0  0  0  0  0  0  0
   34.7933   42.2551   -8.2206 N   0  0  0  0  0  0  0  0  0  0  0  0
   33.8523   43.1565   -8.6249 C   0  0  0  0  0  0  0  0  0  0  0  0
   32.9039   43.5222   -7.9480 O   0  0  0  0  0  0  0  0  0  0  0  0
   35.5471   42.0502   -8.8198 H   0  0  0  0  0  0  0  0  0  0  0  0
   34.1413   43.5434   -9.8857 O   0  0  0  0  0  0  0  0  0  0  0  0
   33.4514   42.8373  -10.9286 C   0  0  0  0  0  0  0  0  0  0  0  0
   33.3573   43.7281  -12.1413 C   0  0  0  0  0  0  0  0  0  0  0  0
   33.6380   45.0981  -12.0340 C   0  0  0  0  0  0  0  0  0  0  0  0
   33.5524   45.9289  -13.1545 C   0  0  0  0  0  0  0  0  0  0  0  0
   33.1833   45.3972  -14.3919 C   0  0  0  0  0  0  0  0  0  0  0  0
   32.8948   44.0390  -14.5083 C   0  0  0  0  0  0  0  0  0  0  0  0
   32.9758   43.2093  -13.3850 C   0  0  0  0  0  0  0  0  0  0  0  0
   34.9912   40.0845   -7.0384 C   0  0  0  0  0  0  0  0  0  0  0  0
   33.7765   39.2903   -7.4687 C   0  0  0  0  0  0  0  0  0  0  0  0
   33.2815   38.2481   -6.6709 C   0  0  0  0  0  0  0  0  0  0  0  0
   32.1785   37.4983   -7.0859 C   0  0  0  0  0  0  0  0  0  0  0  0
   31.5567   37.7831   -8.2982 C   0  0  0  0  0  0  0  0  0  0  0  0
   32.0368   38.8187   -9.0999 C   0  0  0  0  0  0  0  0  0  0  0  0
   33.1429   39.5683   -8.6881 C   0  0  0  0  0  0  0  0  0  0  0  0
 24 25  1  0
 25 26  1  0
 25 23  1  0
  7 23  1  0
  7  5  1  0
  5  1  1  0
  1  2  2  0
  1  3  1  0
  1 27  1  0
 27 40  1  0
 40 41  1  0
 41 42  2  0
 42 43  1  0
 43 44  2  0
 44 45  1  0
 45 46  2  0
 27 28  1  0
 28 29  1  0
 29 30  2  0
 29 32  1  0
 32 33  1  0
 33 34  1  0
 34 35  2  0
 35 36  1  0
 36 37  2  0
 37 38  1  0
 38 39  2  0
  7  8  1  0
  8  9  2  0
  8 10  1  0
 10 12  1  0
 12 13  1  0
 12 14  1  0
 14 15  1  0
 15 16  1  0
 15 17  1  0
 15 18  1  0
 18 19  1  0
 19 20  1  0
 19 21  1  0
 19 22  1  0
 46 41  1  0
 39 34  1  0
  5  6  1  0
  3  4  1  0
 28 31  1  0
 10 11  1  0
M  CHG 1  15   1
M  CHG 1  19   1
M  END
> <minimizedAffinity>
-9.28869

> <CNNscore>
0.8779467344

> <CNNaffinity>
8.1824951172

> <CNN_VS>
7.1837949753

> <CNNaffinity_variance>
0.2024914771

$$$$



 46 47  0  0  0  0  0  0  0  0999 V2000
   35.7721   42.4528   -5.9245 P   0  0  0  0  0  0  0  0  0  0  0  0
   37.1799   42.5209   -6.4298 O   0  0  0  0  0  0  0  0  0  0  0  0
   35.2083   43.9654   -5.9036 O   0  0  0  0  0  0  0  0  0  0  0  0
   35.7710   44.5123   -5.3334 H   0  0  0  0  0  0  0  0  0  0  0  0
   35.5653   41.9480   -4.3789 N   0  0  0  0  0  0  0  0  0  0  0  0
   34.6809   42.3467   -4.0641 H   0  0  0  0  0  0  0  0  0  0  0  0
   36.5500   42.2435   -3.3238 C   0  0  0  0  0  0  0  0  0  0  0  0
   37.8000   41.3582   -3.5068 C   0  0  0  0  0  0  0  0  0  0  0  0
   38.9402   41.7115   -3.1822 O   0  0  0  0  0  0  0  0  0  0  0  0
   37.5847   40.0947   -4.0227 N   0  0  0  0  0  0  0  0  0  0  0  0
   36.6902   39.8539   -4.3562 H   0  0  0  0  0  0  0  0  0  0  0  0
   38.6660   39.1070   -4.0815 C   0  0  0  0  0  0  0  0  0  0  0  0
   38.6884   38.3230   -2.7604 C   0  0  0  0  0  0  0  0  0  0  0  0
   38.5055   38.1113   -5.2847 C   0  0  0  0  0  0  0  0  0  0  0  0
   39.6630   36.9843   -5.4284 N   0  0  0  0  0  0  0  0  0  0  0  0
   39.6520   36.5941   -6.8970 C   0  0  0  0  0  0  0  0  0  0  0  0
   39.2426   35.7788   -4.5869 C   0  0  0  0  0  0  0  0  0  0  0  0
   40.9661   37.6242   -4.9824 C   0  0  0  0  0  0  0  0  0  0  0  0
   42.2294   36.8140   -4.7440 N   0  0  0  0  0  0  0  0  0  0  0  0
   42.4219   36.8487   -3.1956 C   0  0  0  0  0  0  0  0  0  0  0  0
   43.4863   37.4610   -5.3202 C   0  0  0  0  0  0  0  0  0  0  0  0
   42.1715   35.3591   -5.1367 C   0  0  0  0  0  0  0  0  0  0  0  0
   35.9294   42.0841   -1.9216 C   0  0  0  0  0  0  0  0  0  0  0  0
   37.0562   44.3217   -1.6403 C   0  0  0  0  0  0  0  0  0  0  0  0
   36.3412   43.1765   -0.9105 C   0  0  0  0  0  0  0  0  0  0  0  0
   37.2410   42.6516    0.2095 C   0  0  0  0  0  0  0  0  0  0  0  0
   34.6122   41.5697   -7.0298 C   0  0  0  0  0  0  0  0  0  0  0  0
   34.6895   42.2016   -8.3413 N   0  0  0  0  0  0  0  0  0  0  0  0
   33.7571   43.1032   -8.7648 C   0  0  0  0  0  0  0  0  0  0  0  0
   32.8177   43.4993   -8.0924 O   0  0  0  0  0  0  0  0  0  0  0  0
   35.4368   41.9708   -8.9393 H   0  0  0  0  0  0  0  0  0  0  0  0
   34.0426   43.4513  -10.0376 O   0  0  0  0  0  0  0  0  0  0  0  0
   33.3143   42.7470  -11.0553 C   0  0  0  0  0  0  0  0  0  0  0  0
   33.2216   43.6196  -12.2813 C   0  0  0  0  0  0  0  0  0  0  0  0
   32.8489   43.0661  -13.5149 C   0  0  0  0  0  0  0  0  0  0  0  0
   32.7614   43.8698  -14.6548 C   0  0  0  0  0  0  0  0  0  0  0  0
   33.0480   45.2341  -14.5715 C   0  0  0  0  0  0  0  0  0  0  0  0
   33.4266   45.7929  -13.3526 C   0  0  0  0  0  0  0  0  0  0  0  0
   33.5189   44.9865  -12.2133 C   0  0  0  0  0  0  0  0  0  0  0  0
   34.8742   40.0632   -7.0997 C   0  0  0  0  0  0  0  0  0  0  0  0
   33.6645   39.2725   -7.5499 C   0  0  0  0  0  0  0  0  0  0  0  0
   33.0500   39.5412   -8.7820 C   0  0  0  0  0  0  0  0  0  0  0  0
   31.9159   38.8296   -9.1803 C   0  0  0  0  0  0  0  0  0  0  0  0
   31.3866   37.8411   -8.3558 C   0  0  0  0  0  0  0  0  0  0  0  0
   31.9895   37.5615   -7.1294 C   0  0  0  0  0  0  0  0  0  0  0  0
   33.1226   38.2750   -6.7270 C   0  0  0  0  0  0  0  0  0  0  0  0
 24 25  1  0
 25 26  1  0
 25 23  1  0
  7 23  1  0
  7  5  1  0
  5  1  1  0
  1  2  2  0
  1  3  1  0
  1 27  1  0
 27 40  1  0
 40 41  1  0
 41 42  2  0
 42 43  1  0
 43 44  2  0
 44 45  1  0
 45 46  2  0
 27 28  1  0
 28 29  1  0
 29 30  2  0
 29 32  1  0
 32 33  1  0
 33 34  1  0
 34 35  2  0
 35 36  1  0
 36 37  2  0
 37 38  1  0
 38 39  2  0
  7  8  1  0
  8  9  2  0
  8 10  1  0
 10 12  1  0
 12 13  1  0
 12 14  1  0
 14 15  1  0
 15 16  1  0
 15 17  1  0
 15 18  1  0
 18 19  1  0
 19 20  1  0
 19 21  1  0
 19 22  1  0
 46 41  1  0
 39 34  1  0
  5  6  1  0
  3  4  1  0
 28 31  1  0
 10 11  1  0
M  CHG 1  15   1
M  CHG 1  19   1
M  END
> <minimizedAffinity>
-9.29043

> <CNNscore>
0.8308600783

> <CNNaffinity>
8.0670213699

> <CNN_VS>
6.7025661469

> <CNNaffinity_variance>
0.0666910931

$$$$



 46 47  0  0  0  0  0  0  0  0999 V2000
   35.7320   42.4216   -6.0487 P   0  0  0  0  0  0  0  0  0  0  0  0
   37.0313   42.5000   -6.7887 O   0  0  0  0  0  0  0  0  0  0  0  0
   35.2647   43.9398   -5.7607 O   0  0  0  0  0  0  0  0  0  0  0  0
   35.9476   44.3959   -5.2447 H   0  0  0  0  0  0  0  0  0  0  0  0
   35.7714   41.7457   -4.5560 N   0  0  0  0  0  0  0  0  0  0  0  0
   34.8778   41.9688   -4.1177 H   0  0  0  0  0  0  0  0  0  0  0  0
   36.8114   42.0902   -3.5713 C   0  0  0  0  0  0  0  0  0  0  0  0
   38.0257   41.1534   -3.7379 C   0  0  0  0  0  0  0  0  0  0  0  0
   39.1572   41.4210   -3.3156 O   0  0  0  0  0  0  0  0  0  0  0  0
   37.7837   39.9426   -4.3577 N   0  0  0  0  0  0  0  0  0  0  0  0
   36.9033   39.7745   -4.7648 H   0  0  0  0  0  0  0  0  0  0  0  0
   38.8165   38.9043   -4.4190 C   0  0  0  0  0  0  0  0  0  0  0  0
   40.1181   39.4698   -3.8303 C   0  0  0  0  0  0  0  0  0  0  0  0
   38.4067   37.6026   -3.6426 C   0  0  0  0  0  0  0  0  0  0  0  0
   39.5172   37.0112   -2.6192 N   0  0  0  0  0  0  0  0  0  0  0  0
   39.4153   37.8850   -1.3802 C   0  0  0  0  0  0  0  0  0  0  0  0
   40.8908   37.2104   -3.2607 C   0  0  0  0  0  0  0  0  0  0  0  0
   39.1596   35.5572   -2.3649 C   0  0  0  0  0  0  0  0  0  0  0  0
   39.7666   34.7589   -1.2231 N   0  0  0  0  0  0  0  0  0  0  0  0
   38.6947   34.8310   -0.0911 C   0  0  0  0  0  0  0  0  0  0  0  0
   41.0202   35.3983   -0.6314 C   0  0  0  0  0  0  0  0  0  0  0  0
   40.0109   33.2949   -1.4902 C   0  0  0  0  0  0  0  0  0  0  0  0
   36.2513   42.0602   -2.1352 C   0  0  0  0  0  0  0  0  0  0  0  0
   36.7791   42.4032    0.3059 C   0  0  0  0  0  0  0  0  0  0  0  0
   37.0484   42.9067   -1.1186 C   0  0  0  0  0  0  0  0  0  0  0  0
   36.7270   44.4001   -1.1957 C   0  0  0  0  0  0  0  0  0  0  0  0
   34.3498   41.7155   -7.0171 C   0  0  0  0  0  0  0  0  0  0  0  0
   34.4608   42.2281   -8.3774 N   0  0  0  0  0  0  0  0  0  0  0  0
   33.5514   43.1031   -8.8960 C   0  0  0  0  0  0  0  0  0  0  0  0
   32.6072   43.5713   -8.2790 O   0  0  0  0  0  0  0  0  0  0  0  0
   35.2144   41.9340   -8.9385 H   0  0  0  0  0  0  0  0  0  0  0  0
   33.8650   43.3333  -10.1888 O   0  0  0  0  0  0  0  0  0  0  0  0
   32.9590   42.7835  -11.1580 C   0  0  0  0  0  0  0  0  0  0  0  0
   33.0594   43.5865  -12.4301 C   0  0  0  0  0  0  0  0  0  0  0  0
   32.8295   42.9743  -13.6709 C   0  0  0  0  0  0  0  0  0  0  0  0
   32.9213   43.7134  -14.8535 C   0  0  0  0  0  0  0  0  0  0  0  0
   33.2456   45.0708  -14.8057 C   0  0  0  0  0  0  0  0  0  0  0  0
   33.4834   45.6872  -13.5790 C   0  0  0  0  0  0  0  0  0  0  0  0
   33.3964   44.9454  -12.3962 C   0  0  0  0  0  0  0  0  0  0  0  0
   34.3063   40.1859   -6.9795 C   0  0  0  0  0  0  0  0  0  0  0  0
   34.0658   39.5672   -8.3399 C   0  0  0  0  0  0  0  0  0  0  0  0
   35.1389   39.1152   -9.1221 C   0  0  0  0  0  0  0  0  0  0  0  0
   34.9150   38.5723  -10.3895 C   0  0  0  0  0  0  0  0  0  0  0  0
   33.6189   38.4714  -10.8868 C   0  0  0  0  0  0  0  0  0  0  0  0
   32.5423   38.9142  -10.1183 C   0  0  0  0  0  0  0  0  0  0  0  0
   32.7644   39.4612   -8.8508 C   0  0  0  0  0  0  0  0  0  0  0  0
 24 25  1  0
 25 26  1  0
 25 23  1  0
  7 23  1  0
  7  5  1  0
  5  1  1  0
  1  2  2  0
  1  3  1  0
  1 27  1  0
 27 40  1  0
 40 41  1  0
 41 42  2  0
 42 43  1  0
 43 44  2  0
 44 45  1  0
 45 46  2  0
 27 28  1  0
 28 29  1  0
 29 30  2  0
 29 32  1  0
 32 33  1  0
 33 34  1  0
 34 35  2  0
 35 36  1  0
 36 37  2  0
 37 38  1  0
 38 39  2  0
  7  8  1  0
  8  9  2  0
  8 10  1  0
 10 12  1  0
 12 13  1  0
 12 14  1  0
 14 15  1  0
 15 16  1  0
 15 17  1  0
 15 18  1  0
 18 19  1  0
 19 20  1  0
 19 21  1  0
 19 22  1  0
 46 41  1  0
 39 34  1  0
  5  6  1  0
  3  4  1  0
 28 31  1  0
 10 11  1  0
M  CHG 1  15   1
M  CHG 1  19   1
M  END
> <minimizedAffinity>
-8.65913

> <CNNscore>
0.8167132735

> <CNNaffinity>
8.0273942947

> <CNN_VS>
6.5560793877

> <CNNaffinity_variance>
0.0935359597

$$$$



 46 47  0  0  0  0  0  0  0  0999 V2000
   35.8169   42.3159   -5.9823 P   0  0  0  0  0  0  0  0  0  0  0  0
   37.1151   42.6186   -6.6642 O   0  0  0  0  0  0  0  0  0  0  0  0
   35.1099   43.7332   -5.6706 O   0  0  0  0  0  0  0  0  0  0  0  0
   35.6943   44.2705   -5.1132 H   0  0  0  0  0  0  0  0  0  0  0  0
   35.9047   41.6021   -4.5094 N   0  0  0  0  0  0  0  0  0  0  0  0
   34.9740   41.6785   -4.0990 H   0  0  0  0  0  0  0  0  0  0  0  0
   36.8500   42.0594   -3.4764 C   0  0  0  0  0  0  0  0  0  0  0  0
   38.0319   41.0736   -3.3702 C   0  0  0  0  0  0  0  0  0  0  0  0
   39.2130   41.4040   -3.5316 O   0  0  0  0  0  0  0  0  0  0  0  0
   37.7145   39.7723   -3.0315 N   0  0  0  0  0  0  0  0  0  0  0  0
   36.7694   39.4999   -2.9887 H   0  0  0  0  0  0  0  0  0  0  0  0
   38.7618   38.7908   -2.7348 C   0  0  0  0  0  0  0  0  0  0  0  0
   38.5600   38.2740   -1.3021 C   0  0  0  0  0  0  0  0  0  0  0  0
   38.7553   37.5833   -3.7383 C   0  0  0  0  0  0  0  0  0  0  0  0
   40.1986   37.1625   -4.3468 N   0  0  0  0  0  0  0  0  0  0  0  0
   40.9042   36.4320   -3.2165 C   0  0  0  0  0  0  0  0  0  0  0  0
   40.9606   38.4496   -4.6637 C   0  0  0  0  0  0  0  0  0  0  0  0
   39.9332   36.2876   -5.5595 C   0  0  0  0  0  0  0  0  0  0  0  0
   39.1540   34.9862   -5.4677 N   0  0  0  0  0  0  0  0  0  0  0  0
   39.9606   33.9913   -6.3596 C   0  0  0  0  0  0  0  0  0  0  0  0
   37.7670   35.0603   -6.1010 C   0  0  0  0  0  0  0  0  0  0  0  0
   39.0636   34.3592   -4.0991 C   0  0  0  0  0  0  0  0  0  0  0  0
   36.1416   42.2602   -2.1219 C   0  0  0  0  0  0  0  0  0  0  0  0
   36.5801   42.5466    0.3441 C   0  0  0  0  0  0  0  0  0  0  0  0
   36.9823   43.0074   -1.0635 C   0  0  0  0  0  0  0  0  0  0  0  0
   36.8500   44.5285   -1.1540 C   0  0  0  0  0  0  0  0  0  0  0  0
   34.5977   41.4404   -7.0282 C   0  0  0  0  0  0  0  0  0  0  0  0
   34.6253   42.0614   -8.3469 N   0  0  0  0  0  0  0  0  0  0  0  0
   33.7276   43.0219   -8.7119 C   0  0  0  0  0  0  0  0  0  0  0  0
   32.8656   43.4820   -7.9793 O   0  0  0  0  0  0  0  0  0  0  0  0
   35.3122   41.7793   -8.9934 H   0  0  0  0  0  0  0  0  0  0  0  0
   33.9463   43.3461  -10.0041 O   0  0  0  0  0  0  0  0  0  0  0  0
   33.2412   42.5554  -10.9736 C   0  0  0  0  0  0  0  0  0  0  0  0
   33.1725   43.3210  -12.2706 C   0  0  0  0  0  0  0  0  0  0  0  0
   32.8073   42.6680  -13.4570 C   0  0  0  0  0  0  0  0  0  0  0  0
   32.7420   43.3722  -14.6623 C   0  0  0  0  0  0  0  0  0  0  0  0
   33.0434   44.7355  -14.6922 C   0  0  0  0  0  0  0  0  0  0  0  0
   33.4147   45.3924  -13.5210 C   0  0  0  0  0  0  0  0  0  0  0  0
   33.4848   44.6854  -12.3159 C   0  0  0  0  0  0  0  0  0  0  0  0
   34.8364   39.9300   -7.0976 C   0  0  0  0  0  0  0  0  0  0  0  0
   33.6116   39.1570   -7.5375 C   0  0  0  0  0  0  0  0  0  0  0  0
   33.0100   39.4121   -8.7788 C   0  0  0  0  0  0  0  0  0  0  0  0
   31.8624   38.7175   -9.1681 C   0  0  0  0  0  0  0  0  0  0  0  0
   31.3063   37.7596   -8.3251 C   0  0  0  0  0  0  0  0  0  0  0  0
   31.8961   37.4938   -7.0893 C   0  0  0  0  0  0  0  0  0  0  0  0
   33.0429   38.1903   -6.6961 C   0  0  0  0  0  0  0  0  0  0  0  0
 24 25  1  0
 25 26  1  0
 25 23  1  0
  7 23  1  0
  7  5  1  0
  5  1  1  0
  1  2  2  0
  1  3  1  0
  1 27  1  0
 27 40  1  0
 40 41  1  0
 41 42  2  0
 42 43  1  0
 43 44  2  0
 44 45  1  0
 45 46  2  0
 27 28  1  0
 28 29  1  0
 29 30  2  0
 29 32  1  0
 32 33  1  0
 33 34  1  0
 34 35  2  0
 35 36  1  0
 36 37  2  0
 37 38  1  0
 38 39  2  0
  7  8  1  0
  8  9  2  0
  8 10  1  0
 10 12  1  0
 12 13  1  0
 12 14  1  0
 14 15  1  0
 15 16  1  0
 15 17  1  0
 15 18  1  0
 18 19  1  0
 19 20  1  0
 19 21  1  0
 19 22  1  0
 46 41  1  0
 39 34  1  0
  5  6  1  0
  3  4  1  0
 28 31  1  0
 10 11  1  0
M  CHG 1  15   1
M  CHG 1  19   1
M  END
> <minimizedAffinity>
-8.66549

> <CNNscore>
0.8090588450

> <CNNaffinity>
8.0237216949

> <CNN_VS>
6.4916629791

> <CNNaffinity_variance>
0.0178600382

$$$$



 46 47  0  0  0  0  0  0  0  0999 V2000
   35.5687   42.0277   -6.1029 P   0  0  0  0  0  0  0  0  0  0  0  0
   36.7432   42.3140   -6.9863 O   0  0  0  0  0  0  0  0  0  0  0  0
   34.9160   43.4524   -5.7152 O   0  0  0  0  0  0  0  0  0  0  0  0
   35.5793   44.0010   -5.2681 H   0  0  0  0  0  0  0  0  0  0  0  0
   35.8879   41.3462   -4.6468 N   0  0  0  0  0  0  0  0  0  0  0  0
   34.9881   41.2374   -4.1789 H   0  0  0  0  0  0  0  0  0  0  0  0
   36.7873   41.9821   -3.6687 C   0  0  0  0  0  0  0  0  0  0  0  0
   38.0183   41.0850   -3.4240 C   0  0  0  0  0  0  0  0  0  0  0  0
   39.1777   41.5140   -3.3802 O   0  0  0  0  0  0  0  0  0  0  0  0
   37.7645   39.7451   -3.2028 N   0  0  0  0  0  0  0  0  0  0  0  0
   36.8508   39.3990   -3.3234 H   0  0  0  0  0  0  0  0  0  0  0  0
   38.8334   38.8303   -2.7914 C   0  0  0  0  0  0  0  0  0  0  0  0
   38.4454   38.1928   -1.4485 C   0  0  0  0  0  0  0  0  0  0  0  0
   39.1028   37.7051   -3.8527 C   0  0  0  0  0  0  0  0  0  0  0  0
   40.6586   37.4532   -4.2358 N   0  0  0  0  0  0  0  0  0  0  0  0
   41.3478   38.7824   -3.9764 C   0  0  0  0  0  0  0  0  0  0  0  0
   40.7223   37.1396   -5.7310 C   0  0  0  0  0  0  0  0  0  0  0  0
   41.1601   36.3284   -3.3471 C   0  0  0  0  0  0  0  0  0  0  0  0
   42.6270   36.1740   -2.9817 N   0  0  0  0  0  0  0  0  0  0  0  0
   43.2894   35.6132   -4.2788 C   0  0  0  0  0  0  0  0  0  0  0  0
   42.8803   35.1158   -1.9109 C   0  0  0  0  0  0  0  0  0  0  0  0
   43.3648   37.4435   -2.6375 C   0  0  0  0  0  0  0  0  0  0  0  0
   36.0434   42.3119   -2.3593 C   0  0  0  0  0  0  0  0  0  0  0  0
   36.6461   42.2331    0.0873 C   0  0  0  0  0  0  0  0  0  0  0  0
   36.9321   42.9226   -1.2536 C   0  0  0  0  0  0  0  0  0  0  0  0
   36.7440   44.4322   -1.0955 C   0  0  0  0  0  0  0  0  0  0  0  0
   34.2026   41.1310   -6.9254 C   0  0  0  0  0  0  0  0  0  0  0  0
   34.2640   41.4473   -8.3473 N   0  0  0  0  0  0  0  0  0  0  0  0
   33.5558   42.4802   -8.8886 C   0  0  0  0  0  0  0  0  0  0  0  0
   32.8572   43.2532   -8.2516 O   0  0  0  0  0  0  0  0  0  0  0  0
   34.8335   40.8992   -8.9343 H   0  0  0  0  0  0  0  0  0  0  0  0
   33.7457   42.4779  -10.2253 O   0  0  0  0  0  0  0  0  0  0  0  0
   32.5681   42.6749  -11.0231 C   0  0  0  0  0  0  0  0  0  0  0  0
   32.7792   43.8699  -11.9178 C   0  0  0  0  0  0  0  0  0  0  0  0
   33.1535   43.6910  -13.2576 C   0  0  0  0  0  0  0  0  0  0  0  0
   33.3508   44.7948  -14.0917 C   0  0  0  0  0  0  0  0  0  0  0  0
   33.1775   46.0875  -13.5926 C   0  0  0  0  0  0  0  0  0  0  0  0
   32.8132   46.2770  -12.2612 C   0  0  0  0  0  0  0  0  0  0  0  0
   32.6210   45.1715  -11.4258 C   0  0  0  0  0  0  0  0  0  0  0  0
   34.2308   39.6222   -6.6691 C   0  0  0  0  0  0  0  0  0  0  0  0
   34.8053   38.8358   -7.8280 C   0  0  0  0  0  0  0  0  0  0  0  0
   36.1129   38.3307   -7.7738 C   0  0  0  0  0  0  0  0  0  0  0  0
   36.6496   37.6313   -8.8573 C   0  0  0  0  0  0  0  0  0  0  0  0
   35.8863   37.4256  -10.0029 C   0  0  0  0  0  0  0  0  0  0  0  0
   34.5835   37.9198  -10.0689 C   0  0  0  0  0  0  0  0  0  0  0  0
   34.0455   38.6232   -8.9870 C   0  0  0  0  0  0  0  0  0  0  0  0
 24 25  1  0
 25 26  1  0
 25 23  1  0
  7 23  1  0
  7  5  1  0
  5  1  1  0
  1  2  2  0
  1  3  1  0
  1 27  1  0
 27 40  1  0
 40 41  1  0
 41 42  2  0
 42 43  1  0
 43 44  2  0
 44 45  1  0
 45 46  2  0
 27 28  1  0
 28 29  1  0
 29 30  2  0
 29 32  1  0
 32 33  1  0
 33 34  1  0
 34 35  2  0
 35 36  1  0
 36 37  2  0
 37 38  1  0
 38 39  2  0
  7  8  1  0
  8  9  2  0
  8 10  1  0
 10 12  1  0
 12 13  1  0
 12 14  1  0
 14 15  1  0
 15 16  1  0
 15 17  1  0
 15 18  1  0
 18 19  1  0
 19 20  1  0
 19 21  1  0
 19 22  1  0
 46 41  1  0
 39 34  1  0
  5  6  1  0
  3  4  1  0
 28 31  1  0
 10 11  1  0
M  CHG 1  15   1
M  CHG 1  19   1
M  END
> <minimizedAffinity>
-8.10442

> <CNNscore>
0.6339042187

> <CNNaffinity>
7.9098739624

> <CNN_VS>
5.0141024590

> <CNNaffinity_variance>
0.0485570878

$$$$



 46 47  0  0  0  0  0  0  0  0999 V2000
   35.8547   41.9679   -5.6468 P   0  0  0  0  0  0  0  0  0  0  0  0
   35.1500   43.1558   -5.0686 O   0  0  0  0  0  0  0  0  0  0  0  0
   36.8677   42.5265   -6.7728 O   0  0  0  0  0  0  0  0  0  0  0  0
   36.3664   43.0125   -7.4462 H   0  0  0  0  0  0  0  0  0  0  0  0
   34.9328   40.8882   -6.4658 N   0  0  0  0  0  0  0  0  0  0  0  0
   35.1679   39.9693   -6.0907 H   0  0  0  0  0  0  0  0  0  0  0  0
   34.9953   40.7636   -7.9323 C   0  0  0  0  0  0  0  0  0  0  0  0
   33.9743   41.7176   -8.5861 C   0  0  0  0  0  0  0  0  0  0  0  0
   33.2502   42.4872   -7.9430 O   0  0  0  0  0  0  0  0  0  0  0  0
   33.9296   41.7126   -9.9669 N   0  0  0  0  0  0  0  0  0  0  0  0
   34.4462   41.0391  -10.4657 H   0  0  0  0  0  0  0  0  0  0  0  0
   33.1256   42.6937  -10.7015 C   0  0  0  0  0  0  0  0  0  0  0  0
   33.7938   44.0713  -10.5743 C   0  0  0  0  0  0  0  0  0  0  0  0
   32.9635   42.3227  -12.2185 C   0  0  0  0  0  0  0  0  0  0  0  0
   31.4480   42.0285  -12.7157 N   0  0  0  0  0  0  0  0  0  0  0  0
   31.5923   41.5304  -14.1440 C   0  0  0  0  0  0  0  0  0  0  0  0
   30.6964   43.3601  -12.7235 C   0  0  0  0  0  0  0  0  0  0  0  0
   30.8616   40.9941  -11.7709 C   0  0  0  0  0  0  0  0  0  0  0  0
   29.5302   40.3119  -12.0379 N   0  0  0  0  0  0  0  0  0  0  0  0
   29.9089   39.0341  -12.8500 C   0  0  0  0  0  0  0  0  0  0  0  0
   28.6082   41.1124  -12.9542 C   0  0  0  0  0  0  0  0  0  0  0  0
   28.7689   39.8394  -10.8248 C   0  0  0  0  0  0  0  0  0  0  0  0
   34.7876   39.3022   -8.3771 C   0  0  0  0  0  0  0  0  0  0  0  0
   34.3132   37.0491   -7.3505 C   0  0  0  0  0  0  0  0  0  0  0  0
   33.8154   38.4941   -7.4898 C   0  0  0  0  0  0  0  0  0  0  0  0
   32.3813   38.4854   -8.0213 C   0  0  0  0  0  0  0  0  0  0  0  0
   36.9485   41.0900   -4.4722 C   0  0  0  0  0  0  0  0  0  0  0  0
   37.5689   39.9850   -5.1930 N   0  0  0  0  0  0  0  0  0  0  0  0
   38.2231   38.9775   -4.5462 C   0  0  0  0  0  0  0  0  0  0  0  0
   38.3126   38.8733   -3.3327 O   0  0  0  0  0  0  0  0  0  0  0  0
   37.5141   39.9653   -6.1758 H   0  0  0  0  0  0  0  0  0  0  0  0
   38.7587   38.1504   -5.4692 O   0  0  0  0  0  0  0  0  0  0  0  0
   39.4126   36.9803   -4.9539 C   0  0  0  0  0  0  0  0  0  0  0  0
   40.8995   37.1220   -5.1593 C   0  0  0  0  0  0  0  0  0  0  0  0
   41.7003   37.6833   -4.1540 C   0  0  0  0  0  0  0  0  0  0  0  0
   43.0791   37.8174   -4.3387 C   0  0  0  0  0  0  0  0  0  0  0  0
   43.6689   37.3931   -5.5313 C   0  0  0  0  0  0  0  0  0  0  0  0
   42.8816   36.8411   -6.5396 C   0  0  0  0  0  0  0  0  0  0  0  0
   41.5008   36.7121   -6.3558 C   0  0  0  0  0  0  0  0  0  0  0  0
   37.9859   42.0041   -3.8154 C   0  0  0  0  0  0  0  0  0  0  0  0
   37.7055   42.2603   -2.3501 C   0  0  0  0  0  0  0  0  0  0  0  0
   37.0686   41.2905   -1.5615 C   0  0  0  0  0  0  0  0  0  0  0  0
   36.7848   41.5425   -0.2172 C   0  0  0  0  0  0  0  0  0  0  0  0
   37.1369   42.7620    0.3540 C   0  0  0  0  0  0  0  0  0  0  0  0
   37.7734   43.7340   -0.4178 C   0  0  0  0  0  0  0  0  0  0  0  0
   38.0553   43.4852   -1.7646 C   0  0  0  0  0  0  0  0  0  0  0  0
 24 25  1  0
 25 26  1  0
 25 23  1  0
  7 23  1  0
  7  5  1  0
  5  1  1  0
  1  2  2  0
  1  3  1  0
  1 27  1  0
 27 40  1  0
 40 41  1  0
 41 42  2  0
 42 43  1  0
 43 44  2  0
 44 45  1  0
 45 46  2  0
 27 28  1  0
 28 29  1  0
 29 30  2  0
 29 32  1  0
 32 33  1  0
 33 34  1  0
 34 35  2  0
 35 36  1  0
 36 37  2  0
 37 38  1  0
 38 39  2  0
  7  8  1  0
  8  9  2  0
  8 10  1  0
 10 12  1  0
 12 13  1  0
 12 14  1  0
 14 15  1  0
 15 16  1  0
 15 17  1  0
 15 18  1  0
 18 19  1  0
 19 20  1  0
 19 21  1  0
 19 22  1  0
 46 41  1  0
 39 34  1  0
  5  6  1  0
  3  4  1  0
 28 31  1  0
 10 11  1  0
M  CHG 1  15   1
M  CHG 1  19   1
M  END
> <minimizedAffinity>
-7.42069

> <CNNscore>
0.5364224911

> <CNNaffinity>
7.2846641541

> <CNN_VS>
3.9076576233

> <CNNaffinity_variance>
0.1780006438

$$$$



 46 47  0  0  0  0  0  0  0  0999 V2000
   36.0844   42.1759   -5.5102 P   0  0  0  0  0  0  0  0  0  0  0  0
   34.6788   42.6729   -5.3711 O   0  0  0  0  0  0  0  0  0  0  0  0
   36.9242   43.3444   -6.2418 O   0  0  0  0  0  0  0  0  0  0  0  0
   36.5231   43.5401   -7.1031 H   0  0  0  0  0  0  0  0  0  0  0  0
   36.3158   40.8757   -6.4809 N   0  0  0  0  0  0  0  0  0  0  0  0
   37.1243   41.0941   -7.0631 H   0  0  0  0  0  0  0  0  0  0  0  0
   35.2683   40.3890   -7.3952 C   0  0  0  0  0  0  0  0  0  0  0  0
   34.6088   41.5793   -8.1221 C   0  0  0  0  0  0  0  0  0  0  0  0
   35.1771   42.6608   -8.3156 O   0  0  0  0  0  0  0  0  0  0  0  0
   33.3317   41.3692   -8.6056 N   0  0  0  0  0  0  0  0  0  0  0  0
   32.8568   40.5385   -8.3739 H   0  0  0  0  0  0  0  0  0  0  0  0
   32.6724   42.3628   -9.4579 C   0  0  0  0  0  0  0  0  0  0  0  0
   32.8513   43.7508   -8.8239 C   0  0  0  0  0  0  0  0  0  0  0  0
   33.2421   42.3723  -10.9209 C   0  0  0  0  0  0  0  0  0  0  0  0
   32.1407   42.2902  -12.1086 N   0  0  0  0  0  0  0  0  0  0  0  0
   31.1066   41.2908  -11.6176 C   0  0  0  0  0  0  0  0  0  0  0  0
   32.8362   41.7236  -13.3467 C   0  0  0  0  0  0  0  0  0  0  0  0
   31.5852   43.6908  -12.2991 C   0  0  0  0  0  0  0  0  0  0  0  0
   31.9569   44.5571  -13.4910 N   0  0  0  0  0  0  0  0  0  0  0  0
   32.7885   43.6094  -14.4107 C   0  0  0  0  0  0  0  0  0  0  0  0
   32.8994   45.7054  -13.1394 C   0  0  0  0  0  0  0  0  0  0  0  0
   30.8100   45.0682  -14.3263 C   0  0  0  0  0  0  0  0  0  0  0  0
   34.2341   39.5235   -6.6481 C   0  0  0  0  0  0  0  0  0  0  0  0
   32.6847   37.5349   -6.6280 C   0  0  0  0  0  0  0  0  0  0  0  0
   33.8026   38.2466   -7.4021 C   0  0  0  0  0  0  0  0  0  0  0  0
   34.9547   37.2688   -7.6385 C   0  0  0  0  0  0  0  0  0  0  0  0
   36.9632   41.9344   -3.9239 C   0  0  0  0  0  0  0  0  0  0  0  0
   38.2379   41.2930   -4.2221 N   0  0  0  0  0  0  0  0  0  0  0  0
   38.6865   40.2148   -3.5165 C   0  0  0  0  0  0  0  0  0  0  0  0
   38.0651   39.6619   -2.6222 O   0  0  0  0  0  0  0  0  0  0  0  0
   38.7915   41.6483   -4.9546 H   0  0  0  0  0  0  0  0  0  0  0  0
   39.9202   39.8932   -3.9607 O   0  0  0  0  0  0  0  0  0  0  0  0
   40.6681   38.9933   -3.1282 C   0  0  0  0  0  0  0  0  0  0  0  0
   41.8797   38.5178   -3.8892 C   0  0  0  0  0  0  0  0  0  0  0  0
   43.1617   38.9439   -3.5123 C   0  0  0  0  0  0  0  0  0  0  0  0
   44.2885   38.5066   -4.2139 C   0  0  0  0  0  0  0  0  0  0  0  0
   44.1429   37.6410   -5.3000 C   0  0  0  0  0  0  0  0  0  0  0  0
   42.8734   37.2175   -5.6877 C   0  0  0  0  0  0  0  0  0  0  0  0
   41.7458   37.6598   -4.9879 C   0  0  0  0  0  0  0  0  0  0  0  0
   37.1424   43.2308   -3.1300 C   0  0  0  0  0  0  0  0  0  0  0  0
   37.2256   43.0029   -1.6358 C   0  0  0  0  0  0  0  0  0  0  0  0
   38.0892   43.7705   -0.8403 C   0  0  0  0  0  0  0  0  0  0  0  0
   38.1850   43.5369    0.5336 C   0  0  0  0  0  0  0  0  0  0  0  0
   37.4180   42.5387    1.1273 C   0  0  0  0  0  0  0  0  0  0  0  0
   36.5529   41.7700    0.3485 C   0  0  0  0  0  0  0  0  0  0  0  0
   36.4579   41.9998   -1.0275 C   0  0  0  0  0  0  0  0  0  0  0  0
 24 25  1  0
 25 26  1  0
 25 23  1  0
  7 23  1  0
  7  5  1  0
  5  1  1  0
  1  2  2  0
  1  3  1  0
  1 27  1  0
 27 40  1  0
 40 41  1  0
 41 42  2  0
 42 43  1  0
 43 44  2  0
 44 45  1  0
 45 46  2  0
 27 28  1  0
 28 29  1  0
 29 30  2  0
 29 32  1  0
 32 33  1  0
 33 34  1  0
 34 35  2  0
 35 36  1  0
 36 37  2  0
 37 38  1  0
 38 39  2  0
  7  8  1  0
  8  9  2  0
  8 10  1  0
 10 12  1  0
 12 13  1  0
 12 14  1  0
 14 15  1  0
 15 16  1  0
 15 17  1  0
 15 18  1  0
 18 19  1  0
 19 20  1  0
 19 21  1  0
 19 22  1  0
 46 41  1  0
 39 34  1  0
  5  6  1  0
  3  4  1  0
 28 31  1  0
 10 11  1  0
M  CHG 1  15   1
M  CHG 1  19   1
M  END
> <minimizedAffinity>
-8.23724

> <CNNscore>
0.5314627290

> <CNNaffinity>
7.4876465797

> <CNN_VS>
3.9794051647

> <CNNaffinity_variance>
0.2865453959

$$$$



 46 47  0  0  0  0  0  0  0  0999 V2000
   35.4936   42.0854   -6.4983 P   0  0  0  0  0  0  0  0  0  0  0  0
   34.0240   42.3673   -6.4464 O   0  0  0  0  0  0  0  0  0  0  0  0
   36.2203   43.4636   -6.9206 O   0  0  0  0  0  0  0  0  0  0  0  0
   35.8785   43.7596   -7.7788 H   0  0  0  0  0  0  0  0  0  0  0  0
   36.0023   41.0221   -7.6373 N   0  0  0  0  0  0  0  0  0  0  0  0
   36.3640   41.5819   -8.4094 H   0  0  0  0  0  0  0  0  0  0  0  0
   35.0949   40.0289   -8.2374 C   0  0  0  0  0  0  0  0  0  0  0  0
   33.9274   40.7438   -8.9487 C   0  0  0  0  0  0  0  0  0  0  0  0
   32.7660   40.3180   -8.9509 O   0  0  0  0  0  0  0  0  0  0  0  0
   34.2292   41.9423   -9.5661 N   0  0  0  0  0  0  0  0  0  0  0  0
   35.1684   42.2300   -9.6322 H   0  0  0  0  0  0  0  0  0  0  0  0
   33.1739   42.7927  -10.1243 C   0  0  0  0  0  0  0  0  0  0  0  0
   32.8237   43.8802   -9.0970 C   0  0  0  0  0  0  0  0  0  0  0  0
   33.5961   43.4624  -11.4802 C   0  0  0  0  0  0  0  0  0  0  0  0
   32.6622   43.1159  -12.7602 N   0  0  0  0  0  0  0  0  0  0  0  0
   31.2357   43.2631  -12.2578 C   0  0  0  0  0  0  0  0  0  0  0  0
   32.9130   41.6547  -13.1343 C   0  0  0  0  0  0  0  0  0  0  0  0
   33.0227   44.1043  -13.8555 C   0  0  0  0  0  0  0  0  0  0  0  0
   32.3125   44.1231  -15.1989 N   0  0  0  0  0  0  0  0  0  0  0  0
   33.3131   44.8475  -16.1527 C   0  0  0  0  0  0  0  0  0  0  0  0
   31.0517   44.9837  -15.2097 C   0  0  0  0  0  0  0  0  0  0  0  0
   32.0251   42.7788  -15.8191 C   0  0  0  0  0  0  0  0  0  0  0  0
   34.5980   39.0192   -7.1837 C   0  0  0  0  0  0  0  0  0  0  0  0
   33.0445   37.0379   -7.0539 C   0  0  0  0  0  0  0  0  0  0  0  0
   34.2923   37.6110   -7.7394 C   0  0  0  0  0  0  0  0  0  0  0  0
   35.4554   36.6321   -7.5714 C   0  0  0  0  0  0  0  0  0  0  0  0
   36.2437   41.6738   -4.8813 C   0  0  0  0  0  0  0  0  0  0  0  0
   36.9389   40.4012   -5.0317 N   0  0  0  0  0  0  0  0  0  0  0  0
   38.1701   40.1818   -4.4861 C   0  0  0  0  0  0  0  0  0  0  0  0
   38.7776   40.9854   -3.7958 O   0  0  0  0  0  0  0  0  0  0  0  0
   36.5070   39.6786   -5.5422 H   0  0  0  0  0  0  0  0  0  0  0  0
   38.5926   38.9546   -4.8578 O   0  0  0  0  0  0  0  0  0  0  0  0
   39.9388   38.6194   -4.4867 C   0  0  0  0  0  0  0  0  0  0  0  0
   39.9123   37.8719   -3.1777 C   0  0  0  0  0  0  0  0  0  0  0  0
   38.7404   37.8385   -2.4078 C   0  0  0  0  0  0  0  0  0  0  0  0
   38.7097   37.1475   -1.1934 C   0  0  0  0  0  0  0  0  0  0  0  0
   39.8515   36.4854   -0.7373 C   0  0  0  0  0  0  0  0  0  0  0  0
   41.0233   36.5185   -1.4904 C   0  0  0  0  0  0  0  0  0  0  0  0
   41.0544   37.2148   -2.7033 C   0  0  0  0  0  0  0  0  0  0  0  0
   37.1642   42.7733   -4.3459 C   0  0  0  0  0  0  0  0  0  0  0  0
   36.9952   43.0156   -2.8612 C   0  0  0  0  0  0  0  0  0  0  0  0
   37.7357   44.0122   -2.2083 C   0  0  0  0  0  0  0  0  0  0  0  0
   37.5987   44.2126   -0.8327 C   0  0  0  0  0  0  0  0  0  0  0  0
   36.7196   43.4238   -0.0964 C   0  0  0  0  0  0  0  0  0  0  0  0
   35.9749   42.4313   -0.7335 C   0  0  0  0  0  0  0  0  0  0  0  0
   36.1129   42.2266   -2.1097 C   0  0  0  0  0  0  0  0  0  0  0  0
 24 25  1  0
 25 26  1  0
 25 23  1  0
  7 23  1  0
  7  5  1  0
  5  1  1  0
  1  2  2  0
  1  3  1  0
  1 27  1  0
 27 40  1  0
 40 41  1  0
 41 42  2  0
 42 43  1  0
 43 44  2  0
 44 45  1  0
 45 46  2  0
 27 28  1  0
 28 29  1  0
 29 30  2  0
 29 32  1  0
 32 33  1  0
 33 34  1  0
 34 35  2  0
 35 36  1  0
 36 37  2  0
 37 38  1  0
 38 39  2  0
  7  8  1  0
  8  9  2  0
  8 10  1  0
 10 12  1  0
 12 13  1  0
 12 14  1  0
 14 15  1  0
 15 16  1  0
 15 17  1  0
 15 18  1  0
 18 19  1  0
 19 20  1  0
 19 21  1  0
 19 22  1  0
 46 41  1  0
 39 34  1  0
  5  6  1  0
  3  4  1  0
 28 31  1  0
 10 11  1  0
M  CHG 1  15   1
M  CHG 1  19   1
M  END
> <minimizedAffinity>
-8.07414

> <CNNscore>
0.5128438473

> <CNNaffinity>
7.4123501778

> <CNN_VS>
3.8013782501

> <CNNaffinity_variance>
0.4275969565

$$$$



 46 47  0  0  0  0  0  0  0  0999 V2000
   36.2380   42.2437   -5.3627 P   0  0  0  0  0  0  0  0  0  0  0  0
   34.9581   43.0207   -5.3535 O   0  0  0  0  0  0  0  0  0  0  0  0
   37.3126   43.1210   -6.1883 O   0  0  0  0  0  0  0  0  0  0  0  0
   36.9796   43.2796   -7.0854 H   0  0  0  0  0  0  0  0  0  0  0  0
   36.2264   40.8099   -6.1568 N   0  0  0  0  0  0  0  0  0  0  0  0
   37.1439   40.7173   -6.5927 H   0  0  0  0  0  0  0  0  0  0  0  0
   35.2383   40.5082   -7.2070 C   0  0  0  0  0  0  0  0  0  0  0  0
   35.7193   39.3127   -8.0551 C   0  0  0  0  0  0  0  0  0  0  0  0
   36.3637   39.4351   -9.1039 O   0  0  0  0  0  0  0  0  0  0  0  0
   35.4326   38.0557   -7.5584 N   0  0  0  0  0  0  0  0  0  0  0  0
   34.8482   37.9679   -6.7711 H   0  0  0  0  0  0  0  0  0  0  0  0
   35.9845   36.8508   -8.1846 C   0  0  0  0  0  0  0  0  0  0  0  0
   36.2219   35.7947   -7.0944 C   0  0  0  0  0  0  0  0  0  0  0  0
   35.0403   36.2636   -9.2931 C   0  0  0  0  0  0  0  0  0  0  0  0
   35.7783   35.6907  -10.6189 N   0  0  0  0  0  0  0  0  0  0  0  0
   37.1759   36.2858  -10.5793 C   0  0  0  0  0  0  0  0  0  0  0  0
   35.0346   36.2399  -11.8367 C   0  0  0  0  0  0  0  0  0  0  0  0
   35.7632   34.1754  -10.5179 C   0  0  0  0  0  0  0  0  0  0  0  0
   35.6385   33.2808  -11.7400 N   0  0  0  0  0  0  0  0  0  0  0  0
   35.8983   31.8428  -11.1919 C   0  0  0  0  0  0  0  0  0  0  0  0
   36.7289   33.5171  -12.7820 C   0  0  0  0  0  0  0  0  0  0  0  0
   34.2861   33.2483  -12.4064 C   0  0  0  0  0  0  0  0  0  0  0  0
   34.9475   41.7506   -8.0723 C   0  0  0  0  0  0  0  0  0  0  0  0
   33.4543   41.2494  -10.0408 C   0  0  0  0  0  0  0  0  0  0  0  0
   33.5053   41.8270   -8.6198 C   0  0  0  0  0  0  0  0  0  0  0  0
   32.9406   43.2483   -8.6318 C   0  0  0  0  0  0  0  0  0  0  0  0
   37.0124   42.0396   -3.7179 C   0  0  0  0  0  0  0  0  0  0  0  0
   38.3595   41.5235   -3.9286 N   0  0  0  0  0  0  0  0  0  0  0  0
   38.6429   40.1911   -3.8508 C   0  0  0  0  0  0  0  0  0  0  0  0
   37.8157   39.3150   -3.6515 O   0  0  0  0  0  0  0  0  0  0  0  0
   39.0864   42.1552   -4.1330 H   0  0  0  0  0  0  0  0  0  0  0  0
   39.9734   40.0245   -4.0081 O   0  0  0  0  0  0  0  0  0  0  0  0
   40.5337   38.8572   -3.3872 C   0  0  0  0  0  0  0  0  0  0  0  0
   41.5899   38.2808   -4.2957 C   0  0  0  0  0  0  0  0  0  0  0  0
   41.2213   37.4864   -5.3912 C   0  0  0  0  0  0  0  0  0  0  0  0
   42.1957   36.9492   -6.2367 C   0  0  0  0  0  0  0  0  0  0  0  0
   43.5477   37.2001   -5.9929 C   0  0  0  0  0  0  0  0  0  0  0  0
   43.9254   37.9817   -4.9030 C   0  0  0  0  0  0  0  0  0  0  0  0
   42.9494   38.5146   -4.0543 C   0  0  0  0  0  0  0  0  0  0  0  0
   37.0113   43.3250   -2.8868 C   0  0  0  0  0  0  0  0  0  0  0  0
   37.2664   43.0784   -1.4152 C   0  0  0  0  0  0  0  0  0  0  0  0
   36.5995   42.0492   -0.7344 C   0  0  0  0  0  0  0  0  0  0  0  0
   36.8153   41.8440    0.6304 C   0  0  0  0  0  0  0  0  0  0  0  0
   37.7009   42.6605    1.3277 C   0  0  0  0  0  0  0  0  0  0  0  0
   38.3732   43.6858    0.6623 C   0  0  0  0  0  0  0  0  0  0  0  0
   38.1560   43.8952   -0.7030 C   0  0  0  0  0  0  0  0  0  0  0  0
 24 25  1  0
 25 26  1  0
 25 23  1  0
  7 23  1  0
  7  5  1  0
  5  1  1  0
  1  2  2  0
  1  3  1  0
  1 27  1  0
 27 40  1  0
 40 41  1  0
 41 42  2  0
 42 43  1  0
 43 44  2  0
 44 45  1  0
 45 46  2  0
 27 28  1  0
 28 29  1  0
 29 30  2  0
 29 32  1  0
 32 33  1  0
 33 34  1  0
 34 35  2  0
 35 36  1  0
 36 37  2  0
 37 38  1  0
 38 39  2  0
  7  8  1  0
  8  9  2  0
  8 10  1  0
 10 12  1  0
 12 13  1  0
 12 14  1  0
 14 15  1  0
 15 16  1  0
 15 17  1  0
 15 18  1  0
 18 19  1  0
 19 20  1  0
 19 21  1  0
 19 22  1  0
 46 41  1  0
 39 34  1  0
  5  6  1  0
  3  4  1  0
 28 31  1  0
 10 11  1  0
M  CHG 1  15   1
M  CHG 1  19   1
M  END
> <minimizedAffinity>
-7.11237

> <CNNscore>
0.4684397876

> <CNNaffinity>
7.0287690163

> <CNN_VS>
3.2925550938

> <CNNaffinity_variance>
0.0417038016

$$$$
