


 23 23  0  0  0  0  0  0  0  0999 V2000
   11.4805   -6.7260   18.8135 C   0  0  0  0  0  0  0  0  0  0  0  0
   10.6279   -5.6895   18.0782 C   0  0  0  0  0  0  0  0  0  0  0  0
    9.2447   -6.0690   18.3916 N   0  0  0  0  0  0  0  0  0  0  0  0
    9.2258   -6.4815   19.8106 C   0  0  0  0  0  0  0  0  0  0  0  0
   10.7014   -6.8500   20.1426 C   0  0  0  0  0  0  0  0  0  0  0  0
    8.9498   -6.8435   17.7969 H   0  0  0  0  0  0  0  0  0  0  0  0
   12.6117   -8.9447   18.2079 C   0  0  0  0  0  0  0  0  0  0  0  0
   11.7538   -7.9478   17.9361 C   0  0  0  0  0  0  0  0  0  0  0  0
   10.9449   -7.9905   16.6613 C   0  0  0  0  0  0  0  0  0  0  0  0
    8.1507   -7.5508   20.1026 C   0  0  0  0  0  0  0  0  0  0  0  0
    6.7325   -7.1071   20.6369 C   0  0  0  0  0  0  0  0  0  0  0  0
    5.6407   -8.0650   20.1254 C   0  0  0  0  0  0  0  0  0  0  0  0
    6.4229   -5.6892   20.1378 C   0  0  0  0  0  0  0  0  0  0  0  0
    6.8380   -7.1909   22.2059 C   0  0  0  0  0  0  0  0  0  0  0  0
    5.8211   -6.5402   23.1983 C   0  0  0  0  0  0  0  0  0  0  0  0
    5.8660   -7.1260   24.6141 C   0  0  0  0  0  0  0  0  0  0  0  0
    6.2015   -5.0399   23.3067 C   0  0  0  0  0  0  0  0  0  0  0  0
    4.3752   -6.5928   22.6664 C   0  0  0  0  0  0  0  0  0  0  0  0
   11.0091   -8.0951   20.9736 C   0  0  0  0  0  0  0  0  0  0  0  0
   12.2306   -7.9099   21.8331 C   0  0  0  0  0  0  0  0  0  0  0  0
   12.4472   -6.9815   22.5940 O   0  0  0  0  0  0  0  0  0  0  0  0
   13.1226   -8.9095   21.6966 O   0  0  0  0  0  0  0  0  0  0  0  0
   12.9461   -9.6179   21.1092 H   0  0  0  0  0  0  0  0  0  0  0  0
  7  8  2  0
  8  9  1  0
  1  8  1  0
  1  2  1  0
  2  3  1  0
  3  4  1  0
  4 10  1  0
 10 11  1  0
 11 12  1  0
 11 13  1  0
 11 14  1  0
 14 15  1  0
 15 16  1  0
 15 17  1  0
 15 18  1  0
  4  5  1  0
  5 19  1  0
 19 20  1  0
 20 21  2  0
 20 22  1  0
  5  1  1  0
  3  6  1  0
 22 23  1  0
M  END
> <minimizedAffinity>
-5.06157

> <CNNscore>
0.4609829187

> <CNNaffinity>
4.8423438072

> <CNN_VS>
2.2322378159

> <CNNaffinity_variance>
0.0082795424

$$$$



 23 23  0  0  0  0  0  0  0  0999 V2000
   17.6912   -5.8710   23.3765 C   0  0  0  0  0  0  0  0  0  0  0  0
   19.0978   -5.9814   23.9690 C   0  0  0  0  0  0  0  0  0  0  0  0
   19.9909   -5.6948   22.8394 N   0  0  0  0  0  0  0  0  0  0  0  0
   19.3672   -4.5987   22.0689 C   0  0  0  0  0  0  0  0  0  0  0  0
   17.8605   -4.6392   22.4585 C   0  0  0  0  0  0  0  0  0  0  0  0
   20.0920   -6.5231   22.2528 H   0  0  0  0  0  0  0  0  0  0  0  0
   17.8374   -8.3945   22.9525 C   0  0  0  0  0  0  0  0  0  0  0  0
   17.2113   -7.2134   22.8241 C   0  0  0  0  0  0  0  0  0  0  0  0
   15.8967   -7.1459   22.0834 C   0  0  0  0  0  0  0  0  0  0  0  0
   19.7069   -4.6644   20.5640 C   0  0  0  0  0  0  0  0  0  0  0  0
   21.2122   -4.8069   20.1085 C   0  0  0  0  0  0  0  0  0  0  0  0
   21.3092   -4.8356   18.5720 C   0  0  0  0  0  0  0  0  0  0  0  0
   21.7899   -6.1144   20.6673 C   0  0  0  0  0  0  0  0  0  0  0  0
   21.9376   -3.5293   20.6755 C   0  0  0  0  0  0  0  0  0  0  0  0
   23.3850   -3.5204   21.2647 C   0  0  0  0  0  0  0  0  0  0  0  0
   23.5709   -4.4334   22.4818 C   0  0  0  0  0  0  0  0  0  0  0  0
   24.3249   -4.0438   20.1466 C   0  0  0  0  0  0  0  0  0  0  0  0
   23.8619   -2.0966   21.6131 C   0  0  0  0  0  0  0  0  0  0  0  0
   16.7888   -4.4662   21.3830 C   0  0  0  0  0  0  0  0  0  0  0  0
   16.2444   -3.0633   21.3519 C   0  0  0  0  0  0  0  0  0  0  0  0
   15.6730   -2.5284   20.4165 O   0  0  0  0  0  0  0  0  0  0  0  0
   16.4421   -2.4000   22.5071 O   0  0  0  0  0  0  0  0  0  0  0  0
   16.8823   -2.8205   23.2194 H   0  0  0  0  0  0  0  0  0  0  0  0
  7  8  2  0
  8  9  1  0
  1  8  1  0
  1  2  1  0
  2  3  1  0
  3  4  1  0
  4 10  1  0
 10 11  1  0
 11 12  1  0
 11 13  1  0
 11 14  1  0
 14 15  1  0
 15 16  1  0
 15 17  1  0
 15 18  1  0
  4  5  1  0
  5 19  1  0
 19 20  1  0
 20 21  2  0
 20 22  1  0
  5  1  1  0
  3  6  1  0
 22 23  1  0
M  END
> <minimizedAffinity>
-5.59429

> <CNNscore>
0.3056018353

> <CNNaffinity>
4.4224715233

> <CNN_VS>
1.3515154123

> <CNNaffinity_variance>
0.3108879626

$$$$



 23 23  0  0  0  0  0  0  0  0999 V2000
   10.3302   -5.9259   18.1935 C   0  0  0  0  0  0  0  0  0  0  0  0
    9.7207   -4.5823   17.7872 C   0  0  0  0  0  0  0  0  0  0  0  0
    8.2800   -4.7547   18.0114 N   0  0  0  0  0  0  0  0  0  0  0  0
    8.1316   -5.5264   19.2632 C   0  0  0  0  0  0  0  0  0  0  0  0
    9.4955   -6.2526   19.4526 C   0  0  0  0  0  0  0  0  0  0  0  0
    7.8621   -5.2646   17.2331 H   0  0  0  0  0  0  0  0  0  0  0  0
    9.4306   -7.0885   16.0940 C   0  0  0  0  0  0  0  0  0  0  0  0
   10.3930   -6.8912   17.0096 C   0  0  0  0  0  0  0  0  0  0  0  0
   11.6887   -7.6601   16.9032 C   0  0  0  0  0  0  0  0  0  0  0  0
    6.8605   -6.4030   19.2716 C   0  0  0  0  0  0  0  0  0  0  0  0
    5.7012   -6.0881   20.2966 C   0  0  0  0  0  0  0  0  0  0  0  0
    4.7319   -7.2805   20.3960 C   0  0  0  0  0  0  0  0  0  0  0  0
    4.9233   -4.8541   19.8196 C   0  0  0  0  0  0  0  0  0  0  0  0
    6.4226   -5.8570   21.6773 C   0  0  0  0  0  0  0  0  0  0  0  0
    5.7133   -5.9173   23.0685 C   0  0  0  0  0  0  0  0  0  0  0  0
    4.1829   -5.8767   22.9931 C   0  0  0  0  0  0  0  0  0  0  0  0
    6.1085   -7.2726   23.7122 C   0  0  0  0  0  0  0  0  0  0  0  0
    6.2099   -4.8128   24.0223 C   0  0  0  0  0  0  0  0  0  0  0  0
    9.5272   -7.7121   19.9043 C   0  0  0  0  0  0  0  0  0  0  0  0
   10.8533   -8.0845   20.5108 C   0  0  0  0  0  0  0  0  0  0  0  0
   11.5220   -9.0687   20.2425 O   0  0  0  0  0  0  0  0  0  0  0  0
   11.2783   -7.1933   21.4266 O   0  0  0  0  0  0  0  0  0  0  0  0
   10.7568   -6.4406   21.6251 H   0  0  0  0  0  0  0  0  0  0  0  0
  7  8  2  0
  8  9  1  0
  1  8  1  0
  1  2  1  0
  2  3  1  0
  3  4  1  0
  4 10  1  0
 10 11  1  0
 11 12  1  0
 11 13  1  0
 11 14  1  0
 14 15  1  0
 15 16  1  0
 15 17  1  0
 15 18  1  0
  4  5  1  0
  5 19  1  0
 19 20  1  0
 20 21  2  0
 20 22  1  0
  5  1  1  0
  3  6  1  0
 22 23  1  0
M  END
> <minimizedAffinity>
-4.81603

> <CNNscore>
0.2371588349

> <CNNaffinity>
4.2100071907

> <CNN_VS>
0.9984403849

> <CNNaffinity_variance>
0.4197348058

$$$$



 23 23  0  0  0  0  0  0  0  0999 V2000
   23.6589   -6.2524   22.0024 C   0  0  0  0  0  0  0  0  0  0  0  0
   23.3804   -5.1221   22.9957 C   0  0  0  0  0  0  0  0  0  0  0  0
   21.9360   -4.8856   22.8807 N   0  0  0  0  0  0  0  0  0  0  0  0
   21.2955   -6.2105   22.7440 C   0  0  0  0  0  0  0  0  0  0  0  0
   22.4256   -7.1538   22.2375 C   0  0  0  0  0  0  0  0  0  0  0  0
   21.7382   -4.3136   22.0596 H   0  0  0  0  0  0  0  0  0  0  0  0
   23.7256   -6.3045   19.4408 C   0  0  0  0  0  0  0  0  0  0  0  0
   23.9902   -5.7059   20.6134 C   0  0  0  0  0  0  0  0  0  0  0  0
   24.6676   -4.3560   20.6225 C   0  0  0  0  0  0  0  0  0  0  0  0
   19.9967   -6.1576   21.9105 C   0  0  0  0  0  0  0  0  0  0  0  0
   18.7226   -5.4304   22.4948 C   0  0  0  0  0  0  0  0  0  0  0  0
   19.0158   -4.8787   23.9022 C   0  0  0  0  0  0  0  0  0  0  0  0
   17.5634   -6.4321   22.5854 C   0  0  0  0  0  0  0  0  0  0  0  0
   18.4288   -4.2476   21.4974 C   0  0  0  0  0  0  0  0  0  0  0  0
   17.2265   -3.2576   21.6267 C   0  0  0  0  0  0  0  0  0  0  0  0
   16.7653   -3.0179   23.0687 C   0  0  0  0  0  0  0  0  0  0  0  0
   17.7085   -1.8948   21.0630 C   0  0  0  0  0  0  0  0  0  0  0  0
   16.0221   -3.6908   20.7676 C   0  0  0  0  0  0  0  0  0  0  0  0
   22.1337   -8.1723   21.1363 C   0  0  0  0  0  0  0  0  0  0  0  0
   21.5144   -9.4302   21.6833 C   0  0  0  0  0  0  0  0  0  0  0  0
   22.0380  -10.2215   22.4499 O   0  0  0  0  0  0  0  0  0  0  0  0
   20.2582   -9.6299   21.2410 O   0  0  0  0  0  0  0  0  0  0  0  0
   19.8657   -9.0157   20.6522 H   0  0  0  0  0  0  0  0  0  0  0  0
  7  8  2  0
  8  9  1  0
  1  8  1  0
  1  2  1  0
  2  3  1  0
  3  4  1  0
  4 10  1  0
 10 11  1  0
 11 12  1  0
 11 13  1  0
 11 14  1  0
 14 15  1  0
 15 16  1  0
 15 17  1  0
 15 18  1  0
  4  5  1  0
  5 19  1  0
 19 20  1  0
 20 21  2  0
 20 22  1  0
  5  1  1  0
  3  6  1  0
 22 23  1  0
M  END
> <minimizedAffinity>
-5.15141

> <CNNscore>
0.2065440267

> <CNNaffinity>
4.0903515816

> <CNN_VS>
0.8448376656

> <CNNaffinity_variance>
0.4096335471

$$$$



 23 23  0  0  0  0  0  0  0  0999 V2000
   11.3938   -6.5310   18.4846 C   0  0  0  0  0  0  0  0  0  0  0  0
   10.7849   -5.3795   17.6815 C   0  0  0  0  0  0  0  0  0  0  0  0
    9.3356   -5.5529   17.8401 N   0  0  0  0  0  0  0  0  0  0  0  0
    9.1049   -5.9608   19.2418 C   0  0  0  0  0  0  0  0  0  0  0  0
   10.4671   -6.5420   19.7215 C   0  0  0  0  0  0  0  0  0  0  0  0
    8.9967   -6.2747   17.2041 H   0  0  0  0  0  0  0  0  0  0  0  0
   12.3963   -8.8113   17.8810 C   0  0  0  0  0  0  0  0  0  0  0  0
   11.5791   -7.7780   17.6198 C   0  0  0  0  0  0  0  0  0  0  0  0
   10.7279   -7.8008   16.3723 C   0  0  0  0  0  0  0  0  0  0  0  0
    7.8608   -6.8616   19.3996 C   0  0  0  0  0  0  0  0  0  0  0  0
    6.5424   -6.2685   20.0350 C   0  0  0  0  0  0  0  0  0  0  0  0
    6.8164   -5.7522   21.4596 C   0  0  0  0  0  0  0  0  0  0  0  0
    5.4725   -7.3668   20.1018 C   0  0  0  0  0  0  0  0  0  0  0  0
    6.1316   -5.0747   19.0936 C   0  0  0  0  0  0  0  0  0  0  0  0
    4.8009   -4.2648   19.2191 C   0  0  0  0  0  0  0  0  0  0  0  0
    4.9673   -2.7535   19.0242 C   0  0  0  0  0  0  0  0  0  0  0  0
    3.8606   -4.7749   18.0953 C   0  0  0  0  0  0  0  0  0  0  0  0
    4.0806   -4.5340   20.5550 C   0  0  0  0  0  0  0  0  0  0  0  0
   10.4996   -7.8202   20.5584 C   0  0  0  0  0  0  0  0  0  0  0  0
   11.7238   -7.8902   21.4311 C   0  0  0  0  0  0  0  0  0  0  0  0
   12.0996   -7.0407   22.2216 O   0  0  0  0  0  0  0  0  0  0  0  0
   12.4167   -9.0336   21.2694 O   0  0  0  0  0  0  0  0  0  0  0  0
   12.1190   -9.6795   20.6593 H   0  0  0  0  0  0  0  0  0  0  0  0
  7  8  2  0
  8  9  1  0
  1  8  1  0
  1  2  1  0
  2  3  1  0
  3  4  1  0
  4 10  1  0
 10 11  1  0
 11 12  1  0
 11 13  1  0
 11 14  1  0
 14 15  1  0
 15 16  1  0
 15 17  1  0
 15 18  1  0
  4  5  1  0
  5 19  1  0
 19 20  1  0
 20 21  2  0
 20 22  1  0
  5  1  1  0
  3  6  1  0
 22 23  1  0
M  END
> <minimizedAffinity>
-5.18341

> <CNNscore>
0.2036780864

> <CNNaffinity>
4.2029347420

> <CNN_VS>
0.8560457230

> <CNNaffinity_variance>
0.4835346639

$$$$



 23 23  0  0  0  0  0  0  0  0999 V2000
   23.3375   -6.4371   22.9635 C   0  0  0  0  0  0  0  0  0  0  0  0
   23.3428   -4.9817   22.4906 C   0  0  0  0  0  0  0  0  0  0  0  0
   21.9578   -4.7307   22.0731 N   0  0  0  0  0  0  0  0  0  0  0  0
   21.0858   -5.4079   23.0556 C   0  0  0  0  0  0  0  0  0  0  0  0
   21.9882   -6.4913   23.7154 C   0  0  0  0  0  0  0  0  0  0  0  0
   21.7978   -5.1115   21.1404 H   0  0  0  0  0  0  0  0  0  0  0  0
   24.1598   -8.6338   21.9305 C   0  0  0  0  0  0  0  0  0  0  0  0
   23.6462   -7.3983   21.8154 C   0  0  0  0  0  0  0  0  0  0  0  0
   23.3100   -6.8579   20.4456 C   0  0  0  0  0  0  0  0  0  0  0  0
   19.7535   -5.8834   22.4366 C   0  0  0  0  0  0  0  0  0  0  0  0
   18.3905   -5.5339   23.1533 C   0  0  0  0  0  0  0  0  0  0  0  0
   18.5516   -5.6095   24.6828 C   0  0  0  0  0  0  0  0  0  0  0  0
   17.3153   -6.5383   22.7168 C   0  0  0  0  0  0  0  0  0  0  0  0
   18.0597   -4.0583   22.7136 C   0  0  0  0  0  0  0  0  0  0  0  0
   17.7793   -3.6140   21.2418 C   0  0  0  0  0  0  0  0  0  0  0  0
   16.3648   -3.9390   20.7487 C   0  0  0  0  0  0  0  0  0  0  0  0
   17.9389   -2.0712   21.2036 C   0  0  0  0  0  0  0  0  0  0  0  0
   18.8126   -4.1905   20.2539 C   0  0  0  0  0  0  0  0  0  0  0  0
   21.4341   -7.8916   23.9755 C   0  0  0  0  0  0  0  0  0  0  0  0
   21.8841   -8.4367   25.3042 C   0  0  0  0  0  0  0  0  0  0  0  0
   22.5140   -9.4646   25.4899 O   0  0  0  0  0  0  0  0  0  0  0  0
   21.5222   -7.6554   26.3397 O   0  0  0  0  0  0  0  0  0  0  0  0
   21.0385   -6.8678   26.1857 H   0  0  0  0  0  0  0  0  0  0  0  0
  7  8  2  0
  8  9  1  0
  1  8  1  0
  1  2  1  0
  2  3  1  0
  3  4  1  0
  4 10  1  0
 10 11  1  0
 11 12  1  0
 11 13  1  0
 11 14  1  0
 14 15  1  0
 15 16  1  0
 15 17  1  0
 15 18  1  0
  4  5  1  0
  5 19  1  0
 19 20  1  0
 20 21  2  0
 20 22  1  0
  5  1  1  0
  3  6  1  0
 22 23  1  0
M  END
> <minimizedAffinity>
-4.75325

> <CNNscore>
0.1384964734

> <CNNaffinity>
3.9731400013

> <CNN_VS>
0.5502659082

> <CNNaffinity_variance>
0.3767859936

$$$$



 23 23  0  0  0  0  0  0  0  0999 V2000
   11.1808   -6.2511   18.5619 C   0  0  0  0  0  0  0  0  0  0  0  0
   10.0158   -5.3912   18.0668 C   0  0  0  0  0  0  0  0  0  0  0  0
    8.8171   -6.1176   18.5038 N   0  0  0  0  0  0  0  0  0  0  0  0
    9.1043   -6.6422   19.8553 C   0  0  0  0  0  0  0  0  0  0  0  0
   10.6576   -6.6719   19.9541 C   0  0  0  0  0  0  0  0  0  0  0  0
    8.6196   -6.8866   17.8634 H   0  0  0  0  0  0  0  0  0  0  0  0
   12.2453   -8.4391   17.7568 C   0  0  0  0  0  0  0  0  0  0  0  0
   11.5892   -7.2917   17.5190 C   0  0  0  0  0  0  0  0  0  0  0  0
   11.1790   -6.9493   16.1063 C   0  0  0  0  0  0  0  0  0  0  0  0
    8.3551   -7.9596   20.1511 C   0  0  0  0  0  0  0  0  0  0  0  0
    7.5110   -8.6514   19.0098 C   0  0  0  0  0  0  0  0  0  0  0  0
    6.4187   -7.6964   18.4940 C   0  0  0  0  0  0  0  0  0  0  0  0
    6.8427   -9.9153   19.5678 C   0  0  0  0  0  0  0  0  0  0  0  0
    8.5449   -8.9646   17.8640 C   0  0  0  0  0  0  0  0  0  0  0  0
    8.1685   -9.5625   16.4700 C   0  0  0  0  0  0  0  0  0  0  0  0
    6.8812  -10.3946   16.4728 C   0  0  0  0  0  0  0  0  0  0  0  0
    7.9396   -8.3603   15.5162 C   0  0  0  0  0  0  0  0  0  0  0  0
    9.3166  -10.3946   15.8654 C   0  0  0  0  0  0  0  0  0  0  0  0
   11.3597   -7.8726   20.5870 C   0  0  0  0  0  0  0  0  0  0  0  0
   12.6165   -7.4718   21.3114 C   0  0  0  0  0  0  0  0  0  0  0  0
   13.7501   -7.4926   20.8616 O   0  0  0  0  0  0  0  0  0  0  0  0
   12.3843   -7.0573   22.5715 O   0  0  0  0  0  0  0  0  0  0  0  0
   11.5095   -7.0453   22.9071 H   0  0  0  0  0  0  0  0  0  0  0  0
  7  8  2  0
  8  9  1  0
  1  8  1  0
  1  2  1  0
  2  3  1  0
  3  4  1  0
  4 10  1  0
 10 11  1  0
 11 12  1  0
 11 13  1  0
 11 14  1  0
 14 15  1  0
 15 16  1  0
 15 17  1  0
 15 18  1  0
  4  5  1  0
  5 19  1  0
 19 20  1  0
 20 21  2  0
 20 22  1  0
  5  1  1  0
  3  6  1  0
 22 23  1  0
M  END
> <minimizedAffinity>
-4.76016

> <CNNscore>
0.1383834481

> <CNNaffinity>
4.2588973045

> <CNN_VS>
0.5893608928

> <CNNaffinity_variance>
0.3586622775

$$$$



 23 23  0  0  0  0  0  0  0  0999 V2000
   23.1458   -6.9532   23.5764 C   0  0  0  0  0  0  0  0  0  0  0  0
   23.9572   -5.8598   22.8780 C   0  0  0  0  0  0  0  0  0  0  0  0
   23.0903   -5.4083   21.7824 N   0  0  0  0  0  0  0  0  0  0  0  0
   21.7116   -5.3763   22.3138 C   0  0  0  0  0  0  0  0  0  0  0  0
   21.7325   -6.3283   23.5454 C   0  0  0  0  0  0  0  0  0  0  0  0
   23.1492   -6.0574   20.9978 H   0  0  0  0  0  0  0  0  0  0  0  0
   23.4081   -8.6325   21.6580 C   0  0  0  0  0  0  0  0  0  0  0  0
   23.4200   -8.3278   22.9659 C   0  0  0  0  0  0  0  0  0  0  0  0
   23.7407   -9.4035   23.9765 C   0  0  0  0  0  0  0  0  0  0  0  0
   20.6511   -5.6553   21.2267 C   0  0  0  0  0  0  0  0  0  0  0  0
   20.2385   -4.5066   20.2248 C   0  0  0  0  0  0  0  0  0  0  0  0
   20.7087   -4.8427   18.7975 C   0  0  0  0  0  0  0  0  0  0  0  0
   20.8916   -3.1897   20.6657 C   0  0  0  0  0  0  0  0  0  0  0  0
   18.6655   -4.4551   20.2811 C   0  0  0  0  0  0  0  0  0  0  0  0
   17.8428   -3.6341   21.3258 C   0  0  0  0  0  0  0  0  0  0  0  0
   17.9707   -2.1148   21.1688 C   0  0  0  0  0  0  0  0  0  0  0  0
   16.3509   -3.9977   21.1036 C   0  0  0  0  0  0  0  0  0  0  0  0
   18.1838   -4.0312   22.7757 C   0  0  0  0  0  0  0  0  0  0  0  0
   20.5766   -7.3000   23.7791 C   0  0  0  0  0  0  0  0  0  0  0  0
   19.5853   -6.7653   24.7775 C   0  0  0  0  0  0  0  0  0  0  0  0
   18.5285   -7.2832   25.0979 O   0  0  0  0  0  0  0  0  0  0  0  0
   19.9764   -5.6015   25.3308 O   0  0  0  0  0  0  0  0  0  0  0  0
   20.7902   -5.2124   25.0774 H   0  0  0  0  0  0  0  0  0  0  0  0
  7  8  2  0
  8  9  1  0
  1  8  1  0
  1  2  1  0
  2  3  1  0
  3  4  1  0
  4 10  1  0
 10 11  1  0
 11 12  1  0
 11 13  1  0
 11 14  1  0
 14 15  1  0
 15 16  1  0
 15 17  1  0
 15 18  1  0
  4  5  1  0
  5 19  1  0
 19 20  1  0
 20 21  2  0
 20 22  1  0
  5  1  1  0
  3  6  1  0
 22 23  1  0
M  END
> <minimizedAffinity>
-4.59106

> <CNNscore>
0.1362193823

> <CNNaffinity>
3.8632647991

> <CNN_VS>
0.5262515545

> <CNNaffinity_variance>
0.5916993618

$$$$



 23 23  0  0  0  0  0  0  0  0999 V2000
   23.6338   -5.5821   22.0109 C   0  0  0  0  0  0  0  0  0  0  0  0
   23.5158   -4.7562   23.2938 C   0  0  0  0  0  0  0  0  0  0  0  0
   22.0696   -4.5988   23.4924 N   0  0  0  0  0  0  0  0  0  0  0  0
   21.4458   -5.8891   23.1317 C   0  0  0  0  0  0  0  0  0  0  0  0
   22.4855   -6.5966   22.2141 C   0  0  0  0  0  0  0  0  0  0  0  0
   21.7116   -3.8558   22.8922 H   0  0  0  0  0  0  0  0  0  0  0  0
   22.6513   -4.0728   20.1873 C   0  0  0  0  0  0  0  0  0  0  0  0
   23.6923   -4.6861   20.7735 C   0  0  0  0  0  0  0  0  0  0  0  0
   25.0800   -4.4993   20.2071 C   0  0  0  0  0  0  0  0  0  0  0  0
   20.0155   -5.7205   22.5748 C   0  0  0  0  0  0  0  0  0  0  0  0
   18.7750   -6.0462   23.4961 C   0  0  0  0  0  0  0  0  0  0  0  0
   17.5259   -6.3228   22.6392 C   0  0  0  0  0  0  0  0  0  0  0  0
   18.4938   -4.8468   24.4115 C   0  0  0  0  0  0  0  0  0  0  0  0
   19.1833   -7.3400   24.2958 C   0  0  0  0  0  0  0  0  0  0  0  0
   18.9222   -7.5581   25.8211 C   0  0  0  0  0  0  0  0  0  0  0  0
   20.1883   -7.5217   26.6843 C   0  0  0  0  0  0  0  0  0  0  0  0
   18.0105   -6.3930   26.2886 C   0  0  0  0  0  0  0  0  0  0  0  0
   18.1495   -8.8630   26.0976 C   0  0  0  0  0  0  0  0  0  0  0  0
   22.0206   -7.3272   20.9550 C   0  0  0  0  0  0  0  0  0  0  0  0
   21.7147   -8.7757   21.2258 C   0  0  0  0  0  0  0  0  0  0  0  0
   20.6986   -9.2189   21.7347 O   0  0  0  0  0  0  0  0  0  0  0  0
   22.7052   -9.6010   20.8366 O   0  0  0  0  0  0  0  0  0  0  0  0
   23.4815   -9.2499   20.4467 H   0  0  0  0  0  0  0  0  0  0  0  0
  7  8  2  0
  8  9  1  0
  1  8  1  0
  1  2  1  0
  2  3  1  0
  3  4  1  0
  4 10  1  0
 10 11  1  0
 11 12  1  0
 11 13  1  0
 11 14  1  0
 14 15  1  0
 15 16  1  0
 15 17  1  0
 15 18  1  0
  4  5  1  0
  5 19  1  0
 19 20  1  0
 20 21  2  0
 20 22  1  0
  5  1  1  0
  3  6  1  0
 22 23  1  0
M  END
> <minimizedAffinity>
-4.65570

> <CNNscore>
0.1278227717

> <CNNaffinity>
3.5142908096

> <CNN_VS>
0.4492063820

> <CNNaffinity_variance>
0.8694105744

$$$$
