


 27 29  0  0  0  0  0  0  0  0999 V2000
   18.5350   17.2571   17.2153 C   0  0  0  0  0  0  0  0  0  0  0  0
   19.2263   17.5504   18.2900 N   0  0  0  0  0  0  0  0  0  0  0  0
   18.4067   17.2503   19.3503 C   0  0  0  0  0  0  0  0  0  0  0  0
   18.6533   17.3718   20.7186 C   0  0  0  0  0  0  0  0  0  0  0  0
   17.6361   16.9766   21.5956 C   0  0  0  0  0  0  0  0  0  0  0  0
   17.8556   17.0677   23.0492 C   0  0  0  0  0  0  0  0  0  0  0  0
   18.9067   17.4719   23.5329 O   0  0  0  0  0  0  0  0  0  0  0  0
   16.8079   16.6679   23.8353 N   0  0  0  0  0  0  0  0  0  0  0  0
   15.6421   16.1778   23.3386 C   0  0  0  0  0  0  0  0  0  0  0  0
   14.7068   15.8023   24.2439 N   0  0  0  0  0  0  0  0  0  0  0  0
   15.4066   16.0743   22.0724 N   0  0  0  0  0  0  0  0  0  0  0  0
   16.3982   16.4780   21.1523 C   0  0  0  0  0  0  0  0  0  0  0  0
   16.1250   16.3689   19.7636 C   0  0  0  0  0  0  0  0  0  0  0  0
   17.1806   16.7608   18.9169 C   0  0  0  0  0  0  0  0  0  0  0  0
   17.3024   16.7704   17.5477 N   0  0  0  0  0  0  0  0  0  0  0  0
   16.9047   16.7394   24.8124 H   0  0  0  0  0  0  0  0  0  0  0  0
   14.8933   15.8841   25.2071 H   0  0  0  0  0  0  0  0  0  0  0  0
   13.8406   15.4476   23.9386 H   0  0  0  0  0  0  0  0  0  0  0  0
   16.6132   16.4745   16.9100 H   0  0  0  0  0  0  0  0  0  0  0  0
   17.8546   17.7292   14.9693 C   0  0  0  0  0  0  0  0  0  0  0  0
   18.8878   17.3738   15.9201 N   0  0  0  0  0  0  0  0  0  0  0  0
   19.8164   17.2227   15.6300 H   0  0  0  0  0  0  0  0  0  0  0  0
   14.8174   15.7815   19.2679 C   0  0  0  0  0  0  0  0  0  0  0  0
   14.8819   14.3398   18.7320 C   0  0  0  0  0  0  0  0  0  0  0  0
   13.6469   13.5707   18.9662 N   0  0  0  0  0  0  0  0  0  0  0  0
   13.4828   13.4882   19.9695 H   0  0  0  0  0  0  0  0  0  0  0  0
   13.7437   12.6401   18.5599 H   0  0  0  0  0  0  0  0  0  0  0  0
 20 21  1  0
 21  1  1  0
  1  2  2  0
  2  3  1  0
  3  4  2  0
  4  5  1  0
  5  6  1  0
  6  7  2  0
  6  8  1  0
  8  9  1  0
  9 10  1  0
  9 11  2  0
 11 12  1  0
 12 13  1  0
 13 23  1  0
 23 24  1  0
 24 25  1  0
 13 14  2  0
 14 15  1  0
 15  1  1  0
 14  3  1  0
 12  5  2  0
 21 22  1  0
  8 16  1  0
 10 17  1  0
 10 18  1  0
 25 26  1  0
 25 27  1  0
 15 19  1  0
M  END
> <minimizedAffinity>
-8.93068

> <CNNscore>
0.9975389838

> <CNNaffinity>
7.6119446754

> <CNN_VS>
7.5932116508

> <CNNaffinity_variance>
0.0823994428

$$$$



 27 29  0  0  0  0  0  0  0  0999 V2000
   16.9852   17.2309   15.1476 C   0  0  0  0  0  0  0  0  0  0  0  0
   18.0806   17.4918   15.8191 N   0  0  0  0  0  0  0  0  0  0  0  0
   17.7701   17.2618   17.1369 C   0  0  0  0  0  0  0  0  0  0  0  0
   18.5778   17.3851   18.2685 C   0  0  0  0  0  0  0  0  0  0  0  0
   18.0060   17.0708   19.5072 C   0  0  0  0  0  0  0  0  0  0  0  0
   18.8234   17.1668   20.7287 C   0  0  0  0  0  0  0  0  0  0  0  0
   20.0009   17.5062   20.7087 O   0  0  0  0  0  0  0  0  0  0  0  0
   18.1854   16.8488   21.8980 N   0  0  0  0  0  0  0  0  0  0  0  0
   16.8939   16.4312   21.9580 C   0  0  0  0  0  0  0  0  0  0  0  0
   16.4092   16.1316   23.1871 N   0  0  0  0  0  0  0  0  0  0  0  0
   16.1405   16.3265   20.9136 N   0  0  0  0  0  0  0  0  0  0  0  0
   16.6714   16.6503   19.6462 C   0  0  0  0  0  0  0  0  0  0  0  0
   15.8317   16.5409   18.5068 C   0  0  0  0  0  0  0  0  0  0  0  0
   16.4509   16.8496   17.2796 C   0  0  0  0  0  0  0  0  0  0  0  0
   15.9834   16.8324   15.9870 N   0  0  0  0  0  0  0  0  0  0  0  0
   18.6895   16.9270   22.7400 H   0  0  0  0  0  0  0  0  0  0  0  0
   16.9892   16.2138   23.9784 H   0  0  0  0  0  0  0  0  0  0  0  0
   15.4771   15.8316   23.2890 H   0  0  0  0  0  0  0  0  0  0  0  0
   15.0743   16.5748   15.7109 H   0  0  0  0  0  0  0  0  0  0  0  0
   16.1743   16.1546   13.1691 C   0  0  0  0  0  0  0  0  0  0  0  0
   16.7639   17.3061   13.8206 N   0  0  0  0  0  0  0  0  0  0  0  0
   16.9951   18.1162   13.3112 H   0  0  0  0  0  0  0  0  0  0  0  0
   14.4070   16.0358   18.6313 C   0  0  0  0  0  0  0  0  0  0  0  0
   14.1813   14.5523   18.2875 C   0  0  0  0  0  0  0  0  0  0  0  0
   15.2025   13.6557   18.8573 N   0  0  0  0  0  0  0  0  0  0  0  0
   16.1170   13.8949   18.4740 H   0  0  0  0  0  0  0  0  0  0  0  0
   14.9769   12.6895   18.6208 H   0  0  0  0  0  0  0  0  0  0  0  0
 20 21  1  0
 21  1  1  0
  1  2  2  0
  2  3  1  0
  3  4  2  0
  4  5  1  0
  5  6  1  0
  6  7  2  0
  6  8  1  0
  8  9  1  0
  9 10  1  0
  9 11  2  0
 11 12  1  0
 12 13  1  0
 13 23  1  0
 23 24  1  0
 24 25  1  0
 13 14  2  0
 14 15  1  0
 15  1  1  0
 14  3  1  0
 12  5  2  0
 21 22  1  0
  8 16  1  0
 10 17  1  0
 10 18  1  0
 25 26  1  0
 25 27  1  0
 15 19  1  0
M  END
> <minimizedAffinity>
-8.21034

> <CNNscore>
0.8209419250

> <CNNaffinity>
6.5181183815

> <CNN_VS>
5.3509964943

> <CNNaffinity_variance>
0.0051627788

$$$$



 27 29  0  0  0  0  0  0  0  0999 V2000
   12.6681   15.3291   16.1089 C   0  0  0  0  0  0  0  0  0  0  0  0
   12.7201   15.1038   17.3994 N   0  0  0  0  0  0  0  0  0  0  0  0
   13.9410   15.5807   17.8092 C   0  0  0  0  0  0  0  0  0  0  0  0
   14.5002   15.5920   19.0880 C   0  0  0  0  0  0  0  0  0  0  0  0
   15.7726   16.1582   19.2312 C   0  0  0  0  0  0  0  0  0  0  0  0
   16.3971   16.2110   20.5641 C   0  0  0  0  0  0  0  0  0  0  0  0
   15.8418   15.7831   21.5694 O   0  0  0  0  0  0  0  0  0  0  0  0
   17.6444   16.7741   20.6148 N   0  0  0  0  0  0  0  0  0  0  0  0
   18.2768   17.2945   19.5307 C   0  0  0  0  0  0  0  0  0  0  0  0
   19.4993   17.8380   19.7440 N   0  0  0  0  0  0  0  0  0  0  0  0
   17.7664   17.2758   18.3439 N   0  0  0  0  0  0  0  0  0  0  0  0
   16.4928   16.6984   18.1510 C   0  0  0  0  0  0  0  0  0  0  0  0
   15.9460   16.6746   16.8412 C   0  0  0  0  0  0  0  0  0  0  0  0
   14.6579   16.1121   16.7442 C   0  0  0  0  0  0  0  0  0  0  0  0
   13.8097   15.9426   15.6760 N   0  0  0  0  0  0  0  0  0  0  0  0
   18.1075   16.8034   21.4831 H   0  0  0  0  0  0  0  0  0  0  0  0
   19.8818   17.8487   20.6511 H   0  0  0  0  0  0  0  0  0  0  0  0
   20.0051   18.2223   18.9919 H   0  0  0  0  0  0  0  0  0  0  0  0
   13.9946   16.2184   14.7492 H   0  0  0  0  0  0  0  0  0  0  0  0
   10.8820   16.1443   14.7393 C   0  0  0  0  0  0  0  0  0  0  0  0
   11.6824   15.0439   15.2357 N   0  0  0  0  0  0  0  0  0  0  0  0
   11.5120   14.1188   14.9449 H   0  0  0  0  0  0  0  0  0  0  0  0
   16.6842   17.3024   15.6744 C   0  0  0  0  0  0  0  0  0  0  0  0
   18.1762   17.6068   15.9010 C   0  0  0  0  0  0  0  0  0  0  0  0
   18.9653   17.6340   14.6569 N   0  0  0  0  0  0  0  0  0  0  0  0
   18.9322   16.7161   14.2131 H   0  0  0  0  0  0  0  0  0  0  0  0
   19.9332   17.8722   14.8733 H   0  0  0  0  0  0  0  0  0  0  0  0
 20 21  1  0
 21  1  1  0
  1  2  2  0
  2  3  1  0
  3  4  2  0
  4  5  1  0
  5  6  1  0
  6  7  2  0
  6  8  1  0
  8  9  1  0
  9 10  1  0
  9 11  2  0
 11 12  1  0
 12 13  1  0
 13 23  1  0
 23 24  1  0
 24 25  1  0
 13 14  2  0
 14 15  1  0
 15  1  1  0
 14  3  1  0
 12  5  2  0
 21 22  1  0
  8 16  1  0
 10 17  1  0
 10 18  1  0
 25 26  1  0
 25 27  1  0
 15 19  1  0
M  END
> <minimizedAffinity>
-7.57847

> <CNNscore>
0.2412428856

> <CNNaffinity>
4.9242935181

> <CNN_VS>
1.1879507303

> <CNNaffinity_variance>
0.8760378957

$$$$



 27 29  0  0  0  0  0  0  0  0999 V2000
   15.4559   16.0383   19.9024 C   0  0  0  0  0  0  0  0  0  0  0  0
   14.4861   15.9371   19.0260 N   0  0  0  0  0  0  0  0  0  0  0  0
   15.0258   16.3394   17.8290 C   0  0  0  0  0  0  0  0  0  0  0  0
   14.4242   16.4200   16.5722 C   0  0  0  0  0  0  0  0  0  0  0  0
   15.2171   16.8556   15.5036 C   0  0  0  0  0  0  0  0  0  0  0  0
   14.6331   16.9391   14.1541 C   0  0  0  0  0  0  0  0  0  0  0  0
   13.4700   16.6321   13.9191 O   0  0  0  0  0  0  0  0  0  0  0  0
   15.4745   17.3810   13.1681 N   0  0  0  0  0  0  0  0  0  0  0  0
   16.7796   17.6937   13.3804 C   0  0  0  0  0  0  0  0  0  0  0  0
   17.4911   18.0954   12.2998 N   0  0  0  0  0  0  0  0  0  0  0  0
   17.3364   17.6306   14.5445 N   0  0  0  0  0  0  0  0  0  0  0  0
   16.5688   17.2132   15.6533 C   0  0  0  0  0  0  0  0  0  0  0  0
   17.1882   17.1569   16.9294 C   0  0  0  0  0  0  0  0  0  0  0  0
   16.3606   16.6975   17.9728 C   0  0  0  0  0  0  0  0  0  0  0  0
   16.6033   16.4834   19.3088 N   0  0  0  0  0  0  0  0  0  0  0  0
   15.1146   17.4772   12.2568 H   0  0  0  0  0  0  0  0  0  0  0  0
   17.0601   18.1410   11.4158 H   0  0  0  0  0  0  0  0  0  0  0  0
   18.4392   18.3417   12.3985 H   0  0  0  0  0  0  0  0  0  0  0  0
   17.4642   16.6273   19.7641 H   0  0  0  0  0  0  0  0  0  0  0  0
   16.4037   16.4486   22.0620 C   0  0  0  0  0  0  0  0  0  0  0  0
   15.4401   15.7673   21.2222 N   0  0  0  0  0  0  0  0  0  0  0  0
   14.7954   15.1279   21.6027 H   0  0  0  0  0  0  0  0  0  0  0  0
   18.6592   17.4853   17.0994 C   0  0  0  0  0  0  0  0  0  0  0  0
   19.1057   17.8816   18.5184 C   0  0  0  0  0  0  0  0  0  0  0  0
   19.4957   16.7319   19.3536 N   0  0  0  0  0  0  0  0  0  0  0  0
   18.6942   16.1131   19.4760 H   0  0  0  0  0  0  0  0  0  0  0  0
   19.8105   17.0649   20.2649 H   0  0  0  0  0  0  0  0  0  0  0  0
 20 21  1  0
 21  1  1  0
  1  2  2  0
  2  3  1  0
  3  4  2  0
  4  5  1  0
  5  6  1  0
  6  7  2  0
  6  8  1  0
  8  9  1  0
  9 10  1  0
  9 11  2  0
 11 12  1  0
 12 13  1  0
 13 23  1  0
 23 24  1  0
 24 25  1  0
 13 14  2  0
 14 15  1  0
 15  1  1  0
 14  3  1  0
 12  5  2  0
 21 22  1  0
  8 16  1  0
 10 17  1  0
 10 18  1  0
 25 26  1  0
 25 27  1  0
 15 19  1  0
M  END
> <minimizedAffinity>
-6.71074

> <CNNscore>
0.1744759530

> <CNNaffinity>
4.4193911552

> <CNN_VS>
0.7710774541

> <CNNaffinity_variance>
1.2562179565

$$$$



 27 29  0  0  0  0  0  0  0  0999 V2000
   11.9869   15.0712   15.8878 C   0  0  0  0  0  0  0  0  0  0  0  0
   10.8544   15.5066   15.3910 N   0  0  0  0  0  0  0  0  0  0  0  0
   11.1681   16.6551   14.7067 C   0  0  0  0  0  0  0  0  0  0  0  0
   10.3314   17.5117   13.9895 C   0  0  0  0  0  0  0  0  0  0  0  0
   10.9208   18.6194   13.3684 C   0  0  0  0  0  0  0  0  0  0  0  0
   10.0827   19.5423   12.5841 C   0  0  0  0  0  0  0  0  0  0  0  0
    8.8766   19.3775   12.4415 O   0  0  0  0  0  0  0  0  0  0  0  0
   10.7367   20.6029   12.0160 N   0  0  0  0  0  0  0  0  0  0  0  0
   12.0773   20.7992   12.1182 C   0  0  0  0  0  0  0  0  0  0  0  0
   12.5823   21.8833   11.4817 N   0  0  0  0  0  0  0  0  0  0  0  0
   12.8528   20.0141   12.7902 N   0  0  0  0  0  0  0  0  0  0  0  0
   12.2975   18.8948   13.4472 C   0  0  0  0  0  0  0  0  0  0  0  0
   13.1574   18.0445   14.1908 C   0  0  0  0  0  0  0  0  0  0  0  0
   12.5272   16.9334   14.7849 C   0  0  0  0  0  0  0  0  0  0  0  0
   13.0196   15.8951   15.5393 N   0  0  0  0  0  0  0  0  0  0  0  0
   10.2073   21.2582   11.5065 H   0  0  0  0  0  0  0  0  0  0  0  0
   11.9853   22.4770   10.9715 H   0  0  0  0  0  0  0  0  0  0  0  0
   13.5463   22.0773   11.5294 H   0  0  0  0  0  0  0  0  0  0  0  0
   13.9634   15.7661   15.7881 H   0  0  0  0  0  0  0  0  0  0  0  0
   12.5418   14.1843   18.0410 C   0  0  0  0  0  0  0  0  0  0  0  0
   12.2194   13.9802   16.6437 N   0  0  0  0  0  0  0  0  0  0  0  0
   12.1718   13.0751   16.2593 H   0  0  0  0  0  0  0  0  0  0  0  0
   14.6525   18.2948   14.2404 C   0  0  0  0  0  0  0  0  0  0  0  0
   15.5226   17.3802   13.3592 C   0  0  0  0  0  0  0  0  0  0  0  0
   16.7050   16.8448   14.0568 N   0  0  0  0  0  0  0  0  0  0  0  0
   17.3097   17.6153   14.3414 H   0  0  0  0  0  0  0  0  0  0  0  0
   17.2173   16.2241   13.4302 H   0  0  0  0  0  0  0  0  0  0  0  0
 20 21  1  0
 21  1  1  0
  1  2  2  0
  2  3  1  0
  3  4  2  0
  4  5  1  0
  5  6  1  0
  6  7  2  0
  6  8  1  0
  8  9  1  0
  9 10  1  0
  9 11  2  0
 11 12  1  0
 12 13  1  0
 13 23  1  0
 23 24  1  0
 24 25  1  0
 13 14  2  0
 14 15  1  0
 15  1  1  0
 14  3  1  0
 12  5  2  0
 21 22  1  0
  8 16  1  0
 10 17  1  0
 10 18  1  0
 25 26  1  0
 25 27  1  0
 15 19  1  0
M  END
> <minimizedAffinity>
-5.68622

> <CNNscore>
0.1614737958

> <CNNaffinity>
4.5321617126

> <CNN_VS>
0.7318253517

> <CNNaffinity_variance>
0.4781970978

$$$$



 27 29  0  0  0  0  0  0  0  0999 V2000
   18.4053   18.0670   14.3293 C   0  0  0  0  0  0  0  0  0  0  0  0
   18.6047   17.9123   15.6159 N   0  0  0  0  0  0  0  0  0  0  0  0
   17.4349   17.3906   16.1112 C   0  0  0  0  0  0  0  0  0  0  0  0
   17.1124   17.0347   17.4217 C   0  0  0  0  0  0  0  0  0  0  0  0
   15.8362   16.5068   17.6519 C   0  0  0  0  0  0  0  0  0  0  0  0
   15.4553   16.0985   19.0147 C   0  0  0  0  0  0  0  0  0  0  0  0
   16.2187   16.1935   19.9688 O   0  0  0  0  0  0  0  0  0  0  0  0
   14.1877   15.5992   19.1537 N   0  0  0  0  0  0  0  0  0  0  0  0
   13.3257   15.4417   18.1153 C   0  0  0  0  0  0  0  0  0  0  0  0
   12.1131   14.9131   18.4078 N   0  0  0  0  0  0  0  0  0  0  0  0
   13.6174   15.7802   16.9030 N   0  0  0  0  0  0  0  0  0  0  0  0
   14.8871   16.3331   16.6290 C   0  0  0  0  0  0  0  0  0  0  0  0
   15.1933   16.7104   15.2951 C   0  0  0  0  0  0  0  0  0  0  0  0
   16.4925   17.2207   15.1045 C   0  0  0  0  0  0  0  0  0  0  0  0
   17.1509   17.6546   13.9785 N   0  0  0  0  0  0  0  0  0  0  0  0
   13.8848   15.3405   20.0541 H   0  0  0  0  0  0  0  0  0  0  0  0
   11.8979   14.6576   19.3338 H   0  0  0  0  0  0  0  0  0  0  0  0
   11.4471   14.7846   17.6942 H   0  0  0  0  0  0  0  0  0  0  0  0
   16.7788   17.6663   13.0671 H   0  0  0  0  0  0  0  0  0  0  0  0
   19.4345   17.7644   12.1893 C   0  0  0  0  0  0  0  0  0  0  0  0
   19.2441   18.5494   13.3916 N   0  0  0  0  0  0  0  0  0  0  0  0
   19.7117   19.4063   13.5193 H   0  0  0  0  0  0  0  0  0  0  0  0
   14.2026   16.4786   14.1702 C   0  0  0  0  0  0  0  0  0  0  0  0
   13.1582   17.5876   13.9476 C   0  0  0  0  0  0  0  0  0  0  0  0
   11.8990   17.3635   14.6793 N   0  0  0  0  0  0  0  0  0  0  0  0
   11.4641   16.5010   14.3516 H   0  0  0  0  0  0  0  0  0  0  0  0
   11.2665   18.1468   14.5154 H   0  0  0  0  0  0  0  0  0  0  0  0
 20 21  1  0
 21  1  1  0
  1  2  2  0
  2  3  1  0
  3  4  2  0
  4  5  1  0
  5  6  1  0
  6  7  2  0
  6  8  1  0
  8  9  1  0
  9 10  1  0
  9 11  2  0
 11 12  1  0
 12 13  1  0
 13 23  1  0
 23 24  1  0
 24 25  1  0
 13 14  2  0
 14 15  1  0
 15  1  1  0
 14  3  1  0
 12  5  2  0
 21 22  1  0
  8 16  1  0
 10 17  1  0
 10 18  1  0
 25 26  1  0
 25 27  1  0
 15 19  1  0
M  END
> <minimizedAffinity>
-7.43306

> <CNNscore>
0.1474435627

> <CNNaffinity>
4.0285077095

> <CNN_VS>
0.5939775109

> <CNNaffinity_variance>
1.6922446489

$$$$



 27 29  0  0  0  0  0  0  0  0999 V2000
   17.6712   16.6972   21.0410 C   0  0  0  0  0  0  0  0  0  0  0  0
   16.4699   16.1738   20.9989 N   0  0  0  0  0  0  0  0  0  0  0  0
   16.0952   16.2139   19.6784 C   0  0  0  0  0  0  0  0  0  0  0  0
   14.9094   15.7798   19.0838 C   0  0  0  0  0  0  0  0  0  0  0  0
   14.7904   15.9288   17.6968 C   0  0  0  0  0  0  0  0  0  0  0  0
   13.5658   15.4684   17.0203 C   0  0  0  0  0  0  0  0  0  0  0  0
   12.6362   14.9456   17.6241 O   0  0  0  0  0  0  0  0  0  0  0  0
   13.5280   15.6578   15.6645 N   0  0  0  0  0  0  0  0  0  0  0  0
   14.5527   16.1975   14.9539 C   0  0  0  0  0  0  0  0  0  0  0  0
   14.3750   16.2998   13.6147 N   0  0  0  0  0  0  0  0  0  0  0  0
   15.6471   16.6101   15.5027 N   0  0  0  0  0  0  0  0  0  0  0  0
   15.8021   16.4952   16.9012 C   0  0  0  0  0  0  0  0  0  0  0  0
   17.0048   16.9608   17.4946 C   0  0  0  0  0  0  0  0  0  0  0  0
   17.0905   16.7764   18.8887 C   0  0  0  0  0  0  0  0  0  0  0  0
   18.0858   17.0645   19.7920 N   0  0  0  0  0  0  0  0  0  0  0  0
   12.7151   15.3886   15.1788 H   0  0  0  0  0  0  0  0  0  0  0  0
   13.5384   15.9832   13.2036 H   0  0  0  0  0  0  0  0  0  0  0  0
   15.0826   16.6907   13.0528 H   0  0  0  0  0  0  0  0  0  0  0  0
   18.9562   17.4697   19.5743 H   0  0  0  0  0  0  0  0  0  0  0  0
   17.8602   16.9604   23.4129 C   0  0  0  0  0  0  0  0  0  0  0  0
   18.4763   16.8919   22.1038 N   0  0  0  0  0  0  0  0  0  0  0  0
   19.4503   16.9845   21.9943 H   0  0  0  0  0  0  0  0  0  0  0  0
   18.1288   17.5230   16.6455 C   0  0  0  0  0  0  0  0  0  0  0  0
   17.7842   17.8193   15.1747 C   0  0  0  0  0  0  0  0  0  0  0  0
   18.9502   17.7619   14.2755 N   0  0  0  0  0  0  0  0  0  0  0  0
   19.6279   18.4724   14.5518 H   0  0  0  0  0  0  0  0  0  0  0  0
   18.6488   17.9343   13.3165 H   0  0  0  0  0  0  0  0  0  0  0  0
 20 21  1  0
 21  1  1  0
  1  2  2  0
  2  3  1  0
  3  4  2  0
  4  5  1  0
  5  6  1  0
  6  7  2  0
  6  8  1  0
  8  9  1  0
  9 10  1  0
  9 11  2  0
 11 12  1  0
 12 13  1  0
 13 23  1  0
 23 24  1  0
 24 25  1  0
 13 14  2  0
 14 15  1  0
 15  1  1  0
 14  3  1  0
 12  5  2  0
 21 22  1  0
  8 16  1  0
 10 17  1  0
 10 18  1  0
 25 26  1  0
 25 27  1  0
 15 19  1  0
M  END
> <minimizedAffinity>
-7.96348

> <CNNscore>
0.1469815522

> <CNNaffinity>
4.5116100311

> <CNN_VS>
0.6631234288

> <CNNaffinity_variance>
1.4303894043

$$$$



 27 29  0  0  0  0  0  0  0  0999 V2000
   18.1652   16.8272   20.7554 C   0  0  0  0  0  0  0  0  0  0  0  0
   18.8709   17.2305   19.7268 N   0  0  0  0  0  0  0  0  0  0  0  0
   18.0351   17.1284   18.6420 C   0  0  0  0  0  0  0  0  0  0  0  0
   18.2852   17.4333   17.3031 C   0  0  0  0  0  0  0  0  0  0  0  0
   17.2388   17.2464   16.3920 C   0  0  0  0  0  0  0  0  0  0  0  0
   17.4475   17.5723   14.9709 C   0  0  0  0  0  0  0  0  0  0  0  0
   18.5086   18.0140   14.5450 O   0  0  0  0  0  0  0  0  0  0  0  0
   16.3759   17.3537   14.1467 N   0  0  0  0  0  0  0  0  0  0  0  0
   15.1720   16.9025   14.5859 C   0  0  0  0  0  0  0  0  0  0  0  0
   14.2009   16.7573   13.6525 N   0  0  0  0  0  0  0  0  0  0  0  0
   14.9406   16.6090   15.8227 N   0  0  0  0  0  0  0  0  0  0  0  0
   15.9733   16.7657   16.7724 C   0  0  0  0  0  0  0  0  0  0  0  0
   15.7108   16.4310   18.1268 C   0  0  0  0  0  0  0  0  0  0  0  0
   16.7843   16.6500   19.0125 C   0  0  0  0  0  0  0  0  0  0  0  0
   16.9014   16.4777   20.3713 N   0  0  0  0  0  0  0  0  0  0  0  0
   16.4837   17.5330   13.1847 H   0  0  0  0  0  0  0  0  0  0  0  0
   14.3844   16.9829   12.7119 H   0  0  0  0  0  0  0  0  0  0  0  0
   13.3116   16.4261   13.9147 H   0  0  0  0  0  0  0  0  0  0  0  0
   16.1901   16.1548   20.9704 H   0  0  0  0  0  0  0  0  0  0  0  0
   17.5037   16.9379   23.0534 C   0  0  0  0  0  0  0  0  0  0  0  0
   18.5276   16.7325   22.0498 N   0  0  0  0  0  0  0  0  0  0  0  0
   19.4569   16.5305   22.3046 H   0  0  0  0  0  0  0  0  0  0  0  0
   14.3356   15.9642   18.5643 C   0  0  0  0  0  0  0  0  0  0  0  0
   14.0603   14.4548   18.4387 C   0  0  0  0  0  0  0  0  0  0  0  0
   15.2271   13.6162   18.7655 N   0  0  0  0  0  0  0  0  0  0  0  0
   15.9839   13.8170   18.1119 H   0  0  0  0  0  0  0  0  0  0  0  0
   14.9689   12.6319   18.6947 H   0  0  0  0  0  0  0  0  0  0  0  0
 20 21  1  0
 21  1  1  0
  1  2  2  0
  2  3  1  0
  3  4  2  0
  4  5  1  0
  5  6  1  0
  6  7  2  0
  6  8  1  0
  8  9  1  0
  9 10  1  0
  9 11  2  0
 11 12  1  0
 12 13  1  0
 13 23  1  0
 23 24  1  0
 24 25  1  0
 13 14  2  0
 14 15  1  0
 15  1  1  0
 14  3  1  0
 12  5  2  0
 21 22  1  0
  8 16  1  0
 10 17  1  0
 10 18  1  0
 25 26  1  0
 25 27  1  0
 15 19  1  0
M  END
> <minimizedAffinity>
-7.95264

> <CNNscore>
0.1466939449

> <CNNaffinity>
4.5015797615

> <CNN_VS>
0.6603544950

> <CNNaffinity_variance>
1.1916071177

$$$$



 27 29  0  0  0  0  0  0  0  0999 V2000
   12.8942   15.5980   16.1655 C   0  0  0  0  0  0  0  0  0  0  0  0
   12.7947   16.0393   14.9349 N   0  0  0  0  0  0  0  0  0  0  0  0
   13.9586   16.7272   14.6936 C   0  0  0  0  0  0  0  0  0  0  0  0
   14.3666   17.3932   13.5369 C   0  0  0  0  0  0  0  0  0  0  0  0
   15.6237   18.0091   13.5559 C   0  0  0  0  0  0  0  0  0  0  0  0
   16.1072   18.7082   12.3530 C   0  0  0  0  0  0  0  0  0  0  0  0
   15.4529   18.7689   11.3184 O   0  0  0  0  0  0  0  0  0  0  0  0
   17.3429   19.2888   12.4587 N   0  0  0  0  0  0  0  0  0  0  0  0
   18.1152   19.2108   13.5738 C   0  0  0  0  0  0  0  0  0  0  0  0
   19.3250   19.8180   13.5181 N   0  0  0  0  0  0  0  0  0  0  0  0
   17.7359   18.6043   14.6497 N   0  0  0  0  0  0  0  0  0  0  0  0
   16.4678   17.9846   14.6803 C   0  0  0  0  0  0  0  0  0  0  0  0
   16.0573   17.3296   15.8709 C   0  0  0  0  0  0  0  0  0  0  0  0
   14.7944   16.7090   15.8034 C   0  0  0  0  0  0  0  0  0  0  0  0
   14.0855   15.9707   16.7210 N   0  0  0  0  0  0  0  0  0  0  0  0
   17.6903   19.7893   11.6854 H   0  0  0  0  0  0  0  0  0  0  0  0
   19.6073   20.2782   12.6948 H   0  0  0  0  0  0  0  0  0  0  0  0
   19.9218   19.7991   14.3008 H   0  0  0  0  0  0  0  0  0  0  0  0
   14.3873   15.7467   17.6310 H   0  0  0  0  0  0  0  0  0  0  0  0
   12.4957   14.2210   18.0827 C   0  0  0  0  0  0  0  0  0  0  0  0
   12.0142   14.8702   16.8807 N   0  0  0  0  0  0  0  0  0  0  0  0
   11.0759   14.7826   16.5960 H   0  0  0  0  0  0  0  0  0  0  0  0
   16.9774   17.2454   17.0738 C   0  0  0  0  0  0  0  0  0  0  0  0
   18.4873   17.2533   16.7741 C   0  0  0  0  0  0  0  0  0  0  0  0
   19.3179   16.8844   17.9341 N   0  0  0  0  0  0  0  0  0  0  0  0
   19.1785   17.5639   18.6819 H   0  0  0  0  0  0  0  0  0  0  0  0
   20.3004   16.8772   17.6602 H   0  0  0  0  0  0  0  0  0  0  0  0
 20 21  1  0
 21  1  1  0
  1  2  2  0
  2  3  1  0
  3  4  2  0
  4  5  1  0
  5  6  1  0
  6  7  2  0
  6  8  1  0
  8  9  1  0
  9 10  1  0
  9 11  2  0
 11 12  1  0
 12 13  1  0
 13 23  1  0
 23 24  1  0
 24 25  1  0
 13 14  2  0
 14 15  1  0
 15  1  1  0
 14  3  1  0
 12  5  2  0
 21 22  1  0
  8 16  1  0
 10 17  1  0
 10 18  1  0
 25 26  1  0
 25 27  1  0
 15 19  1  0
M  END
> <minimizedAffinity>
-6.53545

> <CNNscore>
0.1360427737

> <CNNaffinity>
3.9941961765

> <CNN_VS>
0.5433815122

> <CNNaffinity_variance>
1.6990265846

$$$$
