


 24 25  0  0  0  0  0  0  0  0999 V2000
  -28.7175  -34.1562    8.0089 N   0  0  0  0  0  0  0  0  0  0  0  0
  -29.6573  -33.8636    8.0282 H   0  0  0  0  0  0  0  0  0  0  0  0
  -24.9510  -29.8377    8.5440 C   0  0  0  0  0  0  0  0  0  0  0  0
  -25.9386  -30.9582    8.4095 C   0  0  0  0  0  0  0  0  0  0  0  0
  -25.5983  -32.2561    8.7879 C   0  0  0  0  0  0  0  0  0  0  0  0
  -26.5156  -33.3015    8.6376 C   0  0  0  0  0  0  0  0  0  0  0  0
  -27.7930  -33.0939    8.0884 C   0  0  0  0  0  0  0  0  0  0  0  0
  -28.1231  -31.7828    7.6820 C   0  0  0  0  0  0  0  0  0  0  0  0
  -27.1985  -30.7321    7.8467 C   0  0  0  0  0  0  0  0  0  0  0  0
  -29.4301  -31.3978    7.0892 C   0  0  0  0  0  0  0  0  0  0  0  0
  -30.0750  -32.0651    6.2996 O   0  0  0  0  0  0  0  0  0  0  0  0
  -29.9129  -30.2266    7.5423 O   0  0  0  0  0  0  0  0  0  0  0  0
  -29.4130  -29.7173    8.1495 H   0  0  0  0  0  0  0  0  0  0  0  0
  -28.5626  -35.5548    7.9073 C   0  0  0  0  0  0  0  0  0  0  0  0
  -27.6962  -36.2424    8.7775 C   0  0  0  0  0  0  0  0  0  0  0  0
  -27.4779  -37.6156    8.6498 C   0  0  0  0  0  0  0  0  0  0  0  0
  -26.3099  -38.4945    9.8490 Br  0  0  0  0  0  0  0  0  0  0  0  0
  -28.1090  -38.3413    7.6477 C   0  0  0  0  0  0  0  0  0  0  0  0
  -28.9722  -37.6852    6.7721 C   0  0  0  0  0  0  0  0  0  0  0  0
  -29.2096  -36.3028    6.8967 C   0  0  0  0  0  0  0  0  0  0  0  0
  -30.1392  -35.7197    5.8951 C   0  0  0  0  0  0  0  0  0  0  0  0
  -29.8218  -34.9702    4.9887 O   0  0  0  0  0  0  0  0  0  0  0  0
  -31.4098  -36.1408    6.0221 O   0  0  0  0  0  0  0  0  0  0  0  0
  -31.6445  -36.7172    6.7225 H   0  0  0  0  0  0  0  0  0  0  0  0
  3  4  1  0
  4  5  2  0
  5  6  1  0
  6  7  2  0
  7  1  1  0
  1 14  1  0
 14 15  2  0
 15 16  1  0
 16 17  1  0
 16 18  2  0
 18 19  1  0
 19 20  2  0
 20 21  1  0
 21 22  2  0
 21 23  1  0
  7  8  1  0
  8 10  1  0
 10 11  2  0
 10 12  1  0
  8  9  2  0
  9  4  1  0
 20 14  1  0
  1  2  1  0
 23 24  1  0
 12 13  1  0
M  END
> <minimizedAffinity>
-8.28153

> <CNNscore>
0.9531955719

> <CNNaffinity>
5.0461935997

> <CNN_VS>
4.8100094795

> <CNNaffinity_variance>
0.4254933894

$$$$



 24 25  0  0  0  0  0  0  0  0999 V2000
  -27.4589  -28.5814    7.2251 N   0  0  0  0  0  0  0  0  0  0  0  0
  -27.8812  -28.0067    7.9037 H   0  0  0  0  0  0  0  0  0  0  0  0
  -25.8881  -33.8167    9.0269 C   0  0  0  0  0  0  0  0  0  0  0  0
  -26.3002  -32.4561    8.5494 C   0  0  0  0  0  0  0  0  0  0  0  0
  -25.3943  -31.3966    8.5509 C   0  0  0  0  0  0  0  0  0  0  0  0
  -25.7914  -30.1241    8.1269 C   0  0  0  0  0  0  0  0  0  0  0  0
  -27.1065  -29.8594    7.7067 C   0  0  0  0  0  0  0  0  0  0  0  0
  -28.0273  -30.9294    7.7324 C   0  0  0  0  0  0  0  0  0  0  0  0
  -27.6178  -32.2115    8.1498 C   0  0  0  0  0  0  0  0  0  0  0  0
  -29.4493  -30.8157    7.3166 C   0  0  0  0  0  0  0  0  0  0  0  0
  -30.0154  -31.5425    6.5192 O   0  0  0  0  0  0  0  0  0  0  0  0
  -30.1281  -29.8410    7.9483 O   0  0  0  0  0  0  0  0  0  0  0  0
  -29.6881  -29.2848    8.5607 H   0  0  0  0  0  0  0  0  0  0  0  0
  -27.3264  -27.9634    5.9638 C   0  0  0  0  0  0  0  0  0  0  0  0
  -26.0521  -27.7209    5.4179 C   0  0  0  0  0  0  0  0  0  0  0  0
  -25.8980  -27.0504    4.2028 C   0  0  0  0  0  0  0  0  0  0  0  0
  -24.1645  -26.7558    3.5080 Br  0  0  0  0  0  0  0  0  0  0  0  0
  -27.0070  -26.5954    3.5012 C   0  0  0  0  0  0  0  0  0  0  0  0
  -28.2808  -26.8222    4.0192 C   0  0  0  0  0  0  0  0  0  0  0  0
  -28.4506  -27.5066    5.2381 C   0  0  0  0  0  0  0  0  0  0  0  0
  -29.8565  -27.6730    5.6887 C   0  0  0  0  0  0  0  0  0  0  0  0
  -30.7029  -28.3469    5.1287 O   0  0  0  0  0  0  0  0  0  0  0  0
  -30.1343  -27.0487    6.8466 O   0  0  0  0  0  0  0  0  0  0  0  0
  -29.4769  -26.5325    7.2701 H   0  0  0  0  0  0  0  0  0  0  0  0
  3  4  1  0
  4  5  2  0
  5  6  1  0
  6  7  2  0
  7  1  1  0
  1 14  1  0
 14 15  2  0
 15 16  1  0
 16 17  1  0
 16 18  2  0
 18 19  1  0
 19 20  2  0
 20 21  1  0
 21 22  2  0
 21 23  1  0
  7  8  1  0
  8 10  1  0
 10 11  2  0
 10 12  1  0
  8  9  2  0
  9  4  1  0
 20 14  1  0
  1  2  1  0
 23 24  1  0
 12 13  1  0
M  END
> <minimizedAffinity>
-8.90480

> <CNNscore>
0.9167606235

> <CNNaffinity>
5.3770480156

> <CNN_VS>
4.9294657707

> <CNNaffinity_variance>
0.2566793561

$$$$



 24 25  0  0  0  0  0  0  0  0999 V2000
  -29.4038  -35.5838    8.0811 N   0  0  0  0  0  0  0  0  0  0  0  0
  -30.1209  -35.4009    7.4319 H   0  0  0  0  0  0  0  0  0  0  0  0
  -25.4974  -31.3821    8.5382 C   0  0  0  0  0  0  0  0  0  0  0  0
  -26.5220  -32.4708    8.4199 C   0  0  0  0  0  0  0  0  0  0  0  0
  -26.4910  -33.5733    9.2725 C   0  0  0  0  0  0  0  0  0  0  0  0
  -27.4350  -34.5971    9.1416 C   0  0  0  0  0  0  0  0  0  0  0  0
  -28.4279  -34.5676    8.1467 C   0  0  0  0  0  0  0  0  0  0  0  0
  -28.4386  -33.4621    7.2686 C   0  0  0  0  0  0  0  0  0  0  0  0
  -27.4918  -32.4284    7.4133 C   0  0  0  0  0  0  0  0  0  0  0  0
  -29.4226  -33.2793    6.1703 C   0  0  0  0  0  0  0  0  0  0  0  0
  -29.6597  -34.0863    5.2887 O   0  0  0  0  0  0  0  0  0  0  0  0
  -30.1140  -32.1274    6.2409 O   0  0  0  0  0  0  0  0  0  0  0  0
  -29.9278  -31.5101    6.9208 H   0  0  0  0  0  0  0  0  0  0  0  0
  -29.5562  -36.8103    8.7614 C   0  0  0  0  0  0  0  0  0  0  0  0
  -28.4692  -37.6949    8.8910 C   0  0  0  0  0  0  0  0  0  0  0  0
  -28.6164  -38.9421    9.5013 C   0  0  0  0  0  0  0  0  0  0  0  0
  -27.1232  -40.0912    9.6575 Br  0  0  0  0  0  0  0  0  0  0  0  0
  -29.8509  -39.3472    9.9922 C   0  0  0  0  0  0  0  0  0  0  0  0
  -30.9443  -38.4907    9.8770 C   0  0  0  0  0  0  0  0  0  0  0  0
  -30.8070  -37.2258    9.2735 C   0  0  0  0  0  0  0  0  0  0  0  0
  -32.0485  -36.4131    9.2000 C   0  0  0  0  0  0  0  0  0  0  0  0
  -32.7413  -36.2693    8.2083 O   0  0  0  0  0  0  0  0  0  0  0  0
  -32.4111  -35.8662   10.3736 O   0  0  0  0  0  0  0  0  0  0  0  0
  -31.8718  -35.9822   11.1310 H   0  0  0  0  0  0  0  0  0  0  0  0
  3  4  1  0
  4  5  2  0
  5  6  1  0
  6  7  2  0
  7  1  1  0
  1 14  1  0
 14 15  2  0
 15 16  1  0
 16 17  1  0
 16 18  2  0
 18 19  1  0
 19 20  2  0
 20 21  1  0
 21 22  2  0
 21 23  1  0
  7  8  1  0
  8 10  1  0
 10 11  2  0
 10 12  1  0
  8  9  2  0
  9  4  1  0
 20 14  1  0
  1  2  1  0
 23 24  1  0
 12 13  1  0
M  END
> <minimizedAffinity>
-8.12874

> <CNNscore>
0.8186308146

> <CNNaffinity>
4.7419409752

> <CNN_VS>
3.8818991184

> <CNNaffinity_variance>
0.2790302932

$$$$



 24 25  0  0  0  0  0  0  0  0999 V2000
  -28.7536  -35.3548    8.1953 N   0  0  0  0  0  0  0  0  0  0  0  0
  -29.4859  -35.3180    8.8523 H   0  0  0  0  0  0  0  0  0  0  0  0
  -25.3895  -30.6943    8.4870 C   0  0  0  0  0  0  0  0  0  0  0  0
  -26.2733  -31.9037    8.4135 C   0  0  0  0  0  0  0  0  0  0  0  0
  -25.9603  -33.0586    9.1287 C   0  0  0  0  0  0  0  0  0  0  0  0
  -26.7757  -34.1915    9.0372 C   0  0  0  0  0  0  0  0  0  0  0  0
  -27.9170  -34.2194    8.2169 C   0  0  0  0  0  0  0  0  0  0  0  0
  -28.2148  -33.0565    7.4738 C   0  0  0  0  0  0  0  0  0  0  0  0
  -27.3957  -31.9147    7.5794 C   0  0  0  0  0  0  0  0  0  0  0  0
  -29.3842  -32.9233    6.5668 C   0  0  0  0  0  0  0  0  0  0  0  0
  -29.7899  -33.7805    5.8018 O   0  0  0  0  0  0  0  0  0  0  0  0
  -30.0383  -31.7536    6.6852 O   0  0  0  0  0  0  0  0  0  0  0  0
  -29.7222  -31.0977    7.2749 H   0  0  0  0  0  0  0  0  0  0  0  0
  -28.7491  -36.5329    7.4191 C   0  0  0  0  0  0  0  0  0  0  0  0
  -29.5043  -36.6100    6.2340 C   0  0  0  0  0  0  0  0  0  0  0  0
  -29.5664  -37.7885    5.4877 C   0  0  0  0  0  0  0  0  0  0  0  0
  -30.5893  -37.8387    3.8984 Br  0  0  0  0  0  0  0  0  0  0  0  0
  -28.8857  -38.9253    5.9041 C   0  0  0  0  0  0  0  0  0  0  0  0
  -28.1302  -38.8766    7.0742 C   0  0  0  0  0  0  0  0  0  0  0  0
  -28.0503  -37.6913    7.8303 C   0  0  0  0  0  0  0  0  0  0  0  0
  -27.2242  -37.7721    9.0625 C   0  0  0  0  0  0  0  0  0  0  0  0
  -27.5287  -38.3696   10.0795 O   0  0  0  0  0  0  0  0  0  0  0  0
  -26.0303  -37.1626    8.9581 O   0  0  0  0  0  0  0  0  0  0  0  0
  -25.8048  -36.7054    8.1719 H   0  0  0  0  0  0  0  0  0  0  0  0
  3  4  1  0
  4  5  2  0
  5  6  1  0
  6  7  2  0
  7  1  1  0
  1 14  1  0
 14 15  2  0
 15 16  1  0
 16 17  1  0
 16 18  2  0
 18 19  1  0
 19 20  2  0
 20 21  1  0
 21 22  2  0
 21 23  1  0
  7  8  1  0
  8 10  1  0
 10 11  2  0
 10 12  1  0
  8  9  2  0
  9  4  1  0
 20 14  1  0
  1  2  1  0
 23 24  1  0
 12 13  1  0
M  END
> <minimizedAffinity>
-7.44225

> <CNNscore>
0.7930129766

> <CNNaffinity>
4.8091044426

> <CNN_VS>
3.8136823177

> <CNNaffinity_variance>
0.0837664828

$$$$



 24 25  0  0  0  0  0  0  0  0999 V2000
  -29.8474  -35.6086    8.0577 N   0  0  0  0  0  0  0  0  0  0  0  0
  -30.5440  -35.3286    7.4208 H   0  0  0  0  0  0  0  0  0  0  0  0
  -25.5806  -31.7992    8.6939 C   0  0  0  0  0  0  0  0  0  0  0  0
  -26.6985  -32.7850    8.5283 C   0  0  0  0  0  0  0  0  0  0  0  0
  -26.8355  -33.8598    9.4054 C   0  0  0  0  0  0  0  0  0  0  0  0
  -27.8662  -34.7895    9.2314 C   0  0  0  0  0  0  0  0  0  0  0  0
  -28.7815  -34.6916    8.1689 C   0  0  0  0  0  0  0  0  0  0  0  0
  -28.6223  -33.6165    7.2678 C   0  0  0  0  0  0  0  0  0  0  0  0
  -27.5889  -32.6770    7.4555 C   0  0  0  0  0  0  0  0  0  0  0  0
  -29.5066  -33.3701    6.0993 C   0  0  0  0  0  0  0  0  0  0  0  0
  -29.7531  -34.1711    5.2149 O   0  0  0  0  0  0  0  0  0  0  0  0
  -30.0949  -32.1602    6.1036 O   0  0  0  0  0  0  0  0  0  0  0  0
  -29.9019  -31.5478    6.7860 H   0  0  0  0  0  0  0  0  0  0  0  0
  -30.1134  -36.8474    8.6781 C   0  0  0  0  0  0  0  0  0  0  0  0
  -31.0978  -36.9480    9.6789 C   0  0  0  0  0  0  0  0  0  0  0  0
  -31.3293  -38.1494   10.3518 C   0  0  0  0  0  0  0  0  0  0  0  0
  -32.6687  -38.2347   11.6835 Br  0  0  0  0  0  0  0  0  0  0  0  0
  -30.5825  -39.2818   10.0535 C   0  0  0  0  0  0  0  0  0  0  0  0
  -29.6011  -39.2100    9.0664 C   0  0  0  0  0  0  0  0  0  0  0  0
  -29.3649  -38.0076    8.3727 C   0  0  0  0  0  0  0  0  0  0  0  0
  -28.2843  -38.0573    7.3544 C   0  0  0  0  0  0  0  0  0  0  0  0
  -27.1561  -38.4772    7.5412 O   0  0  0  0  0  0  0  0  0  0  0  0
  -28.6675  -37.6437    6.1337 O   0  0  0  0  0  0  0  0  0  0  0  0
  -29.5374  -37.3223    5.9996 H   0  0  0  0  0  0  0  0  0  0  0  0
  3  4  1  0
  4  5  2  0
  5  6  1  0
  6  7  2  0
  7  1  1  0
  1 14  1  0
 14 15  2  0
 15 16  1  0
 16 17  1  0
 16 18  2  0
 18 19  1  0
 19 20  2  0
 20 21  1  0
 21 22  2  0
 21 23  1  0
  7  8  1  0
  8 10  1  0
 10 11  2  0
 10 12  1  0
  8  9  2  0
  9  4  1  0
 20 14  1  0
  1  2  1  0
 23 24  1  0
 12 13  1  0
M  END
> <minimizedAffinity>
-7.46645

> <CNNscore>
0.6146531701

> <CNNaffinity>
4.3285927773

> <CNN_VS>
2.6605832577

> <CNNaffinity_variance>
0.3301536143

$$$$



 24 25  0  0  0  0  0  0  0  0999 V2000
  -28.3920  -26.8089   -0.0933 N   0  0  0  0  0  0  0  0  0  0  0  0
  -28.6841  -27.7206   -0.3227 H   0  0  0  0  0  0  0  0  0  0  0  0
  -28.5535  -23.3106   -4.6603 C   0  0  0  0  0  0  0  0  0  0  0  0
  -28.5088  -24.2290   -3.4757 C   0  0  0  0  0  0  0  0  0  0  0  0
  -29.6221  -24.3815   -2.6507 C   0  0  0  0  0  0  0  0  0  0  0  0
  -29.5666  -25.2213   -1.5334 C   0  0  0  0  0  0  0  0  0  0  0  0
  -28.3968  -25.9210   -1.1892 C   0  0  0  0  0  0  0  0  0  0  0  0
  -27.2638  -25.7424   -2.0124 C   0  0  0  0  0  0  0  0  0  0  0  0
  -27.3301  -24.9039   -3.1430 C   0  0  0  0  0  0  0  0  0  0  0  0
  -25.9565  -26.4122   -1.7883 C   0  0  0  0  0  0  0  0  0  0  0  0
  -24.9056  -25.8499   -1.5351 O   0  0  0  0  0  0  0  0  0  0  0  0
  -26.0152  -27.7556   -1.8309 O   0  0  0  0  0  0  0  0  0  0  0  0
  -26.8258  -28.1831   -2.0261 H   0  0  0  0  0  0  0  0  0  0  0  0
  -28.0516  -26.6496    1.2666 C   0  0  0  0  0  0  0  0  0  0  0  0
  -26.7035  -26.6573    1.6709 C   0  0  0  0  0  0  0  0  0  0  0  0
  -26.3489  -26.5686    3.0185 C   0  0  0  0  0  0  0  0  0  0  0  0
  -24.5231  -26.5756    3.5096 Br  0  0  0  0  0  0  0  0  0  0  0  0
  -27.3256  -26.4783    4.0018 C   0  0  0  0  0  0  0  0  0  0  0  0
  -28.6685  -26.4685    3.6291 C   0  0  0  0  0  0  0  0  0  0  0  0
  -29.0395  -26.5463    2.2730 C   0  0  0  0  0  0  0  0  0  0  0  0
  -30.5012  -26.5398    2.0075 C   0  0  0  0  0  0  0  0  0  0  0  0
  -31.2848  -25.6882    2.3881 O   0  0  0  0  0  0  0  0  0  0  0  0
  -30.9175  -27.5543    1.2293 O   0  0  0  0  0  0  0  0  0  0  0  0
  -30.3075  -28.2046    0.9414 H   0  0  0  0  0  0  0  0  0  0  0  0
  3  4  1  0
  4  5  2  0
  5  6  1  0
  6  7  2  0
  7  1  1  0
  1 14  1  0
 14 15  2  0
 15 16  1  0
 16 17  1  0
 16 18  2  0
 18 19  1  0
 19 20  2  0
 20 21  1  0
 21 22  2  0
 21 23  1  0
  7  8  1  0
  8 10  1  0
 10 11  2  0
 10 12  1  0
  8  9  2  0
  9  4  1  0
 20 14  1  0
  1  2  1  0
 23 24  1  0
 12 13  1  0
M  END
> <minimizedAffinity>
-8.00894

> <CNNscore>
0.5552589893

> <CNNaffinity>
4.9866981506

> <CNN_VS>
2.7689089775

> <CNNaffinity_variance>
0.5099087358

$$$$



 24 25  0  0  0  0  0  0  0  0999 V2000
  -28.4626  -26.1882   -0.6383 N   0  0  0  0  0  0  0  0  0  0  0  0
  -28.3600  -27.0491   -1.1047 H   0  0  0  0  0  0  0  0  0  0  0  0
  -30.1125  -22.0054   -4.2306 C   0  0  0  0  0  0  0  0  0  0  0  0
  -29.6775  -23.0990   -3.3012 C   0  0  0  0  0  0  0  0  0  0  0  0
  -30.6181  -23.8825   -2.6342 C   0  0  0  0  0  0  0  0  0  0  0  0
  -30.2062  -24.8853   -1.7502 C   0  0  0  0  0  0  0  0  0  0  0  0
  -28.8470  -25.1283   -1.4858 C   0  0  0  0  0  0  0  0  0  0  0  0
  -27.8990  -24.3145   -2.1432 C   0  0  0  0  0  0  0  0  0  0  0  0
  -28.3204  -23.3137   -3.0413 C   0  0  0  0  0  0  0  0  0  0  0  0
  -26.4284  -24.4463   -1.9762 C   0  0  0  0  0  0  0  0  0  0  0  0
  -25.7811  -25.4612   -2.1651 O   0  0  0  0  0  0  0  0  0  0  0  0
  -25.8112  -23.3002   -1.6364 O   0  0  0  0  0  0  0  0  0  0  0  0
  -26.3135  -22.5224   -1.4923 H   0  0  0  0  0  0  0  0  0  0  0  0
  -28.1960  -26.2593    0.7453 C   0  0  0  0  0  0  0  0  0  0  0  0
  -26.8704  -26.3073    1.2155 C   0  0  0  0  0  0  0  0  0  0  0  0
  -26.5868  -26.4456    2.5757 C   0  0  0  0  0  0  0  0  0  0  0  0
  -24.7886  -26.4974    3.1577 Br  0  0  0  0  0  0  0  0  0  0  0  0
  -27.6140  -26.5483    3.5049 C   0  0  0  0  0  0  0  0  0  0  0  0
  -28.9361  -26.5036    3.0664 C   0  0  0  0  0  0  0  0  0  0  0  0
  -29.2359  -26.3536    1.6987 C   0  0  0  0  0  0  0  0  0  0  0  0
  -30.6820  -26.3333    1.3585 C   0  0  0  0  0  0  0  0  0  0  0  0
  -31.4687  -25.4565    1.6692 O   0  0  0  0  0  0  0  0  0  0  0  0
  -31.0760  -27.3676    0.5952 O   0  0  0  0  0  0  0  0  0  0  0  0
  -30.4638  -28.0373    0.3614 H   0  0  0  0  0  0  0  0  0  0  0  0
  3  4  1  0
  4  5  2  0
  5  6  1  0
  6  7  2  0
  7  1  1  0
  1 14  1  0
 14 15  2  0
 15 16  1  0
 16 17  1  0
 16 18  2  0
 18 19  1  0
 19 20  2  0
 20 21  1  0
 21 22  2  0
 21 23  1  0
  7  8  1  0
  8 10  1  0
 10 11  2  0
 10 12  1  0
  8  9  2  0
  9  4  1  0
 20 14  1  0
  1  2  1  0
 23 24  1  0
 12 13  1  0
M  END
> <minimizedAffinity>
-7.50198

> <CNNscore>
0.4458141625

> <CNNaffinity>
4.9964385033

> <CNN_VS>
2.2274830341

> <CNNaffinity_variance>
0.1413204521

$$$$



 24 25  0  0  0  0  0  0  0  0999 V2000
  -29.0103  -25.1018    1.8856 N   0  0  0  0  0  0  0  0  0  0  0  0
  -29.6176  -24.4183    2.2505 H   0  0  0  0  0  0  0  0  0  0  0  0
  -28.8487  -25.0475   -3.8670 C   0  0  0  0  0  0  0  0  0  0  0  0
  -28.8973  -25.0552   -2.3682 C   0  0  0  0  0  0  0  0  0  0  0  0
  -27.7409  -24.8496   -1.6174 C   0  0  0  0  0  0  0  0  0  0  0  0
  -27.7883  -24.8818   -0.2197 C   0  0  0  0  0  0  0  0  0  0  0  0
  -28.9827  -25.1389    0.4760 C   0  0  0  0  0  0  0  0  0  0  0  0
  -30.1458  -25.3731   -0.2893 C   0  0  0  0  0  0  0  0  0  0  0  0
  -30.0933  -25.3278   -1.6968 C   0  0  0  0  0  0  0  0  0  0  0  0
  -31.4840  -25.6537    0.2924 C   0  0  0  0  0  0  0  0  0  0  0  0
  -31.9474  -25.1307    1.2906 O   0  0  0  0  0  0  0  0  0  0  0  0
  -32.2170  -26.5297   -0.4184 O   0  0  0  0  0  0  0  0  0  0  0  0
  -31.8560  -26.9291   -1.1853 H   0  0  0  0  0  0  0  0  0  0  0  0
  -28.3403  -25.8500    2.8765 C   0  0  0  0  0  0  0  0  0  0  0  0
  -26.9418  -26.0017    2.8330 C   0  0  0  0  0  0  0  0  0  0  0  0
  -26.2677  -26.7931    3.7651 C   0  0  0  0  0  0  0  0  0  0  0  0
  -24.3868  -26.9588    3.6682 Br  0  0  0  0  0  0  0  0  0  0  0  0
  -26.9670  -27.4622    4.7613 C   0  0  0  0  0  0  0  0  0  0  0  0
  -28.3528  -27.3293    4.8274 C   0  0  0  0  0  0  0  0  0  0  0  0
  -29.0436  -26.5256    3.9003 C   0  0  0  0  0  0  0  0  0  0  0  0
  -30.5188  -26.4765    4.0694 C   0  0  0  0  0  0  0  0  0  0  0  0
  -31.2283  -27.4223    4.3629 O   0  0  0  0  0  0  0  0  0  0  0  0
  -31.0419  -25.2458    3.9296 O   0  0  0  0  0  0  0  0  0  0  0  0
  -30.4884  -24.5244    3.7036 H   0  0  0  0  0  0  0  0  0  0  0  0
  3  4  1  0
  4  5  2  0
  5  6  1  0
  6  7  2  0
  7  1  1  0
  1 14  1  0
 14 15  2  0
 15 16  1  0
 16 17  1  0
 16 18  2  0
 18 19  1  0
 19 20  2  0
 20 21  1  0
 21 22  2  0
 21 23  1  0
  7  8  1  0
  8 10  1  0
 10 11  2  0
 10 12  1  0
  8  9  2  0
  9  4  1  0
 20 14  1  0
  1  2  1  0
 23 24  1  0
 12 13  1  0
M  END
> <minimizedAffinity>
-7.55073

> <CNNscore>
0.4367487133

> <CNNaffinity>
4.0120778084

> <CNN_VS>
1.7522698641

> <CNNaffinity_variance>
0.6224080920

$$$$



 24 25  0  0  0  0  0  0  0  0999 V2000
  -27.4033  -28.3545    6.9633 N   0  0  0  0  0  0  0  0  0  0  0  0
  -27.9797  -27.8500    7.5817 H   0  0  0  0  0  0  0  0  0  0  0  0
  -26.9906  -25.8485    1.7989 C   0  0  0  0  0  0  0  0  0  0  0  0
  -27.1039  -26.4949    3.1473 C   0  0  0  0  0  0  0  0  0  0  0  0
  -25.9653  -26.7664    3.9045 C   0  0  0  0  0  0  0  0  0  0  0  0
  -26.0758  -27.3914    5.1511 C   0  0  0  0  0  0  0  0  0  0  0  0
  -27.3194  -27.7842    5.6761 C   0  0  0  0  0  0  0  0  0  0  0  0
  -28.4670  -27.5313    4.8936 C   0  0  0  0  0  0  0  0  0  0  0  0
  -28.3498  -26.8910    3.6437 C   0  0  0  0  0  0  0  0  0  0  0  0
  -29.8511  -27.8797    5.3067 C   0  0  0  0  0  0  0  0  0  0  0  0
  -30.6767  -27.1003    5.7491 O   0  0  0  0  0  0  0  0  0  0  0  0
  -30.1753  -29.1692    5.1019 O   0  0  0  0  0  0  0  0  0  0  0  0
  -29.5367  -29.7645    4.7615 H   0  0  0  0  0  0  0  0  0  0  0  0
  -26.8250  -29.5047    7.5406 C   0  0  0  0  0  0  0  0  0  0  0  0
  -27.4635  -30.7544    7.4356 C   0  0  0  0  0  0  0  0  0  0  0  0
  -26.9420  -31.8910    8.0567 C   0  0  0  0  0  0  0  0  0  0  0  0
  -27.8338  -33.5487    7.8791 Br  0  0  0  0  0  0  0  0  0  0  0  0
  -25.7754  -31.8141    8.8064 C   0  0  0  0  0  0  0  0  0  0  0  0
  -25.1226  -30.5887    8.9269 C   0  0  0  0  0  0  0  0  0  0  0  0
  -25.6319  -29.4371    8.2965 C   0  0  0  0  0  0  0  0  0  0  0  0
  -24.8519  -28.1911    8.5120 C   0  0  0  0  0  0  0  0  0  0  0  0
  -23.6559  -28.0638    8.3186 O   0  0  0  0  0  0  0  0  0  0  0  0
  -25.5988  -27.1413    8.8966 O   0  0  0  0  0  0  0  0  0  0  0  0
  -26.5180  -27.2488    9.0429 H   0  0  0  0  0  0  0  0  0  0  0  0
  3  4  1  0
  4  5  2  0
  5  6  1  0
  6  7  2  0
  7  1  1  0
  1 14  1  0
 14 15  2  0
 15 16  1  0
 16 17  1  0
 16 18  2  0
 18 19  1  0
 19 20  2  0
 20 21  1  0
 21 22  2  0
 21 23  1  0
  7  8  1  0
  8 10  1  0
 10 11  2  0
 10 12  1  0
  8  9  2  0
  9  4  1  0
 20 14  1  0
  1  2  1  0
 23 24  1  0
 12 13  1  0
M  END
> <minimizedAffinity>
-8.54170

> <CNNscore>
0.3975277841

> <CNNaffinity>
4.9155793190

> <CNN_VS>
1.9540793896

> <CNNaffinity_variance>
0.1719300598

$$$$
