


 37 39  0  0  0  0  0  0  0  0999 V2000
   21.6360  -27.9272   11.4643 C   0  0  0  0  0  0  0  0  0  0  0  0
   20.5850  -28.1082   12.2824 C   0  0  0  0  0  0  0  0  0  0  0  0
   20.2002  -29.3496   13.0355 C   0  0  0  0  0  0  0  0  0  0  0  0
   18.7674  -29.3446   13.1699 O   0  0  0  0  0  0  0  0  0  0  0  0
   18.3002  -30.7111   13.1767 C   0  0  0  0  0  0  0  0  0  0  0  0
   19.5407  -31.6096   13.1047 C   0  0  0  0  0  0  0  0  0  0  0  0
   19.9987  -31.9403   14.4314 O   0  0  0  0  0  0  0  0  0  0  0  0
   20.5541  -30.7075   12.4202 C   0  0  0  0  0  0  0  0  0  0  0  0
   21.8833  -31.1391   12.7119 O   0  0  0  0  0  0  0  0  0  0  0  0
   20.1677  -31.1243   14.9279 H   0  0  0  0  0  0  0  0  0  0  0  0
   22.0069  -31.1783   13.6732 H   0  0  0  0  0  0  0  0  0  0  0  0
   17.1678  -30.9716   11.7541 S   0  0  0  0  0  0  0  0  0  0  0  0
   15.5777  -30.8082   12.5438 C   0  0  0  0  0  0  0  0  0  0  0  0
   15.3221  -29.8291   13.5012 C   0  0  0  0  0  0  0  0  0  0  0  0
   14.0541  -29.7657   14.0539 C   0  0  0  0  0  0  0  0  0  0  0  0
   13.0468  -30.5962   13.7176 N   0  0  0  0  0  0  0  0  0  0  0  0
   13.3169  -31.5173   12.7730 C   0  0  0  0  0  0  0  0  0  0  0  0
   12.3257  -32.3491   12.4206 F   0  0  0  0  0  0  0  0  0  0  0  0
   14.5458  -31.6596   12.1588 C   0  0  0  0  0  0  0  0  0  0  0  0
   21.9211  -26.6317   10.7706 C   0  0  0  0  0  0  0  0  0  0  0  0
   21.0395  -28.2137    8.6161 O   0  0  0  0  0  0  0  0  0  0  0  0
   22.1738  -27.7466    8.5934 C   0  0  0  0  0  0  0  0  0  0  0  0
   22.6690  -26.9292    9.5777 N   0  0  0  0  0  0  0  0  0  0  0  0
   23.5635  -26.5339    9.4644 H   0  0  0  0  0  0  0  0  0  0  0  0
   23.0713  -28.0401    7.4363 C   0  0  0  0  0  0  0  0  0  0  0  0
   23.0433  -29.3467    6.9153 C   0  0  0  0  0  0  0  0  0  0  0  0
   23.8489  -29.6878    5.8181 C   0  0  0  0  0  0  0  0  0  0  0  0
   24.6992  -28.7435    5.2282 C   0  0  0  0  0  0  0  0  0  0  0  0
   24.7347  -27.4607    5.7601 C   0  0  0  0  0  0  0  0  0  0  0  0
   25.5650  -26.4956    5.2519 O   0  0  0  0  0  0  0  0  0  0  0  0
   23.9310  -27.1036    6.8493 C   0  0  0  0  0  0  0  0  0  0  0  0
   24.0363  -25.8147    7.3129 O   0  0  0  0  0  0  0  0  0  0  0  0
   26.1201  -26.6916    4.5230 H   0  0  0  0  0  0  0  0  0  0  0  0
   24.6219  -25.2134    6.8964 H   0  0  0  0  0  0  0  0  0  0  0  0
   23.8042  -31.0537    5.2787 N   0  0  0  0  0  0  0  0  0  0  0  0
   22.7142  -31.6385    5.2737 O   0  0  0  0  0  0  0  0  0  0  0  0
   24.8659  -31.5340    4.8548 O   0  0  0  0  0  0  0  0  0  0  0  0
 21 22  2  0
 22 23  1  0
 23 20  1  0
 20  1  1  0
  1  2  2  0
  3  2  1  0
  3  4  1  0
  4  5  1  0
  5 12  1  0
 12 13  1  0
 13 14  2  0
 14 15  1  0
 15 16  2  0
 16 17  1  0
 17 18  1  0
 17 19  2  0
  5  6  1  0
  6  7  1  0
  6  8  1  0
  8  9  1  0
 22 25  1  0
 25 26  2  0
 26 27  1  0
 27 35  1  0
 35 36  2  0
 35 37  1  0
 27 28  2  0
 28 29  1  0
 29 30  1  0
 29 31  2  0
 31 32  1  0
  8  3  1  0
 31 25  1  0
 19 13  1  0
 23 24  1  0
  7 10  1  0
  9 11  1  0
 30 33  1  0
 32 34  1  0
M  CHG 1  35   1
M  CHG 1  37  -1
M  END
> <minimizedAffinity>
-10.65777

> <CNNscore>
0.9607582092

> <CNNaffinity>
7.1490845680

> <CNN_VS>
6.8685417175

> <CNNaffinity_variance>
0.0827495083

$$$$



 37 39  0  0  0  0  0  0  0  0999 V2000
   20.5974  -31.1507    9.1155 C   0  0  0  0  0  0  0  0  0  0  0  0
   20.4870  -29.9021    9.6007 C   0  0  0  0  0  0  0  0  0  0  0  0
   20.1673  -29.4791   11.0061 C   0  0  0  0  0  0  0  0  0  0  0  0
   18.7369  -29.5309   11.1561 O   0  0  0  0  0  0  0  0  0  0  0  0
   18.4290  -29.8682   12.5262 C   0  0  0  0  0  0  0  0  0  0  0  0
   19.7637  -29.9663   13.2747 C   0  0  0  0  0  0  0  0  0  0  0  0
   20.1129  -28.6900   13.8477 O   0  0  0  0  0  0  0  0  0  0  0  0
   20.7355  -30.3129   12.1591 C   0  0  0  0  0  0  0  0  0  0  0  0
   22.0665  -29.9499   12.5263 O   0  0  0  0  0  0  0  0  0  0  0  0
   20.1349  -28.0172   13.1493 H   0  0  0  0  0  0  0  0  0  0  0  0
   22.0911  -29.0100   12.7649 H   0  0  0  0  0  0  0  0  0  0  0  0
   17.4906  -31.4468   12.5655 S   0  0  0  0  0  0  0  0  0  0  0  0
   15.8241  -30.8525   12.7859 C   0  0  0  0  0  0  0  0  0  0  0  0
   15.5400  -29.6852   13.4909 C   0  0  0  0  0  0  0  0  0  0  0  0
   14.2176  -29.2900   13.6019 C   0  0  0  0  0  0  0  0  0  0  0  0
   13.1842  -29.9684   13.0640 N   0  0  0  0  0  0  0  0  0  0  0  0
   13.4915  -31.0801   12.3688 C   0  0  0  0  0  0  0  0  0  0  0  0
   12.4774  -31.7657   11.8211 F   0  0  0  0  0  0  0  0  0  0  0  0
   14.7769  -31.5555   12.1968 C   0  0  0  0  0  0  0  0  0  0  0  0
   20.9299  -31.4484    7.6866 C   0  0  0  0  0  0  0  0  0  0  0  0
   23.1412  -31.8410    5.9902 O   0  0  0  0  0  0  0  0  0  0  0  0
   22.9142  -30.7186    6.4308 C   0  0  0  0  0  0  0  0  0  0  0  0
   21.8346  -30.4284    7.2261 N   0  0  0  0  0  0  0  0  0  0  0  0
   21.6738  -29.4936    7.4898 H   0  0  0  0  0  0  0  0  0  0  0  0
   23.8228  -29.5875    6.0766 C   0  0  0  0  0  0  0  0  0  0  0  0
   24.9007  -29.8723    5.2185 C   0  0  0  0  0  0  0  0  0  0  0  0
   25.7847  -28.8534    4.8315 C   0  0  0  0  0  0  0  0  0  0  0  0
   25.6189  -27.5420    5.2954 C   0  0  0  0  0  0  0  0  0  0  0  0
   24.5629  -27.2727    6.1569 C   0  0  0  0  0  0  0  0  0  0  0  0
   24.3591  -26.0192    6.6728 O   0  0  0  0  0  0  0  0  0  0  0  0
   23.6685  -28.2771    6.5455 C   0  0  0  0  0  0  0  0  0  0  0  0
   22.6578  -27.9211    7.4051 O   0  0  0  0  0  0  0  0  0  0  0  0
   24.9340  -25.3173    6.4392 H   0  0  0  0  0  0  0  0  0  0  0  0
   22.5836  -27.0347    7.6995 H   0  0  0  0  0  0  0  0  0  0  0  0
   26.9017  -29.1627    3.9285 N   0  0  0  0  0  0  0  0  0  0  0  0
   27.2510  -28.2931    3.1212 O   0  0  0  0  0  0  0  0  0  0  0  0
   27.4302  -30.2791    4.0376 O   0  0  0  0  0  0  0  0  0  0  0  0
 21 22  2  0
 22 23  1  0
 23 20  1  0
 20  1  1  0
  1  2  2  0
  3  2  1  0
  3  4  1  0
  4  5  1  0
  5 12  1  0
 12 13  1  0
 13 14  2  0
 14 15  1  0
 15 16  2  0
 16 17  1  0
 17 18  1  0
 17 19  2  0
  5  6  1  0
  6  7  1  0
  6  8  1  0
  8  9  1  0
 22 25  1  0
 25 26  2  0
 26 27  1  0
 27 35  1  0
 35 36  2  0
 35 37  1  0
 27 28  2  0
 28 29  1  0
 29 30  1  0
 29 31  2  0
 31 32  1  0
  8  3  1  0
 31 25  1  0
 19 13  1  0
 23 24  1  0
  7 10  1  0
  9 11  1  0
 30 33  1  0
 32 34  1  0
M  CHG 1  35   1
M  CHG 1  37  -1
M  END
> <minimizedAffinity>
-10.30046

> <CNNscore>
0.9595782757

> <CNNaffinity>
7.1369757652

> <CNN_VS>
6.8484869003

> <CNNaffinity_variance>
0.1068723574

$$$$



 37 39  0  0  0  0  0  0  0  0999 V2000
   21.7689  -28.0752   11.3886 C   0  0  0  0  0  0  0  0  0  0  0  0
   20.5528  -28.3132   11.9092 C   0  0  0  0  0  0  0  0  0  0  0  0
   20.1415  -29.4242   12.8326 C   0  0  0  0  0  0  0  0  0  0  0  0
   18.7109  -29.3579   12.9752 O   0  0  0  0  0  0  0  0  0  0  0  0
   18.2054  -30.6954   13.1781 C   0  0  0  0  0  0  0  0  0  0  0  0
   19.4192  -31.6313   13.2248 C   0  0  0  0  0  0  0  0  0  0  0  0
   19.8825  -31.7853   14.5816 O   0  0  0  0  0  0  0  0  0  0  0  0
   20.4499  -30.8651   12.4126 C   0  0  0  0  0  0  0  0  0  0  0  0
   21.7696  -31.2904   12.7528 O   0  0  0  0  0  0  0  0  0  0  0  0
   20.0800  -30.9128   14.9567 H   0  0  0  0  0  0  0  0  0  0  0  0
   21.9028  -31.1974   13.7091 H   0  0  0  0  0  0  0  0  0  0  0  0
   17.0503  -31.1201   11.8145 S   0  0  0  0  0  0  0  0  0  0  0  0
   15.4735  -30.8315   12.5951 C   0  0  0  0  0  0  0  0  0  0  0  0
   15.2726  -29.7904   13.4985 C   0  0  0  0  0  0  0  0  0  0  0  0
   14.0115  -29.6311   14.0475 C   0  0  0  0  0  0  0  0  0  0  0  0
   12.9610  -30.4245   13.7568 N   0  0  0  0  0  0  0  0  0  0  0  0
   13.1795  -31.4078   12.8630 C   0  0  0  0  0  0  0  0  0  0  0  0
   12.1450  -32.2043   12.5563 F   0  0  0  0  0  0  0  0  0  0  0  0
   14.3973  -31.6471   12.2568 C   0  0  0  0  0  0  0  0  0  0  0  0
   22.0597  -26.9227   10.4786 C   0  0  0  0  0  0  0  0  0  0  0  0
   20.8618  -28.6950    8.6495 O   0  0  0  0  0  0  0  0  0  0  0  0
   22.0239  -28.3436    8.4720 C   0  0  0  0  0  0  0  0  0  0  0  0
   22.6706  -27.4492    9.2868 N   0  0  0  0  0  0  0  0  0  0  0  0
   23.5807  -27.1587    9.0489 H   0  0  0  0  0  0  0  0  0  0  0  0
   22.7869  -28.8754    7.3034 C   0  0  0  0  0  0  0  0  0  0  0  0
   23.7497  -28.0286    6.7242 C   0  0  0  0  0  0  0  0  0  0  0  0
   24.5145  -28.4695    5.6334 C   0  0  0  0  0  0  0  0  0  0  0  0
   24.3304  -29.7501    5.0958 C   0  0  0  0  0  0  0  0  0  0  0  0
   23.3650  -30.5733    5.6617 C   0  0  0  0  0  0  0  0  0  0  0  0
   23.1111  -31.8264    5.1677 O   0  0  0  0  0  0  0  0  0  0  0  0
   22.6000  -30.1502    6.7550 C   0  0  0  0  0  0  0  0  0  0  0  0
   21.6643  -31.0283    7.2456 O   0  0  0  0  0  0  0  0  0  0  0  0
   23.5999  -32.1497    4.4365 H   0  0  0  0  0  0  0  0  0  0  0  0
   21.5654  -31.8742    6.8547 H   0  0  0  0  0  0  0  0  0  0  0  0
   25.5223  -27.5781    5.0429 N   0  0  0  0  0  0  0  0  0  0  0  0
   25.4305  -26.3667    5.2754 O   0  0  0  0  0  0  0  0  0  0  0  0
   26.4088  -28.0999    4.3506 O   0  0  0  0  0  0  0  0  0  0  0  0
 21 22  2  0
 22 23  1  0
 23 20  1  0
 20  1  1  0
  1  2  2  0
  3  2  1  0
  3  4  1  0
  4  5  1  0
  5 12  1  0
 12 13  1  0
 13 14  2  0
 14 15  1  0
 15 16  2  0
 16 17  1  0
 17 18  1  0
 17 19  2  0
  5  6  1  0
  6  7  1  0
  6  8  1  0
  8  9  1  0
 22 25  1  0
 25 26  2  0
 26 27  1  0
 27 35  1  0
 35 36  2  0
 35 37  1  0
 27 28  2  0
 28 29  1  0
 29 30  1  0
 29 31  2  0
 31 32  1  0
  8  3  1  0
 31 25  1  0
 19 13  1  0
 23 24  1  0
  7 10  1  0
  9 11  1  0
 30 33  1  0
 32 34  1  0
M  CHG 1  35   1
M  CHG 1  37  -1
M  END
> <minimizedAffinity>
-9.58746

> <CNNscore>
0.7885113358

> <CNNaffinity>
6.6139464378

> <CNN_VS>
5.2151718140

> <CNNaffinity_variance>
0.0277741309

$$$$



 37 39  0  0  0  0  0  0  0  0999 V2000
   21.6912  -28.0695   11.4617 C   0  0  0  0  0  0  0  0  0  0  0  0
   20.4625  -28.5062   11.7877 C   0  0  0  0  0  0  0  0  0  0  0  0
   20.0862  -29.7923   12.4662 C   0  0  0  0  0  0  0  0  0  0  0  0
   20.0398  -30.8149   11.4546 O   0  0  0  0  0  0  0  0  0  0  0  0
   20.4199  -32.0731   12.0531 C   0  0  0  0  0  0  0  0  0  0  0  0
   20.6523  -31.8078   13.5454 C   0  0  0  0  0  0  0  0  0  0  0  0
   19.4346  -32.0185   14.2884 O   0  0  0  0  0  0  0  0  0  0  0  0
   21.0148  -30.3321   13.5589 C   0  0  0  0  0  0  0  0  0  0  0  0
   20.7691  -29.7699   14.8480 O   0  0  0  0  0  0  0  0  0  0  0  0
   18.7321  -31.4581   13.9234 H   0  0  0  0  0  0  0  0  0  0  0  0
   19.8463  -29.9305   15.1002 H   0  0  0  0  0  0  0  0  0  0  0  0
   21.9252  -32.7120   11.2165 S   0  0  0  0  0  0  0  0  0  0  0  0
   22.6483  -33.6994   12.5131 C   0  0  0  0  0  0  0  0  0  0  0  0
   22.2518  -35.0130   12.7538 C   0  0  0  0  0  0  0  0  0  0  0  0
   22.8764  -35.7114   13.7733 C   0  0  0  0  0  0  0  0  0  0  0  0
   23.8513  -35.1953   14.5485 N   0  0  0  0  0  0  0  0  0  0  0  0
   24.2294  -33.9316   14.2773 C   0  0  0  0  0  0  0  0  0  0  0  0
   25.2021  -33.4025   15.0339 F   0  0  0  0  0  0  0  0  0  0  0  0
   23.6728  -33.1533   13.2812 C   0  0  0  0  0  0  0  0  0  0  0  0
   21.9425  -26.7562   10.7887 C   0  0  0  0  0  0  0  0  0  0  0  0
   21.0356  -28.1184    8.4987 O   0  0  0  0  0  0  0  0  0  0  0  0
   22.1968  -27.7245    8.5426 C   0  0  0  0  0  0  0  0  0  0  0  0
   22.7091  -27.0139    9.5984 N   0  0  0  0  0  0  0  0  0  0  0  0
   23.6296  -26.6696    9.5400 H   0  0  0  0  0  0  0  0  0  0  0  0
   23.1118  -27.9905    7.3926 C   0  0  0  0  0  0  0  0  0  0  0  0
   23.1583  -29.3069    6.8983 C   0  0  0  0  0  0  0  0  0  0  0  0
   23.9842  -29.6243    5.8090 C   0  0  0  0  0  0  0  0  0  0  0  0
   24.7812  -28.6458    5.2007 C   0  0  0  0  0  0  0  0  0  0  0  0
   24.7434  -27.3525    5.7064 C   0  0  0  0  0  0  0  0  0  0  0  0
   25.5191  -26.3527    5.1795 O   0  0  0  0  0  0  0  0  0  0  0  0
   23.9187  -27.0192    6.7874 C   0  0  0  0  0  0  0  0  0  0  0  0
   23.9503  -25.7173    7.2247 O   0  0  0  0  0  0  0  0  0  0  0  0
   26.0859  -26.5319    4.4552 H   0  0  0  0  0  0  0  0  0  0  0  0
   24.5020  -25.0925    6.7966 H   0  0  0  0  0  0  0  0  0  0  0  0
   24.0175  -31.0013    5.2974 N   0  0  0  0  0  0  0  0  0  0  0  0
   25.0944  -31.6082    5.3392 O   0  0  0  0  0  0  0  0  0  0  0  0
   22.9572  -31.4723    4.8599 O   0  0  0  0  0  0  0  0  0  0  0  0
 21 22  2  0
 22 23  1  0
 23 20  1  0
 20  1  1  0
  1  2  2  0
  3  2  1  0
  3  4  1  0
  4  5  1  0
  5 12  1  0
 12 13  1  0
 13 14  2  0
 14 15  1  0
 15 16  2  0
 16 17  1  0
 17 18  1  0
 17 19  2  0
  5  6  1  0
  6  7  1  0
  6  8  1  0
  8  9  1  0
 22 25  1  0
 25 26  2  0
 26 27  1  0
 27 35  1  0
 35 36  2  0
 35 37  1  0
 27 28  2  0
 28 29  1  0
 29 30  1  0
 29 31  2  0
 31 32  1  0
  8  3  1  0
 31 25  1  0
 19 13  1  0
 23 24  1  0
  7 10  1  0
  9 11  1  0
 30 33  1  0
 32 34  1  0
M  CHG 1  35   1
M  CHG 1  37  -1
M  END
> <minimizedAffinity>
-8.38100

> <CNNscore>
0.7740727663

> <CNNaffinity>
6.7687735558

> <CNN_VS>
5.2395234108

> <CNNaffinity_variance>
0.0797457621

$$$$



 37 39  0  0  0  0  0  0  0  0999 V2000
   21.7204  -28.2397   11.3746 C   0  0  0  0  0  0  0  0  0  0  0  0
   20.5243  -28.7591   11.7004 C   0  0  0  0  0  0  0  0  0  0  0  0
   20.2377  -30.0522   12.4088 C   0  0  0  0  0  0  0  0  0  0  0  0
   20.3818  -31.1117   11.4455 O   0  0  0  0  0  0  0  0  0  0  0  0
   20.8481  -32.2956   12.1287 C   0  0  0  0  0  0  0  0  0  0  0  0
   20.9328  -31.9488   13.6200 C   0  0  0  0  0  0  0  0  0  0  0  0
   19.6908  -32.2655   14.2804 O   0  0  0  0  0  0  0  0  0  0  0  0
   21.1310  -30.4425   13.5910 C   0  0  0  0  0  0  0  0  0  0  0  0
   20.7256  -29.8621   14.8307 O   0  0  0  0  0  0  0  0  0  0  0  0
   18.9623  -31.8016   13.8388 H   0  0  0  0  0  0  0  0  0  0  0  0
   19.8088  -30.1149   15.0216 H   0  0  0  0  0  0  0  0  0  0  0  0
   22.4746  -32.7941   11.4359 S   0  0  0  0  0  0  0  0  0  0  0  0
   21.9975  -33.3779    9.8201 C   0  0  0  0  0  0  0  0  0  0  0  0
   21.8902  -32.5240    8.7248 C   0  0  0  0  0  0  0  0  0  0  0  0
   21.5265  -33.0650    7.5032 C   0  0  0  0  0  0  0  0  0  0  0  0
   21.2715  -34.3745    7.3086 N   0  0  0  0  0  0  0  0  0  0  0  0
   21.4058  -35.1788    8.3803 C   0  0  0  0  0  0  0  0  0  0  0  0
   21.1621  -36.4859    8.2054 F   0  0  0  0  0  0  0  0  0  0  0  0
   21.7672  -34.7388    9.6387 C   0  0  0  0  0  0  0  0  0  0  0  0
   21.8802  -26.9288   10.6696 C   0  0  0  0  0  0  0  0  0  0  0  0
   21.0733  -28.3661    8.3882 O   0  0  0  0  0  0  0  0  0  0  0  0
   22.2110  -27.9096    8.4390 C   0  0  0  0  0  0  0  0  0  0  0  0
   22.6727  -27.1594    9.4908 N   0  0  0  0  0  0  0  0  0  0  0  0
   23.5739  -26.7667    9.4375 H   0  0  0  0  0  0  0  0  0  0  0  0
   23.1516  -28.1400    7.3021 C   0  0  0  0  0  0  0  0  0  0  0  0
   23.2207  -29.4438    6.7780 C   0  0  0  0  0  0  0  0  0  0  0  0
   24.0714  -29.7278    5.6986 C   0  0  0  0  0  0  0  0  0  0  0  0
   24.8713  -28.7280    5.1301 C   0  0  0  0  0  0  0  0  0  0  0  0
   24.8110  -27.4475    5.6652 C   0  0  0  0  0  0  0  0  0  0  0  0
   25.5877  -26.4285    5.1780 O   0  0  0  0  0  0  0  0  0  0  0  0
   23.9614  -27.1473    6.7366 C   0  0  0  0  0  0  0  0  0  0  0  0
   23.9718  -25.8560    7.2050 O   0  0  0  0  0  0  0  0  0  0  0  0
   26.1708  -26.5854    4.4614 H   0  0  0  0  0  0  0  0  0  0  0  0
   24.5261  -25.2163    6.8031 H   0  0  0  0  0  0  0  0  0  0  0  0
   24.1281  -31.0919    5.1556 N   0  0  0  0  0  0  0  0  0  0  0  0
   25.2223  -31.6688    5.1534 O   0  0  0  0  0  0  0  0  0  0  0  0
   23.0692  -31.5832    4.7376 O   0  0  0  0  0  0  0  0  0  0  0  0
 21 22  2  0
 22 23  1  0
 23 20  1  0
 20  1  1  0
  1  2  2  0
  3  2  1  0
  3  4  1  0
  4  5  1  0
  5 12  1  0
 12 13  1  0
 13 14  2  0
 14 15  1  0
 15 16  2  0
 16 17  1  0
 17 18  1  0
 17 19  2  0
  5  6  1  0
  6  7  1  0
  6  8  1  0
  8  9  1  0
 22 25  1  0
 25 26  2  0
 26 27  1  0
 27 35  1  0
 35 36  2  0
 35 37  1  0
 27 28  2  0
 28 29  1  0
 29 30  1  0
 29 31  2  0
 31 32  1  0
  8  3  1  0
 31 25  1  0
 19 13  1  0
 23 24  1  0
  7 10  1  0
  9 11  1  0
 30 33  1  0
 32 34  1  0
M  CHG 1  35   1
M  CHG 1  37  -1
M  END
> <minimizedAffinity>
-7.93274

> <CNNscore>
0.7640948892

> <CNNaffinity>
6.7504601479

> <CNN_VS>
5.1579918861

> <CNNaffinity_variance>
0.0394191444

$$$$



 37 39  0  0  0  0  0  0  0  0999 V2000
   20.8960  -30.7353    9.2993 C   0  0  0  0  0  0  0  0  0  0  0  0
   19.8875  -30.6479   10.1836 C   0  0  0  0  0  0  0  0  0  0  0  0
   19.9670  -30.6584   11.6836 C   0  0  0  0  0  0  0  0  0  0  0  0
   19.2947  -31.8455   12.1418 O   0  0  0  0  0  0  0  0  0  0  0  0
   19.9291  -32.2938   13.3593 C   0  0  0  0  0  0  0  0  0  0  0  0
   21.0221  -31.2728   13.6977 C   0  0  0  0  0  0  0  0  0  0  0  0
   20.4959  -30.2398   14.5551 O   0  0  0  0  0  0  0  0  0  0  0  0
   21.3540  -30.6904   12.3339 C   0  0  0  0  0  0  0  0  0  0  0  0
   21.9504  -29.4009   12.4739 O   0  0  0  0  0  0  0  0  0  0  0  0
   19.7291  -29.8256   14.1293 H   0  0  0  0  0  0  0  0  0  0  0  0
   21.3639  -28.8280   12.9924 H   0  0  0  0  0  0  0  0  0  0  0  0
   20.6075  -33.9814   13.1033 S   0  0  0  0  0  0  0  0  0  0  0  0
   22.3576  -33.6773   13.2573 C   0  0  0  0  0  0  0  0  0  0  0  0
   23.1623  -33.4011   12.1543 C   0  0  0  0  0  0  0  0  0  0  0  0
   24.5098  -33.1639   12.3670 C   0  0  0  0  0  0  0  0  0  0  0  0
   25.0918  -33.1815   13.5830 N   0  0  0  0  0  0  0  0  0  0  0  0
   24.2847  -33.4285   14.6323 C   0  0  0  0  0  0  0  0  0  0  0  0
   24.8442  -33.4444   15.8510 F   0  0  0  0  0  0  0  0  0  0  0  0
   22.9295  -33.6731   14.5265 C   0  0  0  0  0  0  0  0  0  0  0  0
   20.6908  -30.7065    7.8168 C   0  0  0  0  0  0  0  0  0  0  0  0
   22.5444  -31.7040    5.9484 O   0  0  0  0  0  0  0  0  0  0  0  0
   22.6677  -30.5555    6.3621 C   0  0  0  0  0  0  0  0  0  0  0  0
   21.7858  -29.9741    7.2375 N   0  0  0  0  0  0  0  0  0  0  0  0
   21.9058  -29.0267    7.4768 H   0  0  0  0  0  0  0  0  0  0  0  0
   23.8063  -29.7156    5.8839 C   0  0  0  0  0  0  0  0  0  0  0  0
   24.8649  -30.3761    5.2340 C   0  0  0  0  0  0  0  0  0  0  0  0
   25.9594  -29.6467    4.7447 C   0  0  0  0  0  0  0  0  0  0  0  0
   26.0249  -28.2560    4.9001 C   0  0  0  0  0  0  0  0  0  0  0  0
   24.9844  -27.6135    5.5591 C   0  0  0  0  0  0  0  0  0  0  0  0
   24.9974  -26.2595    5.7728 O   0  0  0  0  0  0  0  0  0  0  0  0
   23.8825  -28.3267    6.0457 C   0  0  0  0  0  0  0  0  0  0  0  0
   22.9036  -27.6097    6.6897 O   0  0  0  0  0  0  0  0  0  0  0  0
   25.7159  -25.7434    5.4639 H   0  0  0  0  0  0  0  0  0  0  0  0
   22.9863  -26.6808    6.7805 H   0  0  0  0  0  0  0  0  0  0  0  0
   27.0545  -30.3480    4.0608 N   0  0  0  0  0  0  0  0  0  0  0  0
   27.5034  -31.3731    4.5876 O   0  0  0  0  0  0  0  0  0  0  0  0
   27.4573  -29.8688    2.9905 O   0  0  0  0  0  0  0  0  0  0  0  0
 21 22  2  0
 22 23  1  0
 23 20  1  0
 20  1  1  0
  1  2  2  0
  3  2  1  0
  3  4  1  0
  4  5  1  0
  5 12  1  0
 12 13  1  0
 13 14  2  0
 14 15  1  0
 15 16  2  0
 16 17  1  0
 17 18  1  0
 17 19  2  0
  5  6  1  0
  6  7  1  0
  6  8  1  0
  8  9  1  0
 22 25  1  0
 25 26  2  0
 26 27  1  0
 27 35  1  0
 35 36  2  0
 35 37  1  0
 27 28  2  0
 28 29  1  0
 29 30  1  0
 29 31  2  0
 31 32  1  0
  8  3  1  0
 31 25  1  0
 19 13  1  0
 23 24  1  0
  7 10  1  0
  9 11  1  0
 30 33  1  0
 32 34  1  0
M  CHG 1  35   1
M  CHG 1  37  -1
M  END
> <minimizedAffinity>
-8.39467

> <CNNscore>
0.7587887645

> <CNNaffinity>
6.5121746063

> <CNN_VS>
4.9413647652

> <CNNaffinity_variance>
0.0556348972

$$$$



 37 39  0  0  0  0  0  0  0  0999 V2000
   20.7147  -29.1141   11.9397 C   0  0  0  0  0  0  0  0  0  0  0  0
   21.5756  -30.0897   12.2772 C   0  0  0  0  0  0  0  0  0  0  0  0
   21.2752  -31.5347   12.5563 C   0  0  0  0  0  0  0  0  0  0  0  0
   22.5019  -32.2689   12.3906 O   0  0  0  0  0  0  0  0  0  0  0  0
   22.4917  -33.3938   13.2963 C   0  0  0  0  0  0  0  0  0  0  0  0
   21.1382  -33.3773   14.0168 C   0  0  0  0  0  0  0  0  0  0  0  0
   20.1750  -34.1702   13.2939 O   0  0  0  0  0  0  0  0  0  0  0  0
   20.7526  -31.9091   13.9471 C   0  0  0  0  0  0  0  0  0  0  0  0
   19.3400  -31.7571   14.0878 O   0  0  0  0  0  0  0  0  0  0  0  0
   20.1071  -33.8449   12.3827 H   0  0  0  0  0  0  0  0  0  0  0  0
   18.8888  -32.2944   13.4180 H   0  0  0  0  0  0  0  0  0  0  0  0
   23.9034  -33.2459   14.4622 S   0  0  0  0  0  0  0  0  0  0  0  0
   25.2660  -33.7270   13.4176 C   0  0  0  0  0  0  0  0  0  0  0  0
   25.6732  -35.0533   13.2936 C   0  0  0  0  0  0  0  0  0  0  0  0
   26.7329  -35.3390   12.4494 C   0  0  0  0  0  0  0  0  0  0  0  0
   27.3953  -34.4071   11.7350 N   0  0  0  0  0  0  0  0  0  0  0  0
   26.9644  -33.1371   11.8576 C   0  0  0  0  0  0  0  0  0  0  0  0
   27.6070  -32.1962   11.1502 F   0  0  0  0  0  0  0  0  0  0  0  0
   25.9155  -32.7498   12.6685 C   0  0  0  0  0  0  0  0  0  0  0  0
   21.1377  -27.7023   11.6777 C   0  0  0  0  0  0  0  0  0  0  0  0
   20.4128  -29.0255    9.3017 O   0  0  0  0  0  0  0  0  0  0  0  0
   21.4669  -28.3990    9.3424 C   0  0  0  0  0  0  0  0  0  0  0  0
   21.8759  -27.6885   10.4425 N   0  0  0  0  0  0  0  0  0  0  0  0
   22.6999  -27.1527   10.3851 H   0  0  0  0  0  0  0  0  0  0  0  0
   22.3539  -28.3651    8.1414 C   0  0  0  0  0  0  0  0  0  0  0  0
   22.4271  -29.5343    7.3622 C   0  0  0  0  0  0  0  0  0  0  0  0
   23.2286  -29.5675    6.2107 C   0  0  0  0  0  0  0  0  0  0  0  0
   23.9748  -28.4479    5.8205 C   0  0  0  0  0  0  0  0  0  0  0  0
   23.9114  -27.3035    6.6053 C   0  0  0  0  0  0  0  0  0  0  0  0
   24.6381  -26.1822    6.2995 O   0  0  0  0  0  0  0  0  0  0  0  0
   23.1103  -27.2528    7.7522 C   0  0  0  0  0  0  0  0  0  0  0  0
   23.1139  -26.0820    8.4708 O   0  0  0  0  0  0  0  0  0  0  0  0
   25.1877  -26.1726    5.5406 H   0  0  0  0  0  0  0  0  0  0  0  0
   23.6319  -25.3566    8.1819 H   0  0  0  0  0  0  0  0  0  0  0  0
   23.2899  -30.7923    5.4015 N   0  0  0  0  0  0  0  0  0  0  0  0
   24.1908  -31.6035    5.6469 O   0  0  0  0  0  0  0  0  0  0  0  0
   22.4268  -30.9389    4.5234 O   0  0  0  0  0  0  0  0  0  0  0  0
 21 22  2  0
 22 23  1  0
 23 20  1  0
 20  1  1  0
  1  2  2  0
  3  2  1  0
  3  4  1  0
  4  5  1  0
  5 12  1  0
 12 13  1  0
 13 14  2  0
 14 15  1  0
 15 16  2  0
 16 17  1  0
 17 18  1  0
 17 19  2  0
  5  6  1  0
  6  7  1  0
  6  8  1  0
  8  9  1  0
 22 25  1  0
 25 26  2  0
 26 27  1  0
 27 35  1  0
 35 36  2  0
 35 37  1  0
 27 28  2  0
 28 29  1  0
 29 30  1  0
 29 31  2  0
 31 32  1  0
  8  3  1  0
 31 25  1  0
 19 13  1  0
 23 24  1  0
  7 10  1  0
  9 11  1  0
 30 33  1  0
 32 34  1  0
M  CHG 1  35   1
M  CHG 1  37  -1
M  END
> <minimizedAffinity>
-7.33530

> <CNNscore>
0.7433050871

> <CNNaffinity>
6.8056511879

> <CNN_VS>
5.0586752892

> <CNNaffinity_variance>
0.1797553301

$$$$



 37 39  0  0  0  0  0  0  0  0999 V2000
   20.9242  -29.4083    9.9748 C   0  0  0  0  0  0  0  0  0  0  0  0
   20.6700  -29.0107   11.2333 C   0  0  0  0  0  0  0  0  0  0  0  0
   20.0160  -29.7915   12.3374 C   0  0  0  0  0  0  0  0  0  0  0  0
   18.6190  -29.4455   12.3399 O   0  0  0  0  0  0  0  0  0  0  0  0
   17.8611  -30.5916   12.7843 C   0  0  0  0  0  0  0  0  0  0  0  0
   18.8724  -31.6893   13.1360 C   0  0  0  0  0  0  0  0  0  0  0  0
   19.2386  -31.6071   14.5283 O   0  0  0  0  0  0  0  0  0  0  0  0
   20.0640  -31.3213   12.2677 C   0  0  0  0  0  0  0  0  0  0  0  0
   21.2632  -31.8813   12.8031 O   0  0  0  0  0  0  0  0  0  0  0  0
   19.5812  -30.7202   14.7207 H   0  0  0  0  0  0  0  0  0  0  0  0
   21.3698  -31.5966   13.7242 H   0  0  0  0  0  0  0  0  0  0  0  0
   16.7070  -31.1087   11.4521 S   0  0  0  0  0  0  0  0  0  0  0  0
   15.1439  -31.0521   12.3080 C   0  0  0  0  0  0  0  0  0  0  0  0
   14.1371  -31.9865   12.0763 C   0  0  0  0  0  0  0  0  0  0  0  0
   12.9592  -31.8752   12.7955 C   0  0  0  0  0  0  0  0  0  0  0  0
   12.7281  -30.9144   13.7125 N   0  0  0  0  0  0  0  0  0  0  0  0
   13.7280  -30.0394   13.9316 C   0  0  0  0  0  0  0  0  0  0  0  0
   13.5193  -29.0795   14.8447 F   0  0  0  0  0  0  0  0  0  0  0  0
   14.9405  -30.0672   13.2706 C   0  0  0  0  0  0  0  0  0  0  0  0
   21.5930  -28.5357    8.9588 C   0  0  0  0  0  0  0  0  0  0  0  0
   20.1724  -30.8677    8.2763 O   0  0  0  0  0  0  0  0  0  0  0  0
   21.0592  -30.4647    7.5301 C   0  0  0  0  0  0  0  0  0  0  0  0
   21.7700  -29.3143    7.7616 N   0  0  0  0  0  0  0  0  0  0  0  0
   22.4213  -29.0122    7.0880 H   0  0  0  0  0  0  0  0  0  0  0  0
   21.3819  -31.2261    6.2865 C   0  0  0  0  0  0  0  0  0  0  0  0
   20.3248  -31.9083    5.6569 C   0  0  0  0  0  0  0  0  0  0  0  0
   20.5534  -32.6305    4.4756 C   0  0  0  0  0  0  0  0  0  0  0  0
   21.8322  -32.6947    3.9072 C   0  0  0  0  0  0  0  0  0  0  0  0
   22.8743  -32.0336    4.5449 C   0  0  0  0  0  0  0  0  0  0  0  0
   24.1560  -32.0788    4.0611 O   0  0  0  0  0  0  0  0  0  0  0  0
   22.6600  -31.3027    5.7195 C   0  0  0  0  0  0  0  0  0  0  0  0
   23.7500  -30.6864    6.2846 O   0  0  0  0  0  0  0  0  0  0  0  0
   24.3444  -32.5567    3.2774 H   0  0  0  0  0  0  0  0  0  0  0  0
   24.5914  -30.7581    5.8787 H   0  0  0  0  0  0  0  0  0  0  0  0
   19.4389  -33.3319    3.8238 N   0  0  0  0  0  0  0  0  0  0  0  0
   18.2933  -33.0993    4.2279 O   0  0  0  0  0  0  0  0  0  0  0  0
   19.7182  -34.1118    2.9012 O   0  0  0  0  0  0  0  0  0  0  0  0
 21 22  2  0
 22 23  1  0
 23 20  1  0
 20  1  1  0
  1  2  2  0
  3  2  1  0
  3  4  1  0
  4  5  1  0
  5 12  1  0
 12 13  1  0
 13 14  2  0
 14 15  1  0
 15 16  2  0
 16 17  1  0
 17 18  1  0
 17 19  2  0
  5  6  1  0
  6  7  1  0
  6  8  1  0
  8  9  1  0
 22 25  1  0
 25 26  2  0
 26 27  1  0
 27 35  1  0
 35 36  2  0
 35 37  1  0
 27 28  2  0
 28 29  1  0
 29 30  1  0
 29 31  2  0
 31 32  1  0
  8  3  1  0
 31 25  1  0
 19 13  1  0
 23 24  1  0
  7 10  1  0
  9 11  1  0
 30 33  1  0
 32 34  1  0
M  CHG 1  35   1
M  CHG 1  37  -1
M  END
> <minimizedAffinity>
-7.41591

> <CNNscore>
0.5941029787

> <CNNaffinity>
6.6709976196

> <CNN_VS>
3.9632594585

> <CNNaffinity_variance>
0.2228137702

$$$$



 37 39  0  0  0  0  0  0  0  0999 V2000
   20.6921  -30.1046   12.3938 C   0  0  0  0  0  0  0  0  0  0  0  0
   20.1079  -31.2922   12.1596 C   0  0  0  0  0  0  0  0  0  0  0  0
   20.4887  -32.6367   12.7106 C   0  0  0  0  0  0  0  0  0  0  0  0
   21.6919  -33.0518   12.0389 O   0  0  0  0  0  0  0  0  0  0  0  0
   22.4730  -33.8572   12.9483 C   0  0  0  0  0  0  0  0  0  0  0  0
   21.6584  -33.9927   14.2403 C   0  0  0  0  0  0  0  0  0  0  0  0
   20.8247  -35.1679   14.1872 O   0  0  0  0  0  0  0  0  0  0  0  0
   20.7918  -32.7448   14.2086 C   0  0  0  0  0  0  0  0  0  0  0  0
   19.6285  -32.9248   15.0164 O   0  0  0  0  0  0  0  0  0  0  0  0
   20.2578  -35.1269   13.4012 H   0  0  0  0  0  0  0  0  0  0  0  0
   19.1523  -33.7181   14.7253 H   0  0  0  0  0  0  0  0  0  0  0  0
   24.0981  -33.0489   13.2308 S   0  0  0  0  0  0  0  0  0  0  0  0
   24.7186  -33.9934   14.6099 C   0  0  0  0  0  0  0  0  0  0  0  0
   25.3453  -35.2262   14.4426 C   0  0  0  0  0  0  0  0  0  0  0  0
   25.8090  -35.8856   15.5684 C   0  0  0  0  0  0  0  0  0  0  0  0
   25.6925  -35.4030   16.8218 N   0  0  0  0  0  0  0  0  0  0  0  0
   25.1031  -34.1990   16.9501 C   0  0  0  0  0  0  0  0  0  0  0  0
   24.9831  -33.6993   18.1888 F   0  0  0  0  0  0  0  0  0  0  0  0
   24.6115  -33.4604   15.8915 C   0  0  0  0  0  0  0  0  0  0  0  0
   20.2139  -28.8221   11.7876 C   0  0  0  0  0  0  0  0  0  0  0  0
   19.9868  -29.8581    9.1805 O   0  0  0  0  0  0  0  0  0  0  0  0
   20.9145  -29.1006    9.4469 C   0  0  0  0  0  0  0  0  0  0  0  0
   21.0758  -28.5148   10.6770 N   0  0  0  0  0  0  0  0  0  0  0  0
   21.8036  -27.8640   10.8037 H   0  0  0  0  0  0  0  0  0  0  0  0
   21.9151  -28.7575    8.3926 C   0  0  0  0  0  0  0  0  0  0  0  0
   22.1859  -29.7366    7.4193 C   0  0  0  0  0  0  0  0  0  0  0  0
   23.1034  -29.4756    6.3900 C   0  0  0  0  0  0  0  0  0  0  0  0
   23.7712  -28.2463    6.3156 C   0  0  0  0  0  0  0  0  0  0  0  0
   23.5120  -27.2917    7.2909 C   0  0  0  0  0  0  0  0  0  0  0  0
   24.1516  -26.0793    7.2967 O   0  0  0  0  0  0  0  0  0  0  0  0
   22.5937  -27.5348    8.3192 C   0  0  0  0  0  0  0  0  0  0  0  0
   22.4051  -26.5359    9.2433 O   0  0  0  0  0  0  0  0  0  0  0  0
   24.7742  -25.8749    6.6270 H   0  0  0  0  0  0  0  0  0  0  0  0
   22.8757  -25.7296    9.1642 H   0  0  0  0  0  0  0  0  0  0  0  0
   23.3711  -30.5039    5.3753 N   0  0  0  0  0  0  0  0  0  0  0  0
   24.5512  -30.7870    5.1357 O   0  0  0  0  0  0  0  0  0  0  0  0
   22.3923  -31.0298    4.8249 O   0  0  0  0  0  0  0  0  0  0  0  0
 21 22  2  0
 22 23  1  0
 23 20  1  0
 20  1  1  0
  1  2  2  0
  3  2  1  0
  3  4  1  0
  4  5  1  0
  5 12  1  0
 12 13  1  0
 13 14  2  0
 14 15  1  0
 15 16  2  0
 16 17  1  0
 17 18  1  0
 17 19  2  0
  5  6  1  0
  6  7  1  0
  6  8  1  0
  8  9  1  0
 22 25  1  0
 25 26  2  0
 26 27  1  0
 27 35  1  0
 35 36  2  0
 35 37  1  0
 27 28  2  0
 28 29  1  0
 29 30  1  0
 29 31  2  0
 31 32  1  0
  8  3  1  0
 31 25  1  0
 19 13  1  0
 23 24  1  0
  7 10  1  0
  9 11  1  0
 30 33  1  0
 32 34  1  0
M  CHG 1  35   1
M  CHG 1  37  -1
M  END
> <minimizedAffinity>
-7.69528

> <CNNscore>
0.5473359823

> <CNNaffinity>
6.4256672859

> <CNN_VS>
3.5169990063

> <CNNaffinity_variance>
0.0180040635

$$$$
