


 21 21  0  0  0  0  0  0  0  0999 V2000
   34.1762   41.9900   -7.0372 C   0  0  0  0  0  0  0  0  0  0  0  0
   35.8035   41.7322   -5.1861 C   0  0  0  0  0  0  0  0  0  0  0  0
   36.3509   40.7715   -5.7198 O   0  0  0  0  0  0  0  0  0  0  0  0
   34.7888   42.4555   -5.7837 N   0  0  0  0  0  0  0  0  0  0  0  0
   34.4731   43.2896   -5.3668 H   0  0  0  0  0  0  0  0  0  0  0  0
   36.2002   42.2229   -3.8206 C   0  0  0  0  0  0  0  0  0  0  0  0
   38.2846   42.9783   -2.8181 O   0  0  0  0  0  0  0  0  0  0  0  0
   37.5854   42.7802   -3.7971 C   0  0  0  0  0  0  0  0  0  0  0  0
   38.0114   43.1464   -5.0235 O   0  0  0  0  0  0  0  0  0  0  0  0
   37.4704   42.9920   -5.7728 H   0  0  0  0  0  0  0  0  0  0  0  0
   34.4756   42.9720   -8.1907 C   0  0  0  0  0  0  0  0  0  0  0  0
   32.9953   43.3382   -9.1971 S   0  0  0  0  0  0  0  0  0  0  0  0
   32.5386   42.1904   -9.7661 H   0  0  0  0  0  0  0  0  0  0  0  0
   34.6768   40.5695   -7.3971 C   0  0  0  0  0  0  0  0  0  0  0  0
   33.5627   39.5647   -7.5791 C   0  0  0  0  0  0  0  0  0  0  0  0
   32.7860   39.5813   -8.7471 C   0  0  0  0  0  0  0  0  0  0  0  0
   31.7614   38.6503   -8.9286 C   0  0  0  0  0  0  0  0  0  0  0  0
   31.5071   37.7008   -7.9420 C   0  0  0  0  0  0  0  0  0  0  0  0
   30.2458   36.5521   -8.1650 Cl  0  0  0  0  0  0  0  0  0  0  0  0
   32.2670   37.6759   -6.7743 C   0  0  0  0  0  0  0  0  0  0  0  0
   33.2920   38.6072   -6.5918 C   0  0  0  0  0  0  0  0  0  0  0  0
  7  8  2  0
  8  9  1  0
  8  6  1  0
  6  2  1  0
  2  3  2  0
  2  4  1  0
  4  1  1  0
  1 11  1  0
 11 12  1  0
  1 14  1  0
 14 15  1  0
 15 16  2  0
 16 17  1  0
 17 18  2  0
 18 19  1  0
 18 20  1  0
 20 21  2  0
 21 15  1  0
  9 10  1  0
  4  5  1  0
 12 13  1  0
M  END
> <minimizedAffinity>
-6.27765

> <CNNscore>
0.6349700093

> <CNNaffinity>
6.0800528526

> <CNN_VS>
3.8606512547

> <CNNaffinity_variance>
0.0513619892

$$$$



 21 21  0  0  0  0  0  0  0  0999 V2000
   39.0842   38.6201   -3.2950 C   0  0  0  0  0  0  0  0  0  0  0  0
   38.9174   36.5225   -1.9861 C   0  0  0  0  0  0  0  0  0  0  0  0
   40.1367   36.3921   -1.9246 O   0  0  0  0  0  0  0  0  0  0  0  0
   38.2996   37.6196   -2.5559 N   0  0  0  0  0  0  0  0  0  0  0  0
   37.3257   37.7324   -2.4662 H   0  0  0  0  0  0  0  0  0  0  0  0
   37.9730   35.4923   -1.4297 C   0  0  0  0  0  0  0  0  0  0  0  0
   36.7471   33.6126   -2.3701 O   0  0  0  0  0  0  0  0  0  0  0  0
   37.3243   34.6786   -2.5008 C   0  0  0  0  0  0  0  0  0  0  0  0
   37.5016   35.2112   -3.7273 O   0  0  0  0  0  0  0  0  0  0  0  0
   37.9458   36.0307   -3.8225 H   0  0  0  0  0  0  0  0  0  0  0  0
   40.0824   37.9343   -4.2532 C   0  0  0  0  0  0  0  0  0  0  0  0
   41.7551   38.6630   -4.1565 S   0  0  0  0  0  0  0  0  0  0  0  0
   41.7004   39.9732   -4.5171 H   0  0  0  0  0  0  0  0  0  0  0  0
   38.1528   39.5743   -4.0822 C   0  0  0  0  0  0  0  0  0  0  0  0
   37.8310   40.8515   -3.3412 C   0  0  0  0  0  0  0  0  0  0  0  0
   37.7982   42.0735   -4.0293 C   0  0  0  0  0  0  0  0  0  0  0  0
   37.4917   43.2571   -3.3551 C   0  0  0  0  0  0  0  0  0  0  0  0
   37.2197   43.2245   -1.9896 C   0  0  0  0  0  0  0  0  0  0  0  0
   36.8405   44.6820   -1.1577 Cl  0  0  0  0  0  0  0  0  0  0  0  0
   37.2541   42.0188   -1.2921 C   0  0  0  0  0  0  0  0  0  0  0  0
   37.5610   40.8342   -1.9658 C   0  0  0  0  0  0  0  0  0  0  0  0
  7  8  2  0
  8  9  1  0
  8  6  1  0
  6  2  1  0
  2  3  2  0
  2  4  1  0
  4  1  1  0
  1 11  1  0
 11 12  1  0
  1 14  1  0
 14 15  1  0
 15 16  2  0
 16 17  1  0
 17 18  2  0
 18 19  1  0
 18 20  1  0
 20 21  2  0
 21 15  1  0
  9 10  1  0
  4  5  1  0
 12 13  1  0
M  END
> <minimizedAffinity>
-4.33187

> <CNNscore>
0.5718474388

> <CNNaffinity>
4.2271771431

> <CNN_VS>
2.4173004627

> <CNNaffinity_variance>
0.2024975568

$$$$



 21 21  0  0  0  0  0  0  0  0999 V2000
   34.8391   40.3715   -7.4353 C   0  0  0  0  0  0  0  0  0  0  0  0
   35.7188   38.6972   -9.0365 C   0  0  0  0  0  0  0  0  0  0  0  0
   35.2690   37.7542   -8.3916 O   0  0  0  0  0  0  0  0  0  0  0  0
   35.4916   40.0196   -8.7055 N   0  0  0  0  0  0  0  0  0  0  0  0
   35.7689   40.7323   -9.3255 H   0  0  0  0  0  0  0  0  0  0  0  0
   36.5594   38.4966  -10.2677 C   0  0  0  0  0  0  0  0  0  0  0  0
   37.3839   36.3325  -11.0142 O   0  0  0  0  0  0  0  0  0  0  0  0
   37.3701   37.2440  -10.2046 C   0  0  0  0  0  0  0  0  0  0  0  0
   38.0838   37.1525   -9.0637 O   0  0  0  0  0  0  0  0  0  0  0  0
   38.0700   37.8557   -8.4446 H   0  0  0  0  0  0  0  0  0  0  0  0
   35.8873   40.7661   -6.3722 C   0  0  0  0  0  0  0  0  0  0  0  0
   35.8489   42.5510   -5.9835 S   0  0  0  0  0  0  0  0  0  0  0  0
   36.1373   43.2653   -7.1043 H   0  0  0  0  0  0  0  0  0  0  0  0
   33.8234   41.5221   -7.6415 C   0  0  0  0  0  0  0  0  0  0  0  0
   33.6158   41.8916   -9.0921 C   0  0  0  0  0  0  0  0  0  0  0  0
   33.8893   43.1957   -9.5307 C   0  0  0  0  0  0  0  0  0  0  0  0
   33.7104   43.5434  -10.8711 C   0  0  0  0  0  0  0  0  0  0  0  0
   33.2546   42.5898  -11.7779 C   0  0  0  0  0  0  0  0  0  0  0  0
   33.0350   43.0165  -13.4302 Cl  0  0  0  0  0  0  0  0  0  0  0  0
   32.9736   41.2921  -11.3553 C   0  0  0  0  0  0  0  0  0  0  0  0
   33.1520   40.9434  -10.0145 C   0  0  0  0  0  0  0  0  0  0  0  0
  7  8  2  0
  8  9  1  0
  8  6  1  0
  6  2  1  0
  2  3  2  0
  2  4  1  0
  4  1  1  0
  1 11  1  0
 11 12  1  0
  1 14  1  0
 14 15  1  0
 15 16  2  0
 16 17  1  0
 17 18  2  0
 18 19  1  0
 18 20  1  0
 20 21  2  0
 21 15  1  0
  9 10  1  0
  4  5  1  0
 12 13  1  0
M  END
> <minimizedAffinity>
-5.10571

> <CNNscore>
0.5675708652

> <CNNaffinity>
5.4006977081

> <CNN_VS>
3.0652787685

> <CNNaffinity_variance>
0.1472451538

$$$$



 21 21  0  0  0  0  0  0  0  0999 V2000
   35.7355   39.0914   -8.9597 C   0  0  0  0  0  0  0  0  0  0  0  0
   34.9372   40.5589   -7.1293 C   0  0  0  0  0  0  0  0  0  0  0  0
   34.8715   39.6291   -6.3303 O   0  0  0  0  0  0  0  0  0  0  0  0
   35.4293   40.4222   -8.4135 N   0  0  0  0  0  0  0  0  0  0  0  0
   35.5762   41.2226   -8.9675 H   0  0  0  0  0  0  0  0  0  0  0  0
   34.4930   41.9518   -6.7752 C   0  0  0  0  0  0  0  0  0  0  0  0
   35.5835   43.0892   -4.9212 O   0  0  0  0  0  0  0  0  0  0  0  0
   35.5641   42.7321   -6.0868 C   0  0  0  0  0  0  0  0  0  0  0  0
   36.5481   43.1063   -6.9302 O   0  0  0  0  0  0  0  0  0  0  0  0
   36.5286   42.8293   -7.8251 H   0  0  0  0  0  0  0  0  0  0  0  0
   35.7834   38.0352   -7.8342 C   0  0  0  0  0  0  0  0  0  0  0  0
   37.2902   37.0046   -7.9083 S   0  0  0  0  0  0  0  0  0  0  0  0
   37.3175   36.3256   -9.0863 H   0  0  0  0  0  0  0  0  0  0  0  0
   34.6945   38.6867  -10.0324 C   0  0  0  0  0  0  0  0  0  0  0  0
   33.4764   37.9975   -9.4621 C   0  0  0  0  0  0  0  0  0  0  0  0
   32.4219   38.7576   -8.9349 C   0  0  0  0  0  0  0  0  0  0  0  0
   31.2881   38.1298   -8.4154 C   0  0  0  0  0  0  0  0  0  0  0  0
   31.2051   36.7396   -8.4180 C   0  0  0  0  0  0  0  0  0  0  0  0
   29.8080   35.9647   -7.7793 Cl  0  0  0  0  0  0  0  0  0  0  0  0
   32.2474   35.9717   -8.9332 C   0  0  0  0  0  0  0  0  0  0  0  0
   33.3822   36.5989   -9.4529 C   0  0  0  0  0  0  0  0  0  0  0  0
  7  8  2  0
  8  9  1  0
  8  6  1  0
  6  2  1  0
  2  3  2  0
  2  4  1  0
  4  1  1  0
  1 11  1  0
 11 12  1  0
  1 14  1  0
 14 15  1  0
 15 16  2  0
 16 17  1  0
 17 18  2  0
 18 19  1  0
 18 20  1  0
 20 21  2  0
 21 15  1  0
  9 10  1  0
  4  5  1  0
 12 13  1  0
M  END
> <minimizedAffinity>
-5.42944

> <CNNscore>
0.3932558298

> <CNNaffinity>
4.8620247841

> <CNN_VS>
1.9120196104

> <CNNaffinity_variance>
0.1257193536

$$$$



 21 21  0  0  0  0  0  0  0  0999 V2000
   32.9509   43.5909  -11.2250 C   0  0  0  0  0  0  0  0  0  0  0  0
   31.0495   42.4594  -12.3411 C   0  0  0  0  0  0  0  0  0  0  0  0
   31.7082   41.4499  -12.5747 O   0  0  0  0  0  0  0  0  0  0  0  0
   31.5332   43.5287  -11.6112 N   0  0  0  0  0  0  0  0  0  0  0  0
   30.9233   44.2552  -11.3475 H   0  0  0  0  0  0  0  0  0  0  0  0
   29.6343   42.6217  -12.8244 C   0  0  0  0  0  0  0  0  0  0  0  0
   29.4194   44.9856  -13.3593 O   0  0  0  0  0  0  0  0  0  0  0  0
   29.4676   43.8171  -13.7038 C   0  0  0  0  0  0  0  0  0  0  0  0
   29.2852   43.4803  -14.9972 O   0  0  0  0  0  0  0  0  0  0  0  0
   29.3232   42.5808  -15.2570 H   0  0  0  0  0  0  0  0  0  0  0  0
   33.6618   44.7620  -11.9376 C   0  0  0  0  0  0  0  0  0  0  0  0
   32.5478   46.1807  -12.2291 S   0  0  0  0  0  0  0  0  0  0  0  0
   31.5227   45.7940  -13.0348 H   0  0  0  0  0  0  0  0  0  0  0  0
   33.0949   43.7293   -9.6894 C   0  0  0  0  0  0  0  0  0  0  0  0
   33.8001   42.5604   -9.0412 C   0  0  0  0  0  0  0  0  0  0  0  0
   33.8758   41.3285   -9.7078 C   0  0  0  0  0  0  0  0  0  0  0  0
   34.5343   40.2459   -9.1213 C   0  0  0  0  0  0  0  0  0  0  0  0
   35.1173   40.3896   -7.8647 C   0  0  0  0  0  0  0  0  0  0  0  0
   35.9302   39.0569   -7.1413 Cl  0  0  0  0  0  0  0  0  0  0  0  0
   35.0451   41.6058   -7.1885 C   0  0  0  0  0  0  0  0  0  0  0  0
   34.3862   42.6892   -7.7744 C   0  0  0  0  0  0  0  0  0  0  0  0
  7  8  2  0
  8  9  1  0
  8  6  1  0
  6  2  1  0
  2  3  2  0
  2  4  1  0
  4  1  1  0
  1 11  1  0
 11 12  1  0
  1 14  1  0
 14 15  1  0
 15 16  2  0
 16 17  1  0
 17 18  2  0
 18 19  1  0
 18 20  1  0
 20 21  2  0
 21 15  1  0
  9 10  1  0
  4  5  1  0
 12 13  1  0
M  END
> <minimizedAffinity>
-5.34582

> <CNNscore>
0.3702591062

> <CNNaffinity>
4.2518639565

> <CNN_VS>
1.5742913485

> <CNNaffinity_variance>
0.8241087794

$$$$



 21 21  0  0  0  0  0  0  0  0999 V2000
   38.5792   39.4509   -3.7260 C   0  0  0  0  0  0  0  0  0  0  0  0
   37.7550   41.7802   -3.9166 C   0  0  0  0  0  0  0  0  0  0  0  0
   38.7467   42.2413   -3.3587 O   0  0  0  0  0  0  0  0  0  0  0  0
   37.6120   40.4405   -4.2244 N   0  0  0  0  0  0  0  0  0  0  0  0
   36.8561   40.1460   -4.7822 H   0  0  0  0  0  0  0  0  0  0  0  0
   36.5955   42.6440   -4.3315 C   0  0  0  0  0  0  0  0  0  0  0  0
   35.5364   41.5481   -6.2282 O   0  0  0  0  0  0  0  0  0  0  0  0
   36.2209   42.4434   -5.7631 C   0  0  0  0  0  0  0  0  0  0  0  0
   36.8003   43.3504   -6.5763 O   0  0  0  0  0  0  0  0  0  0  0  0
   37.3254   44.0366   -6.2140 H   0  0  0  0  0  0  0  0  0  0  0  0
   38.2530   39.0513   -2.2705 C   0  0  0  0  0  0  0  0  0  0  0  0
   38.1927   37.2397   -2.0412 S   0  0  0  0  0  0  0  0  0  0  0  0
   37.2102   36.7163   -2.8223 H   0  0  0  0  0  0  0  0  0  0  0  0
   38.5989   38.1978   -4.6357 C   0  0  0  0  0  0  0  0  0  0  0  0
   39.9780   37.8382   -5.1384 C   0  0  0  0  0  0  0  0  0  0  0  0
   41.1147   38.2611   -4.4336 C   0  0  0  0  0  0  0  0  0  0  0  0
   42.3926   37.9249   -4.8848 C   0  0  0  0  0  0  0  0  0  0  0  0
   42.5394   37.1670   -6.0439 C   0  0  0  0  0  0  0  0  0  0  0  0
   44.1134   36.7507   -6.6003 Cl  0  0  0  0  0  0  0  0  0  0  0  0
   41.4194   36.7447   -6.7572 C   0  0  0  0  0  0  0  0  0  0  0  0
   40.1406   37.0810   -6.3067 C   0  0  0  0  0  0  0  0  0  0  0  0
  7  8  2  0
  8  9  1  0
  8  6  1  0
  6  2  1  0
  2  3  2  0
  2  4  1  0
  4  1  1  0
  1 11  1  0
 11 12  1  0
  1 14  1  0
 14 15  1  0
 15 16  2  0
 16 17  1  0
 17 18  2  0
 18 19  1  0
 18 20  1  0
 20 21  2  0
 21 15  1  0
  9 10  1  0
  4  5  1  0
 12 13  1  0
M  END
> <minimizedAffinity>
-5.83714

> <CNNscore>
0.3526562750

> <CNNaffinity>
4.6759266853

> <CNN_VS>
1.6489949226

> <CNNaffinity_variance>
0.1489863694

$$$$



 21 21  0  0  0  0  0  0  0  0999 V2000
   32.4460   41.5712   -9.7052 C   0  0  0  0  0  0  0  0  0  0  0  0
   34.1732   42.0938   -8.0066 C   0  0  0  0  0  0  0  0  0  0  0  0
   34.9927   41.3360   -8.5182 O   0  0  0  0  0  0  0  0  0  0  0  0
   32.9306   42.3493   -8.5551 N   0  0  0  0  0  0  0  0  0  0  0  0
   32.3648   43.0583   -8.1725 H   0  0  0  0  0  0  0  0  0  0  0  0
   34.4548   42.8312   -6.7262 C   0  0  0  0  0  0  0  0  0  0  0  0
   36.0890   41.8075   -5.2423 O   0  0  0  0  0  0  0  0  0  0  0  0
   35.8136   42.5309   -6.1843 C   0  0  0  0  0  0  0  0  0  0  0  0
   36.7817   43.2294   -6.8125 O   0  0  0  0  0  0  0  0  0  0  0  0
   36.5649   43.7840   -7.5359 H   0  0  0  0  0  0  0  0  0  0  0  0
   32.7578   42.3005  -11.0302 C   0  0  0  0  0  0  0  0  0  0  0  0
   33.3046   44.0237  -10.7661 S   0  0  0  0  0  0  0  0  0  0  0  0
   32.3129   44.7254  -10.1547 H   0  0  0  0  0  0  0  0  0  0  0  0
   33.0720   40.1548   -9.7113 C   0  0  0  0  0  0  0  0  0  0  0  0
   32.1471   39.0835   -9.1814 C   0  0  0  0  0  0  0  0  0  0  0  0
   30.9493   38.7952   -9.8521 C   0  0  0  0  0  0  0  0  0  0  0  0
   30.0936   37.8000   -9.3759 C   0  0  0  0  0  0  0  0  0  0  0  0
   30.4302   37.0910   -8.2254 C   0  0  0  0  0  0  0  0  0  0  0  0
   29.3774   35.8635   -7.6381 Cl  0  0  0  0  0  0  0  0  0  0  0  0
   31.6140   37.3705   -7.5456 C   0  0  0  0  0  0  0  0  0  0  0  0
   32.4706   38.3662   -8.0213 C   0  0  0  0  0  0  0  0  0  0  0  0
  7  8  2  0
  8  9  1  0
  8  6  1  0
  6  2  1  0
  2  3  2  0
  2  4  1  0
  4  1  1  0
  1 11  1  0
 11 12  1  0
  1 14  1  0
 14 15  1  0
 15 16  2  0
 16 17  1  0
 17 18  2  0
 18 19  1  0
 18 20  1  0
 20 21  2  0
 21 15  1  0
  9 10  1  0
  4  5  1  0
 12 13  1  0
M  END
> <minimizedAffinity>
-6.28223

> <CNNscore>
0.3432444036

> <CNNaffinity>
4.7856488228

> <CNN_VS>
1.6426471472

> <CNNaffinity_variance>
0.0938654244

$$$$



 21 21  0  0  0  0  0  0  0  0999 V2000
   39.0398   38.3137   -2.3087 C   0  0  0  0  0  0  0  0  0  0  0  0
   38.9824   35.9454   -1.5813 C   0  0  0  0  0  0  0  0  0  0  0  0
   37.8627   35.7647   -2.0513 O   0  0  0  0  0  0  0  0  0  0  0  0
   39.6849   37.1266   -1.7275 N   0  0  0  0  0  0  0  0  0  0  0  0
   40.6254   37.1738   -1.4402 H   0  0  0  0  0  0  0  0  0  0  0  0
   39.7056   34.8804   -0.8032 C   0  0  0  0  0  0  0  0  0  0  0  0
   42.0660   35.3818   -0.4909 O   0  0  0  0  0  0  0  0  0  0  0  0
   40.9116   35.4105   -0.0998 C   0  0  0  0  0  0  0  0  0  0  0  0
   40.6195   35.8926    1.1257 O   0  0  0  0  0  0  0  0  0  0  0  0
   39.7307   35.9125    1.4217 H   0  0  0  0  0  0  0  0  0  0  0  0
   38.6432   38.0570   -3.7788 C   0  0  0  0  0  0  0  0  0  0  0  0
   40.0937   37.9560   -4.8853 S   0  0  0  0  0  0  0  0  0  0  0  0
   40.7663   39.1378   -4.8599 H   0  0  0  0  0  0  0  0  0  0  0  0
   37.7970   38.7226   -1.4803 C   0  0  0  0  0  0  0  0  0  0  0  0
   37.5724   40.2161   -1.4255 C   0  0  0  0  0  0  0  0  0  0  0  0
   37.0285   40.8026   -0.2733 C   0  0  0  0  0  0  0  0  0  0  0  0
   36.8271   42.1828   -0.2096 C   0  0  0  0  0  0  0  0  0  0  0  0
   37.1660   42.9820   -1.2987 C   0  0  0  0  0  0  0  0  0  0  0  0
   36.9197   44.6830   -1.2212 Cl  0  0  0  0  0  0  0  0  0  0  0  0
   37.7019   42.4124   -2.4519 C   0  0  0  0  0  0  0  0  0  0  0  0
   37.9034   41.0317   -2.5165 C   0  0  0  0  0  0  0  0  0  0  0  0
  7  8  2  0
  8  9  1  0
  8  6  1  0
  6  2  1  0
  2  3  2  0
  2  4  1  0
  4  1  1  0
  1 11  1  0
 11 12  1  0
  1 14  1  0
 14 15  1  0
 15 16  2  0
 16 17  1  0
 17 18  2  0
 18 19  1  0
 18 20  1  0
 20 21  2  0
 21 15  1  0
  9 10  1  0
  4  5  1  0
 12 13  1  0
M  END
> <minimizedAffinity>
-4.69348

> <CNNscore>
0.3391141891

> <CNNaffinity>
4.2363343239

> <CNN_VS>
1.4366010427

> <CNNaffinity_variance>
0.3117837906

$$$$



 21 21  0  0  0  0  0  0  0  0999 V2000
   33.4771   41.5017  -10.1514 C   0  0  0  0  0  0  0  0  0  0  0  0
   34.3748   41.7893   -7.8596 C   0  0  0  0  0  0  0  0  0  0  0  0
   33.5089   42.6055   -7.5572 O   0  0  0  0  0  0  0  0  0  0  0  0
   34.4002   41.1239   -9.0706 N   0  0  0  0  0  0  0  0  0  0  0  0
   35.0419   40.3905   -9.2111 H   0  0  0  0  0  0  0  0  0  0  0  0
   35.4946   41.4260   -6.9233 C   0  0  0  0  0  0  0  0  0  0  0  0
   35.4836   42.9382   -5.0171 O   0  0  0  0  0  0  0  0  0  0  0  0
   35.9383   42.5842   -6.0915 C   0  0  0  0  0  0  0  0  0  0  0  0
   36.9015   43.3099   -6.6958 O   0  0  0  0  0  0  0  0  0  0  0  0
   37.2478   43.0337   -7.5214 H   0  0  0  0  0  0  0  0  0  0  0  0
   32.1386   40.7431  -10.0187 C   0  0  0  0  0  0  0  0  0  0  0  0
   32.2888   38.9791  -10.4706 S   0  0  0  0  0  0  0  0  0  0  0  0
   32.6725   38.8754  -11.7712 H   0  0  0  0  0  0  0  0  0  0  0  0
   33.2305   43.0305  -10.1519 C   0  0  0  0  0  0  0  0  0  0  0  0
   33.2398   43.6433  -11.5333 C   0  0  0  0  0  0  0  0  0  0  0  0
   33.4598   45.0198  -11.6895 C   0  0  0  0  0  0  0  0  0  0  0  0
   33.4805   45.5931  -12.9624 C   0  0  0  0  0  0  0  0  0  0  0  0
   33.2783   44.7931  -14.0843 C   0  0  0  0  0  0  0  0  0  0  0  0
   33.3048   45.4978  -15.6537 Cl  0  0  0  0  0  0  0  0  0  0  0  0
   33.0530   43.4252  -13.9440 C   0  0  0  0  0  0  0  0  0  0  0  0
   33.0319   42.8510  -12.6708 C   0  0  0  0  0  0  0  0  0  0  0  0
  7  8  2  0
  8  9  1  0
  8  6  1  0
  6  2  1  0
  2  3  2  0
  2  4  1  0
  4  1  1  0
  1 11  1  0
 11 12  1  0
  1 14  1  0
 14 15  1  0
 15 16  2  0
 16 17  1  0
 17 18  2  0
 18 19  1  0
 18 20  1  0
 20 21  2  0
 21 15  1  0
  9 10  1  0
  4  5  1  0
 12 13  1  0
M  END
> <minimizedAffinity>
-6.90552

> <CNNscore>
0.3292221427

> <CNNaffinity>
4.7705240250

> <CNN_VS>
1.5705621243

> <CNNaffinity_variance>
0.0577214509

$$$$
