


 24 27  0  0  0  0  0  0  0  0999 V2000
   11.5673   51.8402   59.1325 C   0  0  0  0  0  0  0  0  0  0  0  0
   11.9577   50.6606   58.4143 O   0  0  0  0  0  0  0  0  0  0  0  0
   13.2761   50.6619   58.0395 C   0  0  0  0  0  0  0  0  0  0  0  0
   13.5906   49.8442   56.9534 C   0  0  0  0  0  0  0  0  0  0  0  0
   14.8949   49.8102   56.4733 C   0  0  0  0  0  0  0  0  0  0  0  0
   15.2844   48.8153   55.1240 Cl  0  0  0  0  0  0  0  0  0  0  0  0
   15.8859   50.5899   57.0633 C   0  0  0  0  0  0  0  0  0  0  0  0
   15.5631   51.3881   58.1606 C   0  0  0  0  0  0  0  0  0  0  0  0
   16.5220   52.1850   58.7226 O   0  0  0  0  0  0  0  0  0  0  0  0
   14.2656   51.4110   58.6930 C   0  0  0  0  0  0  0  0  0  0  0  0
   13.9244   52.2409   59.9132 C   0  0  0  0  0  0  0  0  0  0  0  0
   14.6897   51.8618   61.1866 C   0  0  0  0  0  0  0  0  0  0  0  0
   13.9423   50.6576   61.7365 C   0  0  0  0  0  0  0  0  0  0  0  0
   12.4829   50.8806   61.3563 C   0  0  0  0  0  0  0  0  0  0  0  0
   12.4631   52.0540   60.3542 C   0  0  0  0  0  0  0  0  0  0  0  0
   17.3939   52.1820   58.3794 H   0  0  0  0  0  0  0  0  0  0  0  0
    6.0494   51.5668   60.4849 O   0  0  0  0  0  0  0  0  0  0  0  0
    7.3703   51.6077   60.1500 C   0  0  0  0  0  0  0  0  0  0  0  0
    8.1281   52.6671   60.6307 C   0  0  0  0  0  0  0  0  0  0  0  0
    9.4853   52.7494   60.3129 C   0  0  0  0  0  0  0  0  0  0  0  0
   10.0943   51.7706   59.5117 C   0  0  0  0  0  0  0  0  0  0  0  0
    9.3052   50.7084   59.0352 C   0  0  0  0  0  0  0  0  0  0  0  0
    7.9470   50.6251   59.3535 C   0  0  0  0  0  0  0  0  0  0  0  0
    5.6815   52.2398   61.0231 H   0  0  0  0  0  0  0  0  0  0  0  0
 17 18  1  0
 18 19  2  0
 19 20  1  0
 20 21  2  0
  1 21  1  0
  1  2  1  0
  2  3  1  0
  3  4  2  0
  4  5  1  0
  5  6  1  0
  5  7  2  0
  7  8  1  0
  8  9  1  0
  8 10  2  0
 10 11  1  0
 11 12  1  0
 12 13  1  0
 13 14  1  0
 15 14  1  0
 21 22  1  0
 22 23  2  0
 23 18  1  0
 15  1  1  0
 10  3  1  0
 15 11  1  0
 17 24  1  0
  9 16  1  0
M  END
> <minimizedAffinity>
-9.65941

> <CNNscore>
0.8925313950

> <CNNaffinity>
7.9905228615

> <CNN_VS>
7.1317925453

> <CNNaffinity_variance>
0.6651026607

$$$$



 24 27  0  0  0  0  0  0  0  0999 V2000
   11.5581   51.8300   59.0825 C   0  0  0  0  0  0  0  0  0  0  0  0
   11.9610   50.6505   58.3711 O   0  0  0  0  0  0  0  0  0  0  0  0
   13.2843   50.6546   58.0142 C   0  0  0  0  0  0  0  0  0  0  0  0
   13.6154   49.8363   56.9334 C   0  0  0  0  0  0  0  0  0  0  0  0
   14.9261   49.8049   56.4709 C   0  0  0  0  0  0  0  0  0  0  0  0
   15.3362   48.8093   55.1283 Cl  0  0  0  0  0  0  0  0  0  0  0  0
   15.9072   50.5877   57.0733 C   0  0  0  0  0  0  0  0  0  0  0  0
   15.5677   51.3865   58.1652 C   0  0  0  0  0  0  0  0  0  0  0  0
   16.5170   52.1864   58.7390 O   0  0  0  0  0  0  0  0  0  0  0  0
   14.2631   51.4069   58.6800 C   0  0  0  0  0  0  0  0  0  0  0  0
   13.9034   52.2374   59.8944 C   0  0  0  0  0  0  0  0  0  0  0  0
   14.6524   51.8618   61.1785 C   0  0  0  0  0  0  0  0  0  0  0  0
   13.9006   50.6564   61.7197 C   0  0  0  0  0  0  0  0  0  0  0  0
   12.4459   50.8754   61.3196 C   0  0  0  0  0  0  0  0  0  0  0  0
   12.4368   52.0475   60.3159 C   0  0  0  0  0  0  0  0  0  0  0  0
   17.3934   52.1851   58.4076 H   0  0  0  0  0  0  0  0  0  0  0  0
    6.0531   51.5702   60.4893 O   0  0  0  0  0  0  0  0  0  0  0  0
    7.3741   51.6569   60.1634 C   0  0  0  0  0  0  0  0  0  0  0  0
    7.9032   50.6752   59.3364 C   0  0  0  0  0  0  0  0  0  0  0  0
    9.2514   50.7241   58.9766 C   0  0  0  0  0  0  0  0  0  0  0  0
   10.0802   51.7573   59.4418 C   0  0  0  0  0  0  0  0  0  0  0  0
    9.5214   52.7387   60.2799 C   0  0  0  0  0  0  0  0  0  0  0  0
    8.1720   52.6907   60.6398 C   0  0  0  0  0  0  0  0  0  0  0  0
    5.5339   50.8646   60.1568 H   0  0  0  0  0  0  0  0  0  0  0  0
 17 18  1  0
 18 19  2  0
 19 20  1  0
 20 21  2  0
  1 21  1  0
  1  2  1  0
  2  3  1  0
  3  4  2  0
  4  5  1  0
  5  6  1  0
  5  7  2  0
  7  8  1  0
  8  9  1  0
  8 10  2  0
 10 11  1  0
 11 12  1  0
 12 13  1  0
 13 14  1  0
 15 14  1  0
 21 22  1  0
 22 23  2  0
 23 18  1  0
 15  1  1  0
 10  3  1  0
 15 11  1  0
 17 24  1  0
  9 16  1  0
M  END
> <minimizedAffinity>
-9.61504

> <CNNscore>
0.8815726042

> <CNNaffinity>
7.9532952309

> <CNN_VS>
7.0114073753

> <CNNaffinity_variance>
0.6173270345

$$$$



 24 27  0  0  0  0  0  0  0  0999 V2000
   12.0607   52.5805   59.0068 C   0  0  0  0  0  0  0  0  0  0  0  0
   12.3436   51.4328   58.1930 O   0  0  0  0  0  0  0  0  0  0  0  0
   13.6833   51.1761   58.0594 C   0  0  0  0  0  0  0  0  0  0  0  0
   14.0417   50.4375   56.9310 C   0  0  0  0  0  0  0  0  0  0  0  0
   15.3824   50.1619   56.6870 C   0  0  0  0  0  0  0  0  0  0  0  0
   15.8308   49.2648   55.2883 Cl  0  0  0  0  0  0  0  0  0  0  0  0
   16.3682   50.6224   57.5555 C   0  0  0  0  0  0  0  0  0  0  0  0
   15.9955   51.3427   58.6903 C   0  0  0  0  0  0  0  0  0  0  0  0
   16.9598   51.8305   59.5285 O   0  0  0  0  0  0  0  0  0  0  0  0
   14.6485   51.6002   58.9845 C   0  0  0  0  0  0  0  0  0  0  0  0
   14.2394   52.3413   60.2404 C   0  0  0  0  0  0  0  0  0  0  0  0
   14.6354   51.6550   61.5531 C   0  0  0  0  0  0  0  0  0  0  0  0
   13.5640   50.5984   61.7693 C   0  0  0  0  0  0  0  0  0  0  0  0
   12.2889   51.1903   61.1792 C   0  0  0  0  0  0  0  0  0  0  0  0
   12.7119   52.4437   60.3845 C   0  0  0  0  0  0  0  0  0  0  0  0
   17.8645   51.6678   59.3468 H   0  0  0  0  0  0  0  0  0  0  0  0
    6.4384   53.3772   59.3327 O   0  0  0  0  0  0  0  0  0  0  0  0
    7.7823   53.1599   59.2587 C   0  0  0  0  0  0  0  0  0  0  0  0
    8.6167   54.2689   59.2182 C   0  0  0  0  0  0  0  0  0  0  0  0
    9.9999   54.0936   59.1422 C   0  0  0  0  0  0  0  0  0  0  0  0
   10.5582   52.8060   59.1070 C   0  0  0  0  0  0  0  0  0  0  0  0
    9.6921   51.6987   59.1472 C   0  0  0  0  0  0  0  0  0  0  0  0
    8.3078   51.8734   59.2239 C   0  0  0  0  0  0  0  0  0  0  0  0
    6.1060   54.2530   59.3550 H   0  0  0  0  0  0  0  0  0  0  0  0
 17 18  1  0
 18 19  2  0
 19 20  1  0
 20 21  2  0
  1 21  1  0
  1  2  1  0
  2  3  1  0
  3  4  2  0
  4  5  1  0
  5  6  1  0
  5  7  2  0
  7  8  1  0
  8  9  1  0
  8 10  2  0
 10 11  1  0
 11 12  1  0
 12 13  1  0
 13 14  1  0
 15 14  1  0
 21 22  1  0
 22 23  2  0
 23 18  1  0
 15  1  1  0
 10  3  1  0
 15 11  1  0
 17 24  1  0
  9 16  1  0
M  END
> <minimizedAffinity>
-8.24052

> <CNNscore>
0.7830199003

> <CNNaffinity>
7.9424185753

> <CNN_VS>
6.2190718651

> <CNNaffinity_variance>
0.8364696503

$$$$



 24 27  0  0  0  0  0  0  0  0999 V2000
   10.9207   51.2996   60.5584 C   0  0  0  0  0  0  0  0  0  0  0  0
   11.4507   52.3594   61.3682 O   0  0  0  0  0  0  0  0  0  0  0  0
   12.5823   52.0060   62.0561 C   0  0  0  0  0  0  0  0  0  0  0  0
   12.8491   52.7619   63.1984 C   0  0  0  0  0  0  0  0  0  0  0  0
   13.9526   52.4523   63.9854 C   0  0  0  0  0  0  0  0  0  0  0  0
   14.2769   53.3716   65.4038 Cl  0  0  0  0  0  0  0  0  0  0  0  0
   14.7877   51.3914   63.6460 C   0  0  0  0  0  0  0  0  0  0  0  0
   14.5215   50.6559   62.4912 C   0  0  0  0  0  0  0  0  0  0  0  0
   15.3151   49.5892   62.1708 O   0  0  0  0  0  0  0  0  0  0  0  0
   13.4400   50.9711   61.6553 C   0  0  0  0  0  0  0  0  0  0  0  0
   13.1771   50.2036   60.3764 C   0  0  0  0  0  0  0  0  0  0  0  0
   14.3016   50.2767   59.3366 C   0  0  0  0  0  0  0  0  0  0  0  0
   14.0885   51.6098   58.6377 C   0  0  0  0  0  0  0  0  0  0  0  0
   12.5802   51.8316   58.6433 C   0  0  0  0  0  0  0  0  0  0  0  0
   11.9825   50.7712   59.5919 C   0  0  0  0  0  0  0  0  0  0  0  0
   16.0417   49.3647   62.7182 H   0  0  0  0  0  0  0  0  0  0  0  0
    6.2236   53.0702   57.8839 O   0  0  0  0  0  0  0  0  0  0  0  0
    7.3584   52.6712   58.5257 C   0  0  0  0  0  0  0  0  0  0  0  0
    7.5904   51.3075   58.6439 C   0  0  0  0  0  0  0  0  0  0  0  0
    8.7400   50.8534   59.2935 C   0  0  0  0  0  0  0  0  0  0  0  0
    9.6666   51.7619   59.8292 C   0  0  0  0  0  0  0  0  0  0  0  0
    9.4081   53.1381   59.6985 C   0  0  0  0  0  0  0  0  0  0  0  0
    8.2582   53.5932   59.0478 C   0  0  0  0  0  0  0  0  0  0  0  0
    5.6309   52.4314   57.5396 H   0  0  0  0  0  0  0  0  0  0  0  0
 17 18  1  0
 18 19  2  0
 19 20  1  0
 20 21  2  0
  1 21  1  0
  1  2  1  0
  2  3  1  0
  3  4  2  0
  4  5  1  0
  5  6  1  0
  5  7  2  0
  7  8  1  0
  8  9  1  0
  8 10  2  0
 10 11  1  0
 11 12  1  0
 12 13  1  0
 13 14  1  0
 15 14  1  0
 21 22  1  0
 22 23  2  0
 23 18  1  0
 15  1  1  0
 10  3  1  0
 15 11  1  0
 17 24  1  0
  9 16  1  0
M  END
> <minimizedAffinity>
-5.48917

> <CNNscore>
0.6917595863

> <CNNaffinity>
7.3414993286

> <CNN_VS>
5.0785527229

> <CNNaffinity_variance>
0.8257694244

$$$$



 24 27  0  0  0  0  0  0  0  0999 V2000
   11.6398   50.7242   59.5584 C   0  0  0  0  0  0  0  0  0  0  0  0
   12.7299   51.6557   59.6181 O   0  0  0  0  0  0  0  0  0  0  0  0
   13.9579   51.0529   59.7030 C   0  0  0  0  0  0  0  0  0  0  0  0
   14.9720   51.8354   60.2568 C   0  0  0  0  0  0  0  0  0  0  0  0
   16.2430   51.2971   60.4225 C   0  0  0  0  0  0  0  0  0  0  0  0
   17.4930   52.2531   61.1196 Cl  0  0  0  0  0  0  0  0  0  0  0  0
   16.5089   49.9833   60.0465 C   0  0  0  0  0  0  0  0  0  0  0  0
   15.4919   49.2178   59.4761 C   0  0  0  0  0  0  0  0  0  0  0  0
   15.7346   47.9149   59.1384 O   0  0  0  0  0  0  0  0  0  0  0  0
   14.2114   49.7471   59.2582 C   0  0  0  0  0  0  0  0  0  0  0  0
   13.1196   48.9326   58.5960 C   0  0  0  0  0  0  0  0  0  0  0  0
   13.4294   48.4808   57.1639 C   0  0  0  0  0  0  0  0  0  0  0  0
   13.1129   49.6940   56.3043 C   0  0  0  0  0  0  0  0  0  0  0  0
   11.9592   50.3981   57.0097 C   0  0  0  0  0  0  0  0  0  0  0  0
   11.8269   49.7421   58.4002 C   0  0  0  0  0  0  0  0  0  0  0  0
   16.5844   47.5454   59.2773 H   0  0  0  0  0  0  0  0  0  0  0  0
    6.6610   53.4471   59.1725 O   0  0  0  0  0  0  0  0  0  0  0  0
    7.8412   52.7709   59.2656 C   0  0  0  0  0  0  0  0  0  0  0  0
    8.9988   53.5120   59.4617 C   0  0  0  0  0  0  0  0  0  0  0  0
   10.2300   52.8613   59.5630 C   0  0  0  0  0  0  0  0  0  0  0  0
   10.3113   51.4629   59.4695 C   0  0  0  0  0  0  0  0  0  0  0  0
    9.1251   50.7346   59.2688 C   0  0  0  0  0  0  0  0  0  0  0  0
    7.8925   51.3852   59.1680 C   0  0  0  0  0  0  0  0  0  0  0  0
    6.6498   54.3815   59.2411 H   0  0  0  0  0  0  0  0  0  0  0  0
 17 18  1  0
 18 19  2  0
 19 20  1  0
 20 21  2  0
  1 21  1  0
  1  2  1  0
  2  3  1  0
  3  4  2  0
  4  5  1  0
  5  6  1  0
  5  7  2  0
  7  8  1  0
  8  9  1  0
  8 10  2  0
 10 11  1  0
 11 12  1  0
 12 13  1  0
 13 14  1  0
 15 14  1  0
 21 22  1  0
 22 23  2  0
 23 18  1  0
 15  1  1  0
 10  3  1  0
 15 11  1  0
 17 24  1  0
  9 16  1  0
M  END
> <minimizedAffinity>
-6.45813

> <CNNscore>
0.5795518756

> <CNNaffinity>
7.4127421379

> <CNN_VS>
4.2960686684

> <CNNaffinity_variance>
0.6779987216

$$$$



 24 27  0  0  0  0  0  0  0  0999 V2000
   11.1084   50.7059   59.4060 C   0  0  0  0  0  0  0  0  0  0  0  0
   11.9121   51.1441   60.5113 O   0  0  0  0  0  0  0  0  0  0  0  0
   13.0787   50.4383   60.6507 C   0  0  0  0  0  0  0  0  0  0  0  0
   13.6366   50.4504   61.9298 C   0  0  0  0  0  0  0  0  0  0  0  0
   14.7984   49.7290   62.1799 C   0  0  0  0  0  0  0  0  0  0  0  0
   15.4816   49.7280   63.7596 Cl  0  0  0  0  0  0  0  0  0  0  0  0
   15.4041   48.9907   61.1669 C   0  0  0  0  0  0  0  0  0  0  0  0
   14.8476   49.0025   59.8879 C   0  0  0  0  0  0  0  0  0  0  0  0
   15.4151   48.2505   58.8966 O   0  0  0  0  0  0  0  0  0  0  0  0
   13.7000   49.7543   59.5956 C   0  0  0  0  0  0  0  0  0  0  0  0
   13.1217   49.8058   58.1968 C   0  0  0  0  0  0  0  0  0  0  0  0
   14.0578   50.3899   57.1321 C   0  0  0  0  0  0  0  0  0  0  0  0
   13.9269   51.8958   57.2940 C   0  0  0  0  0  0  0  0  0  0  0  0
   12.4882   52.1299   57.7408 C   0  0  0  0  0  0  0  0  0  0  0  0
   11.9087   50.7462   58.1026 C   0  0  0  0  0  0  0  0  0  0  0  0
   16.1820   47.7424   59.0747 H   0  0  0  0  0  0  0  0  0  0  0  0
    6.3231   53.7546   59.0093 O   0  0  0  0  0  0  0  0  0  0  0  0
    7.4557   53.0013   59.1012 C   0  0  0  0  0  0  0  0  0  0  0  0
    8.6319   53.6418   59.4673 C   0  0  0  0  0  0  0  0  0  0  0  0
    9.8161   52.9096   59.5740 C   0  0  0  0  0  0  0  0  0  0  0  0
    9.8312   51.5298   59.3156 C   0  0  0  0  0  0  0  0  0  0  0  0
    8.6274   50.9043   58.9445 C   0  0  0  0  0  0  0  0  0  0  0  0
    7.4419   51.6364   58.8382 C   0  0  0  0  0  0  0  0  0  0  0  0
    6.3554   54.6732   59.1911 H   0  0  0  0  0  0  0  0  0  0  0  0
 17 18  1  0
 18 19  2  0
 19 20  1  0
 20 21  2  0
  1 21  1  0
  1  2  1  0
  2  3  1  0
  3  4  2  0
  4  5  1  0
  5  6  1  0
  5  7  2  0
  7  8  1  0
  8  9  1  0
  8 10  2  0
 10 11  1  0
 11 12  1  0
 12 13  1  0
 13 14  1  0
 15 14  1  0
 21 22  1  0
 22 23  2  0
 23 18  1  0
 15  1  1  0
 10  3  1  0
 15 11  1  0
 17 24  1  0
  9 16  1  0
M  END
> <minimizedAffinity>
-6.90862

> <CNNscore>
0.4968616366

> <CNNaffinity>
7.2715835571

> <CNN_VS>
3.6129708290

> <CNNaffinity_variance>
0.5746285319

$$$$



 24 27  0  0  0  0  0  0  0  0999 V2000
   15.7850   52.8782   69.5113 C   0  0  0  0  0  0  0  0  0  0  0  0
   16.8435   53.2919   68.6350 O   0  0  0  0  0  0  0  0  0  0  0  0
   16.6025   54.4917   68.0177 C   0  0  0  0  0  0  0  0  0  0  0  0
   17.2980   54.7025   66.8264 C   0  0  0  0  0  0  0  0  0  0  0  0
   17.0886   55.8729   66.1059 C   0  0  0  0  0  0  0  0  0  0  0  0
   17.9322   56.1304   64.6280 Cl  0  0  0  0  0  0  0  0  0  0  0  0
   16.1867   56.8311   66.5603 C   0  0  0  0  0  0  0  0  0  0  0  0
   15.5124   56.6175   67.7625 C   0  0  0  0  0  0  0  0  0  0  0  0
   14.5973   57.5363   68.1971 O   0  0  0  0  0  0  0  0  0  0  0  0
   15.7343   55.4659   68.5320 C   0  0  0  0  0  0  0  0  0  0  0  0
   15.0383   55.2544   69.8604 C   0  0  0  0  0  0  0  0  0  0  0  0
   15.3508   56.3094   70.9283 C   0  0  0  0  0  0  0  0  0  0  0  0
   16.6901   55.8815   71.5066 C   0  0  0  0  0  0  0  0  0  0  0  0
   16.6940   54.3588   71.4312 C   0  0  0  0  0  0  0  0  0  0  0  0
   15.4892   53.9581   70.5540 C   0  0  0  0  0  0  0  0  0  0  0  0
   14.4368   58.3112   67.6953 H   0  0  0  0  0  0  0  0  0  0  0  0
   17.0958   47.9017   71.9337 O   0  0  0  0  0  0  0  0  0  0  0  0
   16.7894   49.1073   71.3755 C   0  0  0  0  0  0  0  0  0  0  0  0
   16.1178   49.1067   70.1603 C   0  0  0  0  0  0  0  0  0  0  0  0
   15.7838   50.3183   69.5520 C   0  0  0  0  0  0  0  0  0  0  0  0
   16.1191   51.5401   70.1565 C   0  0  0  0  0  0  0  0  0  0  0  0
   16.8011   51.5145   71.3863 C   0  0  0  0  0  0  0  0  0  0  0  0
   17.1351   50.3022   71.9959 C   0  0  0  0  0  0  0  0  0  0  0  0
   16.8531   47.1085   71.4980 H   0  0  0  0  0  0  0  0  0  0  0  0
 17 18  1  0
 18 19  2  0
 19 20  1  0
 20 21  2  0
  1 21  1  0
  1  2  1  0
  2  3  1  0
  3  4  2  0
  4  5  1  0
  5  6  1  0
  5  7  2  0
  7  8  1  0
  8  9  1  0
  8 10  2  0
 10 11  1  0
 11 12  1  0
 12 13  1  0
 13 14  1  0
 15 14  1  0
 21 22  1  0
 22 23  2  0
 23 18  1  0
 15  1  1  0
 10  3  1  0
 15 11  1  0
 17 24  1  0
  9 16  1  0
M  END
> <minimizedAffinity>
-6.63403

> <CNNscore>
0.3469099104

> <CNNaffinity>
5.4632296562

> <CNN_VS>
1.8952485323

> <CNNaffinity_variance>
0.0031484850

$$$$



 24 27  0  0  0  0  0  0  0  0999 V2000
    0.6930   52.4017   61.6609 C   0  0  0  0  0  0  0  0  0  0  0  0
    1.9266   52.2806   62.3843 O   0  0  0  0  0  0  0  0  0  0  0  0
    1.8104   51.5568   63.5425 C   0  0  0  0  0  0  0  0  0  0  0  0
    2.7823   51.8153   64.5100 C   0  0  0  0  0  0  0  0  0  0  0  0
    2.7244   51.1601   65.7348 C   0  0  0  0  0  0  0  0  0  0  0  0
    3.9116   51.4872   66.9372 Cl  0  0  0  0  0  0  0  0  0  0  0  0
    1.7019   50.2546   66.0046 C   0  0  0  0  0  0  0  0  0  0  0  0
    0.7478   49.9903   65.0221 C   0  0  0  0  0  0  0  0  0  0  0  0
   -0.2808   49.1305   65.2923 O   0  0  0  0  0  0  0  0  0  0  0  0
    0.8044   50.6045   63.7623 C   0  0  0  0  0  0  0  0  0  0  0  0
   -0.2032   50.2833   62.6782 C   0  0  0  0  0  0  0  0  0  0  0  0
   -0.2155   48.8198   62.2211 C   0  0  0  0  0  0  0  0  0  0  0  0
    0.9432   48.7162   61.2425 C   0  0  0  0  0  0  0  0  0  0  0  0
    1.0211   50.0792   60.5640 C   0  0  0  0  0  0  0  0  0  0  0  0
    0.0992   51.0231   61.3645 C   0  0  0  0  0  0  0  0  0  0  0  0
   -0.3338   48.7116   66.1287 H   0  0  0  0  0  0  0  0  0  0  0  0
    1.4508   55.5097   56.9580 O   0  0  0  0  0  0  0  0  0  0  0  0
    1.2902   54.7772   58.0966 C   0  0  0  0  0  0  0  0  0  0  0  0
    0.3762   53.7324   58.0713 C   0  0  0  0  0  0  0  0  0  0  0  0
    0.1792   52.9554   59.2147 C   0  0  0  0  0  0  0  0  0  0  0  0
    0.8968   53.2186   60.3922 C   0  0  0  0  0  0  0  0  0  0  0  0
    1.8154   54.2835   60.3934 C   0  0  0  0  0  0  0  0  0  0  0  0
    2.0135   55.0610   59.2493 C   0  0  0  0  0  0  0  0  0  0  0  0
    0.9527   55.3007   56.1923 H   0  0  0  0  0  0  0  0  0  0  0  0
 17 18  1  0
 18 19  2  0
 19 20  1  0
 20 21  2  0
  1 21  1  0
  1  2  1  0
  2  3  1  0
  3  4  2  0
  4  5  1  0
  5  6  1  0
  5  7  2  0
  7  8  1  0
  8  9  1  0
  8 10  2  0
 10 11  1  0
 11 12  1  0
 12 13  1  0
 13 14  1  0
 15 14  1  0
 21 22  1  0
 22 23  2  0
 23 18  1  0
 15  1  1  0
 10  3  1  0
 15 11  1  0
 17 24  1  0
  9 16  1  0
M  END
> <minimizedAffinity>
10.26307

> <CNNscore>
0.3344899416

> <CNNaffinity>
5.3805747032

> <CNN_VS>
1.7997480631

> <CNNaffinity_variance>
0.1318020970

$$$$



 24 27  0  0  0  0  0  0  0  0999 V2000
   22.0523   41.6220   53.6208 C   0  0  0  0  0  0  0  0  0  0  0  0
   22.4200   40.7137   54.6693 O   0  0  0  0  0  0  0  0  0  0  0  0
   22.6029   41.3262   55.8818 C   0  0  0  0  0  0  0  0  0  0  0  0
   23.4189   40.6400   56.7821 C   0  0  0  0  0  0  0  0  0  0  0  0
   23.6970   41.2011   58.0233 C   0  0  0  0  0  0  0  0  0  0  0  0
   24.7156   40.3660   59.1311 Cl  0  0  0  0  0  0  0  0  0  0  0  0
   23.1735   42.4434   58.3709 C   0  0  0  0  0  0  0  0  0  0  0  0
   22.3434   43.1103   57.4699 C   0  0  0  0  0  0  0  0  0  0  0  0
   21.8552   44.3475   57.7884 O   0  0  0  0  0  0  0  0  0  0  0  0
   22.0114   42.5501   56.2275 C   0  0  0  0  0  0  0  0  0  0  0  0
   21.0727   43.2511   55.2677 C   0  0  0  0  0  0  0  0  0  0  0  0
   19.6546   43.4811   55.8036 C   0  0  0  0  0  0  0  0  0  0  0  0
   18.9489   42.1504   55.5982 C   0  0  0  0  0  0  0  0  0  0  0  0
   19.5643   41.5581   54.3354 C   0  0  0  0  0  0  0  0  0  0  0  0
   20.8027   42.4173   54.0041 C   0  0  0  0  0  0  0  0  0  0  0  0
   22.0672   44.7364   58.6141 H   0  0  0  0  0  0  0  0  0  0  0  0
   21.4381   38.8123   48.7137 O   0  0  0  0  0  0  0  0  0  0  0  0
   21.5955   39.4634   49.9011 C   0  0  0  0  0  0  0  0  0  0  0  0
   21.0462   40.7329   50.0217 C   0  0  0  0  0  0  0  0  0  0  0  0
   21.1830   41.4368   51.2198 C   0  0  0  0  0  0  0  0  0  0  0  0
   21.8704   40.8743   52.3069 C   0  0  0  0  0  0  0  0  0  0  0  0
   22.4195   39.5879   52.1595 C   0  0  0  0  0  0  0  0  0  0  0  0
   22.2824   38.8827   50.9610 C   0  0  0  0  0  0  0  0  0  0  0  0
   20.9713   39.2227   48.0126 H   0  0  0  0  0  0  0  0  0  0  0  0
 17 18  1  0
 18 19  2  0
 19 20  1  0
 20 21  2  0
  1 21  1  0
  1  2  1  0
  2  3  1  0
  3  4  2  0
  4  5  1  0
  5  6  1  0
  5  7  2  0
  7  8  1  0
  8  9  1  0
  8 10  2  0
 10 11  1  0
 11 12  1  0
 12 13  1  0
 13 14  1  0
 15 14  1  0
 21 22  1  0
 22 23  2  0
 23 18  1  0
 15  1  1  0
 10  3  1  0
 15 11  1  0
 17 24  1  0
  9 16  1  0
M  END
> <minimizedAffinity>
8.92383

> <CNNscore>
0.3222800493

> <CNNaffinity>
4.2619695663

> <CNN_VS>
1.3735477924

> <CNNaffinity_variance>
0.2149074525

$$$$
