


 21 22  0  0  0  0  0  0  0  0999 V2000
   12.3259    8.2764    3.7658 C   0  0  0  0  0  0  0  0  0  0  0  0
   12.1099    9.8031    3.7942 C   0  0  0  0  0  0  0  0  0  0  0  0
   10.7351   10.1702    4.3520 C   0  0  0  0  0  0  0  0  0  0  0  0
    9.6166    9.4862    3.5598 C   0  0  0  0  0  0  0  0  0  0  0  0
    9.8127    7.9675    3.5229 C   0  0  0  0  0  0  0  0  0  0  0  0
   11.1914    7.5932    2.9759 C   0  0  0  0  0  0  0  0  0  0  0  0
   14.5772    7.1979    4.3299 C   0  0  0  0  0  0  0  0  0  0  0  0
   13.7477    7.9105    3.2596 C   0  0  0  0  0  0  0  0  0  0  0  0
   13.7204    7.0789    2.0563 N   0  0  0  0  0  0  0  0  0  0  0  0
   13.2835    6.1828    2.2722 H   0  0  0  0  0  0  0  0  0  0  0  0
   14.6738    6.9223    1.7295 H   0  0  0  0  0  0  0  0  0  0  0  0
    8.2321    9.8732    4.0840 C   0  0  0  0  0  0  0  0  0  0  0  0
    8.1274   10.7067    4.9798 O   0  0  0  0  0  0  0  0  0  0  0  0
    7.1858    9.2080    3.4700 N   0  0  0  0  0  0  0  0  0  0  0  0
    7.4313    8.5639    2.7671 H   0  0  0  0  0  0  0  0  0  0  0  0
    5.8060    9.3472    3.7361 C   0  0  0  0  0  0  0  0  0  0  0  0
    4.8018    9.0824    2.8109 C   0  0  0  0  0  0  0  0  0  0  0  0
    3.4823    9.2594    3.1983 C   0  0  0  0  0  0  0  0  0  0  0  0
    3.1050    9.6756    4.4256 N   0  0  0  0  0  0  0  0  0  0  0  0
    4.0941    9.9255    5.3054 C   0  0  0  0  0  0  0  0  0  0  0  0
    5.4409    9.7785    5.0126 C   0  0  0  0  0  0  0  0  0  0  0  0
  8  7  1  0
  8  9  1  0
  8  1  1  0
  1  2  1  0
  2  3  1  0
  3  4  1  0
  4 12  1  0
 12 13  2  0
 12 14  1  0
 14 16  1  0
 16 17  2  0
 17 18  1  0
 18 19  2  0
 19 20  1  0
 20 21  2  0
  4  5  1  0
  5  6  1  0
  6  1  1  0
 21 16  1  0
  9 10  1  0
  9 11  1  0
 14 15  1  0
M  END
> <minimizedAffinity>
-8.01931

> <CNNscore>
0.9291528463

> <CNNaffinity>
5.9904785156

> <CNN_VS>
5.5660700798

> <CNNaffinity_variance>
0.0746788234

$$$$



 21 22  0  0  0  0  0  0  0  0999 V2000
   12.1360    8.0736    2.0534 C   0  0  0  0  0  0  0  0  0  0  0  0
   11.4145    7.7933    3.3873 C   0  0  0  0  0  0  0  0  0  0  0  0
    9.9055    8.0061    3.2704 C   0  0  0  0  0  0  0  0  0  0  0  0
    9.5833    9.4191    2.7745 C   0  0  0  0  0  0  0  0  0  0  0  0
   10.2895    9.7151    1.4479 C   0  0  0  0  0  0  0  0  0  0  0  0
   11.7994    9.4933    1.5546 C   0  0  0  0  0  0  0  0  0  0  0  0
   14.0117    6.9680    3.3985 C   0  0  0  0  0  0  0  0  0  0  0  0
   13.6598    7.7935    2.1590 C   0  0  0  0  0  0  0  0  0  0  0  0
   14.1908    7.1147    0.9769 N   0  0  0  0  0  0  0  0  0  0  0  0
   13.7629    6.1925    0.8935 H   0  0  0  0  0  0  0  0  0  0  0  0
   15.2016    7.0134    1.0683 H   0  0  0  0  0  0  0  0  0  0  0  0
    8.0746    9.6593    2.6872 C   0  0  0  0  0  0  0  0  0  0  0  0
    7.5924   10.1647    1.6771 O   0  0  0  0  0  0  0  0  0  0  0  0
    7.3712    9.2693    3.8129 N   0  0  0  0  0  0  0  0  0  0  0  0
    7.9017    8.8806    4.5455 H   0  0  0  0  0  0  0  0  0  0  0  0
    5.9794    9.3650    4.0313 C   0  0  0  0  0  0  0  0  0  0  0  0
    5.4043    9.8712    5.1922 C   0  0  0  0  0  0  0  0  0  0  0  0
    4.0212    9.9104    5.2821 C   0  0  0  0  0  0  0  0  0  0  0  0
    3.1888    9.4858    4.3082 N   0  0  0  0  0  0  0  0  0  0  0  0
    3.7677    9.0001    3.1929 C   0  0  0  0  0  0  0  0  0  0  0  0
    5.1392    8.9200    3.0092 C   0  0  0  0  0  0  0  0  0  0  0  0
  8  7  1  0
  8  9  1  0
  8  1  1  0
  1  2  1  0
  2  3  1  0
  3  4  1  0
  4 12  1  0
 12 13  2  0
 12 14  1  0
 14 16  1  0
 16 17  2  0
 17 18  1  0
 18 19  2  0
 19 20  1  0
 20 21  2  0
  4  5  1  0
  5  6  1  0
  6  1  1  0
 21 16  1  0
  9 10  1  0
  9 11  1  0
 14 15  1  0
M  END
> <minimizedAffinity>
-8.23788

> <CNNscore>
0.9164794683

> <CNNaffinity>
6.2042860985

> <CNN_VS>
5.6861009598

> <CNNaffinity_variance>
0.0008472690

$$$$



 21 22  0  0  0  0  0  0  0  0999 V2000
   12.2736    9.8778    1.1161 C   0  0  0  0  0  0  0  0  0  0  0  0
   12.0590   10.0574    2.6327 C   0  0  0  0  0  0  0  0  0  0  0  0
   10.7839    9.3632    3.1103 C   0  0  0  0  0  0  0  0  0  0  0  0
    9.5602    9.8601    2.3343 C   0  0  0  0  0  0  0  0  0  0  0  0
    9.7538    9.6869    0.8247 C   0  0  0  0  0  0  0  0  0  0  0  0
   11.0345   10.3700    0.3415 C   0  0  0  0  0  0  0  0  0  0  0  0
   14.8122    9.6283    0.9083 C   0  0  0  0  0  0  0  0  0  0  0  0
   13.6030   10.5289    0.6468 C   0  0  0  0  0  0  0  0  0  0  0  0
   13.5840   10.8886   -0.7711 N   0  0  0  0  0  0  0  0  0  0  0  0
   13.4959   10.0434   -1.3352 H   0  0  0  0  0  0  0  0  0  0  0  0
   14.4509   11.3692   -1.0117 H   0  0  0  0  0  0  0  0  0  0  0  0
    8.2703    9.2003    2.8265 C   0  0  0  0  0  0  0  0  0  0  0  0
    8.2371    7.9877    3.0179 O   0  0  0  0  0  0  0  0  0  0  0  0
    7.2171   10.0786    3.0098 N   0  0  0  0  0  0  0  0  0  0  0  0
    7.3993   11.0254    2.8107 H   0  0  0  0  0  0  0  0  0  0  0  0
    5.9107    9.7724    3.4498 C   0  0  0  0  0  0  0  0  0  0  0  0
    4.9459    9.1548    2.6609 C   0  0  0  0  0  0  0  0  0  0  0  0
    3.6981    8.9093    3.2134 C   0  0  0  0  0  0  0  0  0  0  0  0
    3.3552    9.2332    4.4780 N   0  0  0  0  0  0  0  0  0  0  0  0
    4.3053    9.8298    5.2238 C   0  0  0  0  0  0  0  0  0  0  0  0
    5.5802   10.1166    4.7616 C   0  0  0  0  0  0  0  0  0  0  0  0
  8  7  1  0
  8  9  1  0
  8  1  1  0
  1  2  1  0
  2  3  1  0
  3  4  1  0
  4 12  1  0
 12 13  2  0
 12 14  1  0
 14 16  1  0
 16 17  2  0
 17 18  1  0
 18 19  2  0
 19 20  1  0
 20 21  2  0
  4  5  1  0
  5  6  1  0
  6  1  1  0
 21 16  1  0
  9 10  1  0
  9 11  1  0
 14 15  1  0
M  END
> <minimizedAffinity>
-7.85075

> <CNNscore>
0.7682060599

> <CNNaffinity>
6.1883368492

> <CNN_VS>
4.7539176941

> <CNNaffinity_variance>
0.0621630885

$$$$



 21 22  0  0  0  0  0  0  0  0999 V2000
   17.9122   -0.1553   -0.2778 C   0  0  0  0  0  0  0  0  0  0  0  0
   18.6586   -1.5011   -0.3778 C   0  0  0  0  0  0  0  0  0  0  0  0
   19.1317   -1.7817   -1.8038 C   0  0  0  0  0  0  0  0  0  0  0  0
   17.9616   -1.7441   -2.7917 C   0  0  0  0  0  0  0  0  0  0  0  0
   17.2092   -0.4124   -2.7089 C   0  0  0  0  0  0  0  0  0  0  0  0
   16.7424   -0.1199   -1.2818 C   0  0  0  0  0  0  0  0  0  0  0  0
   17.7370   -1.0274    2.1219 C   0  0  0  0  0  0  0  0  0  0  0  0
   17.4905    0.1563    1.1840 C   0  0  0  0  0  0  0  0  0  0  0  0
   18.1681    1.3338    1.7267 N   0  0  0  0  0  0  0  0  0  0  0  0
   19.1710    1.1553    1.7786 H   0  0  0  0  0  0  0  0  0  0  0  0
   17.8092    1.5323    2.6606 H   0  0  0  0  0  0  0  0  0  0  0  0
   18.4142   -2.0593   -4.2190 C   0  0  0  0  0  0  0  0  0  0  0  0
   19.1664   -3.0075   -4.4276 O   0  0  0  0  0  0  0  0  0  0  0  0
   17.9107   -1.1984   -5.1779 N   0  0  0  0  0  0  0  0  0  0  0  0
   17.3194   -0.4816   -4.8528 H   0  0  0  0  0  0  0  0  0  0  0  0
   18.1479   -1.2303   -6.5696 C   0  0  0  0  0  0  0  0  0  0  0  0
   17.8030   -2.2946   -7.3961 C   0  0  0  0  0  0  0  0  0  0  0  0
   18.0917   -2.2015   -8.7491 C   0  0  0  0  0  0  0  0  0  0  0  0
   18.6908   -1.1362   -9.3219 N   0  0  0  0  0  0  0  0  0  0  0  0
   19.0152   -0.1173   -8.5025 C   0  0  0  0  0  0  0  0  0  0  0  0
   18.7681   -0.1168   -7.1387 C   0  0  0  0  0  0  0  0  0  0  0  0
  8  7  1  0
  8  9  1  0
  8  1  1  0
  1  2  1  0
  2  3  1  0
  3  4  1  0
  4 12  1  0
 12 13  2  0
 12 14  1  0
 14 16  1  0
 16 17  2  0
 17 18  1  0
 18 19  2  0
 19 20  1  0
 20 21  2  0
  4  5  1  0
  5  6  1  0
  6  1  1  0
 21 16  1  0
  9 10  1  0
  9 11  1  0
 14 15  1  0
M  END
> <minimizedAffinity>
33.25068

> <CNNscore>
0.6749647260

> <CNNaffinity>
5.1559047699

> <CNN_VS>
3.4800539017

> <CNNaffinity_variance>
0.3643589020

$$$$



 21 22  0  0  0  0  0  0  0  0999 V2000
   19.2279   11.1403    4.8503 C   0  0  0  0  0  0  0  0  0  0  0  0
   17.8785   10.4665    4.5286 C   0  0  0  0  0  0  0  0  0  0  0  0
   17.9399    9.6696    3.2259 C   0  0  0  0  0  0  0  0  0  0  0  0
   18.3885   10.5533    2.0579 C   0  0  0  0  0  0  0  0  0  0  0  0
   19.7298   11.2294    2.3582 C   0  0  0  0  0  0  0  0  0  0  0  0
   19.6788   12.0200    3.6668 C   0  0  0  0  0  0  0  0  0  0  0  0
   20.2943   11.4494    7.1562 C   0  0  0  0  0  0  0  0  0  0  0  0
   19.1800   11.8949    6.2068 C   0  0  0  0  0  0  0  0  0  0  0  0
   19.2532   13.3471    6.0462 N   0  0  0  0  0  0  0  0  0  0  0  0
   20.1546   13.5994    5.6409 H   0  0  0  0  0  0  0  0  0  0  0  0
   19.1524   13.7954    6.9569 H   0  0  0  0  0  0  0  0  0  0  0  0
   18.4197    9.7776    0.7393 C   0  0  0  0  0  0  0  0  0  0  0  0
   19.4452    9.1964    0.3948 O   0  0  0  0  0  0  0  0  0  0  0  0
   17.2327    9.8158    0.0295 N   0  0  0  0  0  0  0  0  0  0  0  0
   16.4973   10.3279    0.4372 H   0  0  0  0  0  0  0  0  0  0  0  0
   16.9553    9.2043   -1.2127 C   0  0  0  0  0  0  0  0  0  0  0  0
   16.2747    7.9997   -1.3552 C   0  0  0  0  0  0  0  0  0  0  0  0
   16.0667    7.5050   -2.6337 C   0  0  0  0  0  0  0  0  0  0  0  0
   16.4852    8.1213   -3.7592 N   0  0  0  0  0  0  0  0  0  0  0  0
   17.1415    9.2865   -3.5972 C   0  0  0  0  0  0  0  0  0  0  0  0
   17.3978    9.8612   -2.3622 C   0  0  0  0  0  0  0  0  0  0  0  0
  8  7  1  0
  8  9  1  0
  8  1  1  0
  1  2  1  0
  2  3  1  0
  3  4  1  0
  4 12  1  0
 12 13  2  0
 12 14  1  0
 14 16  1  0
 16 17  2  0
 17 18  1  0
 18 19  2  0
 19 20  1  0
 20 21  2  0
  4  5  1  0
  5  6  1  0
  6  1  1  0
 21 16  1  0
  9 10  1  0
  9 11  1  0
 14 15  1  0
M  END
> <minimizedAffinity>
-1.27149

> <CNNscore>
0.5898581743

> <CNNaffinity>
4.0864357948

> <CNN_VS>
2.4104175568

> <CNNaffinity_variance>
0.3008729517

$$$$



 21 22  0  0  0  0  0  0  0  0999 V2000
   13.9841    8.3012    4.2079 C   0  0  0  0  0  0  0  0  0  0  0  0
   13.1410    7.2313    3.4848 C   0  0  0  0  0  0  0  0  0  0  0  0
   11.8417    7.8142    2.9297 C   0  0  0  0  0  0  0  0  0  0  0  0
   11.0206    8.4856    4.0348 C   0  0  0  0  0  0  0  0  0  0  0  0
   11.8413    9.5544    4.7631 C   0  0  0  0  0  0  0  0  0  0  0  0
   13.1487    8.9803    5.3118 C   0  0  0  0  0  0  0  0  0  0  0  0
   15.7944    6.5220    3.8806 C   0  0  0  0  0  0  0  0  0  0  0  0
   15.3325    7.7197    4.7134 C   0  0  0  0  0  0  0  0  0  0  0  0
   16.4028    8.7168    4.7351 N   0  0  0  0  0  0  0  0  0  0  0  0
   16.5957    9.0293    3.7835 H   0  0  0  0  0  0  0  0  0  0  0  0
   17.2452    8.3027    5.1343 H   0  0  0  0  0  0  0  0  0  0  0  0
    9.6991    9.0422    3.5007 C   0  0  0  0  0  0  0  0  0  0  0  0
    9.6755    9.6410    2.4287 O   0  0  0  0  0  0  0  0  0  0  0  0
    8.6108    8.8089    4.3225 N   0  0  0  0  0  0  0  0  0  0  0  0
    8.7909    8.3144    5.1545 H   0  0  0  0  0  0  0  0  0  0  0  0
    7.2713    9.1988    4.1044 C   0  0  0  0  0  0  0  0  0  0  0  0
    6.5152    9.9352    5.0103 C   0  0  0  0  0  0  0  0  0  0  0  0
    5.2080   10.2540    4.6753 C   0  0  0  0  0  0  0  0  0  0  0  0
    4.6157    9.8932    3.5173 N   0  0  0  0  0  0  0  0  0  0  0  0
    5.3669    9.1811    2.6551 C   0  0  0  0  0  0  0  0  0  0  0  0
    6.6810    8.8143    2.8993 C   0  0  0  0  0  0  0  0  0  0  0  0
  8  7  1  0
  8  9  1  0
  8  1  1  0
  1  2  1  0
  2  3  1  0
  3  4  1  0
  4 12  1  0
 12 13  2  0
 12 14  1  0
 14 16  1  0
 16 17  2  0
 17 18  1  0
 18 19  2  0
 19 20  1  0
 20 21  2  0
  4  5  1  0
  5  6  1  0
  6  1  1  0
 21 16  1  0
  9 10  1  0
  9 11  1  0
 14 15  1  0
M  END
> <minimizedAffinity>
-7.05290

> <CNNscore>
0.5233553648

> <CNNaffinity>
5.6123714447

> <CNN_VS>
2.9372646809

> <CNNaffinity_variance>
0.0196567122

$$$$



 21 22  0  0  0  0  0  0  0  0999 V2000
   15.9622    8.3606    0.9278 C   0  0  0  0  0  0  0  0  0  0  0  0
   15.7955    7.2304   -0.1081 C   0  0  0  0  0  0  0  0  0  0  0  0
   16.3540    7.6274   -1.4742 C   0  0  0  0  0  0  0  0  0  0  0  0
   15.7055    8.9188   -1.9824 C   0  0  0  0  0  0  0  0  0  0  0  0
   15.8636   10.0548   -0.9671 C   0  0  0  0  0  0  0  0  0  0  0  0
   15.3166    9.6600    0.4059 C   0  0  0  0  0  0  0  0  0  0  0  0
   15.9528    6.5380    2.7245 C   0  0  0  0  0  0  0  0  0  0  0  0
   15.4528    7.9294    2.3300 C   0  0  0  0  0  0  0  0  0  0  0  0
   15.8253    8.8770    3.3804 N   0  0  0  0  0  0  0  0  0  0  0  0
   16.8410    8.9030    3.4703 H   0  0  0  0  0  0  0  0  0  0  0  0
   15.4131    8.5827    4.2657 H   0  0  0  0  0  0  0  0  0  0  0  0
   16.2285    9.3095   -3.3663 C   0  0  0  0  0  0  0  0  0  0  0  0
   17.4064    9.1139   -3.6535 O   0  0  0  0  0  0  0  0  0  0  0  0
   15.2763    9.8775   -4.1939 N   0  0  0  0  0  0  0  0  0  0  0  0
   14.3714    9.9706   -3.8176 H   0  0  0  0  0  0  0  0  0  0  0  0
   15.4540   10.3388   -5.5166 C   0  0  0  0  0  0  0  0  0  0  0  0
   16.4028    9.8332   -6.3990 C   0  0  0  0  0  0  0  0  0  0  0  0
   16.4755   10.3747   -7.6734 C   0  0  0  0  0  0  0  0  0  0  0  0
   15.6787   11.3694   -8.1178 N   0  0  0  0  0  0  0  0  0  0  0  0
   14.7670   11.8431   -7.2466 C   0  0  0  0  0  0  0  0  0  0  0  0
   14.6176   11.3676   -5.9532 C   0  0  0  0  0  0  0  0  0  0  0  0
  8  7  1  0
  8  9  1  0
  8  1  1  0
  1  2  1  0
  2  3  1  0
  3  4  1  0
  4 12  1  0
 12 13  2  0
 12 14  1  0
 14 16  1  0
 16 17  2  0
 17 18  1  0
 18 19  2  0
 19 20  1  0
 20 21  2  0
  4  5  1  0
  5  6  1  0
  6  1  1  0
 21 16  1  0
  9 10  1  0
  9 11  1  0
 14 15  1  0
M  END
> <minimizedAffinity>
-6.07683

> <CNNscore>
0.4270400107

> <CNNaffinity>
4.7298254967

> <CNN_VS>
2.0198247433

> <CNNaffinity_variance>
0.6956064105

$$$$



 21 22  0  0  0  0  0  0  0  0999 V2000
    5.4134    9.9205    4.0422 C   0  0  0  0  0  0  0  0  0  0  0  0
    6.9501    9.7910    4.0513 C   0  0  0  0  0  0  0  0  0  0  0  0
    7.5519   10.0920    2.6790 C   0  0  0  0  0  0  0  0  0  0  0  0
    6.9454    9.1900    1.5997 C   0  0  0  0  0  0  0  0  0  0  0  0
    5.4183    9.3074    1.5735 C   0  0  0  0  0  0  0  0  0  0  0  0
    4.8100    9.0182    2.9470 C   0  0  0  0  0  0  0  0  0  0  0  0
    4.6069   10.9818    6.2270 C   0  0  0  0  0  0  0  0  0  0  0  0
    4.8119    9.6777    5.4532 C   0  0  0  0  0  0  0  0  0  0  0  0
    3.5407    8.9551    5.4066 N   0  0  0  0  0  0  0  0  0  0  0  0
    2.8448    9.5221    4.9222 H   0  0  0  0  0  0  0  0  0  0  0  0
    3.2226    8.7650    6.3569 H   0  0  0  0  0  0  0  0  0  0  0  0
    7.5646    9.4547    0.2257 C   0  0  0  0  0  0  0  0  0  0  0  0
    8.7130    9.8822    0.1436 O   0  0  0  0  0  0  0  0  0  0  0  0
    6.7251    9.1781   -0.8387 N   0  0  0  0  0  0  0  0  0  0  0  0
    5.8283    8.8421   -0.6106 H   0  0  0  0  0  0  0  0  0  0  0  0
    7.0074    9.3226   -2.2147 C   0  0  0  0  0  0  0  0  0  0  0  0
    6.3911    8.5847   -3.2198 C   0  0  0  0  0  0  0  0  0  0  0  0
    6.7591    8.8228   -4.5352 C   0  0  0  0  0  0  0  0  0  0  0  0
    7.6845    9.7319   -4.9078 N   0  0  0  0  0  0  0  0  0  0  0  0
    8.2679   10.4352   -3.9179 C   0  0  0  0  0  0  0  0  0  0  0  0
    7.9677   10.2695   -2.5749 C   0  0  0  0  0  0  0  0  0  0  0  0
  8  7  1  0
  8  9  1  0
  8  1  1  0
  1  2  1  0
  2  3  1  0
  3  4  1  0
  4 12  1  0
 12 13  2  0
 12 14  1  0
 14 16  1  0
 16 17  2  0
 17 18  1  0
 18 19  2  0
 19 20  1  0
 20 21  2  0
  4  5  1  0
  5  6  1  0
  6  1  1  0
 21 16  1  0
  9 10  1  0
  9 11  1  0
 14 15  1  0
M  END
> <minimizedAffinity>
-1.15585

> <CNNscore>
0.4126473665

> <CNNaffinity>
5.7693161964

> <CNN_VS>
2.3806931973

> <CNNaffinity_variance>
0.2307627201

$$$$



 21 22  0  0  0  0  0  0  0  0999 V2000
   -1.5033   14.3838    8.4293 C   0  0  0  0  0  0  0  0  0  0  0  0
   -0.8167   14.6199    9.7898 C   0  0  0  0  0  0  0  0  0  0  0  0
   -0.7477   13.3381   10.6193 C   0  0  0  0  0  0  0  0  0  0  0  0
   -2.1410   12.7344   10.8208 C   0  0  0  0  0  0  0  0  0  0  0  0
   -2.8381   12.4899    9.4789 C   0  0  0  0  0  0  0  0  0  0  0  0
   -2.9008   13.7666    8.6386 C   0  0  0  0  0  0  0  0  0  0  0  0
   -0.9852   16.8881    8.3294 C   0  0  0  0  0  0  0  0  0  0  0  0
   -1.5131   15.6730    7.5635 C   0  0  0  0  0  0  0  0  0  0  0  0
   -0.7442   15.5271    6.3275 N   0  0  0  0  0  0  0  0  0  0  0  0
    0.2385   15.3747    6.5544 H   0  0  0  0  0  0  0  0  0  0  0  0
   -0.8364   16.3748    5.7677 H   0  0  0  0  0  0  0  0  0  0  0  0
   -2.0921   11.4696   11.6807 C   0  0  0  0  0  0  0  0  0  0  0  0
   -3.1267   11.0170   12.1634 O   0  0  0  0  0  0  0  0  0  0  0  0
   -0.8240   10.9403   11.8409 N   0  0  0  0  0  0  0  0  0  0  0  0
   -0.0912   11.4204   11.3918 H   0  0  0  0  0  0  0  0  0  0  0  0
   -0.4604    9.7901   12.5750 C   0  0  0  0  0  0  0  0  0  0  0  0
   -1.3219    8.7322   12.8458 C   0  0  0  0  0  0  0  0  0  0  0  0
   -0.8404    7.6586   13.5795 C   0  0  0  0  0  0  0  0  0  0  0  0
    0.4208    7.5720   14.0523 N   0  0  0  0  0  0  0  0  0  0  0  0
    1.2375    8.6075   13.7775 C   0  0  0  0  0  0  0  0  0  0  0  0
    0.8495    9.7235   13.0529 C   0  0  0  0  0  0  0  0  0  0  0  0
  8  7  1  0
  8  9  1  0
  8  1  1  0
  1  2  1  0
  2  3  1  0
  3  4  1  0
  4 12  1  0
 12 13  2  0
 12 14  1  0
 14 16  1  0
 16 17  2  0
 17 18  1  0
 18 19  2  0
 19 20  1  0
 20 21  2  0
  4  5  1  0
  5  6  1  0
  6  1  1  0
 21 16  1  0
  9 10  1  0
  9 11  1  0
 14 15  1  0
M  END
> <minimizedAffinity>
60.22490

> <CNNscore>
0.3847005367

> <CNNaffinity>
4.4226431847

> <CNN_VS>
1.7013932467

> <CNNaffinity_variance>
0.1347051114

$$$$
