


 21 23  0  0  0  0  0  0  0  0999 V2000
    3.8934   17.2845   44.0701 N   0  0  0  0  0  0  0  0  0  0  0  0
    3.2642   17.8859   45.1664 C   0  0  0  0  0  0  0  0  0  0  0  0
    1.8760   17.9958   45.2037 C   0  0  0  0  0  0  0  0  0  0  0  0
    1.2388   18.4845   46.3441 C   0  0  0  0  0  0  0  0  0  0  0  0
    1.9897   18.8297   47.4787 C   0  0  0  0  0  0  0  0  0  0  0  0
    1.3876   19.3225   48.6414 C   0  0  0  0  0  0  0  0  0  0  0  0
    2.1707   19.6409   49.7561 C   0  0  0  0  0  0  0  0  0  0  0  0
    1.6031   20.1269   50.9445 C   0  0  0  0  0  0  0  0  0  0  0  0
    2.4197   20.4317   52.0326 C   0  0  0  0  0  0  0  0  0  0  0  0
    1.6789   21.0160   53.4815 Cl  0  0  0  0  0  0  0  0  0  0  0  0
    3.8125   20.2937   51.9427 C   0  0  0  0  0  0  0  0  0  0  0  0
    4.6516   20.4710   53.0583 N   0  0  0  0  0  0  0  0  0  0  0  0
    4.3484   19.7589   50.7631 C   0  0  0  0  0  0  0  0  0  0  0  0
    3.5609   19.4476   49.6601 C   0  0  0  0  0  0  0  0  0  0  0  0
    4.1457   18.9723   48.5474 N   0  0  0  0  0  0  0  0  0  0  0  0
    3.3866   18.6703   47.4776 C   0  0  0  0  0  0  0  0  0  0  0  0
    3.9908   18.1789   46.3260 C   0  0  0  0  0  0  0  0  0  0  0  0
    3.3771   17.0807   43.2570 H   0  0  0  0  0  0  0  0  0  0  0  0
    4.8523   17.0654   44.1121 H   0  0  0  0  0  0  0  0  0  0  0  0
    4.2881   20.8456   53.8930 H   0  0  0  0  0  0  0  0  0  0  0  0
    5.6021   20.2206   53.0040 H   0  0  0  0  0  0  0  0  0  0  0  0
  1  2  1  0
  2  3  2  0
  3  4  1  0
  4  5  2  0
  5  6  1  0
  6  7  2  0
  7  8  1  0
  8  9  2  0
  9 10  1  0
  9 11  1  0
 11 12  1  0
 11 13  2  0
 13 14  1  0
 14 15  2  0
 15 16  1  0
 16 17  2  0
 17  2  1  0
 16  5  1  0
 14  7  1  0
  1 18  1  0
  1 19  1  0
 12 20  1  0
 12 21  1  0
M  END
> <minimizedAffinity>
-6.94927

> <CNNscore>
0.8992368579

> <CNNaffinity>
5.7679066658

> <CNN_VS>
5.1867141724

> <CNNaffinity_variance>
0.0137716383

$$$$



 21 23  0  0  0  0  0  0  0  0999 V2000
    9.1568   16.3708   53.4176 N   0  0  0  0  0  0  0  0  0  0  0  0
    8.8392   17.5734   52.7754 C   0  0  0  0  0  0  0  0  0  0  0  0
    7.8310   18.3918   53.2796 C   0  0  0  0  0  0  0  0  0  0  0  0
    7.5924   19.6444   52.7146 C   0  0  0  0  0  0  0  0  0  0  0  0
    8.3949   20.1073   51.6601 C   0  0  0  0  0  0  0  0  0  0  0  0
    8.1877   21.3576   51.0676 C   0  0  0  0  0  0  0  0  0  0  0  0
    9.0197   21.7880   50.0284 C   0  0  0  0  0  0  0  0  0  0  0  0
    8.8512   23.0400   49.4162 C   0  0  0  0  0  0  0  0  0  0  0  0
    9.7029   23.4306   48.3839 C   0  0  0  0  0  0  0  0  0  0  0  0
    9.4687   24.9858   47.6655 Cl  0  0  0  0  0  0  0  0  0  0  0  0
   10.7083   22.5692   47.9210 C   0  0  0  0  0  0  0  0  0  0  0  0
   11.6614   22.9802   46.9710 N   0  0  0  0  0  0  0  0  0  0  0  0
   10.8869   21.3467   48.5831 C   0  0  0  0  0  0  0  0  0  0  0  0
   10.0528   20.9278   49.6138 C   0  0  0  0  0  0  0  0  0  0  0  0
   10.2591   19.7266   50.1800 N   0  0  0  0  0  0  0  0  0  0  0  0
    9.4534   19.3176   51.1777 C   0  0  0  0  0  0  0  0  0  0  0  0
    9.6660   18.0750   51.7638 C   0  0  0  0  0  0  0  0  0  0  0  0
    8.5713   16.0229   54.1285 H   0  0  0  0  0  0  0  0  0  0  0  0
    9.9655   15.8730   53.1583 H   0  0  0  0  0  0  0  0  0  0  0  0
   11.5481   23.8366   46.4987 H   0  0  0  0  0  0  0  0  0  0  0  0
   12.4416   22.4114   46.7786 H   0  0  0  0  0  0  0  0  0  0  0  0
  1  2  1  0
  2  3  2  0
  3  4  1  0
  4  5  2  0
  5  6  1  0
  6  7  2  0
  7  8  1  0
  8  9  2  0
  9 10  1  0
  9 11  1  0
 11 12  1  0
 11 13  2  0
 13 14  1  0
 14 15  2  0
 15 16  1  0
 16 17  2  0
 17  2  1  0
 16  5  1  0
 14  7  1  0
  1 18  1  0
  1 19  1  0
 12 20  1  0
 12 21  1  0
M  END
> <minimizedAffinity>
-7.76849

> <CNNscore>
0.8666979671

> <CNNaffinity>
6.0341267586

> <CNN_VS>
5.2297654152

> <CNNaffinity_variance>
0.0118799731

$$$$



 21 23  0  0  0  0  0  0  0  0999 V2000
    5.1375   20.8770   53.5453 N   0  0  0  0  0  0  0  0  0  0  0  0
    4.1538   20.5084   52.6202 C   0  0  0  0  0  0  0  0  0  0  0  0
    2.8092   20.7483   52.8945 C   0  0  0  0  0  0  0  0  0  0  0  0
    1.8370   20.4930   51.9276 C   0  0  0  0  0  0  0  0  0  0  0  0
    2.2108   20.0318   50.6557 C   0  0  0  0  0  0  0  0  0  0  0  0
    1.2657   19.7650   49.6592 C   0  0  0  0  0  0  0  0  0  0  0  0
    1.6810   19.3206   48.3993 C   0  0  0  0  0  0  0  0  0  0  0  0
    0.7645   19.0531   47.3701 C   0  0  0  0  0  0  0  0  0  0  0  0
    1.2206   18.6124   46.1286 C   0  0  0  0  0  0  0  0  0  0  0  0
    0.0594   18.3063   44.8846 Cl  0  0  0  0  0  0  0  0  0  0  0  0
    2.5881   18.3958   45.9044 C   0  0  0  0  0  0  0  0  0  0  0  0
    3.0916   18.0741   44.6305 N   0  0  0  0  0  0  0  0  0  0  0  0
    3.4851   18.7188   46.9319 C   0  0  0  0  0  0  0  0  0  0  0  0
    3.0613   19.1579   48.1814 C   0  0  0  0  0  0  0  0  0  0  0  0
    3.9747   19.4146   49.1330 N   0  0  0  0  0  0  0  0  0  0  0  0
    3.5682   19.8394   50.3438 C   0  0  0  0  0  0  0  0  0  0  0  0
    4.5125   20.1050   51.3290 C   0  0  0  0  0  0  0  0  0  0  0  0
    4.8792   21.1599   54.4522 H   0  0  0  0  0  0  0  0  0  0  0  0
    6.0878   20.8533   53.2890 H   0  0  0  0  0  0  0  0  0  0  0  0
    2.4727   17.8453   43.8999 H   0  0  0  0  0  0  0  0  0  0  0  0
    4.0629   18.0778   44.4698 H   0  0  0  0  0  0  0  0  0  0  0  0
  1  2  1  0
  2  3  2  0
  3  4  1  0
  4  5  2  0
  5  6  1  0
  6  7  2  0
  7  8  1  0
  8  9  2  0
  9 10  1  0
  9 11  1  0
 11 12  1  0
 11 13  2  0
 13 14  1  0
 14 15  2  0
 15 16  1  0
 16 17  2  0
 17  2  1  0
 16  5  1  0
 14  7  1  0
  1 18  1  0
  1 19  1  0
 12 20  1  0
 12 21  1  0
M  END
> <minimizedAffinity>
-6.68590

> <CNNscore>
0.8489459753

> <CNNaffinity>
5.2885241508

> <CNN_VS>
4.4896712303

> <CNNaffinity_variance>
0.4717015326

$$$$



 21 23  0  0  0  0  0  0  0  0999 V2000
   -0.3228   18.5602   44.6296 N   0  0  0  0  0  0  0  0  0  0  0  0
    0.6791   18.6977   45.5975 C   0  0  0  0  0  0  0  0  0  0  0  0
    2.0207   18.6938   45.2224 C   0  0  0  0  0  0  0  0  0  0  0  0
    3.0161   18.9498   46.1653 C   0  0  0  0  0  0  0  0  0  0  0  0
    2.6705   19.2549   47.4911 C   0  0  0  0  0  0  0  0  0  0  0  0
    3.6393   19.5182   48.4654 C   0  0  0  0  0  0  0  0  0  0  0  0
    3.2523   19.8330   49.7725 C   0  0  0  0  0  0  0  0  0  0  0  0
    4.1937   20.1144   50.7752 C   0  0  0  0  0  0  0  0  0  0  0  0
    3.7655   20.4243   52.0652 C   0  0  0  0  0  0  0  0  0  0  0  0
    4.9572   20.7766   53.2674 Cl  0  0  0  0  0  0  0  0  0  0  0  0
    2.4001   20.4222   52.3858 C   0  0  0  0  0  0  0  0  0  0  0  0
    1.9293   20.8521   53.6402 N   0  0  0  0  0  0  0  0  0  0  0  0
    1.4800   20.1877   51.3546 C   0  0  0  0  0  0  0  0  0  0  0  0
    1.8756   19.8736   50.0591 C   0  0  0  0  0  0  0  0  0  0  0  0
    0.9395   19.6244   49.1276 N   0  0  0  0  0  0  0  0  0  0  0  0
    1.3188   19.3196   47.8726 C   0  0  0  0  0  0  0  0  0  0  0  0
    0.3510   19.0613   46.9085 C   0  0  0  0  0  0  0  0  0  0  0  0
   -0.0859   18.3042   43.7089 H   0  0  0  0  0  0  0  0  0  0  0  0
   -1.2642   18.7195   44.8695 H   0  0  0  0  0  0  0  0  0  0  0  0
    2.5647   21.0204   54.3731 H   0  0  0  0  0  0  0  0  0  0  0  0
    0.9646   20.9845   53.7849 H   0  0  0  0  0  0  0  0  0  0  0  0
  1  2  1  0
  2  3  2  0
  3  4  1  0
  4  5  2  0
  5  6  1  0
  6  7  2  0
  7  8  1  0
  8  9  2  0
  9 10  1  0
  9 11  1  0
 11 12  1  0
 11 13  2  0
 13 14  1  0
 14 15  2  0
 15 16  1  0
 16 17  2  0
 17  2  1  0
 16  5  1  0
 14  7  1  0
  1 18  1  0
  1 19  1  0
 12 20  1  0
 12 21  1  0
M  END
> <minimizedAffinity>
-7.32022

> <CNNscore>
0.8295695782

> <CNNaffinity>
5.8548913002

> <CNN_VS>
4.8570399284

> <CNNaffinity_variance>
0.2518695593

$$$$



 21 23  0  0  0  0  0  0  0  0999 V2000
    1.8727   21.0186   54.0445 N   0  0  0  0  0  0  0  0  0  0  0  0
    2.3850   20.7165   52.7773 C   0  0  0  0  0  0  0  0  0  0  0  0
    3.7491   20.4896   52.6091 C   0  0  0  0  0  0  0  0  0  0  0  0
    4.2465   20.0717   51.3749 C   0  0  0  0  0  0  0  0  0  0  0  0
    3.3700   19.8360   50.3042 C   0  0  0  0  0  0  0  0  0  0  0  0
    3.8299   19.4156   49.0515 C   0  0  0  0  0  0  0  0  0  0  0  0
    2.9215   19.1774   48.0145 C   0  0  0  0  0  0  0  0  0  0  0  0
    3.3426   18.7439   46.7474 C   0  0  0  0  0  0  0  0  0  0  0  0
    2.4042   18.5176   45.7415 C   0  0  0  0  0  0  0  0  0  0  0  0
    2.9639   17.9724   44.1991 Cl  0  0  0  0  0  0  0  0  0  0  0  0
    1.0405   18.7542   45.9686 C   0  0  0  0  0  0  0  0  0  0  0  0
    0.0583   18.4167   45.0193 N   0  0  0  0  0  0  0  0  0  0  0  0
    0.6424   19.1376   47.2567 C   0  0  0  0  0  0  0  0  0  0  0  0
    1.5540   19.3737   48.2799 C   0  0  0  0  0  0  0  0  0  0  0  0
    1.1050   19.7749   49.4813 N   0  0  0  0  0  0  0  0  0  0  0  0
    1.9845   20.0048   50.4740 C   0  0  0  0  0  0  0  0  0  0  0  0
    1.5209   20.4202   51.7171 C   0  0  0  0  0  0  0  0  0  0  0  0
    2.4855   21.2263   54.7865 H   0  0  0  0  0  0  0  0  0  0  0  0
    0.8996   21.0235   54.1936 H   0  0  0  0  0  0  0  0  0  0  0  0
    0.3242   18.1456   44.1110 H   0  0  0  0  0  0  0  0  0  0  0  0
   -0.8948   18.4516   45.2635 H   0  0  0  0  0  0  0  0  0  0  0  0
  1  2  1  0
  2  3  2  0
  3  4  1  0
  4  5  2  0
  5  6  1  0
  6  7  2  0
  7  8  1  0
  8  9  2  0
  9 10  1  0
  9 11  1  0
 11 12  1  0
 11 13  2  0
 13 14  1  0
 14 15  2  0
 15 16  1  0
 16 17  2  0
 17  2  1  0
 16  5  1  0
 14  7  1  0
  1 18  1  0
  1 19  1  0
 12 20  1  0
 12 21  1  0
M  END
> <minimizedAffinity>
-6.54761

> <CNNscore>
0.7845853567

> <CNNaffinity>
5.5849633217

> <CNN_VS>
4.3818802834

> <CNNaffinity_variance>
0.0166347772

$$$$



 21 23  0  0  0  0  0  0  0  0999 V2000
   11.6208   20.9432   48.5850 N   0  0  0  0  0  0  0  0  0  0  0  0
   10.3698   21.2183   49.1496 C   0  0  0  0  0  0  0  0  0  0  0  0
   10.0467   22.5166   49.5377 C   0  0  0  0  0  0  0  0  0  0  0  0
    8.7616   22.8174   49.9888 C   0  0  0  0  0  0  0  0  0  0  0  0
    7.7722   21.8222   50.0152 C   0  0  0  0  0  0  0  0  0  0  0  0
    6.4719   22.0845   50.4600 C   0  0  0  0  0  0  0  0  0  0  0  0
    5.5108   21.0679   50.4565 C   0  0  0  0  0  0  0  0  0  0  0  0
    4.1930   21.2943   50.8842 C   0  0  0  0  0  0  0  0  0  0  0  0
    3.2657   20.2534   50.8641 C   0  0  0  0  0  0  0  0  0  0  0  0
    1.6501   20.5780   51.3876 Cl  0  0  0  0  0  0  0  0  0  0  0  0
    3.6437   18.9663   50.4549 C   0  0  0  0  0  0  0  0  0  0  0  0
    2.7060   17.9282   50.3031 N   0  0  0  0  0  0  0  0  0  0  0  0
    4.9512   18.7799   49.9853 C   0  0  0  0  0  0  0  0  0  0  0  0
    5.8993   19.7969   49.9951 C   0  0  0  0  0  0  0  0  0  0  0  0
    7.1457   19.5385   49.5641 N   0  0  0  0  0  0  0  0  0  0  0  0
    8.0663   20.5205   49.5725 C   0  0  0  0  0  0  0  0  0  0  0  0
    9.3560   20.2539   49.1271 C   0  0  0  0  0  0  0  0  0  0  0  0
   12.3302   21.6256   48.6038 H   0  0  0  0  0  0  0  0  0  0  0  0
   11.7913   20.0673   48.1690 H   0  0  0  0  0  0  0  0  0  0  0  0
    1.7843   18.0459   50.6284 H   0  0  0  0  0  0  0  0  0  0  0  0
    2.9717   17.0842   49.8714 H   0  0  0  0  0  0  0  0  0  0  0  0
  1  2  1  0
  2  3  2  0
  3  4  1  0
  4  5  2  0
  5  6  1  0
  6  7  2  0
  7  8  1  0
  8  9  2  0
  9 10  1  0
  9 11  1  0
 11 12  1  0
 11 13  2  0
 13 14  1  0
 14 15  2  0
 15 16  1  0
 16 17  2  0
 17  2  1  0
 16  5  1  0
 14  7  1  0
  1 18  1  0
  1 19  1  0
 12 20  1  0
 12 21  1  0
M  END
> <minimizedAffinity>
-7.20937

> <CNNscore>
0.7364810705

> <CNNaffinity>
5.2148823738

> <CNN_VS>
3.8406622410

> <CNNaffinity_variance>
0.1877914220

$$$$



 21 23  0  0  0  0  0  0  0  0999 V2000
   -0.4233   17.2976   44.7759 N   0  0  0  0  0  0  0  0  0  0  0  0
    0.0391   18.0153   45.8851 C   0  0  0  0  0  0  0  0  0  0  0  0
   -0.8655   18.5640   46.7913 C   0  0  0  0  0  0  0  0  0  0  0  0
   -0.4093   19.1756   47.9588 C   0  0  0  0  0  0  0  0  0  0  0  0
    0.9635   19.2054   48.2496 C   0  0  0  0  0  0  0  0  0  0  0  0
    1.4601   19.8086   49.4102 C   0  0  0  0  0  0  0  0  0  0  0  0
    2.8347   19.8037   49.6702 C   0  0  0  0  0  0  0  0  0  0  0  0
    3.3705   20.3881   50.8288 C   0  0  0  0  0  0  0  0  0  0  0  0
    4.7467   20.3608   51.0500 C   0  0  0  0  0  0  0  0  0  0  0  0
    5.3640   21.0812   52.4955 Cl  0  0  0  0  0  0  0  0  0  0  0  0
    5.6117   19.7867   50.1070 C   0  0  0  0  0  0  0  0  0  0  0  0
    6.9876   19.6305   50.3572 N   0  0  0  0  0  0  0  0  0  0  0  0
    5.0468   19.1660   48.9844 C   0  0  0  0  0  0  0  0  0  0  0  0
    3.6790   19.1784   48.7345 C   0  0  0  0  0  0  0  0  0  0  0  0
    3.2087   18.5950   47.6190 N   0  0  0  0  0  0  0  0  0  0  0  0
    1.8853   18.6055   47.3736 C   0  0  0  0  0  0  0  0  0  0  0  0
    1.3980   18.0025   46.2196 C   0  0  0  0  0  0  0  0  0  0  0  0
   -1.3804   17.3104   44.5454 H   0  0  0  0  0  0  0  0  0  0  0  0
    0.2084   16.7800   44.2262 H   0  0  0  0  0  0  0  0  0  0  0  0
    7.3972   20.0611   51.1421 H   0  0  0  0  0  0  0  0  0  0  0  0
    7.5406   19.0906   49.7474 H   0  0  0  0  0  0  0  0  0  0  0  0
  1  2  1  0
  2  3  2  0
  3  4  1  0
  4  5  2  0
  5  6  1  0
  6  7  2  0
  7  8  1  0
  8  9  2  0
  9 10  1  0
  9 11  1  0
 11 12  1  0
 11 13  2  0
 13 14  1  0
 14 15  2  0
 15 16  1  0
 16 17  2  0
 17  2  1  0
 16  5  1  0
 14  7  1  0
  1 18  1  0
  1 19  1  0
 12 20  1  0
 12 21  1  0
M  END
> <minimizedAffinity>
-5.70704

> <CNNscore>
0.7315980196

> <CNNaffinity>
5.7170433998

> <CNN_VS>
4.1825776100

> <CNNaffinity_variance>
0.2212162465

$$$$



 21 23  0  0  0  0  0  0  0  0999 V2000
   11.5911   22.8535   47.0502 N   0  0  0  0  0  0  0  0  0  0  0  0
   10.7913   22.5721   48.1640 C   0  0  0  0  0  0  0  0  0  0  0  0
    9.7876   23.4585   48.5476 C   0  0  0  0  0  0  0  0  0  0  0  0
    8.9122   23.1264   49.5813 C   0  0  0  0  0  0  0  0  0  0  0  0
    9.0099   21.8776   50.2149 C   0  0  0  0  0  0  0  0  0  0  0  0
    8.1504   21.5072   51.2547 C   0  0  0  0  0  0  0  0  0  0  0  0
    8.2716   20.2470   51.8499 C   0  0  0  0  0  0  0  0  0  0  0  0
    7.4212   19.8341   52.8877 C   0  0  0  0  0  0  0  0  0  0  0  0
    7.5757   18.5692   53.4531 C   0  0  0  0  0  0  0  0  0  0  0  0
    6.4993   18.0954   54.7207 Cl  0  0  0  0  0  0  0  0  0  0  0  0
    8.5992   17.7127   53.0218 C   0  0  0  0  0  0  0  0  0  0  0  0
    8.7033   16.3868   53.4812 N   0  0  0  0  0  0  0  0  0  0  0  0
    9.4013   18.1294   51.9504 C   0  0  0  0  0  0  0  0  0  0  0  0
    9.2736   19.3853   51.3674 C   0  0  0  0  0  0  0  0  0  0  0  0
   10.1010   19.7335   50.3673 N   0  0  0  0  0  0  0  0  0  0  0  0
    9.9806   20.9486   49.8008 C   0  0  0  0  0  0  0  0  0  0  0  0
   10.8364   21.3097   48.7664 C   0  0  0  0  0  0  0  0  0  0  0  0
   11.5552   23.7434   46.6306 H   0  0  0  0  0  0  0  0  0  0  0  0
   12.1896   22.1616   46.6864 H   0  0  0  0  0  0  0  0  0  0  0  0
    8.1458   16.0811   54.2328 H   0  0  0  0  0  0  0  0  0  0  0  0
    9.3337   15.7649   53.0510 H   0  0  0  0  0  0  0  0  0  0  0  0
  1  2  1  0
  2  3  2  0
  3  4  1  0
  4  5  2  0
  5  6  1  0
  6  7  2  0
  7  8  1  0
  8  9  2  0
  9 10  1  0
  9 11  1  0
 11 12  1  0
 11 13  2  0
 13 14  1  0
 14 15  2  0
 15 16  1  0
 16 17  2  0
 17  2  1  0
 16  5  1  0
 14  7  1  0
  1 18  1  0
  1 19  1  0
 12 20  1  0
 12 21  1  0
M  END
> <minimizedAffinity>
-8.08789

> <CNNscore>
0.7021871805

> <CNNaffinity>
5.8445777893

> <CNN_VS>
4.1039876938

> <CNNaffinity_variance>
0.0172691029

$$$$



 21 23  0  0  0  0  0  0  0  0999 V2000
    8.3598   13.6944   51.2397 N   0  0  0  0  0  0  0  0  0  0  0  0
    8.3077   15.0739   51.4714 C   0  0  0  0  0  0  0  0  0  0  0  0
    7.9904   15.5600   52.7377 C   0  0  0  0  0  0  0  0  0  0  0  0
    8.0542   16.9278   53.0031 C   0  0  0  0  0  0  0  0  0  0  0  0
    8.4795   17.8208   52.0072 C   0  0  0  0  0  0  0  0  0  0  0  0
    8.5575   19.1990   52.2347 C   0  0  0  0  0  0  0  0  0  0  0  0
    9.0007   20.0536   51.2196 C   0  0  0  0  0  0  0  0  0  0  0  0
    9.1037   21.4403   51.4125 C   0  0  0  0  0  0  0  0  0  0  0  0
    9.5506   22.2565   50.3744 C   0  0  0  0  0  0  0  0  0  0  0  0
    9.6744   23.9577   50.6579 Cl  0  0  0  0  0  0  0  0  0  0  0  0
    9.8653   21.7121   49.1208 C   0  0  0  0  0  0  0  0  0  0  0  0
   10.4372   22.4871   48.0950 N   0  0  0  0  0  0  0  0  0  0  0  0
    9.8023   20.3199   48.9708 C   0  0  0  0  0  0  0  0  0  0  0  0
    9.3583   19.4796   49.9859 C   0  0  0  0  0  0  0  0  0  0  0  0
    9.2882   18.1565   49.7612 N   0  0  0  0  0  0  0  0  0  0  0  0
    8.8585   17.3402   50.7414 C   0  0  0  0  0  0  0  0  0  0  0  0
    8.7854   15.9713   50.5096 C   0  0  0  0  0  0  0  0  0  0  0  0
    8.0223   13.0679   51.9200 H   0  0  0  0  0  0  0  0  0  0  0  0
    8.7341   13.3506   50.3965 H   0  0  0  0  0  0  0  0  0  0  0  0
   10.4878   23.4659   48.1875 H   0  0  0  0  0  0  0  0  0  0  0  0
   10.7868   22.0504   47.2848 H   0  0  0  0  0  0  0  0  0  0  0  0
  1  2  1  0
  2  3  2  0
  3  4  1  0
  4  5  2  0
  5  6  1  0
  6  7  2  0
  7  8  1  0
  8  9  2  0
  9 10  1  0
  9 11  1  0
 11 12  1  0
 11 13  2  0
 13 14  1  0
 14 15  2  0
 15 16  1  0
 16 17  2  0
 17  2  1  0
 16  5  1  0
 14  7  1  0
  1 18  1  0
  1 19  1  0
 12 20  1  0
 12 21  1  0
M  END
> <minimizedAffinity>
-6.17584

> <CNNscore>
0.7000443339

> <CNNaffinity>
5.2792758942

> <CNN_VS>
3.6957271099

> <CNNaffinity_variance>
0.0110973818

$$$$
