


 20 21  0  0  0  0  0  0  0  0999 V2000
   29.5440   66.6437    7.6851 C   0  0  0  0  0  0  0  0  0  0  0  0
   30.9517   66.2616    7.1369 C   0  0  0  0  0  0  0  0  0  0  0  0
   31.3128   67.1365    6.0650 O   0  0  0  0  0  0  0  0  0  0  0  0
   32.0285   66.3491    8.2332 C   0  0  0  0  0  0  0  0  0  0  0  0
   33.3118   66.0130    7.6883 O   0  0  0  0  0  0  0  0  0  0  0  0
   31.7093   65.3635    9.3609 C   0  0  0  0  0  0  0  0  0  0  0  0
   32.5878   65.5535   10.4705 O   0  0  0  0  0  0  0  0  0  0  0  0
   30.2778   65.5105    9.7887 C   0  0  0  0  0  0  0  0  0  0  0  0
   29.7339   65.1779   10.9619 N   0  0  0  0  0  0  0  0  0  0  0  0
   28.4115   65.5306   11.0042 C   0  0  0  0  0  0  0  0  0  0  0  0
   27.2461   65.3045   12.4606 Br  0  0  0  0  0  0  0  0  0  0  0  0
   28.1326   66.1076    9.7940 C   0  0  0  0  0  0  0  0  0  0  0  0
   29.3044   66.0564    9.0375 N   0  0  0  0  0  0  0  0  0  0  0  0
   31.3581   68.0482    6.3930 H   0  0  0  0  0  0  0  0  0  0  0  0
   33.2900   65.1057    7.3458 H   0  0  0  0  0  0  0  0  0  0  0  0
   32.4726   66.4492   10.8244 H   0  0  0  0  0  0  0  0  0  0  0  0
   30.2185   64.7383   11.6975 H   0  0  0  0  0  0  0  0  0  0  0  0
   27.1582   66.3372    7.2083 O   0  0  0  0  0  0  0  0  0  0  0  0
   28.4684   66.2368    6.6511 C   0  0  0  0  0  0  0  0  0  0  0  0
   26.5028   66.0774    6.5420 H   0  0  0  0  0  0  0  0  0  0  0  0
 18 19  1  0
  1 19  1  0
  1  2  1  0
  2  3  1  0
  2  4  1  0
  4  5  1  0
  4  6  1  0
  6  7  1  0
  6  8  1  0
  8  9  1  0
  9 10  1  0
 10 11  1  0
 10 12  2  0
 12 13  1  0
 13  1  1  0
 13  8  2  0
 18 20  1  0
  3 14  1  0
  5 15  1  0
  7 16  1  0
  9 17  1  0
M  CHG 1  13   1
M  END
> <minimizedAffinity>
-8.45129

> <CNNscore>
0.9365191460

> <CNNaffinity>
5.5889630318

> <CNN_VS>
5.2341709137

> <CNNaffinity_variance>
0.5019920468

$$$$



 20 21  0  0  0  0  0  0  0  0999 V2000
   30.4835   67.0167   16.3164 C   0  0  0  0  0  0  0  0  0  0  0  0
   29.6419   66.2725   17.3963 C   0  0  0  0  0  0  0  0  0  0  0  0
   28.7864   65.3113   16.7725 O   0  0  0  0  0  0  0  0  0  0  0  0
   30.5411   65.5496   18.4149 C   0  0  0  0  0  0  0  0  0  0  0  0
   29.7340   64.8589   19.3784 O   0  0  0  0  0  0  0  0  0  0  0  0
   31.4149   66.5655   19.1561 C   0  0  0  0  0  0  0  0  0  0  0  0
   32.3841   65.9075   19.9726 O   0  0  0  0  0  0  0  0  0  0  0  0
   32.0853   67.4852   18.1771 C   0  0  0  0  0  0  0  0  0  0  0  0
   33.2047   68.1923   18.3497 N   0  0  0  0  0  0  0  0  0  0  0  0
   33.5427   68.8589   17.2024 C   0  0  0  0  0  0  0  0  0  0  0  0
   35.0570   69.9422   16.9506 Br  0  0  0  0  0  0  0  0  0  0  0  0
   32.5796   68.5438   16.2814 C   0  0  0  0  0  0  0  0  0  0  0  0
   31.6609   67.7095   16.9203 N   0  0  0  0  0  0  0  0  0  0  0  0
   29.3254   64.6520   16.3081 H   0  0  0  0  0  0  0  0  0  0  0  0
   29.1787   65.4976   19.8523 H   0  0  0  0  0  0  0  0  0  0  0  0
   32.9689   65.3728   19.4131 H   0  0  0  0  0  0  0  0  0  0  0  0
   33.7180   68.2293   19.1890 H   0  0  0  0  0  0  0  0  0  0  0  0
   28.9924   68.9625   16.3799 O   0  0  0  0  0  0  0  0  0  0  0  0
   29.5618   67.9726   15.5237 C   0  0  0  0  0  0  0  0  0  0  0  0
   28.4198   69.5485   15.8606 H   0  0  0  0  0  0  0  0  0  0  0  0
 18 19  1  0
  1 19  1  0
  1  2  1  0
  2  3  1  0
  2  4  1  0
  4  5  1  0
  4  6  1  0
  6  7  1  0
  6  8  1  0
  8  9  1  0
  9 10  1  0
 10 11  1  0
 10 12  2  0
 12 13  1  0
 13  1  1  0
 13  8  2  0
 18 20  1  0
  3 14  1  0
  5 15  1  0
  7 16  1  0
  9 17  1  0
M  CHG 1  13   1
M  END
> <minimizedAffinity>
-5.13750

> <CNNscore>
0.5095413327

> <CNNaffinity>
3.1864299774

> <CNN_VS>
1.6236177683

> <CNNaffinity_variance>
0.7959187627

$$$$



 20 21  0  0  0  0  0  0  0  0999 V2000
   26.1546   63.3457   11.1218 C   0  0  0  0  0  0  0  0  0  0  0  0
   27.6322   63.1405   11.5723 C   0  0  0  0  0  0  0  0  0  0  0  0
   28.5208   63.4934   10.5090 O   0  0  0  0  0  0  0  0  0  0  0  0
   27.9709   63.9952   12.8066 C   0  0  0  0  0  0  0  0  0  0  0  0
   29.3419   63.7980   13.1785 O   0  0  0  0  0  0  0  0  0  0  0  0
   27.0863   63.5844   13.9871 C   0  0  0  0  0  0  0  0  0  0  0  0
   27.2516   64.4803   15.0866 O   0  0  0  0  0  0  0  0  0  0  0  0
   25.6474   63.5285   13.5625 C   0  0  0  0  0  0  0  0  0  0  0  0
   24.5606   63.6355   14.3306 N   0  0  0  0  0  0  0  0  0  0  0  0
   23.4215   63.6082   13.5711 C   0  0  0  0  0  0  0  0  0  0  0  0
   21.6595   63.7715   14.2026 Br  0  0  0  0  0  0  0  0  0  0  0  0
   23.8336   63.4769   12.2718 C   0  0  0  0  0  0  0  0  0  0  0  0
   25.2269   63.3970   12.2914 N   0  0  0  0  0  0  0  0  0  0  0  0
   28.4041   64.4306   10.2876 H   0  0  0  0  0  0  0  0  0  0  0  0
   29.4863   62.8643   13.3979 H   0  0  0  0  0  0  0  0  0  0  0  0
   26.9847   65.3736   14.8188 H   0  0  0  0  0  0  0  0  0  0  0  0
   24.5761   63.7222   15.3112 H   0  0  0  0  0  0  0  0  0  0  0  0
   26.7704   61.2229   10.0597 O   0  0  0  0  0  0  0  0  0  0  0  0
   25.7777   62.2477   10.1000 C   0  0  0  0  0  0  0  0  0  0  0  0
   26.5119   60.5477    9.4131 H   0  0  0  0  0  0  0  0  0  0  0  0
 18 19  1  0
  1 19  1  0
  1  2  1  0
  2  3  1  0
  2  4  1  0
  4  5  1  0
  4  6  1  0
  6  7  1  0
  6  8  1  0
  8  9  1  0
  9 10  1  0
 10 11  1  0
 10 12  2  0
 12 13  1  0
 13  1  1  0
 13  8  2  0
 18 20  1  0
  3 14  1  0
  5 15  1  0
  7 16  1  0
  9 17  1  0
M  CHG 1  13   1
M  END
> <minimizedAffinity>
-6.35127

> <CNNscore>
0.3123010993

> <CNNaffinity>
3.4494533539

> <CNN_VS>
1.0772681236

> <CNNaffinity_variance>
0.3399827480

$$$$



 20 21  0  0  0  0  0  0  0  0999 V2000
   32.2439   67.7420   19.0484 C   0  0  0  0  0  0  0  0  0  0  0  0
   31.7440   66.3377   19.5025 C   0  0  0  0  0  0  0  0  0  0  0  0
   31.6670   66.2842   20.9294 O   0  0  0  0  0  0  0  0  0  0  0  0
   30.3572   66.0149   18.9181 C   0  0  0  0  0  0  0  0  0  0  0  0
   29.9203   64.7274   19.3742 O   0  0  0  0  0  0  0  0  0  0  0  0
   30.4266   65.9877   17.3886 C   0  0  0  0  0  0  0  0  0  0  0  0
   29.1223   65.8721   16.8191 O   0  0  0  0  0  0  0  0  0  0  0  0
   31.1190   67.2182   16.8787 C   0  0  0  0  0  0  0  0  0  0  0  0
   31.0135   67.7781   15.6711 N   0  0  0  0  0  0  0  0  0  0  0  0
   31.7438   68.9344   15.6037 C   0  0  0  0  0  0  0  0  0  0  0  0
   31.8656   70.0885   14.1261 Br  0  0  0  0  0  0  0  0  0  0  0  0
   32.3265   69.0887   16.8333 C   0  0  0  0  0  0  0  0  0  0  0  0
   31.9487   67.9887   17.6051 N   0  0  0  0  0  0  0  0  0  0  0  0
   31.0289   66.9437   21.2438 H   0  0  0  0  0  0  0  0  0  0  0  0
   30.5477   64.0494   19.0781 H   0  0  0  0  0  0  0  0  0  0  0  0
   28.5891   66.6415   17.0734 H   0  0  0  0  0  0  0  0  0  0  0  0
   30.4820   67.4092   14.9291 H   0  0  0  0  0  0  0  0  0  0  0  0
   34.2676   66.6609   19.9142 O   0  0  0  0  0  0  0  0  0  0  0  0
   33.7458   67.8816   19.3899 C   0  0  0  0  0  0  0  0  0  0  0  0
   35.2088   66.7736   20.1201 H   0  0  0  0  0  0  0  0  0  0  0  0
 18 19  1  0
  1 19  1  0
  1  2  1  0
  2  3  1  0
  2  4  1  0
  4  5  1  0
  4  6  1  0
  6  7  1  0
  6  8  1  0
  8  9  1  0
  9 10  1  0
 10 11  1  0
 10 12  2  0
 12 13  1  0
 13  1  1  0
 13  8  2  0
 18 20  1  0
  3 14  1  0
  5 15  1  0
  7 16  1  0
  9 17  1  0
M  CHG 1  13   1
M  END
> <minimizedAffinity>
-5.34487

> <CNNscore>
0.2486402541

> <CNNaffinity>
2.6727969646

> <CNN_VS>
0.6645649076

> <CNNaffinity_variance>
1.2967947721

$$$$



 20 21  0  0  0  0  0  0  0  0999 V2000
   31.6387   68.0359   17.5695 C   0  0  0  0  0  0  0  0  0  0  0  0
   32.2521   67.4063   18.8562 C   0  0  0  0  0  0  0  0  0  0  0  0
   32.7848   68.4333   19.6967 O   0  0  0  0  0  0  0  0  0  0  0  0
   31.2028   66.6089   19.6511 C   0  0  0  0  0  0  0  0  0  0  0  0
   31.7963   66.0637   20.8374 O   0  0  0  0  0  0  0  0  0  0  0  0
   30.6704   65.4514   18.8015 C   0  0  0  0  0  0  0  0  0  0  0  0
   29.5689   64.8092   19.4443 O   0  0  0  0  0  0  0  0  0  0  0  0
   30.2732   65.9463   17.4410 C   0  0  0  0  0  0  0  0  0  0  0  0
   29.4065   65.3948   16.5881 N   0  0  0  0  0  0  0  0  0  0  0  0
   29.2520   66.1772   15.4750 C   0  0  0  0  0  0  0  0  0  0  0  0
   28.1068   65.8352   14.0253 Br  0  0  0  0  0  0  0  0  0  0  0  0
   30.0672   67.2624   15.6566 C   0  0  0  0  0  0  0  0  0  0  0  0
   30.7204   67.0829   16.8770 N   0  0  0  0  0  0  0  0  0  0  0  0
   32.0710   69.0312   19.9686 H   0  0  0  0  0  0  0  0  0  0  0  0
   32.5199   65.4664   20.5917 H   0  0  0  0  0  0  0  0  0  0  0  0
   28.8451   65.4450   19.5576 H   0  0  0  0  0  0  0  0  0  0  0  0
   28.9411   64.5405   16.7392 H   0  0  0  0  0  0  0  0  0  0  0  0
   34.0005   67.8564   16.9343 O   0  0  0  0  0  0  0  0  0  0  0  0
   32.7805   68.5439   16.6584 C   0  0  0  0  0  0  0  0  0  0  0  0
   34.6996   68.1919   16.3516 H   0  0  0  0  0  0  0  0  0  0  0  0
 18 19  1  0
  1 19  1  0
  1  2  1  0
  2  3  1  0
  2  4  1  0
  4  5  1  0
  4  6  1  0
  6  7  1  0
  6  8  1  0
  8  9  1  0
  9 10  1  0
 10 11  1  0
 10 12  2  0
 12 13  1  0
 13  1  1  0
 13  8  2  0
 18 20  1  0
  3 14  1  0
  5 15  1  0
  7 16  1  0
  9 17  1  0
M  CHG 1  13   1
M  END
> <minimizedAffinity>
-5.42391

> <CNNscore>
0.2056097835

> <CNNaffinity>
2.6400020123

> <CNN_VS>
0.5428102612

> <CNNaffinity_variance>
1.3566155434

$$$$



 20 21  0  0  0  0  0  0  0  0999 V2000
   28.2836   66.1035   16.0895 C   0  0  0  0  0  0  0  0  0  0  0  0
   27.6625   65.9632   17.5118 C   0  0  0  0  0  0  0  0  0  0  0  0
   27.8065   67.1906   18.2312 O   0  0  0  0  0  0  0  0  0  0  0  0
   26.1683   65.6004   17.4431 C   0  0  0  0  0  0  0  0  0  0  0  0
   25.6262   65.5017   18.7671 O   0  0  0  0  0  0  0  0  0  0  0  0
   25.9888   64.2491   16.7455 C   0  0  0  0  0  0  0  0  0  0  0  0
   24.6078   63.9761   16.5063 O   0  0  0  0  0  0  0  0  0  0  0  0
   26.7635   64.2219   15.4599 C   0  0  0  0  0  0  0  0  0  0  0  0
   26.5501   63.4527   14.3896 N   0  0  0  0  0  0  0  0  0  0  0  0
   27.4214   63.7670   13.3811 C   0  0  0  0  0  0  0  0  0  0  0  0
   27.4739   62.9863   11.6730 Br  0  0  0  0  0  0  0  0  0  0  0  0
   28.2085   64.7800   13.8603 C   0  0  0  0  0  0  0  0  0  0  0  0
   27.8018   65.0275   15.1723 N   0  0  0  0  0  0  0  0  0  0  0  0
   27.3299   67.8959   17.7661 H   0  0  0  0  0  0  0  0  0  0  0  0
   26.0927   64.8061   19.2565 H   0  0  0  0  0  0  0  0  0  0  0  0
   24.2400   64.6574   15.9219 H   0  0  0  0  0  0  0  0  0  0  0  0
   25.8593   62.7535   14.3331 H   0  0  0  0  0  0  0  0  0  0  0  0
   30.3735   67.1748   15.3839 O   0  0  0  0  0  0  0  0  0  0  0  0
   29.8247   66.1486   16.2102 C   0  0  0  0  0  0  0  0  0  0  0  0
   31.3390   67.1829   15.4768 H   0  0  0  0  0  0  0  0  0  0  0  0
 18 19  1  0
  1 19  1  0
  1  2  1  0
  2  3  1  0
  2  4  1  0
  4  5  1  0
  4  6  1  0
  6  7  1  0
  6  8  1  0
  8  9  1  0
  9 10  1  0
 10 11  1  0
 10 12  2  0
 12 13  1  0
 13  1  1  0
 13  8  2  0
 18 20  1  0
  3 14  1  0
  5 15  1  0
  7 16  1  0
  9 17  1  0
M  CHG 1  13   1
M  END
> <minimizedAffinity>
-5.04821

> <CNNscore>
0.1999720633

> <CNNaffinity>
2.5757381916

> <CNN_VS>
0.5150756836

> <CNNaffinity_variance>
1.3247004747

$$$$



 20 21  0  0  0  0  0  0  0  0999 V2000
   33.1186   69.8192   15.9193 C   0  0  0  0  0  0  0  0  0  0  0  0
   33.8570   70.7516   14.9125 C   0  0  0  0  0  0  0  0  0  0  0  0
   32.9113   71.3739   14.0388 O   0  0  0  0  0  0  0  0  0  0  0  0
   34.6575   71.8472   15.6389 C   0  0  0  0  0  0  0  0  0  0  0  0
   35.3043   72.6979   14.6824 O   0  0  0  0  0  0  0  0  0  0  0  0
   35.7326   71.2107   16.5242 C   0  0  0  0  0  0  0  0  0  0  0  0
   36.3661   72.1920   17.3456 O   0  0  0  0  0  0  0  0  0  0  0  0
   35.1332   70.1227   17.3673 C   0  0  0  0  0  0  0  0  0  0  0  0
   35.5893   69.6355   18.5238 N   0  0  0  0  0  0  0  0  0  0  0  0
   34.7301   68.6978   19.0311 C   0  0  0  0  0  0  0  0  0  0  0  0
   34.9262   67.7723   20.6544 Br  0  0  0  0  0  0  0  0  0  0  0  0
   33.6959   68.6066   18.1381 C   0  0  0  0  0  0  0  0  0  0  0  0
   33.9831   69.4823   17.0899 N   0  0  0  0  0  0  0  0  0  0  0  0
   32.3015   71.9203   14.5588 H   0  0  0  0  0  0  0  0  0  0  0  0
   35.9157   72.1720   14.1434 H   0  0  0  0  0  0  0  0  0  0  0  0
   35.7078   72.5971   17.9316 H   0  0  0  0  0  0  0  0  0  0  0  0
   36.4303   69.9131   18.9538 H   0  0  0  0  0  0  0  0  0  0  0  0
   33.3095   68.3787   13.9440 O   0  0  0  0  0  0  0  0  0  0  0  0
   32.6032   68.5686   15.1696 C   0  0  0  0  0  0  0  0  0  0  0  0
   32.9689   67.5901   13.4934 H   0  0  0  0  0  0  0  0  0  0  0  0
 18 19  1  0
  1 19  1  0
  1  2  1  0
  2  3  1  0
  2  4  1  0
  4  5  1  0
  4  6  1  0
  6  7  1  0
  6  8  1  0
  8  9  1  0
  9 10  1  0
 10 11  1  0
 10 12  2  0
 12 13  1  0
 13  1  1  0
 13  8  2  0
 18 20  1  0
  3 14  1  0
  5 15  1  0
  7 16  1  0
  9 17  1  0
M  CHG 1  13   1
M  END
> <minimizedAffinity>
-5.16350

> <CNNscore>
0.1938556135

> <CNNaffinity>
2.3864643574

> <CNN_VS>
0.4626295269

> <CNNaffinity_variance>
2.1731812954

$$$$



 20 21  0  0  0  0  0  0  0  0999 V2000
   32.6703   67.6795   19.4682 C   0  0  0  0  0  0  0  0  0  0  0  0
   33.9769   67.5433   20.3064 C   0  0  0  0  0  0  0  0  0  0  0  0
   34.3200   66.1632   20.4561 O   0  0  0  0  0  0  0  0  0  0  0  0
   35.1545   68.2782   19.6414 C   0  0  0  0  0  0  0  0  0  0  0  0
   36.3426   68.1129   20.4274 O   0  0  0  0  0  0  0  0  0  0  0  0
   34.8474   69.7749   19.5389 C   0  0  0  0  0  0  0  0  0  0  0  0
   35.8397   70.4491   18.7645 O   0  0  0  0  0  0  0  0  0  0  0  0
   33.4831   69.9854   18.9488 C   0  0  0  0  0  0  0  0  0  0  0  0
   33.0211   71.0661   18.3153 N   0  0  0  0  0  0  0  0  0  0  0  0
   31.7490   70.8552   17.8546 C   0  0  0  0  0  0  0  0  0  0  0  0
   30.7080   72.0688   16.8678 Br  0  0  0  0  0  0  0  0  0  0  0  0
   31.4161   69.5801   18.2266 C   0  0  0  0  0  0  0  0  0  0  0  0
   32.5018   69.0653   18.9369 N   0  0  0  0  0  0  0  0  0  0  0  0
   34.4841   65.7743   19.5827 H   0  0  0  0  0  0  0  0  0  0  0  0
   36.2009   68.4883   21.3105 H   0  0  0  0  0  0  0  0  0  0  0  0
   35.8458   70.0900   17.8634 H   0  0  0  0  0  0  0  0  0  0  0  0
   33.5270   71.9022   18.1955 H   0  0  0  0  0  0  0  0  0  0  0  0
   31.1987   65.8245   20.1059 O   0  0  0  0  0  0  0  0  0  0  0  0
   31.4686   67.2095   20.3206 C   0  0  0  0  0  0  0  0  0  0  0  0
   30.4426   65.5543   20.6503 H   0  0  0  0  0  0  0  0  0  0  0  0
 18 19  1  0
  1 19  1  0
  1  2  1  0
  2  3  1  0
  2  4  1  0
  4  5  1  0
  4  6  1  0
  6  7  1  0
  6  8  1  0
  8  9  1  0
  9 10  1  0
 10 11  1  0
 10 12  2  0
 12 13  1  0
 13  1  1  0
 13  8  2  0
 18 20  1  0
  3 14  1  0
  5 15  1  0
  7 16  1  0
  9 17  1  0
M  CHG 1  13   1
M  END
> <minimizedAffinity>
-5.08457

> <CNNscore>
0.1913101524

> <CNNaffinity>
2.7272901535

> <CNN_VS>
0.5217583179

> <CNNaffinity_variance>
0.8049752712

$$$$



 20 21  0  0  0  0  0  0  0  0999 V2000
   26.7159   65.4338   11.5739 C   0  0  0  0  0  0  0  0  0  0  0  0
   28.0770   64.7296   11.8557 C   0  0  0  0  0  0  0  0  0  0  0  0
   29.1578   65.5816   11.4673 O   0  0  0  0  0  0  0  0  0  0  0  0
   28.2336   64.3771   13.3457 C   0  0  0  0  0  0  0  0  0  0  0  0
   29.5045   63.7519   13.5709 O   0  0  0  0  0  0  0  0  0  0  0  0
   27.1330   63.4014   13.7718 C   0  0  0  0  0  0  0  0  0  0  0  0
   27.1453   63.2017   15.1856 O   0  0  0  0  0  0  0  0  0  0  0  0
   25.7919   63.9029   13.3203 C   0  0  0  0  0  0  0  0  0  0  0  0
   24.5924   63.6074   13.8271 N   0  0  0  0  0  0  0  0  0  0  0  0
   23.6071   64.3175   13.1949 C   0  0  0  0  0  0  0  0  0  0  0  0
   21.7714   64.2691   13.5925 Br  0  0  0  0  0  0  0  0  0  0  0  0
   24.2368   65.0860   12.2524 C   0  0  0  0  0  0  0  0  0  0  0  0
   25.5985   64.7881   12.3260 N   0  0  0  0  0  0  0  0  0  0  0  0
   29.1304   66.3977   11.9909 H   0  0  0  0  0  0  0  0  0  0  0  0
   29.5596   62.9349   13.0509 H   0  0  0  0  0  0  0  0  0  0  0  0
   26.9763   64.0457   15.6328 H   0  0  0  0  0  0  0  0  0  0  0  0
   24.4374   62.9653   14.5571 H   0  0  0  0  0  0  0  0  0  0  0  0
   27.5126   64.7985    9.3434 O   0  0  0  0  0  0  0  0  0  0  0  0
   26.4715   65.4751   10.0474 C   0  0  0  0  0  0  0  0  0  0  0  0
   27.3371   64.8382    8.3903 H   0  0  0  0  0  0  0  0  0  0  0  0
 18 19  1  0
  1 19  1  0
  1  2  1  0
  2  3  1  0
  2  4  1  0
  4  5  1  0
  4  6  1  0
  6  7  1  0
  6  8  1  0
  8  9  1  0
  9 10  1  0
 10 11  1  0
 10 12  2  0
 12 13  1  0
 13  1  1  0
 13  8  2  0
 18 20  1  0
  3 14  1  0
  5 15  1  0
  7 16  1  0
  9 17  1  0
M  CHG 1  13   1
M  END
> <minimizedAffinity>
-5.72035

> <CNNscore>
0.1848896295

> <CNNaffinity>
3.3310191631

> <CNN_VS>
0.6158708930

> <CNNaffinity_variance>
0.3611705303

$$$$
