


 24 24  0  0  0  0  0  0  0  0999 V2000
   -1.2781   -6.0424   -5.1584 S   0  0  0  0  0  0  0  0  0  0  0  0
   -0.4724   -5.2972   -6.0984 O   0  0  0  0  0  0  0  0  0  0  0  0
   -0.8668   -7.3396   -4.6679 O   0  0  0  0  0  0  0  0  0  0  0  0
   -5.4763   -6.4140   -6.9359 C   0  0  0  0  0  0  0  0  0  0  0  0
   -5.2964   -6.0044   -5.6091 C   0  0  0  0  0  0  0  0  0  0  0  0
   -4.0107   -5.8895   -5.0725 C   0  0  0  0  0  0  0  0  0  0  0  0
   -2.8992   -6.1901   -5.8641 C   0  0  0  0  0  0  0  0  0  0  0  0
   -3.0545   -6.5863   -7.1910 C   0  0  0  0  0  0  0  0  0  0  0  0
   -4.3423   -6.7041   -7.7181 C   0  0  0  0  0  0  0  0  0  0  0  0
   -4.4925   -7.2244   -9.3611 Cl  0  0  0  0  0  0  0  0  0  0  0  0
   -6.7241   -6.6866   -8.9555 C   0  0  0  0  0  0  0  0  0  0  0  0
   -6.6972   -6.5670   -7.5392 O   0  0  0  0  0  0  0  0  0  0  0  0
   -1.5770   -5.0615   -3.8104 N   0  0  0  0  0  0  0  0  0  0  0  0
   -1.5877   -5.7065   -2.4696 C   0  0  0  0  0  0  0  0  0  0  0  0
   -0.1851   -5.6380   -1.8536 C   0  0  0  0  0  0  0  0  0  0  0  0
    0.3935   -6.9431   -1.7661 O   0  0  0  0  0  0  0  0  0  0  0  0
   -0.1608   -7.5054   -1.2026 H   0  0  0  0  0  0  0  0  0  0  0  0
   -0.8941   -3.7364   -3.8518 C   0  0  0  0  0  0  0  0  0  0  0  0
   -1.8338   -2.6455   -4.3416 C   0  0  0  0  0  0  0  0  0  0  0  0
   -2.4252   -2.6863   -5.4202 O   0  0  0  0  0  0  0  0  0  0  0  0
   -1.9048   -1.5455   -3.5114 N   0  0  0  0  0  0  0  0  0  0  0  0
   -2.6020   -0.4333   -4.0448 O   0  0  0  0  0  0  0  0  0  0  0  0
   -1.5004   -1.5343   -2.6139 H   0  0  0  0  0  0  0  0  0  0  0  0
   -2.9202   -0.6480   -4.9356 H   0  0  0  0  0  0  0  0  0  0  0  0
 11 12  1  0
 12  4  1  0
  4  5  2  0
  5  6  1  0
  6  7  2  0
  7  1  1  0
  1  2  2  0
  1  3  2  0
  1 13  1  0
 13 14  1  0
 14 15  1  0
 15 16  1  0
 13 18  1  0
 18 19  1  0
 19 20  2  0
 19 21  1  0
 21 22  1  0
  7  8  1  0
  8  9  2  0
  9 10  1  0
  9  4  1  0
 16 17  1  0
 21 23  1  0
 22 24  1  0
M  END
> <minimizedAffinity>
-6.90295

> <CNNscore>
0.9253621101

> <CNNaffinity>
6.6407928467

> <CNN_VS>
6.1451382637

> <CNNaffinity_variance>
0.2993183434

$$$$



 24 24  0  0  0  0  0  0  0  0999 V2000
   -3.4042   -5.8926   -7.7040 S   0  0  0  0  0  0  0  0  0  0  0  0
   -3.3963   -4.5090   -8.1209 O   0  0  0  0  0  0  0  0  0  0  0  0
   -2.4663   -6.8527   -8.2431 O   0  0  0  0  0  0  0  0  0  0  0  0
   -7.6594   -7.4565   -8.3117 C   0  0  0  0  0  0  0  0  0  0  0  0
   -7.2958   -6.8214   -7.1180 C   0  0  0  0  0  0  0  0  0  0  0  0
   -5.9948   -6.3425   -6.9395 C   0  0  0  0  0  0  0  0  0  0  0  0
   -5.0506   -6.5035   -7.9569 C   0  0  0  0  0  0  0  0  0  0  0  0
   -5.3945   -7.1203   -9.1582 C   0  0  0  0  0  0  0  0  0  0  0  0
   -6.6947   -7.6009   -9.3268 C   0  0  0  0  0  0  0  0  0  0  0  0
   -7.0733   -8.3838  -10.8222 Cl  0  0  0  0  0  0  0  0  0  0  0  0
   -9.8500   -7.9678   -7.5052 C   0  0  0  0  0  0  0  0  0  0  0  0
   -8.9050   -7.9677   -8.5674 O   0  0  0  0  0  0  0  0  0  0  0  0
   -3.2720   -5.9463   -6.0163 N   0  0  0  0  0  0  0  0  0  0  0  0
   -3.5646   -7.2371   -5.3366 C   0  0  0  0  0  0  0  0  0  0  0  0
   -2.2775   -7.7985   -4.7206 C   0  0  0  0  0  0  0  0  0  0  0  0
   -2.4188   -9.1932   -4.4368 O   0  0  0  0  0  0  0  0  0  0  0  0
   -3.1424   -9.3227   -3.8038 H   0  0  0  0  0  0  0  0  0  0  0  0
   -2.0935   -5.2145   -5.4692 C   0  0  0  0  0  0  0  0  0  0  0  0
   -2.5154   -3.9313   -4.7704 C   0  0  0  0  0  0  0  0  0  0  0  0
   -2.9341   -3.8887   -3.6138 O   0  0  0  0  0  0  0  0  0  0  0  0
   -2.4776   -2.8106   -5.5747 N   0  0  0  0  0  0  0  0  0  0  0  0
   -3.0641   -1.6485   -5.0151 O   0  0  0  0  0  0  0  0  0  0  0  0
   -2.0726   -2.8180   -6.4720 H   0  0  0  0  0  0  0  0  0  0  0  0
   -3.4031   -1.8519   -4.1293 H   0  0  0  0  0  0  0  0  0  0  0  0
 11 12  1  0
 12  4  1  0
  4  5  2  0
  5  6  1  0
  6  7  2  0
  7  1  1  0
  1  2  2  0
  1  3  2  0
  1 13  1  0
 13 14  1  0
 14 15  1  0
 15 16  1  0
 13 18  1  0
 18 19  1  0
 19 20  2  0
 19 21  1  0
 21 22  1  0
  7  8  1  0
  8  9  2  0
  9 10  1  0
  9  4  1  0
 16 17  1  0
 21 23  1  0
 22 24  1  0
M  END
> <minimizedAffinity>
-7.17775

> <CNNscore>
0.9191147089

> <CNNaffinity>
6.6043415070

> <CNN_VS>
6.0701475143

> <CNNaffinity_variance>
0.1108876541

$$$$



 24 24  0  0  0  0  0  0  0  0999 V2000
   -1.4223   -5.9485   -4.3596 S   0  0  0  0  0  0  0  0  0  0  0  0
   -0.2423   -5.1876   -4.7013 O   0  0  0  0  0  0  0  0  0  0  0  0
   -1.3337   -7.3059   -3.8680 O   0  0  0  0  0  0  0  0  0  0  0  0
   -4.1275   -5.8757   -8.0472 C   0  0  0  0  0  0  0  0  0  0  0  0
   -2.7720   -5.5402   -8.1494 C   0  0  0  0  0  0  0  0  0  0  0  0
   -1.9495   -5.5676   -7.0195 C   0  0  0  0  0  0  0  0  0  0  0  0
   -2.4852   -5.9272   -5.7800 C   0  0  0  0  0  0  0  0  0  0  0  0
   -3.8283   -6.2779   -5.6580 C   0  0  0  0  0  0  0  0  0  0  0  0
   -4.6447   -6.2428   -6.7904 C   0  0  0  0  0  0  0  0  0  0  0  0
   -6.3118   -6.6595   -6.5910 Cl  0  0  0  0  0  0  0  0  0  0  0  0
   -5.3709   -7.1125   -9.6704 C   0  0  0  0  0  0  0  0  0  0  0  0
   -5.0085   -5.8631   -9.0969 O   0  0  0  0  0  0  0  0  0  0  0  0
   -2.3284   -5.0604   -3.2376 N   0  0  0  0  0  0  0  0  0  0  0  0
   -1.6950   -4.7401   -1.9299 C   0  0  0  0  0  0  0  0  0  0  0  0
   -2.7824   -4.4971   -0.8764 C   0  0  0  0  0  0  0  0  0  0  0  0
   -3.2095   -5.7325   -0.2957 O   0  0  0  0  0  0  0  0  0  0  0  0
   -3.5764   -6.3051   -0.9873 H   0  0  0  0  0  0  0  0  0  0  0  0
   -3.1157   -3.9420   -3.8318 C   0  0  0  0  0  0  0  0  0  0  0  0
   -2.2261   -2.7527   -4.1591 C   0  0  0  0  0  0  0  0  0  0  0  0
   -1.5161   -2.1819   -3.3315 O   0  0  0  0  0  0  0  0  0  0  0  0
   -2.3451   -2.2975   -5.4563 N   0  0  0  0  0  0  0  0  0  0  0  0
   -1.6924   -1.0688   -5.7250 O   0  0  0  0  0  0  0  0  0  0  0  0
   -2.8470   -2.7905   -6.1450 H   0  0  0  0  0  0  0  0  0  0  0  0
   -1.2588   -0.7499   -4.9181 H   0  0  0  0  0  0  0  0  0  0  0  0
 11 12  1  0
 12  4  1  0
  4  5  2  0
  5  6  1  0
  6  7  2  0
  7  1  1  0
  1  2  2  0
  1  3  2  0
  1 13  1  0
 13 14  1  0
 14 15  1  0
 15 16  1  0
 13 18  1  0
 18 19  1  0
 19 20  2  0
 19 21  1  0
 21 22  1  0
  7  8  1  0
  8  9  2  0
  9 10  1  0
  9  4  1  0
 16 17  1  0
 21 23  1  0
 22 24  1  0
M  END
> <minimizedAffinity>
-6.87236

> <CNNscore>
0.8794917464

> <CNNaffinity>
7.1199417114

> <CNN_VS>
6.2619299889

> <CNNaffinity_variance>
1.0657697916

$$$$



 24 24  0  0  0  0  0  0  0  0999 V2000
   -1.1376   -5.5044   -2.4952 S   0  0  0  0  0  0  0  0  0  0  0  0
    0.2806   -5.4434   -2.7657 O   0  0  0  0  0  0  0  0  0  0  0  0
   -1.6718   -6.3201   -1.4269 O   0  0  0  0  0  0  0  0  0  0  0  0
   -3.2271   -6.7094   -6.3817 C   0  0  0  0  0  0  0  0  0  0  0  0
   -3.6501   -7.2299   -5.1526 C   0  0  0  0  0  0  0  0  0  0  0  0
   -3.0098   -6.8552   -3.9678 C   0  0  0  0  0  0  0  0  0  0  0  0
   -1.9379   -5.9598   -4.0118 C   0  0  0  0  0  0  0  0  0  0  0  0
   -1.5093   -5.4191   -5.2225 C   0  0  0  0  0  0  0  0  0  0  0  0
   -2.1506   -5.8026   -6.4023 C   0  0  0  0  0  0  0  0  0  0  0  0
   -1.5706   -5.1289   -7.8864 Cl  0  0  0  0  0  0  0  0  0  0  0  0
   -5.0358   -6.4378   -7.9197 C   0  0  0  0  0  0  0  0  0  0  0  0
   -3.7861   -7.0307   -7.5910 O   0  0  0  0  0  0  0  0  0  0  0  0
   -1.7092   -3.9269   -2.2639 N   0  0  0  0  0  0  0  0  0  0  0  0
   -2.3096   -3.5914   -0.9446 C   0  0  0  0  0  0  0  0  0  0  0  0
   -1.1968   -3.3723    0.0873 C   0  0  0  0  0  0  0  0  0  0  0  0
   -0.2151   -4.4089    0.0006 O   0  0  0  0  0  0  0  0  0  0  0  0
   -0.6331   -5.2659    0.1790 H   0  0  0  0  0  0  0  0  0  0  0  0
   -0.8267   -2.8653   -2.8278 C   0  0  0  0  0  0  0  0  0  0  0  0
   -1.6172   -1.8844   -3.6798 C   0  0  0  0  0  0  0  0  0  0  0  0
   -2.1450   -0.8648   -3.2363 O   0  0  0  0  0  0  0  0  0  0  0  0
   -1.7770   -2.2770   -4.9930 N   0  0  0  0  0  0  0  0  0  0  0  0
   -2.6829   -1.4928   -5.7493 O   0  0  0  0  0  0  0  0  0  0  0  0
   -1.2966   -3.0460   -5.3764 H   0  0  0  0  0  0  0  0  0  0  0  0
   -3.0468   -0.7891   -5.1896 H   0  0  0  0  0  0  0  0  0  0  0  0
 11 12  1  0
 12  4  1  0
  4  5  2  0
  5  6  1  0
  6  7  2  0
  7  1  1  0
  1  2  2  0
  1  3  2  0
  1 13  1  0
 13 14  1  0
 14 15  1  0
 15 16  1  0
 13 18  1  0
 18 19  1  0
 19 20  2  0
 19 21  1  0
 21 22  1  0
  7  8  1  0
  8  9  2  0
  9 10  1  0
  9  4  1  0
 16 17  1  0
 21 23  1  0
 22 24  1  0
M  END
> <minimizedAffinity>
-5.54330

> <CNNscore>
0.8089063168

> <CNNaffinity>
6.5281581879

> <CNN_VS>
5.2806682587

> <CNNaffinity_variance>
0.6073789597

$$$$



 24 24  0  0  0  0  0  0  0  0999 V2000
   -0.7303   -6.2219   -4.8112 S   0  0  0  0  0  0  0  0  0  0  0  0
   -0.1296   -7.5345   -4.7449 O   0  0  0  0  0  0  0  0  0  0  0  0
   -0.4494   -5.3131   -5.9008 O   0  0  0  0  0  0  0  0  0  0  0  0
    0.2111   -4.1529   -0.8419 C   0  0  0  0  0  0  0  0  0  0  0  0
    0.0935   -5.5464   -0.9104 C   0  0  0  0  0  0  0  0  0  0  0  0
   -0.1910   -6.1733   -2.1270 C   0  0  0  0  0  0  0  0  0  0  0  0
   -0.3639   -5.4035   -3.2803 C   0  0  0  0  0  0  0  0  0  0  0  0
   -0.2378   -4.0164   -3.2376 C   0  0  0  0  0  0  0  0  0  0  0  0
    0.0411   -3.3972   -2.0174 C   0  0  0  0  0  0  0  0  0  0  0  0
    0.1632   -1.6716   -2.0025 Cl  0  0  0  0  0  0  0  0  0  0  0  0
    1.7825   -3.5507    0.8547 C   0  0  0  0  0  0  0  0  0  0  0  0
    0.4738   -3.4547    0.3077 O   0  0  0  0  0  0  0  0  0  0  0  0
   -2.4125   -6.3951   -4.7155 N   0  0  0  0  0  0  0  0  0  0  0  0
   -3.0044   -6.7126   -3.3878 C   0  0  0  0  0  0  0  0  0  0  0  0
   -2.9871   -8.2296   -3.1653 C   0  0  0  0  0  0  0  0  0  0  0  0
   -2.8639   -8.9224   -4.4105 O   0  0  0  0  0  0  0  0  0  0  0  0
   -3.6203   -8.7052   -4.9776 H   0  0  0  0  0  0  0  0  0  0  0  0
   -3.1792   -5.3916   -5.5084 C   0  0  0  0  0  0  0  0  0  0  0  0
   -3.2914   -4.0692   -4.7657 C   0  0  0  0  0  0  0  0  0  0  0  0
   -3.8781   -3.9360   -3.6920 O   0  0  0  0  0  0  0  0  0  0  0  0
   -2.7540   -2.9932   -5.4421 N   0  0  0  0  0  0  0  0  0  0  0  0
   -3.0326   -1.7254   -4.8740 O   0  0  0  0  0  0  0  0  0  0  0  0
   -2.2161   -3.0988   -6.2599 H   0  0  0  0  0  0  0  0  0  0  0  0
   -3.5739   -1.8400   -4.0773 H   0  0  0  0  0  0  0  0  0  0  0  0
 11 12  1  0
 12  4  1  0
  4  5  2  0
  5  6  1  0
  6  7  2  0
  7  1  1  0
  1  2  2  0
  1  3  2  0
  1 13  1  0
 13 14  1  0
 14 15  1  0
 15 16  1  0
 13 18  1  0
 18 19  1  0
 19 20  2  0
 19 21  1  0
 21 22  1  0
  7  8  1  0
  8  9  2  0
  9 10  1  0
  9  4  1  0
 16 17  1  0
 21 23  1  0
 22 24  1  0
M  END
> <minimizedAffinity>
-5.46066

> <CNNscore>
0.6677604318

> <CNNaffinity>
5.6042180061

> <CNN_VS>
3.7422749996

> <CNNaffinity_variance>
0.0952388272

$$$$



 24 24  0  0  0  0  0  0  0  0999 V2000
   -4.0457   -6.3690   -8.4770 S   0  0  0  0  0  0  0  0  0  0  0  0
   -3.9855   -4.9944   -8.9184 O   0  0  0  0  0  0  0  0  0  0  0  0
   -3.2870   -7.4107   -9.1338 O   0  0  0  0  0  0  0  0  0  0  0  0
   -8.4579   -7.5721   -8.3904 C   0  0  0  0  0  0  0  0  0  0  0  0
   -7.7964   -7.1987   -7.2142 C   0  0  0  0  0  0  0  0  0  0  0  0
   -6.4488   -6.8288   -7.2475 C   0  0  0  0  0  0  0  0  0  0  0  0
   -5.7571   -6.8367   -8.4616 C   0  0  0  0  0  0  0  0  0  0  0  0
   -6.3993   -7.1916   -9.6462 C   0  0  0  0  0  0  0  0  0  0  0  0
   -7.7442   -7.5653   -9.6039 C   0  0  0  0  0  0  0  0  0  0  0  0
   -8.4968   -8.0244  -11.0923 Cl  0  0  0  0  0  0  0  0  0  0  0  0
  -10.0782   -9.3032   -8.0937 C   0  0  0  0  0  0  0  0  0  0  0  0
   -9.7705   -7.9615   -8.4492 O   0  0  0  0  0  0  0  0  0  0  0  0
   -3.6590   -6.4217   -6.8288 N   0  0  0  0  0  0  0  0  0  0  0  0
   -2.2202   -6.3945   -6.4509 C   0  0  0  0  0  0  0  0  0  0  0  0
   -1.4989   -5.3001   -7.2468 C   0  0  0  0  0  0  0  0  0  0  0  0
   -1.4466   -4.0819   -6.4991 O   0  0  0  0  0  0  0  0  0  0  0  0
   -2.3487   -3.7790   -6.3111 H   0  0  0  0  0  0  0  0  0  0  0  0
   -4.5396   -5.5843   -5.9645 C   0  0  0  0  0  0  0  0  0  0  0  0
   -3.8652   -5.2569   -4.6412 C   0  0  0  0  0  0  0  0  0  0  0  0
   -3.5241   -6.1070   -3.8191 O   0  0  0  0  0  0  0  0  0  0  0  0
   -3.7439   -3.9060   -4.3873 N   0  0  0  0  0  0  0  0  0  0  0  0
   -3.3164   -3.5761   -3.0773 O   0  0  0  0  0  0  0  0  0  0  0  0
   -3.9400   -3.2212   -5.0669 H   0  0  0  0  0  0  0  0  0  0  0  0
   -3.1783   -4.3898   -2.5677 H   0  0  0  0  0  0  0  0  0  0  0  0
 11 12  1  0
 12  4  1  0
  4  5  2  0
  5  6  1  0
  6  7  2  0
  7  1  1  0
  1  2  2  0
  1  3  2  0
  1 13  1  0
 13 14  1  0
 14 15  1  0
 15 16  1  0
 13 18  1  0
 18 19  1  0
 19 20  2  0
 19 21  1  0
 21 22  1  0
  7  8  1  0
  8  9  2  0
  9 10  1  0
  9  4  1  0
 16 17  1  0
 21 23  1  0
 22 24  1  0
M  END
> <minimizedAffinity>
-7.21578

> <CNNscore>
0.6522480249

> <CNNaffinity>
6.0573310852

> <CNN_VS>
3.9508821964

> <CNNaffinity_variance>
0.3693064153

$$$$



 24 24  0  0  0  0  0  0  0  0999 V2000
   -1.6282   -6.7530   -3.8473 S   0  0  0  0  0  0  0  0  0  0  0  0
   -0.2681   -6.7275   -4.3347 O   0  0  0  0  0  0  0  0  0  0  0  0
   -2.0385   -5.9707   -2.7019 O   0  0  0  0  0  0  0  0  0  0  0  0
   -2.7178  -11.1225   -3.0458 C   0  0  0  0  0  0  0  0  0  0  0  0
   -3.0918  -10.1168   -2.1463 C   0  0  0  0  0  0  0  0  0  0  0  0
   -2.7590   -8.7828   -2.3984 C   0  0  0  0  0  0  0  0  0  0  0  0
   -2.0442   -8.4524   -3.5527 C   0  0  0  0  0  0  0  0  0  0  0  0
   -1.6737   -9.4355   -4.4682 C   0  0  0  0  0  0  0  0  0  0  0  0
   -2.0051  -10.7665   -4.2065 C   0  0  0  0  0  0  0  0  0  0  0  0
   -1.5035  -11.9591   -5.3548 Cl  0  0  0  0  0  0  0  0  0  0  0  0
   -3.2024  -12.9187   -1.5461 C   0  0  0  0  0  0  0  0  0  0  0  0
   -2.9890  -12.4546   -2.8728 O   0  0  0  0  0  0  0  0  0  0  0  0
   -2.6655   -6.3610   -5.1276 N   0  0  0  0  0  0  0  0  0  0  0  0
   -4.1236   -6.5865   -4.9351 C   0  0  0  0  0  0  0  0  0  0  0  0
   -4.8195   -6.6520   -6.2999 C   0  0  0  0  0  0  0  0  0  0  0  0
   -6.2338   -6.7941   -6.1406 O   0  0  0  0  0  0  0  0  0  0  0  0
   -6.4242   -7.6152   -5.6606 H   0  0  0  0  0  0  0  0  0  0  0  0
   -2.3252   -5.0881   -5.8259 C   0  0  0  0  0  0  0  0  0  0  0  0
   -2.8461   -3.8815   -5.0606 C   0  0  0  0  0  0  0  0  0  0  0  0
   -3.6826   -3.9520   -4.1605 O   0  0  0  0  0  0  0  0  0  0  0  0
   -2.3686   -2.6711   -5.5201 N   0  0  0  0  0  0  0  0  0  0  0  0
   -2.9974   -1.5277   -4.9680 O   0  0  0  0  0  0  0  0  0  0  0  0
   -1.6438   -2.6068   -6.1832 H   0  0  0  0  0  0  0  0  0  0  0  0
   -3.6807   -1.8067   -4.3386 H   0  0  0  0  0  0  0  0  0  0  0  0
 11 12  1  0
 12  4  1  0
  4  5  2  0
  5  6  1  0
  6  7  2  0
  7  1  1  0
  1  2  2  0
  1  3  2  0
  1 13  1  0
 13 14  1  0
 14 15  1  0
 15 16  1  0
 13 18  1  0
 18 19  1  0
 19 20  2  0
 19 21  1  0
 21 22  1  0
  7  8  1  0
  8  9  2  0
  9 10  1  0
  9  4  1  0
 16 17  1  0
 21 23  1  0
 22 24  1  0
M  END
> <minimizedAffinity>
-6.48727

> <CNNscore>
0.5734416246

> <CNNaffinity>
6.0010166168

> <CNN_VS>
3.4412326813

> <CNNaffinity_variance>
0.1852367669

$$$$



 24 24  0  0  0  0  0  0  0  0999 V2000
   -2.6208   -7.0502   -4.5795 S   0  0  0  0  0  0  0  0  0  0  0  0
   -1.2392   -7.2337   -4.9610 O   0  0  0  0  0  0  0  0  0  0  0  0
   -3.3005   -7.9900   -3.7153 O   0  0  0  0  0  0  0  0  0  0  0  0
   -4.9923   -6.5966   -8.4645 C   0  0  0  0  0  0  0  0  0  0  0  0
   -3.5922   -6.6038   -8.4793 C   0  0  0  0  0  0  0  0  0  0  0  0
   -2.8730   -6.7462   -7.2892 C   0  0  0  0  0  0  0  0  0  0  0  0
   -3.5561   -6.8770   -6.0772 C   0  0  0  0  0  0  0  0  0  0  0  0
   -4.9491   -6.8861   -6.0409 C   0  0  0  0  0  0  0  0  0  0  0  0
   -5.6604   -6.7378   -7.2334 C   0  0  0  0  0  0  0  0  0  0  0  0
   -7.3878   -6.7277   -7.1415 Cl  0  0  0  0  0  0  0  0  0  0  0  0
   -6.4278   -7.6060  -10.0864 C   0  0  0  0  0  0  0  0  0  0  0  0
   -5.7766   -6.4488   -9.5784 O   0  0  0  0  0  0  0  0  0  0  0  0
   -2.7881   -5.5128   -3.8888 N   0  0  0  0  0  0  0  0  0  0  0  0
   -1.5673   -4.8574   -3.3465 C   0  0  0  0  0  0  0  0  0  0  0  0
   -0.3194   -5.5758   -3.8738 C   0  0  0  0  0  0  0  0  0  0  0  0
    0.2169   -4.8909   -5.0092 O   0  0  0  0  0  0  0  0  0  0  0  0
   -0.4459   -4.8702   -5.7171 H   0  0  0  0  0  0  0  0  0  0  0  0
   -3.6975   -4.5987   -4.6380 C   0  0  0  0  0  0  0  0  0  0  0  0
   -2.9182   -3.4990   -5.3424 C   0  0  0  0  0  0  0  0  0  0  0  0
   -2.1045   -3.7068   -6.2422 O   0  0  0  0  0  0  0  0  0  0  0  0
   -3.1293   -2.2368   -4.8264 N   0  0  0  0  0  0  0  0  0  0  0  0
   -2.2611   -1.2319   -5.3205 O   0  0  0  0  0  0  0  0  0  0  0  0
   -3.8320   -2.0481   -4.1632 H   0  0  0  0  0  0  0  0  0  0  0  0
   -1.6456   -1.6224   -5.9605 H   0  0  0  0  0  0  0  0  0  0  0  0
 11 12  1  0
 12  4  1  0
  4  5  2  0
  5  6  1  0
  6  7  2  0
  7  1  1  0
  1  2  2  0
  1  3  2  0
  1 13  1  0
 13 14  1  0
 14 15  1  0
 15 16  1  0
 13 18  1  0
 18 19  1  0
 19 20  2  0
 19 21  1  0
 21 22  1  0
  7  8  1  0
  8  9  2  0
  9 10  1  0
  9  4  1  0
 16 17  1  0
 21 23  1  0
 22 24  1  0
M  END
> <minimizedAffinity>
-7.39447

> <CNNscore>
0.5544317365

> <CNNaffinity>
6.0577569008

> <CNN_VS>
3.3586127758

> <CNNaffinity_variance>
0.4124493897

$$$$



 24 24  0  0  0  0  0  0  0  0999 V2000
   -8.4489   -8.5603  -10.2585 S   0  0  0  0  0  0  0  0  0  0  0  0
   -7.7675   -9.7409  -10.7379 O   0  0  0  0  0  0  0  0  0  0  0  0
   -8.9662   -7.5612  -11.1676 O   0  0  0  0  0  0  0  0  0  0  0  0
   -5.6890   -6.5012   -7.2475 C   0  0  0  0  0  0  0  0  0  0  0  0
   -7.0671   -6.5821   -7.0137 C   0  0  0  0  0  0  0  0  0  0  0  0
   -7.9050   -7.2156   -7.9359 C   0  0  0  0  0  0  0  0  0  0  0  0
   -7.3640   -7.7668   -9.1004 C   0  0  0  0  0  0  0  0  0  0  0  0
   -5.9936   -7.7097   -9.3467 C   0  0  0  0  0  0  0  0  0  0  0  0
   -5.1639   -7.0703   -8.4232 C   0  0  0  0  0  0  0  0  0  0  0  0
   -3.4726   -6.9979   -8.7794 Cl  0  0  0  0  0  0  0  0  0  0  0  0
   -4.1730   -6.6869   -5.4098 C   0  0  0  0  0  0  0  0  0  0  0  0
   -4.7967   -5.8885   -6.4070 O   0  0  0  0  0  0  0  0  0  0  0  0
   -9.7260   -9.0458   -9.2576 N   0  0  0  0  0  0  0  0  0  0  0  0
  -10.2380   -8.0679   -8.2598 C   0  0  0  0  0  0  0  0  0  0  0  0
  -10.3348   -8.7382   -6.8841 C   0  0  0  0  0  0  0  0  0  0  0  0
  -11.6582   -8.6184   -6.3548 O   0  0  0  0  0  0  0  0  0  0  0  0
  -11.8823   -7.6800   -6.2541 H   0  0  0  0  0  0  0  0  0  0  0  0
  -10.7869   -9.8302   -9.9527 C   0  0  0  0  0  0  0  0  0  0  0  0
  -12.1755   -9.3434   -9.5684 C   0  0  0  0  0  0  0  0  0  0  0  0
  -12.6184   -8.2348   -9.8680 O   0  0  0  0  0  0  0  0  0  0  0  0
  -12.8802  -10.2188   -8.7676 N   0  0  0  0  0  0  0  0  0  0  0  0
  -14.0822   -9.7021   -8.2238 O   0  0  0  0  0  0  0  0  0  0  0  0
  -12.5702  -11.1357   -8.5872 H   0  0  0  0  0  0  0  0  0  0  0  0
  -14.2046   -8.7870   -8.5213 H   0  0  0  0  0  0  0  0  0  0  0  0
 11 12  1  0
 12  4  1  0
  4  5  2  0
  5  6  1  0
  6  7  2  0
  7  1  1  0
  1  2  2  0
  1  3  2  0
  1 13  1  0
 13 14  1  0
 14 15  1  0
 15 16  1  0
 13 18  1  0
 18 19  1  0
 19 20  2  0
 19 21  1  0
 21 22  1  0
  7  8  1  0
  8  9  2  0
  9 10  1  0
  9  4  1  0
 16 17  1  0
 21 23  1  0
 22 24  1  0
M  END
> <minimizedAffinity>
-6.93796

> <CNNscore>
0.4674326181

> <CNNaffinity>
5.0308508873

> <CNN_VS>
2.3515837193

> <CNNaffinity_variance>
0.0477095731

$$$$
