


 37 39  0  0  0  0  0  0  0  0999 V2000
   12.2439   54.0631   93.3164 C   0  0  0  0  0  0  0  0  0  0  0  0
   13.0543   53.9921   94.2478 O   0  0  0  0  0  0  0  0  0  0  0  0
   12.6568   54.3659   92.0384 N   0  0  0  0  0  0  0  0  0  0  0  0
   14.0569   54.6325   91.7522 C   0  0  0  0  0  0  0  0  0  0  0  0
   14.1699   54.6476   90.2248 C   0  0  0  0  0  0  0  0  0  0  0  0
   15.0497   55.6503   89.7432 O   0  0  0  0  0  0  0  0  0  0  0  0
   12.7435   54.9527   89.7680 C   0  0  0  0  0  0  0  0  0  0  0  0
   11.8894   54.2249   90.8012 C   0  0  0  0  0  0  0  0  0  0  0  0
   14.7443   56.5203   90.0444 H   0  0  0  0  0  0  0  0  0  0  0  0
   11.7338   52.7389   90.4037 C   0  0  0  0  0  0  0  0  0  0  0  0
   12.4813   51.8573   90.8197 O   0  0  0  0  0  0  0  0  0  0  0  0
   10.7085   52.5048   89.5133 N   0  0  0  0  0  0  0  0  0  0  0  0
   10.1350   53.2539   89.2319 H   0  0  0  0  0  0  0  0  0  0  0  0
   10.4564   51.1844   88.9836 C   0  0  0  0  0  0  0  0  0  0  0  0
   10.9862   51.0676   87.5771 C   0  0  0  0  0  0  0  0  0  0  0  0
   11.1708   52.2056   86.7812 C   0  0  0  0  0  0  0  0  0  0  0  0
   11.6899   52.0894   85.4875 C   0  0  0  0  0  0  0  0  0  0  0  0
   12.0355   50.8355   84.9651 C   0  0  0  0  0  0  0  0  0  0  0  0
   11.8597   49.7005   85.7668 C   0  0  0  0  0  0  0  0  0  0  0  0
   11.3456   49.8158   87.0610 C   0  0  0  0  0  0  0  0  0  0  0  0
   12.5817   50.7040   83.6137 C   0  0  0  0  0  0  0  0  0  0  0  0
   11.8797   49.5934   82.4996 S   0  0  0  0  0  0  0  0  0  0  0  0
   13.0530   50.0295   81.3467 C   0  0  0  0  0  0  0  0  0  0  0  0
   13.1007   49.2352   79.6000 Br  0  0  0  0  0  0  0  0  0  0  0  0
   13.9239   50.9410   81.7069 N   0  0  0  0  0  0  0  0  0  0  0  0
   13.6643   51.3370   83.0124 C   0  0  0  0  0  0  0  0  0  0  0  0
   14.5446   52.3766   83.6112 C   0  0  0  0  0  0  0  0  0  0  0  0
   10.7369   53.8072   93.5730 C   0  0  0  0  0  0  0  0  0  0  0  0
   11.1307   50.0563   94.0077 C   0  0  0  0  0  0  0  0  0  0  0  0
   11.5464   51.5003   93.9441 C   0  0  0  0  0  0  0  0  0  0  0  0
   12.6793   51.8661   94.2429 O   0  0  0  0  0  0  0  0  0  0  0  0
   10.5655   52.3554   93.4975 N   0  0  0  0  0  0  0  0  0  0  0  0
    9.7348   51.9849   93.1209 H   0  0  0  0  0  0  0  0  0  0  0  0
   10.2313   54.4002   94.9254 C   0  0  0  0  0  0  0  0  0  0  0  0
   10.7489   55.8277   95.1871 C   0  0  0  0  0  0  0  0  0  0  0  0
   10.7006   53.4961   96.0863 C   0  0  0  0  0  0  0  0  0  0  0  0
    8.6894   54.4270   94.9463 C   0  0  0  0  0  0  0  0  0  0  0  0
 29 30  1  0
 30 31  2  0
 30 32  1  0
 28 32  1  0
 28  1  1  0
  1  2  2  0
  1  3  1  0
  3  4  1  0
  4  5  1  0
  5  6  1  0
  5  7  1  0
  7  8  1  0
  8 10  1  0
 10 11  2  0
 10 12  1  0
 12 14  1  0
 14 15  1  0
 15 16  2  0
 16 17  1  0
 17 18  2  0
 18 21  1  0
 21 22  1  0
 22 23  1  0
 23 24  1  0
 23 25  2  0
 25 26  1  0
 26 27  1  0
 18 19  1  0
 19 20  2  0
 28 34  1  0
 34 35  1  0
 34 36  1  0
 34 37  1  0
  8  3  1  0
 20 15  1  0
 26 21  2  0
 32 33  1  0
  6  9  1  0
 12 13  1  0
M  END
> <minimizedAffinity>
-7.88349

> <CNNscore>
0.6056692600

> <CNNaffinity>
5.8353266716

> <CNN_VS>
3.5342779160

> <CNNaffinity_variance>
0.7894471288

$$$$



 37 39  0  0  0  0  0  0  0  0999 V2000
   12.1723   53.9936   93.5733 C   0  0  0  0  0  0  0  0  0  0  0  0
   12.9866   53.6059   94.4194 O   0  0  0  0  0  0  0  0  0  0  0  0
   12.5424   54.1634   92.2582 N   0  0  0  0  0  0  0  0  0  0  0  0
   13.9090   53.9119   91.8312 C   0  0  0  0  0  0  0  0  0  0  0  0
   13.8725   53.9299   90.3001 C   0  0  0  0  0  0  0  0  0  0  0  0
   15.0064   54.5586   89.7252 O   0  0  0  0  0  0  0  0  0  0  0  0
   12.6184   54.7453   89.9861 C   0  0  0  0  0  0  0  0  0  0  0  0
   11.6613   54.3471   91.1051 C   0  0  0  0  0  0  0  0  0  0  0  0
   15.0691   55.4708   90.0489 H   0  0  0  0  0  0  0  0  0  0  0  0
   10.9379   53.0314   90.7365 C   0  0  0  0  0  0  0  0  0  0  0  0
   11.1044   51.9843   91.3571 O   0  0  0  0  0  0  0  0  0  0  0  0
   10.1245   53.1342   89.6289 N   0  0  0  0  0  0  0  0  0  0  0  0
   10.0218   54.0078   89.1867 H   0  0  0  0  0  0  0  0  0  0  0  0
    9.4191   51.9885   89.1022 C   0  0  0  0  0  0  0  0  0  0  0  0
    9.6900   51.8313   87.6276 C   0  0  0  0  0  0  0  0  0  0  0  0
    9.8581   52.9518   86.8037 C   0  0  0  0  0  0  0  0  0  0  0  0
   10.1373   52.7952   85.4421 C   0  0  0  0  0  0  0  0  0  0  0  0
   10.2553   51.5173   84.8783 C   0  0  0  0  0  0  0  0  0  0  0  0
   10.0971   50.3988   85.7063 C   0  0  0  0  0  0  0  0  0  0  0  0
    9.8227   50.5541   87.0677 C   0  0  0  0  0  0  0  0  0  0  0  0
   10.5499   51.3432   83.4553 C   0  0  0  0  0  0  0  0  0  0  0  0
    9.4621   51.9489   82.2647 S   0  0  0  0  0  0  0  0  0  0  0  0
   10.4686   51.3200   81.0450 C   0  0  0  0  0  0  0  0  0  0  0  0
   10.0416   51.5073   79.1831 Br  0  0  0  0  0  0  0  0  0  0  0  0
   11.5569   50.7032   81.4378 N   0  0  0  0  0  0  0  0  0  0  0  0
   11.6148   50.7081   82.8253 C   0  0  0  0  0  0  0  0  0  0  0  0
   12.7851   50.0570   83.4741 C   0  0  0  0  0  0  0  0  0  0  0  0
   10.7077   54.2948   93.9815 C   0  0  0  0  0  0  0  0  0  0  0  0
    8.5486   51.1732   93.8962 C   0  0  0  0  0  0  0  0  0  0  0  0
    8.9190   52.6146   93.6785 C   0  0  0  0  0  0  0  0  0  0  0  0
    8.1999   53.3841   93.0480 O   0  0  0  0  0  0  0  0  0  0  0  0
   10.1030   52.9928   94.2680 N   0  0  0  0  0  0  0  0  0  0  0  0
   10.5510   52.3779   94.8928 H   0  0  0  0  0  0  0  0  0  0  0  0
   10.5924   55.2857   95.1821 C   0  0  0  0  0  0  0  0  0  0  0  0
   10.9597   54.6401   96.5321 C   0  0  0  0  0  0  0  0  0  0  0  0
    9.1420   55.8079   95.2753 C   0  0  0  0  0  0  0  0  0  0  0  0
   11.5142   56.5009   94.9536 C   0  0  0  0  0  0  0  0  0  0  0  0
 29 30  1  0
 30 31  2  0
 30 32  1  0
 28 32  1  0
 28  1  1  0
  1  2  2  0
  1  3  1  0
  3  4  1  0
  4  5  1  0
  5  6  1  0
  5  7  1  0
  7  8  1  0
  8 10  1  0
 10 11  2  0
 10 12  1  0
 12 14  1  0
 14 15  1  0
 15 16  2  0
 16 17  1  0
 17 18  2  0
 18 21  1  0
 21 22  1  0
 22 23  1  0
 23 24  1  0
 23 25  2  0
 25 26  1  0
 26 27  1  0
 18 19  1  0
 19 20  2  0
 28 34  1  0
 34 35  1  0
 34 36  1  0
 34 37  1  0
  8  3  1  0
 20 15  1  0
 26 21  2  0
 32 33  1  0
  6  9  1  0
 12 13  1  0
M  END
> <minimizedAffinity>
-6.92284

> <CNNscore>
0.4791482091

> <CNNaffinity>
5.8984990120

> <CNN_VS>
2.8262553215

> <CNNaffinity_variance>
0.2297204286

$$$$



 37 39  0  0  0  0  0  0  0  0999 V2000
    8.8933   50.2503   86.0842 C   0  0  0  0  0  0  0  0  0  0  0  0
    8.4137   49.1104   86.0899 O   0  0  0  0  0  0  0  0  0  0  0  0
    8.5636   51.1634   87.0604 N   0  0  0  0  0  0  0  0  0  0  0  0
    7.6239   50.8191   88.1147 C   0  0  0  0  0  0  0  0  0  0  0  0
    7.7240   51.9508   89.1420 C   0  0  0  0  0  0  0  0  0  0  0  0
    6.4684   52.3123   89.6935 O   0  0  0  0  0  0  0  0  0  0  0  0
    8.2832   53.1179   88.3286 C   0  0  0  0  0  0  0  0  0  0  0  0
    9.2324   52.4313   87.3516 C   0  0  0  0  0  0  0  0  0  0  0  0
    5.8692   52.5861   88.9815 H   0  0  0  0  0  0  0  0  0  0  0  0
   10.6049   52.2001   88.0248 C   0  0  0  0  0  0  0  0  0  0  0  0
   11.0678   51.0797   88.2239 O   0  0  0  0  0  0  0  0  0  0  0  0
   11.2373   53.3610   88.4135 N   0  0  0  0  0  0  0  0  0  0  0  0
   10.8194   54.2286   88.2087 H   0  0  0  0  0  0  0  0  0  0  0  0
   12.5002   53.3333   89.1149 C   0  0  0  0  0  0  0  0  0  0  0  0
   12.2898   53.5368   90.5937 C   0  0  0  0  0  0  0  0  0  0  0  0
   13.2991   54.0865   91.3949 C   0  0  0  0  0  0  0  0  0  0  0  0
   13.0839   54.2977   92.7608 C   0  0  0  0  0  0  0  0  0  0  0  0
   11.8570   53.9656   93.3516 C   0  0  0  0  0  0  0  0  0  0  0  0
   10.8460   53.4260   92.5462 C   0  0  0  0  0  0  0  0  0  0  0  0
   11.0583   53.2188   91.1807 C   0  0  0  0  0  0  0  0  0  0  0  0
   11.6214   54.1854   94.7792 C   0  0  0  0  0  0  0  0  0  0  0  0
   11.5795   52.8497   95.8662 S   0  0  0  0  0  0  0  0  0  0  0  0
   11.2399   53.9192   97.1457 C   0  0  0  0  0  0  0  0  0  0  0  0
   10.9875   53.2986   98.9444 Br  0  0  0  0  0  0  0  0  0  0  0  0
   11.1632   55.1931   96.8452 N   0  0  0  0  0  0  0  0  0  0  0  0
   11.3795   55.3600   95.4837 C   0  0  0  0  0  0  0  0  0  0  0  0
   11.3390   56.7438   94.9381 C   0  0  0  0  0  0  0  0  0  0  0  0
    9.8845   50.6734   84.9704 C   0  0  0  0  0  0  0  0  0  0  0  0
    8.1670   53.1299   82.6404 C   0  0  0  0  0  0  0  0  0  0  0  0
    8.8345   52.6368   83.8947 C   0  0  0  0  0  0  0  0  0  0  0  0
    9.1202   53.3906   84.8204 O   0  0  0  0  0  0  0  0  0  0  0  0
    9.0630   51.2804   83.9219 N   0  0  0  0  0  0  0  0  0  0  0  0
    8.6676   50.7087   83.2247 H   0  0  0  0  0  0  0  0  0  0  0  0
   11.0111   51.6281   85.4763 C   0  0  0  0  0  0  0  0  0  0  0  0
   12.0129   52.0149   84.3712 C   0  0  0  0  0  0  0  0  0  0  0  0
   11.7920   50.9373   86.6156 C   0  0  0  0  0  0  0  0  0  0  0  0
   10.3912   52.9191   86.0488 C   0  0  0  0  0  0  0  0  0  0  0  0
 29 30  1  0
 30 31  2  0
 30 32  1  0
 28 32  1  0
 28  1  1  0
  1  2  2  0
  1  3  1  0
  3  4  1  0
  4  5  1  0
  5  6  1  0
  5  7  1  0
  7  8  1  0
  8 10  1  0
 10 11  2  0
 10 12  1  0
 12 14  1  0
 14 15  1  0
 15 16  2  0
 16 17  1  0
 17 18  2  0
 18 21  1  0
 21 22  1  0
 22 23  1  0
 23 24  1  0
 23 25  2  0
 25 26  1  0
 26 27  1  0
 18 19  1  0
 19 20  2  0
 28 34  1  0
 34 35  1  0
 34 36  1  0
 34 37  1  0
  8  3  1  0
 20 15  1  0
 26 21  2  0
 32 33  1  0
  6  9  1  0
 12 13  1  0
M  END
> <minimizedAffinity>
-7.19661

> <CNNscore>
0.4081188440

> <CNNaffinity>
6.4173278809

> <CNN_VS>
2.6190323830

> <CNNaffinity_variance>
0.0040475959

$$$$



 37 39  0  0  0  0  0  0  0  0999 V2000
    6.6761   51.9244   87.5237 C   0  0  0  0  0  0  0  0  0  0  0  0
    6.5427   52.7400   88.4436 O   0  0  0  0  0  0  0  0  0  0  0  0
    7.8885   51.7589   86.8928 N   0  0  0  0  0  0  0  0  0  0  0  0
    9.0422   52.5555   87.2769 C   0  0  0  0  0  0  0  0  0  0  0  0
   10.2409   51.9108   86.5744 C   0  0  0  0  0  0  0  0  0  0  0  0
   11.1695   52.8604   86.0772 O   0  0  0  0  0  0  0  0  0  0  0  0
    9.6030   51.1564   85.4080 C   0  0  0  0  0  0  0  0  0  0  0  0
    8.2804   50.6730   85.9946 C   0  0  0  0  0  0  0  0  0  0  0  0
   10.7223   53.4545   85.4544 H   0  0  0  0  0  0  0  0  0  0  0  0
    8.4991   49.3540   86.7709 C   0  0  0  0  0  0  0  0  0  0  0  0
    8.8463   49.3251   87.9489 O   0  0  0  0  0  0  0  0  0  0  0  0
    8.3073   48.2213   86.0098 N   0  0  0  0  0  0  0  0  0  0  0  0
    8.0126   48.3137   85.0750 H   0  0  0  0  0  0  0  0  0  0  0  0
    8.5292   46.9011   86.5533 C   0  0  0  0  0  0  0  0  0  0  0  0
    9.9490   46.4583   86.3072 C   0  0  0  0  0  0  0  0  0  0  0  0
   10.6766   46.9495   85.2154 C   0  0  0  0  0  0  0  0  0  0  0  0
   12.0029   46.5545   85.0117 C   0  0  0  0  0  0  0  0  0  0  0  0
   12.6276   45.6633   85.8949 C   0  0  0  0  0  0  0  0  0  0  0  0
   11.9013   45.1819   86.9915 C   0  0  0  0  0  0  0  0  0  0  0  0
   10.5778   45.5794   87.1985 C   0  0  0  0  0  0  0  0  0  0  0  0
   14.0157   45.2461   85.6918 C   0  0  0  0  0  0  0  0  0  0  0  0
   14.3747   43.8815   84.7037 S   0  0  0  0  0  0  0  0  0  0  0  0
   16.0293   44.0872   85.0446 C   0  0  0  0  0  0  0  0  0  0  0  0
   17.3657   42.9146   84.3213 Br  0  0  0  0  0  0  0  0  0  0  0  0
   16.3507   45.0914   85.8238 N   0  0  0  0  0  0  0  0  0  0  0  0
   15.1988   45.7667   86.2053 C   0  0  0  0  0  0  0  0  0  0  0  0
   15.3495   46.9508   87.0939 C   0  0  0  0  0  0  0  0  0  0  0  0
    5.4714   51.0648   87.0630 C   0  0  0  0  0  0  0  0  0  0  0  0
    4.8015   48.4020   89.6848 C   0  0  0  0  0  0  0  0  0  0  0  0
    5.0842   48.9721   88.3220 C   0  0  0  0  0  0  0  0  0  0  0  0
    5.3215   48.2572   87.3529 O   0  0  0  0  0  0  0  0  0  0  0  0
    5.0223   50.3449   88.2557 N   0  0  0  0  0  0  0  0  0  0  0  0
    4.6702   50.8513   89.0231 H   0  0  0  0  0  0  0  0  0  0  0  0
    4.3309   51.9026   86.4044 C   0  0  0  0  0  0  0  0  0  0  0  0
    4.8599   53.0414   85.5115 C   0  0  0  0  0  0  0  0  0  0  0  0
    3.4512   52.5254   87.5106 C   0  0  0  0  0  0  0  0  0  0  0  0
    3.4305   50.9879   85.5492 C   0  0  0  0  0  0  0  0  0  0  0  0
 29 30  1  0
 30 31  2  0
 30 32  1  0
 28 32  1  0
 28  1  1  0
  1  2  2  0
  1  3  1  0
  3  4  1  0
  4  5  1  0
  5  6  1  0
  5  7  1  0
  7  8  1  0
  8 10  1  0
 10 11  2  0
 10 12  1  0
 12 14  1  0
 14 15  1  0
 15 16  2  0
 16 17  1  0
 17 18  2  0
 18 21  1  0
 21 22  1  0
 22 23  1  0
 23 24  1  0
 23 25  2  0
 25 26  1  0
 26 27  1  0
 18 19  1  0
 19 20  2  0
 28 34  1  0
 34 35  1  0
 34 36  1  0
 34 37  1  0
  8  3  1  0
 20 15  1  0
 26 21  2  0
 32 33  1  0
  6  9  1  0
 12 13  1  0
M  END
> <minimizedAffinity>
-5.62355

> <CNNscore>
0.3069936037

> <CNNaffinity>
5.0239396095

> <CNN_VS>
1.5423172712

> <CNNaffinity_variance>
1.0709395409

$$$$



 37 39  0  0  0  0  0  0  0  0999 V2000
    9.7593   49.2069   87.6454 C   0  0  0  0  0  0  0  0  0  0  0  0
    9.3599   48.1582   88.1651 O   0  0  0  0  0  0  0  0  0  0  0  0
    9.3138   50.4322   88.0877 N   0  0  0  0  0  0  0  0  0  0  0  0
    8.3430   50.5264   89.1656 C   0  0  0  0  0  0  0  0  0  0  0  0
    8.3076   52.0059   89.5605 C   0  0  0  0  0  0  0  0  0  0  0  0
    7.0014   52.4686   89.8622 O   0  0  0  0  0  0  0  0  0  0  0  0
    8.8293   52.7173   88.3123 C   0  0  0  0  0  0  0  0  0  0  0  0
    9.8764   51.7461   87.7764 C   0  0  0  0  0  0  0  0  0  0  0  0
    6.4252   52.3345   89.0935 H   0  0  0  0  0  0  0  0  0  0  0  0
   11.2220   51.9672   88.5048 C   0  0  0  0  0  0  0  0  0  0  0  0
   11.9026   51.0419   88.9403 O   0  0  0  0  0  0  0  0  0  0  0  0
   11.5636   53.2939   88.6533 N   0  0  0  0  0  0  0  0  0  0  0  0
   10.9818   53.9871   88.2657 H   0  0  0  0  0  0  0  0  0  0  0  0
   12.7568   53.6903   89.3652 C   0  0  0  0  0  0  0  0  0  0  0  0
   12.4600   53.8841   90.8304 C   0  0  0  0  0  0  0  0  0  0  0  0
   11.2145   53.5295   91.3650 C   0  0  0  0  0  0  0  0  0  0  0  0
   10.9587   53.6867   92.7312 C   0  0  0  0  0  0  0  0  0  0  0  0
   11.9417   54.1992   93.5889 C   0  0  0  0  0  0  0  0  0  0  0  0
   13.1896   54.5431   93.0536 C   0  0  0  0  0  0  0  0  0  0  0  0
   13.4478   54.3822   91.6898 C   0  0  0  0  0  0  0  0  0  0  0  0
   11.6845   54.3649   95.0201 C   0  0  0  0  0  0  0  0  0  0  0  0
   11.8511   53.0260   96.0912 S   0  0  0  0  0  0  0  0  0  0  0  0
   11.3621   54.0177   97.3849 C   0  0  0  0  0  0  0  0  0  0  0  0
   11.2173   53.3460   99.1772 Br  0  0  0  0  0  0  0  0  0  0  0  0
   11.0924   55.2688   97.1001 N   0  0  0  0  0  0  0  0  0  0  0  0
   11.2726   55.4816   95.7397 C   0  0  0  0  0  0  0  0  0  0  0  0
   11.0206   56.8496   95.2110 C   0  0  0  0  0  0  0  0  0  0  0  0
   10.7794   49.1600   86.4794 C   0  0  0  0  0  0  0  0  0  0  0  0
   13.7052   47.4800   88.2201 C   0  0  0  0  0  0  0  0  0  0  0  0
   12.2720   47.7360   87.8428 C   0  0  0  0  0  0  0  0  0  0  0  0
   11.3618   46.9936   88.1990 O   0  0  0  0  0  0  0  0  0  0  0  0
   12.0745   48.8772   87.1002 N   0  0  0  0  0  0  0  0  0  0  0  0
   12.8163   49.5140   86.9845 H   0  0  0  0  0  0  0  0  0  0  0  0
   10.4063   48.1231   85.3738 C   0  0  0  0  0  0  0  0  0  0  0  0
   11.5551   47.1484   85.0511 C   0  0  0  0  0  0  0  0  0  0  0  0
   10.0305   48.8729   84.0769 C   0  0  0  0  0  0  0  0  0  0  0  0
    9.1767   47.3023   85.8134 C   0  0  0  0  0  0  0  0  0  0  0  0
 29 30  1  0
 30 31  2  0
 30 32  1  0
 28 32  1  0
 28  1  1  0
  1  2  2  0
  1  3  1  0
  3  4  1  0
  4  5  1  0
  5  6  1  0
  5  7  1  0
  7  8  1  0
  8 10  1  0
 10 11  2  0
 10 12  1  0
 12 14  1  0
 14 15  1  0
 15 16  2  0
 16 17  1  0
 17 18  2  0
 18 21  1  0
 21 22  1  0
 22 23  1  0
 23 24  1  0
 23 25  2  0
 25 26  1  0
 26 27  1  0
 18 19  1  0
 19 20  2  0
 28 34  1  0
 34 35  1  0
 34 36  1  0
 34 37  1  0
  8  3  1  0
 20 15  1  0
 26 21  2  0
 32 33  1  0
  6  9  1  0
 12 13  1  0
M  END
> <minimizedAffinity>
-6.71123

> <CNNscore>
0.2894593775

> <CNNaffinity>
5.8002018929

> <CNN_VS>
1.6789227724

> <CNNaffinity_variance>
0.1270941049

$$$$



 37 39  0  0  0  0  0  0  0  0999 V2000
    8.2936   48.9131   86.8853 C   0  0  0  0  0  0  0  0  0  0  0  0
    8.4785   48.4413   85.7572 O   0  0  0  0  0  0  0  0  0  0  0  0
    9.0165   48.4661   87.9683 N   0  0  0  0  0  0  0  0  0  0  0  0
   10.0040   47.4098   87.8192 C   0  0  0  0  0  0  0  0  0  0  0  0
   10.7810   47.3824   89.1389 C   0  0  0  0  0  0  0  0  0  0  0  0
   11.0984   46.0688   89.5690 O   0  0  0  0  0  0  0  0  0  0  0  0
    9.8146   48.0288   90.1313 C   0  0  0  0  0  0  0  0  0  0  0  0
    9.1155   49.0900   89.2876 C   0  0  0  0  0  0  0  0  0  0  0  0
   10.2812   45.5568   89.6746 H   0  0  0  0  0  0  0  0  0  0  0  0
    9.9750   50.3741   89.2380 C   0  0  0  0  0  0  0  0  0  0  0  0
   11.1267   50.3876   88.8108 O   0  0  0  0  0  0  0  0  0  0  0  0
    9.3446   51.4866   89.7517 N   0  0  0  0  0  0  0  0  0  0  0  0
    8.4136   51.4116   90.0628 H   0  0  0  0  0  0  0  0  0  0  0  0
   10.0197   52.7607   89.8438 C   0  0  0  0  0  0  0  0  0  0  0  0
   10.2648   53.1278   91.2852 C   0  0  0  0  0  0  0  0  0  0  0  0
   11.5384   53.5143   91.7225 C   0  0  0  0  0  0  0  0  0  0  0  0
   11.7493   53.8804   93.0560 C   0  0  0  0  0  0  0  0  0  0  0  0
   10.6927   53.8688   93.9769 C   0  0  0  0  0  0  0  0  0  0  0  0
    9.4182   53.4919   93.5347 C   0  0  0  0  0  0  0  0  0  0  0  0
    9.2053   53.1305   92.2017 C   0  0  0  0  0  0  0  0  0  0  0  0
   10.9029   54.2526   95.3734 C   0  0  0  0  0  0  0  0  0  0  0  0
   11.2870   53.0568   96.5525 S   0  0  0  0  0  0  0  0  0  0  0  0
   11.2992   54.2635   97.7524 C   0  0  0  0  0  0  0  0  0  0  0  0
   11.6622   53.8578   99.5930 Br  0  0  0  0  0  0  0  0  0  0  0  0
   11.0530   55.4897   97.3586 N   0  0  0  0  0  0  0  0  0  0  0  0
   10.8211   55.4969   95.9895 C   0  0  0  0  0  0  0  0  0  0  0  0
   10.5256   56.8036   95.3417 C   0  0  0  0  0  0  0  0  0  0  0  0
    7.2379   50.0273   87.1009 C   0  0  0  0  0  0  0  0  0  0  0  0
    8.1610   52.7535   84.6253 C   0  0  0  0  0  0  0  0  0  0  0  0
    7.9638   52.1007   85.9658 C   0  0  0  0  0  0  0  0  0  0  0  0
    8.3258   52.6345   87.0101 O   0  0  0  0  0  0  0  0  0  0  0  0
    7.3227   50.8844   85.9174 N   0  0  0  0  0  0  0  0  0  0  0  0
    6.9142   50.5857   85.0729 H   0  0  0  0  0  0  0  0  0  0  0  0
    5.7972   49.4755   87.3386 C   0  0  0  0  0  0  0  0  0  0  0  0
    4.7347   50.1732   86.4678 C   0  0  0  0  0  0  0  0  0  0  0  0
    5.4128   49.6741   88.8211 C   0  0  0  0  0  0  0  0  0  0  0  0
    5.7562   47.9624   87.0426 C   0  0  0  0  0  0  0  0  0  0  0  0
 29 30  1  0
 30 31  2  0
 30 32  1  0
 28 32  1  0
 28  1  1  0
  1  2  2  0
  1  3  1  0
  3  4  1  0
  4  5  1  0
  5  6  1  0
  5  7  1  0
  7  8  1  0
  8 10  1  0
 10 11  2  0
 10 12  1  0
 12 14  1  0
 14 15  1  0
 15 16  2  0
 16 17  1  0
 17 18  2  0
 18 21  1  0
 21 22  1  0
 22 23  1  0
 23 24  1  0
 23 25  2  0
 25 26  1  0
 26 27  1  0
 18 19  1  0
 19 20  2  0
 28 34  1  0
 34 35  1  0
 34 36  1  0
 34 37  1  0
  8  3  1  0
 20 15  1  0
 26 21  2  0
 32 33  1  0
  6  9  1  0
 12 13  1  0
M  END
> <minimizedAffinity>
-5.43855

> <CNNscore>
0.2459008098

> <CNNaffinity>
5.3392791748

> <CNN_VS>
1.3129330873

> <CNNaffinity_variance>
0.1658859104

$$$$



 37 39  0  0  0  0  0  0  0  0999 V2000
    8.4880   49.8703   88.8909 C   0  0  0  0  0  0  0  0  0  0  0  0
    7.8187   49.1649   89.6550 O   0  0  0  0  0  0  0  0  0  0  0  0
    8.4302   51.2440   88.9606 N   0  0  0  0  0  0  0  0  0  0  0  0
    7.5625   51.9046   89.9218 C   0  0  0  0  0  0  0  0  0  0  0  0
    7.9691   53.3812   89.8977 C   0  0  0  0  0  0  0  0  0  0  0  0
    6.8628   54.2632   89.9958 O   0  0  0  0  0  0  0  0  0  0  0  0
    8.6350   53.5420   88.5312 C   0  0  0  0  0  0  0  0  0  0  0  0
    9.3389   52.2033   88.3330 C   0  0  0  0  0  0  0  0  0  0  0  0
    6.2487   54.0942   89.2642 H   0  0  0  0  0  0  0  0  0  0  0  0
   10.7130   52.2206   89.0413 C   0  0  0  0  0  0  0  0  0  0  0  0
   11.2849   51.1973   89.4088 O   0  0  0  0  0  0  0  0  0  0  0  0
   11.2136   53.4865   89.2552 N   0  0  0  0  0  0  0  0  0  0  0  0
   10.7128   54.2651   88.9203 H   0  0  0  0  0  0  0  0  0  0  0  0
   12.4572   53.6965   89.9602 C   0  0  0  0  0  0  0  0  0  0  0  0
   12.2052   53.8874   91.4341 C   0  0  0  0  0  0  0  0  0  0  0  0
   10.9637   53.5676   91.9989 C   0  0  0  0  0  0  0  0  0  0  0  0
   10.7488   53.7215   93.3725 C   0  0  0  0  0  0  0  0  0  0  0  0
   11.7697   54.1958   94.2076 C   0  0  0  0  0  0  0  0  0  0  0  0
   13.0133   54.5049   93.6421 C   0  0  0  0  0  0  0  0  0  0  0  0
   13.2304   54.3472   92.2707 C   0  0  0  0  0  0  0  0  0  0  0  0
   11.5554   54.3576   95.6463 C   0  0  0  0  0  0  0  0  0  0  0  0
   11.8345   53.0380   96.7178 S   0  0  0  0  0  0  0  0  0  0  0  0
   11.3382   54.0107   98.0231 C   0  0  0  0  0  0  0  0  0  0  0  0
   11.2955   53.3454   99.8230 Br  0  0  0  0  0  0  0  0  0  0  0  0
   10.9895   55.2428   97.7415 N   0  0  0  0  0  0  0  0  0  0  0  0
   11.1086   55.4552   96.3744 C   0  0  0  0  0  0  0  0  0  0  0  0
   10.7623   56.8033   95.8479 C   0  0  0  0  0  0  0  0  0  0  0  0
    9.4138   49.2147   87.8347 C   0  0  0  0  0  0  0  0  0  0  0  0
   10.3980   51.5840   85.0363 C   0  0  0  0  0  0  0  0  0  0  0  0
   10.0028   50.2860   85.6854 C   0  0  0  0  0  0  0  0  0  0  0  0
    9.7560   49.2781   85.0297 O   0  0  0  0  0  0  0  0  0  0  0  0
    9.9745   50.3231   87.0603 N   0  0  0  0  0  0  0  0  0  0  0  0
   10.3374   51.1079   87.5311 H   0  0  0  0  0  0  0  0  0  0  0  0
   10.5160   48.3033   88.4601 C   0  0  0  0  0  0  0  0  0  0  0  0
   10.2485   46.8014   88.2438 C   0  0  0  0  0  0  0  0  0  0  0  0
   10.5934   48.5660   89.9801 C   0  0  0  0  0  0  0  0  0  0  0  0
   11.8919   48.6478   87.8544 C   0  0  0  0  0  0  0  0  0  0  0  0
 29 30  1  0
 30 31  2  0
 30 32  1  0
 28 32  1  0
 28  1  1  0
  1  2  2  0
  1  3  1  0
  3  4  1  0
  4  5  1  0
  5  6  1  0
  5  7  1  0
  7  8  1  0
  8 10  1  0
 10 11  2  0
 10 12  1  0
 12 14  1  0
 14 15  1  0
 15 16  2  0
 16 17  1  0
 17 18  2  0
 18 21  1  0
 21 22  1  0
 22 23  1  0
 23 24  1  0
 23 25  2  0
 25 26  1  0
 26 27  1  0
 18 19  1  0
 19 20  2  0
 28 34  1  0
 34 35  1  0
 34 36  1  0
 34 37  1  0
  8  3  1  0
 20 15  1  0
 26 21  2  0
 32 33  1  0
  6  9  1  0
 12 13  1  0
M  END
> <minimizedAffinity>
-5.89308

> <CNNscore>
0.2321717590

> <CNNaffinity>
5.6223087311

> <CNN_VS>
1.3053413630

> <CNNaffinity_variance>
0.2285600901

$$$$



 37 39  0  0  0  0  0  0  0  0999 V2000
   10.2127   49.8288   86.8909 C   0  0  0  0  0  0  0  0  0  0  0  0
    9.7598   48.6948   87.0863 O   0  0  0  0  0  0  0  0  0  0  0  0
    9.7024   50.9207   87.5563 N   0  0  0  0  0  0  0  0  0  0  0  0
    8.6002   50.7735   88.4926 C   0  0  0  0  0  0  0  0  0  0  0  0
    8.5002   52.1144   89.2260 C   0  0  0  0  0  0  0  0  0  0  0  0
    7.1617   52.5193   89.4624 O   0  0  0  0  0  0  0  0  0  0  0  0
    9.1713   53.0943   88.2638 C   0  0  0  0  0  0  0  0  0  0  0  0
   10.2877   52.2582   87.6462 C   0  0  0  0  0  0  0  0  0  0  0  0
    6.6904   52.5872   88.6173 H   0  0  0  0  0  0  0  0  0  0  0  0
   11.5263   52.2676   88.5714 C   0  0  0  0  0  0  0  0  0  0  0  0
   12.0137   51.2423   89.0409 O   0  0  0  0  0  0  0  0  0  0  0  0
   12.0045   53.5297   88.8494 N   0  0  0  0  0  0  0  0  0  0  0  0
   11.5780   54.3099   88.4268 H   0  0  0  0  0  0  0  0  0  0  0  0
   13.1180   53.7334   89.7474 C   0  0  0  0  0  0  0  0  0  0  0  0
   12.6300   53.9361   91.1593 C   0  0  0  0  0  0  0  0  0  0  0  0
   11.3044   53.6490   91.5103 C   0  0  0  0  0  0  0  0  0  0  0  0
   10.8688   53.8133   92.8293 C   0  0  0  0  0  0  0  0  0  0  0  0
   11.7485   54.2657   93.8223 C   0  0  0  0  0  0  0  0  0  0  0  0
   13.0759   54.5421   93.4708 C   0  0  0  0  0  0  0  0  0  0  0  0
   13.5134   54.3739   92.1544 C   0  0  0  0  0  0  0  0  0  0  0  0
   11.3029   54.4382   95.2056 C   0  0  0  0  0  0  0  0  0  0  0  0
   11.1255   53.0692   96.2360 S   0  0  0  0  0  0  0  0  0  0  0  0
   10.5840   54.0942   97.4819 C   0  0  0  0  0  0  0  0  0  0  0  0
   10.0821   53.4153   99.2057 Br  0  0  0  0  0  0  0  0  0  0  0  0
   10.5301   55.3758   97.2100 N   0  0  0  0  0  0  0  0  0  0  0  0
   10.9403   55.5873   95.9003 C   0  0  0  0  0  0  0  0  0  0  0  0
   10.9561   56.9867   95.3945 C   0  0  0  0  0  0  0  0  0  0  0  0
   11.3745   50.0421   85.8875 C   0  0  0  0  0  0  0  0  0  0  0  0
   11.8353   46.5404   84.4951 C   0  0  0  0  0  0  0  0  0  0  0  0
   11.1007   47.7779   84.9322 C   0  0  0  0  0  0  0  0  0  0  0  0
    9.8969   47.9228   84.7410 O   0  0  0  0  0  0  0  0  0  0  0  0
   11.8829   48.7036   85.5833 N   0  0  0  0  0  0  0  0  0  0  0  0
   12.7995   48.4618   85.8489 H   0  0  0  0  0  0  0  0  0  0  0  0
   10.9484   50.8261   84.6068 C   0  0  0  0  0  0  0  0  0  0  0  0
   11.3545   52.3119   84.6481 C   0  0  0  0  0  0  0  0  0  0  0  0
    9.4141   50.7492   84.4482 C   0  0  0  0  0  0  0  0  0  0  0  0
   11.5815   50.1801   83.3575 C   0  0  0  0  0  0  0  0  0  0  0  0
 29 30  1  0
 30 31  2  0
 30 32  1  0
 28 32  1  0
 28  1  1  0
  1  2  2  0
  1  3  1  0
  3  4  1  0
  4  5  1  0
  5  6  1  0
  5  7  1  0
  7  8  1  0
  8 10  1  0
 10 11  2  0
 10 12  1  0
 12 14  1  0
 14 15  1  0
 15 16  2  0
 16 17  1  0
 17 18  2  0
 18 21  1  0
 21 22  1  0
 22 23  1  0
 23 24  1  0
 23 25  2  0
 25 26  1  0
 26 27  1  0
 18 19  1  0
 19 20  2  0
 28 34  1  0
 34 35  1  0
 34 36  1  0
 34 37  1  0
  8  3  1  0
 20 15  1  0
 26 21  2  0
 32 33  1  0
  6  9  1  0
 12 13  1  0
M  END
> <minimizedAffinity>
-6.94690

> <CNNscore>
0.2298439741

> <CNNaffinity>
5.6228618622

> <CNN_VS>
1.2923809290

> <CNNaffinity_variance>
0.3623725176

$$$$



 37 39  0  0  0  0  0  0  0  0999 V2000
    9.3662   50.5529   89.0931 C   0  0  0  0  0  0  0  0  0  0  0  0
    8.5297   50.7681   89.9781 O   0  0  0  0  0  0  0  0  0  0  0  0
    9.2649   51.1559   87.8596 N   0  0  0  0  0  0  0  0  0  0  0  0
    8.1575   52.0472   87.5556 C   0  0  0  0  0  0  0  0  0  0  0  0
    8.5266   52.7275   86.2338 C   0  0  0  0  0  0  0  0  0  0  0  0
    7.4178   52.8899   85.3646 O   0  0  0  0  0  0  0  0  0  0  0  0
    9.5329   51.7618   85.6084 C   0  0  0  0  0  0  0  0  0  0  0  0
   10.2902   51.2242   86.8185 C   0  0  0  0  0  0  0  0  0  0  0  0
    7.0270   52.0229   85.1736 H   0  0  0  0  0  0  0  0  0  0  0  0
   11.4220   52.2024   87.2089 C   0  0  0  0  0  0  0  0  0  0  0  0
   12.2584   52.6068   86.4052 O   0  0  0  0  0  0  0  0  0  0  0  0
   11.4272   52.5441   88.5439 N   0  0  0  0  0  0  0  0  0  0  0  0
   10.7176   52.1980   89.1320 H   0  0  0  0  0  0  0  0  0  0  0  0
   12.4509   53.3989   89.0996 C   0  0  0  0  0  0  0  0  0  0  0  0
   12.2243   53.6068   90.5754 C   0  0  0  0  0  0  0  0  0  0  0  0
   10.9666   53.3791   91.1490 C   0  0  0  0  0  0  0  0  0  0  0  0
   10.7736   53.5474   92.5242 C   0  0  0  0  0  0  0  0  0  0  0  0
   11.8326   53.9444   93.3520 C   0  0  0  0  0  0  0  0  0  0  0  0
   13.0916   54.1612   92.7775 C   0  0  0  0  0  0  0  0  0  0  0  0
   13.2867   53.9890   91.4046 C   0  0  0  0  0  0  0  0  0  0  0  0
   11.6412   54.1206   94.7922 C   0  0  0  0  0  0  0  0  0  0  0  0
   11.6163   52.7511   95.8370 S   0  0  0  0  0  0  0  0  0  0  0  0
   11.3261   53.7823   97.1593 C   0  0  0  0  0  0  0  0  0  0  0  0
   11.1195   53.1069   98.9441 Br  0  0  0  0  0  0  0  0  0  0  0  0
   11.2548   55.0660   96.9019 N   0  0  0  0  0  0  0  0  0  0  0  0
   11.4330   55.2743   95.5406 C   0  0  0  0  0  0  0  0  0  0  0  0
   11.3919   56.6753   95.0408 C   0  0  0  0  0  0  0  0  0  0  0  0
   10.5550   49.5949   89.3603 C   0  0  0  0  0  0  0  0  0  0  0  0
   12.4498   50.2465   92.5850 C   0  0  0  0  0  0  0  0  0  0  0  0
   12.2334   49.8028   91.1642 C   0  0  0  0  0  0  0  0  0  0  0  0
   13.1620   49.4502   90.4430 O   0  0  0  0  0  0  0  0  0  0  0  0
   10.9172   49.7987   90.7638 N   0  0  0  0  0  0  0  0  0  0  0  0
   10.2074   49.9351   91.4322 H   0  0  0  0  0  0  0  0  0  0  0  0
   10.2307   48.1028   89.0363 C   0  0  0  0  0  0  0  0  0  0  0  0
   10.0461   47.2395   90.2991 C   0  0  0  0  0  0  0  0  0  0  0  0
   11.3826   47.4995   88.2030 C   0  0  0  0  0  0  0  0  0  0  0  0
    8.9441   48.0141   88.1903 C   0  0  0  0  0  0  0  0  0  0  0  0
 29 30  1  0
 30 31  2  0
 30 32  1  0
 28 32  1  0
 28  1  1  0
  1  2  2  0
  1  3  1  0
  3  4  1  0
  4  5  1  0
  5  6  1  0
  5  7  1  0
  7  8  1  0
  8 10  1  0
 10 11  2  0
 10 12  1  0
 12 14  1  0
 14 15  1  0
 15 16  2  0
 16 17  1  0
 17 18  2  0
 18 21  1  0
 21 22  1  0
 22 23  1  0
 23 24  1  0
 23 25  2  0
 25 26  1  0
 26 27  1  0
 18 19  1  0
 19 20  2  0
 28 34  1  0
 34 35  1  0
 34 36  1  0
 34 37  1  0
  8  3  1  0
 20 15  1  0
 26 21  2  0
 32 33  1  0
  6  9  1  0
 12 13  1  0
M  END
> <minimizedAffinity>
-5.90020

> <CNNscore>
0.2043761760

> <CNNaffinity>
5.2147641182

> <CNN_VS>
1.0657736063

> <CNNaffinity_variance>
0.5365315080

$$$$
