


 32 34  0  0  0  0  0  0  0  0999 V2000
   91.9229   93.6111  -43.6651 C   0  0  0  0  0  0  0  0  0  0  0  0
   91.9698   92.6778  -44.7055 C   0  0  0  0  0  0  0  0  0  0  0  0
   91.5012   93.0185  -45.9747 C   0  0  0  0  0  0  0  0  0  0  0  0
   90.9864   94.2954  -46.2100 C   0  0  0  0  0  0  0  0  0  0  0  0
   90.9350   95.2526  -45.1807 C   0  0  0  0  0  0  0  0  0  0  0  0
   91.4033   94.8937  -43.9064 C   0  0  0  0  0  0  0  0  0  0  0  0
   91.3155   95.8302  -42.9080 O   0  0  0  0  0  0  0  0  0  0  0  0
   90.9654   96.6797  -43.0920 H   0  0  0  0  0  0  0  0  0  0  0  0
   92.8051   92.8910  -41.2883 C   0  0  0  0  0  0  0  0  0  0  0  0
   92.4028   93.2169  -42.3719 C   0  0  0  0  0  0  0  0  0  0  0  0
   91.5486   92.0588  -47.0338 C   0  0  0  0  0  0  0  0  0  0  0  0
   91.5760   91.2477  -47.9194 C   0  0  0  0  0  0  0  0  0  0  0  0
   91.5955   90.2551  -49.0001 C   0  0  0  0  0  0  0  0  0  0  0  0
   90.9669   90.7591  -50.1808 O   0  0  0  0  0  0  0  0  0  0  0  0
   89.6155   90.5978  -50.3158 C   0  0  0  0  0  0  0  0  0  0  0  0
   88.7196   91.5351  -50.8315 C   0  0  0  0  0  0  0  0  0  0  0  0
   87.3551   91.2370  -50.9042 C   0  0  0  0  0  0  0  0  0  0  0  0
   86.8796   90.0051  -50.4584 C   0  0  0  0  0  0  0  0  0  0  0  0
   87.7673   89.0698  -49.9334 C   0  0  0  0  0  0  0  0  0  0  0  0
   89.1289   89.3688  -49.8606 C   0  0  0  0  0  0  0  0  0  0  0  0
   90.3937   96.6376  -45.4712 C   0  0  0  0  0  0  0  0  0  0  0  0
   90.8384   97.6671  -44.5112 N   0  0  0  0  0  0  0  0  0  0  0  0
   91.8846   98.5323  -45.0619 C   0  0  0  0  0  0  0  0  0  0  0  0
   92.3469   99.5828  -44.0484 C   0  0  0  0  0  0  0  0  0  0  0  0
   91.1774  100.4570  -43.5498 C   0  0  0  0  0  0  0  0  0  0  0  0
   90.0884   99.5025  -43.0182 C   0  0  0  0  0  0  0  0  0  0  0  0
   89.6895   98.4612  -44.0644 C   0  0  0  0  0  0  0  0  0  0  0  0
   91.5829  101.4468  -42.5248 N   0  0  0  0  0  0  0  0  0  0  0  0
   92.4189  102.5610  -42.9929 C   0  0  0  0  0  0  0  0  0  0  0  0
   93.8934  102.5492  -42.5980 C   0  0  0  0  0  0  0  0  0  0  0  0
   91.9950  100.9163  -41.2204 C   0  0  0  0  0  0  0  0  0  0  0  0
   91.5002  101.6582  -39.9848 C   0  0  0  0  0  0  0  0  0  0  0  0
  9 10  3  0
 10  1  1  0
  1  2  2  0
  2  3  1  0
  3 11  1  0
 11 12  3  0
 12 13  1  0
 13 14  1  0
 14 15  1  0
 15 16  2  0
 16 17  1  0
 17 18  2  0
 18 19  1  0
 19 20  2  0
  3  4  2  0
  4  5  1  0
  5 21  1  0
 21 22  1  0
 22 23  1  0
 23 24  1  0
 24 25  1  0
 25 28  1  0
 28 29  1  0
 29 30  1  0
 28 31  1  0
 31 32  1  0
 25 26  1  0
 26 27  1  0
  5  6  2  0
  6  7  1  0
  6  1  1  0
 20 15  1  0
 27 22  1  0
  7  8  1  0
M  END
> <minimizedAffinity>
-7.34281

> <CNNscore>
0.9377467036

> <CNNaffinity>
5.2629637718

> <CNN_VS>
4.9353270531

> <CNNaffinity_variance>
1.2620055676

$$$$



 32 34  0  0  0  0  0  0  0  0999 V2000
   91.9291   93.6175  -43.7235 C   0  0  0  0  0  0  0  0  0  0  0  0
   91.9309   92.7055  -44.7835 C   0  0  0  0  0  0  0  0  0  0  0  0
   91.4461   93.0847  -46.0356 C   0  0  0  0  0  0  0  0  0  0  0  0
   90.9603   94.3791  -46.2340 C   0  0  0  0  0  0  0  0  0  0  0  0
   90.9544   95.3154  -45.1845 C   0  0  0  0  0  0  0  0  0  0  0  0
   91.4384   94.9178  -43.9276 C   0  0  0  0  0  0  0  0  0  0  0  0
   91.3951   95.8351  -42.9087 O   0  0  0  0  0  0  0  0  0  0  0  0
   91.0636   96.6969  -43.0680 H   0  0  0  0  0  0  0  0  0  0  0  0
   92.8358   92.8234  -41.3798 C   0  0  0  0  0  0  0  0  0  0  0  0
   92.4243   93.1840  -42.4488 C   0  0  0  0  0  0  0  0  0  0  0  0
   91.4473   92.1467  -47.1149 C   0  0  0  0  0  0  0  0  0  0  0  0
   91.4500   91.3692  -48.0307 C   0  0  0  0  0  0  0  0  0  0  0  0
   91.4593   90.4292  -49.1575 C   0  0  0  0  0  0  0  0  0  0  0  0
   90.4565   89.4222  -49.0032 O   0  0  0  0  0  0  0  0  0  0  0  0
   89.6042   89.1898  -50.0472 C   0  0  0  0  0  0  0  0  0  0  0  0
   89.0148   87.9683  -50.3755 C   0  0  0  0  0  0  0  0  0  0  0  0
   88.1640   87.8733  -51.4815 C   0  0  0  0  0  0  0  0  0  0  0  0
   87.9026   88.9952  -52.2661 C   0  0  0  0  0  0  0  0  0  0  0  0
   88.4958   90.2143  -51.9494 C   0  0  0  0  0  0  0  0  0  0  0  0
   89.3454   90.3076  -50.8458 C   0  0  0  0  0  0  0  0  0  0  0  0
   90.4437   96.7196  -45.4354 C   0  0  0  0  0  0  0  0  0  0  0  0
   91.0381   97.7395  -44.5489 N   0  0  0  0  0  0  0  0  0  0  0  0
   92.1359   98.4679  -45.1896 C   0  0  0  0  0  0  0  0  0  0  0  0
   92.7526   99.5092  -44.2516 C   0  0  0  0  0  0  0  0  0  0  0  0
   91.7037  100.5197  -43.7424 C   0  0  0  0  0  0  0  0  0  0  0  0
   90.5534   99.7061  -43.1144 C   0  0  0  0  0  0  0  0  0  0  0  0
   89.9989   98.6661  -44.0883 C   0  0  0  0  0  0  0  0  0  0  0  0
   92.2585  101.5070  -42.7873 N   0  0  0  0  0  0  0  0  0  0  0  0
   91.5478  101.6433  -41.5082 C   0  0  0  0  0  0  0  0  0  0  0  0
   92.2891  101.2210  -40.2424 C   0  0  0  0  0  0  0  0  0  0  0  0
   92.7050  102.7881  -43.3460 C   0  0  0  0  0  0  0  0  0  0  0  0
   94.0988  103.2643  -42.9553 C   0  0  0  0  0  0  0  0  0  0  0  0
  9 10  3  0
 10  1  1  0
  1  2  2  0
  2  3  1  0
  3 11  1  0
 11 12  3  0
 12 13  1  0
 13 14  1  0
 14 15  1  0
 15 16  2  0
 16 17  1  0
 17 18  2  0
 18 19  1  0
 19 20  2  0
  3  4  2  0
  4  5  1  0
  5 21  1  0
 21 22  1  0
 22 23  1  0
 23 24  1  0
 24 25  1  0
 25 28  1  0
 28 29  1  0
 29 30  1  0
 28 31  1  0
 31 32  1  0
 25 26  1  0
 26 27  1  0
  5  6  2  0
  6  7  1  0
  6  1  1  0
 20 15  1  0
 27 22  1  0
  7  8  1  0
M  END
> <minimizedAffinity>
-7.13879

> <CNNscore>
0.9334861636

> <CNNaffinity>
5.2178578377

> <CNN_VS>
4.8707981110

> <CNNaffinity_variance>
1.1091371775

$$$$



 32 34  0  0  0  0  0  0  0  0999 V2000
   91.7399   93.9385  -43.7741 C   0  0  0  0  0  0  0  0  0  0  0  0
   91.7778   92.9722  -44.7842 C   0  0  0  0  0  0  0  0  0  0  0  0
   91.3590   93.2915  -46.0762 C   0  0  0  0  0  0  0  0  0  0  0  0
   90.9032   94.5799  -46.3645 C   0  0  0  0  0  0  0  0  0  0  0  0
   90.8621   95.5700  -45.3663 C   0  0  0  0  0  0  0  0  0  0  0  0
   91.2798   95.2326  -44.0687 C   0  0  0  0  0  0  0  0  0  0  0  0
   91.2023   96.2025  -43.1019 O   0  0  0  0  0  0  0  0  0  0  0  0
   90.8923   97.0591  -43.3213 H   0  0  0  0  0  0  0  0  0  0  0  0
   92.5289   93.2562  -41.3538 C   0  0  0  0  0  0  0  0  0  0  0  0
   92.1674   93.5661  -42.4563 C   0  0  0  0  0  0  0  0  0  0  0  0
   91.3968   92.2983  -47.1042 C   0  0  0  0  0  0  0  0  0  0  0  0
   91.4151   91.4608  -47.9652 C   0  0  0  0  0  0  0  0  0  0  0  0
   91.4235   90.4379  -49.0174 C   0  0  0  0  0  0  0  0  0  0  0  0
   90.1962   89.7053  -49.0405 O   0  0  0  0  0  0  0  0  0  0  0  0
   89.4762   89.6821  -50.2030 C   0  0  0  0  0  0  0  0  0  0  0  0
   88.7757   88.5909  -50.7186 C   0  0  0  0  0  0  0  0  0  0  0  0
   88.0850   88.7075  -51.9291 C   0  0  0  0  0  0  0  0  0  0  0  0
   88.0950   89.9114  -52.6313 C   0  0  0  0  0  0  0  0  0  0  0  0
   88.8005   91.0006  -52.1269 C   0  0  0  0  0  0  0  0  0  0  0  0
   89.4901   90.8827  -50.9191 C   0  0  0  0  0  0  0  0  0  0  0  0
   90.3857   96.9657  -45.7138 C   0  0  0  0  0  0  0  0  0  0  0  0
   89.0839   97.3199  -45.1145 N   0  0  0  0  0  0  0  0  0  0  0  0
   89.1209   98.6061  -44.4139 C   0  0  0  0  0  0  0  0  0  0  0  0
   87.7687   98.9503  -43.7835 C   0  0  0  0  0  0  0  0  0  0  0  0
   86.6346   98.9758  -44.8293 C   0  0  0  0  0  0  0  0  0  0  0  0
   86.6618   97.6204  -45.5653 C   0  0  0  0  0  0  0  0  0  0  0  0
   88.0434   97.3209  -46.1478 C   0  0  0  0  0  0  0  0  0  0  0  0
   85.3029   99.2506  -44.2412 N   0  0  0  0  0  0  0  0  0  0  0  0
   84.4723   98.0768  -43.9379 C   0  0  0  0  0  0  0  0  0  0  0  0
   83.5365   97.5742  -45.0342 C   0  0  0  0  0  0  0  0  0  0  0  0
   84.5454  100.3689  -44.8142 C   0  0  0  0  0  0  0  0  0  0  0  0
   83.2322  100.7351  -44.1334 C   0  0  0  0  0  0  0  0  0  0  0  0
  9 10  3  0
 10  1  1  0
  1  2  2  0
  2  3  1  0
  3 11  1  0
 11 12  3  0
 12 13  1  0
 13 14  1  0
 14 15  1  0
 15 16  2  0
 16 17  1  0
 17 18  2  0
 18 19  1  0
 19 20  2  0
  3  4  2  0
  4  5  1  0
  5 21  1  0
 21 22  1  0
 22 23  1  0
 23 24  1  0
 24 25  1  0
 25 28  1  0
 28 29  1  0
 29 30  1  0
 28 31  1  0
 31 32  1  0
 25 26  1  0
 26 27  1  0
  5  6  2  0
  6  7  1  0
  6  1  1  0
 20 15  1  0
 27 22  1  0
  7  8  1  0
M  END
> <minimizedAffinity>
-6.94234

> <CNNscore>
0.8630878925

> <CNNaffinity>
4.9242100716

> <CNN_VS>
4.2500262260

> <CNNaffinity_variance>
1.2291220427

$$$$



 32 34  0  0  0  0  0  0  0  0999 V2000
   92.0197   93.7984  -43.5488 C   0  0  0  0  0  0  0  0  0  0  0  0
   92.0528   92.9340  -44.6476 C   0  0  0  0  0  0  0  0  0  0  0  0
   91.4450   93.3025  -45.8482 C   0  0  0  0  0  0  0  0  0  0  0  0
   90.8040   94.5387  -45.9562 C   0  0  0  0  0  0  0  0  0  0  0  0
   90.7634   95.4271  -44.8666 C   0  0  0  0  0  0  0  0  0  0  0  0
   91.3729   95.0402  -43.6620 C   0  0  0  0  0  0  0  0  0  0  0  0
   91.2952   95.9065  -42.6014 O   0  0  0  0  0  0  0  0  0  0  0  0
   90.8587   96.7298  -42.6999 H   0  0  0  0  0  0  0  0  0  0  0  0
   93.1657   93.0236  -41.3056 C   0  0  0  0  0  0  0  0  0  0  0  0
   92.6455   93.3765  -42.3288 C   0  0  0  0  0  0  0  0  0  0  0  0
   91.4792   92.4130  -46.9673 C   0  0  0  0  0  0  0  0  0  0  0  0
   91.5204   91.6709  -47.9110 C   0  0  0  0  0  0  0  0  0  0  0  0
   91.5846   90.7663  -49.0648 C   0  0  0  0  0  0  0  0  0  0  0  0
   90.5940   91.0970  -50.0408 O   0  0  0  0  0  0  0  0  0  0  0  0
   89.7219   90.1208  -50.4368 C   0  0  0  0  0  0  0  0  0  0  0  0
   88.7659   90.2282  -51.4476 C   0  0  0  0  0  0  0  0  0  0  0  0
   87.9307   89.1459  -51.7430 C   0  0  0  0  0  0  0  0  0  0  0  0
   88.0434   87.9550  -51.0278 C   0  0  0  0  0  0  0  0  0  0  0  0
   88.9885   87.8453  -50.0113 C   0  0  0  0  0  0  0  0  0  0  0  0
   89.8209   88.9265  -49.7169 C   0  0  0  0  0  0  0  0  0  0  0  0
   90.0818   96.7715  -45.0203 C   0  0  0  0  0  0  0  0  0  0  0  0
   90.8816   97.7662  -45.7622 N   0  0  0  0  0  0  0  0  0  0  0  0
   90.0576   98.8347  -46.3330 C   0  0  0  0  0  0  0  0  0  0  0  0
   90.8995   99.8478  -47.1134 C   0  0  0  0  0  0  0  0  0  0  0  0
   92.0058  100.4739  -46.2389 C   0  0  0  0  0  0  0  0  0  0  0  0
   92.8185   99.3125  -45.6304 C   0  0  0  0  0  0  0  0  0  0  0  0
   91.9206   98.3215  -44.8891 C   0  0  0  0  0  0  0  0  0  0  0  0
   92.8742  101.4173  -46.9811 N   0  0  0  0  0  0  0  0  0  0  0  0
   92.5248  102.8408  -46.8765 C   0  0  0  0  0  0  0  0  0  0  0  0
   93.6160  103.8012  -46.4105 C   0  0  0  0  0  0  0  0  0  0  0  0
   93.2848  101.0150  -48.3310 C   0  0  0  0  0  0  0  0  0  0  0  0
   92.8001  101.8806  -49.4876 C   0  0  0  0  0  0  0  0  0  0  0  0
  9 10  3  0
 10  1  1  0
  1  2  2  0
  2  3  1  0
  3 11  1  0
 11 12  3  0
 12 13  1  0
 13 14  1  0
 14 15  1  0
 15 16  2  0
 16 17  1  0
 17 18  2  0
 18 19  1  0
 19 20  2  0
  3  4  2  0
  4  5  1  0
  5 21  1  0
 21 22  1  0
 22 23  1  0
 23 24  1  0
 24 25  1  0
 25 28  1  0
 28 29  1  0
 29 30  1  0
 28 31  1  0
 31 32  1  0
 25 26  1  0
 26 27  1  0
  5  6  2  0
  6  7  1  0
  6  1  1  0
 20 15  1  0
 27 22  1  0
  7  8  1  0
M  END
> <minimizedAffinity>
-6.22521

> <CNNscore>
0.8507134914

> <CNNaffinity>
4.9308185577

> <CNN_VS>
4.1947140694

> <CNNaffinity_variance>
1.2009812593

$$$$



 32 34  0  0  0  0  0  0  0  0999 V2000
   89.3498   86.6326  -50.3294 C   0  0  0  0  0  0  0  0  0  0  0  0
   90.0638   87.5467  -49.5482 C   0  0  0  0  0  0  0  0  0  0  0  0
   89.9282   88.9171  -49.7727 C   0  0  0  0  0  0  0  0  0  0  0  0
   89.0754   89.3795  -50.7775 C   0  0  0  0  0  0  0  0  0  0  0  0
   88.3424   88.4792  -51.5714 C   0  0  0  0  0  0  0  0  0  0  0  0
   88.4941   87.1025  -51.3394 C   0  0  0  0  0  0  0  0  0  0  0  0
   87.7954   86.2396  -52.1449 O   0  0  0  0  0  0  0  0  0  0  0  0
   87.2302   86.5756  -52.8124 H   0  0  0  0  0  0  0  0  0  0  0  0
   89.6752   84.0586  -49.8660 C   0  0  0  0  0  0  0  0  0  0  0  0
   89.5271   85.2320  -50.0749 C   0  0  0  0  0  0  0  0  0  0  0  0
   90.6635   89.8470  -48.9730 C   0  0  0  0  0  0  0  0  0  0  0  0
   91.2691   90.6329  -48.2958 C   0  0  0  0  0  0  0  0  0  0  0  0
   91.9978   91.5943  -47.4602 C   0  0  0  0  0  0  0  0  0  0  0  0
   91.2304   92.7805  -47.2424 O   0  0  0  0  0  0  0  0  0  0  0  0
   91.3374   93.4095  -46.0327 C   0  0  0  0  0  0  0  0  0  0  0  0
   91.7007   92.8163  -44.8230 C   0  0  0  0  0  0  0  0  0  0  0  0
   91.7626   93.5830  -43.6549 C   0  0  0  0  0  0  0  0  0  0  0  0
   91.4577   94.9426  -43.6891 C   0  0  0  0  0  0  0  0  0  0  0  0
   91.0847   95.5379  -44.8912 C   0  0  0  0  0  0  0  0  0  0  0  0
   91.0225   94.7713  -46.0561 C   0  0  0  0  0  0  0  0  0  0  0  0
   87.4065   89.0104  -52.6380 C   0  0  0  0  0  0  0  0  0  0  0  0
   86.0023   88.5886  -52.4657 N   0  0  0  0  0  0  0  0  0  0  0  0
   85.3332   89.3006  -51.3740 C   0  0  0  0  0  0  0  0  0  0  0  0
   83.8839   88.8393  -51.1972 C   0  0  0  0  0  0  0  0  0  0  0  0
   83.0622   89.0103  -52.4919 C   0  0  0  0  0  0  0  0  0  0  0  0
   83.8250   88.2799  -53.6163 C   0  0  0  0  0  0  0  0  0  0  0  0
   85.2714   88.7633  -53.7249 C   0  0  0  0  0  0  0  0  0  0  0  0
   81.6696   88.5199  -52.3696 N   0  0  0  0  0  0  0  0  0  0  0  0
   81.5077   87.0820  -52.1127 C   0  0  0  0  0  0  0  0  0  0  0  0
   82.0548   86.1140  -53.1585 C   0  0  0  0  0  0  0  0  0  0  0  0
   80.6942   89.0550  -53.3261 C   0  0  0  0  0  0  0  0  0  0  0  0
   80.9578   88.7900  -54.8034 C   0  0  0  0  0  0  0  0  0  0  0  0
  9 10  3  0
 10  1  1  0
  1  2  2  0
  2  3  1  0
  3 11  1  0
 11 12  3  0
 12 13  1  0
 13 14  1  0
 14 15  1  0
 15 16  2  0
 16 17  1  0
 17 18  2  0
 18 19  1  0
 19 20  2  0
  3  4  2  0
  4  5  1  0
  5 21  1  0
 21 22  1  0
 22 23  1  0
 23 24  1  0
 24 25  1  0
 25 28  1  0
 28 29  1  0
 29 30  1  0
 28 31  1  0
 31 32  1  0
 25 26  1  0
 26 27  1  0
  5  6  2  0
  6  7  1  0
  6  1  1  0
 20 15  1  0
 27 22  1  0
  7  8  1  0
M  END
> <minimizedAffinity>
-4.85228

> <CNNscore>
0.6651889086

> <CNNaffinity>
4.6151766777

> <CNN_VS>
3.0699644089

> <CNNaffinity_variance>
0.7873148918

$$$$



 32 34  0  0  0  0  0  0  0  0999 V2000
   91.3081   94.6925  -43.3086 C   0  0  0  0  0  0  0  0  0  0  0  0
   91.3953   93.6608  -44.2486 C   0  0  0  0  0  0  0  0  0  0  0  0
   91.2952   93.9436  -45.6112 C   0  0  0  0  0  0  0  0  0  0  0  0
   91.1106   95.2600  -46.0399 C   0  0  0  0  0  0  0  0  0  0  0  0
   91.0264   96.3146  -45.1132 C   0  0  0  0  0  0  0  0  0  0  0  0
   91.1214   96.0147  -43.7446 C   0  0  0  0  0  0  0  0  0  0  0  0
   91.0051   97.0524  -42.8551 O   0  0  0  0  0  0  0  0  0  0  0  0
   90.8811   97.9266  -43.1688 H   0  0  0  0  0  0  0  0  0  0  0  0
   91.4869   94.0780  -40.7519 C   0  0  0  0  0  0  0  0  0  0  0  0
   91.4031   94.3580  -41.9168 C   0  0  0  0  0  0  0  0  0  0  0  0
   91.3817   92.8841  -46.5677 C   0  0  0  0  0  0  0  0  0  0  0  0
   91.4656   91.9891  -47.3645 C   0  0  0  0  0  0  0  0  0  0  0  0
   91.5761   90.8885  -48.3289 C   0  0  0  0  0  0  0  0  0  0  0  0
   90.7194   91.0951  -49.4544 O   0  0  0  0  0  0  0  0  0  0  0  0
   89.9670   90.0432  -49.8989 C   0  0  0  0  0  0  0  0  0  0  0  0
   89.0145   90.0817  -50.9180 C   0  0  0  0  0  0  0  0  0  0  0  0
   88.3098   88.9247  -51.2655 C   0  0  0  0  0  0  0  0  0  0  0  0
   88.5496   87.7270  -50.5943 C   0  0  0  0  0  0  0  0  0  0  0  0
   89.4914   87.6847  -49.5697 C   0  0  0  0  0  0  0  0  0  0  0  0
   90.1935   88.8404  -49.2233 C   0  0  0  0  0  0  0  0  0  0  0  0
   90.8502   97.7356  -45.6084 C   0  0  0  0  0  0  0  0  0  0  0  0
   89.4729   98.0546  -46.0332 N   0  0  0  0  0  0  0  0  0  0  0  0
   88.8682   96.9812  -46.8261 C   0  0  0  0  0  0  0  0  0  0  0  0
   87.4471   97.3348  -47.2732 C   0  0  0  0  0  0  0  0  0  0  0  0
   86.5294   97.6584  -46.0759 C   0  0  0  0  0  0  0  0  0  0  0  0
   87.2255   98.7616  -45.2525 C   0  0  0  0  0  0  0  0  0  0  0  0
   88.6482   98.3618  -44.8602 C   0  0  0  0  0  0  0  0  0  0  0  0
   85.1615   98.0598  -46.4793 N   0  0  0  0  0  0  0  0  0  0  0  0
   84.4012   98.8492  -45.5004 C   0  0  0  0  0  0  0  0  0  0  0  0
   83.8831   98.1241  -44.2611 C   0  0  0  0  0  0  0  0  0  0  0  0
   84.3521   97.0481  -47.1679 C   0  0  0  0  0  0  0  0  0  0  0  0
   84.6832   95.5879  -46.8846 C   0  0  0  0  0  0  0  0  0  0  0  0
  9 10  3  0
 10  1  1  0
  1  2  2  0
  2  3  1  0
  3 11  1  0
 11 12  3  0
 12 13  1  0
 13 14  1  0
 14 15  1  0
 15 16  2  0
 16 17  1  0
 17 18  2  0
 18 19  1  0
 19 20  2  0
  3  4  2  0
  4  5  1  0
  5 21  1  0
 21 22  1  0
 22 23  1  0
 23 24  1  0
 24 25  1  0
 25 28  1  0
 28 29  1  0
 29 30  1  0
 28 31  1  0
 31 32  1  0
 25 26  1  0
 26 27  1  0
  5  6  2  0
  6  7  1  0
  6  1  1  0
 20 15  1  0
 27 22  1  0
  7  8  1  0
M  END
> <minimizedAffinity>
-6.19647

> <CNNscore>
0.5920041800

> <CNNaffinity>
4.8397789001

> <CNN_VS>
2.8651692867

> <CNNaffinity_variance>
1.1729701757

$$$$



 32 34  0  0  0  0  0  0  0  0999 V2000
   89.1253   87.2452  -50.3621 C   0  0  0  0  0  0  0  0  0  0  0  0
   89.8917   88.0398  -49.5038 C   0  0  0  0  0  0  0  0  0  0  0  0
   89.9397   89.4224  -49.6842 C   0  0  0  0  0  0  0  0  0  0  0  0
   89.2186   90.0170  -50.7222 C   0  0  0  0  0  0  0  0  0  0  0  0
   88.4359   89.2388  -51.5939 C   0  0  0  0  0  0  0  0  0  0  0  0
   88.4026   87.8477  -51.4052 C   0  0  0  0  0  0  0  0  0  0  0  0
   87.6591   87.1027  -52.2848 O   0  0  0  0  0  0  0  0  0  0  0  0
   87.1850   87.5262  -52.9732 H   0  0  0  0  0  0  0  0  0  0  0  0
   89.0992   84.6383  -49.9754 C   0  0  0  0  0  0  0  0  0  0  0  0
   89.1129   85.8264  -50.1502 C   0  0  0  0  0  0  0  0  0  0  0  0
   90.7279   90.2295  -48.8055 C   0  0  0  0  0  0  0  0  0  0  0  0
   91.3947   90.9148  -48.0783 C   0  0  0  0  0  0  0  0  0  0  0  0
   92.2102   91.7617  -47.2001 C   0  0  0  0  0  0  0  0  0  0  0  0
   91.6547   91.8342  -45.8850 O   0  0  0  0  0  0  0  0  0  0  0  0
   91.5218   93.0650  -45.3038 C   0  0  0  0  0  0  0  0  0  0  0  0
   91.5788   93.3433  -43.9375 C   0  0  0  0  0  0  0  0  0  0  0  0
   91.4178   94.6552  -43.4803 C   0  0  0  0  0  0  0  0  0  0  0  0
   91.1947   95.6925  -44.3840 C   0  0  0  0  0  0  0  0  0  0  0  0
   91.1267   95.4195  -45.7475 C   0  0  0  0  0  0  0  0  0  0  0  0
   91.2867   94.1096  -46.2025 C   0  0  0  0  0  0  0  0  0  0  0  0
   87.6451   89.9138  -52.6961 C   0  0  0  0  0  0  0  0  0  0  0  0
   86.1823   89.8493  -52.5083 N   0  0  0  0  0  0  0  0  0  0  0  0
   85.7561   90.4173  -51.2268 C   0  0  0  0  0  0  0  0  0  0  0  0
   84.2391   90.3268  -51.0400 C   0  0  0  0  0  0  0  0  0  0  0  0
   83.4746   91.0264  -52.1831 C   0  0  0  0  0  0  0  0  0  0  0  0
   83.9850   90.4248  -53.5087 C   0  0  0  0  0  0  0  0  0  0  0  0
   85.5066   90.5196  -53.6239 C   0  0  0  0  0  0  0  0  0  0  0  0
   82.0029   90.9074  -52.0608 N   0  0  0  0  0  0  0  0  0  0  0  0
   81.2530   92.1693  -51.9913 C   0  0  0  0  0  0  0  0  0  0  0  0
   82.0200   93.4602  -52.2661 C   0  0  0  0  0  0  0  0  0  0  0  0
   81.4969   89.8770  -51.1471 C   0  0  0  0  0  0  0  0  0  0  0  0
   80.6281   90.3481  -49.9872 C   0  0  0  0  0  0  0  0  0  0  0  0
  9 10  3  0
 10  1  1  0
  1  2  2  0
  2  3  1  0
  3 11  1  0
 11 12  3  0
 12 13  1  0
 13 14  1  0
 14 15  1  0
 15 16  2  0
 16 17  1  0
 17 18  2  0
 18 19  1  0
 19 20  2  0
  3  4  2  0
  4  5  1  0
  5 21  1  0
 21 22  1  0
 22 23  1  0
 23 24  1  0
 24 25  1  0
 25 28  1  0
 28 29  1  0
 29 30  1  0
 28 31  1  0
 31 32  1  0
 25 26  1  0
 26 27  1  0
  5  6  2  0
  6  7  1  0
  6  1  1  0
 20 15  1  0
 27 22  1  0
  7  8  1  0
M  END
> <minimizedAffinity>
-4.98142

> <CNNscore>
0.5852037668

> <CNNaffinity>
4.3509368896

> <CNN_VS>
2.5461845398

> <CNNaffinity_variance>
1.1062308550

$$$$



 32 34  0  0  0  0  0  0  0  0999 V2000
   88.4182   87.2291  -50.9362 C   0  0  0  0  0  0  0  0  0  0  0  0
   89.4114   87.9646  -50.2819 C   0  0  0  0  0  0  0  0  0  0  0  0
   89.1002   89.1862  -49.6842 C   0  0  0  0  0  0  0  0  0  0  0  0
   87.7933   89.6764  -49.7356 C   0  0  0  0  0  0  0  0  0  0  0  0
   86.7766   88.9512  -50.3825 C   0  0  0  0  0  0  0  0  0  0  0  0
   87.1055   87.7266  -50.9861 C   0  0  0  0  0  0  0  0  0  0  0  0
   86.1074   87.0496  -51.6394 O   0  0  0  0  0  0  0  0  0  0  0  0
   85.2388   87.4006  -51.6597 H   0  0  0  0  0  0  0  0  0  0  0  0
   89.0842   84.9396  -52.0591 C   0  0  0  0  0  0  0  0  0  0  0  0
   88.7823   85.9839  -51.5487 C   0  0  0  0  0  0  0  0  0  0  0  0
   90.1208   89.9356  -49.0195 C   0  0  0  0  0  0  0  0  0  0  0  0
   90.9860   90.5535  -48.4605 C   0  0  0  0  0  0  0  0  0  0  0  0
   92.0523   91.2984  -47.7810 C   0  0  0  0  0  0  0  0  0  0  0  0
   91.8474   91.3264  -46.3666 O   0  0  0  0  0  0  0  0  0  0  0  0
   91.6531   92.5382  -45.7630 C   0  0  0  0  0  0  0  0  0  0  0  0
   91.8296   92.8235  -44.4085 C   0  0  0  0  0  0  0  0  0  0  0  0
   91.5858   94.1128  -43.9244 C   0  0  0  0  0  0  0  0  0  0  0  0
   91.1606   95.1199  -44.7889 C   0  0  0  0  0  0  0  0  0  0  0  0
   90.9729   94.8387  -46.1395 C   0  0  0  0  0  0  0  0  0  0  0  0
   91.2158   93.5513  -46.6213 C   0  0  0  0  0  0  0  0  0  0  0  0
   85.3629   89.4960  -50.4014 C   0  0  0  0  0  0  0  0  0  0  0  0
   84.9632   90.1659  -49.1481 N   0  0  0  0  0  0  0  0  0  0  0  0
   83.6908   90.8808  -49.2759 C   0  0  0  0  0  0  0  0  0  0  0  0
   83.2995   91.5842  -47.9734 C   0  0  0  0  0  0  0  0  0  0  0  0
   83.2097   90.5983  -46.7900 C   0  0  0  0  0  0  0  0  0  0  0  0
   84.5535   89.8438  -46.7215 C   0  0  0  0  0  0  0  0  0  0  0  0
   84.9021   89.1874  -48.0577 C   0  0  0  0  0  0  0  0  0  0  0  0
   82.8880   91.2575  -45.5028 N   0  0  0  0  0  0  0  0  0  0  0  0
   82.3880   90.3833  -44.4326 C   0  0  0  0  0  0  0  0  0  0  0  0
   83.3630   90.0023  -43.3215 C   0  0  0  0  0  0  0  0  0  0  0  0
   82.1908   92.5464  -45.5766 C   0  0  0  0  0  0  0  0  0  0  0  0
   80.6678   92.5078  -45.6054 C   0  0  0  0  0  0  0  0  0  0  0  0
  9 10  3  0
 10  1  1  0
  1  2  2  0
  2  3  1  0
  3 11  1  0
 11 12  3  0
 12 13  1  0
 13 14  1  0
 14 15  1  0
 15 16  2  0
 16 17  1  0
 17 18  2  0
 18 19  1  0
 19 20  2  0
  3  4  2  0
  4  5  1  0
  5 21  1  0
 21 22  1  0
 22 23  1  0
 23 24  1  0
 24 25  1  0
 25 28  1  0
 28 29  1  0
 29 30  1  0
 28 31  1  0
 31 32  1  0
 25 26  1  0
 26 27  1  0
  5  6  2  0
  6  7  1  0
  6  1  1  0
 20 15  1  0
 27 22  1  0
  7  8  1  0
M  END
> <minimizedAffinity>
-5.52032

> <CNNscore>
0.5241963863

> <CNNaffinity>
4.6224350929

> <CNN_VS>
2.4230637550

> <CNNaffinity_variance>
1.4974664450

$$$$



 32 34  0  0  0  0  0  0  0  0999 V2000
   89.3280   86.4891  -50.1424 C   0  0  0  0  0  0  0  0  0  0  0  0
   90.1084   87.4629  -49.5114 C   0  0  0  0  0  0  0  0  0  0  0  0
   89.6739   88.7879  -49.4648 C   0  0  0  0  0  0  0  0  0  0  0  0
   88.4551   89.1443  -50.0464 C   0  0  0  0  0  0  0  0  0  0  0  0
   87.6502   88.1811  -50.6809 C   0  0  0  0  0  0  0  0  0  0  0  0
   88.1034   86.8527  -50.7268 C   0  0  0  0  0  0  0  0  0  0  0  0
   87.3197   85.9341  -51.3775 O   0  0  0  0  0  0  0  0  0  0  0  0
   86.5064   86.1992  -51.7599 H   0  0  0  0  0  0  0  0  0  0  0  0
   90.2296   84.0136  -50.2115 C   0  0  0  0  0  0  0  0  0  0  0  0
   89.8166   85.1408  -50.1796 C   0  0  0  0  0  0  0  0  0  0  0  0
   90.4779   89.7799  -48.8212 C   0  0  0  0  0  0  0  0  0  0  0  0
   91.1423   90.6220  -48.2805 C   0  0  0  0  0  0  0  0  0  0  0  0
   91.9423   91.6574  -47.6159 C   0  0  0  0  0  0  0  0  0  0  0  0
   91.1863   92.8551  -47.4232 O   0  0  0  0  0  0  0  0  0  0  0  0
   91.2680   93.4863  -46.2127 C   0  0  0  0  0  0  0  0  0  0  0  0
   90.9883   94.8302  -45.9618 C   0  0  0  0  0  0  0  0  0  0  0  0
   91.1223   95.3465  -44.6689 C   0  0  0  0  0  0  0  0  0  0  0  0
   91.5402   94.5249  -43.6235 C   0  0  0  0  0  0  0  0  0  0  0  0
   91.8305   93.1857  -43.8696 C   0  0  0  0  0  0  0  0  0  0  0  0
   91.6972   92.6719  -45.1606 C   0  0  0  0  0  0  0  0  0  0  0  0
   86.3216   88.5923  -51.2818 C   0  0  0  0  0  0  0  0  0  0  0  0
   85.8461   89.9158  -50.8329 N   0  0  0  0  0  0  0  0  0  0  0  0
   85.5982   90.8308  -51.9500 C   0  0  0  0  0  0  0  0  0  0  0  0
   85.1227   92.2037  -51.4668 C   0  0  0  0  0  0  0  0  0  0  0  0
   83.8480   92.1016  -50.6035 C   0  0  0  0  0  0  0  0  0  0  0  0
   84.1447   91.1002  -49.4682 C   0  0  0  0  0  0  0  0  0  0  0  0
   84.6412   89.7601  -50.0117 C   0  0  0  0  0  0  0  0  0  0  0  0
   83.3946   93.4086  -50.0734 N   0  0  0  0  0  0  0  0  0  0  0  0
   84.2550   94.5628  -50.3685 C   0  0  0  0  0  0  0  0  0  0  0  0
   85.5581   94.6885  -49.5834 C   0  0  0  0  0  0  0  0  0  0  0  0
   82.8548   93.4171  -48.7091 C   0  0  0  0  0  0  0  0  0  0  0  0
   83.5262   94.3470  -47.7059 C   0  0  0  0  0  0  0  0  0  0  0  0
  9 10  3  0
 10  1  1  0
  1  2  2  0
  2  3  1  0
  3 11  1  0
 11 12  3  0
 12 13  1  0
 13 14  1  0
 14 15  1  0
 15 16  2  0
 16 17  1  0
 17 18  2  0
 18 19  1  0
 19 20  2  0
  3  4  2  0
  4  5  1  0
  5 21  1  0
 21 22  1  0
 22 23  1  0
 23 24  1  0
 24 25  1  0
 25 28  1  0
 28 29  1  0
 29 30  1  0
 28 31  1  0
 31 32  1  0
 25 26  1  0
 26 27  1  0
  5  6  2  0
  6  7  1  0
  6  1  1  0
 20 15  1  0
 27 22  1  0
  7  8  1  0
M  END
> <minimizedAffinity>
-5.24612

> <CNNscore>
0.4813317060

> <CNNaffinity>
4.3758449554

> <CNN_VS>
2.1062328815

> <CNNaffinity_variance>
1.4737752676

$$$$
