


 26 25  0  0  0  0  0  0  0  0999 V2000
   -2.9808    5.5218   19.4635 C   0  0  0  0  0  0  0  0  0  0  0  0
   -4.4358    5.9745   19.6572 C   0  0  0  0  0  0  0  0  0  0  0  0
   -5.5398    5.0106   19.0935 C   0  0  0  0  0  0  0  0  0  0  0  0
   -6.8831    5.7289   19.3035 C   0  0  0  0  0  0  0  0  0  0  0  0
   -5.3166    4.8472   17.5755 C   0  0  0  0  0  0  0  0  0  0  0  0
   -5.4390    3.6394   19.8437 C   0  0  0  0  0  0  0  0  0  0  0  0
   -6.6387    2.9469   20.6046 C   0  0  0  0  0  0  0  0  0  0  0  0
   -7.1433    1.7190   19.8310 C   0  0  0  0  0  0  0  0  0  0  0  0
   -6.0395    2.4412   21.9356 C   0  0  0  0  0  0  0  0  0  0  0  0
   -7.7856    3.9865   20.8491 C   0  0  0  0  0  0  0  0  0  0  0  0
   -9.1718    3.6352   21.4830 C   0  0  0  0  0  0  0  0  0  0  0  0
  -10.0828    4.8744   21.2764 C   0  0  0  0  0  0  0  0  0  0  0  0
   -9.0848    3.4044   23.0029 C   0  0  0  0  0  0  0  0  0  0  0  0
   -9.8666    2.4418   20.8170 C   0  0  0  0  0  0  0  0  0  0  0  0
   -2.0295    6.6753   19.1156 C   0  0  0  0  0  0  0  0  0  0  0  0
   -2.5744    7.6176   18.0383 C   0  0  0  0  0  0  0  0  0  0  0  0
   -1.9368    9.0122   18.0745 C   0  0  0  0  0  0  0  0  0  0  0  0
   -2.5333    9.9292   19.1462 C   0  0  0  0  0  0  0  0  0  0  0  0
   -2.4318   11.4180   18.7913 C   0  0  0  0  0  0  0  0  0  0  0  0
   -3.5554   11.9055   17.8756 C   0  0  0  0  0  0  0  0  0  0  0  0
   -3.7213   13.4305   17.8426 C   0  0  0  0  0  0  0  0  0  0  0  0
   -2.4423   14.2248   18.1350 C   0  0  0  0  0  0  0  0  0  0  0  0
   -2.6376   15.7377   17.9859 C   0  0  0  0  0  0  0  0  0  0  0  0
   -3.6818   16.1136   16.9302 C   0  0  0  0  0  0  0  0  0  0  0  0
   -3.8445   18.5205   16.2014 C   0  0  0  0  0  0  0  0  0  0  0  0
   -4.3415   17.4706   17.1838 C   0  0  0  0  0  0  0  0  0  0  0  0
 25 26  1  0
 26 24  1  0
 24 23  1  0
 23 22  1  0
 22 21  1  0
 21 20  1  0
 20 19  1  0
 19 18  1  0
 18 17  1  0
 17 16  1  0
 16 15  1  0
 15  1  1  0
  1  2  1  0
  2  3  1  0
  3  4  1  0
  3  5  1  0
  3  6  1  0
  6  7  1  0
  7  8  1  0
  7  9  1  0
  7 10  1  0
 10 11  1  0
 11 12  1  0
 11 13  1  0
 11 14  1  0
M  END
> <minimizedAffinity>
-7.09842

> <CNNscore>
0.7676551938

> <CNNaffinity>
6.7709164619

> <CNN_VS>
5.1977291107

> <CNNaffinity_variance>
0.8911867142

$$$$



 26 25  0  0  0  0  0  0  0  0999 V2000
   -2.2994    7.9731   18.3445 C   0  0  0  0  0  0  0  0  0  0  0  0
   -2.3658    6.7378   19.2551 C   0  0  0  0  0  0  0  0  0  0  0  0
   -3.5919    5.7820   19.0341 C   0  0  0  0  0  0  0  0  0  0  0  0
   -3.8958    5.8169   17.5271 C   0  0  0  0  0  0  0  0  0  0  0  0
   -3.1643    4.3460   19.4030 C   0  0  0  0  0  0  0  0  0  0  0  0
   -4.7812    6.2778   19.9244 C   0  0  0  0  0  0  0  0  0  0  0  0
   -6.2842    6.3598   19.4428 C   0  0  0  0  0  0  0  0  0  0  0  0
   -6.4485    7.4108   18.3342 C   0  0  0  0  0  0  0  0  0  0  0  0
   -6.5887    4.9791   18.8203 C   0  0  0  0  0  0  0  0  0  0  0  0
   -7.2195    6.6581   20.6643 C   0  0  0  0  0  0  0  0  0  0  0  0
   -8.7596    6.3849   20.6813 C   0  0  0  0  0  0  0  0  0  0  0  0
   -9.3206    7.0764   21.9523 C   0  0  0  0  0  0  0  0  0  0  0  0
   -9.0924    4.8874   20.8146 C   0  0  0  0  0  0  0  0  0  0  0  0
   -9.5010    6.9747   19.4759 C   0  0  0  0  0  0  0  0  0  0  0  0
   -2.8624    9.2406   19.0025 C   0  0  0  0  0  0  0  0  0  0  0  0
   -2.3101   10.5391   18.4075 C   0  0  0  0  0  0  0  0  0  0  0  0
   -2.8915   11.7997   19.0595 C   0  0  0  0  0  0  0  0  0  0  0  0
   -3.8218   12.5918   18.1363 C   0  0  0  0  0  0  0  0  0  0  0  0
   -3.1703   13.8569   17.5639 C   0  0  0  0  0  0  0  0  0  0  0  0
   -2.0345   14.4040   18.4297 C   0  0  0  0  0  0  0  0  0  0  0  0
   -1.7751   15.9055   18.2494 C   0  0  0  0  0  0  0  0  0  0  0  0
   -3.0365   16.7762   18.1968 C   0  0  0  0  0  0  0  0  0  0  0  0
   -3.8479   16.5663   16.9135 C   0  0  0  0  0  0  0  0  0  0  0  0
   -4.5077   17.8483   16.3962 C   0  0  0  0  0  0  0  0  0  0  0  0
   -4.2579   19.9838   15.0817 C   0  0  0  0  0  0  0  0  0  0  0  0
   -3.5345   18.7859   15.6786 C   0  0  0  0  0  0  0  0  0  0  0  0
 25 26  1  0
 26 24  1  0
 24 23  1  0
 23 22  1  0
 22 21  1  0
 21 20  1  0
 20 19  1  0
 19 18  1  0
 18 17  1  0
 17 16  1  0
 16 15  1  0
 15  1  1  0
  1  2  1  0
  2  3  1  0
  3  4  1  0
  3  5  1  0
  3  6  1  0
  6  7  1  0
  7  8  1  0
  7  9  1  0
  7 10  1  0
 10 11  1  0
 11 12  1  0
 11 13  1  0
 11 14  1  0
M  END
> <minimizedAffinity>
-6.68055

> <CNNscore>
0.7086223960

> <CNNaffinity>
7.1517663002

> <CNN_VS>
5.0679016113

> <CNNaffinity_variance>
0.8882384300

$$$$



 26 25  0  0  0  0  0  0  0  0999 V2000
   -2.1023    6.1347   20.3561 C   0  0  0  0  0  0  0  0  0  0  0  0
   -3.4084    5.3333   20.4614 C   0  0  0  0  0  0  0  0  0  0  0  0
   -3.3057    3.7998   20.1394 C   0  0  0  0  0  0  0  0  0  0  0  0
   -3.3414    3.6809   18.6067 C   0  0  0  0  0  0  0  0  0  0  0  0
   -1.9337    3.2894   20.6272 C   0  0  0  0  0  0  0  0  0  0  0  0
   -4.4859    3.0573   20.8527 C   0  0  0  0  0  0  0  0  0  0  0  0
   -6.0119    3.2488   20.4890 C   0  0  0  0  0  0  0  0  0  0  0  0
   -6.2196    4.5137   19.6420 C   0  0  0  0  0  0  0  0  0  0  0  0
   -6.3757    2.0351   19.6053 C   0  0  0  0  0  0  0  0  0  0  0  0
   -6.8714    3.2837   21.7990 C   0  0  0  0  0  0  0  0  0  0  0  0
   -8.2557    2.5739   21.9629 C   0  0  0  0  0  0  0  0  0  0  0  0
   -8.6837    2.7686   23.4418 C   0  0  0  0  0  0  0  0  0  0  0  0
   -8.1719    1.0544   21.7279 C   0  0  0  0  0  0  0  0  0  0  0  0
   -9.3607    3.1734   21.0853 C   0  0  0  0  0  0  0  0  0  0  0  0
   -1.9569    6.8822   19.0231 C   0  0  0  0  0  0  0  0  0  0  0  0
   -2.9584    8.0275   18.8483 C   0  0  0  0  0  0  0  0  0  0  0  0
   -2.3516    9.2656   18.1765 C   0  0  0  0  0  0  0  0  0  0  0  0
   -2.7616   10.5836   18.8399 C   0  0  0  0  0  0  0  0  0  0  0  0
   -1.7266   11.7003   18.6542 C   0  0  0  0  0  0  0  0  0  0  0  0
   -2.3208   13.1060   18.7520 C   0  0  0  0  0  0  0  0  0  0  0  0
   -3.2984   13.4543   17.6218 C   0  0  0  0  0  0  0  0  0  0  0  0
   -3.7912   14.9067   17.6201 C   0  0  0  0  0  0  0  0  0  0  0  0
   -2.7528   15.8851   18.1801 C   0  0  0  0  0  0  0  0  0  0  0  0
   -2.9602   17.3270   17.7065 C   0  0  0  0  0  0  0  0  0  0  0  0
   -3.9873   18.8188   15.9543 C   0  0  0  0  0  0  0  0  0  0  0  0
   -4.0581   17.4678   16.6501 C   0  0  0  0  0  0  0  0  0  0  0  0
 25 26  1  0
 26 24  1  0
 24 23  1  0
 23 22  1  0
 22 21  1  0
 21 20  1  0
 20 19  1  0
 19 18  1  0
 18 17  1  0
 17 16  1  0
 16 15  1  0
 15  1  1  0
  1  2  1  0
  2  3  1  0
  3  4  1  0
  3  5  1  0
  3  6  1  0
  6  7  1  0
  7  8  1  0
  7  9  1  0
  7 10  1  0
 10 11  1  0
 11 12  1  0
 11 13  1  0
 11 14  1  0
M  END
> <minimizedAffinity>
-6.37478

> <CNNscore>
0.6474443078

> <CNNaffinity>
6.5532250404

> <CNN_VS>
4.2428483963

> <CNNaffinity_variance>
0.7917076945

$$$$



 26 25  0  0  0  0  0  0  0  0999 V2000
   -2.0765    6.0701   19.2678 C   0  0  0  0  0  0  0  0  0  0  0  0
   -3.5797    5.8217   19.0729 C   0  0  0  0  0  0  0  0  0  0  0  0
   -3.9833    4.3913   18.5659 C   0  0  0  0  0  0  0  0  0  0  0  0
   -4.6518    3.6873   19.7584 C   0  0  0  0  0  0  0  0  0  0  0  0
   -5.0377    4.5483   17.4503 C   0  0  0  0  0  0  0  0  0  0  0  0
   -2.6980    3.6615   18.0482 C   0  0  0  0  0  0  0  0  0  0  0  0
   -2.5929    2.1040   17.8017 C   0  0  0  0  0  0  0  0  0  0  0  0
   -2.3204    1.3575   19.1166 C   0  0  0  0  0  0  0  0  0  0  0  0
   -3.9918    1.6743   17.3069 C   0  0  0  0  0  0  0  0  0  0  0  0
   -1.4884    1.8075   16.7301 C   0  0  0  0  0  0  0  0  0  0  0  0
   -1.7180    1.8845   15.1846 C   0  0  0  0  0  0  0  0  0  0  0  0
   -2.8212    2.9506   14.9509 C   0  0  0  0  0  0  0  0  0  0  0  0
   -2.2541    0.5644   14.6007 C   0  0  0  0  0  0  0  0  0  0  0  0
   -0.4782    2.3314   14.4013 C   0  0  0  0  0  0  0  0  0  0  0  0
   -1.6564    7.5133   18.9563 C   0  0  0  0  0  0  0  0  0  0  0  0
   -2.7553    8.5452   19.2262 C   0  0  0  0  0  0  0  0  0  0  0  0
   -2.2172    9.9700   19.4073 C   0  0  0  0  0  0  0  0  0  0  0  0
   -2.2232   10.7942   18.1166 C   0  0  0  0  0  0  0  0  0  0  0  0
   -3.6223   11.2794   17.7168 C   0  0  0  0  0  0  0  0  0  0  0  0
   -3.7812   12.7993   17.7745 C   0  0  0  0  0  0  0  0  0  0  0  0
   -2.5129   13.5472   18.2062 C   0  0  0  0  0  0  0  0  0  0  0  0
   -2.3596   14.9530   17.6127 C   0  0  0  0  0  0  0  0  0  0  0  0
   -3.5915   15.8336   17.8500 C   0  0  0  0  0  0  0  0  0  0  0  0
   -3.3476   17.3141   17.5415 C   0  0  0  0  0  0  0  0  0  0  0  0
   -3.6870   18.9696   15.6722 C   0  0  0  0  0  0  0  0  0  0  0  0
   -4.3380   17.8955   16.5306 C   0  0  0  0  0  0  0  0  0  0  0  0
 25 26  1  0
 26 24  1  0
 24 23  1  0
 23 22  1  0
 22 21  1  0
 21 20  1  0
 20 19  1  0
 19 18  1  0
 18 17  1  0
 17 16  1  0
 16 15  1  0
 15  1  1  0
  1  2  1  0
  2  3  1  0
  3  4  1  0
  3  5  1  0
  3  6  1  0
  6  7  1  0
  7  8  1  0
  7  9  1  0
  7 10  1  0
 10 11  1  0
 11 12  1  0
 11 13  1  0
 11 14  1  0
M  END
> <minimizedAffinity>
-6.08300

> <CNNscore>
0.5005360842

> <CNNaffinity>
6.3297657967

> <CNN_VS>
3.1682760715

> <CNNaffinity_variance>
0.6830264926

$$$$



 26 25  0  0  0  0  0  0  0  0999 V2000
   -1.6154    7.4574   19.7132 C   0  0  0  0  0  0  0  0  0  0  0  0
   -2.0778    6.0559   20.1392 C   0  0  0  0  0  0  0  0  0  0  0  0
   -1.0255    4.9020   19.9754 C   0  0  0  0  0  0  0  0  0  0  0  0
    0.2743    5.5722   19.5001 C   0  0  0  0  0  0  0  0  0  0  0  0
   -0.7635    4.2795   21.3627 C   0  0  0  0  0  0  0  0  0  0  0  0
   -1.5914    3.8468   18.9658 C   0  0  0  0  0  0  0  0  0  0  0  0
   -3.1277    3.6373   18.6596 C   0  0  0  0  0  0  0  0  0  0  0  0
   -3.3882    3.6211   17.1456 C   0  0  0  0  0  0  0  0  0  0  0  0
   -3.4632    2.2303   19.2020 C   0  0  0  0  0  0  0  0  0  0  0  0
   -3.9701    4.7461   19.3786 C   0  0  0  0  0  0  0  0  0  0  0  0
   -5.4440    5.1131   19.0045 C   0  0  0  0  0  0  0  0  0  0  0  0
   -5.6969    6.5459   19.5444 C   0  0  0  0  0  0  0  0  0  0  0  0
   -6.4735    4.1979   19.6926 C   0  0  0  0  0  0  0  0  0  0  0  0
   -5.7049    5.1420   17.4940 C   0  0  0  0  0  0  0  0  0  0  0  0
   -2.1105    7.8595   18.3169 C   0  0  0  0  0  0  0  0  0  0  0  0
   -2.5688    9.3178   18.2237 C   0  0  0  0  0  0  0  0  0  0  0  0
   -2.2543   10.1334   19.4840 C   0  0  0  0  0  0  0  0  0  0  0  0
   -2.9757   11.4834   19.5342 C   0  0  0  0  0  0  0  0  0  0  0  0
   -3.8423   11.7509   18.2972 C   0  0  0  0  0  0  0  0  0  0  0  0
   -3.6388   13.1434   17.6986 C   0  0  0  0  0  0  0  0  0  0  0  0
   -2.5263   13.9590   18.3705 C   0  0  0  0  0  0  0  0  0  0  0  0
   -2.0706   15.1962   17.5869 C   0  0  0  0  0  0  0  0  0  0  0  0
   -2.8863   16.4478   17.9296 C   0  0  0  0  0  0  0  0  0  0  0  0
   -4.0097   16.7331   16.9281 C   0  0  0  0  0  0  0  0  0  0  0  0
   -3.7337   18.8678   15.6175 C   0  0  0  0  0  0  0  0  0  0  0  0
   -4.3767   18.2154   16.8322 C   0  0  0  0  0  0  0  0  0  0  0  0
 25 26  1  0
 26 24  1  0
 24 23  1  0
 23 22  1  0
 22 21  1  0
 21 20  1  0
 20 19  1  0
 19 18  1  0
 18 17  1  0
 17 16  1  0
 16 15  1  0
 15  1  1  0
  1  2  1  0
  2  3  1  0
  3  4  1  0
  3  5  1  0
  3  6  1  0
  6  7  1  0
  7  8  1  0
  7  9  1  0
  7 10  1  0
 10 11  1  0
 11 12  1  0
 11 13  1  0
 11 14  1  0
M  END
> <minimizedAffinity>
-7.01909

> <CNNscore>
0.4752948880

> <CNNaffinity>
7.0213236809

> <CNN_VS>
3.3371992111

> <CNNaffinity_variance>
0.7679397464

$$$$



 26 25  0  0  0  0  0  0  0  0999 V2000
   -1.8822    9.7615   18.0189 C   0  0  0  0  0  0  0  0  0  0  0  0
   -2.7078   10.9690   17.5501 C   0  0  0  0  0  0  0  0  0  0  0  0
   -2.8533   12.1472   18.5779 C   0  0  0  0  0  0  0  0  0  0  0  0
   -3.2628   11.5028   19.9126 C   0  0  0  0  0  0  0  0  0  0  0  0
   -1.4696   12.8031   18.7677 C   0  0  0  0  0  0  0  0  0  0  0  0
   -3.9058   13.1672   18.0260 C   0  0  0  0  0  0  0  0  0  0  0  0
   -3.5485   14.4368   17.1553 C   0  0  0  0  0  0  0  0  0  0  0  0
   -2.0402   14.7259   17.1999 C   0  0  0  0  0  0  0  0  0  0  0  0
   -3.9024   14.0477   15.7027 C   0  0  0  0  0  0  0  0  0  0  0  0
   -4.3869   15.6687   17.6405 C   0  0  0  0  0  0  0  0  0  0  0  0
   -4.0940   17.1496   17.2304 C   0  0  0  0  0  0  0  0  0  0  0  0
   -3.0308   17.6853   18.2258 C   0  0  0  0  0  0  0  0  0  0  0  0
   -5.3284   18.0583   17.3773 C   0  0  0  0  0  0  0  0  0  0  0  0
   -3.5111   17.2920   15.8196 C   0  0  0  0  0  0  0  0  0  0  0  0
   -2.7460    8.5983   18.5262 C   0  0  0  0  0  0  0  0  0  0  0  0
   -2.1990    7.2177   18.1517 C   0  0  0  0  0  0  0  0  0  0  0  0
   -3.2925    6.1521   18.0055 C   0  0  0  0  0  0  0  0  0  0  0  0
   -2.8072    4.7324   18.3126 C   0  0  0  0  0  0  0  0  0  0  0  0
   -3.7692    3.9474   19.2132 C   0  0  0  0  0  0  0  0  0  0  0  0
   -5.1126    3.6400   18.5503 C   0  0  0  0  0  0  0  0  0  0  0  0
   -6.0208    4.8643   18.3749 C   0  0  0  0  0  0  0  0  0  0  0  0
   -6.7677    5.3000   19.6416 C   0  0  0  0  0  0  0  0  0  0  0  0
   -7.4560    4.1309   20.3550 C   0  0  0  0  0  0  0  0  0  0  0  0
   -8.4423    4.5773   21.4386 C   0  0  0  0  0  0  0  0  0  0  0  0
   -9.9550    6.4726   20.7527 C   0  0  0  0  0  0  0  0  0  0  0  0
   -9.8165    4.9636   20.8879 C   0  0  0  0  0  0  0  0  0  0  0  0
 25 26  1  0
 26 24  1  0
 24 23  1  0
 23 22  1  0
 22 21  1  0
 21 20  1  0
 20 19  1  0
 19 18  1  0
 18 17  1  0
 17 16  1  0
 16 15  1  0
 15  1  1  0
  1  2  1  0
  2  3  1  0
  3  4  1  0
  3  5  1  0
  3  6  1  0
  6  7  1  0
  7  8  1  0
  7  9  1  0
  7 10  1  0
 10 11  1  0
 11 12  1  0
 11 13  1  0
 11 14  1  0
M  END
> <minimizedAffinity>
-5.19704

> <CNNscore>
0.4744865596

> <CNNaffinity>
6.9692473412

> <CNN_VS>
3.3068141937

> <CNNaffinity_variance>
0.6482524276

$$$$



 26 25  0  0  0  0  0  0  0  0999 V2000
   -4.6489    5.5121   19.5446 C   0  0  0  0  0  0  0  0  0  0  0  0
   -3.6692    4.7843   20.4772 C   0  0  0  0  0  0  0  0  0  0  0  0
   -3.7577    3.2165   20.4841 C   0  0  0  0  0  0  0  0  0  0  0  0
   -5.1813    2.8702   20.9507 C   0  0  0  0  0  0  0  0  0  0  0  0
   -3.5928    2.7118   19.0353 C   0  0  0  0  0  0  0  0  0  0  0  0
   -2.6370    2.6550   21.4231 C   0  0  0  0  0  0  0  0  0  0  0  0
   -2.2737    1.1234   21.5640 C   0  0  0  0  0  0  0  0  0  0  0  0
   -3.4413    0.3369   22.1794 C   0  0  0  0  0  0  0  0  0  0  0  0
   -2.0844    0.6147   20.1176 C   0  0  0  0  0  0  0  0  0  0  0  0
   -0.9617    0.9623   22.4059 C   0  0  0  0  0  0  0  0  0  0  0  0
   -0.6739   -0.2383   23.3665 C   0  0  0  0  0  0  0  0  0  0  0  0
   -2.0181   -0.5859   24.0599 C   0  0  0  0  0  0  0  0  0  0  0  0
    0.3158    0.1268   24.4881 C   0  0  0  0  0  0  0  0  0  0  0  0
   -0.1935   -1.5017   22.6430 C   0  0  0  0  0  0  0  0  0  0  0  0
   -4.1784    6.9197   19.1522 C   0  0  0  0  0  0  0  0  0  0  0  0
   -2.9433    7.3924   19.9246 C   0  0  0  0  0  0  0  0  0  0  0  0
   -2.5289    8.8292   19.5837 C   0  0  0  0  0  0  0  0  0  0  0  0
   -2.0536    9.0015   18.1381 C   0  0  0  0  0  0  0  0  0  0  0  0
   -2.4942   10.3307   17.5123 C   0  0  0  0  0  0  0  0  0  0  0  0
   -3.2087   11.2607   18.4938 C   0  0  0  0  0  0  0  0  0  0  0  0
   -3.5228   12.6510   17.9259 C   0  0  0  0  0  0  0  0  0  0  0  0
   -2.5124   13.7431   18.2982 C   0  0  0  0  0  0  0  0  0  0  0  0
   -2.5525   14.9386   17.3398 C   0  0  0  0  0  0  0  0  0  0  0  0
   -3.7921   15.8201   17.5208 C   0  0  0  0  0  0  0  0  0  0  0  0
   -4.0683   18.0772   16.4347 C   0  0  0  0  0  0  0  0  0  0  0  0
   -3.4691   17.3132   17.6059 C   0  0  0  0  0  0  0  0  0  0  0  0
 25 26  1  0
 26 24  1  0
 24 23  1  0
 23 22  1  0
 22 21  1  0
 21 20  1  0
 20 19  1  0
 19 18  1  0
 18 17  1  0
 17 16  1  0
 16 15  1  0
 15  1  1  0
  1  2  1  0
  2  3  1  0
  3  4  1  0
  3  5  1  0
  3  6  1  0
  6  7  1  0
  7  8  1  0
  7  9  1  0
  7 10  1  0
 10 11  1  0
 11 12  1  0
 11 13  1  0
 11 14  1  0
M  END
> <minimizedAffinity>
-5.87203

> <CNNscore>
0.4682643116

> <CNNaffinity>
6.1459021568

> <CNN_VS>
2.8779065609

> <CNNaffinity_variance>
0.7255315185

$$$$



 26 25  0  0  0  0  0  0  0  0999 V2000
   -2.9288    6.2689   19.3213 C   0  0  0  0  0  0  0  0  0  0  0  0
   -2.8053    5.3247   20.5265 C   0  0  0  0  0  0  0  0  0  0  0  0
   -1.8367    4.1016   20.3492 C   0  0  0  0  0  0  0  0  0  0  0  0
   -1.6126    3.9489   18.8357 C   0  0  0  0  0  0  0  0  0  0  0  0
   -0.4827    4.4527   21.0005 C   0  0  0  0  0  0  0  0  0  0  0  0
   -2.4899    2.8437   21.0156 C   0  0  0  0  0  0  0  0  0  0  0  0
   -3.8818    2.2282   20.5894 C   0  0  0  0  0  0  0  0  0  0  0  0
   -3.7413    0.7362   20.2510 C   0  0  0  0  0  0  0  0  0  0  0  0
   -4.7765    2.3360   21.8441 C   0  0  0  0  0  0  0  0  0  0  0  0
   -4.4774    3.0391   19.3878 C   0  0  0  0  0  0  0  0  0  0  0  0
   -4.9914    2.3938   18.0588 C   0  0  0  0  0  0  0  0  0  0  0  0
   -6.2288    1.5343   18.4307 C   0  0  0  0  0  0  0  0  0  0  0  0
   -3.9636    1.4335   17.4324 C   0  0  0  0  0  0  0  0  0  0  0  0
   -5.4456    3.4196   17.0139 C   0  0  0  0  0  0  0  0  0  0  0  0
   -2.1048    7.5551   19.4733 C   0  0  0  0  0  0  0  0  0  0  0  0
   -2.8890    8.8296   19.1477 C   0  0  0  0  0  0  0  0  0  0  0  0
   -1.9904   10.0489   18.9064 C   0  0  0  0  0  0  0  0  0  0  0  0
   -2.5665   11.3529   19.4657 C   0  0  0  0  0  0  0  0  0  0  0  0
   -2.0482   12.6015   18.7411 C   0  0  0  0  0  0  0  0  0  0  0  0
   -3.1161   13.3112   17.9076 C   0  0  0  0  0  0  0  0  0  0  0  0
   -2.7508   14.7478   17.5111 C   0  0  0  0  0  0  0  0  0  0  0  0
   -3.9212   15.7388   17.5277 C   0  0  0  0  0  0  0  0  0  0  0  0
   -3.4677   17.1874   17.7400 C   0  0  0  0  0  0  0  0  0  0  0  0
   -4.2326   18.1954   16.8769 C   0  0  0  0  0  0  0  0  0  0  0  0
   -4.2248   19.7091   14.8620 C   0  0  0  0  0  0  0  0  0  0  0  0
   -3.4082   18.7473   15.7120 C   0  0  0  0  0  0  0  0  0  0  0  0
 25 26  1  0
 26 24  1  0
 24 23  1  0
 23 22  1  0
 22 21  1  0
 21 20  1  0
 20 19  1  0
 19 18  1  0
 18 17  1  0
 17 16  1  0
 16 15  1  0
 15  1  1  0
  1  2  1  0
  2  3  1  0
  3  4  1  0
  3  5  1  0
  3  6  1  0
  6  7  1  0
  7  8  1  0
  7  9  1  0
  7 10  1  0
 10 11  1  0
 11 12  1  0
 11 13  1  0
 11 14  1  0
M  END
> <minimizedAffinity>
-6.00143

> <CNNscore>
0.4559686184

> <CNNaffinity>
6.4365057945

> <CNN_VS>
2.9348447323

> <CNNaffinity_variance>
0.6070425510

$$$$



 26 25  0  0  0  0  0  0  0  0999 V2000
   -3.4922    6.0886   17.8692 C   0  0  0  0  0  0  0  0  0  0  0  0
   -4.3560    5.9913   19.1356 C   0  0  0  0  0  0  0  0  0  0  0  0
   -5.8455    5.5422   18.9229 C   0  0  0  0  0  0  0  0  0  0  0  0
   -6.7166    6.7429   19.3279 C   0  0  0  0  0  0  0  0  0  0  0  0
   -6.0654    5.2771   17.4188 C   0  0  0  0  0  0  0  0  0  0  0  0
   -6.1099    4.2589   19.7809 C   0  0  0  0  0  0  0  0  0  0  0  0
   -4.9841    3.2632   20.2695 C   0  0  0  0  0  0  0  0  0  0  0  0
   -5.5099    2.3443   21.3829 C   0  0  0  0  0  0  0  0  0  0  0  0
   -4.6675    2.3740   19.0466 C   0  0  0  0  0  0  0  0  0  0  0  0
   -3.7239    4.0706   20.7343 C   0  0  0  0  0  0  0  0  0  0  0  0
   -2.2705    3.4931   20.7651 C   0  0  0  0  0  0  0  0  0  0  0  0
   -1.9008    3.1390   19.3001 C   0  0  0  0  0  0  0  0  0  0  0  0
   -2.1719    2.1842   21.5701 C   0  0  0  0  0  0  0  0  0  0  0  0
   -1.2235    4.4923   21.2712 C   0  0  0  0  0  0  0  0  0  0  0  0
   -2.4217    7.1859   17.9497 C   0  0  0  0  0  0  0  0  0  0  0  0
   -2.7970    8.3435   18.8795 C   0  0  0  0  0  0  0  0  0  0  0  0
   -2.1246    9.6685   18.4990 C   0  0  0  0  0  0  0  0  0  0  0  0
   -2.3236   10.7754   19.5385 C   0  0  0  0  0  0  0  0  0  0  0  0
   -2.3736   12.1794   18.9229 C   0  0  0  0  0  0  0  0  0  0  0  0
   -3.7078   12.5037   18.2494 C   0  0  0  0  0  0  0  0  0  0  0  0
   -3.6132   13.5700   17.1501 C   0  0  0  0  0  0  0  0  0  0  0  0
   -3.9823   14.9903   17.5959 C   0  0  0  0  0  0  0  0  0  0  0  0
   -2.7536   15.8779   17.8230 C   0  0  0  0  0  0  0  0  0  0  0  0
   -3.0818   17.3739   17.8477 C   0  0  0  0  0  0  0  0  0  0  0  0
   -3.7999   18.6852   15.8191 C   0  0  0  0  0  0  0  0  0  0  0  0
   -4.2497   17.7551   16.9357 C   0  0  0  0  0  0  0  0  0  0  0  0
 25 26  1  0
 26 24  1  0
 24 23  1  0
 23 22  1  0
 22 21  1  0
 21 20  1  0
 20 19  1  0
 19 18  1  0
 18 17  1  0
 17 16  1  0
 16 15  1  0
 15  1  1  0
  1  2  1  0
  2  3  1  0
  3  4  1  0
  3  5  1  0
  3  6  1  0
  6  7  1  0
  7  8  1  0
  7  9  1  0
  7 10  1  0
 10 11  1  0
 11 12  1  0
 11 13  1  0
 11 14  1  0
M  END
> <minimizedAffinity>
-6.75188

> <CNNscore>
0.4450268745

> <CNNaffinity>
6.7922539711

> <CNN_VS>
3.0227355957

> <CNNaffinity_variance>
0.8470247388

$$$$
