


 18 19  0  0  0  0  0  0  0  0999 V2000
   55.3973   20.9534  103.7233 C   0  0  0  0  0  0  0  0  0  0  0  0
   54.2591   21.5641  103.1890 C   0  0  0  0  0  0  0  0  0  0  0  0
   54.3379   22.8049  102.5385 C   0  0  0  0  0  0  0  0  0  0  0  0
   55.6061   23.3833  102.4654 C   0  0  0  0  0  0  0  0  0  0  0  0
   56.7362   22.8377  102.9688 N   0  0  0  0  0  0  0  0  0  0  0  0
   56.6095   21.6370  103.5849 C   0  0  0  0  0  0  0  0  0  0  0  0
   58.2235   20.8971  104.2808 Br  0  0  0  0  0  0  0  0  0  0  0  0
   53.1558   23.3823  102.0234 N   0  0  0  0  0  0  0  0  0  0  0  0
   53.4687   24.3250  100.9335 C   0  0  0  0  0  0  0  0  0  0  0  0
   52.2895   25.2260  100.5702 C   0  0  0  0  0  0  0  0  0  0  0  0
   51.2005   24.4909   99.7913 C   0  0  0  0  0  0  0  0  0  0  0  0
   50.2092   23.7668  100.5779 N   0  0  0  0  0  0  0  0  0  0  0  0
   50.6875   23.1354  101.8102 C   0  0  0  0  0  0  0  0  0  0  0  0
   52.0577   22.4297  101.7596 C   0  0  0  0  0  0  0  0  0  0  0  0
   49.8186   23.0340   99.9855 H   0  0  0  0  0  0  0  0  0  0  0  0
   55.4065   19.7464  104.3682 O   0  0  0  0  0  0  0  0  0  0  0  0
   55.3282   17.3668  104.3779 C   0  0  0  0  0  0  0  0  0  0  0  0
   55.7987   18.5963  103.6219 C   0  0  0  0  0  0  0  0  0  0  0  0
 17 18  1  0
 18 16  1  0
 16  1  1  0
  1  2  2  0
  2  3  1  0
  3  8  1  0
  8  9  1  0
  9 10  1  0
 10 11  1  0
 11 12  1  0
 12 13  1  0
 13 14  1  0
  3  4  2  0
  4  5  1  0
  5  6  2  0
  6  7  1  0
  6  1  1  0
 14  8  1  0
 12 15  1  0
M  END
> <minimizedAffinity>
-4.33463

> <CNNscore>
0.8859061599

> <CNNaffinity>
7.6535191536

> <CNN_VS>
6.7802996635

> <CNNaffinity_variance>
0.9774918556

$$$$



 18 19  0  0  0  0  0  0  0  0999 V2000
   61.1712   28.3969  106.2069 C   0  0  0  0  0  0  0  0  0  0  0  0
   61.9920   29.3110  106.8737 C   0  0  0  0  0  0  0  0  0  0  0  0
   62.6640   30.3268  106.1771 C   0  0  0  0  0  0  0  0  0  0  0  0
   62.4670   30.3615  104.7957 C   0  0  0  0  0  0  0  0  0  0  0  0
   61.6888   29.5000  104.1026 N   0  0  0  0  0  0  0  0  0  0  0  0
   61.0578   28.5386  104.8202 C   0  0  0  0  0  0  0  0  0  0  0  0
   59.9678   27.3431  103.8105 Br  0  0  0  0  0  0  0  0  0  0  0  0
   63.4878   31.2197  106.8983 N   0  0  0  0  0  0  0  0  0  0  0  0
   63.1981   31.1448  108.3423 C   0  0  0  0  0  0  0  0  0  0  0  0
   63.7980   32.3083  109.1300 C   0  0  0  0  0  0  0  0  0  0  0  0
   65.3114   32.1908  109.2996 C   0  0  0  0  0  0  0  0  0  0  0  0
   66.1335   32.7030  108.2098 N   0  0  0  0  0  0  0  0  0  0  0  0
   65.6006   32.5362  106.8555 C   0  0  0  0  0  0  0  0  0  0  0  0
   64.9165   31.1947  106.5230 C   0  0  0  0  0  0  0  0  0  0  0  0
   67.0338   32.2252  108.2497 H   0  0  0  0  0  0  0  0  0  0  0  0
   60.4803   27.3817  106.8110 O   0  0  0  0  0  0  0  0  0  0  0  0
   58.2634   28.1325  107.2476 C   0  0  0  0  0  0  0  0  0  0  0  0
   59.5866   27.7224  107.8686 C   0  0  0  0  0  0  0  0  0  0  0  0
 17 18  1  0
 18 16  1  0
 16  1  1  0
  1  2  2  0
  2  3  1  0
  3  8  1  0
  8  9  1  0
  9 10  1  0
 10 11  1  0
 11 12  1  0
 12 13  1  0
 13 14  1  0
  3  4  2  0
  4  5  1  0
  5  6  2  0
  6  7  1  0
  6  1  1  0
 14  8  1  0
 12 15  1  0
M  END
> <minimizedAffinity>
-4.23592

> <CNNscore>
0.5583324432

> <CNNaffinity>
4.3752689362

> <CNN_VS>
2.4428546429

> <CNNaffinity_variance>
0.2016901523

$$$$



 18 19  0  0  0  0  0  0  0  0999 V2000
   61.2004   28.4968  105.7800 C   0  0  0  0  0  0  0  0  0  0  0  0
   61.4785   29.5498  104.9038 C   0  0  0  0  0  0  0  0  0  0  0  0
   62.4511   30.5133  105.2113 C   0  0  0  0  0  0  0  0  0  0  0  0
   63.1088   30.3575  106.4326 C   0  0  0  0  0  0  0  0  0  0  0  0
   62.8747   29.3617  107.3167 N   0  0  0  0  0  0  0  0  0  0  0  0
   61.9287   28.4537  106.9732 C   0  0  0  0  0  0  0  0  0  0  0  0
   61.6265   27.0629  108.2425 Br  0  0  0  0  0  0  0  0  0  0  0  0
   62.6877   31.5618  104.2944 N   0  0  0  0  0  0  0  0  0  0  0  0
   64.0450   31.4610  103.7269 C   0  0  0  0  0  0  0  0  0  0  0  0
   64.4825   32.7333  103.0030 C   0  0  0  0  0  0  0  0  0  0  0  0
   63.7944   32.9120  101.6511 C   0  0  0  0  0  0  0  0  0  0  0  0
   62.4839   33.5509  101.6635 N   0  0  0  0  0  0  0  0  0  0  0  0
   61.6253   33.2584  102.8138 C   0  0  0  0  0  0  0  0  0  0  0  0
   61.5981   31.8042  103.3264 C   0  0  0  0  0  0  0  0  0  0  0  0
   61.9872   33.2558  100.8229 H   0  0  0  0  0  0  0  0  0  0  0  0
   60.2720   27.5170  105.5543 O   0  0  0  0  0  0  0  0  0  0  0  0
   59.3927   26.8739  103.4372 C   0  0  0  0  0  0  0  0  0  0  0  0
   60.4911   26.6329  104.4571 C   0  0  0  0  0  0  0  0  0  0  0  0
 17 18  1  0
 18 16  1  0
 16  1  1  0
  1  2  2  0
  2  3  1  0
  3  8  1  0
  8  9  1  0
  9 10  1  0
 10 11  1  0
 11 12  1  0
 12 13  1  0
 13 14  1  0
  3  4  2  0
  4  5  1  0
  5  6  2  0
  6  7  1  0
  6  1  1  0
 14  8  1  0
 12 15  1  0
M  END
> <minimizedAffinity>
-4.10055

> <CNNscore>
0.5332896709

> <CNNaffinity>
4.2446899414

> <CNN_VS>
2.2636492252

> <CNNaffinity_variance>
0.6895785928

$$$$



 18 19  0  0  0  0  0  0  0  0999 V2000
   61.0683   28.4927  106.5570 C   0  0  0  0  0  0  0  0  0  0  0  0
   61.3397   29.3082  105.4546 C   0  0  0  0  0  0  0  0  0  0  0  0
   62.4072   30.2187  105.4697 C   0  0  0  0  0  0  0  0  0  0  0  0
   63.1655   30.2605  106.6407 C   0  0  0  0  0  0  0  0  0  0  0  0
   62.9429   29.4981  107.7350 N   0  0  0  0  0  0  0  0  0  0  0  0
   61.9026   28.6317  107.6709 C   0  0  0  0  0  0  0  0  0  0  0  0
   61.6196   27.5719  109.2309 Br  0  0  0  0  0  0  0  0  0  0  0  0
   62.6330   31.0252  104.3318 N   0  0  0  0  0  0  0  0  0  0  0  0
   61.3820   31.6731  103.8961 C   0  0  0  0  0  0  0  0  0  0  0  0
   61.4806   32.2740  102.4949 C   0  0  0  0  0  0  0  0  0  0  0  0
   62.3063   33.5585  102.4582 C   0  0  0  0  0  0  0  0  0  0  0  0
   63.7504   33.4045  102.3291 N   0  0  0  0  0  0  0  0  0  0  0  0
   64.3469   32.2489  103.0036 C   0  0  0  0  0  0  0  0  0  0  0  0
   63.8210   31.8999  104.4106 C   0  0  0  0  0  0  0  0  0  0  0  0
   64.1868   34.2445  102.7090 H   0  0  0  0  0  0  0  0  0  0  0  0
   60.0513   27.5793  106.6217 O   0  0  0  0  0  0  0  0  0  0  0  0
   58.0382   27.8165  107.8707 C   0  0  0  0  0  0  0  0  0  0  0  0
   58.7137   28.0655  106.5341 C   0  0  0  0  0  0  0  0  0  0  0  0
 17 18  1  0
 18 16  1  0
 16  1  1  0
  1  2  2  0
  2  3  1  0
  3  8  1  0
  8  9  1  0
  9 10  1  0
 10 11  1  0
 11 12  1  0
 12 13  1  0
 13 14  1  0
  3  4  2  0
  4  5  1  0
  5  6  2  0
  6  7  1  0
  6  1  1  0
 14  8  1  0
 12 15  1  0
M  END
> <minimizedAffinity>
-3.83488

> <CNNscore>
0.4868787527

> <CNNaffinity>
4.2905535698

> <CNN_VS>
2.0889794827

> <CNNaffinity_variance>
0.2911303043

$$$$



 18 19  0  0  0  0  0  0  0  0999 V2000
   59.2940   28.0602  107.4534 C   0  0  0  0  0  0  0  0  0  0  0  0
   58.1657   28.7435  107.9160 C   0  0  0  0  0  0  0  0  0  0  0  0
   58.1341   29.3085  109.2000 C   0  0  0  0  0  0  0  0  0  0  0  0
   59.2827   29.1420  109.9754 C   0  0  0  0  0  0  0  0  0  0  0  0
   60.3970   28.4872  109.5781 N   0  0  0  0  0  0  0  0  0  0  0  0
   60.3805   27.9620  108.3286 C   0  0  0  0  0  0  0  0  0  0  0  0
   61.9688   27.0475  107.8016 Br  0  0  0  0  0  0  0  0  0  0  0  0
   56.9656   29.9817  109.6213 N   0  0  0  0  0  0  0  0  0  0  0  0
   55.7803   29.4579  108.9176 C   0  0  0  0  0  0  0  0  0  0  0  0
   54.5543   30.3570  109.0679 C   0  0  0  0  0  0  0  0  0  0  0  0
   53.9237   30.2713  110.4564 C   0  0  0  0  0  0  0  0  0  0  0  0
   54.4924   31.1311  111.4874 N   0  0  0  0  0  0  0  0  0  0  0  0
   55.9388   31.3557  111.4260 C   0  0  0  0  0  0  0  0  0  0  0  0
   56.8303   30.1449  111.0835 C   0  0  0  0  0  0  0  0  0  0  0  0
   54.2822   30.7104  112.3925 H   0  0  0  0  0  0  0  0  0  0  0  0
   59.4065   27.4845  106.2171 O   0  0  0  0  0  0  0  0  0  0  0  0
   60.5344   27.6081  104.1239 C   0  0  0  0  0  0  0  0  0  0  0  0
   59.6352   28.3430  105.1017 C   0  0  0  0  0  0  0  0  0  0  0  0
 17 18  1  0
 18 16  1  0
 16  1  1  0
  1  2  2  0
  2  3  1  0
  3  8  1  0
  8  9  1  0
  9 10  1  0
 10 11  1  0
 11 12  1  0
 12 13  1  0
 13 14  1  0
  3  4  2  0
  4  5  1  0
  5  6  2  0
  6  7  1  0
  6  1  1  0
 14  8  1  0
 12 15  1  0
M  END
> <minimizedAffinity>
-4.38170

> <CNNscore>
0.4786055684

> <CNNaffinity>
4.5541133881

> <CNN_VS>
2.1796240807

> <CNNaffinity_variance>
0.1959940791

$$$$



 18 19  0  0  0  0  0  0  0  0999 V2000
   61.2859   28.8795  104.9423 C   0  0  0  0  0  0  0  0  0  0  0  0
   62.2782   29.7966  105.3004 C   0  0  0  0  0  0  0  0  0  0  0  0
   62.4163   31.0185  104.6246 C   0  0  0  0  0  0  0  0  0  0  0  0
   61.5158   31.2529  103.5842 C   0  0  0  0  0  0  0  0  0  0  0  0
   60.5424   30.3988  103.1954 N   0  0  0  0  0  0  0  0  0  0  0  0
   60.4468   29.2334  103.8808 C   0  0  0  0  0  0  0  0  0  0  0  0
   59.0622   28.0545  103.3065 Br  0  0  0  0  0  0  0  0  0  0  0  0
   63.4413   31.9063  105.0214 N   0  0  0  0  0  0  0  0  0  0  0  0
   64.3982   31.2302  105.9167 C   0  0  0  0  0  0  0  0  0  0  0  0
   65.3218   32.2054  106.6449 C   0  0  0  0  0  0  0  0  0  0  0  0
   66.3971   32.7947  105.7342 C   0  0  0  0  0  0  0  0  0  0  0  0
   66.0227   33.9683  104.9543 N   0  0  0  0  0  0  0  0  0  0  0  0
   64.6408   34.0174  104.4706 C   0  0  0  0  0  0  0  0  0  0  0  0
   64.0320   32.7078  103.9298 C   0  0  0  0  0  0  0  0  0  0  0  0
   66.6373   34.0092  104.1413 H   0  0  0  0  0  0  0  0  0  0  0  0
   61.0828   27.6707  105.5509 O   0  0  0  0  0  0  0  0  0  0  0  0
   61.9428   26.7486  107.5705 C   0  0  0  0  0  0  0  0  0  0  0  0
   60.8919   27.6609  106.9640 C   0  0  0  0  0  0  0  0  0  0  0  0
 17 18  1  0
 18 16  1  0
 16  1  1  0
  1  2  2  0
  2  3  1  0
  3  8  1  0
  8  9  1  0
  9 10  1  0
 10 11  1  0
 11 12  1  0
 12 13  1  0
 13 14  1  0
  3  4  2  0
  4  5  1  0
  5  6  2  0
  6  7  1  0
  6  1  1  0
 14  8  1  0
 12 15  1  0
M  END
> <minimizedAffinity>
-3.71413

> <CNNscore>
0.4210620224

> <CNNaffinity>
4.0472602844

> <CNN_VS>
1.7041475773

> <CNNaffinity_variance>
0.2889020145

$$$$



 18 19  0  0  0  0  0  0  0  0999 V2000
   60.8414   29.1755  106.2447 C   0  0  0  0  0  0  0  0  0  0  0  0
   62.0633   29.8478  106.3396 C   0  0  0  0  0  0  0  0  0  0  0  0
   62.6465   30.1224  107.5859 C   0  0  0  0  0  0  0  0  0  0  0  0
   61.9358   29.6922  108.7075 C   0  0  0  0  0  0  0  0  0  0  0  0
   60.7502   29.0432  108.6710 N   0  0  0  0  0  0  0  0  0  0  0  0
   60.2290   28.7979  107.4440 C   0  0  0  0  0  0  0  0  0  0  0  0
   58.5577   27.8796  107.4307 Br  0  0  0  0  0  0  0  0  0  0  0  0
   63.8790   30.8119  107.6261 N   0  0  0  0  0  0  0  0  0  0  0  0
   64.3062   31.1946  106.2675 C   0  0  0  0  0  0  0  0  0  0  0  0
   65.7690   31.6308  106.2052 C   0  0  0  0  0  0  0  0  0  0  0  0
   65.9998   33.0168  106.8042 C   0  0  0  0  0  0  0  0  0  0  0  0
   66.1998   33.0809  108.2470 N   0  0  0  0  0  0  0  0  0  0  0  0
   65.4388   32.1249  109.0551 C   0  0  0  0  0  0  0  0  0  0  0  0
   63.9719   31.8682  108.6549 C   0  0  0  0  0  0  0  0  0  0  0  0
   65.9437   34.0193  108.5540 H   0  0  0  0  0  0  0  0  0  0  0  0
   60.2085   28.8670  105.0712 O   0  0  0  0  0  0  0  0  0  0  0  0
   59.9071   26.8683  103.8130 C   0  0  0  0  0  0  0  0  0  0  0  0
   60.8724   27.9845  104.1691 C   0  0  0  0  0  0  0  0  0  0  0  0
 17 18  1  0
 18 16  1  0
 16  1  1  0
  1  2  2  0
  2  3  1  0
  3  8  1  0
  8  9  1  0
  9 10  1  0
 10 11  1  0
 11 12  1  0
 12 13  1  0
 13 14  1  0
  3  4  2  0
  4  5  1  0
  5  6  2  0
  6  7  1  0
  6  1  1  0
 14  8  1  0
 12 15  1  0
M  END
> <minimizedAffinity>
-3.79278

> <CNNscore>
0.4001337290

> <CNNaffinity>
4.3431267738

> <CNN_VS>
1.7378314734

> <CNNaffinity_variance>
0.4734286368

$$$$



 18 19  0  0  0  0  0  0  0  0999 V2000
   59.8005   28.5475  106.8625 C   0  0  0  0  0  0  0  0  0  0  0  0
   59.0412   29.6724  106.5278 C   0  0  0  0  0  0  0  0  0  0  0  0
   58.9993   30.7965  107.3666 C   0  0  0  0  0  0  0  0  0  0  0  0
   59.7490   30.7176  108.5412 C   0  0  0  0  0  0  0  0  0  0  0  0
   60.4953   29.6534  108.9136 N   0  0  0  0  0  0  0  0  0  0  0  0
   60.5066   28.5934  108.0688 C   0  0  0  0  0  0  0  0  0  0  0  0
   61.5707   27.1118  108.6250 Br  0  0  0  0  0  0  0  0  0  0  0  0
   58.2095   31.9042  106.9851 N   0  0  0  0  0  0  0  0  0  0  0  0
   58.1427   32.0149  105.5161 C   0  0  0  0  0  0  0  0  0  0  0  0
   57.6013   33.3638  105.0458 C   0  0  0  0  0  0  0  0  0  0  0  0
   56.0938   33.5009  105.2505 C   0  0  0  0  0  0  0  0  0  0  0  0
   55.6504   33.9520  106.5641 N   0  0  0  0  0  0  0  0  0  0  0  0
   56.4392   33.4970  107.7116 C   0  0  0  0  0  0  0  0  0  0  0  0
   56.9246   32.0333  107.7027 C   0  0  0  0  0  0  0  0  0  0  0  0
   54.6932   33.6257  106.6970 H   0  0  0  0  0  0  0  0  0  0  0  0
   59.8972   27.4151  106.1002 O   0  0  0  0  0  0  0  0  0  0  0  0
   61.0796   27.1912  104.0457 C   0  0  0  0  0  0  0  0  0  0  0  0
   59.7514   27.5492  104.6881 C   0  0  0  0  0  0  0  0  0  0  0  0
 17 18  1  0
 18 16  1  0
 16  1  1  0
  1  2  2  0
  2  3  1  0
  3  8  1  0
  8  9  1  0
  9 10  1  0
 10 11  1  0
 11 12  1  0
 12 13  1  0
 13 14  1  0
  3  4  2  0
  4  5  1  0
  5  6  2  0
  6  7  1  0
  6  1  1  0
 14  8  1  0
 12 15  1  0
M  END
> <minimizedAffinity>
-3.65469

> <CNNscore>
0.3911607862

> <CNNaffinity>
4.2368645668

> <CNN_VS>
1.6572952271

> <CNNaffinity_variance>
0.6582002640

$$$$



 18 19  0  0  0  0  0  0  0  0999 V2000
   60.6682   28.1747  107.3121 C   0  0  0  0  0  0  0  0  0  0  0  0
   60.0522   28.5698  108.5031 C   0  0  0  0  0  0  0  0  0  0  0  0
   58.6547   28.6300  108.6131 C   0  0  0  0  0  0  0  0  0  0  0  0
   57.9307   28.2803  107.4721 C   0  0  0  0  0  0  0  0  0  0  0  0
   58.4765   27.8963  106.2962 N   0  0  0  0  0  0  0  0  0  0  0  0
   59.8301   27.8506  106.2404 C   0  0  0  0  0  0  0  0  0  0  0  0
   60.5647   27.3033  104.5678 Br  0  0  0  0  0  0  0  0  0  0  0  0
   58.0832   29.0436  109.8372 N   0  0  0  0  0  0  0  0  0  0  0  0
   59.1341   29.3604  110.8219 C   0  0  0  0  0  0  0  0  0  0  0  0
   58.5966   29.4803  112.2470 C   0  0  0  0  0  0  0  0  0  0  0  0
   57.8147   30.7718  112.4784 C   0  0  0  0  0  0  0  0  0  0  0  0
   56.4043   30.7577  112.1095 N   0  0  0  0  0  0  0  0  0  0  0  0
   56.0451   29.9641  110.9317 C   0  0  0  0  0  0  0  0  0  0  0  0
   56.9913   30.0315  109.7159 C   0  0  0  0  0  0  0  0  0  0  0  0
   56.1205   31.7212  111.9323 H   0  0  0  0  0  0  0  0  0  0  0  0
   62.0208   28.0868  107.1238 O   0  0  0  0  0  0  0  0  0  0  0  0
   62.6591   30.1910  106.2105 C   0  0  0  0  0  0  0  0  0  0  0  0
   62.8063   29.2467  107.3901 C   0  0  0  0  0  0  0  0  0  0  0  0
 17 18  1  0
 18 16  1  0
 16  1  1  0
  1  2  2  0
  2  3  1  0
  3  8  1  0
  8  9  1  0
  9 10  1  0
 10 11  1  0
 11 12  1  0
 12 13  1  0
 13 14  1  0
  3  4  2  0
  4  5  1  0
  5  6  2  0
  6  7  1  0
  6  1  1  0
 14  8  1  0
 12 15  1  0
M  END
> <minimizedAffinity>
-4.20010

> <CNNscore>
0.3444277346

> <CNNaffinity>
4.5018119812

> <CNN_VS>
1.5505489111

> <CNNaffinity_variance>
0.1724108458

$$$$
