


 31 31  0  0  0  0  0  0  0  0999 V2000
   39.8509    7.0699    8.7021 C   0  0  0  0  0  0  0  0  0  0  0  0
   39.5636    6.6808    9.9861 O   0  0  0  0  0  0  0  0  0  0  0  0
   38.9308    5.4589    9.9866 N   0  0  0  0  0  0  0  0  0  0  0  0
   38.8678    5.1072    8.7083 C   0  0  0  0  0  0  0  0  0  0  0  0
   39.3379    6.1143    7.8310 C   0  0  0  0  0  0  0  0  0  0  0  0
   42.0339    8.2918    9.1700 C   0  0  0  0  0  0  0  0  0  0  0  0
   40.6021    8.3852    8.6243 C   0  0  0  0  0  0  0  0  0  0  0  0
   39.8612    9.4538    9.4589 C   0  0  0  0  0  0  0  0  0  0  0  0
   40.6612    8.8524    7.1584 C   0  0  0  0  0  0  0  0  0  0  0  0
   38.3153    3.9296    8.3353 O   0  0  0  0  0  0  0  0  0  0  0  0
   37.2615    3.4608    9.1951 C   0  0  0  0  0  0  0  0  0  0  0  0
   37.7379    1.8404    9.8002 P   0  0  0  0  0  0  0  0  0  0  0  0
   36.7194    0.7567    9.5745 O   0  0  0  0  0  0  0  0  0  0  0  0
   39.1679    1.5363    9.1632 O   0  0  0  0  0  0  0  0  0  0  0  0
   38.1114    1.9876   11.3503 O   0  0  0  0  0  0  0  0  0  0  0  0
   39.0773    1.4236    8.2041 H   0  0  0  0  0  0  0  0  0  0  0  0
   37.3083    2.1784   11.8597 H   0  0  0  0  0  0  0  0  0  0  0  0
   39.2850    6.0579    6.3370 C   0  0  0  0  0  0  0  0  0  0  0  0
   40.0112    4.8366    5.6945 C   0  0  0  0  0  0  0  0  0  0  0  0
   41.4098    5.1258    5.3557 N   0  0  0  0  0  0  0  0  0  0  0  0
   41.4433    5.8555    4.6438 H   0  0  0  0  0  0  0  0  0  0  0  0
   41.8546    4.2807    4.9975 H   0  0  0  0  0  0  0  0  0  0  0  0
   39.1940    4.2399    4.4986 C   0  0  0  0  0  0  0  0  0  0  0  0
   38.3440    2.9092    4.7757 N   0  0  0  0  0  0  0  0  0  0  0  0
   36.9825    3.2938    5.3358 C   0  0  0  0  0  0  0  0  0  0  0  0
   39.1107    2.0877    5.7954 C   0  0  0  0  0  0  0  0  0  0  0  0
   38.2279    2.2474    3.4070 C   0  0  0  0  0  0  0  0  0  0  0  0
   37.0782    1.3307    3.0320 N   0  0  0  0  0  0  0  0  0  0  0  0
   36.6433    0.6464    4.3621 C   0  0  0  0  0  0  0  0  0  0  0  0
   35.8338    2.0889    2.5602 C   0  0  0  0  0  0  0  0  0  0  0  0
   37.4044    0.2105    2.0684 C   0  0  0  0  0  0  0  0  0  0  0  0
  6  7  1  0
  7  8  1  0
  7  9  1  0
  7  1  1  0
  1  2  1  0
  2  3  1  0
  3  4  2  0
  4 10  1  0
 10 11  1  0
 11 12  1  0
 12 13  2  0
 12 14  1  0
 12 15  1  0
  4  5  1  0
  5 18  1  0
 18 19  1  0
 19 20  1  0
 19 23  1  0
 23 24  1  0
 24 25  1  0
 24 26  1  0
 24 27  1  0
 27 28  1  0
 28 29  1  0
 28 30  1  0
 28 31  1  0
  5  1  2  0
 14 16  1  0
 15 17  1  0
 20 21  1  0
 20 22  1  0
M  CHG 1  24   1
M  CHG 1  28   1
M  END
> <minimizedAffinity>
-6.70806

> <CNNscore>
0.6375796795

> <CNNaffinity>
6.3477973938

> <CNN_VS>
4.0472264290

> <CNNaffinity_variance>
0.1107912436

$$$$



 31 31  0  0  0  0  0  0  0  0999 V2000
   39.6748    6.6444    8.5633 C   0  0  0  0  0  0  0  0  0  0  0  0
   39.3977    6.3401    9.8722 O   0  0  0  0  0  0  0  0  0  0  0  0
   38.7808    5.1132    9.9591 N   0  0  0  0  0  0  0  0  0  0  0  0
   38.7171    4.6745    8.7080 C   0  0  0  0  0  0  0  0  0  0  0  0
   39.1706    5.6253    7.7618 C   0  0  0  0  0  0  0  0  0  0  0  0
   40.6564    8.3231    6.9215 C   0  0  0  0  0  0  0  0  0  0  0  0
   40.4086    7.9608    8.3925 C   0  0  0  0  0  0  0  0  0  0  0  0
   41.7879    7.8773    9.0837 C   0  0  0  0  0  0  0  0  0  0  0  0
   39.5913    9.0887    9.0485 C   0  0  0  0  0  0  0  0  0  0  0  0
   38.1784    3.4673    8.4187 O   0  0  0  0  0  0  0  0  0  0  0  0
   36.8361    3.2772    8.8998 C   0  0  0  0  0  0  0  0  0  0  0  0
   36.8904    2.0088   10.1675 P   0  0  0  0  0  0  0  0  0  0  0  0
   38.1247    2.0266   11.0271 O   0  0  0  0  0  0  0  0  0  0  0  0
   35.5253    2.1418   10.9810 O   0  0  0  0  0  0  0  0  0  0  0  0
   36.6896    0.5914    9.4500 O   0  0  0  0  0  0  0  0  0  0  0  0
   35.5212    2.9789   11.4710 H   0  0  0  0  0  0  0  0  0  0  0  0
   37.4701    0.3884    8.9109 H   0  0  0  0  0  0  0  0  0  0  0  0
   39.1124    5.4666    6.2754 C   0  0  0  0  0  0  0  0  0  0  0  0
   40.1448    4.4632    5.6759 C   0  0  0  0  0  0  0  0  0  0  0  0
   41.4295    5.0979    5.3579 N   0  0  0  0  0  0  0  0  0  0  0  0
   41.2914    5.7990    4.6300 H   0  0  0  0  0  0  0  0  0  0  0  0
   42.0860    4.3903    5.0282 H   0  0  0  0  0  0  0  0  0  0  0  0
   39.5390    3.6551    4.4784 C   0  0  0  0  0  0  0  0  0  0  0  0
   39.1034    2.1376    4.7565 N   0  0  0  0  0  0  0  0  0  0  0  0
   39.9591    1.5701    5.8794 C   0  0  0  0  0  0  0  0  0  0  0  0
   39.3429    1.3573    3.4773 C   0  0  0  0  0  0  0  0  0  0  0  0
   37.6355    2.2368    5.1567 C   0  0  0  0  0  0  0  0  0  0  0  0
   36.5204    2.4415    4.1480 N   0  0  0  0  0  0  0  0  0  0  0  0
   36.7543    3.8629    3.5548 C   0  0  0  0  0  0  0  0  0  0  0  0
   36.6168    1.4980    2.9453 C   0  0  0  0  0  0  0  0  0  0  0  0
   35.1118    2.4418    4.7007 C   0  0  0  0  0  0  0  0  0  0  0  0
  6  7  1  0
  7  8  1  0
  7  9  1  0
  7  1  1  0
  1  2  1  0
  2  3  1  0
  3  4  2  0
  4 10  1  0
 10 11  1  0
 11 12  1  0
 12 13  2  0
 12 14  1  0
 12 15  1  0
  4  5  1  0
  5 18  1  0
 18 19  1  0
 19 20  1  0
 19 23  1  0
 23 24  1  0
 24 25  1  0
 24 26  1  0
 24 27  1  0
 27 28  1  0
 28 29  1  0
 28 30  1  0
 28 31  1  0
  5  1  2  0
 14 16  1  0
 15 17  1  0
 20 21  1  0
 20 22  1  0
M  CHG 1  24   1
M  CHG 1  28   1
M  END
> <minimizedAffinity>
-6.66318

> <CNNscore>
0.4268390834

> <CNNaffinity>
6.0822386742

> <CNN_VS>
2.5961372852

> <CNNaffinity_variance>
0.1892773658

$$$$



 31 31  0  0  0  0  0  0  0  0999 V2000
   34.2942    7.4970    9.9253 C   0  0  0  0  0  0  0  0  0  0  0  0
   33.2535    6.8897   10.5817 O   0  0  0  0  0  0  0  0  0  0  0  0
   33.6286    5.6422   11.0249 N   0  0  0  0  0  0  0  0  0  0  0  0
   34.8986    5.5184   10.6594 C   0  0  0  0  0  0  0  0  0  0  0  0
   35.3601    6.6044    9.8766 C   0  0  0  0  0  0  0  0  0  0  0  0
   32.6295    9.4211    9.9884 C   0  0  0  0  0  0  0  0  0  0  0  0
   33.9729    8.9030    9.4559 C   0  0  0  0  0  0  0  0  0  0  0  0
   33.8960    8.9280    7.9130 C   0  0  0  0  0  0  0  0  0  0  0  0
   35.0884    9.8605    9.9136 C   0  0  0  0  0  0  0  0  0  0  0  0
   35.6042    4.4025   10.9558 O   0  0  0  0  0  0  0  0  0  0  0  0
   35.0687    3.1877   10.4017 C   0  0  0  0  0  0  0  0  0  0  0  0
   36.0520    1.8261   11.0324 P   0  0  0  0  0  0  0  0  0  0  0  0
   35.7518    1.4346   12.4534 O   0  0  0  0  0  0  0  0  0  0  0  0
   35.8872    0.6402    9.9790 O   0  0  0  0  0  0  0  0  0  0  0  0
   37.5952    2.2055   10.8368 O   0  0  0  0  0  0  0  0  0  0  0  0
   34.9740    0.3140    9.9995 H   0  0  0  0  0  0  0  0  0  0  0  0
   37.8279    2.9324   11.4354 H   0  0  0  0  0  0  0  0  0  0  0  0
   36.7031    6.6951    9.2238 C   0  0  0  0  0  0  0  0  0  0  0  0
   37.1075    5.4565    8.3669 C   0  0  0  0  0  0  0  0  0  0  0  0
   38.1034    4.6095    9.0341 N   0  0  0  0  0  0  0  0  0  0  0  0
   38.9681    5.1358    9.1594 H   0  0  0  0  0  0  0  0  0  0  0  0
   38.2869    3.7853    8.4618 H   0  0  0  0  0  0  0  0  0  0  0  0
   37.5177    5.8676    6.9120 C   0  0  0  0  0  0  0  0  0  0  0  0
   36.8514    5.0574    5.6997 N   0  0  0  0  0  0  0  0  0  0  0  0
   35.5772    5.7666    5.2655 C   0  0  0  0  0  0  0  0  0  0  0  0
   36.5221    3.6676    6.2124 C   0  0  0  0  0  0  0  0  0  0  0  0
   37.9136    5.0793    4.6061 C   0  0  0  0  0  0  0  0  0  0  0  0
   39.0387    4.0636    4.5323 N   0  0  0  0  0  0  0  0  0  0  0  0
   40.0652    4.6552    3.5208 C   0  0  0  0  0  0  0  0  0  0  0  0
   39.8176    3.9327    5.8446 C   0  0  0  0  0  0  0  0  0  0  0  0
   38.6685    2.6944    4.0053 C   0  0  0  0  0  0  0  0  0  0  0  0
  6  7  1  0
  7  8  1  0
  7  9  1  0
  7  1  1  0
  1  2  1  0
  2  3  1  0
  3  4  2  0
  4 10  1  0
 10 11  1  0
 11 12  1  0
 12 13  2  0
 12 14  1  0
 12 15  1  0
  4  5  1  0
  5 18  1  0
 18 19  1  0
 19 20  1  0
 19 23  1  0
 23 24  1  0
 24 25  1  0
 24 26  1  0
 24 27  1  0
 27 28  1  0
 28 29  1  0
 28 30  1  0
 28 31  1  0
  5  1  2  0
 14 16  1  0
 15 17  1  0
 20 21  1  0
 20 22  1  0
M  CHG 1  24   1
M  CHG 1  28   1
M  END
> <minimizedAffinity>
-5.34995

> <CNNscore>
0.1949599236

> <CNNaffinity>
5.1319313049

> <CNN_VS>
1.0005209446

> <CNNaffinity_variance>
0.0021755383

$$$$



 31 31  0  0  0  0  0  0  0  0999 V2000
   35.2079    4.9039    3.2695 C   0  0  0  0  0  0  0  0  0  0  0  0
   36.1309    4.1737    2.5640 O   0  0  0  0  0  0  0  0  0  0  0  0
   37.2927    4.0405    3.2892 N   0  0  0  0  0  0  0  0  0  0  0  0
   37.0522    4.6643    4.4358 C   0  0  0  0  0  0  0  0  0  0  0  0
   35.7963    5.3180    4.4601 C   0  0  0  0  0  0  0  0  0  0  0  0
   32.7166    4.3858    3.3137 C   0  0  0  0  0  0  0  0  0  0  0  0
   33.8772    5.0450    2.5555 C   0  0  0  0  0  0  0  0  0  0  0  0
   33.9611    4.3711    1.1677 C   0  0  0  0  0  0  0  0  0  0  0  0
   33.5575    6.5389    2.3641 C   0  0  0  0  0  0  0  0  0  0  0  0
   37.9875    4.7142    5.4123 O   0  0  0  0  0  0  0  0  0  0  0  0
   39.0806    5.6127    5.1525 C   0  0  0  0  0  0  0  0  0  0  0  0
   40.5358    4.6146    4.8283 P   0  0  0  0  0  0  0  0  0  0  0  0
   40.6766    4.1455    3.4061 O   0  0  0  0  0  0  0  0  0  0  0  0
   41.7771    5.4607    5.3634 O   0  0  0  0  0  0  0  0  0  0  0  0
   40.5268    3.3881    5.8576 O   0  0  0  0  0  0  0  0  0  0  0  0
   41.8924    6.2500    4.8114 H   0  0  0  0  0  0  0  0  0  0  0  0
   39.8002    2.7850    5.6357 H   0  0  0  0  0  0  0  0  0  0  0  0
   35.2956    6.1954    5.5635 C   0  0  0  0  0  0  0  0  0  0  0  0
   35.8181    5.8318    6.9871 C   0  0  0  0  0  0  0  0  0  0  0  0
   35.5739    4.4272    7.3363 N   0  0  0  0  0  0  0  0  0  0  0  0
   34.5691    4.2559    7.3736 H   0  0  0  0  0  0  0  0  0  0  0  0
   35.9872    4.2265    8.2470 H   0  0  0  0  0  0  0  0  0  0  0  0
   35.2997    6.8390    8.0692 C   0  0  0  0  0  0  0  0  0  0  0  0
   35.9802    8.2898    8.1143 N   0  0  0  0  0  0  0  0  0  0  0  0
   35.6858    8.9380    9.4590 C   0  0  0  0  0  0  0  0  0  0  0  0
   35.3654    9.1120    6.9968 C   0  0  0  0  0  0  0  0  0  0  0  0
   37.4683    8.0112    7.9326 C   0  0  0  0  0  0  0  0  0  0  0  0
   38.4006    7.7325    9.0969 N   0  0  0  0  0  0  0  0  0  0  0  0
   39.4791    6.7564    8.5396 C   0  0  0  0  0  0  0  0  0  0  0  0
   39.1885    8.9671    9.5452 C   0  0  0  0  0  0  0  0  0  0  0  0
   37.7853    7.0419   10.2945 C   0  0  0  0  0  0  0  0  0  0  0  0
  6  7  1  0
  7  8  1  0
  7  9  1  0
  7  1  1  0
  1  2  1  0
  2  3  1  0
  3  4  2  0
  4 10  1  0
 10 11  1  0
 11 12  1  0
 12 13  2  0
 12 14  1  0
 12 15  1  0
  4  5  1  0
  5 18  1  0
 18 19  1  0
 19 20  1  0
 19 23  1  0
 23 24  1  0
 24 25  1  0
 24 26  1  0
 24 27  1  0
 27 28  1  0
 28 29  1  0
 28 30  1  0
 28 31  1  0
  5  1  2  0
 14 16  1  0
 15 17  1  0
 20 21  1  0
 20 22  1  0
M  CHG 1  24   1
M  CHG 1  28   1
M  END
> <minimizedAffinity>
-5.74977

> <CNNscore>
0.1807015389

> <CNNaffinity>
3.7961966991

> <CNN_VS>
0.6859785914

> <CNNaffinity_variance>
1.7343970537

$$$$



 31 31  0  0  0  0  0  0  0  0999 V2000
   39.1288    3.9973    5.8899 C   0  0  0  0  0  0  0  0  0  0  0  0
   40.4239    3.5443    5.8885 O   0  0  0  0  0  0  0  0  0  0  0  0
   40.4711    2.2279    5.4906 N   0  0  0  0  0  0  0  0  0  0  0  0
   39.2106    1.9061    5.2273 C   0  0  0  0  0  0  0  0  0  0  0  0
   38.2950    2.9374    5.5485 C   0  0  0  0  0  0  0  0  0  0  0  0
   37.6173    6.0440    5.9502 C   0  0  0  0  0  0  0  0  0  0  0  0
   39.0024    5.4617    6.2643 C   0  0  0  0  0  0  0  0  0  0  0  0
   40.0391    6.2891    5.4719 C   0  0  0  0  0  0  0  0  0  0  0  0
   39.2791    5.6285    7.7697 C   0  0  0  0  0  0  0  0  0  0  0  0
   38.8842    0.6699    4.7843 O   0  0  0  0  0  0  0  0  0  0  0  0
   39.6527    0.2129    3.6573 C   0  0  0  0  0  0  0  0  0  0  0  0
   38.5124   -0.0564    2.2986 P   0  0  0  0  0  0  0  0  0  0  0  0
   37.3490    0.8958    2.2514 O   0  0  0  0  0  0  0  0  0  0  0  0
   39.4014   -0.0683    0.9747 O   0  0  0  0  0  0  0  0  0  0  0  0
   38.0269   -1.5810    2.3625 O   0  0  0  0  0  0  0  0  0  0  0  0
   39.7630    0.8184    0.8200 H   0  0  0  0  0  0  0  0  0  0  0  0
   37.4643   -1.7087    3.1422 H   0  0  0  0  0  0  0  0  0  0  0  0
   36.8048    2.8298    5.4729 C   0  0  0  0  0  0  0  0  0  0  0  0
   36.1925    3.0963    4.0636 C   0  0  0  0  0  0  0  0  0  0  0  0
   37.1034    3.8381    3.1836 N   0  0  0  0  0  0  0  0  0  0  0  0
   37.2750    4.7643    3.5749 H   0  0  0  0  0  0  0  0  0  0  0  0
   36.6820    3.9321    2.2595 H   0  0  0  0  0  0  0  0  0  0  0  0
   34.7669    3.7380    4.1633 C   0  0  0  0  0  0  0  0  0  0  0  0
   33.6206    3.1422    3.2140 N   0  0  0  0  0  0  0  0  0  0  0  0
   33.6727    3.8459    1.8660 C   0  0  0  0  0  0  0  0  0  0  0  0
   32.2889    3.4133    3.8892 C   0  0  0  0  0  0  0  0  0  0  0  0
   33.9653    1.6617    3.0948 C   0  0  0  0  0  0  0  0  0  0  0  0
   33.6685    0.6575    4.1930 N   0  0  0  0  0  0  0  0  0  0  0  0
   32.4500   -0.1675    3.6818 C   0  0  0  0  0  0  0  0  0  0  0  0
   34.7845   -0.3745    4.3819 C   0  0  0  0  0  0  0  0  0  0  0  0
   33.2568    1.2330    5.5306 C   0  0  0  0  0  0  0  0  0  0  0  0
  6  7  1  0
  7  8  1  0
  7  9  1  0
  7  1  1  0
  1  2  1  0
  2  3  1  0
  3  4  2  0
  4 10  1  0
 10 11  1  0
 11 12  1  0
 12 13  2  0
 12 14  1  0
 12 15  1  0
  4  5  1  0
  5 18  1  0
 18 19  1  0
 19 20  1  0
 19 23  1  0
 23 24  1  0
 24 25  1  0
 24 26  1  0
 24 27  1  0
 27 28  1  0
 28 29  1  0
 28 30  1  0
 28 31  1  0
  5  1  2  0
 14 16  1  0
 15 17  1  0
 20 21  1  0
 20 22  1  0
M  CHG 1  24   1
M  CHG 1  28   1
M  END
> <minimizedAffinity>
-5.36206

> <CNNscore>
0.1064742878

> <CNNaffinity>
3.8946669102

> <CNN_VS>
0.4146818817

> <CNNaffinity_variance>
0.4258774817

$$$$



 31 31  0  0  0  0  0  0  0  0999 V2000
   36.7738    2.8719    9.2678 C   0  0  0  0  0  0  0  0  0  0  0  0
   37.4524    1.7582    8.8414 O   0  0  0  0  0  0  0  0  0  0  0  0
   38.4616    2.1136    7.9760 N   0  0  0  0  0  0  0  0  0  0  0  0
   38.4032    3.4380    7.9101 C   0  0  0  0  0  0  0  0  0  0  0  0
   37.3046    3.9819    8.6186 C   0  0  0  0  0  0  0  0  0  0  0  0
   34.3514    3.2606    9.9445 C   0  0  0  0  0  0  0  0  0  0  0  0
   35.6795    2.5637   10.2717 C   0  0  0  0  0  0  0  0  0  0  0  0
   36.1156    3.0416   11.6748 C   0  0  0  0  0  0  0  0  0  0  0  0
   35.4420    1.0431   10.3160 C   0  0  0  0  0  0  0  0  0  0  0  0
   39.2785    4.1379    7.1517 O   0  0  0  0  0  0  0  0  0  0  0  0
   39.6396    3.5047    5.9114 C   0  0  0  0  0  0  0  0  0  0  0  0
   40.2635    4.7801    4.8147 P   0  0  0  0  0  0  0  0  0  0  0  0
   39.3179    5.9248    4.5737 O   0  0  0  0  0  0  0  0  0  0  0  0
   41.6789    5.2151    5.4068 O   0  0  0  0  0  0  0  0  0  0  0  0
   40.7012    4.0759    3.4448 O   0  0  0  0  0  0  0  0  0  0  0  0
   41.5496    5.6637    6.2570 H   0  0  0  0  0  0  0  0  0  0  0  0
   39.9123    3.7593    2.9776 H   0  0  0  0  0  0  0  0  0  0  0  0
   36.9096    5.4248    8.6333 C   0  0  0  0  0  0  0  0  0  0  0  0
   36.8167    6.0712   10.0494 C   0  0  0  0  0  0  0  0  0  0  0  0
   35.5004    6.6645   10.3138 N   0  0  0  0  0  0  0  0  0  0  0  0
   35.3369    7.4328    9.6631 H   0  0  0  0  0  0  0  0  0  0  0  0
   35.4724    7.0173   11.2704 H   0  0  0  0  0  0  0  0  0  0  0  0
   38.0056    7.0559   10.3160 C   0  0  0  0  0  0  0  0  0  0  0  0
   37.8200    8.5800    9.8550 N   0  0  0  0  0  0  0  0  0  0  0  0
   37.1820    9.3703   10.9880 C   0  0  0  0  0  0  0  0  0  0  0  0
   36.9045    8.5776    8.6449 C   0  0  0  0  0  0  0  0  0  0  0  0
   39.2377    9.0569    9.5590 C   0  0  0  0  0  0  0  0  0  0  0  0
   40.0767    8.4896    8.4290 N   0  0  0  0  0  0  0  0  0  0  0  0
   40.7202    7.1918    9.0020 C   0  0  0  0  0  0  0  0  0  0  0  0
   39.2390    8.0147    7.2379 C   0  0  0  0  0  0  0  0  0  0  0  0
   41.2234    9.3531    7.9503 C   0  0  0  0  0  0  0  0  0  0  0  0
  6  7  1  0
  7  8  1  0
  7  9  1  0
  7  1  1  0
  1  2  1  0
  2  3  1  0
  3  4  2  0
  4 10  1  0
 10 11  1  0
 11 12  1  0
 12 13  2  0
 12 14  1  0
 12 15  1  0
  4  5  1  0
  5 18  1  0
 18 19  1  0
 19 20  1  0
 19 23  1  0
 23 24  1  0
 24 25  1  0
 24 26  1  0
 24 27  1  0
 27 28  1  0
 28 29  1  0
 28 30  1  0
 28 31  1  0
  5  1  2  0
 14 16  1  0
 15 17  1  0
 20 21  1  0
 20 22  1  0
M  CHG 1  24   1
M  CHG 1  28   1
M  END
> <minimizedAffinity>
-6.76492

> <CNNscore>
0.1035589129

> <CNNaffinity>
4.7234444618

> <CNN_VS>
0.4891547859

> <CNNaffinity_variance>
0.5180244446

$$$$



 31 31  0  0  0  0  0  0  0  0999 V2000
   35.1337    4.5654    2.8843 C   0  0  0  0  0  0  0  0  0  0  0  0
   35.6970    3.6119    2.0743 O   0  0  0  0  0  0  0  0  0  0  0  0
   36.7604    3.0114    2.7084 N   0  0  0  0  0  0  0  0  0  0  0  0
   36.8120    3.5848    3.9043 C   0  0  0  0  0  0  0  0  0  0  0  0
   35.8823    4.6422    4.0544 C   0  0  0  0  0  0  0  0  0  0  0  0
   33.7678    4.9513    0.7718 C   0  0  0  0  0  0  0  0  0  0  0  0
   33.9165    5.2332    2.2735 C   0  0  0  0  0  0  0  0  0  0  0  0
   34.0267    6.7648    2.4447 C   0  0  0  0  0  0  0  0  0  0  0  0
   32.6491    4.7420    2.9966 C   0  0  0  0  0  0  0  0  0  0  0  0
   37.7419    3.2155    4.8154 O   0  0  0  0  0  0  0  0  0  0  0  0
   38.6722    2.2195    4.3551 C   0  0  0  0  0  0  0  0  0  0  0  0
   39.8801    1.9648    5.6570 P   0  0  0  0  0  0  0  0  0  0  0  0
   39.2979    1.6277    7.0024 O   0  0  0  0  0  0  0  0  0  0  0  0
   40.9061    0.8793    5.0983 O   0  0  0  0  0  0  0  0  0  0  0  0
   40.8090    3.2673    5.7238 O   0  0  0  0  0  0  0  0  0  0  0  0
   40.4561    0.0245    5.0098 H   0  0  0  0  0  0  0  0  0  0  0  0
   40.2912    4.0170    6.0564 H   0  0  0  0  0  0  0  0  0  0  0  0
   35.7822    5.5484    5.2404 C   0  0  0  0  0  0  0  0  0  0  0  0
   35.2824    4.8691    6.5522 C   0  0  0  0  0  0  0  0  0  0  0  0
   34.2433    3.8622    6.3057 N   0  0  0  0  0  0  0  0  0  0  0  0
   33.4177    4.3146    5.9132 H   0  0  0  0  0  0  0  0  0  0  0  0
   33.9960    3.4067    7.1843 H   0  0  0  0  0  0  0  0  0  0  0  0
   34.8768    5.9269    7.6342 C   0  0  0  0  0  0  0  0  0  0  0  0
   35.7969    6.0356    8.9424 N   0  0  0  0  0  0  0  0  0  0  0  0
   35.9595    4.6523    9.5549 C   0  0  0  0  0  0  0  0  0  0  0  0
   35.0868    6.9547    9.9189 C   0  0  0  0  0  0  0  0  0  0  0  0
   37.1212    6.5856    8.4241 C   0  0  0  0  0  0  0  0  0  0  0  0
   38.4634    6.1792    9.0038 N   0  0  0  0  0  0  0  0  0  0  0  0
   38.8403    4.8502    8.2837 C   0  0  0  0  0  0  0  0  0  0  0  0
   39.5924    7.1497    8.6441 C   0  0  0  0  0  0  0  0  0  0  0  0
   38.4864    5.8768   10.4862 C   0  0  0  0  0  0  0  0  0  0  0  0
  6  7  1  0
  7  8  1  0
  7  9  1  0
  7  1  1  0
  1  2  1  0
  2  3  1  0
  3  4  2  0
  4 10  1  0
 10 11  1  0
 11 12  1  0
 12 13  2  0
 12 14  1  0
 12 15  1  0
  4  5  1  0
  5 18  1  0
 18 19  1  0
 19 20  1  0
 19 23  1  0
 23 24  1  0
 24 25  1  0
 24 26  1  0
 24 27  1  0
 27 28  1  0
 28 29  1  0
 28 30  1  0
 28 31  1  0
  5  1  2  0
 14 16  1  0
 15 17  1  0
 20 21  1  0
 20 22  1  0
M  CHG 1  24   1
M  CHG 1  28   1
M  END
> <minimizedAffinity>
-5.26765

> <CNNscore>
0.0969337672

> <CNNaffinity>
3.3205206394

> <CNN_VS>
0.3218705654

> <CNNaffinity_variance>
1.6578716040

$$$$



 31 31  0  0  0  0  0  0  0  0999 V2000
   36.8854    3.1754    9.2686 C   0  0  0  0  0  0  0  0  0  0  0  0
   36.9783    2.3380    8.1856 O   0  0  0  0  0  0  0  0  0  0  0  0
   37.9068    2.8149    7.2890 N   0  0  0  0  0  0  0  0  0  0  0  0
   38.3872    3.9177    7.8500 C   0  0  0  0  0  0  0  0  0  0  0  0
   37.7237    4.2642    9.0519 C   0  0  0  0  0  0  0  0  0  0  0  0
   36.5036    2.7479   11.7483 C   0  0  0  0  0  0  0  0  0  0  0  0
   35.9198    2.6839   10.3299 C   0  0  0  0  0  0  0  0  0  0  0  0
   35.5514    1.2096   10.0509 C   0  0  0  0  0  0  0  0  0  0  0  0
   34.6369    3.5340   10.2846 C   0  0  0  0  0  0  0  0  0  0  0  0
   39.3518    4.6463    7.2419 O   0  0  0  0  0  0  0  0  0  0  0  0
   39.0531    5.0279    5.8874 C   0  0  0  0  0  0  0  0  0  0  0  0
   40.2620    4.2370    4.8236 P   0  0  0  0  0  0  0  0  0  0  0  0
   39.8725    4.1590    3.3728 O   0  0  0  0  0  0  0  0  0  0  0  0
   41.6419    4.9905    5.0903 O   0  0  0  0  0  0  0  0  0  0  0  0
   40.5746    2.7887    5.4308 O   0  0  0  0  0  0  0  0  0  0  0  0
   41.5823    5.9007    4.7604 H   0  0  0  0  0  0  0  0  0  0  0  0
   39.7953    2.2201    5.3285 H   0  0  0  0  0  0  0  0  0  0  0  0
   37.9613    5.5091    9.8467 C   0  0  0  0  0  0  0  0  0  0  0  0
   38.1064    6.8141    9.0053 C   0  0  0  0  0  0  0  0  0  0  0  0
   39.4865    7.3126    8.9706 N   0  0  0  0  0  0  0  0  0  0  0  0
   39.7775    7.5738    9.9127 H   0  0  0  0  0  0  0  0  0  0  0  0
   39.5381    8.1283    8.3603 H   0  0  0  0  0  0  0  0  0  0  0  0
   37.0649    7.9013    9.4381 C   0  0  0  0  0  0  0  0  0  0  0  0
   35.6649    7.9351    8.6580 N   0  0  0  0  0  0  0  0  0  0  0  0
   34.5997    7.2666    9.5145 C   0  0  0  0  0  0  0  0  0  0  0  0
   35.8498    7.1632    7.3647 C   0  0  0  0  0  0  0  0  0  0  0  0
   35.3830    9.4203    8.4588 C   0  0  0  0  0  0  0  0  0  0  0  0
   34.3222    9.9348    7.5035 N   0  0  0  0  0  0  0  0  0  0  0  0
   34.2052   11.4602    7.7970 C   0  0  0  0  0  0  0  0  0  0  0  0
   34.7460    9.8534    6.0339 C   0  0  0  0  0  0  0  0  0  0  0  0
   32.9320    9.3637    7.6791 C   0  0  0  0  0  0  0  0  0  0  0  0
  6  7  1  0
  7  8  1  0
  7  9  1  0
  7  1  1  0
  1  2  1  0
  2  3  1  0
  3  4  2  0
  4 10  1  0
 10 11  1  0
 11 12  1  0
 12 13  2  0
 12 14  1  0
 12 15  1  0
  4  5  1  0
  5 18  1  0
 18 19  1  0
 19 20  1  0
 19 23  1  0
 23 24  1  0
 24 25  1  0
 24 26  1  0
 24 27  1  0
 27 28  1  0
 28 29  1  0
 28 30  1  0
 28 31  1  0
  5  1  2  0
 14 16  1  0
 15 17  1  0
 20 21  1  0
 20 22  1  0
M  CHG 1  24   1
M  CHG 1  28   1
M  END
> <minimizedAffinity>
-5.39833

> <CNNscore>
0.0901598558

> <CNNaffinity>
4.4368524551

> <CNN_VS>
0.4000259638

> <CNNaffinity_variance>
0.6252194047

$$$$



 31 31  0  0  0  0  0  0  0  0999 V2000
   38.7628    5.1334    7.1921 C   0  0  0  0  0  0  0  0  0  0  0  0
   39.4280    5.6792    8.2608 O   0  0  0  0  0  0  0  0  0  0  0  0
   38.8045    5.3378    9.4390 N   0  0  0  0  0  0  0  0  0  0  0  0
   37.7876    4.5662    9.0752 C   0  0  0  0  0  0  0  0  0  0  0  0
   37.6370    4.4709    7.6705 C   0  0  0  0  0  0  0  0  0  0  0  0
   38.4228    5.5389    4.7027 C   0  0  0  0  0  0  0  0  0  0  0  0
   39.4260    5.4201    5.8585 C   0  0  0  0  0  0  0  0  0  0  0  0
   40.3980    4.2717    5.5070 C   0  0  0  0  0  0  0  0  0  0  0  0
   40.2234    6.7334    5.9579 C   0  0  0  0  0  0  0  0  0  0  0  0
   36.9573    4.0260    9.9970 O   0  0  0  0  0  0  0  0  0  0  0  0
   37.3947    2.7655   10.5348 C   0  0  0  0  0  0  0  0  0  0  0  0
   36.0008    1.6376   10.4718 P   0  0  0  0  0  0  0  0  0  0  0  0
   36.2214    0.4061    9.6368 O   0  0  0  0  0  0  0  0  0  0  0  0
   35.6093    1.3376   11.9883 O   0  0  0  0  0  0  0  0  0  0  0  0
   34.7231    2.4665    9.9774 O   0  0  0  0  0  0  0  0  0  0  0  0
   36.3187    0.8284   12.4107 H   0  0  0  0  0  0  0  0  0  0  0  0
   34.8392    2.7151    9.0470 H   0  0  0  0  0  0  0  0  0  0  0  0
   36.5193    3.7724    6.9628 C   0  0  0  0  0  0  0  0  0  0  0  0
   36.6668    2.2234    6.8592 C   0  0  0  0  0  0  0  0  0  0  0  0
   37.9503    1.8166    6.2747 N   0  0  0  0  0  0  0  0  0  0  0  0
   38.0068    2.1507    5.3126 H   0  0  0  0  0  0  0  0  0  0  0  0
   38.0218    0.7991    6.2860 H   0  0  0  0  0  0  0  0  0  0  0  0
   35.4296    1.5693    6.1553 C   0  0  0  0  0  0  0  0  0  0  0  0
   35.4336    1.5167    4.5531 N   0  0  0  0  0  0  0  0  0  0  0  0
   36.1099    0.2321    4.0974 C   0  0  0  0  0  0  0  0  0  0  0  0
   36.2202    2.7185    4.0637 C   0  0  0  0  0  0  0  0  0  0  0  0
   33.9570    1.5457    4.1739 C   0  0  0  0  0  0  0  0  0  0  0  0
   33.4728    1.9056    2.7815 N   0  0  0  0  0  0  0  0  0  0  0  0
   34.6532    1.5523    1.8283 C   0  0  0  0  0  0  0  0  0  0  0  0
   32.3115    1.0289    2.3034 C   0  0  0  0  0  0  0  0  0  0  0  0
   33.1589    3.3661    2.5406 C   0  0  0  0  0  0  0  0  0  0  0  0
  6  7  1  0
  7  8  1  0
  7  9  1  0
  7  1  1  0
  1  2  1  0
  2  3  1  0
  3  4  2  0
  4 10  1  0
 10 11  1  0
 11 12  1  0
 12 13  2  0
 12 14  1  0
 12 15  1  0
  4  5  1  0
  5 18  1  0
 18 19  1  0
 19 20  1  0
 19 23  1  0
 23 24  1  0
 24 25  1  0
 24 26  1  0
 24 27  1  0
 27 28  1  0
 28 29  1  0
 28 30  1  0
 28 31  1  0
  5  1  2  0
 14 16  1  0
 15 17  1  0
 20 21  1  0
 20 22  1  0
M  CHG 1  24   1
M  CHG 1  28   1
M  END
> <minimizedAffinity>
-5.36415

> <CNNscore>
0.0894267783

> <CNNaffinity>
4.9433035851

> <CNN_VS>
0.4420637190

> <CNNaffinity_variance>
0.0129226521

$$$$
