


 35 39  0  0  0  0  0  0  0  0999 V2000
   16.3603  -14.5377   19.0196 C   0  0  0  0  0  0  0  0  0  0  0  0
   16.5184  -13.0884   18.5235 C   0  0  0  0  0  0  0  0  0  0  0  0
   15.2485  -12.3314   18.2408 C   0  0  0  0  0  0  0  0  0  0  0  0
   14.5481  -12.4902   17.2490 O   0  0  0  0  0  0  0  0  0  0  0  0
   15.0150  -11.4574   19.2600 N   0  0  0  0  0  0  0  0  0  0  0  0
   16.0209  -11.4402   20.1801 C   0  0  0  0  0  0  0  0  0  0  0  0
   16.0410  -10.7962   21.2173 O   0  0  0  0  0  0  0  0  0  0  0  0
   17.1402  -12.3186   19.6867 C   0  0  0  0  0  0  0  0  0  0  0  0
   17.5407  -13.3504   20.7153 C   0  0  0  0  0  0  0  0  0  0  0  0
   18.9448  -13.9076   20.5266 C   0  0  0  0  0  0  0  0  0  0  0  0
   18.8408  -15.3128   21.0904 C   0  0  0  0  0  0  0  0  0  0  0  0
   17.3705  -15.6954   20.9491 C   0  0  0  0  0  0  0  0  0  0  0  0
   16.6557  -14.5017   20.4698 N   0  0  0  0  0  0  0  0  0  0  0  0
   12.5162  -16.3278   18.0407 C   0  0  0  0  0  0  0  0  0  0  0  0
   12.6835  -15.6239   19.2400 C   0  0  0  0  0  0  0  0  0  0  0  0
   13.9168  -15.0572   19.5662 C   0  0  0  0  0  0  0  0  0  0  0  0
   15.0235  -15.1956   18.7148 C   0  0  0  0  0  0  0  0  0  0  0  0
   14.8618  -15.9259   17.5287 C   0  0  0  0  0  0  0  0  0  0  0  0
   13.6231  -16.4830   17.1944 C   0  0  0  0  0  0  0  0  0  0  0  0
   11.0079  -17.3198   16.4521 N   0  0  0  0  0  0  0  0  0  0  0  0
   11.1977  -16.8614   17.6704 C   0  0  0  0  0  0  0  0  0  0  0  0
   10.2272  -16.8671   18.5581 N   0  0  0  0  0  0  0  0  0  0  0  0
   10.1290  -17.6796   16.1929 H   0  0  0  0  0  0  0  0  0  0  0  0
   11.7449  -17.3031   15.7995 H   0  0  0  0  0  0  0  0  0  0  0  0
    9.3416  -17.2231   18.3170 H   0  0  0  0  0  0  0  0  0  0  0  0
   10.3865  -16.5155   19.4638 H   0  0  0  0  0  0  0  0  0  0  0  0
   13.8180  -10.6516   19.3662 C   0  0  0  0  0  0  0  0  0  0  0  0
   13.1194  -10.8841   20.6880 C   0  0  0  0  0  0  0  0  0  0  0  0
   12.5290  -12.1269   20.9700 C   0  0  0  0  0  0  0  0  0  0  0  0
   11.8380  -12.3265   22.1670 C   0  0  0  0  0  0  0  0  0  0  0  0
   11.7282  -11.2826   23.0808 C   0  0  0  0  0  0  0  0  0  0  0  0
   11.0222  -11.4762   24.2053 F   0  0  0  0  0  0  0  0  0  0  0  0
   12.3091  -10.0437   22.8161 C   0  0  0  0  0  0  0  0  0  0  0  0
   12.1333   -8.7370   23.9268 Cl  0  0  0  0  0  0  0  0  0  0  0  0
   13.0024   -9.8412   21.6228 C   0  0  0  0  0  0  0  0  0  0  0  0
 20 21  1  0
 21 22  2  0
 21 14  1  0
 14 15  2  0
 15 16  1  0
 16 17  2  0
  1 17  1  0
  1  2  1  0
  2  3  1  0
  3  4  2  0
  3  5  1  0
  5 27  1  0
 27 28  1  0
 28 29  2  0
 29 30  1  0
 30 31  2  0
 31 32  1  0
 31 33  1  0
 33 34  1  0
 33 35  2  0
  5  6  1  0
  6  7  2  0
  8  6  1  0
  8  9  1  0
  9 10  1  0
 10 11  1  0
 11 12  1  0
 12 13  1  0
 17 18  1  0
 18 19  2  0
 19 14  1  0
 13  1  1  0
  8  2  1  0
 13  9  1  0
 35 28  1  0
 20 23  1  0
 20 24  1  0
 22 25  1  0
 22 26  1  0
M  CHG 1  22   1
M  END
> <minimizedAffinity>
-9.14117

> <CNNscore>
0.6679568291

> <CNNaffinity>
7.1110768318

> <CNN_VS>
4.7498922348

> <CNNaffinity_variance>
0.2143490762

$$$$



 35 39  0  0  0  0  0  0  0  0999 V2000
   14.7030  -13.3457   19.6830 C   0  0  0  0  0  0  0  0  0  0  0  0
   16.2317  -13.3624   19.8688 C   0  0  0  0  0  0  0  0  0  0  0  0
   16.7500  -12.9490   21.2201 C   0  0  0  0  0  0  0  0  0  0  0  0
   16.8131  -11.7929   21.6191 O   0  0  0  0  0  0  0  0  0  0  0  0
   17.1276  -14.0612   21.9113 N   0  0  0  0  0  0  0  0  0  0  0  0
   17.0269  -15.2012   21.1706 C   0  0  0  0  0  0  0  0  0  0  0  0
   17.2432  -16.3381   21.5603 O   0  0  0  0  0  0  0  0  0  0  0  0
   16.6453  -14.8286   19.7622 C   0  0  0  0  0  0  0  0  0  0  0  0
   15.4235  -15.5832   19.2922 C   0  0  0  0  0  0  0  0  0  0  0  0
   15.2848  -15.6655   17.7784 C   0  0  0  0  0  0  0  0  0  0  0  0
   13.7835  -15.7393   17.5694 C   0  0  0  0  0  0  0  0  0  0  0  0
   13.1731  -15.0639   18.7940 C   0  0  0  0  0  0  0  0  0  0  0  0
   14.2772  -14.7631   19.7191 N   0  0  0  0  0  0  0  0  0  0  0  0
   12.6138  -10.8169   22.5431 C   0  0  0  0  0  0  0  0  0  0  0  0
   12.6349  -12.2072   22.7118 C   0  0  0  0  0  0  0  0  0  0  0  0
   13.2929  -13.0255   21.7920 C   0  0  0  0  0  0  0  0  0  0  0  0
   13.9298  -12.4811   20.6666 C   0  0  0  0  0  0  0  0  0  0  0  0
   13.8822  -11.0917   20.4837 C   0  0  0  0  0  0  0  0  0  0  0  0
   13.2345  -10.2694   21.4115 C   0  0  0  0  0  0  0  0  0  0  0  0
   12.5220   -8.7916   23.8362 N   0  0  0  0  0  0  0  0  0  0  0  0
   11.9800   -9.9559   23.5516 C   0  0  0  0  0  0  0  0  0  0  0  0
   10.8863  -10.3635   24.1582 N   0  0  0  0  0  0  0  0  0  0  0  0
   12.1061   -8.2066   24.5100 H   0  0  0  0  0  0  0  0  0  0  0  0
   13.3435   -8.5053   23.3754 H   0  0  0  0  0  0  0  0  0  0  0  0
   10.4565   -9.7919   24.8347 H   0  0  0  0  0  0  0  0  0  0  0  0
   10.4977  -11.2402   23.9356 H   0  0  0  0  0  0  0  0  0  0  0  0
   17.5660  -14.0374   23.2900 C   0  0  0  0  0  0  0  0  0  0  0  0
   19.0616  -13.8284   23.3832 C   0  0  0  0  0  0  0  0  0  0  0  0
   19.8454  -13.7782   22.2188 C   0  0  0  0  0  0  0  0  0  0  0  0
   21.2322  -13.6386   22.3051 C   0  0  0  0  0  0  0  0  0  0  0  0
   21.8395  -13.5576   23.5546 C   0  0  0  0  0  0  0  0  0  0  0  0
   23.1768  -13.4699   23.6216 F   0  0  0  0  0  0  0  0  0  0  0  0
   21.0756  -13.6051   24.7194 C   0  0  0  0  0  0  0  0  0  0  0  0
   21.8321  -13.5516   26.2676 Cl  0  0  0  0  0  0  0  0  0  0  0  0
   19.6899  -13.7418   24.6374 C   0  0  0  0  0  0  0  0  0  0  0  0
 20 21  1  0
 21 22  2  0
 21 14  1  0
 14 15  2  0
 15 16  1  0
 16 17  2  0
  1 17  1  0
  1  2  1  0
  2  3  1  0
  3  4  2  0
  3  5  1  0
  5 27  1  0
 27 28  1  0
 28 29  2  0
 29 30  1  0
 30 31  2  0
 31 32  1  0
 31 33  1  0
 33 34  1  0
 33 35  2  0
  5  6  1  0
  6  7  2  0
  8  6  1  0
  8  9  1  0
  9 10  1  0
 10 11  1  0
 11 12  1  0
 12 13  1  0
 17 18  1  0
 18 19  2  0
 19 14  1  0
 13  1  1  0
  8  2  1  0
 13  9  1  0
 35 28  1  0
 20 23  1  0
 20 24  1  0
 22 25  1  0
 22 26  1  0
M  CHG 1  22   1
M  END
> <minimizedAffinity>
-9.82280

> <CNNscore>
0.6610588431

> <CNNaffinity>
7.3740448952

> <CNN_VS>
4.8746776581

> <CNNaffinity_variance>
0.2354254276

$$$$



 35 39  0  0  0  0  0  0  0  0999 V2000
   15.3918  -11.5389   19.4908 C   0  0  0  0  0  0  0  0  0  0  0  0
   16.5956  -12.3636   19.9833 C   0  0  0  0  0  0  0  0  0  0  0  0
   16.3764  -13.2075   21.2102 C   0  0  0  0  0  0  0  0  0  0  0  0
   16.3299  -12.7751   22.3549 O   0  0  0  0  0  0  0  0  0  0  0  0
   16.2387  -14.5105   20.8354 N   0  0  0  0  0  0  0  0  0  0  0  0
   16.4312  -14.6974   19.4988 C   0  0  0  0  0  0  0  0  0  0  0  0
   16.3097  -15.7494   18.8909 O   0  0  0  0  0  0  0  0  0  0  0  0
   16.8682  -13.3922   18.8878 C   0  0  0  0  0  0  0  0  0  0  0  0
   16.0019  -13.0032   17.7125 C   0  0  0  0  0  0  0  0  0  0  0  0
   16.6585  -12.0229   16.7505 C   0  0  0  0  0  0  0  0  0  0  0  0
   15.4817  -11.2519   16.1814 C   0  0  0  0  0  0  0  0  0  0  0  0
   14.3913  -11.3389   17.2452 C   0  0  0  0  0  0  0  0  0  0  0  0
   14.8807  -12.2465   18.2950 N   0  0  0  0  0  0  0  0  0  0  0  0
   12.3749  -10.8280   22.5457 C   0  0  0  0  0  0  0  0  0  0  0  0
   12.2714  -11.9350   21.6938 C   0  0  0  0  0  0  0  0  0  0  0  0
   13.2289  -12.1628   20.7039 C   0  0  0  0  0  0  0  0  0  0  0  0
   14.3047  -11.2805   20.5223 C   0  0  0  0  0  0  0  0  0  0  0  0
   14.3902  -10.1568   21.3568 C   0  0  0  0  0  0  0  0  0  0  0  0
   13.4388   -9.9345   22.3577 C   0  0  0  0  0  0  0  0  0  0  0  0
   11.2390   -9.4302   24.1390 N   0  0  0  0  0  0  0  0  0  0  0  0
   11.4029  -10.6324   23.6307 C   0  0  0  0  0  0  0  0  0  0  0  0
   10.7174  -11.6606   24.0811 N   0  0  0  0  0  0  0  0  0  0  0  0
   10.5908   -9.2874   24.8660 H   0  0  0  0  0  0  0  0  0  0  0  0
   11.7646   -8.6734   23.7923 H   0  0  0  0  0  0  0  0  0  0  0  0
   10.0646  -11.5368   24.8077 H   0  0  0  0  0  0  0  0  0  0  0  0
   10.8569  -12.5539   23.6917 H   0  0  0  0  0  0  0  0  0  0  0  0
   15.9017  -15.5770   21.7533 C   0  0  0  0  0  0  0  0  0  0  0  0
   14.6553  -16.3087   21.3054 C   0  0  0  0  0  0  0  0  0  0  0  0
   13.4511  -15.6106   21.1178 C   0  0  0  0  0  0  0  0  0  0  0  0
   12.2873  -16.2924   20.7560 C   0  0  0  0  0  0  0  0  0  0  0  0
   12.3221  -17.6736   20.5892 C   0  0  0  0  0  0  0  0  0  0  0  0
   11.1856  -18.3194   20.2865 F   0  0  0  0  0  0  0  0  0  0  0  0
   13.5093  -18.3805   20.7709 C   0  0  0  0  0  0  0  0  0  0  0  0
   13.5420  -20.0967   20.6099 Cl  0  0  0  0  0  0  0  0  0  0  0  0
   14.6746  -17.7029   21.1297 C   0  0  0  0  0  0  0  0  0  0  0  0
 20 21  1  0
 21 22  2  0
 21 14  1  0
 14 15  2  0
 15 16  1  0
 16 17  2  0
  1 17  1  0
  1  2  1  0
  2  3  1  0
  3  4  2  0
  3  5  1  0
  5 27  1  0
 27 28  1  0
 28 29  2  0
 29 30  1  0
 30 31  2  0
 31 32  1  0
 31 33  1  0
 33 34  1  0
 33 35  2  0
  5  6  1  0
  6  7  2  0
  8  6  1  0
  8  9  1  0
  9 10  1  0
 10 11  1  0
 11 12  1  0
 12 13  1  0
 17 18  1  0
 18 19  2  0
 19 14  1  0
 13  1  1  0
  8  2  1  0
 13  9  1  0
 35 28  1  0
 20 23  1  0
 20 24  1  0
 22 25  1  0
 22 26  1  0
M  CHG 1  22   1
M  END
> <minimizedAffinity>
-9.05697

> <CNNscore>
0.4817186594

> <CNNaffinity>
7.0273079872

> <CNN_VS>
3.3851854801

> <CNNaffinity_variance>
0.1077288091

$$$$



 35 39  0  0  0  0  0  0  0  0999 V2000
   13.3173  -17.9699   19.4043 C   0  0  0  0  0  0  0  0  0  0  0  0
   12.6185  -16.8950   20.2576 C   0  0  0  0  0  0  0  0  0  0  0  0
   13.4882  -16.1259   21.2156 C   0  0  0  0  0  0  0  0  0  0  0  0
   13.9052  -16.5606   22.2817 O   0  0  0  0  0  0  0  0  0  0  0  0
   13.7294  -14.8871   20.7013 N   0  0  0  0  0  0  0  0  0  0  0  0
   13.0534  -14.6580   19.5399 C   0  0  0  0  0  0  0  0  0  0  0  0
   13.1331  -13.6593   18.8418 O   0  0  0  0  0  0  0  0  0  0  0  0
   12.1445  -15.8286   19.2725 C   0  0  0  0  0  0  0  0  0  0  0  0
   12.3560  -16.4008   17.8902 C   0  0  0  0  0  0  0  0  0  0  0  0
   11.1767  -17.2043   17.3599 C   0  0  0  0  0  0  0  0  0  0  0  0
   11.8315  -18.2205   16.4426 C   0  0  0  0  0  0  0  0  0  0  0  0
   13.2522  -18.3857   16.9739 C   0  0  0  0  0  0  0  0  0  0  0  0
   13.4328  -17.3934   18.0455 N   0  0  0  0  0  0  0  0  0  0  0  0
   17.1630  -19.4512   20.8028 C   0  0  0  0  0  0  0  0  0  0  0  0
   15.9738  -20.0480   21.2405 C   0  0  0  0  0  0  0  0  0  0  0  0
   14.7363  -19.5706   20.8054 C   0  0  0  0  0  0  0  0  0  0  0  0
   14.6501  -18.4707   19.9385 C   0  0  0  0  0  0  0  0  0  0  0  0
   15.8407  -17.8561   19.5250 C   0  0  0  0  0  0  0  0  0  0  0  0
   17.0819  -18.3416   19.9497 C   0  0  0  0  0  0  0  0  0  0  0  0
   19.1576  -19.3918   22.1446 N   0  0  0  0  0  0  0  0  0  0  0  0
   18.4637  -20.0023   21.2086 C   0  0  0  0  0  0  0  0  0  0  0  0
   18.9169  -21.0916   20.6272 N   0  0  0  0  0  0  0  0  0  0  0  0
   20.0301  -19.7519   22.4244 H   0  0  0  0  0  0  0  0  0  0  0  0
   18.8045  -18.5748   22.5653 H   0  0  0  0  0  0  0  0  0  0  0  0
   19.7874  -21.4663   20.8940 H   0  0  0  0  0  0  0  0  0  0  0  0
   18.3858  -21.5323   19.9251 H   0  0  0  0  0  0  0  0  0  0  0  0
   14.6245  -13.9271   21.3102 C   0  0  0  0  0  0  0  0  0  0  0  0
   13.8650  -12.7255   21.8284 C   0  0  0  0  0  0  0  0  0  0  0  0
   12.6373  -12.8928   22.4897 C   0  0  0  0  0  0  0  0  0  0  0  0
   11.9094  -11.7821   22.9216 C   0  0  0  0  0  0  0  0  0  0  0  0
   12.4022  -10.5021   22.6863 C   0  0  0  0  0  0  0  0  0  0  0  0
   11.6691   -9.4445   23.0665 F   0  0  0  0  0  0  0  0  0  0  0  0
   13.6192  -10.3194   22.0322 C   0  0  0  0  0  0  0  0  0  0  0  0
   14.2071   -8.7333   21.6995 Cl  0  0  0  0  0  0  0  0  0  0  0  0
   14.3506  -11.4263   21.6016 C   0  0  0  0  0  0  0  0  0  0  0  0
 20 21  1  0
 21 22  2  0
 21 14  1  0
 14 15  2  0
 15 16  1  0
 16 17  2  0
  1 17  1  0
  1  2  1  0
  2  3  1  0
  3  4  2  0
  3  5  1  0
  5 27  1  0
 27 28  1  0
 28 29  2  0
 29 30  1  0
 30 31  2  0
 31 32  1  0
 31 33  1  0
 33 34  1  0
 33 35  2  0
  5  6  1  0
  6  7  2  0
  8  6  1  0
  8  9  1  0
  9 10  1  0
 10 11  1  0
 11 12  1  0
 12 13  1  0
 17 18  1  0
 18 19  2  0
 19 14  1  0
 13  1  1  0
  8  2  1  0
 13  9  1  0
 35 28  1  0
 20 23  1  0
 20 24  1  0
 22 25  1  0
 22 26  1  0
M  CHG 1  22   1
M  END
> <minimizedAffinity>
-6.79702

> <CNNscore>
0.4517937899

> <CNNaffinity>
6.5499191284

> <CNN_VS>
2.9592127800

> <CNNaffinity_variance>
0.0935664251

$$$$



 35 39  0  0  0  0  0  0  0  0999 V2000
   13.9715  -13.0566   19.2023 C   0  0  0  0  0  0  0  0  0  0  0  0
   15.3111  -12.4736   18.7151 C   0  0  0  0  0  0  0  0  0  0  0  0
   16.0646  -11.6111   19.6918 C   0  0  0  0  0  0  0  0  0  0  0  0
   15.7746  -10.4541   19.9685 O   0  0  0  0  0  0  0  0  0  0  0  0
   17.1038  -12.3263   20.2074 N   0  0  0  0  0  0  0  0  0  0  0  0
   17.2295  -13.5584   19.6377 C   0  0  0  0  0  0  0  0  0  0  0  0
   18.0342  -14.4215   19.9517 O   0  0  0  0  0  0  0  0  0  0  0  0
   16.2348  -13.6729   18.5129 C   0  0  0  0  0  0  0  0  0  0  0  0
   15.3705  -14.9047   18.6494 C   0  0  0  0  0  0  0  0  0  0  0  0
   14.7303  -15.3655   17.3473 C   0  0  0  0  0  0  0  0  0  0  0  0
   13.4430  -16.0254   17.8062 C   0  0  0  0  0  0  0  0  0  0  0  0
   13.1056  -15.3653   19.1398 C   0  0  0  0  0  0  0  0  0  0  0  0
   14.2334  -14.4857   19.4863 N   0  0  0  0  0  0  0  0  0  0  0  0
   12.2508  -10.9166   22.5786 C   0  0  0  0  0  0  0  0  0  0  0  0
   12.6429  -12.2543   22.7149 C   0  0  0  0  0  0  0  0  0  0  0  0
   13.1846  -12.9506   21.6330 C   0  0  0  0  0  0  0  0  0  0  0  0
   13.3300  -12.3380   20.3791 C   0  0  0  0  0  0  0  0  0  0  0  0
   12.9094  -11.0080   20.2369 C   0  0  0  0  0  0  0  0  0  0  0  0
   12.3787  -10.3050   21.3235 C   0  0  0  0  0  0  0  0  0  0  0  0
   11.3188  -10.8280   24.7935 N   0  0  0  0  0  0  0  0  0  0  0  0
   11.7469  -10.1684   23.7390 C   0  0  0  0  0  0  0  0  0  0  0  0
   11.7253   -8.8538   23.7040 N   0  0  0  0  0  0  0  0  0  0  0  0
   10.9791  -10.3373   25.5765 H   0  0  0  0  0  0  0  0  0  0  0  0
   11.3381  -11.8123   24.7998 H   0  0  0  0  0  0  0  0  0  0  0  0
   11.3891   -8.3462   24.4776 H   0  0  0  0  0  0  0  0  0  0  0  0
   12.0453   -8.3773   22.9041 H   0  0  0  0  0  0  0  0  0  0  0  0
   17.9666  -11.8392   21.2619 C   0  0  0  0  0  0  0  0  0  0  0  0
   18.3547  -12.9545   22.2079 C   0  0  0  0  0  0  0  0  0  0  0  0
   17.3687  -13.6556   22.9213 C   0  0  0  0  0  0  0  0  0  0  0  0
   17.7283  -14.6491   23.8344 C   0  0  0  0  0  0  0  0  0  0  0  0
   19.0735  -14.9382   24.0430 C   0  0  0  0  0  0  0  0  0  0  0  0
   19.4042  -15.8633   24.9570 F   0  0  0  0  0  0  0  0  0  0  0  0
   20.0637  -14.2520   23.3424 C   0  0  0  0  0  0  0  0  0  0  0  0
   21.7312  -14.5777   23.6348 Cl  0  0  0  0  0  0  0  0  0  0  0  0
   19.7086  -13.2608   22.4274 C   0  0  0  0  0  0  0  0  0  0  0  0
 20 21  1  0
 21 22  2  0
 21 14  1  0
 14 15  2  0
 15 16  1  0
 16 17  2  0
  1 17  1  0
  1  2  1  0
  2  3  1  0
  3  4  2  0
  3  5  1  0
  5 27  1  0
 27 28  1  0
 28 29  2  0
 29 30  1  0
 30 31  2  0
 31 32  1  0
 31 33  1  0
 33 34  1  0
 33 35  2  0
  5  6  1  0
  6  7  2  0
  8  6  1  0
  8  9  1  0
  9 10  1  0
 10 11  1  0
 11 12  1  0
 12 13  1  0
 17 18  1  0
 18 19  2  0
 19 14  1  0
 13  1  1  0
  8  2  1  0
 13  9  1  0
 35 28  1  0
 20 23  1  0
 20 24  1  0
 22 25  1  0
 22 26  1  0
M  CHG 1  22   1
M  END
> <minimizedAffinity>
-8.70694

> <CNNscore>
0.4305726886

> <CNNaffinity>
6.9787135124

> <CNN_VS>
3.0048434734

> <CNNaffinity_variance>
0.2615970075

$$$$



 35 39  0  0  0  0  0  0  0  0999 V2000
   19.6380  -14.3276   23.5277 C   0  0  0  0  0  0  0  0  0  0  0  0
   19.4763  -15.8588   23.5566 C   0  0  0  0  0  0  0  0  0  0  0  0
   19.7628  -16.5901   22.2726 C   0  0  0  0  0  0  0  0  0  0  0  0
   19.0092  -16.6274   21.3081 O   0  0  0  0  0  0  0  0  0  0  0  0
   20.9830  -17.1901   22.3649 N   0  0  0  0  0  0  0  0  0  0  0  0
   21.5478  -17.0486   23.5976 C   0  0  0  0  0  0  0  0  0  0  0  0
   22.6563  -17.4349   23.9336 O   0  0  0  0  0  0  0  0  0  0  0  0
   20.5567  -16.3709   24.5067 C   0  0  0  0  0  0  0  0  0  0  0  0
   21.1489  -15.1524   25.1756 C   0  0  0  0  0  0  0  0  0  0  0  0
   20.4338  -14.7315   26.4520 C   0  0  0  0  0  0  0  0  0  0  0  0
   20.6529  -13.2305   26.4956 C   0  0  0  0  0  0  0  0  0  0  0  0
   20.8581  -12.8113   25.0429 C   0  0  0  0  0  0  0  0  0  0  0  0
   20.9050  -14.0427   24.2385 N   0  0  0  0  0  0  0  0  0  0  0  0
   19.4396  -12.6133   19.5326 C   0  0  0  0  0  0  0  0  0  0  0  0
   20.6796  -12.8768   20.1281 C   0  0  0  0  0  0  0  0  0  0  0  0
   20.7511  -13.4155   21.4139 C   0  0  0  0  0  0  0  0  0  0  0  0
   19.5875  -13.6862   22.1498 C   0  0  0  0  0  0  0  0  0  0  0  0
   18.3477  -13.3940   21.5633 C   0  0  0  0  0  0  0  0  0  0  0  0
   18.2743  -12.8665   20.2699 C   0  0  0  0  0  0  0  0  0  0  0  0
   18.1935  -11.9052   17.6016 N   0  0  0  0  0  0  0  0  0  0  0  0
   19.3699  -12.1122   18.1526 C   0  0  0  0  0  0  0  0  0  0  0  0
   20.4818  -11.8847   17.4878 N   0  0  0  0  0  0  0  0  0  0  0  0
   18.1347  -11.5697   16.6779 H   0  0  0  0  0  0  0  0  0  0  0  0
   17.3718  -12.0857   18.1130 H   0  0  0  0  0  0  0  0  0  0  0  0
   20.4427  -11.5490   16.5631 H   0  0  0  0  0  0  0  0  0  0  0  0
   21.3533  -12.0500   17.9149 H   0  0  0  0  0  0  0  0  0  0  0  0
   21.6205  -17.8828   21.2661 C   0  0  0  0  0  0  0  0  0  0  0  0
   21.1146  -19.3041   21.1503 C   0  0  0  0  0  0  0  0  0  0  0  0
   21.5347  -20.2838   22.0649 C   0  0  0  0  0  0  0  0  0  0  0  0
   21.1108  -21.6073   21.9280 C   0  0  0  0  0  0  0  0  0  0  0  0
   20.2735  -21.9564   20.8726 C   0  0  0  0  0  0  0  0  0  0  0  0
   19.9123  -23.2406   20.7284 F   0  0  0  0  0  0  0  0  0  0  0  0
   19.8473  -20.9958   19.9573 C   0  0  0  0  0  0  0  0  0  0  0  0
   18.8481  -21.4371   18.6235 Cl  0  0  0  0  0  0  0  0  0  0  0  0
   20.2663  -19.6722   20.0920 C   0  0  0  0  0  0  0  0  0  0  0  0
 20 21  1  0
 21 22  2  0
 21 14  1  0
 14 15  2  0
 15 16  1  0
 16 17  2  0
  1 17  1  0
  1  2  1  0
  2  3  1  0
  3  4  2  0
  3  5  1  0
  5 27  1  0
 27 28  1  0
 28 29  2  0
 29 30  1  0
 30 31  2  0
 31 32  1  0
 31 33  1  0
 33 34  1  0
 33 35  2  0
  5  6  1  0
  6  7  2  0
  8  6  1  0
  8  9  1  0
  9 10  1  0
 10 11  1  0
 11 12  1  0
 12 13  1  0
 17 18  1  0
 18 19  2  0
 19 14  1  0
 13  1  1  0
  8  2  1  0
 13  9  1  0
 35 28  1  0
 20 23  1  0
 20 24  1  0
 22 25  1  0
 22 26  1  0
M  CHG 1  22   1
M  END
> <minimizedAffinity>
-6.56220

> <CNNscore>
0.4050009251

> <CNNaffinity>
6.5106892586

> <CNN_VS>
2.6368350983

> <CNNaffinity_variance>
0.6639465094

$$$$



 35 39  0  0  0  0  0  0  0  0999 V2000
   18.9022  -14.5632   20.9807 C   0  0  0  0  0  0  0  0  0  0  0  0
   17.6956  -14.1691   20.1085 C   0  0  0  0  0  0  0  0  0  0  0  0
   16.3332  -14.5038   20.6538 C   0  0  0  0  0  0  0  0  0  0  0  0
   15.8394  -15.6243   20.6572 O   0  0  0  0  0  0  0  0  0  0  0  0
   15.7554  -13.3676   21.1360 N   0  0  0  0  0  0  0  0  0  0  0  0
   16.5097  -12.2552   20.9076 C   0  0  0  0  0  0  0  0  0  0  0  0
   16.2580  -11.1212   21.2842 O   0  0  0  0  0  0  0  0  0  0  0  0
   17.6970  -12.6425   20.0662 C   0  0  0  0  0  0  0  0  0  0  0  0
   18.9988  -12.1997   20.6924 C   0  0  0  0  0  0  0  0  0  0  0  0
   20.1556  -12.0809   19.7099 C   0  0  0  0  0  0  0  0  0  0  0  0
   21.3724  -12.3795   20.5663 C   0  0  0  0  0  0  0  0  0  0  0  0
   20.8561  -13.2467   21.7107 C   0  0  0  0  0  0  0  0  0  0  0  0
   19.3910  -13.3033   21.5853 N   0  0  0  0  0  0  0  0  0  0  0  0
   18.2648  -17.6083   24.0238 C   0  0  0  0  0  0  0  0  0  0  0  0
   18.6383  -17.9744   22.7245 C   0  0  0  0  0  0  0  0  0  0  0  0
   18.8329  -17.0040   21.7401 C   0  0  0  0  0  0  0  0  0  0  0  0
   18.6392  -15.6426   22.0191 C   0  0  0  0  0  0  0  0  0  0  0  0
   18.2364  -15.2805   23.3125 C   0  0  0  0  0  0  0  0  0  0  0  0
   18.0539  -16.2508   24.3034 C   0  0  0  0  0  0  0  0  0  0  0  0
   17.0593  -19.3924   25.0944 N   0  0  0  0  0  0  0  0  0  0  0  0
   18.1300  -18.6286   25.0732 C   0  0  0  0  0  0  0  0  0  0  0  0
   19.0763  -18.7586   25.9774 N   0  0  0  0  0  0  0  0  0  0  0  0
   16.9583  -20.0791   25.7926 H   0  0  0  0  0  0  0  0  0  0  0  0
   16.3589  -19.2774   24.4121 H   0  0  0  0  0  0  0  0  0  0  0  0
   18.9926  -19.4398   26.6831 H   0  0  0  0  0  0  0  0  0  0  0  0
   19.8684  -18.1746   25.9484 H   0  0  0  0  0  0  0  0  0  0  0  0
   14.4890  -13.3473   21.8355 C   0  0  0  0  0  0  0  0  0  0  0  0
   13.6881  -12.1145   21.4779 C   0  0  0  0  0  0  0  0  0  0  0  0
   13.5920  -11.6932   20.1415 C   0  0  0  0  0  0  0  0  0  0  0  0
   12.8976  -10.5262   19.8159 C   0  0  0  0  0  0  0  0  0  0  0  0
   12.3052   -9.7733   20.8253 C   0  0  0  0  0  0  0  0  0  0  0  0
   11.6811   -8.6305   20.5011 F   0  0  0  0  0  0  0  0  0  0  0  0
   12.3910  -10.1782   22.1561 C   0  0  0  0  0  0  0  0  0  0  0  0
   11.6971   -9.2211   23.4109 Cl  0  0  0  0  0  0  0  0  0  0  0  0
   13.0813  -11.3448   22.4852 C   0  0  0  0  0  0  0  0  0  0  0  0
 20 21  1  0
 21 22  2  0
 21 14  1  0
 14 15  2  0
 15 16  1  0
 16 17  2  0
  1 17  1  0
  1  2  1  0
  2  3  1  0
  3  4  2  0
  3  5  1  0
  5 27  1  0
 27 28  1  0
 28 29  2  0
 29 30  1  0
 30 31  2  0
 31 32  1  0
 31 33  1  0
 33 34  1  0
 33 35  2  0
  5  6  1  0
  6  7  2  0
  8  6  1  0
  8  9  1  0
  9 10  1  0
 10 11  1  0
 11 12  1  0
 12 13  1  0
 17 18  1  0
 18 19  2  0
 19 14  1  0
 13  1  1  0
  8  2  1  0
 13  9  1  0
 35 28  1  0
 20 23  1  0
 20 24  1  0
 22 25  1  0
 22 26  1  0
M  CHG 1  22   1
M  END
> <minimizedAffinity>
-7.05322

> <CNNscore>
0.3789276779

> <CNNaffinity>
7.1128315926

> <CNN_VS>
2.6952488422

> <CNNaffinity_variance>
0.2209954709

$$$$



 35 39  0  0  0  0  0  0  0  0999 V2000
   15.2956  -11.5046   19.4503 C   0  0  0  0  0  0  0  0  0  0  0  0
   16.4406  -12.4295   19.9033 C   0  0  0  0  0  0  0  0  0  0  0  0
   16.1834  -13.2700   21.1253 C   0  0  0  0  0  0  0  0  0  0  0  0
   16.1988  -12.8509   22.2758 O   0  0  0  0  0  0  0  0  0  0  0  0
   15.9328  -14.5525   20.7386 N   0  0  0  0  0  0  0  0  0  0  0  0
   16.0781  -14.7359   19.3956 C   0  0  0  0  0  0  0  0  0  0  0  0
   15.8584  -15.7664   18.7786 O   0  0  0  0  0  0  0  0  0  0  0  0
   16.6039  -13.4615   18.7894 C   0  0  0  0  0  0  0  0  0  0  0  0
   15.7441  -12.9886   17.6405 C   0  0  0  0  0  0  0  0  0  0  0  0
   16.4543  -12.0508   16.6742 C   0  0  0  0  0  0  0  0  0  0  0  0
   15.3301  -11.1805   16.1433 C   0  0  0  0  0  0  0  0  0  0  0  0
   14.2616  -11.1946   17.2325 C   0  0  0  0  0  0  0  0  0  0  0  0
   14.7013  -12.1527   18.2592 N   0  0  0  0  0  0  0  0  0  0  0  0
   12.4192  -10.5944   22.5867 C   0  0  0  0  0  0  0  0  0  0  0  0
   12.2174  -11.6908   21.7387 C   0  0  0  0  0  0  0  0  0  0  0  0
   13.1296  -11.9818   20.7229 C   0  0  0  0  0  0  0  0  0  0  0  0
   14.2573  -11.1743   20.5112 C   0  0  0  0  0  0  0  0  0  0  0  0
   14.4418  -10.0600   21.3422 C   0  0  0  0  0  0  0  0  0  0  0  0
   13.5356   -9.7749   22.3688 C   0  0  0  0  0  0  0  0  0  0  0  0
   11.3696   -9.1092   24.1599 N   0  0  0  0  0  0  0  0  0  0  0  0
   11.4929  -10.3346   23.6980 C   0  0  0  0  0  0  0  0  0  0  0  0
   10.8072  -11.3296   24.2175 N   0  0  0  0  0  0  0  0  0  0  0  0
   10.7523   -8.9234   24.9040 H   0  0  0  0  0  0  0  0  0  0  0  0
   11.8947   -8.3778   23.7617 H   0  0  0  0  0  0  0  0  0  0  0  0
   10.1850  -11.1628   24.9620 H   0  0  0  0  0  0  0  0  0  0  0  0
   10.9161  -12.2411   23.8618 H   0  0  0  0  0  0  0  0  0  0  0  0
   15.5331  -15.6011   21.6519 C   0  0  0  0  0  0  0  0  0  0  0  0
   16.7360  -16.3488   22.1842 C   0  0  0  0  0  0  0  0  0  0  0  0
   16.6092  -17.1984   23.2953 C   0  0  0  0  0  0  0  0  0  0  0  0
   17.7284  -17.8478   23.8205 C   0  0  0  0  0  0  0  0  0  0  0  0
   18.9776  -17.6431   23.2423 C   0  0  0  0  0  0  0  0  0  0  0  0
   20.0500  -18.2381   23.7868 F   0  0  0  0  0  0  0  0  0  0  0  0
   19.1198  -16.8037   22.1389 C   0  0  0  0  0  0  0  0  0  0  0  0
   20.6740  -16.5137   21.4516 Cl  0  0  0  0  0  0  0  0  0  0  0  0
   18.0039  -16.1553   21.6096 C   0  0  0  0  0  0  0  0  0  0  0  0
 20 21  1  0
 21 22  2  0
 21 14  1  0
 14 15  2  0
 15 16  1  0
 16 17  2  0
  1 17  1  0
  1  2  1  0
  2  3  1  0
  3  4  2  0
  3  5  1  0
  5 27  1  0
 27 28  1  0
 28 29  2  0
 29 30  1  0
 30 31  2  0
 31 32  1  0
 31 33  1  0
 33 34  1  0
 33 35  2  0
  5  6  1  0
  6  7  2  0
  8  6  1  0
  8  9  1  0
  9 10  1  0
 10 11  1  0
 11 12  1  0
 12 13  1  0
 17 18  1  0
 18 19  2  0
 19 14  1  0
 13  1  1  0
  8  2  1  0
 13  9  1  0
 35 28  1  0
 20 23  1  0
 20 24  1  0
 22 25  1  0
 22 26  1  0
M  CHG 1  22   1
M  END
> <minimizedAffinity>
-8.73235

> <CNNscore>
0.3295127153

> <CNNaffinity>
6.8156924248

> <CNN_VS>
2.2458572388

> <CNNaffinity_variance>
0.0682776943

$$$$



 35 39  0  0  0  0  0  0  0  0999 V2000
   19.0191  -18.4968   22.6641 C   0  0  0  0  0  0  0  0  0  0  0  0
   17.7561  -17.7147   23.0699 C   0  0  0  0  0  0  0  0  0  0  0  0
   17.9744  -16.3868   23.7442 C   0  0  0  0  0  0  0  0  0  0  0  0
   18.3173  -16.2453   24.9112 O   0  0  0  0  0  0  0  0  0  0  0  0
   17.7320  -15.3880   22.8493 N   0  0  0  0  0  0  0  0  0  0  0  0
   17.2751  -15.8529   21.6519 C   0  0  0  0  0  0  0  0  0  0  0  0
   17.0371  -15.1826   20.6593 O   0  0  0  0  0  0  0  0  0  0  0  0
   17.0635  -17.3399   21.7614 C   0  0  0  0  0  0  0  0  0  0  0  0
   17.7836  -18.0926   20.6669 C   0  0  0  0  0  0  0  0  0  0  0  0
   17.2248  -19.4819   20.3931 C   0  0  0  0  0  0  0  0  0  0  0  0
   18.4362  -20.2550   19.9053 C   0  0  0  0  0  0  0  0  0  0  0  0
   19.6398  -19.5471   20.5204 C   0  0  0  0  0  0  0  0  0  0  0  0
   19.1352  -18.3413   21.1964 N   0  0  0  0  0  0  0  0  0  0  0  0
   22.5982  -17.2947   24.8285 C   0  0  0  0  0  0  0  0  0  0  0  0
   22.4438  -16.9611   23.4770 C   0  0  0  0  0  0  0  0  0  0  0  0
   21.3039  -17.3536   22.7731 C   0  0  0  0  0  0  0  0  0  0  0  0
   20.2963  -18.1084   23.3926 C   0  0  0  0  0  0  0  0  0  0  0  0
   20.4666  -18.4666   24.7375 C   0  0  0  0  0  0  0  0  0  0  0  0
   21.6021  -18.0629   25.4476 C   0  0  0  0  0  0  0  0  0  0  0  0
   24.7209  -16.1713   24.9490 N   0  0  0  0  0  0  0  0  0  0  0  0
   23.7669  -16.8188   25.5821 C   0  0  0  0  0  0  0  0  0  0  0  0
   23.8449  -17.0520   26.8743 N   0  0  0  0  0  0  0  0  0  0  0  0
   25.5084  -15.8479   25.4436 H   0  0  0  0  0  0  0  0  0  0  0  0
   24.6476  -16.0102   23.9806 H   0  0  0  0  0  0  0  0  0  0  0  0
   24.6248  -16.7362   27.3853 H   0  0  0  0  0  0  0  0  0  0  0  0
   23.1233  -17.5425   27.3304 H   0  0  0  0  0  0  0  0  0  0  0  0
   17.9572  -13.9869   23.1317 C   0  0  0  0  0  0  0  0  0  0  0  0
   19.3865  -13.7402   23.5625 C   0  0  0  0  0  0  0  0  0  0  0  0
   20.4348  -13.8363   22.6327 C   0  0  0  0  0  0  0  0  0  0  0  0
   21.7592  -13.6612   23.0394 C   0  0  0  0  0  0  0  0  0  0  0  0
   22.0396  -13.3983   24.3769 C   0  0  0  0  0  0  0  0  0  0  0  0
   23.3200  -13.2782   24.7600 F   0  0  0  0  0  0  0  0  0  0  0  0
   21.0106  -13.2992   25.3116 C   0  0  0  0  0  0  0  0  0  0  0  0
   21.3611  -13.0199   26.9763 Cl  0  0  0  0  0  0  0  0  0  0  0  0
   19.6861  -13.4707   24.9089 C   0  0  0  0  0  0  0  0  0  0  0  0
 20 21  1  0
 21 22  2  0
 21 14  1  0
 14 15  2  0
 15 16  1  0
 16 17  2  0
  1 17  1  0
  1  2  1  0
  2  3  1  0
  3  4  2  0
  3  5  1  0
  5 27  1  0
 27 28  1  0
 28 29  2  0
 29 30  1  0
 30 31  2  0
 31 32  1  0
 31 33  1  0
 33 34  1  0
 33 35  2  0
  5  6  1  0
  6  7  2  0
  8  6  1  0
  8  9  1  0
  9 10  1  0
 10 11  1  0
 11 12  1  0
 12 13  1  0
 17 18  1  0
 18 19  2  0
 19 14  1  0
 13  1  1  0
  8  2  1  0
 13  9  1  0
 35 28  1  0
 20 23  1  0
 20 24  1  0
 22 25  1  0
 22 26  1  0
M  CHG 1  22   1
M  END
> <minimizedAffinity>
-6.71030

> <CNNscore>
0.2818508148

> <CNNaffinity>
5.1782345772

> <CNN_VS>
1.4594895840

> <CNNaffinity_variance>
0.6823142171

$$$$
