


 22 24  0  0  0  0  0  0  0  0999 V2000
  -16.9649    7.7535   31.7453 C   0  0  0  0  0  0  0  0  0  0  0  0
  -16.3339    9.0308   32.2815 C   0  0  0  0  0  0  0  0  0  0  0  0
  -17.3741    9.8786   32.9358 N   0  0  0  0  0  0  0  0  0  0  0  0
  -17.4431   11.1038   32.1063 C   0  0  0  0  0  0  0  0  0  0  0  0
  -16.0060   11.3178   31.6188 C   0  0  0  0  0  0  0  0  0  0  0  0
  -15.9059   12.1948   30.4956 O   0  0  0  0  0  0  0  0  0  0  0  0
  -15.6197    9.8966   31.2215 C   0  0  0  0  0  0  0  0  0  0  0  0
  -16.0795    9.6328   29.8924 O   0  0  0  0  0  0  0  0  0  0  0  0
  -17.1017   10.1071   33.8918 H   0  0  0  0  0  0  0  0  0  0  0  0
  -16.4458   11.8501   29.7672 H   0  0  0  0  0  0  0  0  0  0  0  0
  -17.0358    9.7880   29.8443 H   0  0  0  0  0  0  0  0  0  0  0  0
  -17.9651   12.2695   32.8802 C   0  0  0  0  0  0  0  0  0  0  0  0
  -17.5502   13.5205   32.8265 N   0  0  0  0  0  0  0  0  0  0  0  0
  -18.3479   14.2114   33.7073 C   0  0  0  0  0  0  0  0  0  0  0  0
  -18.3353   15.5710   34.0449 C   0  0  0  0  0  0  0  0  0  0  0  0
  -19.2664   16.0231   34.9845 C   0  0  0  0  0  0  0  0  0  0  0  0
  -19.2774   17.6898   35.4231 Cl  0  0  0  0  0  0  0  0  0  0  0  0
  -20.1876   15.1545   35.5762 C   0  0  0  0  0  0  0  0  0  0  0  0
  -20.2117   13.7938   35.2479 C   0  0  0  0  0  0  0  0  0  0  0  0
  -19.2737   13.3644   34.3076 C   0  0  0  0  0  0  0  0  0  0  0  0
  -19.0126   12.1358   33.7599 N   0  0  0  0  0  0  0  0  0  0  0  0
  -19.4929   11.3006   33.9619 H   0  0  0  0  0  0  0  0  0  0  0  0
  2  1  1  0
  2  3  1  0
  3  4  1  0
  4 12  1  0
 12 13  2  0
 13 14  1  0
 14 15  2  0
 15 16  1  0
 16 17  1  0
 16 18  2  0
 18 19  1  0
 19 20  2  0
 20 21  1  0
  4  5  1  0
  5  6  1  0
  5  7  1  0
  7  8  1  0
  7  2  1  0
 21 12  1  0
 20 14  1  0
  3  9  1  0
 21 22  1  0
  6 10  1  0
  8 11  1  0
M  END
> <minimizedAffinity>
-7.47682

> <CNNscore>
0.9847373366

> <CNNaffinity>
7.1394410133

> <CNN_VS>
7.0304741859

> <CNNaffinity_variance>
0.9209998250

$$$$



 22 24  0  0  0  0  0  0  0  0999 V2000
  -16.9014    7.6939   31.6463 C   0  0  0  0  0  0  0  0  0  0  0  0
  -16.3233    8.9755   32.2300 C   0  0  0  0  0  0  0  0  0  0  0  0
  -17.3998    9.7614   32.9024 N   0  0  0  0  0  0  0  0  0  0  0  0
  -17.5087   11.0101   32.1131 C   0  0  0  0  0  0  0  0  0  0  0  0
  -16.0769   11.2939   31.6459 C   0  0  0  0  0  0  0  0  0  0  0  0
  -16.0014   12.2109   30.5531 O   0  0  0  0  0  0  0  0  0  0  0  0
  -15.6342    9.9022   31.2054 C   0  0  0  0  0  0  0  0  0  0  0  0
  -16.0733    9.6657   29.8643 O   0  0  0  0  0  0  0  0  0  0  0  0
  -17.1437    9.9681   33.8678 H   0  0  0  0  0  0  0  0  0  0  0  0
  -16.5222   11.8705   29.8089 H   0  0  0  0  0  0  0  0  0  0  0  0
  -17.0344    9.7863   29.8128 H   0  0  0  0  0  0  0  0  0  0  0  0
  -18.0803   12.1290   32.9202 C   0  0  0  0  0  0  0  0  0  0  0  0
  -19.0440   12.0614   33.8183 N   0  0  0  0  0  0  0  0  0  0  0  0
  -19.1989   13.3433   34.2898 C   0  0  0  0  0  0  0  0  0  0  0  0
  -20.0882   13.8388   35.2522 C   0  0  0  0  0  0  0  0  0  0  0  0
  -20.0393   15.2036   35.5508 C   0  0  0  0  0  0  0  0  0  0  0  0
  -21.1204   15.8461   36.7294 Cl  0  0  0  0  0  0  0  0  0  0  0  0
  -19.1345   16.0583   34.9152 C   0  0  0  0  0  0  0  0  0  0  0  0
  -18.2400   15.5767   33.9521 C   0  0  0  0  0  0  0  0  0  0  0  0
  -18.3061   14.2113   33.6699 C   0  0  0  0  0  0  0  0  0  0  0  0
  -17.6022   13.4126   32.8072 N   0  0  0  0  0  0  0  0  0  0  0  0
  -16.8781   13.7077   32.2090 H   0  0  0  0  0  0  0  0  0  0  0  0
  2  1  1  0
  2  3  1  0
  3  4  1  0
  4 12  1  0
 12 13  2  0
 13 14  1  0
 14 15  2  0
 15 16  1  0
 16 17  1  0
 16 18  2  0
 18 19  1  0
 19 20  2  0
 20 21  1  0
  4  5  1  0
  5  6  1  0
  5  7  1  0
  7  8  1  0
  7  2  1  0
 21 12  1  0
 20 14  1  0
  3  9  1  0
 21 22  1  0
  6 10  1  0
  8 11  1  0
M  END
> <minimizedAffinity>
-7.48183

> <CNNscore>
0.9791432619

> <CNNaffinity>
7.0631422997

> <CNN_VS>
6.9158282280

> <CNNaffinity_variance>
0.9865531921

$$$$



 22 24  0  0  0  0  0  0  0  0999 V2000
  -16.5562    7.1566   31.3112 C   0  0  0  0  0  0  0  0  0  0  0  0
  -16.0547    8.4451   31.9480 C   0  0  0  0  0  0  0  0  0  0  0  0
  -17.0951    9.0011   32.8630 N   0  0  0  0  0  0  0  0  0  0  0  0
  -17.4884   10.2919   32.2519 C   0  0  0  0  0  0  0  0  0  0  0  0
  -16.2006   10.8205   31.6109 C   0  0  0  0  0  0  0  0  0  0  0  0
  -16.4222   11.8399   30.6351 O   0  0  0  0  0  0  0  0  0  0  0  0
  -15.6660    9.5551   30.9478 C   0  0  0  0  0  0  0  0  0  0  0  0
  -16.2877    9.3889   29.6698 O   0  0  0  0  0  0  0  0  0  0  0  0
  -16.7108    9.1481   33.7963 H   0  0  0  0  0  0  0  0  0  0  0  0
  -17.0121   11.5023   29.9430 H   0  0  0  0  0  0  0  0  0  0  0  0
  -17.2515    9.3758   29.7783 H   0  0  0  0  0  0  0  0  0  0  0  0
  -18.0543   11.2349   33.2623 C   0  0  0  0  0  0  0  0  0  0  0  0
  -18.4453   12.4797   33.0692 N   0  0  0  0  0  0  0  0  0  0  0  0
  -18.8996   12.9169   34.2907 C   0  0  0  0  0  0  0  0  0  0  0  0
  -19.4226   14.1648   34.6539 C   0  0  0  0  0  0  0  0  0  0  0  0
  -19.8147   14.3512   35.9827 C   0  0  0  0  0  0  0  0  0  0  0  0
  -20.4612   15.8749   36.4631 Cl  0  0  0  0  0  0  0  0  0  0  0  0
  -19.6937   13.3307   36.9298 C   0  0  0  0  0  0  0  0  0  0  0  0
  -19.1734   12.0788   36.5808 C   0  0  0  0  0  0  0  0  0  0  0  0
  -18.7887   11.9148   35.2490 C   0  0  0  0  0  0  0  0  0  0  0  0
  -18.2534   10.8534   34.5676 N   0  0  0  0  0  0  0  0  0  0  0  0
  -18.0468    9.9691   34.9478 H   0  0  0  0  0  0  0  0  0  0  0  0
  2  1  1  0
  2  3  1  0
  3  4  1  0
  4 12  1  0
 12 13  2  0
 13 14  1  0
 14 15  2  0
 15 16  1  0
 16 17  1  0
 16 18  2  0
 18 19  1  0
 19 20  2  0
 20 21  1  0
  4  5  1  0
  5  6  1  0
  5  7  1  0
  7  8  1  0
  7  2  1  0
 21 12  1  0
 20 14  1  0
  3  9  1  0
 21 22  1  0
  6 10  1  0
  8 11  1  0
M  END
> <minimizedAffinity>
-7.49603

> <CNNscore>
0.9748786688

> <CNNaffinity>
6.7957611084

> <CNN_VS>
6.6250424385

> <CNNaffinity_variance>
0.5522047877

$$$$



 22 24  0  0  0  0  0  0  0  0999 V2000
  -17.4142    8.2097   31.8251 C   0  0  0  0  0  0  0  0  0  0  0  0
  -16.4212    9.2091   32.4018 C   0  0  0  0  0  0  0  0  0  0  0  0
  -17.1491   10.3804   32.9735 N   0  0  0  0  0  0  0  0  0  0  0  0
  -16.7361   11.5305   32.1363 C   0  0  0  0  0  0  0  0  0  0  0  0
  -15.2830   11.2253   31.7563 C   0  0  0  0  0  0  0  0  0  0  0  0
  -14.8111   11.9818   30.6402 O   0  0  0  0  0  0  0  0  0  0  0  0
  -15.3822    9.7468   31.3944 C   0  0  0  0  0  0  0  0  0  0  0  0
  -15.8123    9.6175   30.0358 O   0  0  0  0  0  0  0  0  0  0  0  0
  -16.8810   10.5298   33.9462 H   0  0  0  0  0  0  0  0  0  0  0  0
  -15.3853   11.8215   29.8750 H   0  0  0  0  0  0  0  0  0  0  0  0
  -16.6515   10.0891   29.9161 H   0  0  0  0  0  0  0  0  0  0  0  0
  -16.8776   12.8265   32.8646 C   0  0  0  0  0  0  0  0  0  0  0  0
  -15.9135   13.5877   33.3451 N   0  0  0  0  0  0  0  0  0  0  0  0
  -16.5454   14.6699   33.9100 C   0  0  0  0  0  0  0  0  0  0  0  0
  -15.9984   15.7803   34.5663 C   0  0  0  0  0  0  0  0  0  0  0  0
  -16.8761   16.7521   35.0557 C   0  0  0  0  0  0  0  0  0  0  0  0
  -16.2362   18.1303   35.8691 Cl  0  0  0  0  0  0  0  0  0  0  0  0
  -18.2598   16.6310   34.9009 C   0  0  0  0  0  0  0  0  0  0  0  0
  -18.8198   15.5273   34.2469 C   0  0  0  0  0  0  0  0  0  0  0  0
  -17.9252   14.5696   33.7662 C   0  0  0  0  0  0  0  0  0  0  0  0
  -18.1100   13.3906   33.0928 N   0  0  0  0  0  0  0  0  0  0  0  0
  -18.9768   13.0125   32.8192 H   0  0  0  0  0  0  0  0  0  0  0  0
  2  1  1  0
  2  3  1  0
  3  4  1  0
  4 12  1  0
 12 13  2  0
 13 14  1  0
 14 15  2  0
 15 16  1  0
 16 17  1  0
 16 18  2  0
 18 19  1  0
 19 20  2  0
 20 21  1  0
  4  5  1  0
  5  6  1  0
  5  7  1  0
  7  8  1  0
  7  2  1  0
 21 12  1  0
 20 14  1  0
  3  9  1  0
 21 22  1  0
  6 10  1  0
  8 11  1  0
M  END
> <minimizedAffinity>
-7.58492

> <CNNscore>
0.9593662620

> <CNNaffinity>
7.1570343971

> <CNN_VS>
6.8662171364

> <CNNaffinity_variance>
1.1369435787

$$$$



 22 24  0  0  0  0  0  0  0  0999 V2000
  -17.3083    8.1860   31.7920 C   0  0  0  0  0  0  0  0  0  0  0  0
  -16.0377    8.9525   32.1315 C   0  0  0  0  0  0  0  0  0  0  0  0
  -16.3176    9.9576   33.1993 N   0  0  0  0  0  0  0  0  0  0  0  0
  -16.0903   11.2714   32.5539 C   0  0  0  0  0  0  0  0  0  0  0  0
  -14.9497   11.0187   31.5619 C   0  0  0  0  0  0  0  0  0  0  0  0
  -14.8311   12.0257   30.5557 O   0  0  0  0  0  0  0  0  0  0  0  0
  -15.3911    9.6962   30.9431 C   0  0  0  0  0  0  0  0  0  0  0  0
  -16.3171    9.9529   29.8828 O   0  0  0  0  0  0  0  0  0  0  0  0
  -15.6828    9.8302   33.9875 H   0  0  0  0  0  0  0  0  0  0  0  0
  -15.6688   12.0999   30.0722 H   0  0  0  0  0  0  0  0  0  0  0  0
  -17.0614   10.4738   30.2227 H   0  0  0  0  0  0  0  0  0  0  0  0
  -15.7567   12.3303   33.5528 C   0  0  0  0  0  0  0  0  0  0  0  0
  -15.5572   13.6143   33.3264 N   0  0  0  0  0  0  0  0  0  0  0  0
  -15.2970   14.1694   34.5568 C   0  0  0  0  0  0  0  0  0  0  0  0
  -15.0102   15.4987   34.8935 C   0  0  0  0  0  0  0  0  0  0  0  0
  -14.7798   15.8003   36.2390 C   0  0  0  0  0  0  0  0  0  0  0  0
  -14.4233   17.4259   36.6874 Cl  0  0  0  0  0  0  0  0  0  0  0  0
  -14.8315   14.8141   37.2278 C   0  0  0  0  0  0  0  0  0  0  0  0
  -15.1174   13.4821   36.9056 C   0  0  0  0  0  0  0  0  0  0  0  0
  -15.3443   13.2037   35.5568 C   0  0  0  0  0  0  0  0  0  0  0  0
  -15.6441   12.0435   34.8922 N   0  0  0  0  0  0  0  0  0  0  0  0
  -15.7592   11.1565   35.3036 H   0  0  0  0  0  0  0  0  0  0  0  0
  2  1  1  0
  2  3  1  0
  3  4  1  0
  4 12  1  0
 12 13  2  0
 13 14  1  0
 14 15  2  0
 15 16  1  0
 16 17  1  0
 16 18  2  0
 18 19  1  0
 19 20  2  0
 20 21  1  0
  4  5  1  0
  5  6  1  0
  5  7  1  0
  7  8  1  0
  7  2  1  0
 21 12  1  0
 20 14  1  0
  3  9  1  0
 21 22  1  0
  6 10  1  0
  8 11  1  0
M  END
> <minimizedAffinity>
-7.18188

> <CNNscore>
0.8378680348

> <CNNaffinity>
6.6538157463

> <CNN_VS>
5.5750193596

> <CNNaffinity_variance>
0.7471221089

$$$$



 22 24  0  0  0  0  0  0  0  0999 V2000
  -16.2796    8.2182   31.5997 C   0  0  0  0  0  0  0  0  0  0  0  0
  -16.2750    9.4481   32.4966 C   0  0  0  0  0  0  0  0  0  0  0  0
  -17.6242    9.6410   33.1058 N   0  0  0  0  0  0  0  0  0  0  0  0
  -18.1128   10.9239   32.5495 C   0  0  0  0  0  0  0  0  0  0  0  0
  -16.8508   11.7795   32.3941 C   0  0  0  0  0  0  0  0  0  0  0  0
  -17.0177   12.8933   31.5153 O   0  0  0  0  0  0  0  0  0  0  0  0
  -15.8848   10.7646   31.7909 C   0  0  0  0  0  0  0  0  0  0  0  0
  -16.0767   10.7093   30.3740 O   0  0  0  0  0  0  0  0  0  0  0  0
  -17.5549    9.6935   34.1221 H   0  0  0  0  0  0  0  0  0  0  0  0
  -17.3028   12.5775   30.6436 H   0  0  0  0  0  0  0  0  0  0  0  0
  -17.0047   10.5029   30.1812 H   0  0  0  0  0  0  0  0  0  0  0  0
  -19.1315   11.5614   33.4363 C   0  0  0  0  0  0  0  0  0  0  0  0
  -19.0850   12.7625   33.9794 N   0  0  0  0  0  0  0  0  0  0  0  0
  -20.2538   12.8902   34.6916 C   0  0  0  0  0  0  0  0  0  0  0  0
  -20.7152   13.9640   35.4643 C   0  0  0  0  0  0  0  0  0  0  0  0
  -21.9561   13.8339   36.0949 C   0  0  0  0  0  0  0  0  0  0  0  0
  -22.5529   15.1358   37.0538 Cl  0  0  0  0  0  0  0  0  0  0  0  0
  -22.7228   12.6725   35.9658 C   0  0  0  0  0  0  0  0  0  0  0  0
  -22.2742   11.5924   35.1967 C   0  0  0  0  0  0  0  0  0  0  0  0
  -21.0332   11.7440   34.5759 C   0  0  0  0  0  0  0  0  0  0  0  0
  -20.2990   10.9163   33.7675 N   0  0  0  0  0  0  0  0  0  0  0  0
  -20.5626   10.0143   33.4741 H   0  0  0  0  0  0  0  0  0  0  0  0
  2  1  1  0
  2  3  1  0
  3  4  1  0
  4 12  1  0
 12 13  2  0
 13 14  1  0
 14 15  2  0
 15 16  1  0
 16 17  1  0
 16 18  2  0
 18 19  1  0
 19 20  2  0
 20 21  1  0
  4  5  1  0
  5  6  1  0
  5  7  1  0
  7  8  1  0
  7  2  1  0
 21 12  1  0
 20 14  1  0
  3  9  1  0
 21 22  1  0
  6 10  1  0
  8 11  1  0
M  END
> <minimizedAffinity>
-7.15806

> <CNNscore>
0.7592517734

> <CNNaffinity>
5.8460307121

> <CNN_VS>
4.4386091232

> <CNNaffinity_variance>
0.4046154320

$$$$



 22 24  0  0  0  0  0  0  0  0999 V2000
  -17.1907    7.8900   31.1878 C   0  0  0  0  0  0  0  0  0  0  0  0
  -15.9875    8.6039   31.7880 C   0  0  0  0  0  0  0  0  0  0  0  0
  -16.3430    9.1697   33.1230 N   0  0  0  0  0  0  0  0  0  0  0  0
  -16.2352   10.6375   32.9550 C   0  0  0  0  0  0  0  0  0  0  0  0
  -15.0860   10.8255   31.9585 C   0  0  0  0  0  0  0  0  0  0  0  0
  -15.0633   12.1159   31.3461 O   0  0  0  0  0  0  0  0  0  0  0  0
  -15.4178    9.7518   30.9270 C   0  0  0  0  0  0  0  0  0  0  0  0
  -16.3719   10.2676   29.9937 O   0  0  0  0  0  0  0  0  0  0  0  0
  -15.6927    8.8413   33.8368 H   0  0  0  0  0  0  0  0  0  0  0  0
  -15.9085   12.2760   30.8979 H   0  0  0  0  0  0  0  0  0  0  0  0
  -17.1551   10.5816   30.4721 H   0  0  0  0  0  0  0  0  0  0  0  0
  -15.9847   11.3282   34.2551 C   0  0  0  0  0  0  0  0  0  0  0  0
  -15.7395   10.7726   35.4260 N   0  0  0  0  0  0  0  0  0  0  0  0
  -15.5654   11.8186   36.3009 C   0  0  0  0  0  0  0  0  0  0  0  0
  -15.2872   11.7968   37.6738 C   0  0  0  0  0  0  0  0  0  0  0  0
  -15.1581   13.0205   38.3373 C   0  0  0  0  0  0  0  0  0  0  0  0
  -14.8170   13.0294   40.0267 Cl  0  0  0  0  0  0  0  0  0  0  0  0
  -15.2998   14.2359   37.6620 C   0  0  0  0  0  0  0  0  0  0  0  0
  -15.5772   14.2724   36.2904 C   0  0  0  0  0  0  0  0  0  0  0  0
  -15.7017   13.0393   35.6482 C   0  0  0  0  0  0  0  0  0  0  0  0
  -15.9626   12.6994   34.3467 N   0  0  0  0  0  0  0  0  0  0  0  0
  -16.1091   13.3293   33.6044 H   0  0  0  0  0  0  0  0  0  0  0  0
  2  1  1  0
  2  3  1  0
  3  4  1  0
  4 12  1  0
 12 13  2  0
 13 14  1  0
 14 15  2  0
 15 16  1  0
 16 17  1  0
 16 18  2  0
 18 19  1  0
 19 20  2  0
 20 21  1  0
  4  5  1  0
  5  6  1  0
  5  7  1  0
  7  8  1  0
  7  2  1  0
 21 12  1  0
 20 14  1  0
  3  9  1  0
 21 22  1  0
  6 10  1  0
  8 11  1  0
M  END
> <minimizedAffinity>
-7.02993

> <CNNscore>
0.6247050166

> <CNNaffinity>
6.2758255005

> <CNN_VS>
3.9205396175

> <CNNaffinity_variance>
0.4947749078

$$$$



 22 24  0  0  0  0  0  0  0  0999 V2000
  -26.3592   12.9137   37.8816 C   0  0  0  0  0  0  0  0  0  0  0  0
  -24.8711   12.6368   37.7200 C   0  0  0  0  0  0  0  0  0  0  0  0
  -24.1722   13.8654   37.2397 N   0  0  0  0  0  0  0  0  0  0  0  0
  -23.6605   13.5110   35.8956 C   0  0  0  0  0  0  0  0  0  0  0  0
  -23.3087   12.0230   35.9998 C   0  0  0  0  0  0  0  0  0  0  0  0
  -23.1763   11.3749   34.7336 O   0  0  0  0  0  0  0  0  0  0  0  0
  -24.5263   11.4886   36.7473 C   0  0  0  0  0  0  0  0  0  0  0  0
  -25.5776   11.2212   35.8142 O   0  0  0  0  0  0  0  0  0  0  0  0
  -23.4031   14.1082   37.8641 H   0  0  0  0  0  0  0  0  0  0  0  0
  -23.9991   11.4775   34.2303 H   0  0  0  0  0  0  0  0  0  0  0  0
  -25.7726   12.0252   35.3078 H   0  0  0  0  0  0  0  0  0  0  0  0
  -22.4880   14.3511   35.5086 C   0  0  0  0  0  0  0  0  0  0  0  0
  -22.4239   15.6677   35.4602 N   0  0  0  0  0  0  0  0  0  0  0  0
  -21.1399   15.9597   35.0656 C   0  0  0  0  0  0  0  0  0  0  0  0
  -20.5340   17.2043   34.8494 C   0  0  0  0  0  0  0  0  0  0  0  0
  -19.1961   17.2219   34.4443 C   0  0  0  0  0  0  0  0  0  0  0  0
  -18.4206   18.7362   34.1687 Cl  0  0  0  0  0  0  0  0  0  0  0  0
  -18.4740   16.0401   34.2574 C   0  0  0  0  0  0  0  0  0  0  0  0
  -19.0666   14.7898   34.4702 C   0  0  0  0  0  0  0  0  0  0  0  0
  -20.4026   14.7958   34.8745 C   0  0  0  0  0  0  0  0  0  0  0  0
  -21.2819   13.7868   35.1683 N   0  0  0  0  0  0  0  0  0  0  0  0
  -21.0837   12.8228   35.1405 H   0  0  0  0  0  0  0  0  0  0  0  0
  2  1  1  0
  2  3  1  0
  3  4  1  0
  4 12  1  0
 12 13  2  0
 13 14  1  0
 14 15  2  0
 15 16  1  0
 16 17  1  0
 16 18  2  0
 18 19  1  0
 19 20  2  0
 20 21  1  0
  4  5  1  0
  5  6  1  0
  5  7  1  0
  7  8  1  0
  7  2  1  0
 21 12  1  0
 20 14  1  0
  3  9  1  0
 21 22  1  0
  6 10  1  0
  8 11  1  0
M  END
> <minimizedAffinity>
-5.24255

> <CNNscore>
0.5290681124

> <CNNaffinity>
3.9307582378

> <CNN_VS>
2.0796389580

> <CNNaffinity_variance>
0.6792318225

$$$$



 22 24  0  0  0  0  0  0  0  0999 V2000
  -14.8218   17.0498   34.6134 C   0  0  0  0  0  0  0  0  0  0  0  0
  -14.9665   15.6390   35.1666 C   0  0  0  0  0  0  0  0  0  0  0  0
  -14.8803   14.6440   34.0569 N   0  0  0  0  0  0  0  0  0  0  0  0
  -16.2147   14.0021   34.0172 C   0  0  0  0  0  0  0  0  0  0  0  0
  -16.6686   13.9713   35.4807 C   0  0  0  0  0  0  0  0  0  0  0  0
  -18.0732   13.7665   35.6413 O   0  0  0  0  0  0  0  0  0  0  0  0
  -16.2792   15.3745   35.9349 C   0  0  0  0  0  0  0  0  0  0  0  0
  -17.3186   16.2933   35.5845 O   0  0  0  0  0  0  0  0  0  0  0  0
  -14.1552   13.9531   34.2498 H   0  0  0  0  0  0  0  0  0  0  0  0
  -18.5574   14.4609   35.1678 H   0  0  0  0  0  0  0  0  0  0  0  0
  -17.4874   16.2422   34.6307 H   0  0  0  0  0  0  0  0  0  0  0  0
  -16.1578   12.6406   33.4063 C   0  0  0  0  0  0  0  0  0  0  0  0
  -16.8302   11.5666   33.7728 N   0  0  0  0  0  0  0  0  0  0  0  0
  -16.4469   10.5762   32.8999 C   0  0  0  0  0  0  0  0  0  0  0  0
  -16.8493    9.2357   32.8389 C   0  0  0  0  0  0  0  0  0  0  0  0
  -16.2975    8.4292   31.8392 C   0  0  0  0  0  0  0  0  0  0  0  0
  -16.7702    6.7749   31.7366 Cl  0  0  0  0  0  0  0  0  0  0  0  0
  -15.3713    8.9336   30.9222 C   0  0  0  0  0  0  0  0  0  0  0  0
  -14.9608   10.2710   30.9713 C   0  0  0  0  0  0  0  0  0  0  0  0
  -15.5245   11.0580   31.9769 C   0  0  0  0  0  0  0  0  0  0  0  0
  -15.3621   12.3752   32.3175 N   0  0  0  0  0  0  0  0  0  0  0  0
  -14.7759   13.0209   31.8606 H   0  0  0  0  0  0  0  0  0  0  0  0
  2  1  1  0
  2  3  1  0
  3  4  1  0
  4 12  1  0
 12 13  2  0
 13 14  1  0
 14 15  2  0
 15 16  1  0
 16 17  1  0
 16 18  2  0
 18 19  1  0
 19 20  2  0
 20 21  1  0
  4  5  1  0
  5  6  1  0
  5  7  1  0
  7  8  1  0
  7  2  1  0
 21 12  1  0
 20 14  1  0
  3  9  1  0
 21 22  1  0
  6 10  1  0
  8 11  1  0
M  END
> <minimizedAffinity>
-6.82325

> <CNNscore>
0.4230320752

> <CNNaffinity>
4.8019385338

> <CNN_VS>
2.0313739777

> <CNNaffinity_variance>
0.3005089462

$$$$
