


 18 19  0  0  0  0  0  0  0  0999 V2000
   11.0550    7.6060    6.7667 C   0  0  0  0  0  0  0  0  0  0  0  0
   11.6087    7.5866    5.5014 C   0  0  0  0  0  0  0  0  0  0  0  0
   12.7686    8.3112    5.5256 N   0  0  0  0  0  0  0  0  0  0  0  0
   12.9912    8.8084    6.7885 C   0  0  0  0  0  0  0  0  0  0  0  0
   14.0443    9.5951    7.2734 C   0  0  0  0  0  0  0  0  0  0  0  0
   14.0096    9.9615    8.6236 C   0  0  0  0  0  0  0  0  0  0  0  0
   15.4332   11.0278    9.2898 Br  0  0  0  0  0  0  0  0  0  0  0  0
   12.9606    9.5555    9.4495 C   0  0  0  0  0  0  0  0  0  0  0  0
   12.9468    9.9279   10.7675 O   0  0  0  0  0  0  0  0  0  0  0  0
   11.9162    8.7686    8.9490 C   0  0  0  0  0  0  0  0  0  0  0  0
   11.9304    8.3857    7.5903 C   0  0  0  0  0  0  0  0  0  0  0  0
   13.3588    8.4560    4.7511 H   0  0  0  0  0  0  0  0  0  0  0  0
   13.6407   10.4544   11.1128 H   0  0  0  0  0  0  0  0  0  0  0  0
    9.7827    6.9350    7.1855 C   0  0  0  0  0  0  0  0  0  0  0  0
   11.3848    5.0692    7.4935 N   0  0  0  0  0  0  0  0  0  0  0  0
   10.0329    5.5467    7.7865 C   0  0  0  0  0  0  0  0  0  0  0  0
   11.5164    4.1461    7.9069 H   0  0  0  0  0  0  0  0  0  0  0  0
   12.0671    5.7180    7.8861 H   0  0  0  0  0  0  0  0  0  0  0  0
 15 16  1  0
 16 14  1  0
 14  1  1  0
  1  2  2  0
  2  3  1  0
  3  4  1  0
  4  5  2  0
  5  6  1  0
  6  7  1  0
  6  8  2  0
  8  9  1  0
  8 10  1  0
 10 11  2  0
 11  1  1  0
 11  4  1  0
 15 17  1  0
 15 18  1  0
  3 12  1  0
  9 13  1  0
M  END
> <minimizedAffinity>
-6.64170

> <CNNscore>
0.7862482667

> <CNNaffinity>
6.2348427773

> <CNN_VS>
4.9021344185

> <CNNaffinity_variance>
0.1252198666

$$$$



 18 19  0  0  0  0  0  0  0  0999 V2000
   20.2750    1.3804   15.6100 C   0  0  0  0  0  0  0  0  0  0  0  0
   21.4181    0.8448   15.0492 C   0  0  0  0  0  0  0  0  0  0  0  0
   22.3129    1.8582   14.8399 N   0  0  0  0  0  0  0  0  0  0  0  0
   21.7793    3.0557   15.2555 C   0  0  0  0  0  0  0  0  0  0  0  0
   22.3324    4.3428   15.2354 C   0  0  0  0  0  0  0  0  0  0  0  0
   21.5480    5.3918   15.7283 C   0  0  0  0  0  0  0  0  0  0  0  0
   22.2898    7.1402   15.7052 Br  0  0  0  0  0  0  0  0  0  0  0  0
   20.2629    5.1565   16.2184 C   0  0  0  0  0  0  0  0  0  0  0  0
   19.5127    6.1991   16.6940 O   0  0  0  0  0  0  0  0  0  0  0  0
   19.7253    3.8636   16.2321 C   0  0  0  0  0  0  0  0  0  0  0  0
   20.4986    2.7895   15.7410 C   0  0  0  0  0  0  0  0  0  0  0  0
   23.2093    1.7464   14.4485 H   0  0  0  0  0  0  0  0  0  0  0  0
   19.8626    7.0683   16.6895 H   0  0  0  0  0  0  0  0  0  0  0  0
   19.0442    0.6222   16.0031 C   0  0  0  0  0  0  0  0  0  0  0  0
   17.3633   -0.0765   14.3211 N   0  0  0  0  0  0  0  0  0  0  0  0
   18.6424   -0.4141   14.9467 C   0  0  0  0  0  0  0  0  0  0  0  0
   17.1275   -0.7847   13.6258 H   0  0  0  0  0  0  0  0  0  0  0  0
   17.4364    0.8341   13.8675 H   0  0  0  0  0  0  0  0  0  0  0  0
 15 16  1  0
 16 14  1  0
 14  1  1  0
  1  2  2  0
  2  3  1  0
  3  4  1  0
  4  5  2  0
  5  6  1  0
  6  7  1  0
  6  8  2  0
  8  9  1  0
  8 10  1  0
 10 11  2  0
 11  1  1  0
 11  4  1  0
 15 17  1  0
 15 18  1  0
  3 12  1  0
  9 13  1  0
M  END
> <minimizedAffinity>
-4.95783

> <CNNscore>
0.5843536258

> <CNNaffinity>
3.8645222187

> <CNN_VS>
2.2582476139

> <CNNaffinity_variance>
0.5155783892

$$$$



 18 19  0  0  0  0  0  0  0  0999 V2000
   21.7263    4.9588   15.1545 C   0  0  0  0  0  0  0  0  0  0  0  0
   21.4666    5.6697   16.3100 C   0  0  0  0  0  0  0  0  0  0  0  0
   21.9697    6.9332   16.1629 N   0  0  0  0  0  0  0  0  0  0  0  0
   22.5570    7.0691   14.9267 C   0  0  0  0  0  0  0  0  0  0  0  0
   23.1914    8.1765   14.3487 C   0  0  0  0  0  0  0  0  0  0  0  0
   23.7068    8.0250   13.0563 C   0  0  0  0  0  0  0  0  0  0  0  0
   24.5684    9.5211   12.2645 Br  0  0  0  0  0  0  0  0  0  0  0  0
   23.5903    6.8123   12.3761 C   0  0  0  0  0  0  0  0  0  0  0  0
   24.1041    6.6868   11.1126 O   0  0  0  0  0  0  0  0  0  0  0  0
   22.9523    5.7154   12.9681 C   0  0  0  0  0  0  0  0  0  0  0  0
   22.4237    5.8450   14.2707 C   0  0  0  0  0  0  0  0  0  0  0  0
   21.9188    7.6426   16.8436 H   0  0  0  0  0  0  0  0  0  0  0  0
   24.5330    7.4144   10.7069 H   0  0  0  0  0  0  0  0  0  0  0  0
   21.3453    3.5347   14.8879 C   0  0  0  0  0  0  0  0  0  0  0  0
   22.3181    1.2551   14.8839 N   0  0  0  0  0  0  0  0  0  0  0  0
   22.2941    2.5450   15.5746 C   0  0  0  0  0  0  0  0  0  0  0  0
   22.9572    0.6231   15.3660 H   0  0  0  0  0  0  0  0  0  0  0  0
   22.6332    1.3897   13.9232 H   0  0  0  0  0  0  0  0  0  0  0  0
 15 16  1  0
 16 14  1  0
 14  1  1  0
  1  2  2  0
  2  3  1  0
  3  4  1  0
  4  5  2  0
  5  6  1  0
  6  7  1  0
  6  8  2  0
  8  9  1  0
  8 10  1  0
 10 11  2  0
 11  1  1  0
 11  4  1  0
 15 17  1  0
 15 18  1  0
  3 12  1  0
  9 13  1  0
M  END
> <minimizedAffinity>
-5.83253

> <CNNscore>
0.5564202666

> <CNNaffinity>
4.6232700348

> <CNN_VS>
2.5724811554

> <CNNaffinity_variance>
0.0724497363

$$$$



 18 19  0  0  0  0  0  0  0  0999 V2000
   18.4964    0.1566   15.8907 C   0  0  0  0  0  0  0  0  0  0  0  0
   18.0910    0.0789   14.5725 C   0  0  0  0  0  0  0  0  0  0  0  0
   16.7498   -0.1891   14.5475 N   0  0  0  0  0  0  0  0  0  0  0  0
   16.2617   -0.2882   15.8295 C   0  0  0  0  0  0  0  0  0  0  0  0
   14.9603   -0.5463   16.2796 C   0  0  0  0  0  0  0  0  0  0  0  0
   14.7514   -0.5929   17.6626 C   0  0  0  0  0  0  0  0  0  0  0  0
   12.9902   -0.9420   18.2821 Br  0  0  0  0  0  0  0  0  0  0  0  0
   15.8059   -0.3900   18.5537 C   0  0  0  0  0  0  0  0  0  0  0  0
   15.5780   -0.4421   19.9033 O   0  0  0  0  0  0  0  0  0  0  0  0
   17.1007   -0.1323   18.0871 C   0  0  0  0  0  0  0  0  0  0  0  0
   17.3352   -0.0795   16.6960 C   0  0  0  0  0  0  0  0  0  0  0  0
   16.2117   -0.2956   13.7300 H   0  0  0  0  0  0  0  0  0  0  0  0
   14.7155   -0.6139   20.2265 H   0  0  0  0  0  0  0  0  0  0  0  0
   19.8868    0.4363   16.3731 C   0  0  0  0  0  0  0  0  0  0  0  0
   22.0324    0.5935   15.1425 N   0  0  0  0  0  0  0  0  0  0  0  0
   20.7153    1.2017   15.3344 C   0  0  0  0  0  0  0  0  0  0  0  0
   22.5549    1.1264   14.4472 H   0  0  0  0  0  0  0  0  0  0  0  0
   21.9194   -0.3675   14.8198 H   0  0  0  0  0  0  0  0  0  0  0  0
 15 16  1  0
 16 14  1  0
 14  1  1  0
  1  2  2  0
  2  3  1  0
  3  4  1  0
  4  5  2  0
  5  6  1  0
  6  7  1  0
  6  8  2  0
  8  9  1  0
  8 10  1  0
 10 11  2  0
 11  1  1  0
 11  4  1  0
 15 17  1  0
 15 18  1  0
  3 12  1  0
  9 13  1  0
M  END
> <minimizedAffinity>
-4.92669

> <CNNscore>
0.5227677226

> <CNNaffinity>
3.8771073818

> <CNN_VS>
2.0268266201

> <CNNaffinity_variance>
0.4133682251

$$$$



 18 19  0  0  0  0  0  0  0  0999 V2000
   23.1668    7.1550   12.3265 C   0  0  0  0  0  0  0  0  0  0  0  0
   23.2985    6.0432   11.5173 C   0  0  0  0  0  0  0  0  0  0  0  0
   23.0697    4.9274   12.2748 N   0  0  0  0  0  0  0  0  0  0  0  0
   22.7872    5.2846   13.5726 C   0  0  0  0  0  0  0  0  0  0  0  0
   22.4897    4.4827   14.6822 C   0  0  0  0  0  0  0  0  0  0  0  0
   22.2428    5.1282   15.8992 C   0  0  0  0  0  0  0  0  0  0  0  0
   21.8384    4.0493   17.4091 Br  0  0  0  0  0  0  0  0  0  0  0  0
   22.2943    6.5193   15.9958 C   0  0  0  0  0  0  0  0  0  0  0  0
   22.0509    7.1291   17.1979 O   0  0  0  0  0  0  0  0  0  0  0  0
   22.5923    7.3061   14.8765 C   0  0  0  0  0  0  0  0  0  0  0  0
   22.8439    6.6771   13.6380 C   0  0  0  0  0  0  0  0  0  0  0  0
   23.1026    4.0023   11.9395 H   0  0  0  0  0  0  0  0  0  0  0  0
   21.8505    6.6122   17.9533 H   0  0  0  0  0  0  0  0  0  0  0  0
   23.3312    8.5822   11.9018 C   0  0  0  0  0  0  0  0  0  0  0  0
   25.0979   10.2903   11.5792 N   0  0  0  0  0  0  0  0  0  0  0  0
   24.6323    9.1962   12.4322 C   0  0  0  0  0  0  0  0  0  0  0  0
   25.9626   10.6742   11.9604 H   0  0  0  0  0  0  0  0  0  0  0  0
   24.3872   11.0211   11.5454 H   0  0  0  0  0  0  0  0  0  0  0  0
 15 16  1  0
 16 14  1  0
 14  1  1  0
  1  2  2  0
  2  3  1  0
  3  4  1  0
  4  5  2  0
  5  6  1  0
  6  7  1  0
  6  8  2  0
  8  9  1  0
  8 10  1  0
 10 11  2  0
 11  1  1  0
 11  4  1  0
 15 17  1  0
 15 18  1  0
  3 12  1  0
  9 13  1  0
M  END
> <minimizedAffinity>
-5.53798

> <CNNscore>
0.4781273007

> <CNNaffinity>
3.7213370800

> <CNN_VS>
1.7792727947

> <CNNaffinity_variance>
0.5782880187

$$$$



 18 19  0  0  0  0  0  0  0  0999 V2000
   19.8108    3.0174   16.1048 C   0  0  0  0  0  0  0  0  0  0  0  0
   19.5126    3.8742   17.1465 C   0  0  0  0  0  0  0  0  0  0  0  0
   18.3745    3.4285   17.7608 N   0  0  0  0  0  0  0  0  0  0  0  0
   17.9165    2.2888   17.1421 C   0  0  0  0  0  0  0  0  0  0  0  0
   16.7979    1.4959   17.4300 C   0  0  0  0  0  0  0  0  0  0  0  0
   16.5713    0.3779   16.6193 C   0  0  0  0  0  0  0  0  0  0  0  0
   15.0572   -0.7030   17.0024 Br  0  0  0  0  0  0  0  0  0  0  0  0
   17.4316    0.0718   15.5642 C   0  0  0  0  0  0  0  0  0  0  0  0
   17.1888   -1.0265   14.7827 O   0  0  0  0  0  0  0  0  0  0  0  0
   18.5459    0.8744   15.2904 C   0  0  0  0  0  0  0  0  0  0  0  0
   18.7952    2.0069   16.0956 C   0  0  0  0  0  0  0  0  0  0  0  0
   17.9454    3.8610   18.5342 H   0  0  0  0  0  0  0  0  0  0  0  0
   16.4460   -1.5705   14.9570 H   0  0  0  0  0  0  0  0  0  0  0  0
   20.9768    3.1327   15.1713 C   0  0  0  0  0  0  0  0  0  0  0  0
   22.3614    1.0980   14.8785 N   0  0  0  0  0  0  0  0  0  0  0  0
   22.1867    2.3251   15.6563 C   0  0  0  0  0  0  0  0  0  0  0  0
   23.1725    0.5871   15.2270 H   0  0  0  0  0  0  0  0  0  0  0  0
   22.5049    1.3351   13.8969 H   0  0  0  0  0  0  0  0  0  0  0  0
 15 16  1  0
 16 14  1  0
 14  1  1  0
  1  2  2  0
  2  3  1  0
  3  4  1  0
  4  5  2  0
  5  6  1  0
  6  7  1  0
  6  8  2  0
  8  9  1  0
  8 10  1  0
 10 11  2  0
 11  1  1  0
 11  4  1  0
 15 17  1  0
 15 18  1  0
  3 12  1  0
  9 13  1  0
M  END
> <minimizedAffinity>
-4.84559

> <CNNscore>
0.4597079158

> <CNNaffinity>
3.6712467670

> <CNN_VS>
1.6877012253

> <CNNaffinity_variance>
0.4208407700

$$$$



 18 19  0  0  0  0  0  0  0  0999 V2000
   22.2929    4.6459   14.7172 C   0  0  0  0  0  0  0  0  0  0  0  0
   22.1430    3.8804   13.5771 C   0  0  0  0  0  0  0  0  0  0  0  0
   22.5656    4.6157   12.5038 N   0  0  0  0  0  0  0  0  0  0  0  0
   22.9943    5.8554   12.9170 C   0  0  0  0  0  0  0  0  0  0  0  0
   23.5075    6.9248   12.1716 C   0  0  0  0  0  0  0  0  0  0  0  0
   23.8662    8.0851   12.8671 C   0  0  0  0  0  0  0  0  0  0  0  0
   24.5631    9.5401   11.8647 Br  0  0  0  0  0  0  0  0  0  0  0  0
   23.7138    8.1664   14.2518 C   0  0  0  0  0  0  0  0  0  0  0  0
   24.0698    9.3129   14.9110 O   0  0  0  0  0  0  0  0  0  0  0  0
   23.2000    7.0877   14.9820 C   0  0  0  0  0  0  0  0  0  0  0  0
   22.8324    5.9065   14.3019 C   0  0  0  0  0  0  0  0  0  0  0  0
   22.5631    4.3026   11.5704 H   0  0  0  0  0  0  0  0  0  0  0  0
   24.4147   10.0408   14.4322 H   0  0  0  0  0  0  0  0  0  0  0  0
   21.9541    4.2263   16.1148 C   0  0  0  0  0  0  0  0  0  0  0  0
   24.1451    3.0734   15.9993 N   0  0  0  0  0  0  0  0  0  0  0  0
   22.8037    3.0388   16.5831 C   0  0  0  0  0  0  0  0  0  0  0  0
   24.6812    2.2716   16.3311 H   0  0  0  0  0  0  0  0  0  0  0  0
   24.6148    3.9351   16.2774 H   0  0  0  0  0  0  0  0  0  0  0  0
 15 16  1  0
 16 14  1  0
 14  1  1  0
  1  2  2  0
  2  3  1  0
  3  4  1  0
  4  5  2  0
  5  6  1  0
  6  7  1  0
  6  8  2  0
  8  9  1  0
  8 10  1  0
 10 11  2  0
 11  1  1  0
 11  4  1  0
 15 17  1  0
 15 18  1  0
  3 12  1  0
  9 13  1  0
M  END
> <minimizedAffinity>
-4.83428

> <CNNscore>
0.4279768467

> <CNNaffinity>
4.0682182312

> <CNN_VS>
1.7411031723

> <CNNaffinity_variance>
0.3137730062

$$$$



 18 19  0  0  0  0  0  0  0  0999 V2000
    5.4018    0.1820    4.1105 C   0  0  0  0  0  0  0  0  0  0  0  0
    5.3283    1.3688    3.4076 C   0  0  0  0  0  0  0  0  0  0  0  0
    4.1609    1.3778    2.6947 N   0  0  0  0  0  0  0  0  0  0  0  0
    3.4603    0.2153    2.9168 C   0  0  0  0  0  0  0  0  0  0  0  0
    2.2255   -0.2033    2.4041 C   0  0  0  0  0  0  0  0  0  0  0  0
    1.7484   -1.4556    2.8078 C   0  0  0  0  0  0  0  0  0  0  0  0
    0.0750   -2.0313    2.1180 Br  0  0  0  0  0  0  0  0  0  0  0  0
    2.4821   -2.2523    3.6875 C   0  0  0  0  0  0  0  0  0  0  0  0
    1.9961   -3.4752    4.0672 O   0  0  0  0  0  0  0  0  0  0  0  0
    3.7144   -1.8184    4.1914 C   0  0  0  0  0  0  0  0  0  0  0  0
    4.2153   -0.5582    3.7991 C   0  0  0  0  0  0  0  0  0  0  0  0
    3.8649    2.1104    2.1074 H   0  0  0  0  0  0  0  0  0  0  0  0
    1.1725   -3.7754    3.7361 H   0  0  0  0  0  0  0  0  0  0  0  0
    6.5139   -0.2384    5.0220 C   0  0  0  0  0  0  0  0  0  0  0  0
    7.3401   -2.3472    4.0154 N   0  0  0  0  0  0  0  0  0  0  0  0
    7.6482   -0.9384    4.2640 C   0  0  0  0  0  0  0  0  0  0  0  0
    8.1135   -2.7806    3.5111 H   0  0  0  0  0  0  0  0  0  0  0  0
    6.4892   -2.4158    3.4570 H   0  0  0  0  0  0  0  0  0  0  0  0
 15 16  1  0
 16 14  1  0
 14  1  1  0
  1  2  2  0
  2  3  1  0
  3  4  1  0
  4  5  2  0
  5  6  1  0
  6  7  1  0
  6  8  2  0
  8  9  1  0
  8 10  1  0
 10 11  2  0
 11  1  1  0
 11  4  1  0
 15 17  1  0
 15 18  1  0
  3 12  1  0
  9 13  1  0
M  END
> <minimizedAffinity>
-4.61942

> <CNNscore>
0.4157782495

> <CNNaffinity>
4.3837790489

> <CNN_VS>
1.8226799965

> <CNNaffinity_variance>
0.0302856620

$$$$



 18 19  0  0  0  0  0  0  0  0999 V2000
   14.2476   10.0804    7.8345 C   0  0  0  0  0  0  0  0  0  0  0  0
   14.8216   10.0797    6.5781 C   0  0  0  0  0  0  0  0  0  0  0  0
   14.1108    9.2275    5.7782 N   0  0  0  0  0  0  0  0  0  0  0  0
   13.0742    8.6658    6.4864 C   0  0  0  0  0  0  0  0  0  0  0  0
   12.0975    7.7486    6.0770 C   0  0  0  0  0  0  0  0  0  0  0  0
   11.1526    7.3429    7.0264 C   0  0  0  0  0  0  0  0  0  0  0  0
    9.8244    6.0998    6.4803 Br  0  0  0  0  0  0  0  0  0  0  0  0
   11.1897    7.8372    8.3308 C   0  0  0  0  0  0  0  0  0  0  0  0
   10.2555    7.4243    9.2434 O   0  0  0  0  0  0  0  0  0  0  0  0
   12.1723    8.7542    8.7233 C   0  0  0  0  0  0  0  0  0  0  0  0
   13.1354    9.1788    7.7825 C   0  0  0  0  0  0  0  0  0  0  0  0
   14.3121    9.0430    4.8324 H   0  0  0  0  0  0  0  0  0  0  0  0
    9.5935    6.8110    8.9915 H   0  0  0  0  0  0  0  0  0  0  0  0
   14.7083   10.8769    9.0167 C   0  0  0  0  0  0  0  0  0  0  0  0
   13.3585   10.4910   11.0592 N   0  0  0  0  0  0  0  0  0  0  0  0
   13.5372   11.3485    9.8869 C   0  0  0  0  0  0  0  0  0  0  0  0
   12.5736   10.8326   11.6139 H   0  0  0  0  0  0  0  0  0  0  0  0
   14.2072   10.5073   11.6249 H   0  0  0  0  0  0  0  0  0  0  0  0
 15 16  1  0
 16 14  1  0
 14  1  1  0
  1  2  2  0
  2  3  1  0
  3  4  1  0
  4  5  2  0
  5  6  1  0
  6  7  1  0
  6  8  2  0
  8  9  1  0
  8 10  1  0
 10 11  2  0
 11  1  1  0
 11  4  1  0
 15 17  1  0
 15 18  1  0
  3 12  1  0
  9 13  1  0
M  END
> <minimizedAffinity>
-6.79214

> <CNNscore>
0.4138934612

> <CNNaffinity>
5.1182823181

> <CNN_VS>
2.1184237003

> <CNNaffinity_variance>
0.8296372890

$$$$
