


 32 33  0  0  0  0  0  0  0  0999 V2000
   28.9074   -1.1706    3.5971 C   0  0  0  0  0  0  0  0  0  0  0  0
   29.2365    0.1135    4.3528 C   0  0  0  0  0  0  0  0  0  0  0  0
   30.3763    0.6888    3.6591 O   0  0  0  0  0  0  0  0  0  0  0  0
   31.1300    0.0809    3.7160 H   0  0  0  0  0  0  0  0  0  0  0  0
   28.0786    1.1450    4.2145 C   0  0  0  0  0  0  0  0  0  0  0  0
   26.9333    0.7140    4.0630 O   0  0  0  0  0  0  0  0  0  0  0  0
   28.4234    2.4766    4.2873 N   0  0  0  0  0  0  0  0  0  0  0  0
   29.3833    2.6738    4.3811 H   0  0  0  0  0  0  0  0  0  0  0  0
   27.5574    3.5915    4.2428 C   0  0  0  0  0  0  0  0  0  0  0  0
   27.9492    4.8761    3.8715 C   0  0  0  0  0  0  0  0  0  0  0  0
   27.0237    5.9262    3.8594 C   0  0  0  0  0  0  0  0  0  0  0  0
   25.6869    5.7062    4.2122 C   0  0  0  0  0  0  0  0  0  0  0  0
   25.2709    4.4166    4.5817 C   0  0  0  0  0  0  0  0  0  0  0  0
   26.2174    3.3707    4.5915 C   0  0  0  0  0  0  0  0  0  0  0  0
   23.8398    4.1469    4.9769 C   0  0  0  0  0  0  0  0  0  0  0  0
   23.0255    5.2071    4.7306 F   0  0  0  0  0  0  0  0  0  0  0  0
   23.6913    3.8696    6.3030 F   0  0  0  0  0  0  0  0  0  0  0  0
   23.3057    3.0856    4.3179 F   0  0  0  0  0  0  0  0  0  0  0  0
   24.7772    6.8181    4.1907 C   0  0  0  0  0  0  0  0  0  0  0  0
   24.0414    7.7145    4.1668 N   0  0  0  0  0  0  0  0  0  0  0  0
   29.7119   -0.0537    5.7947 C   0  0  0  0  0  0  0  0  0  0  0  0
   29.5251    1.3801    6.8146 S   0  0  0  0  0  0  0  0  0  0  0  0
   30.4608    2.3861    6.3429 O   0  0  0  0  0  0  0  0  0  0  0  0
   28.1186    1.6953    6.9440 O   0  0  0  0  0  0  0  0  0  0  0  0
   30.0782    0.8342    8.4144 C   0  0  0  0  0  0  0  0  0  0  0  0
   31.3174    0.1989    8.5492 C   0  0  0  0  0  0  0  0  0  0  0  0
   31.7395   -0.2112    9.8151 C   0  0  0  0  0  0  0  0  0  0  0  0
   30.9297    0.0203   10.9261 C   0  0  0  0  0  0  0  0  0  0  0  0
   31.3591   -0.3890   12.1284 F   0  0  0  0  0  0  0  0  0  0  0  0
   29.7000    0.6646   10.7882 C   0  0  0  0  0  0  0  0  0  0  0  0
   28.6061    0.9836   12.2976 Br  0  0  0  0  0  0  0  0  0  0  0  0
   29.2673    1.0816    9.5296 C   0  0  0  0  0  0  0  0  0  0  0  0
  2  1  1  0
  2  3  1  0
  2 21  1  0
 21 22  1  0
 22 23  2  0
 22 24  2  0
 22 25  1  0
 25 26  2  0
 26 27  1  0
 27 28  2  0
 28 29  1  0
 28 30  1  0
 30 31  1  0
 30 32  2  0
  2  5  1  0
  5  6  2  0
  5  7  1  0
  7  9  1  0
  9 10  2  0
 10 11  1  0
 11 12  2  0
 12 19  1  0
 19 20  3  0
 12 13  1  0
 13 15  1  0
 15 16  1  0
 15 17  1  0
 15 18  1  0
 13 14  2  0
 32 25  1  0
 14  9  1  0
  3  4  1  0
  7  8  1  0
M  END
> <minimizedAffinity>
-9.32046

> <CNNscore>
0.8827602863

> <CNNaffinity>
8.2025194168

> <CNN_VS>
7.2408585548

> <CNNaffinity_variance>
0.0984206796

$$$$



 32 33  0  0  0  0  0  0  0  0999 V2000
   28.8617   -0.9177    3.3331 C   0  0  0  0  0  0  0  0  0  0  0  0
   29.3440    0.1437    4.3174 C   0  0  0  0  0  0  0  0  0  0  0  0
   30.3844    0.8767    3.6162 O   0  0  0  0  0  0  0  0  0  0  0  0
   31.1172    0.2768    3.4065 H   0  0  0  0  0  0  0  0  0  0  0  0
   28.2136    1.1723    4.6145 C   0  0  0  0  0  0  0  0  0  0  0  0
   27.2321    0.7865    5.2533 O   0  0  0  0  0  0  0  0  0  0  0  0
   28.4046    2.4543    4.1483 N   0  0  0  0  0  0  0  0  0  0  0  0
   29.2251    2.6109    3.6271 H   0  0  0  0  0  0  0  0  0  0  0  0
   27.5583    3.5699    4.3324 C   0  0  0  0  0  0  0  0  0  0  0  0
   27.9977    4.8917    4.3688 C   0  0  0  0  0  0  0  0  0  0  0  0
   27.0882    5.9385    4.5604 C   0  0  0  0  0  0  0  0  0  0  0  0
   25.7207    5.6797    4.7117 C   0  0  0  0  0  0  0  0  0  0  0  0
   25.2573    4.3545    4.6699 C   0  0  0  0  0  0  0  0  0  0  0  0
   26.1879    3.3118    4.4792 C   0  0  0  0  0  0  0  0  0  0  0  0
   23.7912    4.0400    4.8391 C   0  0  0  0  0  0  0  0  0  0  0  0
   22.9920    4.9367    4.2030 F   0  0  0  0  0  0  0  0  0  0  0  0
   23.3869    4.0455    6.1407 F   0  0  0  0  0  0  0  0  0  0  0  0
   23.4598    2.8137    4.3570 F   0  0  0  0  0  0  0  0  0  0  0  0
   24.8285    6.7878    4.9128 C   0  0  0  0  0  0  0  0  0  0  0  0
   24.1123    7.6864    5.0715 N   0  0  0  0  0  0  0  0  0  0  0  0
   30.0261   -0.3692    5.5841 C   0  0  0  0  0  0  0  0  0  0  0  0
   31.1090    0.7878    6.3712 S   0  0  0  0  0  0  0  0  0  0  0  0
   32.4044    0.1492    6.5268 O   0  0  0  0  0  0  0  0  0  0  0  0
   31.0024    2.0699    5.7087 O   0  0  0  0  0  0  0  0  0  0  0  0
   30.4058    0.9877    7.9925 C   0  0  0  0  0  0  0  0  0  0  0  0
   29.3815    1.9171    8.2033 C   0  0  0  0  0  0  0  0  0  0  0  0
   28.8338    2.0506    9.4804 C   0  0  0  0  0  0  0  0  0  0  0  0
   29.3059    1.2573   10.5251 C   0  0  0  0  0  0  0  0  0  0  0  0
   28.7641    1.4110   11.7417 F   0  0  0  0  0  0  0  0  0  0  0  0
   30.3194    0.3236   10.3073 C   0  0  0  0  0  0  0  0  0  0  0  0
   30.9537   -0.7563   11.7244 Br  0  0  0  0  0  0  0  0  0  0  0  0
   30.8738    0.1785    9.0358 C   0  0  0  0  0  0  0  0  0  0  0  0
  2  1  1  0
  2  3  1  0
  2 21  1  0
 21 22  1  0
 22 23  2  0
 22 24  2  0
 22 25  1  0
 25 26  2  0
 26 27  1  0
 27 28  2  0
 28 29  1  0
 28 30  1  0
 30 31  1  0
 30 32  2  0
  2  5  1  0
  5  6  2  0
  5  7  1  0
  7  9  1  0
  9 10  2  0
 10 11  1  0
 11 12  2  0
 12 19  1  0
 19 20  3  0
 12 13  1  0
 13 15  1  0
 15 16  1  0
 15 17  1  0
 15 18  1  0
 13 14  2  0
 32 25  1  0
 14  9  1  0
  3  4  1  0
  7  8  1  0
M  END
> <minimizedAffinity>
-9.97636

> <CNNscore>
0.8669269085

> <CNNaffinity>
8.0120840073

> <CNN_VS>
6.9458913803

> <CNNaffinity_variance>
0.0055823904

$$$$



 32 33  0  0  0  0  0  0  0  0999 V2000
   29.0286   -1.2639    2.6426 C   0  0  0  0  0  0  0  0  0  0  0  0
   29.0519   -0.3085    3.8320 C   0  0  0  0  0  0  0  0  0  0  0  0
   30.3673    0.3083    3.8066 O   0  0  0  0  0  0  0  0  0  0  0  0
   31.0465   -0.3733    3.9291 H   0  0  0  0  0  0  0  0  0  0  0  0
   28.0273    0.8462    3.6301 C   0  0  0  0  0  0  0  0  0  0  0  0
   26.9621    0.5840    3.0671 O   0  0  0  0  0  0  0  0  0  0  0  0
   28.3865    2.0847    4.1143 N   0  0  0  0  0  0  0  0  0  0  0  0
   29.2828    2.1526    4.5158 H   0  0  0  0  0  0  0  0  0  0  0  0
   27.6161    3.2683    4.1008 C   0  0  0  0  0  0  0  0  0  0  0  0
   28.0990    4.5155    3.7095 C   0  0  0  0  0  0  0  0  0  0  0  0
   27.2652    5.6396    3.7309 C   0  0  0  0  0  0  0  0  0  0  0  0
   25.9300    5.5327    4.1380 C   0  0  0  0  0  0  0  0  0  0  0  0
   25.4224    4.2827    4.5285 C   0  0  0  0  0  0  0  0  0  0  0  0
   26.2774    3.1610    4.5038 C   0  0  0  0  0  0  0  0  0  0  0  0
   23.9909    4.1343    4.9818 C   0  0  0  0  0  0  0  0  0  0  0  0
   23.1490    3.8460    3.9543 F   0  0  0  0  0  0  0  0  0  0  0  0
   23.4908    5.2619    5.5615 F   0  0  0  0  0  0  0  0  0  0  0  0
   23.8327    3.1474    5.9021 F   0  0  0  0  0  0  0  0  0  0  0  0
   25.1167    6.7171    4.1492 C   0  0  0  0  0  0  0  0  0  0  0  0
   24.4636    7.6757    4.1635 N   0  0  0  0  0  0  0  0  0  0  0  0
   28.9576   -0.9490    5.2155 C   0  0  0  0  0  0  0  0  0  0  0  0
   28.8026    0.1921    6.5589 S   0  0  0  0  0  0  0  0  0  0  0  0
   27.7258    1.1128    6.2380 O   0  0  0  0  0  0  0  0  0  0  0  0
   28.7902   -0.5383    7.8081 O   0  0  0  0  0  0  0  0  0  0  0  0
   30.3276    1.1060    6.5136 C   0  0  0  0  0  0  0  0  0  0  0  0
   30.3102    2.5036    6.5757 C   0  0  0  0  0  0  0  0  0  0  0  0
   31.5184    3.2025    6.5513 C   0  0  0  0  0  0  0  0  0  0  0  0
   32.7229    2.5051    6.4719 C   0  0  0  0  0  0  0  0  0  0  0  0
   33.8671    3.2033    6.4454 F   0  0  0  0  0  0  0  0  0  0  0  0
   32.7356    1.1109    6.4220 C   0  0  0  0  0  0  0  0  0  0  0  0
   34.3710    0.1664    6.3211 Br  0  0  0  0  0  0  0  0  0  0  0  0
   31.5359    0.4002    6.4479 C   0  0  0  0  0  0  0  0  0  0  0  0
  2  1  1  0
  2  3  1  0
  2 21  1  0
 21 22  1  0
 22 23  2  0
 22 24  2  0
 22 25  1  0
 25 26  2  0
 26 27  1  0
 27 28  2  0
 28 29  1  0
 28 30  1  0
 30 31  1  0
 30 32  2  0
  2  5  1  0
  5  6  2  0
  5  7  1  0
  7  9  1  0
  9 10  2  0
 10 11  1  0
 11 12  2  0
 12 19  1  0
 19 20  3  0
 12 13  1  0
 13 15  1  0
 15 16  1  0
 15 17  1  0
 15 18  1  0
 13 14  2  0
 32 25  1  0
 14  9  1  0
  3  4  1  0
  7  8  1  0
M  END
> <minimizedAffinity>
-0.54780

> <CNNscore>
0.6766759753

> <CNNaffinity>
7.3650245667

> <CNN_VS>
4.9837350845

> <CNNaffinity_variance>
0.0316601694

$$$$



 32 33  0  0  0  0  0  0  0  0999 V2000
   30.1260   -0.4010    5.6624 C   0  0  0  0  0  0  0  0  0  0  0  0
   30.2764    1.1029    5.8716 C   0  0  0  0  0  0  0  0  0  0  0  0
   31.2572    1.5334    4.8897 O   0  0  0  0  0  0  0  0  0  0  0  0
   32.1055    1.0982    5.0678 H   0  0  0  0  0  0  0  0  0  0  0  0
   28.9533    1.8426    5.5164 C   0  0  0  0  0  0  0  0  0  0  0  0
   27.9169    1.1777    5.4517 O   0  0  0  0  0  0  0  0  0  0  0  0
   29.0392    3.2022    5.3132 N   0  0  0  0  0  0  0  0  0  0  0  0
   29.9401    3.5953    5.3690 H   0  0  0  0  0  0  0  0  0  0  0  0
   27.9828    4.0971    5.0340 C   0  0  0  0  0  0  0  0  0  0  0  0
   28.1590    5.4120    4.6080 C   0  0  0  0  0  0  0  0  0  0  0  0
   27.0531    6.2328    4.3577 C   0  0  0  0  0  0  0  0  0  0  0  0
   25.7501    5.7480    4.5228 C   0  0  0  0  0  0  0  0  0  0  0  0
   25.5518    4.4228    4.9438 C   0  0  0  0  0  0  0  0  0  0  0  0
   26.6775    3.6107    5.1946 C   0  0  0  0  0  0  0  0  0  0  0  0
   24.1610    3.8717    5.1409 C   0  0  0  0  0  0  0  0  0  0  0  0
   24.1602    2.7023    5.8339 F   0  0  0  0  0  0  0  0  0  0  0  0
   23.5172    3.6055    3.9695 F   0  0  0  0  0  0  0  0  0  0  0  0
   23.3507    4.7257    5.8192 F   0  0  0  0  0  0  0  0  0  0  0  0
   24.6483    6.6319    4.2598 C   0  0  0  0  0  0  0  0  0  0  0  0
   23.7626    7.3490    4.0432 N   0  0  0  0  0  0  0  0  0  0  0  0
   30.8600    1.5438    7.2126 C   0  0  0  0  0  0  0  0  0  0  0  0
   31.2075    0.2296    8.3453 S   0  0  0  0  0  0  0  0  0  0  0  0
   30.7470   -1.0095    7.7432 O   0  0  0  0  0  0  0  0  0  0  0  0
   32.5712    0.3503    8.8143 O   0  0  0  0  0  0  0  0  0  0  0  0
   30.1538    0.5808    9.7343 C   0  0  0  0  0  0  0  0  0  0  0  0
   29.1638    1.5642    9.6331 C   0  0  0  0  0  0  0  0  0  0  0  0
   28.3386    1.8168   10.7303 C   0  0  0  0  0  0  0  0  0  0  0  0
   28.5042    1.0870   11.9066 C   0  0  0  0  0  0  0  0  0  0  0  0
   27.7001    1.3549   12.9454 F   0  0  0  0  0  0  0  0  0  0  0  0
   29.4851    0.0993   11.9988 C   0  0  0  0  0  0  0  0  0  0  0  0
   29.7037   -0.8941   13.5931 Br  0  0  0  0  0  0  0  0  0  0  0  0
   30.3149   -0.1647   10.9093 C   0  0  0  0  0  0  0  0  0  0  0  0
  2  1  1  0
  2  3  1  0
  2 21  1  0
 21 22  1  0
 22 23  2  0
 22 24  2  0
 22 25  1  0
 25 26  2  0
 26 27  1  0
 27 28  2  0
 28 29  1  0
 28 30  1  0
 30 31  1  0
 30 32  2  0
  2  5  1  0
  5  6  2  0
  5  7  1  0
  7  9  1  0
  9 10  2  0
 10 11  1  0
 11 12  2  0
 12 19  1  0
 19 20  3  0
 12 13  1  0
 13 15  1  0
 15 16  1  0
 15 17  1  0
 15 18  1  0
 13 14  2  0
 32 25  1  0
 14  9  1  0
  3  4  1  0
  7  8  1  0
M  END
> <minimizedAffinity>
-6.33990

> <CNNscore>
0.5452645421

> <CNNaffinity>
7.6754221916

> <CNN_VS>
4.1851353645

> <CNNaffinity_variance>
0.1675421149

$$$$



 32 33  0  0  0  0  0  0  0  0999 V2000
   28.4543   -0.8291    1.3210 C   0  0  0  0  0  0  0  0  0  0  0  0
   28.3276   -0.3482    2.7635 C   0  0  0  0  0  0  0  0  0  0  0  0
   29.6435    0.1542    3.1203 O   0  0  0  0  0  0  0  0  0  0  0  0
   30.2880   -0.5695    3.0788 H   0  0  0  0  0  0  0  0  0  0  0  0
   27.3596    0.8678    2.8547 C   0  0  0  0  0  0  0  0  0  0  0  0
   26.2364    0.7530    2.3589 O   0  0  0  0  0  0  0  0  0  0  0  0
   27.8315    1.9879    3.5028 N   0  0  0  0  0  0  0  0  0  0  0  0
   28.7614    1.9465    3.8235 H   0  0  0  0  0  0  0  0  0  0  0  0
   27.1342    3.1889    3.7598 C   0  0  0  0  0  0  0  0  0  0  0  0
   27.6891    4.4611    3.6370 C   0  0  0  0  0  0  0  0  0  0  0  0
   26.9252    5.6003    3.9166 C   0  0  0  0  0  0  0  0  0  0  0  0
   25.5887    5.4851    4.3172 C   0  0  0  0  0  0  0  0  0  0  0  0
   25.0090    4.2116    4.4391 C   0  0  0  0  0  0  0  0  0  0  0  0
   25.7942    3.0744    4.1565 C   0  0  0  0  0  0  0  0  0  0  0  0
   23.5741    4.0515    4.8779 C   0  0  0  0  0  0  0  0  0  0  0  0
   23.4171    4.2386    6.2151 F   0  0  0  0  0  0  0  0  0  0  0  0
   23.0673    2.8134    4.6178 F   0  0  0  0  0  0  0  0  0  0  0  0
   22.7376    4.9274    4.2622 F   0  0  0  0  0  0  0  0  0  0  0  0
   24.8488    6.6840    4.5994 C   0  0  0  0  0  0  0  0  0  0  0  0
   24.2479    7.6486    4.8318 N   0  0  0  0  0  0  0  0  0  0  0  0
   28.0318   -1.4206    3.8101 C   0  0  0  0  0  0  0  0  0  0  0  0
   27.2402   -0.8333    5.2796 S   0  0  0  0  0  0  0  0  0  0  0  0
   26.0660   -0.0772    4.8800 O   0  0  0  0  0  0  0  0  0  0  0  0
   27.1202   -1.9214    6.2260 O   0  0  0  0  0  0  0  0  0  0  0  0
   28.4160    0.3134    5.9621 C   0  0  0  0  0  0  0  0  0  0  0  0
   27.9893    1.5616    6.4284 C   0  0  0  0  0  0  0  0  0  0  0  0
   28.9254    2.4430    6.9721 C   0  0  0  0  0  0  0  0  0  0  0  0
   30.2667    2.0707    7.0499 C   0  0  0  0  0  0  0  0  0  0  0  0
   31.1436    2.9397    7.5725 F   0  0  0  0  0  0  0  0  0  0  0  0
   30.6854    0.8203    6.5943 C   0  0  0  0  0  0  0  0  0  0  0  0
   32.5042    0.3145    6.7070 Br  0  0  0  0  0  0  0  0  0  0  0  0
   29.7601   -0.0708    6.0510 C   0  0  0  0  0  0  0  0  0  0  0  0
  2  1  1  0
  2  3  1  0
  2 21  1  0
 21 22  1  0
 22 23  2  0
 22 24  2  0
 22 25  1  0
 25 26  2  0
 26 27  1  0
 27 28  2  0
 28 29  1  0
 28 30  1  0
 30 31  1  0
 30 32  2  0
  2  5  1  0
  5  6  2  0
  5  7  1  0
  7  9  1  0
  9 10  2  0
 10 11  1  0
 11 12  2  0
 12 19  1  0
 19 20  3  0
 12 13  1  0
 13 15  1  0
 15 16  1  0
 15 17  1  0
 15 18  1  0
 13 14  2  0
 32 25  1  0
 14  9  1  0
  3  4  1  0
  7  8  1  0
M  END
> <minimizedAffinity>
-4.27080

> <CNNscore>
0.3861033916

> <CNNaffinity>
7.2081203461

> <CNN_VS>
2.7830796242

> <CNNaffinity_variance>
0.1374195963

$$$$



 32 33  0  0  0  0  0  0  0  0999 V2000
   22.6256    2.2175   14.9005 C   0  0  0  0  0  0  0  0  0  0  0  0
   22.2011    0.7841   15.2056 C   0  0  0  0  0  0  0  0  0  0  0  0
   21.0402    0.5380   14.3671 O   0  0  0  0  0  0  0  0  0  0  0  0
   20.3259    1.1445   14.6178 H   0  0  0  0  0  0  0  0  0  0  0  0
   23.2933   -0.2236   14.7409 C   0  0  0  0  0  0  0  0  0  0  0  0
   24.0495    0.1207   13.8299 O   0  0  0  0  0  0  0  0  0  0  0  0
   23.3420   -1.4319   15.4004 N   0  0  0  0  0  0  0  0  0  0  0  0
   22.6544   -1.5806   16.0892 H   0  0  0  0  0  0  0  0  0  0  0  0
   24.2653   -2.4820   15.2016 C   0  0  0  0  0  0  0  0  0  0  0  0
   25.6461   -2.3492   15.3329 C   0  0  0  0  0  0  0  0  0  0  0  0
   26.4900   -3.4441   15.1127 C   0  0  0  0  0  0  0  0  0  0  0  0
   25.9645   -4.6940   14.7641 C   0  0  0  0  0  0  0  0  0  0  0  0
   24.5746   -4.8499   14.6348 C   0  0  0  0  0  0  0  0  0  0  0  0
   23.7393   -3.7352   14.8571 C   0  0  0  0  0  0  0  0  0  0  0  0
   23.9760   -6.1808   14.2510 C   0  0  0  0  0  0  0  0  0  0  0  0
   24.7661   -7.2272   14.6094 F   0  0  0  0  0  0  0  0  0  0  0  0
   23.7760   -6.3135   12.9094 F   0  0  0  0  0  0  0  0  0  0  0  0
   22.7636   -6.3948   14.8258 F   0  0  0  0  0  0  0  0  0  0  0  0
   26.8727   -5.7850   14.5420 C   0  0  0  0  0  0  0  0  0  0  0  0
   27.6007   -6.6699   14.3618 N   0  0  0  0  0  0  0  0  0  0  0  0
   21.7102    0.5122   16.6262 C   0  0  0  0  0  0  0  0  0  0  0  0
   20.1259   -0.2685   16.7334 S   0  0  0  0  0  0  0  0  0  0  0  0
   19.6004   -0.0265   18.0658 O   0  0  0  0  0  0  0  0  0  0  0  0
   19.3428    0.0762   15.5663 O   0  0  0  0  0  0  0  0  0  0  0  0
   20.5011   -2.0023   16.6061 C   0  0  0  0  0  0  0  0  0  0  0  0
   21.5555   -2.5483   17.3461 C   0  0  0  0  0  0  0  0  0  0  0  0
   21.8265   -3.9137   17.2421 C   0  0  0  0  0  0  0  0  0  0  0  0
   21.0449   -4.7158   16.4118 C   0  0  0  0  0  0  0  0  0  0  0  0
   21.3318   -6.0228   16.3284 F   0  0  0  0  0  0  0  0  0  0  0  0
   19.9872   -4.1689   15.6848 C   0  0  0  0  0  0  0  0  0  0  0  0
   18.9241   -5.2599   14.5641 Br  0  0  0  0  0  0  0  0  0  0  0  0
   19.7042   -2.8066   15.7812 C   0  0  0  0  0  0  0  0  0  0  0  0
  2  1  1  0
  2  3  1  0
  2 21  1  0
 21 22  1  0
 22 23  2  0
 22 24  2  0
 22 25  1  0
 25 26  2  0
 26 27  1  0
 27 28  2  0
 28 29  1  0
 28 30  1  0
 30 31  1  0
 30 32  2  0
  2  5  1  0
  5  6  2  0
  5  7  1  0
  7  9  1  0
  9 10  2  0
 10 11  1  0
 11 12  2  0
 12 19  1  0
 19 20  3  0
 12 13  1  0
 13 15  1  0
 15 16  1  0
 15 17  1  0
 15 18  1  0
 13 14  2  0
 32 25  1  0
 14  9  1  0
  3  4  1  0
  7  8  1  0
M  END
> <minimizedAffinity>
61.77085

> <CNNscore>
0.3615111113

> <CNNaffinity>
5.7571721077

> <CNN_VS>
2.0812816620

> <CNNaffinity_variance>
0.0669556633

$$$$



 32 33  0  0  0  0  0  0  0  0999 V2000
   29.8865   -1.2944    3.5980 C   0  0  0  0  0  0  0  0  0  0  0  0
   28.5253   -0.6782    3.9071 C   0  0  0  0  0  0  0  0  0  0  0  0
   27.5559   -1.7250    3.6320 O   0  0  0  0  0  0  0  0  0  0  0  0
   27.5946   -1.9627    2.6924 H   0  0  0  0  0  0  0  0  0  0  0  0
   28.3987   -0.3579    5.4255 C   0  0  0  0  0  0  0  0  0  0  0  0
   27.3978   -0.7619    6.0216 O   0  0  0  0  0  0  0  0  0  0  0  0
   29.4336    0.3484    5.9979 N   0  0  0  0  0  0  0  0  0  0  0  0
   30.1559    0.6314    5.3917 H   0  0  0  0  0  0  0  0  0  0  0  0
   29.5770    0.7131    7.3547 C   0  0  0  0  0  0  0  0  0  0  0  0
   29.6326    2.0278    7.8132 C   0  0  0  0  0  0  0  0  0  0  0  0
   29.7807    2.2993    9.1783 C   0  0  0  0  0  0  0  0  0  0  0  0
   29.8684    1.2578   10.1097 C   0  0  0  0  0  0  0  0  0  0  0  0
   29.8063   -0.0740    9.6681 C   0  0  0  0  0  0  0  0  0  0  0  0
   29.6601   -0.3295    8.2886 C   0  0  0  0  0  0  0  0  0  0  0  0
   29.9074   -1.2202   10.6443 C   0  0  0  0  0  0  0  0  0  0  0  0
   29.0815   -1.0654   11.7128 F   0  0  0  0  0  0  0  0  0  0  0  0
   31.1574   -1.3743   11.1651 F   0  0  0  0  0  0  0  0  0  0  0  0
   29.5942   -2.4165   10.0815 F   0  0  0  0  0  0  0  0  0  0  0  0
   30.0267    1.5882   11.4991 C   0  0  0  0  0  0  0  0  0  0  0  0
   30.1481    1.8532   12.6218 N   0  0  0  0  0  0  0  0  0  0  0  0
   28.0927    0.4859    3.0180 C   0  0  0  0  0  0  0  0  0  0  0  0
   26.4818    1.1317    3.3627 S   0  0  0  0  0  0  0  0  0  0  0  0
   25.7545    1.2054    2.1074 O   0  0  0  0  0  0  0  0  0  0  0  0
   25.9161    0.4278    4.4935 O   0  0  0  0  0  0  0  0  0  0  0  0
   26.8014    2.7961    3.9017 C   0  0  0  0  0  0  0  0  0  0  0  0
   28.1086    3.2000    4.1946 C   0  0  0  0  0  0  0  0  0  0  0  0
   28.3408    4.5141    4.6043 C   0  0  0  0  0  0  0  0  0  0  0  0
   27.2754    5.4070    4.7111 C   0  0  0  0  0  0  0  0  0  0  0  0
   27.5282    6.6612    5.1116 F   0  0  0  0  0  0  0  0  0  0  0  0
   25.9753    5.0028    4.4067 C   0  0  0  0  0  0  0  0  0  0  0  0
   24.5325    6.2175    4.5457 Br  0  0  0  0  0  0  0  0  0  0  0  0
   25.7296    3.6934    3.9940 C   0  0  0  0  0  0  0  0  0  0  0  0
  2  1  1  0
  2  3  1  0
  2 21  1  0
 21 22  1  0
 22 23  2  0
 22 24  2  0
 22 25  1  0
 25 26  2  0
 26 27  1  0
 27 28  2  0
 28 29  1  0
 28 30  1  0
 30 31  1  0
 30 32  2  0
  2  5  1  0
  5  6  2  0
  5  7  1  0
  7  9  1  0
  9 10  2  0
 10 11  1  0
 11 12  2  0
 12 19  1  0
 19 20  3  0
 12 13  1  0
 13 15  1  0
 15 16  1  0
 15 17  1  0
 15 18  1  0
 13 14  2  0
 32 25  1  0
 14  9  1  0
  3  4  1  0
  7  8  1  0
M  END
> <minimizedAffinity>
-6.14141

> <CNNscore>
0.3581174314

> <CNNaffinity>
7.2147145271

> <CNN_VS>
2.5837149620

> <CNNaffinity_variance>
0.0701511726

$$$$



 32 33  0  0  0  0  0  0  0  0999 V2000
   24.0161   14.3801    6.1062 C   0  0  0  0  0  0  0  0  0  0  0  0
   23.7671   13.3502    7.2041 C   0  0  0  0  0  0  0  0  0  0  0  0
   22.3417   13.0724    7.1572 O   0  0  0  0  0  0  0  0  0  0  0  0
   21.8476   13.8823    7.3589 H   0  0  0  0  0  0  0  0  0  0  0  0
   24.4820   12.0078    6.8712 C   0  0  0  0  0  0  0  0  0  0  0  0
   25.7077   12.0213    6.7377 O   0  0  0  0  0  0  0  0  0  0  0  0
   23.6832   10.8907    6.7641 N   0  0  0  0  0  0  0  0  0  0  0  0
   22.7149   11.0357    6.8670 H   0  0  0  0  0  0  0  0  0  0  0  0
   24.0943    9.5610    6.5237 C   0  0  0  0  0  0  0  0  0  0  0  0
   24.5712    8.6963    7.5068 C   0  0  0  0  0  0  0  0  0  0  0  0
   24.9619    7.3928    7.1787 C   0  0  0  0  0  0  0  0  0  0  0  0
   24.8746    6.9299    5.8603 C   0  0  0  0  0  0  0  0  0  0  0  0
   24.3888    7.7839    4.8566 C   0  0  0  0  0  0  0  0  0  0  0  0
   24.0026    9.0953    5.2043 C   0  0  0  0  0  0  0  0  0  0  0  0
   24.2909    7.3200    3.4241 C   0  0  0  0  0  0  0  0  0  0  0  0
   23.4904    8.1218    2.6732 F   0  0  0  0  0  0  0  0  0  0  0  0
   23.7748    6.0647    3.2997 F   0  0  0  0  0  0  0  0  0  0  0  0
   25.4981    7.2838    2.8018 F   0  0  0  0  0  0  0  0  0  0  0  0
   25.2944    5.5861    5.5733 C   0  0  0  0  0  0  0  0  0  0  0  0
   25.6351    4.5032    5.3354 N   0  0  0  0  0  0  0  0  0  0  0  0
   24.0182   13.8156    8.6371 C   0  0  0  0  0  0  0  0  0  0  0  0
   22.6427   13.6321    9.7348 S   0  0  0  0  0  0  0  0  0  0  0  0
   22.4089   14.9160   10.3728 O   0  0  0  0  0  0  0  0  0  0  0  0
   21.5669   12.9536    9.0445 O   0  0  0  0  0  0  0  0  0  0  0  0
   23.2425   12.5109   10.9783 C   0  0  0  0  0  0  0  0  0  0  0  0
   23.0073   12.7737   12.3322 C   0  0  0  0  0  0  0  0  0  0  0  0
   23.4753   11.8753   13.2927 C   0  0  0  0  0  0  0  0  0  0  0  0
   24.1629   10.7294   12.8954 C   0  0  0  0  0  0  0  0  0  0  0  0
   24.6048    9.8873   13.8404 F   0  0  0  0  0  0  0  0  0  0  0  0
   24.3849   10.4658   11.5435 C   0  0  0  0  0  0  0  0  0  0  0  0
   25.3120    8.9075   11.0064 Br  0  0  0  0  0  0  0  0  0  0  0  0
   23.9206   11.3540   10.5735 C   0  0  0  0  0  0  0  0  0  0  0  0
  2  1  1  0
  2  3  1  0
  2 21  1  0
 21 22  1  0
 22 23  2  0
 22 24  2  0
 22 25  1  0
 25 26  2  0
 26 27  1  0
 27 28  2  0
 28 29  1  0
 28 30  1  0
 30 31  1  0
 30 32  2  0
  2  5  1  0
  5  6  2  0
  5  7  1  0
  7  9  1  0
  9 10  2  0
 10 11  1  0
 11 12  2  0
 12 19  1  0
 19 20  3  0
 12 13  1  0
 13 15  1  0
 15 16  1  0
 15 17  1  0
 15 18  1  0
 13 14  2  0
 32 25  1  0
 14  9  1  0
  3  4  1  0
  7  8  1  0
M  END
> <minimizedAffinity>
19.83185

> <CNNscore>
0.3371137381

> <CNNaffinity>
6.0005512238

> <CNN_VS>
2.0228681564

> <CNNaffinity_variance>
0.2306974381

$$$$



 32 33  0  0  0  0  0  0  0  0999 V2000
   27.7328   -1.5445    1.7888 C   0  0  0  0  0  0  0  0  0  0  0  0
   28.1643   -0.5894    2.8977 C   0  0  0  0  0  0  0  0  0  0  0  0
   29.4590   -0.0760    2.4835 O   0  0  0  0  0  0  0  0  0  0  0  0
   30.0933   -0.8076    2.4252 H   0  0  0  0  0  0  0  0  0  0  0  0
   27.2117    0.6402    2.9661 C   0  0  0  0  0  0  0  0  0  0  0  0
   26.1256    0.5649    2.3871 O   0  0  0  0  0  0  0  0  0  0  0  0
   27.6534    1.7264    3.6888 N   0  0  0  0  0  0  0  0  0  0  0  0
   28.5568    1.6559    4.0735 H   0  0  0  0  0  0  0  0  0  0  0  0
   26.9585    2.9299    3.9412 C   0  0  0  0  0  0  0  0  0  0  0  0
   27.3178    4.1694    3.4158 C   0  0  0  0  0  0  0  0  0  0  0  0
   26.5734    5.3145    3.7222 C   0  0  0  0  0  0  0  0  0  0  0  0
   25.4507    5.2366    4.5550 C   0  0  0  0  0  0  0  0  0  0  0  0
   25.0678    3.9949    5.0879 C   0  0  0  0  0  0  0  0  0  0  0  0
   25.8312    2.8517    4.7713 C   0  0  0  0  0  0  0  0  0  0  0  0
   23.8688    3.8774    5.9965 C   0  0  0  0  0  0  0  0  0  0  0  0
   24.1549    4.2235    7.2795 F   0  0  0  0  0  0  0  0  0  0  0  0
   23.3646    2.6128    6.0606 F   0  0  0  0  0  0  0  0  0  0  0  0
   22.8345    4.6655    5.6029 F   0  0  0  0  0  0  0  0  0  0  0  0
   24.7238    6.4416    4.8450 C   0  0  0  0  0  0  0  0  0  0  0  0
   24.1314    7.4108    5.0802 N   0  0  0  0  0  0  0  0  0  0  0  0
   28.4224   -1.2157    4.2668 C   0  0  0  0  0  0  0  0  0  0  0  0
   30.0428   -1.8916    4.4865 S   0  0  0  0  0  0  0  0  0  0  0  0
   29.9394   -2.9992    5.4205 O   0  0  0  0  0  0  0  0  0  0  0  0
   30.6605   -2.0838    3.1920 O   0  0  0  0  0  0  0  0  0  0  0  0
   30.9387   -0.5844    5.2939 C   0  0  0  0  0  0  0  0  0  0  0  0
   32.2465   -0.8022    5.7408 C   0  0  0  0  0  0  0  0  0  0  0  0
   32.9377    0.2399    6.3611 C   0  0  0  0  0  0  0  0  0  0  0  0
   32.3240    1.4813    6.5228 C   0  0  0  0  0  0  0  0  0  0  0  0
   33.0107    2.4618    7.1265 F   0  0  0  0  0  0  0  0  0  0  0  0
   31.0239    1.6970    6.0650 C   0  0  0  0  0  0  0  0  0  0  0  0
   30.1957    3.3836    6.2792 Br  0  0  0  0  0  0  0  0  0  0  0  0
   30.3229    0.6650    5.4414 C   0  0  0  0  0  0  0  0  0  0  0  0
  2  1  1  0
  2  3  1  0
  2 21  1  0
 21 22  1  0
 22 23  2  0
 22 24  2  0
 22 25  1  0
 25 26  2  0
 26 27  1  0
 27 28  2  0
 28 29  1  0
 28 30  1  0
 30 31  1  0
 30 32  2  0
  2  5  1  0
  5  6  2  0
  5  7  1  0
  7  9  1  0
  9 10  2  0
 10 11  1  0
 11 12  2  0
 12 19  1  0
 19 20  3  0
 12 13  1  0
 13 15  1  0
 15 16  1  0
 15 17  1  0
 15 18  1  0
 13 14  2  0
 32 25  1  0
 14  9  1  0
  3  4  1  0
  7  8  1  0
M  END
> <minimizedAffinity>
2.50357

> <CNNscore>
0.3098868430

> <CNNaffinity>
7.4478745461

> <CNN_VS>
2.3079984188

> <CNNaffinity_variance>
0.2275579721

$$$$
