


 27 30  0  0  0  0  0  0  0  0999 V2000
   -1.4283   48.9829   10.1033 O   0  0  0  0  0  0  0  0  0  0  0  0
   -1.7357   48.0105   10.7827 C   0  0  0  0  0  0  0  0  0  0  0  0
   -2.9178   47.8330   11.4814 N   0  0  0  0  0  0  0  0  0  0  0  0
   -3.0335   46.9664   11.9340 H   0  0  0  0  0  0  0  0  0  0  0  0
   -0.7839   46.8629   10.8567 C   0  0  0  0  0  0  0  0  0  0  0  0
   -1.2627   45.6616   11.4859 C   0  0  0  0  0  0  0  0  0  0  0  0
   -0.4854   44.4894   11.6351 C   0  0  0  0  0  0  0  0  0  0  0  0
    0.8062   44.5991   11.0971 C   0  0  0  0  0  0  0  0  0  0  0  0
    1.8052   43.7036   11.0543 N   0  0  0  0  0  0  0  0  0  0  0  0
    2.8072   44.3315   10.4094 N   0  0  0  0  0  0  0  0  0  0  0  0
    2.5196   45.6127   10.0311 C   0  0  0  0  0  0  0  0  0  0  0  0
    1.2395   45.8190   10.4615 C   0  0  0  0  0  0  0  0  0  0  0  0
    0.5102   46.9906   10.2952 C   0  0  0  0  0  0  0  0  0  0  0  0
    3.6745   43.9031   10.2260 H   0  0  0  0  0  0  0  0  0  0  0  0
   -3.9757   48.7585   11.6162 C   0  0  0  0  0  0  0  0  0  0  0  0
   -5.1059   48.5625   10.8209 C   0  0  0  0  0  0  0  0  0  0  0  0
   -6.1786   49.4415   10.9152 C   0  0  0  0  0  0  0  0  0  0  0  0
   -7.2565   49.2424   10.1457 F   0  0  0  0  0  0  0  0  0  0  0  0
   -6.1524   50.5199   11.7900 C   0  0  0  0  0  0  0  0  0  0  0  0
   -5.0318   50.7372   12.5994 C   0  0  0  0  0  0  0  0  0  0  0  0
   -3.9512   49.8416   12.5045 C   0  0  0  0  0  0  0  0  0  0  0  0
   -5.0173   51.8769   13.5140 C   0  0  0  0  0  0  0  0  0  0  0  0
   -3.9963   52.6692   13.7881 N   0  0  0  0  0  0  0  0  0  0  0  0
   -4.4458   53.5925   14.6993 N   0  0  0  0  0  0  0  0  0  0  0  0
   -5.7190   53.3846   14.9950 N   0  0  0  0  0  0  0  0  0  0  0  0
   -6.0756   52.3208   14.2637 N   0  0  0  0  0  0  0  0  0  0  0  0
   -6.9723   51.9144   14.2645 H   0  0  0  0  0  0  0  0  0  0  0  0
  1  2  2  0
  2  3  1  0
  3 15  1  0
 15 16  2  0
 16 17  1  0
 17 18  1  0
 17 19  2  0
 19 20  1  0
 20 22  1  0
 22 23  2  0
 23 24  1  0
 24 25  2  0
 25 26  1  0
 20 21  2  0
  2  5  1  0
  5  6  1  0
  6  7  2  0
  7  8  1  0
  8  9  2  0
  9 10  1  0
 10 11  1  0
 11 12  2  0
 12 13  1  0
 21 15  1  0
 13  5  2  0
 26 22  1  0
 12  8  1  0
  3  4  1  0
 26 27  1  0
 10 14  1  0
M  END
> <minimizedAffinity>
-6.97311

> <CNNscore>
0.3897033036

> <CNNaffinity>
4.9590411186

> <CNN_VS>
1.9325547218

> <CNNaffinity_variance>
0.1030696258

$$$$



 27 30  0  0  0  0  0  0  0  0999 V2000
   -3.8299   52.0924    7.8926 O   0  0  0  0  0  0  0  0  0  0  0  0
   -5.0363   51.9253    7.7568 C   0  0  0  0  0  0  0  0  0  0  0  0
   -5.9678   51.7781    8.7706 N   0  0  0  0  0  0  0  0  0  0  0  0
   -6.9099   51.7090    8.4934 H   0  0  0  0  0  0  0  0  0  0  0  0
   -5.6036   51.9143    6.3761 C   0  0  0  0  0  0  0  0  0  0  0  0
   -6.3234   53.0879    5.9603 C   0  0  0  0  0  0  0  0  0  0  0  0
   -6.9202   53.2333    4.6862 C   0  0  0  0  0  0  0  0  0  0  0  0
   -6.7349   52.1225    3.8486 C   0  0  0  0  0  0  0  0  0  0  0  0
   -7.1512   51.9076    2.5908 N   0  0  0  0  0  0  0  0  0  0  0  0
   -6.6780   50.6875    2.2718 N   0  0  0  0  0  0  0  0  0  0  0  0
   -5.9729   50.0767    3.2704 C   0  0  0  0  0  0  0  0  0  0  0  0
   -5.9930   50.9720    4.3023 C   0  0  0  0  0  0  0  0  0  0  0  0
   -5.3930   50.7884    5.5427 C   0  0  0  0  0  0  0  0  0  0  0  0
   -6.8276   50.2706    1.3926 H   0  0  0  0  0  0  0  0  0  0  0  0
   -5.7148   51.7163   10.1585 C   0  0  0  0  0  0  0  0  0  0  0  0
   -5.1872   50.5266   10.6628 C   0  0  0  0  0  0  0  0  0  0  0  0
   -4.9157   50.4118   12.0212 C   0  0  0  0  0  0  0  0  0  0  0  0
   -4.4105   49.2643   12.4922 F   0  0  0  0  0  0  0  0  0  0  0  0
   -5.1589   51.4622   12.8966 C   0  0  0  0  0  0  0  0  0  0  0  0
   -5.6858   52.6661   12.4155 C   0  0  0  0  0  0  0  0  0  0  0  0
   -5.9535   52.7794   11.0392 C   0  0  0  0  0  0  0  0  0  0  0  0
   -5.9382   53.7624   13.3482 C   0  0  0  0  0  0  0  0  0  0  0  0
   -6.1924   55.0239   13.0493 N   0  0  0  0  0  0  0  0  0  0  0  0
   -6.3576   55.6869   14.2401 N   0  0  0  0  0  0  0  0  0  0  0  0
   -6.2077   54.8631   15.2652 N   0  0  0  0  0  0  0  0  0  0  0  0
   -5.9455   53.6702   14.7159 N   0  0  0  0  0  0  0  0  0  0  0  0
   -5.7810   52.8427   15.2233 H   0  0  0  0  0  0  0  0  0  0  0  0
  1  2  2  0
  2  3  1  0
  3 15  1  0
 15 16  2  0
 16 17  1  0
 17 18  1  0
 17 19  2  0
 19 20  1  0
 20 22  1  0
 22 23  2  0
 23 24  1  0
 24 25  2  0
 25 26  1  0
 20 21  2  0
  2  5  1  0
  5  6  1  0
  6  7  2  0
  7  8  1  0
  8  9  2  0
  9 10  1  0
 10 11  1  0
 11 12  2  0
 12 13  1  0
 21 15  1  0
 13  5  2  0
 26 22  1  0
 12  8  1  0
  3  4  1  0
 26 27  1  0
 10 14  1  0
M  END
> <minimizedAffinity>
-6.01523

> <CNNscore>
0.3893231750

> <CNNaffinity>
5.3723754883

> <CNN_VS>
2.0915901661

> <CNNaffinity_variance>
0.4262853861

$$$$



 27 30  0  0  0  0  0  0  0  0999 V2000
  -10.1934   54.5205    8.4675 O   0  0  0  0  0  0  0  0  0  0  0  0
   -9.4942   55.4774    8.1560 C   0  0  0  0  0  0  0  0  0  0  0  0
   -9.4599   56.7121    8.7816 N   0  0  0  0  0  0  0  0  0  0  0  0
   -8.7984   57.3573    8.4419 H   0  0  0  0  0  0  0  0  0  0  0  0
   -8.5402   55.3229    7.0183 C   0  0  0  0  0  0  0  0  0  0  0  0
   -7.1401   55.2856    7.3453 C   0  0  0  0  0  0  0  0  0  0  0  0
   -6.1123   55.1449    6.3839 C   0  0  0  0  0  0  0  0  0  0  0  0
   -6.5856   55.0308    5.0675 C   0  0  0  0  0  0  0  0  0  0  0  0
   -5.9129   54.8845    3.9152 N   0  0  0  0  0  0  0  0  0  0  0  0
   -6.8643   54.8098    2.9646 N   0  0  0  0  0  0  0  0  0  0  0  0
   -8.1428   54.9118    3.4363 C   0  0  0  0  0  0  0  0  0  0  0  0
   -8.0000   55.0587    4.7871 C   0  0  0  0  0  0  0  0  0  0  0  0
   -9.0400   55.1959    5.6991 C   0  0  0  0  0  0  0  0  0  0  0  0
   -6.6559   54.6917    2.0097 H   0  0  0  0  0  0  0  0  0  0  0  0
  -10.2695   57.1476    9.8535 C   0  0  0  0  0  0  0  0  0  0  0  0
   -9.9378   56.6984   11.1327 C   0  0  0  0  0  0  0  0  0  0  0  0
  -10.6988   57.0987   12.2249 C   0  0  0  0  0  0  0  0  0  0  0  0
  -10.3702   56.6596   13.4467 F   0  0  0  0  0  0  0  0  0  0  0  0
  -11.7912   57.9427   12.0723 C   0  0  0  0  0  0  0  0  0  0  0  0
  -12.1432   58.4084   10.8005 C   0  0  0  0  0  0  0  0  0  0  0  0
  -11.3666   58.0052    9.6991 C   0  0  0  0  0  0  0  0  0  0  0  0
  -13.2960   59.2946   10.6545 C   0  0  0  0  0  0  0  0  0  0  0  0
  -13.6780   59.9365    9.5649 N   0  0  0  0  0  0  0  0  0  0  0  0
  -14.8039   60.6476    9.8992 N   0  0  0  0  0  0  0  0  0  0  0  0
  -15.1216   60.4606   11.1704 N   0  0  0  0  0  0  0  0  0  0  0  0
  -14.1878   59.6244   11.6419 N   0  0  0  0  0  0  0  0  0  0  0  0
  -14.1475   59.2930   12.5680 H   0  0  0  0  0  0  0  0  0  0  0  0
  1  2  2  0
  2  3  1  0
  3 15  1  0
 15 16  2  0
 16 17  1  0
 17 18  1  0
 17 19  2  0
 19 20  1  0
 20 22  1  0
 22 23  2  0
 23 24  1  0
 24 25  2  0
 25 26  1  0
 20 21  2  0
  2  5  1  0
  5  6  1  0
  6  7  2  0
  7  8  1  0
  8  9  2  0
  9 10  1  0
 10 11  1  0
 11 12  2  0
 12 13  1  0
 21 15  1  0
 13  5  2  0
 26 22  1  0
 12  8  1  0
  3  4  1  0
 26 27  1  0
 10 14  1  0
M  END
> <minimizedAffinity>
-6.56173

> <CNNscore>
0.3756261170

> <CNNaffinity>
4.9658236504

> <CNN_VS>
1.8652930260

> <CNNaffinity_variance>
0.0840771422

$$$$



 27 30  0  0  0  0  0  0  0  0999 V2000
   -7.5366   51.3710    9.4582 O   0  0  0  0  0  0  0  0  0  0  0  0
   -6.5689   52.0798    9.7088 C   0  0  0  0  0  0  0  0  0  0  0  0
   -5.6514   52.5752    8.7977 N   0  0  0  0  0  0  0  0  0  0  0  0
   -4.9612   53.1793    9.1553 H   0  0  0  0  0  0  0  0  0  0  0  0
   -6.3453   52.5078   11.1213 C   0  0  0  0  0  0  0  0  0  0  0  0
   -5.8135   51.5211   12.0224 C   0  0  0  0  0  0  0  0  0  0  0  0
   -5.5463   51.7682   13.3892 C   0  0  0  0  0  0  0  0  0  0  0  0
   -5.8376   53.0811   13.7905 C   0  0  0  0  0  0  0  0  0  0  0  0
   -5.7119   53.6675   14.9914 N   0  0  0  0  0  0  0  0  0  0  0  0
   -6.1187   54.9375   14.8023 N   0  0  0  0  0  0  0  0  0  0  0  0
   -6.5209   55.2173   13.5266 C   0  0  0  0  0  0  0  0  0  0  0  0
   -6.3562   54.0425   12.8489 C   0  0  0  0  0  0  0  0  0  0  0  0
   -6.6334   53.8414   11.5016 C   0  0  0  0  0  0  0  0  0  0  0  0
   -6.1258   55.6082   15.5229 H   0  0  0  0  0  0  0  0  0  0  0  0
   -5.5970   52.3091    7.4120 C   0  0  0  0  0  0  0  0  0  0  0  0
   -4.7600   51.2753    6.9890 C   0  0  0  0  0  0  0  0  0  0  0  0
   -4.6705   50.9680    5.6362 C   0  0  0  0  0  0  0  0  0  0  0  0
   -3.8629   49.9743    5.2437 F   0  0  0  0  0  0  0  0  0  0  0  0
   -5.4007   51.6714    4.6871 C   0  0  0  0  0  0  0  0  0  0  0  0
   -6.2484   52.7110    5.0858 C   0  0  0  0  0  0  0  0  0  0  0  0
   -6.3399   53.0143    6.4563 C   0  0  0  0  0  0  0  0  0  0  0  0
   -7.0094   53.4436    4.0761 C   0  0  0  0  0  0  0  0  0  0  0  0
   -8.0591   54.2210    4.2742 N   0  0  0  0  0  0  0  0  0  0  0  0
   -8.4416   54.6904    3.0420 N   0  0  0  0  0  0  0  0  0  0  0  0
   -7.6536   54.2172    2.0897 N   0  0  0  0  0  0  0  0  0  0  0  0
   -6.7663   53.4424    2.7270 N   0  0  0  0  0  0  0  0  0  0  0  0
   -6.0410   52.9420    2.2880 H   0  0  0  0  0  0  0  0  0  0  0  0
  1  2  2  0
  2  3  1  0
  3 15  1  0
 15 16  2  0
 16 17  1  0
 17 18  1  0
 17 19  2  0
 19 20  1  0
 20 22  1  0
 22 23  2  0
 23 24  1  0
 24 25  2  0
 25 26  1  0
 20 21  2  0
  2  5  1  0
  5  6  1  0
  6  7  2  0
  7  8  1  0
  8  9  2  0
  9 10  1  0
 10 11  1  0
 11 12  2  0
 12 13  1  0
 21 15  1  0
 13  5  2  0
 26 22  1  0
 12  8  1  0
  3  4  1  0
 26 27  1  0
 10 14  1  0
M  END
> <minimizedAffinity>
-6.73405

> <CNNscore>
0.3407548368

> <CNNaffinity>
5.0743174553

> <CNN_VS>
1.7290982008

> <CNNaffinity_variance>
0.4156006277

$$$$



 27 30  0  0  0  0  0  0  0  0999 V2000
  -11.3170   54.8821    8.8071 O   0  0  0  0  0  0  0  0  0  0  0  0
  -10.3873   54.6081    8.0573 C   0  0  0  0  0  0  0  0  0  0  0  0
   -9.2409   53.9054    8.3876 N   0  0  0  0  0  0  0  0  0  0  0  0
   -8.6136   53.7195    7.6520 H   0  0  0  0  0  0  0  0  0  0  0  0
  -10.4807   55.0203    6.6256 C   0  0  0  0  0  0  0  0  0  0  0  0
   -9.2421   55.2809    5.9427 C   0  0  0  0  0  0  0  0  0  0  0  0
   -9.1607   55.6800    4.5882 C   0  0  0  0  0  0  0  0  0  0  0  0
  -10.4100   55.7884    3.9580 C   0  0  0  0  0  0  0  0  0  0  0  0
  -10.7171   56.1356    2.6982 N   0  0  0  0  0  0  0  0  0  0  0  0
  -12.0601   56.0554    2.6333 N   0  0  0  0  0  0  0  0  0  0  0  0
  -12.6603   55.6797    3.8020 C   0  0  0  0  0  0  0  0  0  0  0  0
  -11.6267   55.5030    4.6778 C   0  0  0  0  0  0  0  0  0  0  0  0
  -11.7510   55.1102    6.0054 C   0  0  0  0  0  0  0  0  0  0  0  0
  -12.5669   56.2510    1.8123 H   0  0  0  0  0  0  0  0  0  0  0  0
   -8.8727   53.4262    9.6638 C   0  0  0  0  0  0  0  0  0  0  0  0
   -9.1930   52.1026    9.9698 C   0  0  0  0  0  0  0  0  0  0  0  0
   -8.8510   51.5777   11.2108 C   0  0  0  0  0  0  0  0  0  0  0  0
   -9.1651   50.3064   11.4918 F   0  0  0  0  0  0  0  0  0  0  0  0
   -8.1921   52.3458   12.1619 C   0  0  0  0  0  0  0  0  0  0  0  0
   -7.8581   53.6749   11.8788 C   0  0  0  0  0  0  0  0  0  0  0  0
   -8.2012   54.1997   10.6196 C   0  0  0  0  0  0  0  0  0  0  0  0
   -7.1664   54.4719   12.8896 C   0  0  0  0  0  0  0  0  0  0  0  0
   -7.6345   54.8544   14.0642 N   0  0  0  0  0  0  0  0  0  0  0  0
   -6.6400   55.5836   14.6679 N   0  0  0  0  0  0  0  0  0  0  0  0
   -5.5718   55.6615   13.8902 N   0  0  0  0  0  0  0  0  0  0  0  0
   -5.8955   54.9755   12.7865 N   0  0  0  0  0  0  0  0  0  0  0  0
   -5.3037   54.8504   12.0098 H   0  0  0  0  0  0  0  0  0  0  0  0
  1  2  2  0
  2  3  1  0
  3 15  1  0
 15 16  2  0
 16 17  1  0
 17 18  1  0
 17 19  2  0
 19 20  1  0
 20 22  1  0
 22 23  2  0
 23 24  1  0
 24 25  2  0
 25 26  1  0
 20 21  2  0
  2  5  1  0
  5  6  1  0
  6  7  2  0
  7  8  1  0
  8  9  2  0
  9 10  1  0
 10 11  1  0
 11 12  2  0
 12 13  1  0
 21 15  1  0
 13  5  2  0
 26 22  1  0
 12  8  1  0
  3  4  1  0
 26 27  1  0
 10 14  1  0
M  END
> <minimizedAffinity>
-6.33934

> <CNNscore>
0.3298730254

> <CNNaffinity>
4.7569084167

> <CNN_VS>
1.5691757202

> <CNNaffinity_variance>
0.5342358351

$$$$



 27 30  0  0  0  0  0  0  0  0999 V2000
  -12.4577   54.4438    8.0033 O   0  0  0  0  0  0  0  0  0  0  0  0
  -11.8866   55.3751    7.4483 C   0  0  0  0  0  0  0  0  0  0  0  0
  -11.1886   56.3996    8.0649 N   0  0  0  0  0  0  0  0  0  0  0  0
  -10.7375   57.0421    7.4707 H   0  0  0  0  0  0  0  0  0  0  0  0
  -11.8857   55.4235    5.9563 C   0  0  0  0  0  0  0  0  0  0  0  0
  -10.6099   55.3034    5.3034 C   0  0  0  0  0  0  0  0  0  0  0  0
  -10.4401   55.3308    3.8995 C   0  0  0  0  0  0  0  0  0  0  0  0
  -11.6428   55.4747    3.1905 C   0  0  0  0  0  0  0  0  0  0  0  0
  -11.8662   55.5382    1.8685 N   0  0  0  0  0  0  0  0  0  0  0  0
  -13.2022   55.6591    1.7473 N   0  0  0  0  0  0  0  0  0  0  0  0
  -13.8763   55.6899    2.9356 C   0  0  0  0  0  0  0  0  0  0  0  0
  -12.9018   55.5769    3.8865 C   0  0  0  0  0  0  0  0  0  0  0  0
  -13.1123   55.5556    5.2604 C   0  0  0  0  0  0  0  0  0  0  0  0
  -13.6553   55.7201    0.8754 H   0  0  0  0  0  0  0  0  0  0  0  0
  -11.0526   56.6243    9.4523 C   0  0  0  0  0  0  0  0  0  0  0  0
  -12.0450   57.3777   10.0813 C   0  0  0  0  0  0  0  0  0  0  0  0
  -11.9631   57.6267   11.4464 C   0  0  0  0  0  0  0  0  0  0  0  0
  -12.9216   58.3519   12.0373 F   0  0  0  0  0  0  0  0  0  0  0  0
  -10.9078   57.1391   12.2064 C   0  0  0  0  0  0  0  0  0  0  0  0
   -9.9012   56.3794   11.5998 C   0  0  0  0  0  0  0  0  0  0  0  0
   -9.9916   56.1253   10.2192 C   0  0  0  0  0  0  0  0  0  0  0  0
   -8.7959   55.8742   12.4113 C   0  0  0  0  0  0  0  0  0  0  0  0
   -8.8412   55.4929   13.6754 N   0  0  0  0  0  0  0  0  0  0  0  0
   -7.5705   55.0999   14.0156 N   0  0  0  0  0  0  0  0  0  0  0  0
   -6.7434   55.2338   12.9910 N   0  0  0  0  0  0  0  0  0  0  0  0
   -7.4992   55.7155   11.9959 N   0  0  0  0  0  0  0  0  0  0  0  0
   -7.1697   55.9261   11.0924 H   0  0  0  0  0  0  0  0  0  0  0  0
  1  2  2  0
  2  3  1  0
  3 15  1  0
 15 16  2  0
 16 17  1  0
 17 18  1  0
 17 19  2  0
 19 20  1  0
 20 22  1  0
 22 23  2  0
 23 24  1  0
 24 25  2  0
 25 26  1  0
 20 21  2  0
  2  5  1  0
  5  6  1  0
  6  7  2  0
  7  8  1  0
  8  9  2  0
  9 10  1  0
 10 11  1  0
 11 12  2  0
 12 13  1  0
 21 15  1  0
 13  5  2  0
 26 22  1  0
 12  8  1  0
  3  4  1  0
 26 27  1  0
 10 14  1  0
M  END
> <minimizedAffinity>
-6.55279

> <CNNscore>
0.3296458721

> <CNNaffinity>
4.5965671539

> <CNN_VS>
1.5152393579

> <CNNaffinity_variance>
0.6587831378

$$$$



 27 30  0  0  0  0  0  0  0  0999 V2000
   -9.0270   50.4234   11.0049 O   0  0  0  0  0  0  0  0  0  0  0  0
   -8.1852   49.6732   10.5249 C   0  0  0  0  0  0  0  0  0  0  0  0
   -6.8461   49.6073   10.8707 N   0  0  0  0  0  0  0  0  0  0  0  0
   -6.3133   48.9074   10.4286 H   0  0  0  0  0  0  0  0  0  0  0  0
   -8.6158   48.6882    9.4892 C   0  0  0  0  0  0  0  0  0  0  0  0
   -8.8625   47.3432    9.9349 C   0  0  0  0  0  0  0  0  0  0  0  0
   -9.2748   46.2952    9.0792 C   0  0  0  0  0  0  0  0  0  0  0  0
   -9.4360   46.6913    7.7424 C   0  0  0  0  0  0  0  0  0  0  0  0
   -9.8112   45.9799    6.6678 N   0  0  0  0  0  0  0  0  0  0  0  0
   -9.8144   46.8627    5.6505 N   0  0  0  0  0  0  0  0  0  0  0  0
   -9.4456   48.1307    6.0023 C   0  0  0  0  0  0  0  0  0  0  0  0
   -9.1914   48.0552    7.3426 C   0  0  0  0  0  0  0  0  0  0  0  0
   -8.7854   49.1125    8.1485 C   0  0  0  0  0  0  0  0  0  0  0  0
  -10.0617   46.6151    4.7303 H   0  0  0  0  0  0  0  0  0  0  0  0
   -6.1607   50.4338   11.7878 C   0  0  0  0  0  0  0  0  0  0  0  0
   -4.8907   50.0240   12.1968 C   0  0  0  0  0  0  0  0  0  0  0  0
   -4.1697   50.8013   13.0959 C   0  0  0  0  0  0  0  0  0  0  0  0
   -2.9526   50.3961   13.4808 F   0  0  0  0  0  0  0  0  0  0  0  0
   -4.6875   51.9868   13.6013 C   0  0  0  0  0  0  0  0  0  0  0  0
   -5.9578   52.4204   13.2054 C   0  0  0  0  0  0  0  0  0  0  0  0
   -6.6811   51.6333   12.2910 C   0  0  0  0  0  0  0  0  0  0  0  0
   -6.4908   53.6688   13.7465 C   0  0  0  0  0  0  0  0  0  0  0  0
   -7.6586   54.2237   13.4752 N   0  0  0  0  0  0  0  0  0  0  0  0
   -7.7254   55.3829   14.2079 N   0  0  0  0  0  0  0  0  0  0  0  0
   -6.6240   55.5559   14.9213 N   0  0  0  0  0  0  0  0  0  0  0  0
   -5.8560   54.4966   14.6359 N   0  0  0  0  0  0  0  0  0  0  0  0
   -4.9607   54.3349   15.0123 H   0  0  0  0  0  0  0  0  0  0  0  0
  1  2  2  0
  2  3  1  0
  3 15  1  0
 15 16  2  0
 16 17  1  0
 17 18  1  0
 17 19  2  0
 19 20  1  0
 20 22  1  0
 22 23  2  0
 23 24  1  0
 24 25  2  0
 25 26  1  0
 20 21  2  0
  2  5  1  0
  5  6  1  0
  6  7  2  0
  7  8  1  0
  8  9  2  0
  9 10  1  0
 10 11  1  0
 11 12  2  0
 12 13  1  0
 21 15  1  0
 13  5  2  0
 26 22  1  0
 12  8  1  0
  3  4  1  0
 26 27  1  0
 10 14  1  0
M  END
> <minimizedAffinity>
-6.52779

> <CNNscore>
0.3170141876

> <CNNaffinity>
5.3281016350

> <CNN_VS>
1.6890838146

> <CNNaffinity_variance>
0.1511406451

$$$$



 27 30  0  0  0  0  0  0  0  0999 V2000
   -6.3273   55.4662    7.8982 O   0  0  0  0  0  0  0  0  0  0  0  0
   -7.4362   55.3848    7.3832 C   0  0  0  0  0  0  0  0  0  0  0  0
   -8.6547   55.5608    8.0167 N   0  0  0  0  0  0  0  0  0  0  0  0
   -9.4557   55.5175    7.4459 H   0  0  0  0  0  0  0  0  0  0  0  0
   -7.5237   55.1099    5.9185 C   0  0  0  0  0  0  0  0  0  0  0  0
   -6.5757   54.1745    5.3756 C   0  0  0  0  0  0  0  0  0  0  0  0
   -6.5270   53.8084    4.0103 C   0  0  0  0  0  0  0  0  0  0  0  0
   -7.5056   54.4367    3.2245 C   0  0  0  0  0  0  0  0  0  0  0  0
   -7.7588   54.3330    1.9104 N   0  0  0  0  0  0  0  0  0  0  0  0
   -8.8160   55.1395    1.6956 N   0  0  0  0  0  0  0  0  0  0  0  0
   -9.2699   55.7846    2.8115 C   0  0  0  0  0  0  0  0  0  0  0  0
   -8.4460   55.3574    3.8142 C   0  0  0  0  0  0  0  0  0  0  0  0
   -8.5276   55.7446    5.1468 C   0  0  0  0  0  0  0  0  0  0  0  0
   -9.2274   55.2546    0.8086 H   0  0  0  0  0  0  0  0  0  0  0  0
   -8.8747   55.7958    9.3916 C   0  0  0  0  0  0  0  0  0  0  0  0
  -10.0783   56.4020    9.7550 C   0  0  0  0  0  0  0  0  0  0  0  0
  -10.3486   56.6537   11.0952 C   0  0  0  0  0  0  0  0  0  0  0  0
  -11.5069   57.2367   11.4301 F   0  0  0  0  0  0  0  0  0  0  0  0
   -9.4413   56.3132   12.0901 C   0  0  0  0  0  0  0  0  0  0  0  0
   -8.2284   55.7028   11.7519 C   0  0  0  0  0  0  0  0  0  0  0  0
   -7.9620   55.4449   10.3949 C   0  0  0  0  0  0  0  0  0  0  0  0
   -7.2825   55.3516   12.8089 C   0  0  0  0  0  0  0  0  0  0  0  0
   -7.5129   55.3183   14.1093 N   0  0  0  0  0  0  0  0  0  0  0  0
   -6.3375   54.9403   14.7097 N   0  0  0  0  0  0  0  0  0  0  0  0
   -5.3879   54.7435   13.8088 N   0  0  0  0  0  0  0  0  0  0  0  0
   -5.9697   54.9996   12.6301 N   0  0  0  0  0  0  0  0  0  0  0  0
   -5.5179   54.9431   11.7572 H   0  0  0  0  0  0  0  0  0  0  0  0
  1  2  2  0
  2  3  1  0
  3 15  1  0
 15 16  2  0
 16 17  1  0
 17 18  1  0
 17 19  2  0
 19 20  1  0
 20 22  1  0
 22 23  2  0
 23 24  1  0
 24 25  2  0
 25 26  1  0
 20 21  2  0
  2  5  1  0
  5  6  1  0
  6  7  2  0
  7  8  1  0
  8  9  2  0
  9 10  1  0
 10 11  1  0
 11 12  2  0
 12 13  1  0
 21 15  1  0
 13  5  2  0
 26 22  1  0
 12  8  1  0
  3  4  1  0
 26 27  1  0
 10 14  1  0
M  END
> <minimizedAffinity>
-8.60011

> <CNNscore>
0.3074540198

> <CNNaffinity>
4.5982236862

> <CNN_VS>
1.4137423038

> <CNNaffinity_variance>
0.9948003292

$$$$



 27 30  0  0  0  0  0  0  0  0999 V2000
   -8.7774   55.3999   13.5510 O   0  0  0  0  0  0  0  0  0  0  0  0
   -8.8188   55.5310   12.3333 C   0  0  0  0  0  0  0  0  0  0  0  0
   -8.1461   54.7631   11.3978 N   0  0  0  0  0  0  0  0  0  0  0  0
   -8.3322   54.9625   10.4518 H   0  0  0  0  0  0  0  0  0  0  0  0
   -9.7038   56.5873   11.7596 C   0  0  0  0  0  0  0  0  0  0  0  0
   -9.2896   57.1758   10.5143 C   0  0  0  0  0  0  0  0  0  0  0  0
  -10.0160   58.1869    9.8432 C   0  0  0  0  0  0  0  0  0  0  0  0
  -11.1978   58.5612   10.5013 C   0  0  0  0  0  0  0  0  0  0  0  0
  -12.1246   59.4721   10.1654 N   0  0  0  0  0  0  0  0  0  0  0  0
  -13.0491   59.4038   11.1425 N   0  0  0  0  0  0  0  0  0  0  0  0
  -12.7696   58.4921   12.1214 C   0  0  0  0  0  0  0  0  0  0  0  0
  -11.5819   57.9336   11.7416 C   0  0  0  0  0  0  0  0  0  0  0  0
  -10.8987   56.9401   12.4334 C   0  0  0  0  0  0  0  0  0  0  0  0
  -13.8587   59.9639   11.1509 H   0  0  0  0  0  0  0  0  0  0  0  0
   -7.2227   53.7254   11.6516 C   0  0  0  0  0  0  0  0  0  0  0  0
   -7.7001   52.4148   11.6036 C   0  0  0  0  0  0  0  0  0  0  0  0
   -6.8337   51.3542   11.8421 C   0  0  0  0  0  0  0  0  0  0  0  0
   -7.3051   50.1015   11.7938 F   0  0  0  0  0  0  0  0  0  0  0  0
   -5.4921   51.5696   12.1295 C   0  0  0  0  0  0  0  0  0  0  0  0
   -4.9885   52.8742   12.1817 C   0  0  0  0  0  0  0  0  0  0  0  0
   -5.8679   53.9438   11.9339 C   0  0  0  0  0  0  0  0  0  0  0  0
   -3.5752   53.0861   12.4869 C   0  0  0  0  0  0  0  0  0  0  0  0
   -2.5644   53.0835   11.6362 N   0  0  0  0  0  0  0  0  0  0  0  0
   -1.4289   53.3203   12.3707 N   0  0  0  0  0  0  0  0  0  0  0  0
   -1.7172   53.4652   13.6543 N   0  0  0  0  0  0  0  0  0  0  0  0
   -3.0462   53.3184   13.7300 N   0  0  0  0  0  0  0  0  0  0  0  0
   -3.5700   53.3702   14.5620 H   0  0  0  0  0  0  0  0  0  0  0  0
  1  2  2  0
  2  3  1  0
  3 15  1  0
 15 16  2  0
 16 17  1  0
 17 18  1  0
 17 19  2  0
 19 20  1  0
 20 22  1  0
 22 23  2  0
 23 24  1  0
 24 25  2  0
 25 26  1  0
 20 21  2  0
  2  5  1  0
  5  6  1  0
  6  7  2  0
  7  8  1  0
  8  9  2  0
  9 10  1  0
 10 11  1  0
 11 12  2  0
 12 13  1  0
 21 15  1  0
 13  5  2  0
 26 22  1  0
 12  8  1  0
  3  4  1  0
 26 27  1  0
 10 14  1  0
M  END
> <minimizedAffinity>
-8.73125

> <CNNscore>
0.2997505367

> <CNNaffinity>
4.5048642159

> <CNN_VS>
1.3503354788

> <CNNaffinity_variance>
1.2012000084

$$$$
