


 30 31  0  0  0  0  0  0  0  0999 V2000
   -7.7845   16.0877   19.8521 C   0  0  0  0  0  0  0  0  0  0  0  0
   -8.9400   15.3379   19.1895 C   0  0  0  0  0  0  0  0  0  0  0  0
  -10.0575   15.4329   20.2015 C   0  0  0  0  0  0  0  0  0  0  0  0
  -11.1002   14.4958   19.9575 O   0  0  0  0  0  0  0  0  0  0  0  0
  -11.6830   14.0225   21.1812 C   0  0  0  0  0  0  0  0  0  0  0  0
  -10.6544   13.1098   21.8478 C   0  0  0  0  0  0  0  0  0  0  0  0
  -10.4589   11.9770   20.9688 O   0  0  0  0  0  0  0  0  0  0  0  0
   -9.2891   13.8271   22.0858 C   0  0  0  0  0  0  0  0  0  0  0  0
   -9.3079   15.2739   21.5127 C   0  0  0  0  0  0  0  0  0  0  0  0
   -7.9897   15.8148   21.3030 O   0  0  0  0  0  0  0  0  0  0  0  0
  -10.1299   12.2868   20.1105 H   0  0  0  0  0  0  0  0  0  0  0  0
   -8.1622   12.9938   21.5918 N   0  0  0  0  0  0  0  0  0  0  0  0
   -8.4801   12.3551   20.3160 C   0  0  0  0  0  0  0  0  0  0  0  0
   -7.9587   12.2706   22.2818 H   0  0  0  0  0  0  0  0  0  0  0  0
   -7.7954   17.6569   19.8032 C   0  0  0  0  0  0  0  0  0  0  0  0
   -7.6973   18.6319   21.0284 C   0  0  0  0  0  0  0  0  0  0  0  0
   -6.8642   18.0751   22.1863 C   0  0  0  0  0  0  0  0  0  0  0  0
   -7.0705   19.9992   20.6531 C   0  0  0  0  0  0  0  0  0  0  0  0
   -9.1384   19.0066   21.5482 C   0  0  0  0  0  0  0  0  0  0  0  0
  -11.4241   17.9291   22.0706 C   0  0  0  0  0  0  0  0  0  0  0  0
  -10.3775   18.2652   21.0296 C   0  0  0  0  0  0  0  0  0  0  0  0
   -6.4028   15.4054   19.6257 C   0  0  0  0  0  0  0  0  0  0  0  0
   -5.8496   15.0003   18.2572 C   0  0  0  0  0  0  0  0  0  0  0  0
   -6.2373   13.6223   17.8985 N   0  0  0  0  0  0  0  0  0  0  0  0
   -5.7858   12.9654   18.5349 H   0  0  0  0  0  0  0  0  0  0  0  0
   -5.9441   13.4247   16.9417 H   0  0  0  0  0  0  0  0  0  0  0  0
   -4.3559   15.2440   18.0171 C   0  0  0  0  0  0  0  0  0  0  0  0
   -3.5396   14.4916   17.5123 O   0  0  0  0  0  0  0  0  0  0  0  0
   -3.9446   16.4332   18.5285 O   0  0  0  0  0  0  0  0  0  0  0  0
   -4.5665   17.0160   18.9178 H   0  0  0  0  0  0  0  0  0  0  0  0
 20 21  1  0
 21 19  1  0
 19 16  1  0
 16 17  1  0
 16 18  1  0
 16 15  1  0
  1 15  1  0
  1 22  1  0
 22 23  1  0
 23 24  1  0
 23 27  1  0
 27 28  2  0
 27 29  1  0
  1  2  1  0
  3  2  1  0
  3  4  1  0
  4  5  1  0
  5  6  1  0
  6  7  1  0
  6  8  1  0
  8 12  1  0
 12 13  1  0
  8  9  1  0
  9 10  1  0
 10  1  1  0
  9  3  1  0
 24 25  1  0
 24 26  1  0
 29 30  1  0
  7 11  1  0
 12 14  1  0
M  END
> <minimizedAffinity>
-3.29002

> <CNNscore>
0.8060960174

> <CNNaffinity>
7.2698760033

> <CNN_VS>
5.8602180481

> <CNNaffinity_variance>
0.3985319138

$$$$



 30 31  0  0  0  0  0  0  0  0999 V2000
   -7.1032   15.2396   20.1194 C   0  0  0  0  0  0  0  0  0  0  0  0
   -8.3880   15.9226   19.6511 C   0  0  0  0  0  0  0  0  0  0  0  0
   -9.2505   15.9549   20.8908 C   0  0  0  0  0  0  0  0  0  0  0  0
  -10.6201   16.2087   20.6003 O   0  0  0  0  0  0  0  0  0  0  0  0
  -11.4907   15.5072   21.5008 C   0  0  0  0  0  0  0  0  0  0  0  0
  -11.4120   14.0239   21.1412 C   0  0  0  0  0  0  0  0  0  0  0  0
  -11.9361   13.8838   19.7996 O   0  0  0  0  0  0  0  0  0  0  0  0
   -9.9511   13.4772   21.1902 C   0  0  0  0  0  0  0  0  0  0  0  0
   -8.9387   14.6107   21.5251 C   0  0  0  0  0  0  0  0  0  0  0  0
   -7.5849   14.2846   21.1575 O   0  0  0  0  0  0  0  0  0  0  0  0
  -11.3990   14.4093   19.1862 H   0  0  0  0  0  0  0  0  0  0  0  0
   -9.6285   12.7224   19.9515 N   0  0  0  0  0  0  0  0  0  0  0  0
   -8.8680   11.5079   20.2405 C   0  0  0  0  0  0  0  0  0  0  0  0
   -9.0766   13.3190   19.3352 H   0  0  0  0  0  0  0  0  0  0  0  0
   -6.0565   16.0973   20.9154 C   0  0  0  0  0  0  0  0  0  0  0  0
   -6.3399   16.9832   22.1790 C   0  0  0  0  0  0  0  0  0  0  0  0
   -7.1625   18.2378   21.8726 C   0  0  0  0  0  0  0  0  0  0  0  0
   -7.1059   16.2143   23.2859 C   0  0  0  0  0  0  0  0  0  0  0  0
   -4.9860   17.3969   22.8738 C   0  0  0  0  0  0  0  0  0  0  0  0
   -3.5702   17.5445   25.0260 C   0  0  0  0  0  0  0  0  0  0  0  0
   -4.5487   16.7451   24.1921 C   0  0  0  0  0  0  0  0  0  0  0  0
   -6.5192   14.2490   19.0689 C   0  0  0  0  0  0  0  0  0  0  0  0
   -5.7512   14.6697   17.8135 C   0  0  0  0  0  0  0  0  0  0  0  0
   -5.7957   13.6256   16.7715 N   0  0  0  0  0  0  0  0  0  0  0  0
   -5.2840   12.8035   17.0919 H   0  0  0  0  0  0  0  0  0  0  0  0
   -5.3678   13.9804   15.9162 H   0  0  0  0  0  0  0  0  0  0  0  0
   -4.3272   15.1968   18.0201 C   0  0  0  0  0  0  0  0  0  0  0  0
   -3.9771   16.3188   18.3455 O   0  0  0  0  0  0  0  0  0  0  0  0
   -3.3886   14.2669   17.7052 O   0  0  0  0  0  0  0  0  0  0  0  0
   -3.6507   13.4029   17.4543 H   0  0  0  0  0  0  0  0  0  0  0  0
 20 21  1  0
 21 19  1  0
 19 16  1  0
 16 17  1  0
 16 18  1  0
 16 15  1  0
  1 15  1  0
  1 22  1  0
 22 23  1  0
 23 24  1  0
 23 27  1  0
 27 28  2  0
 27 29  1  0
  1  2  1  0
  3  2  1  0
  3  4  1  0
  4  5  1  0
  5  6  1  0
  6  7  1  0
  6  8  1  0
  8 12  1  0
 12 13  1  0
  8  9  1  0
  9 10  1  0
 10  1  1  0
  9  3  1  0
 24 25  1  0
 24 26  1  0
 29 30  1  0
  7 11  1  0
 12 14  1  0
M  END
> <minimizedAffinity>
-3.71806

> <CNNscore>
0.7415881753

> <CNNaffinity>
7.4607968330

> <CNN_VS>
5.5328388214

> <CNNaffinity_variance>
0.4260227680

$$$$



 30 31  0  0  0  0  0  0  0  0999 V2000
   -7.4800   15.4319   21.3273 C   0  0  0  0  0  0  0  0  0  0  0  0
   -8.7666   16.1585   20.9357 C   0  0  0  0  0  0  0  0  0  0  0  0
   -9.7582   15.7276   21.9906 C   0  0  0  0  0  0  0  0  0  0  0  0
  -11.1062   15.9861   21.6153 O   0  0  0  0  0  0  0  0  0  0  0  0
  -11.9971   14.9770   22.1143 C   0  0  0  0  0  0  0  0  0  0  0  0
  -11.7350   13.7050   21.3087 C   0  0  0  0  0  0  0  0  0  0  0  0
  -12.0934   13.9902   19.9360 O   0  0  0  0  0  0  0  0  0  0  0  0
  -10.2419   13.2563   21.3755 C   0  0  0  0  0  0  0  0  0  0  0  0
   -9.3876   14.2687   22.1924 C   0  0  0  0  0  0  0  0  0  0  0  0
   -7.9765   14.1603   21.9258 O   0  0  0  0  0  0  0  0  0  0  0  0
  -11.5465   14.7193   19.6039 H   0  0  0  0  0  0  0  0  0  0  0  0
   -9.7137   12.9763   20.0150 N   0  0  0  0  0  0  0  0  0  0  0  0
   -9.0011   11.7010   19.9629 C   0  0  0  0  0  0  0  0  0  0  0  0
   -9.0730   13.7240   19.7489 H   0  0  0  0  0  0  0  0  0  0  0  0
   -6.6153   16.0332   22.4917 C   0  0  0  0  0  0  0  0  0  0  0  0
   -5.7007   17.3057   22.4170 C   0  0  0  0  0  0  0  0  0  0  0  0
   -4.5280   17.1581   21.4435 C   0  0  0  0  0  0  0  0  0  0  0  0
   -6.4785   18.5735   21.9797 C   0  0  0  0  0  0  0  0  0  0  0  0
   -5.1538   17.6731   23.8498 C   0  0  0  0  0  0  0  0  0  0  0  0
   -4.3367   15.9960   25.6324 C   0  0  0  0  0  0  0  0  0  0  0  0
   -3.9840   16.8954   24.4669 C   0  0  0  0  0  0  0  0  0  0  0  0
   -6.6909   14.8821   20.1022 C   0  0  0  0  0  0  0  0  0  0  0  0
   -6.4215   15.6717   18.8190 C   0  0  0  0  0  0  0  0  0  0  0  0
   -4.9774   15.7653   18.5292 N   0  0  0  0  0  0  0  0  0  0  0  0
   -4.5222   16.3282   19.2478 H   0  0  0  0  0  0  0  0  0  0  0  0
   -4.8412   16.2026   17.6178 H   0  0  0  0  0  0  0  0  0  0  0  0
   -7.1096   17.0348   18.6903 C   0  0  0  0  0  0  0  0  0  0  0  0
   -7.0010   18.0073   19.4182 O   0  0  0  0  0  0  0  0  0  0  0  0
   -7.9971   17.0630   17.6624 O   0  0  0  0  0  0  0  0  0  0  0  0
   -8.0856   16.3193   17.0993 H   0  0  0  0  0  0  0  0  0  0  0  0
 20 21  1  0
 21 19  1  0
 19 16  1  0
 16 17  1  0
 16 18  1  0
 16 15  1  0
  1 15  1  0
  1 22  1  0
 22 23  1  0
 23 24  1  0
 23 27  1  0
 27 28  2  0
 27 29  1  0
  1  2  1  0
  3  2  1  0
  3  4  1  0
  4  5  1  0
  5  6  1  0
  6  7  1  0
  6  8  1  0
  8 12  1  0
 12 13  1  0
  8  9  1  0
  9 10  1  0
 10  1  1  0
  9  3  1  0
 24 25  1  0
 24 26  1  0
 29 30  1  0
  7 11  1  0
 12 14  1  0
M  END
> <minimizedAffinity>
-1.00285

> <CNNscore>
0.6669101715

> <CNNaffinity>
6.8285727501

> <CNN_VS>
4.5540447235

> <CNNaffinity_variance>
0.1664741784

$$$$



 30 31  0  0  0  0  0  0  0  0999 V2000
   -7.6046   14.6180   20.5921 C   0  0  0  0  0  0  0  0  0  0  0  0
   -7.9858   15.3697   21.8674 C   0  0  0  0  0  0  0  0  0  0  0  0
   -9.4646   15.6301   21.7029 C   0  0  0  0  0  0  0  0  0  0  0  0
   -9.9478   16.6317   22.5906 O   0  0  0  0  0  0  0  0  0  0  0  0
  -10.9905   17.4136   21.9887 C   0  0  0  0  0  0  0  0  0  0  0  0
  -10.3374   18.2936   20.9235 C   0  0  0  0  0  0  0  0  0  0  0  0
   -9.4336   19.1914   21.6101 O   0  0  0  0  0  0  0  0  0  0  0  0
   -9.5440   17.4605   19.8691 C   0  0  0  0  0  0  0  0  0  0  0  0
   -9.5649   15.9446   20.2205 C   0  0  0  0  0  0  0  0  0  0  0  0
   -8.5187   15.1999   19.5686 O   0  0  0  0  0  0  0  0  0  0  0  0
   -8.7609   18.6752   22.0811 H   0  0  0  0  0  0  0  0  0  0  0  0
   -8.1808   18.0188   19.6730 N   0  0  0  0  0  0  0  0  0  0  0  0
   -7.5531   18.3734   20.9447 C   0  0  0  0  0  0  0  0  0  0  0  0
   -8.2464   18.8549   19.0924 H   0  0  0  0  0  0  0  0  0  0  0  0
   -7.9403   13.0867   20.5070 C   0  0  0  0  0  0  0  0  0  0  0  0
   -9.3701   12.4449   20.4343 C   0  0  0  0  0  0  0  0  0  0  0  0
   -9.3609   10.9851   19.9724 C   0  0  0  0  0  0  0  0  0  0  0  0
  -10.1044   12.4699   21.7994 C   0  0  0  0  0  0  0  0  0  0  0  0
  -10.3042   13.2919   19.4870 C   0  0  0  0  0  0  0  0  0  0  0  0
  -11.8756   13.7096   21.4906 C   0  0  0  0  0  0  0  0  0  0  0  0
  -11.6112   13.9001   20.0122 C   0  0  0  0  0  0  0  0  0  0  0  0
   -6.2221   15.0487   20.0183 C   0  0  0  0  0  0  0  0  0  0  0  0
   -5.8666   15.0601   18.5296 C   0  0  0  0  0  0  0  0  0  0  0  0
   -6.2937   13.8177   17.8573 N   0  0  0  0  0  0  0  0  0  0  0  0
   -5.7527   13.0322   18.2190 H   0  0  0  0  0  0  0  0  0  0  0  0
   -6.1381   13.9039   16.8529 H   0  0  0  0  0  0  0  0  0  0  0  0
   -4.4235   15.4271   18.1677 C   0  0  0  0  0  0  0  0  0  0  0  0
   -3.8306   16.4692   18.3912 O   0  0  0  0  0  0  0  0  0  0  0  0
   -3.8177   14.4546   17.4382 O   0  0  0  0  0  0  0  0  0  0  0  0
   -4.2675   13.6516   17.2628 H   0  0  0  0  0  0  0  0  0  0  0  0
 20 21  1  0
 21 19  1  0
 19 16  1  0
 16 17  1  0
 16 18  1  0
 16 15  1  0
  1 15  1  0
  1 22  1  0
 22 23  1  0
 23 24  1  0
 23 27  1  0
 27 28  2  0
 27 29  1  0
  1  2  1  0
  3  2  1  0
  3  4  1  0
  4  5  1  0
  5  6  1  0
  6  7  1  0
  6  8  1  0
  8 12  1  0
 12 13  1  0
  8  9  1  0
  9 10  1  0
 10  1  1  0
  9  3  1  0
 24 25  1  0
 24 26  1  0
 29 30  1  0
  7 11  1  0
 12 14  1  0
M  END
> <minimizedAffinity>
-4.46221

> <CNNscore>
0.6551835537

> <CNNaffinity>
6.8016333580

> <CNN_VS>
4.4563183784

> <CNNaffinity_variance>
0.0692966878

$$$$



 30 31  0  0  0  0  0  0  0  0999 V2000
   -7.1435   15.3451   20.0742 C   0  0  0  0  0  0  0  0  0  0  0  0
   -8.4525   15.9526   19.5702 C   0  0  0  0  0  0  0  0  0  0  0  0
   -9.3202   16.0122   20.8053 C   0  0  0  0  0  0  0  0  0  0  0  0
  -10.6977   16.1968   20.5000 O   0  0  0  0  0  0  0  0  0  0  0  0
  -11.5433   15.5070   21.4328 C   0  0  0  0  0  0  0  0  0  0  0  0
  -11.4048   14.0119   21.1476 C   0  0  0  0  0  0  0  0  0  0  0  0
  -11.9179   13.7847   19.8137 O   0  0  0  0  0  0  0  0  0  0  0  0
   -9.9237   13.5267   21.2264 C   0  0  0  0  0  0  0  0  0  0  0  0
   -8.9580   14.7146   21.5062 C   0  0  0  0  0  0  0  0  0  0  0  0
   -7.5911   14.4245   21.1577 O   0  0  0  0  0  0  0  0  0  0  0  0
  -11.3997   14.3000   19.1758 H   0  0  0  0  0  0  0  0  0  0  0  0
   -9.5668   12.7246   20.0273 N   0  0  0  0  0  0  0  0  0  0  0  0
   -8.8252   11.5168   20.3852 C   0  0  0  0  0  0  0  0  0  0  0  0
   -8.9909   13.2947   19.4078 H   0  0  0  0  0  0  0  0  0  0  0  0
   -6.1345   16.2821   20.8284 C   0  0  0  0  0  0  0  0  0  0  0  0
   -6.3212   16.8998   22.2584 C   0  0  0  0  0  0  0  0  0  0  0  0
   -7.1882   16.0428   23.1850 C   0  0  0  0  0  0  0  0  0  0  0  0
   -4.9740   17.1179   22.9937 C   0  0  0  0  0  0  0  0  0  0  0  0
   -6.9340   18.3493   22.1542 C   0  0  0  0  0  0  0  0  0  0  0  0
   -9.0233   19.3170   20.9895 C   0  0  0  0  0  0  0  0  0  0  0  0
   -7.5959   18.8305   20.8564 C   0  0  0  0  0  0  0  0  0  0  0  0
   -6.5170   14.3275   19.0753 C   0  0  0  0  0  0  0  0  0  0  0  0
   -5.7264   14.7158   17.8235 C   0  0  0  0  0  0  0  0  0  0  0  0
   -5.7543   13.6461   16.8072 N   0  0  0  0  0  0  0  0  0  0  0  0
   -5.2496   12.8316   17.1569 H   0  0  0  0  0  0  0  0  0  0  0  0
   -5.3110   13.9789   15.9510 H   0  0  0  0  0  0  0  0  0  0  0  0
   -4.3055   15.2462   18.0418 C   0  0  0  0  0  0  0  0  0  0  0  0
   -3.9593   16.3760   18.3440 O   0  0  0  0  0  0  0  0  0  0  0  0
   -3.3630   14.3072   17.7683 O   0  0  0  0  0  0  0  0  0  0  0  0
   -3.6221   13.4373   17.5355 H   0  0  0  0  0  0  0  0  0  0  0  0
 20 21  1  0
 21 19  1  0
 19 16  1  0
 16 17  1  0
 16 18  1  0
 16 15  1  0
  1 15  1  0
  1 22  1  0
 22 23  1  0
 23 24  1  0
 23 27  1  0
 27 28  2  0
 27 29  1  0
  1  2  1  0
  3  2  1  0
  3  4  1  0
  4  5  1  0
  5  6  1  0
  6  7  1  0
  6  8  1  0
  8 12  1  0
 12 13  1  0
  8  9  1  0
  9 10  1  0
 10  1  1  0
  9  3  1  0
 24 25  1  0
 24 26  1  0
 29 30  1  0
  7 11  1  0
 12 14  1  0
M  END
> <minimizedAffinity>
-4.37559

> <CNNscore>
0.6427952647

> <CNNaffinity>
7.0625796318

> <CNN_VS>
4.5397925377

> <CNNaffinity_variance>
0.0879783630

$$$$



 30 31  0  0  0  0  0  0  0  0999 V2000
   -6.6343   16.0379   20.5547 C   0  0  0  0  0  0  0  0  0  0  0  0
   -7.3836   17.1952   19.8944 C   0  0  0  0  0  0  0  0  0  0  0  0
   -8.2759   17.7201   20.9945 C   0  0  0  0  0  0  0  0  0  0  0  0
   -9.3215   18.5510   20.5037 O   0  0  0  0  0  0  0  0  0  0  0  0
  -10.5218   18.4034   21.2775 C   0  0  0  0  0  0  0  0  0  0  0  0
  -11.1010   17.0266   20.9541 C   0  0  0  0  0  0  0  0  0  0  0  0
  -11.4611   17.0358   19.5526 O   0  0  0  0  0  0  0  0  0  0  0  0
  -10.0825   15.8753   21.2234 C   0  0  0  0  0  0  0  0  0  0  0  0
   -8.7077   16.4389   21.6864 C   0  0  0  0  0  0  0  0  0  0  0  0
   -7.6291   15.4985   21.5248 O   0  0  0  0  0  0  0  0  0  0  0  0
  -10.6703   17.2043   19.0167 H   0  0  0  0  0  0  0  0  0  0  0  0
  -10.0004   14.9597   20.0557 N   0  0  0  0  0  0  0  0  0  0  0  0
  -10.3300   13.5837   20.4228 C   0  0  0  0  0  0  0  0  0  0  0  0
   -9.0513   14.9840   19.6828 H   0  0  0  0  0  0  0  0  0  0  0  0
   -5.4148   16.3791   21.4826 C   0  0  0  0  0  0  0  0  0  0  0  0
   -5.4728   17.0868   22.8817 C   0  0  0  0  0  0  0  0  0  0  0  0
   -6.0348   18.5100   22.8228 C   0  0  0  0  0  0  0  0  0  0  0  0
   -6.3421   16.3125   23.9054 C   0  0  0  0  0  0  0  0  0  0  0  0
   -4.0415   17.1120   23.5435 C   0  0  0  0  0  0  0  0  0  0  0  0
   -4.1441   15.8990   25.8187 C   0  0  0  0  0  0  0  0  0  0  0  0
   -3.8824   17.1871   25.0677 C   0  0  0  0  0  0  0  0  0  0  0  0
   -6.4564   14.8089   19.6146 C   0  0  0  0  0  0  0  0  0  0  0  0
   -5.8515   14.8720   18.2100 C   0  0  0  0  0  0  0  0  0  0  0  0
   -6.1006   13.6300   17.4527 N   0  0  0  0  0  0  0  0  0  0  0  0
   -5.5950   12.8588   17.8886 H   0  0  0  0  0  0  0  0  0  0  0  0
   -5.7790   13.7474   16.4918 H   0  0  0  0  0  0  0  0  0  0  0  0
   -4.3856   15.3070   18.1089 C   0  0  0  0  0  0  0  0  0  0  0  0
   -3.9042   16.4011   18.3512 O   0  0  0  0  0  0  0  0  0  0  0  0
   -3.5958   14.3245   17.6033 O   0  0  0  0  0  0  0  0  0  0  0  0
   -3.9592   13.4816   17.4149 H   0  0  0  0  0  0  0  0  0  0  0  0
 20 21  1  0
 21 19  1  0
 19 16  1  0
 16 17  1  0
 16 18  1  0
 16 15  1  0
  1 15  1  0
  1 22  1  0
 22 23  1  0
 23 24  1  0
 23 27  1  0
 27 28  2  0
 27 29  1  0
  1  2  1  0
  3  2  1  0
  3  4  1  0
  4  5  1  0
  5  6  1  0
  6  7  1  0
  6  8  1  0
  8 12  1  0
 12 13  1  0
  8  9  1  0
  9 10  1  0
 10  1  1  0
  9  3  1  0
 24 25  1  0
 24 26  1  0
 29 30  1  0
  7 11  1  0
 12 14  1  0
M  END
> <minimizedAffinity>
-1.76870

> <CNNscore>
0.5708563328

> <CNNaffinity>
7.0163016319

> <CNN_VS>
4.0053000450

> <CNNaffinity_variance>
0.2580513656

$$$$



 30 31  0  0  0  0  0  0  0  0999 V2000
  -15.9117    8.5487   28.3992 C   0  0  0  0  0  0  0  0  0  0  0  0
  -15.7885    9.8652   27.6321 C   0  0  0  0  0  0  0  0  0  0  0  0
  -15.3963    9.4340   26.2385 C   0  0  0  0  0  0  0  0  0  0  0  0
  -14.8709   10.5033   25.4605 O   0  0  0  0  0  0  0  0  0  0  0  0
  -13.8430   10.0512   24.5660 C   0  0  0  0  0  0  0  0  0  0  0  0
  -12.6194    9.7144   25.4175 C   0  0  0  0  0  0  0  0  0  0  0  0
  -12.1777   10.9475   26.0327 O   0  0  0  0  0  0  0  0  0  0  0  0
  -12.9381    8.6634   26.5262 C   0  0  0  0  0  0  0  0  0  0  0  0
  -14.4471    8.2828   26.5217 C   0  0  0  0  0  0  0  0  0  0  0  0
  -14.8814    7.6837   27.7572 O   0  0  0  0  0  0  0  0  0  0  0  0
  -12.8883   11.3044   26.5882 H   0  0  0  0  0  0  0  0  0  0  0  0
  -12.4316    9.1195   27.8468 N   0  0  0  0  0  0  0  0  0  0  0  0
  -11.0093    8.8254   28.0118 C   0  0  0  0  0  0  0  0  0  0  0  0
  -12.9547    8.6455   28.5830 H   0  0  0  0  0  0  0  0  0  0  0  0
  -17.2209    7.7027   28.2122 C   0  0  0  0  0  0  0  0  0  0  0  0
  -18.6741    8.2593   28.0122 C   0  0  0  0  0  0  0  0  0  0  0  0
  -18.7396    9.7881   27.9560 C   0  0  0  0  0  0  0  0  0  0  0  0
  -19.3359    7.7424   26.7092 C   0  0  0  0  0  0  0  0  0  0  0  0
  -19.6255    7.7323   29.1543 C   0  0  0  0  0  0  0  0  0  0  0  0
  -20.5483    8.3255   31.4898 C   0  0  0  0  0  0  0  0  0  0  0  0
  -20.4159    8.7115   30.0320 C   0  0  0  0  0  0  0  0  0  0  0  0
  -15.3515    8.6315   29.8501 C   0  0  0  0  0  0  0  0  0  0  0  0
  -16.2164    8.7191   31.1099 C   0  0  0  0  0  0  0  0  0  0  0  0
  -17.0427    7.5095   31.2894 N   0  0  0  0  0  0  0  0  0  0  0  0
  -17.7310    7.4535   30.5389 H   0  0  0  0  0  0  0  0  0  0  0  0
  -17.5227    7.5560   32.1882 H   0  0  0  0  0  0  0  0  0  0  0  0
  -17.0435    9.9963   31.2914 C   0  0  0  0  0  0  0  0  0  0  0  0
  -17.2387   10.8905   30.4854 O   0  0  0  0  0  0  0  0  0  0  0  0
  -17.5210   10.1190   32.5571 O   0  0  0  0  0  0  0  0  0  0  0  0
  -17.3747    9.4357   33.1813 H   0  0  0  0  0  0  0  0  0  0  0  0
 20 21  1  0
 21 19  1  0
 19 16  1  0
 16 17  1  0
 16 18  1  0
 16 15  1  0
  1 15  1  0
  1 22  1  0
 22 23  1  0
 23 24  1  0
 23 27  1  0
 27 28  2  0
 27 29  1  0
  1  2  1  0
  3  2  1  0
  3  4  1  0
  4  5  1  0
  5  6  1  0
  6  7  1  0
  6  8  1  0
  8 12  1  0
 12 13  1  0
  8  9  1  0
  9 10  1  0
 10  1  1  0
  9  3  1  0
 24 25  1  0
 24 26  1  0
 29 30  1  0
  7 11  1  0
 12 14  1  0
M  END
> <minimizedAffinity>
-0.09447

> <CNNscore>
0.3374906778

> <CNNaffinity>
5.2445683479

> <CNN_VS>
1.7699929476

> <CNNaffinity_variance>
1.6138881445

$$$$



 30 31  0  0  0  0  0  0  0  0999 V2000
   -4.3917   11.7967   30.1081 C   0  0  0  0  0  0  0  0  0  0  0  0
   -3.6346   12.1408   31.3907 C   0  0  0  0  0  0  0  0  0  0  0  0
   -2.2343   12.4429   30.9116 C   0  0  0  0  0  0  0  0  0  0  0  0
   -1.2779   12.4254   31.9651 O   0  0  0  0  0  0  0  0  0  0  0  0
   -0.0069   11.9301   31.5174 C   0  0  0  0  0  0  0  0  0  0  0  0
   -0.1665   10.4293   31.2768 C   0  0  0  0  0  0  0  0  0  0  0  0
   -0.4661    9.8235   32.5564 O   0  0  0  0  0  0  0  0  0  0  0  0
   -1.3117   10.1079   30.2666 C   0  0  0  0  0  0  0  0  0  0  0  0
   -2.0457   11.4052   29.8190 C   0  0  0  0  0  0  0  0  0  0  0  0
   -3.3488   11.1519   29.2606 O   0  0  0  0  0  0  0  0  0  0  0  0
   -1.2889   10.1990   32.9072 H   0  0  0  0  0  0  0  0  0  0  0  0
   -2.2127    9.0572   30.8074 N   0  0  0  0  0  0  0  0  0  0  0  0
   -2.3960    9.1922   32.2514 C   0  0  0  0  0  0  0  0  0  0  0  0
   -1.8088    8.1417   30.6098 H   0  0  0  0  0  0  0  0  0  0  0  0
   -4.8787   12.9783   29.1963 C   0  0  0  0  0  0  0  0  0  0  0  0
   -5.5910   12.8535   27.8039 C   0  0  0  0  0  0  0  0  0  0  0  0
   -5.3883   14.0751   26.9032 C   0  0  0  0  0  0  0  0  0  0  0  0
   -5.1048   11.6242   26.9941 C   0  0  0  0  0  0  0  0  0  0  0  0
   -7.1340   12.5919   27.9985 C   0  0  0  0  0  0  0  0  0  0  0  0
   -9.2727   11.1955   27.6317 C   0  0  0  0  0  0  0  0  0  0  0  0
   -7.8492   11.4886   27.2078 C   0  0  0  0  0  0  0  0  0  0  0  0
   -5.3883   10.6129   30.2850 C   0  0  0  0  0  0  0  0  0  0  0  0
   -6.7816   10.7378   30.9063 C   0  0  0  0  0  0  0  0  0  0  0  0
   -6.7320   11.3876   32.2304 N   0  0  0  0  0  0  0  0  0  0  0  0
   -6.2384   10.7833   32.8874 H   0  0  0  0  0  0  0  0  0  0  0  0
   -7.6817   11.5497   32.5653 H   0  0  0  0  0  0  0  0  0  0  0  0
   -7.6404    9.4691   30.9350 C   0  0  0  0  0  0  0  0  0  0  0  0
   -8.7137    9.2712   30.3906 O   0  0  0  0  0  0  0  0  0  0  0  0
   -7.1188    8.5185   31.7530 O   0  0  0  0  0  0  0  0  0  0  0  0
   -6.2946    8.6641   32.1745 H   0  0  0  0  0  0  0  0  0  0  0  0
 20 21  1  0
 21 19  1  0
 19 16  1  0
 16 17  1  0
 16 18  1  0
 16 15  1  0
  1 15  1  0
  1 22  1  0
 22 23  1  0
 23 24  1  0
 23 27  1  0
 27 28  2  0
 27 29  1  0
  1  2  1  0
  3  2  1  0
  3  4  1  0
  4  5  1  0
  5  6  1  0
  6  7  1  0
  6  8  1  0
  8 12  1  0
 12 13  1  0
  8  9  1  0
  9 10  1  0
 10  1  1  0
  9  3  1  0
 24 25  1  0
 24 26  1  0
 29 30  1  0
  7 11  1  0
 12 14  1  0
M  END
> <minimizedAffinity>
-1.98976

> <CNNscore>
0.2607031167

> <CNNaffinity>
4.4124836922

> <CNN_VS>
1.1503483057

> <CNNaffinity_variance>
0.3607343733

$$$$



 30 31  0  0  0  0  0  0  0  0999 V2000
    0.2438   25.0528   28.8779 C   0  0  0  0  0  0  0  0  0  0  0  0
    0.9476   26.3163   29.3727 C   0  0  0  0  0  0  0  0  0  0  0  0
    2.3558   26.1734   28.8451 C   0  0  0  0  0  0  0  0  0  0  0  0
    3.2756   27.0454   29.4919 O   0  0  0  0  0  0  0  0  0  0  0  0
    4.5729   26.4443   29.6210 C   0  0  0  0  0  0  0  0  0  0  0  0
    4.4585   25.3458   30.6774 C   0  0  0  0  0  0  0  0  0  0  0  0
    4.1300   25.9931   31.9293 O   0  0  0  0  0  0  0  0  0  0  0  0
    3.3569   24.2973   30.3275 C   0  0  0  0  0  0  0  0  0  0  0  0
    2.6072   24.6859   29.0202 C   0  0  0  0  0  0  0  0  0  0  0  0
    1.3306   24.0328   28.8866 O   0  0  0  0  0  0  0  0  0  0  0  0
    3.2867   26.4638   31.8384 H   0  0  0  0  0  0  0  0  0  0  0  0
    2.4638   24.0619   31.4917 N   0  0  0  0  0  0  0  0  0  0  0  0
    2.5691   25.1339   32.4799 C   0  0  0  0  0  0  0  0  0  0  0  0
    2.7217   23.1792   31.9329 H   0  0  0  0  0  0  0  0  0  0  0  0
   -0.2404   25.0114   27.3851 C   0  0  0  0  0  0  0  0  0  0  0  0
   -0.4194   26.2394   26.4251 C   0  0  0  0  0  0  0  0  0  0  0  0
   -0.5572   27.5748   27.1617 C   0  0  0  0  0  0  0  0  0  0  0  0
    0.7649   26.4016   25.4381 C   0  0  0  0  0  0  0  0  0  0  0  0
   -1.6677   26.0241   25.4857 C   0  0  0  0  0  0  0  0  0  0  0  0
   -3.1186   27.5542   23.9984 C   0  0  0  0  0  0  0  0  0  0  0  0
   -2.7744   27.0829   25.3953 C   0  0  0  0  0  0  0  0  0  0  0  0
   -0.7290   24.4427   29.9302 C   0  0  0  0  0  0  0  0  0  0  0  0
   -0.9936   25.0390   31.3149 C   0  0  0  0  0  0  0  0  0  0  0  0
   -0.4249   24.2001   32.3877 N   0  0  0  0  0  0  0  0  0  0  0  0
   -0.9196   23.3087   32.4206 H   0  0  0  0  0  0  0  0  0  0  0  0
   -0.5260   24.6784   33.2829 H   0  0  0  0  0  0  0  0  0  0  0  0
   -2.4376   25.4464   31.6262 C   0  0  0  0  0  0  0  0  0  0  0  0
   -3.4556   24.7912   31.4786 O   0  0  0  0  0  0  0  0  0  0  0  0
   -2.5258   26.7379   32.0375 O   0  0  0  0  0  0  0  0  0  0  0  0
   -1.7476   27.2470   32.1529 H   0  0  0  0  0  0  0  0  0  0  0  0
 20 21  1  0
 21 19  1  0
 19 16  1  0
 16 17  1  0
 16 18  1  0
 16 15  1  0
  1 15  1  0
  1 22  1  0
 22 23  1  0
 23 24  1  0
 23 27  1  0
 27 28  2  0
 27 29  1  0
  1  2  1  0
  3  2  1  0
  3  4  1  0
  4  5  1  0
  5  6  1  0
  6  7  1  0
  6  8  1  0
  8 12  1  0
 12 13  1  0
  8  9  1  0
  9 10  1  0
 10  1  1  0
  9  3  1  0
 24 25  1  0
 24 26  1  0
 29 30  1  0
  7 11  1  0
 12 14  1  0
M  END
> <minimizedAffinity>
-2.05163

> <CNNscore>
0.2510406375

> <CNNaffinity>
3.8038713932

> <CNN_VS>
0.9549263120

> <CNNaffinity_variance>
0.4797816277

$$$$
