


 35 36  0  0  0  0  0  0  0  0999 V2000
  -11.4695   13.6950   22.2394 C   0  0  0  0  0  0  0  0  0  0  0  0
  -10.4504   14.1581   21.1687 C   0  0  0  0  0  0  0  0  0  0  0  0
  -10.2879   13.2113   19.9741 C   0  0  0  0  0  0  0  0  0  0  0  0
   -8.9250   12.5842   20.1661 C   0  0  0  0  0  0  0  0  0  0  0  0
   -8.3188   12.2939   18.9022 O   0  0  0  0  0  0  0  0  0  0  0  0
   -6.8925   12.3107   18.9704 C   0  0  0  0  0  0  0  0  0  0  0  0
   -6.3490   13.7171   19.2998 C   0  0  0  0  0  0  0  0  0  0  0  0
   -6.0368   14.4570   18.1054 O   0  0  0  0  0  0  0  0  0  0  0  0
   -7.3555   14.5497   20.1192 C   0  0  0  0  0  0  0  0  0  0  0  0
   -8.2004   15.2912   19.2208 O   0  0  0  0  0  0  0  0  0  0  0  0
   -8.1804   13.6135   21.0078 C   0  0  0  0  0  0  0  0  0  0  0  0
   -9.1564   14.3003   21.7983 O   0  0  0  0  0  0  0  0  0  0  0  0
   -6.8470   14.5971   17.5908 H   0  0  0  0  0  0  0  0  0  0  0  0
   -8.6769   14.6752   18.6426 H   0  0  0  0  0  0  0  0  0  0  0  0
  -10.9252   15.5497   20.7028 C   0  0  0  0  0  0  0  0  0  0  0  0
  -10.7521   16.0692   19.6101 O   0  0  0  0  0  0  0  0  0  0  0  0
  -11.5177   16.2699   21.6850 O   0  0  0  0  0  0  0  0  0  0  0  0
  -11.6575   15.8860   22.5282 H   0  0  0  0  0  0  0  0  0  0  0  0
  -11.5044   12.1844   22.5578 C   0  0  0  0  0  0  0  0  0  0  0  0
  -11.2049   11.3685   21.3866 N   0  0  0  0  0  0  0  0  0  0  0  0
  -11.9341   11.4993   20.6856 H   0  0  0  0  0  0  0  0  0  0  0  0
  -11.1662   10.3859   21.6576 H   0  0  0  0  0  0  0  0  0  0  0  0
  -12.7924   11.7415   23.3098 C   0  0  0  0  0  0  0  0  0  0  0  0
  -13.1005   10.2479   23.7308 C   0  0  0  0  0  0  0  0  0  0  0  0
  -14.2298    9.6520   22.8926 C   0  0  0  0  0  0  0  0  0  0  0  0
  -11.8234    9.4010   23.5274 C   0  0  0  0  0  0  0  0  0  0  0  0
  -13.4435   10.3160   25.2742 C   0  0  0  0  0  0  0  0  0  0  0  0
  -13.5985    9.0774   26.2508 C   0  0  0  0  0  0  0  0  0  0  0  0
  -12.2767    8.6621   26.8928 C   0  0  0  0  0  0  0  0  0  0  0  0
  -14.1827    7.8817   25.4655 C   0  0  0  0  0  0  0  0  0  0  0  0
  -14.6525    9.5441   27.3360 C   0  0  0  0  0  0  0  0  0  0  0  0
  -16.6948    9.5160   28.7763 C   0  0  0  0  0  0  0  0  0  0  0  0
  -15.6650    8.5995   28.0646 C   0  0  0  0  0  0  0  0  0  0  0  0
  -16.4507    7.6732   27.1308 C   0  0  0  0  0  0  0  0  0  0  0  0
  -14.9866    7.7623   29.1664 C   0  0  0  0  0  0  0  0  0  0  0  0
 32 33  1  0
 33 34  1  0
 33 35  1  0
 33 31  1  0
 31 28  1  0
 28 29  1  0
 28 30  1  0
 28 27  1  0
 27 24  1  0
 24 25  1  0
 24 26  1  0
 24 23  1  0
 23 19  1  0
 19 20  1  0
 19  1  1  0
  2  1  1  0
  2 15  1  0
 15 16  2  0
 15 17  1  0
  2  3  1  0
  4  3  1  0
  4  5  1  0
  5  6  1  0
  6  7  1  0
  7  8  1  0
  7  9  1  0
  9 10  1  0
  9 11  1  0
 11 12  1  0
 12  2  1  0
 11  4  1  0
 20 21  1  0
 20 22  1  0
 17 18  1  0
  8 13  1  0
 10 14  1  0
M  END
> <minimizedAffinity>
-1.54496

> <CNNscore>
0.4176895320

> <CNNaffinity>
6.3287825584

> <CNN_VS>
2.6434662342

> <CNNaffinity_variance>
0.0336900577

$$$$



 35 36  0  0  0  0  0  0  0  0999 V2000
  -10.4878   13.3819   22.6995 C   0  0  0  0  0  0  0  0  0  0  0  0
   -9.8492   14.3199   21.6451 C   0  0  0  0  0  0  0  0  0  0  0  0
   -9.3387   13.6222   20.3793 C   0  0  0  0  0  0  0  0  0  0  0  0
   -7.8315   13.6772   20.4941 C   0  0  0  0  0  0  0  0  0  0  0  0
   -7.2283   13.7690   19.1991 O   0  0  0  0  0  0  0  0  0  0  0  0
   -5.9639   14.4317   19.2377 C   0  0  0  0  0  0  0  0  0  0  0  0
   -6.1019   15.9096   19.6604 C   0  0  0  0  0  0  0  0  0  0  0  0
   -6.2244   16.7774   18.5187 O   0  0  0  0  0  0  0  0  0  0  0  0
   -7.3312   16.1418   20.5617 C   0  0  0  0  0  0  0  0  0  0  0  0
   -8.4676   16.4654   19.7402 O   0  0  0  0  0  0  0  0  0  0  0  0
   -7.5919   14.8829   21.3947 C   0  0  0  0  0  0  0  0  0  0  0  0
   -8.7294   15.0014   22.2556 O   0  0  0  0  0  0  0  0  0  0  0  0
   -7.0361   16.5610   18.0337 H   0  0  0  0  0  0  0  0  0  0  0  0
   -8.6425   15.7340   19.1276 H   0  0  0  0  0  0  0  0  0  0  0  0
  -10.9286   15.3649   21.2957 C   0  0  0  0  0  0  0  0  0  0  0  0
  -11.6794   15.9469   22.0648 O   0  0  0  0  0  0  0  0  0  0  0  0
  -11.0792   15.5543   19.9631 O   0  0  0  0  0  0  0  0  0  0  0  0
  -10.5117   15.1154   19.3604 H   0  0  0  0  0  0  0  0  0  0  0  0
  -11.4452   12.2919   22.1705 C   0  0  0  0  0  0  0  0  0  0  0  0
  -11.9054   12.5745   20.8158 N   0  0  0  0  0  0  0  0  0  0  0  0
  -12.4646   13.4276   20.8177 H   0  0  0  0  0  0  0  0  0  0  0  0
  -12.4733   11.7965   20.4803 H   0  0  0  0  0  0  0  0  0  0  0  0
  -12.5972   11.9495   23.1586 C   0  0  0  0  0  0  0  0  0  0  0  0
  -13.0389   10.4750   23.5242 C   0  0  0  0  0  0  0  0  0  0  0  0
  -14.3628   10.1061   22.8576 C   0  0  0  0  0  0  0  0  0  0  0  0
  -11.9445    9.4950   23.0434 C   0  0  0  0  0  0  0  0  0  0  0  0
  -13.1111   10.4452   25.1047 C   0  0  0  0  0  0  0  0  0  0  0  0
  -13.2187    9.1482   26.0093 C   0  0  0  0  0  0  0  0  0  0  0  0
  -11.8816    8.7468   26.6281 C   0  0  0  0  0  0  0  0  0  0  0  0
  -13.7585    7.9780   25.1567 C   0  0  0  0  0  0  0  0  0  0  0  0
  -14.2882    9.5127   27.1180 C   0  0  0  0  0  0  0  0  0  0  0  0
  -15.0522    7.8935   28.8618 C   0  0  0  0  0  0  0  0  0  0  0  0
  -15.4814    8.5956   27.5465 C   0  0  0  0  0  0  0  0  0  0  0  0
  -16.7845    9.3471   27.8374 C   0  0  0  0  0  0  0  0  0  0  0  0
  -15.7512    7.4784   26.5199 C   0  0  0  0  0  0  0  0  0  0  0  0
 32 33  1  0
 33 34  1  0
 33 35  1  0
 33 31  1  0
 31 28  1  0
 28 29  1  0
 28 30  1  0
 28 27  1  0
 27 24  1  0
 24 25  1  0
 24 26  1  0
 24 23  1  0
 23 19  1  0
 19 20  1  0
 19  1  1  0
  2  1  1  0
  2 15  1  0
 15 16  2  0
 15 17  1  0
  2  3  1  0
  4  3  1  0
  4  5  1  0
  5  6  1  0
  6  7  1  0
  7  8  1  0
  7  9  1  0
  9 10  1  0
  9 11  1  0
 11 12  1  0
 12  2  1  0
 11  4  1  0
 20 21  1  0
 20 22  1  0
 17 18  1  0
  8 13  1  0
 10 14  1  0
M  END
> <minimizedAffinity>
-2.18799

> <CNNscore>
0.4014407098

> <CNNaffinity>
6.0358214378

> <CNN_VS>
2.4230244160

> <CNNaffinity_variance>
0.2474574447

$$$$



 35 36  0  0  0  0  0  0  0  0999 V2000
   -6.6627   14.9508   23.6381 C   0  0  0  0  0  0  0  0  0  0  0  0
   -7.4552   14.8703   22.3096 C   0  0  0  0  0  0  0  0  0  0  0  0
   -8.9157   15.3280   22.3957 C   0  0  0  0  0  0  0  0  0  0  0  0
   -9.7228   14.0538   22.2823 C   0  0  0  0  0  0  0  0  0  0  0  0
  -10.9727   14.3027   21.6303 O   0  0  0  0  0  0  0  0  0  0  0  0
  -11.4665   13.1484   20.9499 C   0  0  0  0  0  0  0  0  0  0  0  0
  -10.5456   12.7301   19.7841 C   0  0  0  0  0  0  0  0  0  0  0  0
  -10.9668   13.3180   18.5398 O   0  0  0  0  0  0  0  0  0  0  0  0
   -9.0800   13.1431   20.0270 C   0  0  0  0  0  0  0  0  0  0  0  0
   -8.8605   14.4568   19.4821 O   0  0  0  0  0  0  0  0  0  0  0  0
   -8.7891   13.1126   21.5307 C   0  0  0  0  0  0  0  0  0  0  0  0
   -7.4490   13.4978   21.8543 O   0  0  0  0  0  0  0  0  0  0  0  0
  -10.9006   14.2838   18.5997 H   0  0  0  0  0  0  0  0  0  0  0  0
   -9.4562   15.0893   19.9134 H   0  0  0  0  0  0  0  0  0  0  0  0
   -6.6725   15.7279   21.2943 C   0  0  0  0  0  0  0  0  0  0  0  0
   -6.5301   16.9418   21.2969 O   0  0  0  0  0  0  0  0  0  0  0  0
   -6.1833   15.0125   20.2535 O   0  0  0  0  0  0  0  0  0  0  0  0
   -6.2844   14.0811   20.2366 H   0  0  0  0  0  0  0  0  0  0  0  0
   -6.8537   13.7850   24.6327 C   0  0  0  0  0  0  0  0  0  0  0  0
   -8.2294   13.6862   25.1065 N   0  0  0  0  0  0  0  0  0  0  0  0
   -8.4652   14.5214   25.6426 H   0  0  0  0  0  0  0  0  0  0  0  0
   -8.3262   12.8625   25.7003 H   0  0  0  0  0  0  0  0  0  0  0  0
   -5.8004   13.7714   25.7776 C   0  0  0  0  0  0  0  0  0  0  0  0
   -5.5459   12.5337   26.7296 C   0  0  0  0  0  0  0  0  0  0  0  0
   -6.8399   12.0589   27.3880 C   0  0  0  0  0  0  0  0  0  0  0  0
   -4.9545   11.3765   25.8926 C   0  0  0  0  0  0  0  0  0  0  0  0
   -4.4653   13.0306   27.7735 C   0  0  0  0  0  0  0  0  0  0  0  0
   -4.1250   12.3454   29.1615 C   0  0  0  0  0  0  0  0  0  0  0  0
   -5.2890   11.5288   29.7184 C   0  0  0  0  0  0  0  0  0  0  0  0
   -3.7316   13.4359   30.1831 C   0  0  0  0  0  0  0  0  0  0  0  0
   -2.8627   11.4363   28.8680 C   0  0  0  0  0  0  0  0  0  0  0  0
   -3.2737   10.0381   30.8985 C   0  0  0  0  0  0  0  0  0  0  0  0
   -2.1677   10.5047   29.9156 C   0  0  0  0  0  0  0  0  0  0  0  0
   -1.5304    9.2458   29.3186 C   0  0  0  0  0  0  0  0  0  0  0  0
   -1.1211   11.2595   30.7581 C   0  0  0  0  0  0  0  0  0  0  0  0
 32 33  1  0
 33 34  1  0
 33 35  1  0
 33 31  1  0
 31 28  1  0
 28 29  1  0
 28 30  1  0
 28 27  1  0
 27 24  1  0
 24 25  1  0
 24 26  1  0
 24 23  1  0
 23 19  1  0
 19 20  1  0
 19  1  1  0
  2  1  1  0
  2 15  1  0
 15 16  2  0
 15 17  1  0
  2  3  1  0
  4  3  1  0
  4  5  1  0
  5  6  1  0
  6  7  1  0
  7  8  1  0
  7  9  1  0
  9 10  1  0
  9 11  1  0
 11 12  1  0
 12  2  1  0
 11  4  1  0
 20 21  1  0
 20 22  1  0
 17 18  1  0
  8 13  1  0
 10 14  1  0
M  END
> <minimizedAffinity>
-0.96797

> <CNNscore>
0.3269656599

> <CNNaffinity>
6.1146016121

> <CNN_VS>
1.9992647171

> <CNNaffinity_variance>
0.1633244455

$$$$



 35 36  0  0  0  0  0  0  0  0999 V2000
  -11.1055   13.6765   21.5759 C   0  0  0  0  0  0  0  0  0  0  0  0
   -9.7188   14.3644   21.5188 C   0  0  0  0  0  0  0  0  0  0  0  0
   -9.6882   15.7036   20.7735 C   0  0  0  0  0  0  0  0  0  0  0  0
   -8.9506   15.4080   19.4865 C   0  0  0  0  0  0  0  0  0  0  0  0
   -8.2131   16.5550   19.0509 O   0  0  0  0  0  0  0  0  0  0  0  0
   -7.0670   16.1985   18.2772 C   0  0  0  0  0  0  0  0  0  0  0  0
   -6.0301   15.4169   19.1115 C   0  0  0  0  0  0  0  0  0  0  0  0
   -5.0426   16.2934   19.6843 O   0  0  0  0  0  0  0  0  0  0  0  0
   -6.6875   14.6320   20.2644 C   0  0  0  0  0  0  0  0  0  0  0  0
   -6.7303   15.4615   21.4395 O   0  0  0  0  0  0  0  0  0  0  0  0
   -8.0948   14.1983   19.8423 C   0  0  0  0  0  0  0  0  0  0  0  0
   -8.7907   13.4718   20.8606 O   0  0  0  0  0  0  0  0  0  0  0  0
   -5.4732   16.9073   20.2996 H   0  0  0  0  0  0  0  0  0  0  0  0
   -7.2447   16.2621   21.2516 H   0  0  0  0  0  0  0  0  0  0  0  0
   -9.2720   14.5438   22.9841 C   0  0  0  0  0  0  0  0  0  0  0  0
   -9.8182   15.2057   23.8543 O   0  0  0  0  0  0  0  0  0  0  0  0
   -8.0852   13.9514   23.2585 O   0  0  0  0  0  0  0  0  0  0  0  0
   -7.6537   13.4407   22.6021 H   0  0  0  0  0  0  0  0  0  0  0  0
  -11.1436   12.2351   22.1287 C   0  0  0  0  0  0  0  0  0  0  0  0
  -10.7228   11.2538   21.1352 N   0  0  0  0  0  0  0  0  0  0  0  0
  -11.3862   11.2485   20.3604 H   0  0  0  0  0  0  0  0  0  0  0  0
  -10.6924   10.3283   21.5631 H   0  0  0  0  0  0  0  0  0  0  0  0
  -12.4878   11.8762   22.8250 C   0  0  0  0  0  0  0  0  0  0  0  0
  -12.8599   10.4250   23.3334 C   0  0  0  0  0  0  0  0  0  0  0  0
  -14.2486   10.0040   22.8566 C   0  0  0  0  0  0  0  0  0  0  0  0
  -11.8164    9.4243   22.7863 C   0  0  0  0  0  0  0  0  0  0  0  0
  -12.7409   10.4963   24.9098 C   0  0  0  0  0  0  0  0  0  0  0  0
  -12.7399    9.2604   25.9021 C   0  0  0  0  0  0  0  0  0  0  0  0
  -13.6133    8.1079   25.4112 C   0  0  0  0  0  0  0  0  0  0  0  0
  -13.2378    9.7231   27.2898 C   0  0  0  0  0  0  0  0  0  0  0  0
  -11.2202    8.8322   26.0174 C   0  0  0  0  0  0  0  0  0  0  0  0
   -9.2423    7.7761   27.1216 C   0  0  0  0  0  0  0  0  0  0  0  0
  -10.4044    8.7780   27.3515 C   0  0  0  0  0  0  0  0  0  0  0  0
   -9.7774   10.1135   27.7646 C   0  0  0  0  0  0  0  0  0  0  0  0
  -11.2406    8.2203   28.5198 C   0  0  0  0  0  0  0  0  0  0  0  0
 32 33  1  0
 33 34  1  0
 33 35  1  0
 33 31  1  0
 31 28  1  0
 28 29  1  0
 28 30  1  0
 28 27  1  0
 27 24  1  0
 24 25  1  0
 24 26  1  0
 24 23  1  0
 23 19  1  0
 19 20  1  0
 19  1  1  0
  2  1  1  0
  2 15  1  0
 15 16  2  0
 15 17  1  0
  2  3  1  0
  4  3  1  0
  4  5  1  0
  5  6  1  0
  6  7  1  0
  7  8  1  0
  7  9  1  0
  9 10  1  0
  9 11  1  0
 11 12  1  0
 12  2  1  0
 11  4  1  0
 20 21  1  0
 20 22  1  0
 17 18  1  0
  8 13  1  0
 10 14  1  0
M  END
> <minimizedAffinity>
3.56712

> <CNNscore>
0.2793127894

> <CNNaffinity>
5.8150157928

> <CNN_VS>
1.6242083311

> <CNNaffinity_variance>
0.3313350081

$$$$



 35 36  0  0  0  0  0  0  0  0999 V2000
   -6.6510   14.9399   23.5093 C   0  0  0  0  0  0  0  0  0  0  0  0
   -7.4518   14.8348   22.1875 C   0  0  0  0  0  0  0  0  0  0  0  0
   -8.9184   15.2710   22.2800 C   0  0  0  0  0  0  0  0  0  0  0  0
   -9.7067   13.9836   22.1844 C   0  0  0  0  0  0  0  0  0  0  0  0
  -10.9649   14.2073   21.5392 O   0  0  0  0  0  0  0  0  0  0  0  0
  -11.4458   13.0393   20.8732 C   0  0  0  0  0  0  0  0  0  0  0  0
  -10.5271   12.6241   19.7047 C   0  0  0  0  0  0  0  0  0  0  0  0
  -10.9662   13.1937   18.4580 O   0  0  0  0  0  0  0  0  0  0  0  0
   -9.0662   13.0616   19.9330 C   0  0  0  0  0  0  0  0  0  0  0  0
   -8.8708   14.3733   19.3743 O   0  0  0  0  0  0  0  0  0  0  0  0
   -8.7642   13.0498   21.4348 C   0  0  0  0  0  0  0  0  0  0  0  0
   -7.4277   13.4583   21.7449 O   0  0  0  0  0  0  0  0  0  0  0  0
  -10.9143   14.1610   18.5085 H   0  0  0  0  0  0  0  0  0  0  0  0
   -9.4730   15.0008   19.8040 H   0  0  0  0  0  0  0  0  0  0  0  0
   -6.6896   15.6947   21.1586 C   0  0  0  0  0  0  0  0  0  0  0  0
   -6.5953   16.9129   21.1289 O   0  0  0  0  0  0  0  0  0  0  0  0
   -6.1582   14.9709   20.1445 O   0  0  0  0  0  0  0  0  0  0  0  0
   -6.2221   14.0361   20.1525 H   0  0  0  0  0  0  0  0  0  0  0  0
   -6.9405   13.8692   24.5838 C   0  0  0  0  0  0  0  0  0  0  0  0
   -8.2907   13.9828   25.1235 N   0  0  0  0  0  0  0  0  0  0  0  0
   -8.3867   14.8714   25.6150 H   0  0  0  0  0  0  0  0  0  0  0  0
   -8.4631   13.2150   25.7724 H   0  0  0  0  0  0  0  0  0  0  0  0
   -5.8395   13.7807   25.6795 C   0  0  0  0  0  0  0  0  0  0  0  0
   -5.6074   12.5141   26.5987 C   0  0  0  0  0  0  0  0  0  0  0  0
   -6.9194   12.0070   27.1943 C   0  0  0  0  0  0  0  0  0  0  0  0
   -4.9757   11.3904   25.7457 C   0  0  0  0  0  0  0  0  0  0  0  0
   -4.5693   12.9849   27.6964 C   0  0  0  0  0  0  0  0  0  0  0  0
   -4.1496   12.1741   28.9920 C   0  0  0  0  0  0  0  0  0  0  0  0
   -2.9986   11.2040   28.7349 C   0  0  0  0  0  0  0  0  0  0  0  0
   -5.3720   11.3883   29.5172 C   0  0  0  0  0  0  0  0  0  0  0  0
   -3.7540   13.2797   30.0537 C   0  0  0  0  0  0  0  0  0  0  0  0
   -1.9847   12.1175   31.3823 C   0  0  0  0  0  0  0  0  0  0  0  0
   -3.2633   12.9869   31.5103 C   0  0  0  0  0  0  0  0  0  0  0  0
   -2.8849   14.2354   32.3137 C   0  0  0  0  0  0  0  0  0  0  0  0
   -4.2837   12.1525   32.3088 C   0  0  0  0  0  0  0  0  0  0  0  0
 32 33  1  0
 33 34  1  0
 33 35  1  0
 33 31  1  0
 31 28  1  0
 28 29  1  0
 28 30  1  0
 28 27  1  0
 27 24  1  0
 24 25  1  0
 24 26  1  0
 24 23  1  0
 23 19  1  0
 19 20  1  0
 19  1  1  0
  2  1  1  0
  2 15  1  0
 15 16  2  0
 15 17  1  0
  2  3  1  0
  4  3  1  0
  4  5  1  0
  5  6  1  0
  6  7  1  0
  7  8  1  0
  7  9  1  0
  9 10  1  0
  9 11  1  0
 11 12  1  0
 12  2  1  0
 11  4  1  0
 20 21  1  0
 20 22  1  0
 17 18  1  0
  8 13  1  0
 10 14  1  0
M  END
> <minimizedAffinity>
-0.50665

> <CNNscore>
0.2478277385

> <CNNaffinity>
5.8444390297

> <CNN_VS>
1.4484140873

> <CNNaffinity_variance>
0.3105008304

$$$$



 35 36  0  0  0  0  0  0  0  0999 V2000
   -6.7357   10.8198   30.5402 C   0  0  0  0  0  0  0  0  0  0  0  0
   -5.2328   11.0257   30.2265 C   0  0  0  0  0  0  0  0  0  0  0  0
   -4.3613    9.7731   30.3721 C   0  0  0  0  0  0  0  0  0  0  0  0
   -3.5410   10.0210   31.6185 C   0  0  0  0  0  0  0  0  0  0  0  0
   -2.2561    9.3990   31.5108 O   0  0  0  0  0  0  0  0  0  0  0  0
   -1.2631   10.0727   32.2850 C   0  0  0  0  0  0  0  0  0  0  0  0
   -1.0002   11.5018   31.7651 C   0  0  0  0  0  0  0  0  0  0  0  0
    0.0905   11.5313   30.8265 O   0  0  0  0  0  0  0  0  0  0  0  0
   -2.2377   12.1009   31.0670 C   0  0  0  0  0  0  0  0  0  0  0  0
   -2.1914   11.7834   29.6642 O   0  0  0  0  0  0  0  0  0  0  0  0
   -3.5059   11.5412   31.7189 C   0  0  0  0  0  0  0  0  0  0  0  0
   -4.7110   12.0331   31.1232 O   0  0  0  0  0  0  0  0  0  0  0  0
   -0.1391   11.0011   30.0473 H   0  0  0  0  0  0  0  0  0  0  0  0
   -2.1840   10.8201   29.5508 H   0  0  0  0  0  0  0  0  0  0  0  0
   -5.1696   11.5712   28.7852 C   0  0  0  0  0  0  0  0  0  0  0  0
   -4.2715   11.4210   27.9699 O   0  0  0  0  0  0  0  0  0  0  0  0
   -6.2129   12.3757   28.4709 O   0  0  0  0  0  0  0  0  0  0  0  0
   -6.9094   12.5012   29.0850 H   0  0  0  0  0  0  0  0  0  0  0  0
   -7.1107    9.5560   31.3445 C   0  0  0  0  0  0  0  0  0  0  0  0
   -6.0742    9.1855   32.3013 N   0  0  0  0  0  0  0  0  0  0  0  0
   -5.2248    8.9268   31.7992 H   0  0  0  0  0  0  0  0  0  0  0  0
   -6.3938    8.3937   32.8592 H   0  0  0  0  0  0  0  0  0  0  0  0
   -7.5823    8.3729   30.4511 C   0  0  0  0  0  0  0  0  0  0  0  0
   -8.3071    7.0807   31.0060 C   0  0  0  0  0  0  0  0  0  0  0  0
   -7.3072    5.9690   31.3184 C   0  0  0  0  0  0  0  0  0  0  0  0
   -9.0644    7.4534   32.3010 C   0  0  0  0  0  0  0  0  0  0  0  0
   -9.3506    6.6792   29.8861 C   0  0  0  0  0  0  0  0  0  0  0  0
   -9.4767    7.3371   28.4497 C   0  0  0  0  0  0  0  0  0  0  0  0
  -10.9227    7.6401   28.0635 C   0  0  0  0  0  0  0  0  0  0  0  0
   -8.8562    6.3877   27.4002 C   0  0  0  0  0  0  0  0  0  0  0  0
   -8.6056    8.6566   28.5283 C   0  0  0  0  0  0  0  0  0  0  0  0
  -10.1540    9.6990   26.8663 C   0  0  0  0  0  0  0  0  0  0  0  0
   -8.9254    9.9868   27.7690 C   0  0  0  0  0  0  0  0  0  0  0  0
   -9.2963   11.1618   28.6795 C   0  0  0  0  0  0  0  0  0  0  0  0
   -7.7788   10.4076   26.8292 C   0  0  0  0  0  0  0  0  0  0  0  0
 32 33  1  0
 33 34  1  0
 33 35  1  0
 33 31  1  0
 31 28  1  0
 28 29  1  0
 28 30  1  0
 28 27  1  0
 27 24  1  0
 24 25  1  0
 24 26  1  0
 24 23  1  0
 23 19  1  0
 19 20  1  0
 19  1  1  0
  2  1  1  0
  2 15  1  0
 15 16  2  0
 15 17  1  0
  2  3  1  0
  4  3  1  0
  4  5  1  0
  5  6  1  0
  6  7  1  0
  7  8  1  0
  7  9  1  0
  9 10  1  0
  9 11  1  0
 11 12  1  0
 12  2  1  0
 11  4  1  0
 20 21  1  0
 20 22  1  0
 17 18  1  0
  8 13  1  0
 10 14  1  0
M  END
> <minimizedAffinity>
1.63996

> <CNNscore>
0.2313180268

> <CNNaffinity>
4.7573447227

> <CNN_VS>
1.1004595757

> <CNNaffinity_variance>
0.1193713173

$$$$



 35 36  0  0  0  0  0  0  0  0999 V2000
   -7.0190   11.0888   30.0315 C   0  0  0  0  0  0  0  0  0  0  0  0
   -5.4888   11.1584   29.8011 C   0  0  0  0  0  0  0  0  0  0  0  0
   -4.7102    9.9086   30.2272 C   0  0  0  0  0  0  0  0  0  0  0  0
   -3.9588   10.3316   31.4698 C   0  0  0  0  0  0  0  0  0  0  0  0
   -2.7118    9.6354   31.5689 O   0  0  0  0  0  0  0  0  0  0  0  0
   -1.7305   10.3841   32.2870 C   0  0  0  0  0  0  0  0  0  0  0  0
   -1.3438   11.6828   31.5483 C   0  0  0  0  0  0  0  0  0  0  0  0
   -0.1946   11.4891   30.7037 O   0  0  0  0  0  0  0  0  0  0  0  0
   -2.4924   12.2109   30.6655 C   0  0  0  0  0  0  0  0  0  0  0  0
   -2.3751   11.6473   29.3466 O   0  0  0  0  0  0  0  0  0  0  0  0
   -3.8335   11.8416   31.3072 C   0  0  0  0  0  0  0  0  0  0  0  0
   -4.9634   12.2810   30.5460 O   0  0  0  0  0  0  0  0  0  0  0  0
   -0.4062   10.8414   30.0133 H   0  0  0  0  0  0  0  0  0  0  0  0
   -2.4218   10.6801   29.4030 H   0  0  0  0  0  0  0  0  0  0  0  0
   -5.2972   11.4352   28.2959 C   0  0  0  0  0  0  0  0  0  0  0  0
   -5.9640   12.1697   27.5821 O   0  0  0  0  0  0  0  0  0  0  0  0
   -4.3207   10.6838   27.7333 O   0  0  0  0  0  0  0  0  0  0  0  0
   -3.8006   10.1156   28.2668 H   0  0  0  0  0  0  0  0  0  0  0  0
   -7.6082    9.7019   30.3693 C   0  0  0  0  0  0  0  0  0  0  0  0
   -6.8400    9.0145   31.4010 N   0  0  0  0  0  0  0  0  0  0  0  0
   -5.9025    8.8161   31.0514 H   0  0  0  0  0  0  0  0  0  0  0  0
   -7.3042    8.1395   31.6444 H   0  0  0  0  0  0  0  0  0  0  0  0
   -7.8842    8.8258   29.1137 C   0  0  0  0  0  0  0  0  0  0  0  0
   -8.7869    7.5266   29.1236 C   0  0  0  0  0  0  0  0  0  0  0  0
   -8.1431    6.3919   28.3292 C   0  0  0  0  0  0  0  0  0  0  0  0
   -8.9810    7.0678   30.5869 C   0  0  0  0  0  0  0  0  0  0  0  0
  -10.1797    7.9866   28.5298 C   0  0  0  0  0  0  0  0  0  0  0  0
  -10.3926    8.9601   27.2974 C   0  0  0  0  0  0  0  0  0  0  0  0
   -9.1369    9.1136   26.4419 C   0  0  0  0  0  0  0  0  0  0  0  0
  -10.8294   10.3484   27.8166 C   0  0  0  0  0  0  0  0  0  0  0  0
  -11.5841    8.3206   26.4744 C   0  0  0  0  0  0  0  0  0  0  0  0
  -12.6595   10.5758   26.4102 C   0  0  0  0  0  0  0  0  0  0  0  0
  -12.8168    9.1112   25.9231 C   0  0  0  0  0  0  0  0  0  0  0  0
  -12.9122    9.1489   24.3944 C   0  0  0  0  0  0  0  0  0  0  0  0
  -14.1455    8.5940   26.5078 C   0  0  0  0  0  0  0  0  0  0  0  0
 32 33  1  0
 33 34  1  0
 33 35  1  0
 33 31  1  0
 31 28  1  0
 28 29  1  0
 28 30  1  0
 28 27  1  0
 27 24  1  0
 24 25  1  0
 24 26  1  0
 24 23  1  0
 23 19  1  0
 19 20  1  0
 19  1  1  0
  2  1  1  0
  2 15  1  0
 15 16  2  0
 15 17  1  0
  2  3  1  0
  4  3  1  0
  4  5  1  0
  5  6  1  0
  6  7  1  0
  7  8  1  0
  7  9  1  0
  9 10  1  0
  9 11  1  0
 11 12  1  0
 12  2  1  0
 11  4  1  0
 20 21  1  0
 20 22  1  0
 17 18  1  0
  8 13  1  0
 10 14  1  0
M  END
> <minimizedAffinity>
-0.02446

> <CNNscore>
0.2266364843

> <CNNaffinity>
4.9581913948

> <CNN_VS>
1.1237070560

> <CNNaffinity_variance>
0.1178152934

$$$$



 35 36  0  0  0  0  0  0  0  0999 V2000
   -6.2790   14.8793   23.3343 C   0  0  0  0  0  0  0  0  0  0  0  0
   -7.3735   14.9240   22.2391 C   0  0  0  0  0  0  0  0  0  0  0  0
   -8.7985   15.1571   22.7538 C   0  0  0  0  0  0  0  0  0  0  0  0
   -9.4916   13.8244   22.5767 C   0  0  0  0  0  0  0  0  0  0  0  0
  -10.8833   14.0108   22.2981 O   0  0  0  0  0  0  0  0  0  0  0  0
  -11.4298   12.9361   21.5328 C   0  0  0  0  0  0  0  0  0  0  0  0
  -10.8030   12.8557   20.1248 C   0  0  0  0  0  0  0  0  0  0  0  0
  -11.5777   13.5881   19.1580 O   0  0  0  0  0  0  0  0  0  0  0  0
   -9.3664   13.4153   20.0977 C   0  0  0  0  0  0  0  0  0  0  0  0
   -9.4104   14.8211   19.7934 O   0  0  0  0  0  0  0  0  0  0  0  0
   -8.7006   13.1638   21.4541 C   0  0  0  0  0  0  0  0  0  0  0  0
   -7.3618   13.6652   21.5273 O   0  0  0  0  0  0  0  0  0  0  0  0
  -11.5843   14.5288   19.3946 H   0  0  0  0  0  0  0  0  0  0  0  0
   -9.9302   15.2823   20.4702 H   0  0  0  0  0  0  0  0  0  0  0  0
   -6.9545   16.0432   21.2640 C   0  0  0  0  0  0  0  0  0  0  0  0
   -5.8326   16.2838   20.8430 O   0  0  0  0  0  0  0  0  0  0  0  0
   -7.9697   16.8793   20.9403 O   0  0  0  0  0  0  0  0  0  0  0  0
   -8.8356   16.7087   21.2551 H   0  0  0  0  0  0  0  0  0  0  0  0
   -6.7641   14.8014   24.7983 C   0  0  0  0  0  0  0  0  0  0  0  0
   -5.8869   15.5298   25.7077 N   0  0  0  0  0  0  0  0  0  0  0  0
   -4.9671   15.0889   25.7189 H   0  0  0  0  0  0  0  0  0  0  0  0
   -6.2829   15.5141   26.6476 H   0  0  0  0  0  0  0  0  0  0  0  0
   -7.0795   13.3521   25.2680 C   0  0  0  0  0  0  0  0  0  0  0  0
   -6.2037   12.5521   26.3149 C   0  0  0  0  0  0  0  0  0  0  0  0
   -5.5425   11.3327   25.6754 C   0  0  0  0  0  0  0  0  0  0  0  0
   -5.1039   13.4903   26.8624 C   0  0  0  0  0  0  0  0  0  0  0  0
   -7.2004   12.1748   27.4847 C   0  0  0  0  0  0  0  0  0  0  0  0
   -7.0299   10.9734   28.5043 C   0  0  0  0  0  0  0  0  0  0  0  0
   -7.7700    9.7132   28.0616 C   0  0  0  0  0  0  0  0  0  0  0  0
   -7.5486   11.4087   29.8932 C   0  0  0  0  0  0  0  0  0  0  0  0
   -5.4678   10.7318   28.5913 C   0  0  0  0  0  0  0  0  0  0  0  0
   -3.2407   10.2674   29.6262 C   0  0  0  0  0  0  0  0  0  0  0  0
   -4.5906   10.9956   29.8599 C   0  0  0  0  0  0  0  0  0  0  0  0
   -4.2718   12.4727   30.1128 C   0  0  0  0  0  0  0  0  0  0  0  0
   -5.2083   10.3790   31.1300 C   0  0  0  0  0  0  0  0  0  0  0  0
 32 33  1  0
 33 34  1  0
 33 35  1  0
 33 31  1  0
 31 28  1  0
 28 29  1  0
 28 30  1  0
 28 27  1  0
 27 24  1  0
 24 25  1  0
 24 26  1  0
 24 23  1  0
 23 19  1  0
 19 20  1  0
 19  1  1  0
  2  1  1  0
  2 15  1  0
 15 16  2  0
 15 17  1  0
  2  3  1  0
  4  3  1  0
  4  5  1  0
  5  6  1  0
  6  7  1  0
  7  8  1  0
  7  9  1  0
  9 10  1  0
  9 11  1  0
 11 12  1  0
 12  2  1  0
 11  4  1  0
 20 21  1  0
 20 22  1  0
 17 18  1  0
  8 13  1  0
 10 14  1  0
M  END
> <minimizedAffinity>
1.55000

> <CNNscore>
0.2183416635

> <CNNaffinity>
5.5284180641

> <CNN_VS>
1.2070839405

> <CNNaffinity_variance>
0.1386783570

$$$$



 35 36  0  0  0  0  0  0  0  0999 V2000
   -8.5386   13.6175   23.5075 C   0  0  0  0  0  0  0  0  0  0  0  0
   -8.6408   14.3834   22.1650 C   0  0  0  0  0  0  0  0  0  0  0  0
   -8.2685   13.5675   20.9218 C   0  0  0  0  0  0  0  0  0  0  0  0
   -6.9376   14.1330   20.4780 C   0  0  0  0  0  0  0  0  0  0  0  0
   -6.8035   14.0545   19.0549 O   0  0  0  0  0  0  0  0  0  0  0  0
   -5.9463   15.0719   18.5360 C   0  0  0  0  0  0  0  0  0  0  0  0
   -6.5330   16.4831   18.7507 C   0  0  0  0  0  0  0  0  0  0  0  0
   -7.2985   16.9169   17.6117 O   0  0  0  0  0  0  0  0  0  0  0  0
   -7.4525   16.5460   19.9868 C   0  0  0  0  0  0  0  0  0  0  0  0
   -8.8033   16.2488   19.5892 O   0  0  0  0  0  0  0  0  0  0  0  0
   -6.9540   15.5500   21.0386 C   0  0  0  0  0  0  0  0  0  0  0  0
   -7.7593   15.5283   22.2218 O   0  0  0  0  0  0  0  0  0  0  0  0
   -8.0587   16.3269   17.4893 H   0  0  0  0  0  0  0  0  0  0  0  0
   -8.8376   15.3615   19.1988 H   0  0  0  0  0  0  0  0  0  0  0  0
  -10.0955   14.8878   22.0723 C   0  0  0  0  0  0  0  0  0  0  0  0
  -11.1172   14.2175   22.0529 O   0  0  0  0  0  0  0  0  0  0  0  0
  -10.1876   16.2288   21.9053 O   0  0  0  0  0  0  0  0  0  0  0  0
   -9.4136   16.7567   21.9177 H   0  0  0  0  0  0  0  0  0  0  0  0
   -7.5691   14.1923   24.5631 C   0  0  0  0  0  0  0  0  0  0  0  0
   -6.3487   14.7170   23.9609 N   0  0  0  0  0  0  0  0  0  0  0  0
   -5.8299   13.9547   23.5248 H   0  0  0  0  0  0  0  0  0  0  0  0
   -5.7730   15.1510   24.6824 H   0  0  0  0  0  0  0  0  0  0  0  0
   -7.3077   13.2249   25.7531 C   0  0  0  0  0  0  0  0  0  0  0  0
   -5.8657   12.8044   26.2499 C   0  0  0  0  0  0  0  0  0  0  0  0
   -5.1910   11.8506   25.2659 C   0  0  0  0  0  0  0  0  0  0  0  0
   -4.9985   14.0762   26.3912 C   0  0  0  0  0  0  0  0  0  0  0  0
   -6.0917   12.1631   27.6789 C   0  0  0  0  0  0  0  0  0  0  0  0
   -4.9580   11.7644   28.7122 C   0  0  0  0  0  0  0  0  0  0  0  0
   -4.2601   12.9785   29.3212 C   0  0  0  0  0  0  0  0  0  0  0  0
   -3.9115   10.8777   28.0007 C   0  0  0  0  0  0  0  0  0  0  0  0
   -5.6974   10.9028   29.8154 C   0  0  0  0  0  0  0  0  0  0  0  0
   -7.7587   10.9134   31.2286 C   0  0  0  0  0  0  0  0  0  0  0  0
   -7.2257   10.5672   29.8133 C   0  0  0  0  0  0  0  0  0  0  0  0
   -8.0500   11.3769   28.8072 C   0  0  0  0  0  0  0  0  0  0  0  0
   -7.4886    9.0637   29.6004 C   0  0  0  0  0  0  0  0  0  0  0  0
 32 33  1  0
 33 34  1  0
 33 35  1  0
 33 31  1  0
 31 28  1  0
 28 29  1  0
 28 30  1  0
 28 27  1  0
 27 24  1  0
 24 25  1  0
 24 26  1  0
 24 23  1  0
 23 19  1  0
 19 20  1  0
 19  1  1  0
  2  1  1  0
  2 15  1  0
 15 16  2  0
 15 17  1  0
  2  3  1  0
  4  3  1  0
  4  5  1  0
  5  6  1  0
  6  7  1  0
  7  8  1  0
  7  9  1  0
  9 10  1  0
  9 11  1  0
 11 12  1  0
 12  2  1  0
 11  4  1  0
 20 21  1  0
 20 22  1  0
 17 18  1  0
  8 13  1  0
 10 14  1  0
M  END
> <minimizedAffinity>
-2.31089

> <CNNscore>
0.1805054545

> <CNNaffinity>
4.3537182808

> <CNN_VS>
0.7858698964

> <CNNaffinity_variance>
1.1576647758

$$$$
